#------------------------------------------------------------------------------
#$Date: 2022-04-03 23:16:45 +0300 (Sun, 03 Apr 2022) $
#$Revision: 274267 $
#$URL: file:///home/coder/svn-repositories/cod/cif/4/51/94/4519416.cif $
#------------------------------------------------------------------------------
#
# This file is available in the Crystallography Open Database (COD),
# http://www.crystallography.net/
#
# All data on this site have been placed in the public domain by the
# contributors.
#
data_4519416
loop_
_publ_author_name
'Ashfaq, Muhammad'
'Khalid, Muhammad'
'Tahir, Muhammad Nawaz'
'Ali, Akbar'
'Arshad, Muhammad Nadeem'
'Asiri, Abdullah M.'
_publ_section_title
;
 Synthesis of Crystalline Fluoro-Functionalized Imines, Single Crystal
 Investigation, Hirshfeld Surface Analysis, and Theoretical Exploration.
;
_journal_issue                   11
_journal_name_full               'ACS omega'
_journal_page_first              9867
_journal_page_last               9878
_journal_paper_doi               10.1021/acsomega.2c00288
_journal_volume                  7
_journal_year                    2022
_chemical_formula_iupac          'C17 H12 F N O2'
_chemical_formula_moiety         'C17 H12 F N O'
_chemical_formula_sum            'C17 H12 F N O'
_chemical_formula_weight         265.28
_chemical_name_systematic
;
(E)-2-methoxy-6-(((4-(trifluoromethyl)phenyl)imino)methyl)phenol
;
_space_group_crystal_system      monoclinic
_space_group_IT_number           4
_space_group_name_Hall           'P 2yb'
_space_group_name_H-M_alt        'P 1 21 1'
_atom_sites_solution_hydrogens   geom
_atom_sites_solution_primary     direct
_atom_sites_solution_secondary   difmap
_audit_creation_method           SHELXL-2018/3
_cell_angle_alpha                90
_cell_angle_beta                 100.816(11)
_cell_angle_gamma                90
_cell_formula_units_Z            2
_cell_length_a                   7.1922(18)
_cell_length_b                   7.5334(16)
_cell_length_c                   12.289(3)
_cell_measurement_reflns_used    1587
_cell_measurement_temperature    296(2)
_cell_measurement_theta_max      27.243
_cell_measurement_theta_min      2.883
_cell_volume                     654.0(3)
_computing_cell_refinement       'SAINT (Bruker, 2007)'
_computing_data_collection       'APEX2 (Bruker, 2007)'
_computing_data_reduction        'SAINT (Bruker, 2007)'
_computing_molecular_graphics
'ORTEP-3 for Windows (Farrugia, 1997) and PLATON (Spek, 2009)'
_computing_publication_material
;
WinGX (Farrugia, 1999) and PLATON (Spek, 2009)
;
_computing_structure_refinement  'SHELXL-2018/3  (Sheldrick, 2015)'
_computing_structure_solution    'SHELXS97 (Sheldrick, 2008)'
_diffrn_ambient_temperature      296(2)
_diffrn_detector_area_resol_mean 7.763
_diffrn_measured_fraction_theta_full 0.998
_diffrn_measured_fraction_theta_max 0.992
_diffrn_measurement_device_type  'Bruker Kappa APEXII CCD'
_diffrn_measurement_method       \w
_diffrn_radiation_monochromator  graphite
_diffrn_radiation_source         'fine-focus sealed tube'
_diffrn_radiation_type           MoK\a
_diffrn_radiation_wavelength     0.71073
_diffrn_reflns_av_R_equivalents  0.0394
_diffrn_reflns_av_unetI/netI     0.0548
_diffrn_reflns_Laue_measured_fraction_full 0.998
_diffrn_reflns_Laue_measured_fraction_max 0.992
_diffrn_reflns_limit_h_max       9
_diffrn_reflns_limit_h_min       -9
_diffrn_reflns_limit_k_max       9
_diffrn_reflns_limit_k_min       -6
_diffrn_reflns_limit_l_max       15
_diffrn_reflns_limit_l_min       -15
_diffrn_reflns_number            5583
_diffrn_reflns_point_group_measured_fraction_full 0.851
_diffrn_reflns_point_group_measured_fraction_max 0.811
_diffrn_reflns_theta_full        25.242
_diffrn_reflns_theta_max         27.243
_diffrn_reflns_theta_min         2.883
_diffrn_standards_number         0
_exptl_absorpt_coefficient_mu    0.094
_exptl_absorpt_correction_T_max  0.986
_exptl_absorpt_correction_T_min  0.983
_exptl_absorpt_correction_type   multi-scan
_exptl_absorpt_process_details   '(SADABS; Bruker, 2005)'
_exptl_crystal_colour            yellow
_exptl_crystal_density_diffrn    1.347
_exptl_crystal_density_method    'not measured'
_exptl_crystal_description       plate
_exptl_crystal_F_000             276
_exptl_crystal_size_max          0.36
_exptl_crystal_size_mid          0.26
_exptl_crystal_size_min          0.17
_refine_diff_density_max         0.148
_refine_diff_density_min         -0.141
_refine_diff_density_rms         0.033
_refine_ls_extinction_method     none
_refine_ls_goodness_of_fit_ref   1.001
_refine_ls_hydrogen_treatment    constr
_refine_ls_matrix_type           full
_refine_ls_number_parameters     182
_refine_ls_number_reflns         2376
_refine_ls_number_restraints     1
_refine_ls_restrained_S_all      1.001
_refine_ls_R_factor_all          0.0802
_refine_ls_R_factor_gt           0.0449
_refine_ls_shift/su_max          0.000
_refine_ls_shift/su_mean         0.000
_refine_ls_structure_factor_coef Fsqd
_refine_ls_weighting_details
'w=1/[\s^2^(Fo^2^)+(0.0532P)^2^] where P=(Fo^2^+2Fc^2^)/3'
_refine_ls_weighting_scheme      calc
_refine_ls_wR_factor_gt          0.0979
_refine_ls_wR_factor_ref         0.1139
_reflns_number_gt                1587
_reflns_number_total             2376
_reflns_threshold_expression     I>2\s(I)
_cod_data_source_file            ao2c00288_si_002.cif
_cod_data_source_block           FL2_0m
_cod_original_sg_symbol_H-M      'P 21'
_cod_database_code               4519416
_shelx_shelxl_version_number     2018/3
_shelx_space_group_comment
;
The symmetry employed for this shelxl refinement is uniquely defined
by the following loop, which should always be used as a source of
symmetry information in preference to the above space-group names.
They are only intended as comments.
;
_shelx_res_file
;

TITL FL2_0m in P2(1)  YELLOW PLATE
    shelx.res
    created by SHELXL-2018/3 at 18:50:45 on 02-Jun-2021
CELL 0.71073   7.1922   7.5334  12.2886  90.000 100.816  90.000
ZERR    2.00   0.0018   0.0016   0.0030   0.000   0.011   0.000
LATT -1
SYMM -x, y+1/2, -z
SFAC C  H  N  O  F
UNIT 34  24  2  2  2
L.S. 40
ACTA
BOND $H
HTAB
CONF
LIST 4
FMAP 2
PLAN 7
TEMP 23.000
OMIT 0   0   1
SIZE 0.36 0.26 0.17
HTAB O1 N1
WGHT    0.053200
FVAR       0.49748
F1    5    0.849368    0.603292    0.443739    11.00000    0.06950    0.13830 =
         0.08823    0.03487    0.02563   -0.00613
O1    4    0.599218    0.882348    0.201514    11.00000    0.06255    0.09596 =
         0.07497   -0.00408    0.02030    0.01148
AFIX 147
H1    2    0.688313    0.837887    0.244260    11.00000   -1.50000
AFIX   0
N1    3    0.929440    0.766896    0.264754    11.00000    0.05589    0.06521 =
         0.04450    0.00303    0.00892    0.00095
C1    1    0.632311    0.875045    0.099140    11.00000    0.05198    0.05607 =
         0.06378   -0.00522    0.00609    0.00161
C2    1    0.486975    0.930566    0.013908    11.00000    0.05798    0.07007 =
         0.09291   -0.00255    0.00179    0.00879
AFIX  43
H2    2    0.373856    0.971802    0.030802    11.00000   -1.20000
AFIX   0
C3    1    0.509153    0.924925   -0.092299    11.00000    0.07355    0.06511 =
         0.08084    0.00269   -0.01635    0.01097
AFIX  43
H3    2    0.410466    0.963023   -0.147447    11.00000   -1.20000
AFIX   0
C4    1    0.677113    0.863145   -0.122660    11.00000    0.07741    0.04438 =
         0.05345    0.00170   -0.00607   -0.00248
C5    1    0.698194    0.853970   -0.234292    11.00000    0.10460    0.06328 =
         0.06027    0.00463   -0.01287   -0.00041
AFIX  43
H5    2    0.598571    0.890173   -0.289448    11.00000   -1.20000
AFIX   0
C6    1    0.858098    0.794417   -0.263222    11.00000    0.14085    0.07227 =
         0.04425    0.00416    0.01067   -0.00420
AFIX  43
H6    2    0.868151    0.790203   -0.337533    11.00000   -1.20000
AFIX   0
C7    1    1.008865    0.738971   -0.182047    11.00000    0.10332    0.07609 =
         0.05668    0.00090    0.02618    0.00011
AFIX  43
H7    2    1.119017    0.696262   -0.202076    11.00000   -1.20000
AFIX   0
C8    1    0.994408    0.747531   -0.072804    11.00000    0.07454    0.06077 =
         0.05093    0.00076    0.01165    0.00244
AFIX  43
H8    2    1.096960    0.712915   -0.019097    11.00000   -1.20000
AFIX   0
C9    1    0.827811    0.807564   -0.039463    11.00000    0.06257    0.04205 =
         0.05193    0.00201    0.00485   -0.00377
C10   1    0.803834    0.814570    0.074596    11.00000    0.04986    0.04516 =
         0.05174   -0.00078    0.00618   -0.00357
C11   1    0.951407    0.761970    0.163342    11.00000    0.04908    0.05288 =
         0.05111   -0.00015    0.01076   -0.00024
AFIX  43
H11   2    1.066136    0.723228    0.147423    11.00000   -1.20000
AFIX   0
C12   1    1.078074    0.725333    0.353497    11.00000    0.05258    0.05493 =
         0.04728   -0.00353    0.01094    0.00503
C13   1    1.033206    0.644337    0.445795    11.00000    0.05977    0.06910 =
         0.05838    0.00257    0.01603    0.00285
C14   1    1.162727    0.602096    0.536545    11.00000    0.09135    0.07591 =
         0.05620    0.01220    0.01067    0.01156
AFIX  43
H14   2    1.126802    0.546634    0.596981    11.00000   -1.20000
AFIX   0
C15   1    1.347719    0.642964    0.537200    11.00000    0.09081    0.07204 =
         0.06735   -0.00115   -0.01052    0.01039
AFIX  43
H15   2    1.439512    0.614746    0.598697    11.00000   -1.20000
AFIX   0
C16   1    1.399435    0.725393    0.447822    11.00000    0.05806    0.08602 =
         0.08854   -0.00811   -0.00361   -0.00285
AFIX  43
H16   2    1.525923    0.752820    0.449173    11.00000   -1.20000
AFIX   0
C17   1    1.264839    0.767763    0.356025    11.00000    0.06017    0.07787 =
         0.05478    0.00132    0.01235   -0.00317
AFIX  43
H17   2    1.300256    0.824876    0.295985    11.00000   -1.20000
AFIX   0
HKLF 4 1 1 0 0 0 1 0 0 0 1




REM  FL2_0m in P2(1)  YELLOW PLATE
REM wR2 = 0.1139, GooF = S = 1.001, Restrained GooF = 1.001 for all data
REM R1 = 0.0449 for 1587 Fo > 4sig(Fo) and 0.0802 for all 2376 data
REM 182 parameters refined using 1 restraints

END

WGHT      0.0520      0.0000

REM Instructions for potential hydrogen bonds
HTAB O1 N1

REM Highest difference peak  0.148,  deepest hole -0.141,  1-sigma level  0.033
Q1    1   0.8162  0.8745  0.0224  11.00000  0.05    0.15
Q2    1   1.5293  0.7034  0.4053  11.00000  0.05    0.13
Q3    1   0.6882  0.7876 -0.1785  11.00000  0.05    0.13
Q4    1   1.5543  0.5786  0.3650  11.00000  0.05    0.12
Q5    1   1.5396  0.7000  0.6242  11.00000  0.05    0.12
Q6    1   1.5213  0.5716  0.5763  11.00000  0.05    0.12
Q7    1   1.5052  0.6599  0.6042  11.00000  0.05    0.11
;
_shelx_res_checksum              90724
_shelx_hkl_file
;
  -1   0   0  130.59    6.04
   1   0   0  143.27    5.41
   1   0   0  120.29    6.03
  -1   0   0  145.36    5.41
   2   0   0  127.01    5.82
  -2   0   0  129.06    5.23
  -2   0   0  131.10    5.24
   2   0   0  126.08    5.23
   2   0   0  125.04    5.22
  -2   0   0  130.39    5.82
  -3   0   0    5.13    0.51
  -3   0   0    4.97    0.54
   3   0   0    5.41    0.54
   3   0   0    4.88    0.50
   4   0   0   16.46    1.13
  -4   0   0   17.71    1.06
  -4   0   0   14.75    1.05
  -5   0   0    4.15    0.67
   5   0   0    4.96    0.75
  -5   0   0    3.43    0.65
  -6   0   0    8.54    1.01
  -6   0   0    6.28    0.88
  -7   0   0    1.53    0.56
  -7   0   0    1.19    0.64
  -8   0   0   -1.23    0.55
  -9   0   0    1.89    0.92
   0  -1   0    0.03    0.07
   0  -1   0    0.11    0.04
   0  -1   0    0.01    0.04
   0  -1   0    0.26    0.07
   0   1   0    0.22    0.04
   0   1   0    0.35    0.06
   0   1   0    0.24    0.06
   1  -1   0  527.68   23.12
   1  -1   0  514.20   20.59
   1  -1   0  500.39   20.58
  -1   1   0  514.17   20.59
  -1   1   0  521.29   23.12
  -1   1   0  539.57   20.59
  -2  -1   0  117.12    4.75
   2  -1   0  119.51    5.39
  -2  -1   0  117.39    5.25
   2  -1   0  117.74    4.80
   2  -1   0  116.92    4.80
  -2  -1   0  110.20    4.74
   2   1   0  117.36    4.75
  -2   1   0  112.52    4.80
  -2   1   0  119.27    4.81
  -2   1   0  118.21    5.38
  -3  -1   0   28.98    1.39
   3  -1   0   30.47    1.60
  -3  -1   0   25.51    1.47
   3   1   0   30.21    1.42
  -3   1   0   28.82    1.60
  -3   1   0   30.89    1.47
  -4  -1   0    9.75    0.78
   4  -1   0    9.63    0.92
  -4  -1   0   10.47    0.78
  -4   1   0    9.35    0.87
   4   1   0    9.55    0.81
  -4   1   0    8.82    0.83
  -5  -1   0   10.80    0.90
  -5  -1   0    8.18    0.83
  -5   1   0   10.08    0.99
  -5   1   0    8.87    0.99
  -6  -1   0    8.68    0.90
  -6  -1   0    7.74    0.99
  -6   1   0    8.73    1.03
  -6   1   0    8.40    1.04
  -7  -1   0    2.34    0.75
  -7  -1   0    3.58    0.66
  -7   1   0    3.65    0.76
  -7   1   0    3.75    0.85
  -8  -1   0    0.41    0.57
  -8   1   0    0.24    0.65
  -9   1   0   -0.71    0.77
   1  -2   0 1000.00   43.65
  -1   2   0  975.39   43.64
  -1   2   0  970.65   38.84
  -2  -2   0   18.54    0.86
  -2  -2   0   18.24    0.93
  -2  -2   0   18.74    0.86
   2  -2   0   19.03    1.15
   2  -2   0   17.34    0.97
  -2   2   0   18.77    1.00
  -2   2   0   17.71    1.11
  -2   2   0   17.80    0.97
   3  -2   0   71.27    3.39
  -3  -2   0   60.35    2.84
  -3  -2   0   66.10    3.07
  -3   2   0   65.92    3.32
   3   2   0   69.26    2.85
  -3   2   0   68.59    2.98
  -4  -2   0    3.67    0.44
  -4  -2   0    3.13    0.47
  -4   2   0    2.63    0.54
  -4   2   0    3.19    0.63
   4   2   0    3.33    0.46
  -5  -2   0    4.37    0.57
  -5  -2   0    5.15    0.68
  -5   2   0    4.27    0.75
  -5   2   0    4.19    0.79
  -6  -2   0    2.35    0.66
  -6  -2   0    3.53    0.55
  -6   2   0    2.99    0.76
  -6   2   0    2.93    0.75
  -7  -2   0    1.74    0.70
  -7   2   0    2.82    0.75
  -7   2   0    2.27    0.76
  -8   2   0    1.00    0.75
   0  -3   0    0.19    0.13
   0  -3   0   -0.09    0.14
   0  -3   0   -0.25    0.24
   0   3   0    0.11    0.15
   0   3   0   -0.06    0.13
   0   3   0    0.03    0.12
   1  -3   0  325.17   14.80
  -1  -3   0  335.16   13.21
  -1  -3   0  319.36   14.67
   1  -3   0  327.30   13.11
   1  -3   0  320.35   13.17
  -1   3   0  332.09   13.20
  -1   3   0  329.50   13.11
  -1   3   0  326.91   13.11
   1   3   0  338.23   13.21
  -2  -3   0   96.93    3.97
  -2  -3   0  103.96    3.98
   2  -3   0   92.13    4.74
  -2   3   0  102.95    4.19
  -2   3   0   97.67    4.73
   2   3   0  104.33    3.96
  -2   3   0   96.73    4.17
  -2   3   0   92.69    4.15
  -3  -3   0   27.23    1.28
  -3   3   0   26.45    1.64
  -3   3   0   28.80    1.48
  -4  -3   0    2.45    0.35
  -4  -3   0    1.65    0.38
  -4   3   0    0.81    0.50
   4   3   0    2.09    0.37
  -4   3   0    1.49    0.47
  -5  -3   0    4.07    0.47
  -5  -3   0    2.48    0.56
  -5   3   0    2.87    0.66
  -5   3   0    4.03    0.81
  -6  -3   0    7.42    0.83
  -6   3   0    5.98    0.95
  -6   3   0    7.67    1.02
  -7   3   0    6.17    0.98
  -7   3   0    5.92    1.00
  -8   3   0   -0.77    0.58
   0  -4   0   18.16    0.84
   0  -4   0   17.34    1.16
   0   4   0   18.64    0.83
   0   4   0   18.40    0.82
   0   4   0   17.15    1.02
   1  -4   0  192.85    8.97
  -1  -4   0  188.93    8.83
  -1   4   0  193.46    8.01
   1   4   0  197.89    8.02
  -1   4   0  194.92    7.86
  -1   4   0  197.62    7.87
  -2  -4   0  124.99    5.80
  -2   4   0  125.82    5.30
  -2   4   0  127.77    5.31
  -2   4   0  125.96    5.38
   2   4   0  130.16    5.39
  -3  -4   0    9.01    0.54
  -3   4   0    9.61    0.85
   3   4   0   10.02    0.51
  -3   4   0   10.45    1.09
  -3   4   0    8.95    0.85
  -4  -4   0   16.11    0.91
  -4  -4   0   16.05    0.93
  -4   4   0   18.65    1.22
  -4   4   0   16.58    1.34
  -4   4   0   16.25    1.11
  -5   4   0    2.34    0.71
  -5   4   0    1.13    0.57
  -6   4   0    6.51    0.98
  -7   4   0    0.64    0.68
  -8   4   0    1.82    0.85
   0   5   0    0.06    0.22
   0   5   0    0.17    0.17
   0   5   0   -0.04    0.15
  -1  -5   0   24.13    1.42
  -1   5   0   23.10    1.34
  -1   5   0   21.80    1.16
  -1   5   0   23.06    1.18
   1   5   0   22.57    1.32
  -2  -5   0   58.73    2.89
  -2   5   0   58.85    2.79
   2   5   0   58.15    2.77
  -2   5   0   59.19    2.67
  -2   5   0   58.88    2.68
  -3  -5   0    5.03    0.52
  -3   5   0    4.84    0.67
  -3   5   0    4.48    0.66
  -4   5   0    2.63    0.60
  -4   5   0    2.40    0.54
  -5   5   0    1.85    0.56
  -5   5   0    1.40    0.59
  -6   5   0   -0.15    0.50
  -6   5   0    0.22    0.60
  -7   5   0    0.95    0.71
  -7   5   0    1.58    0.69
   0   6   0   18.50    1.22
   1   6   0   13.81    1.01
  -1   6   0   12.88    1.01
  -1   6   0   12.32    0.79
  -2  -6   0   22.37    1.41
   2   6   0   20.64    1.33
  -2   6   0   19.98    1.38
  -2   6   0   21.75    1.26
  -3   6   0    9.38    0.96
  -3   6   0   11.53    0.94
  -4   6   0    1.95    0.61
  -4   6   0    2.53    0.60
  -5   6   0    0.70    0.58
  -5   6   0    0.49    0.49
  -6   6   0    1.52    0.72
  -6   6   0    0.87    0.61
  -7   6   0   -0.39    0.54
  -7   6   0    0.25    0.73
   0   7   0   -0.16    0.28
  -1   7   0    1.87    0.35
  -1   7   0    2.02    0.54
   1   7   0    1.40    0.45
  -2   7   0   12.12    1.18
   2   7   0   12.32    1.05
  -2   7   0   14.08    0.93
  -3   7   0    3.28    0.64
  -3   7   0    3.14    0.63
  -4   7   0    2.38    0.66
  -4   7   0    2.36    0.65
  -5   7   0    0.06    0.52
  -5   7   0   -0.18    0.54
  -6   7   0   -0.34    0.58
  -6   7   0    0.92    0.62
   0   8   0    3.51    0.67
  -1   8   0    0.40    0.44
   1   8   0    0.94    0.41
  -2   8   0    0.86    0.52
   2   8   0    0.85    0.41
  -2   8   0    0.67    0.38
  -3   8   0   11.93    1.26
  -3   8   0    9.50    0.97
  -4   8   0   -0.05    0.53
  -4   8   0   -0.08    0.49
  -5   8   0    0.10    0.54
   0   9   0   -0.41    0.38
  -1   9   0    0.18    0.51
   1   9   0   -0.20    0.38
  -2   9   0    0.71    0.55
   2   9   0    0.43    0.45
  -9   0   1   -1.40    0.70
  -8   0   1    0.62    0.68
  -8   0   1    0.63    0.56
  -7   0   1    3.32    0.78
  -7   0   1    3.56    0.74
  -6   0   1   -0.50    0.57
  -6   0   1    0.85    0.60
   5   0  -1    1.09    0.46
  -5   0   1    0.95    0.53
  -5   0   1    0.42    0.43
   4   0  -1   87.99    3.94
  -4   0   1   91.80    3.97
  -4   0   1   93.88    4.38
  -3   0   1   83.13    3.99
   3   0  -1   87.91    3.62
   3   0  -1   87.56    3.60
  -3   0   1   80.12    3.60
  -2   0   1   49.83    2.19
  -2   0   1   48.74    2.44
  -2   0   1   51.87    2.21
   2   0  -1   51.17    2.18
   2   0  -1   53.24    2.20
  -1   0   1   36.05    1.39
   1   0  -1   34.96    1.39
   1   0  -1   32.07    1.38
  -1   0   1   28.16    1.37
   0   0   1   -0.18    0.03
   1   0   1  164.28    6.37
   1   0   1  155.15    7.10
  -1   0  -1  156.77    6.36
  -2   0  -1   72.04    3.05
  -2   0  -1   73.46    3.35
   2   0   1   70.09    3.36
   2   0   1   73.89    3.06
  -3   0  -1   85.36    4.01
  -3   0  -1   81.77    3.66
   3   0   1   90.47    4.04
   3   0   1   84.79    3.67
   4   0   1   12.51    0.95
  -4   0  -1   11.64    0.86
  -4   0  -1   11.29    0.87
  -5   0  -1    0.40    0.44
  -5   0  -1    0.28    0.40
   5   0   1   -0.11    0.54
  -6   0  -1   37.14    2.10
  -6   0  -1   34.59    2.06
  -7   0  -1    4.29    0.84
  -8   0  -1   -0.73    0.57
  -9   1   1    1.68    0.91
  -8  -1   1    1.05    0.65
  -8   1   1   -0.12    0.63
  -8   1   1    0.65    0.55
  -7  -1   1    1.29    0.63
  -7  -1   1    1.92    0.61
  -7   1   1    2.08    0.72
  -7   1   1    2.09    0.63
  -6  -1   1    2.61    0.72
  -6  -1   1    2.78    0.67
  -6   1   1    2.95    0.74
  -6   1   1    2.67    0.72
  -5  -1   1    1.12    0.50
  -5  -1   1    0.70    0.49
   5  -1  -1    0.32    0.43
  -5   1   1    0.21    0.46
  -5   1   1    0.24    0.53
  -4  -1   1   14.40    0.95
   4  -1  -1   15.77    1.02
  -4  -1   1   15.68    1.02
   4  -1  -1   15.27    1.19
   4   1  -1   16.48    0.96
   4   1  -1   15.16    0.96
  -4   1   1   12.86    0.98
  -3  -1   1   18.81    1.08
   3  -1  -1   17.90    1.16
   3  -1  -1   20.75    1.09
  -3  -1   1   19.49    1.02
   3   1  -1   19.71    1.02
   3   1  -1   18.42    1.00
  -3   1   1   19.08    1.08
  -2  -1   1    7.29    0.53
   2  -1  -1    7.25    0.56
   2  -1  -1    7.89    0.57
   2  -1  -1    7.79    0.68
  -2  -1   1    8.09    0.52
  -2   1   1    8.13    0.59
  -2   1   1    6.96    0.57
   2   1  -1    7.88    0.51
   2   1  -1    7.67    0.49
  -2   1   1    7.37    0.68
   1  -1  -1  557.96   22.47
   1  -1  -1  583.15   22.47
   1  -1  -1  538.07   25.22
  -1   1   1  549.31   22.46
  -1   1   1  583.34   25.24
  -1   1   1  591.35   22.48
   0  -1  -1   87.05    3.53
   0   1   1   87.56    3.95
   0   1   1   86.43    3.50
   0   1  -1   86.80    3.54
   0   1  -1   87.62    3.51
  -1  -1  -1  412.41   16.11
   1  -1   1  405.52   18.10
   1  -1   1  406.79   16.13
  -1  -1  -1  397.28   16.07
  -1   1  -1  407.66   16.13
   2  -1   1   70.03    3.16
  -2  -1  -1   72.48    3.11
  -2  -1  -1   73.53    3.38
   2  -1   1   76.39    3.55
  -2   1  -1   77.00    3.19
   2   1   1   78.60    3.12
  -2   1  -1   74.73    3.18
  -2   1  -1   76.05    3.54
   3  -1   1   11.43    0.86
  -3  -1  -1   11.98    0.74
  -3  -1  -1   12.23    0.71
  -3   1  -1   11.65    0.78
   3   1   1   11.81    0.72
   3   1   1   11.17    0.75
  -3   1  -1   11.56    0.84
   4  -1   1   10.92    1.00
  -4  -1  -1   10.29    0.77
  -4  -1  -1   10.56    0.74
  -4   1  -1    8.80    0.83
  -4   1  -1    8.46    0.77
   4   1   1   11.10    0.78
  -5  -1  -1   19.12    1.27
  -5  -1  -1   20.31    1.23
  -5   1  -1   20.67    1.32
  -5   1  -1   19.23    1.36
  -6  -1  -1   50.79    2.61
  -6  -1  -1   53.31    2.62
  -6   1  -1   47.83    2.74
  -6   1  -1   46.88    2.58
  -7  -1  -1    3.75    0.81
  -7   1  -1    3.98    0.82
  -8  -1  -1    1.46    0.75
  -8   1  -1    1.03    0.74
  -8   2   1   -0.08    0.60
  -8   2   1   -0.18    0.54
  -7  -2   1   -0.14    0.53
  -7   2   1    0.79    0.57
  -7   2   1    0.25    0.56
  -6  -2   1    0.78    0.55
  -6  -2   1    1.10    0.53
  -6   2   1    1.28    0.57
  -6   2   1    0.14    0.57
  -5  -2   1    0.87    0.49
  -5  -2   1    0.80    0.47
  -5   2   1    0.88    0.54
  -5   2   1    0.87    0.61
  -4  -2   1    7.20    0.66
  -4  -2   1    6.96    0.66
   4  -2  -1    7.09    0.73
   4   2  -1    7.33    0.61
   4   2  -1    7.60    0.64
  -4   2   1    6.38    0.73
  -4   2   1    7.41    0.86
  -3  -2   1  109.19    4.38
   3  -2  -1  103.10    5.03
   3  -2  -1  104.96    4.48
   3   2  -1  105.90    4.35
   3   2  -1  104.19    4.35
  -3   2   1  103.67    5.02
  -3   2   1  104.69    4.47
   2  -2  -1   31.86    1.68
  -2  -2   1   27.39    1.32
  -2  -2   1   32.27    1.43
   2  -2  -1   30.82    1.44
  -2  -2   1   31.34    1.32
  -2   2   1   31.09    1.44
   2   2  -1   27.70    1.31
  -2   2   1   29.27    1.43
  -2   2   1   31.03    1.65
   1  -2  -1  488.64   23.59
  -1  -2   1  555.36   21.05
   1  -2  -1  536.88   20.99
   1  -2  -1  530.88   20.98
  -1   2   1  536.40   21.03
  -1   2   1  527.81   20.99
   1   2  -1  548.87   21.04
  -1   2   1  525.78   23.60
  -1   2   1  509.19   20.98
  -1  -2  -1  165.19    7.41
  -1  -2  -1  161.92    6.72
   1  -2   1  167.51    6.71
  -1  -2  -1  168.68    6.60
   1  -2   1  168.02    7.58
  -1   2  -1  168.21    6.72
   1   2   1  165.57    6.71
  -1   2  -1  165.40    6.70
   1   2   1  162.81    6.60
  -2  -2  -1    8.91    0.53
  -2  -2  -1    9.31    0.57
  -2  -2  -1    8.95    0.52
   2  -2   1    8.82    0.79
  -2   2  -1    8.87    0.64
  -2   2  -1    9.38    0.64
   3  -2   1    7.42    0.79
  -3  -2  -1    7.07    0.41
  -3  -2  -1    6.97    0.53
   3   2   1    6.99    0.59
  -3   2  -1    6.99    0.67
  -3   2  -1    6.69    0.73
  -4  -2  -1   20.29    1.05
  -4  -2  -1   20.13    1.14
  -4   2  -1   18.33    1.32
  -4   2  -1   20.29    1.27
   4   2   1   20.27    1.18
  -5  -2  -1   26.61    1.48
  -5  -2  -1   27.21    1.40
  -5   2  -1   24.15    1.69
  -5   2  -1   25.82    1.63
  -6  -2  -1   50.45    2.52
  -6   2  -1   48.74    2.65
  -7  -2  -1    9.10    1.05
  -7   2  -1    6.92    1.02
  -8   2  -1   -0.16    0.68
  -8   3   1    1.87    0.71
  -8   3   1    0.39    0.70
  -7   3   1    2.63    0.79
  -7   3   1    2.00    0.73
  -6  -3   1    4.98    0.64
  -6  -3   1    3.90    0.71
  -6   3   1    5.05    0.86
  -6   3   1    4.78    0.87
  -5  -3   1    6.49    0.70
  -5  -3   1    7.72    0.76
  -5   3   1    7.10    1.02
   5   3  -1    6.06    0.66
  -5   3   1    6.09    0.85
   4  -3  -1    8.21    0.83
  -4  -3   1    8.85    0.69
   4   3  -1    7.31    0.62
  -4   3   1    9.48    0.89
  -4   3   1    7.17    0.93
   3  -3  -1    6.04    0.64
  -3  -3   1    5.76    0.49
  -3   3   1    7.33    0.83
  -3   3   1    7.58    0.71
  -2  -3   1   31.35    1.34
   2  -3  -1   31.46    1.85
   2  -3  -1   32.27    1.54
  -2  -3   1   33.64    1.37
  -2   3   1   25.32    1.72
   2   3  -1   34.83    1.34
  -2   3   1   33.17    1.56
  -2   3   1   31.50    1.52
  -2   3   1   32.62    1.56
   2   3  -1   29.87    1.33
   1  -3  -1   21.29    1.06
  -1  -3   1   22.11    1.12
  -1  -3   1   22.18    0.92
   1  -3  -1   21.45    1.12
   1  -3  -1   23.01    1.30
   1  -3  -1   21.15    1.06
  -1   3   1   20.54    1.12
  -1   3   1   21.46    1.07
  -1   3   1   22.19    1.06
  -1   3   1   23.49    1.31
   1   3  -1   23.94    1.14
   0  -3  -1   21.77    1.22
   0  -3   1   20.56    0.96
   0  -3  -1   21.49    1.10
   0  -3   1   22.27    1.10
   0  -3  -1   20.26    0.93
   0  -3  -1   21.02    0.95
   0   3   1   20.43    0.93
   0   3   1   23.15    1.11
   0   3   1   22.16    1.20
   0   3  -1   21.26    0.95
   0   3  -1   21.28    1.09
   0   3   1   21.08    0.92
  -1  -3  -1   66.48    3.36
   1  -3   1   73.70    3.55
   1  -3   1   73.10    3.11
  -1  -3  -1   78.70    3.15
   1   3   1   74.23    3.13
  -1   3  -1   67.71    3.06
  -1   3  -1   75.63    3.07
  -1   3  -1   74.50    3.13
  -2  -3  -1   20.35    0.89
  -2  -3  -1   19.15    0.90
   2  -3   1   20.09    1.33
  -2  -3  -1   19.51    0.97
   2   3   1   20.45    0.90
  -2   3  -1   20.06    1.10
  -2   3  -1   17.92    1.05
  -2   3  -1   19.39    1.09
  -3  -3  -1    5.22    0.44
  -3   3  -1    6.10    0.66
  -4  -3  -1   16.35    1.00
   4   3   1   17.83    1.03
  -4   3  -1   17.84    1.20
  -5  -3  -1   35.84    1.79
  -5   3  -1   32.71    1.94
  -6  -3  -1    2.50    0.57
  -6   3  -1    2.46    0.69
  -7   3  -1    3.22    0.83
  -8   3  -1    2.65    0.89
  -8   4   1    0.59    0.78
  -7   4   1    0.66    0.65
  -7   4   1    0.52    0.58
  -6   4   1    4.22    0.83
  -6   4   1    4.42    0.92
  -5  -4   1    2.28    0.46
  -5   4   1    1.70    0.60
  -5   4   1    1.08    0.59
  -4  -4   1    9.00    0.66
  -4   4   1    7.48    0.78
  -4   4   1    8.50    0.89
  -4   4   1    7.08    0.98
   3  -4  -1   -0.21    0.32
  -3  -4   1    0.14    0.20
  -3   4   1   -0.13    0.45
  -3   4   1    0.27    0.37
  -3   4   1    0.58    0.33
   3   4  -1   -0.05    0.13
   2  -4  -1   29.04    1.45
  -2   4   1   27.60    1.44
  -2   4   1   28.22    1.72
  -2   4   1   27.38    1.44
  -2   4   1   29.94    1.51
   1  -4  -1  131.22    6.29
   1  -4  -1  126.31    5.47
   1   4  -1  137.16    5.63
  -1   4   1  137.51    5.48
  -1   4   1  138.15    6.30
  -1   4   1  133.95    5.62
  -1   4   1  132.47    5.47
   0  -4  -1    5.34    0.34
   0  -4  -1    6.93    0.68
   0  -4  -1    5.70    0.39
   0  -4   1    5.78    0.42
   0  -4   1    6.31    0.67
   0   4  -1    5.36    0.55
   0   4  -1    4.63    0.37
   0   4   1    5.46    0.54
   0   4  -1    4.24    0.35
   0   4   1    6.45    0.37
   0   4   1    5.30    0.37
  -1  -4  -1   51.28    2.45
  -1   4  -1   47.22    2.18
  -1   4  -1   51.90    2.20
   1   4   1   45.96    2.28
  -1   4  -1   51.46    2.31
  -2  -4  -1   19.03    1.07
  -2   4  -1   20.84    1.13
  -2   4  -1   19.37    1.14
  -2   4  -1   18.95    1.14
   2   4   1   20.02    1.13
  -3  -4  -1   19.50    0.89
  -3   4  -1   15.80    1.12
   3   4   1   18.63    0.88
  -4  -4  -1   24.71    1.18
  -4   4  -1   24.08    1.47
  -4   4  -1   19.53    1.32
  -5   4  -1   18.10    1.34
  -6   4  -1    3.88    0.80
  -7   4  -1    2.66    0.83
  -8   4  -1    1.51    0.83
  -7   5   1    1.14    0.62
  -7   5   1    2.85    0.84
  -6   5   1    2.16    0.67
  -6   5   1    2.86    0.76
  -6   5   1    2.26    0.76
  -5   5   1    0.65    0.44
  -5   5   1    0.78    0.62
  -5   5   1    1.86    0.62
  -4   5   1    0.28    0.43
  -4   5   1    0.95    0.64
  -4   5   1    1.64    0.53
  -3   5   1    4.96    0.86
  -3   5   1    5.22    0.67
  -3   5   1    4.53    0.66
  -2   5   1    7.46    0.93
  -2   5   1    7.50    0.76
   2   5  -1    7.56    0.74
  -2   5   1    7.02    0.70
  -2   5   1    7.70    0.72
  -1  -5   1    6.92    0.74
  -1   5   1    6.08    0.67
   1   5  -1    6.41    0.67
  -1   5   1    6.26    0.55
  -1   5   1    7.10    0.57
   0  -5  -1    8.29    0.86
   0   5  -1    6.96    0.45
   0   5  -1    8.20    0.51
   0   5  -1    6.00    0.66
   0   5   1    6.84    0.43
   0   5   1    7.41    0.44
   0   5   1    6.54    0.67
  -1  -5  -1   10.09    0.91
  -1   5  -1   11.10    0.75
   1   5   1   11.77    0.87
  -1   5  -1   11.71    0.73
  -1   5  -1   10.77    0.85
  -2  -5  -1   19.69    1.24
  -2   5  -1   20.00    1.27
   2   5   1   20.41    1.23
  -2   5  -1   24.49    1.28
  -2   5  -1   19.69    1.19
  -3  -5  -1    6.50    0.56
  -3   5  -1    7.06    0.77
  -3   5  -1    5.24    0.72
  -4   5  -1   14.34    1.14
  -4   5  -1   13.70    1.09
  -5   5  -1    9.30    0.98
  -5   5  -1   10.53    1.11
  -6   5  -1    0.40    0.52
  -6   5  -1   -0.72    0.53
  -7   5  -1    0.79    0.64
  -7   5  -1    0.80    0.67
  -7   6   1    0.71    0.69
  -7   6   1    0.99    0.74
  -6   6   1   -0.05    0.41
  -6   6   1   -0.61    0.57
  -5   6   1    0.20    0.56
  -5   6   1    0.65    0.50
  -4   6   1    1.17    0.49
  -4   6   1    2.55    0.62
  -3   6   1    6.87    0.84
  -3   6   1    7.81    0.83
  -2   6   1   10.35    0.85
   2   6  -1   11.77    0.92
  -2   6   1    8.75    0.92
   1   6  -1    2.06    0.45
  -1   6   1    1.25    0.42
  -1   6   1    2.41    0.39
   0   6  -1    1.36    0.23
   0   6   1    1.24    0.40
   0   6  -1    1.36    0.40
   0   6  -1    1.28    0.26
  -1  -6  -1    0.76    0.54
   1   6   1    1.28    0.39
  -1   6  -1    0.79    0.39
  -1   6  -1    0.76    0.30
   2   6   1   21.49    1.37
  -2   6  -1   23.38    1.29
  -2   6  -1   21.71    1.43
  -3   6  -1   16.47    1.14
  -3   6  -1   15.58    1.20
  -4   6  -1   13.86    1.14
  -4   6  -1   12.31    1.09
  -5   6  -1    0.16    0.54
  -5   6  -1   -0.37    0.43
  -6   6  -1    1.20    0.64
  -6   6  -1    0.36    0.58
  -7   6  -1    0.05    0.61
  -7   6  -1    0.11    0.73
  -6   7   1    0.16    0.67
  -6   7   1    0.79    0.59
  -5   7   1    0.59    0.56
  -5   7   1   -0.41    0.51
  -4   7   1    0.32    0.45
  -4   7   1    0.83    0.52
  -3   7   1    1.18    0.53
  -3   7   1    1.87    0.57
  -2   7   1    0.83    0.42
  -2   7   1    1.29    0.51
   2   7  -1    0.53    0.38
  -1   7   1    0.62    0.40
   1   7  -1    0.76    0.39
  -1   7   1    0.97    0.29
   0   7   1    1.91    0.47
   0   7  -1    1.98    0.52
  -1   7  -1    0.36    0.36
   1   7   1    0.33    0.30
  -1   7  -1    0.30    0.27
   2   7   1    3.13    0.59
  -2   7  -1    3.97    0.57
  -2   7  -1    4.46    0.74
  -3   7  -1    4.01    0.67
  -3   7  -1    3.84    0.68
  -4   7  -1    3.08    0.72
  -4   7  -1    5.40    0.81
  -5   7  -1    0.19    0.49
  -5   7  -1    1.22    0.59
  -6   7  -1    0.65    0.65
  -6   7  -1    0.43    0.64
  -5   8   1    0.26    0.61
  -4   8   1    2.05    0.69
  -4   8   1    1.61    0.65
  -3   8   1    3.45    0.74
  -3   8   1    3.83    0.69
   2   8  -1    0.06    0.34
  -2   8   1    0.56    0.43
  -2   8   1    0.52    0.38
  -1   8   1   -0.21    0.34
   1   8  -1   -0.23    0.33
   0   8  -1    0.96    0.45
   0   8   1    0.49    0.36
   1   8   1   -0.09    0.30
  -1   8  -1    0.18    0.41
   2   8   1    0.42    0.36
  -2   8  -1    0.95    0.55
  -2   8  -1    0.73    0.38
  -3   8  -1    9.98    0.95
  -3   8  -1    7.59    1.04
  -4   8  -1   -0.33    0.52
  -4   8  -1    0.37    0.57
  -2   9   1    0.14    0.48
   2   9  -1    0.97    0.44
   1   9  -1    0.27    0.40
  -1   9   1   -0.29    0.35
   0   9  -1    0.85    0.52
   0   9   1   -0.02    0.38
   1   9   1    1.11    0.49
  -1   9  -1   -0.08    0.48
  -2   9  -1    2.40    0.69
   2   9   1    3.32    0.72
  -9   0   2   -1.20    0.71
  -8   0   2    0.80    0.62
  -8   0   2    0.24    0.70
  -7   0   2    3.91    0.81
  -7   0   2    3.41    0.77
   6   0  -2    2.26    0.62
  -6   0   2    2.53    0.68
  -6   0   2    0.78    0.68
  -5   0   2    5.37    0.73
  -5   0   2    6.47    0.86
   5   0  -2    6.54    0.76
  -4   0   2    7.27    0.78
   4   0  -2    6.75    0.69
  -4   0   2    7.48    0.70
   3   0  -2  282.58   11.93
  -3   0   2  296.04   13.35
  -3   0   2  308.75   11.96
   3   0  -2  297.04   11.93
  -2   0   2    9.50    0.62
   2   0  -2    9.64    0.62
   2   0  -2    8.85    0.60
  -2   0   2   10.11    0.59
  -1   0   2  144.02    5.68
  -1   0   2  139.51    5.68
   1   0  -2  138.21    5.68
   1   0  -2  143.03    5.68
   0   0   2  123.11    4.93
   0   0  -2  122.04    4.93
  -1   0  -2    1.78    0.26
   1   0   2    2.25    0.27
  -2   0  -2    9.94    0.63
   2   0   2    9.46    0.65
   2   0   2    9.27    0.65
   3   0   2   23.62    1.31
  -3   0  -2   22.30    1.20
   4   0   2    3.25    0.58
  -4   0  -2    3.40    0.52
  -5   0  -2   45.81    2.28
   5   0   2   42.81    2.41
  -6   0  -2   70.67    3.42
  -7   0  -2    1.94    0.70
  -8   0  -2    1.02    0.74
  -9   1   2    0.95    0.86
  -8  -1   2    0.20    0.61
  -8   1   2    2.44    0.60
  -8   1   2    0.25    0.65
  -7  -1   2    2.03    0.61
  -7  -1   2    0.80    0.61
  -7   1   2    1.87    0.68
  -7   1   2    1.56    0.65
   6  -1  -2    1.64    0.61
  -6  -1   2    2.37    0.69
  -6  -1   2    3.58    0.74
   6   1  -2    2.83    0.61
  -6   1   2    1.35    0.65
  -6   1   2    3.19    0.79
   5  -1  -2    8.74    0.87
  -5  -1   2    9.50    0.90
  -5  -1   2    9.80    0.96
  -5   1   2    8.93    0.90
   5   1  -2    7.73    0.80
  -5   1   2    8.89    1.04
  -4  -1   2   91.00    3.82
  -4  -1   2   84.78    4.18
   4  -1  -2   89.33    3.87
  -4   1   2   91.83    4.34
   4   1  -2   87.01    3.78
   4   1  -2   84.89    3.80
  -4   1   2   86.78    3.87
  -3  -1   2  172.24    7.25
   3  -1  -2  181.91    8.17
   3  -1  -2  182.92    7.31
   3   1  -2  178.80    7.25
  -3   1   2  172.63    8.16
  -3   1   2  176.45    7.31
   3   1  -2  178.18    7.23
  -2  -1   2   14.56    0.74
  -2  -1   2   14.35    0.75
   2  -1  -2   13.62    0.81
   2  -1  -2   14.16    0.79
   2  -1  -2   15.25    0.94
   2   1  -2   14.44    0.74
  -2   1   2   13.99    0.80
   2   1  -2   13.78    0.75
  -2   1   2   15.11    0.82
  -2   1   2   14.31    0.93
   1  -1  -2  280.04   11.51
   1  -1  -2  289.35   11.52
  -1  -1   2  287.83   11.48
  -1  -1   2  293.66   11.49
  -1   1   2  303.75   12.94
  -1   1   2  285.51   11.51
   1   1  -2  301.55   11.49
   1   1  -2  278.96   11.48
  -1   1   2  278.44   11.51
   0  -1  -2  235.85    9.25
   0  -1   2  244.40    9.27
   0  -1  -2  238.02    9.25
   0  -1  -2  222.48    9.26
   0  -1   2  213.38    9.24
   0   1   2  221.81    9.25
   0   1   2  237.53    9.25
   0   1  -2  218.31    9.24
   0   1   2  246.41    9.25
   0   1  -2  246.75    9.27
  -1  -1  -2   41.77    1.81
  -1  -1  -2   43.08    1.78
   1  -1   2   43.55    1.87
  -1   1  -2   42.18    1.84
  -1   1  -2   41.72    1.78
   1   1   2   42.22    1.80
  -2  -1  -2   76.64    3.26
   2  -1   2   79.48    3.34
   2  -1   2   78.32    3.70
  -2   1  -2   78.92    3.32
   2   1   2   80.20    3.29
   2   1   2   74.82    3.54
   3  -1   2   38.54    1.99
  -3  -1  -2   35.68    1.73
  -3   1  -2   36.26    1.79
   3   1   2   36.96    1.75
   3   1   2   36.60    1.79
  -4  -1  -2   11.77    0.87
   4  -1   2   12.67    1.06
  -4   1  -2   12.25    0.93
   4   1   2   11.91    0.86
  -5  -1  -2   23.42    1.45
  -5   1  -2   25.32    1.54
   5   1   2   24.89    1.49
  -6  -1  -2    4.69    0.78
  -6   1  -2    5.00    0.84
  -7  -1  -2    3.08    0.77
  -7   1  -2    3.95    0.81
  -8  -1  -2   -0.13    0.61
  -8   1  -2    0.35    0.66
  -9   2   2   -0.69    0.71
  -9   2   2    1.41    0.67
  -8   2   2    0.21    0.63
  -8   2   2    0.96    0.64
  -7  -2   2    1.56    0.66
  -7  -2   2    0.35    0.56
  -7   2   2    1.77    0.70
  -7   2   2    1.81    0.74
  -6  -2   2   -0.11    0.49
  -6  -2   2    0.27    0.55
   6  -2  -2   -0.11    0.48
  -6   2   2    0.56    0.55
  -6   2   2    0.44    0.62
   5  -2  -2    3.35    0.65
  -5  -2   2    5.89    0.73
  -5  -2   2    6.33    0.71
  -5   2   2    4.73    0.74
   5   2  -2    5.54    0.66
  -5   2   2    4.03    0.85
  -4  -2   2   94.22    4.04
   4  -2  -2   95.68    4.16
   4   2  -2   91.75    4.03
  -4   2   2   91.08    4.14
  -4   2   2   94.41    4.66
   4   2  -2   97.96    4.03
   3  -2  -2   42.48    2.05
  -3  -2   2   42.58    1.93
   3  -2  -2   43.40    2.32
  -3   2   2   44.61    2.05
   3   2  -2   44.38    1.91
  -3   2   2   42.04    2.29
   3   2  -2   41.03    1.92
   2  -2  -2   97.20    4.30
  -2  -2   2   87.57    3.69
   2  -2  -2   91.91    3.81
  -2  -2   2   90.64    3.70
  -2   2   2   94.08    4.32
  -2   2   2   92.99    3.80
   2   2  -2   87.25    3.70
  -2   2   2   82.02    3.79
  -1  -2   2  363.12   13.93
   1  -2  -2  328.69   13.97
   1  -2  -2  361.58   13.99
  -1  -2   2  366.05   13.93
   1  -2  -2  370.52   15.74
  -1  -2   2  379.73   14.04
   1   2  -2  357.83   13.93
   1   2  -2  327.53   14.02
  -1   2   2  355.04   13.99
  -1   2   2  321.60   13.98
  -1   2   2  315.53   15.73
  -1   2   2  364.20   14.02
   0  -2  -2  381.31   16.89
   0  -2  -2  354.36   15.03
   0  -2  -2  393.29   15.10
   0  -2  -2  380.75   15.03
   0  -2   2  392.40   15.11
   0  -2   2  386.68   15.05
   0   2   2  343.42   16.90
   0   2  -2  384.81   15.11
   0   2  -2  375.59   15.05
   0   2   2  389.41   15.11
   0   2   2  386.55   15.03
   1  -2   2   15.20    0.78
  -1  -2  -2   15.40    0.77
  -1  -2  -2   14.69    0.70
   1  -2   2   13.40    0.79
  -1   2  -2   15.70    0.77
  -1   2  -2   14.80    0.78
   1   2   2   14.38    0.75
   1   2   2   14.25    0.75
  -2  -2  -2    5.76    0.43
  -2  -2  -2    6.42    0.45
   2  -2   2    5.72    0.64
  -2   2  -2    5.81    0.48
  -2   2  -2    5.30    0.53
   2   2   2    6.47    0.48
   3  -2   2   15.73    1.17
  -3  -2  -2   15.70    0.87
  -3  -2  -2   14.52    0.86
  -3   2  -2   16.24    1.00
   3   2   2   14.67    0.90
  -4  -2  -2    0.41    0.31
  -4   2  -2    0.27    0.39
   4   2   2    0.54    0.36
  -5  -2  -2   47.76    2.35
  -5   2  -2   47.22    2.46
  -6  -2  -2    4.35    0.73
  -6   2  -2    5.32    0.87
  -7  -2  -2    4.27    0.78
  -7   2  -2    4.20    0.81
  -8   2  -2   -0.04    0.64
  -8   3   2    1.26    0.66
  -8   3   2    0.56    0.68
  -7   3   2    0.12    0.58
  -7   3   2    0.47    0.61
   6  -3  -2    2.28    0.63
  -6  -3   2    1.99    0.60
  -6  -3   2    2.76    0.59
  -6   3   2    2.52    0.71
  -6   3   2    2.03    0.75
  -5  -3   2    6.01    0.73
   5  -3  -2    7.75    0.90
  -5  -3   2    6.81    0.74
   5   3  -2    6.85    0.68
  -5   3   2    4.67    0.90
  -5   3   2    5.82    0.84
  -4  -3   2    5.17    0.56
   4  -3  -2    4.72    0.68
  -4   3   2    3.51    0.63
  -4   3   2    4.32    0.78
   4   3  -2    5.68    0.53
   4   3  -2    5.48    0.53
   3  -3  -2   58.54    2.61
  -3  -3   2   55.91    2.45
   3   3  -2   54.69    2.42
  -3   3   2   57.22    2.96
  -3   3   2   56.77    2.60
  -2  -3   2   48.22    2.06
  -2  -3   2   45.87    2.05
   2  -3  -2   51.50    2.23
   2  -3  -2   49.58    2.55
  -2   3   2   46.88    2.54
  -2   3   2   49.43    2.23
  -2   3   2   49.86    2.22
   2   3  -2   49.07    2.06
  -2   3   2   51.45    2.23
  -1  -3   2   13.03    0.62
  -1  -3   2   12.45    0.63
  -1  -3   2   13.85    0.78
   1  -3  -2   13.10    0.95
   1  -3  -2   12.73    0.73
  -1   3   2   12.56    0.91
  -1   3   2   12.51    0.72
  -1   3   2   13.85    0.73
   1   3  -2   14.55    0.78
  -1   3   2   12.46    0.78
   1   3  -2   13.05    0.63
   0  -3  -2   61.99    2.56
   0  -3  -2   65.18    2.69
   0  -3   2   60.16    2.59
   0  -3  -2   64.98    2.96
   0  -3  -2   60.72    2.54
   0  -3   2   62.15    2.68
   0   3  -2   60.74    2.57
   0   3   2   59.06    2.95
   0   3   2   58.73    2.54
   0   3   2   61.08    2.69
   0   3  -2   65.47    2.70
  -1  -3  -2    6.90    0.53
  -1  -3  -2    7.29    0.40
  -1  -3  -2    6.70    0.52
   1  -3   2    6.49    0.55
   1   3   2    6.60    0.52
  -1   3  -2    6.67    0.52
   1   3   2    7.25    0.39
   1   3   2    7.01    0.39
   1   3   2    6.45    0.49
  -1   3  -2    6.76    0.51
  -2  -3  -2   30.13    1.36
  -2   3  -2   30.66    1.54
  -2   3  -2   32.09    1.56
  -2   3  -2   31.04    1.52
  -3  -3  -2    2.95    0.36
   3   3   2    2.91    0.39
  -3   3  -2    3.11    0.43
  -3   3  -2    3.05    0.51
  -4  -3  -2    5.95    0.59
   4   3   2    6.11    0.63
  -4   3  -2    6.63    0.78
  -5  -3  -2    9.74    0.86
  -5   3  -2    8.82    1.01
  -6   3  -2    5.82    0.92
  -7   3  -2    2.25    0.78
  -8   3  -2   -0.91    0.67
  -8   4   2    0.89    0.67
  -8   4   2   -0.88    0.68
  -7   4   2    0.54    0.61
  -7   4   2   -0.34    0.57
  -6   4   2    0.96    0.61
  -6   4   2   -0.01    0.52
   5  -4  -2    1.80    0.57
  -5   4   2    1.75    0.62
  -5   4   2    0.91    0.58
  -4  -4   2    3.34    0.46
   4  -4  -2    4.14    0.65
  -4   4   2    3.53    0.66
  -4   4   2    3.92    0.78
   3  -4  -2    3.86    0.58
  -3  -4   2    4.55    0.41
   3   4  -2    3.26    0.33
   3   4  -2    4.25    0.32
  -3   4   2    3.62    0.76
  -3   4   2    3.65    0.53
  -3   4   2    4.60    0.60
  -2  -4   2   26.04    1.15
   2  -4  -2   27.38    1.40
  -2  -4   2   27.37    1.18
  -2   4   2   26.50    1.38
  -2   4   2   28.00    1.39
  -2   4   2   24.76    1.42
  -2   4   2   28.34    1.69
   1  -4  -2  168.07    6.76
   1  -4  -2  167.81    7.69
  -1  -4   2  170.38    6.63
  -1  -4   2  157.38    6.62
  -1   4   2  168.13    7.71
   1   4  -2  167.23    6.88
   1   4  -2  158.36    6.61
  -1   4   2  173.70    6.74
  -1   4   2  164.65    6.88
  -1   4   2  161.26    6.74
   0  -4  -2   46.07    1.86
   0  -4  -2   41.75    1.82
   0  -4  -2   46.03    2.25
   0   4   2   43.13    1.82
   0   4   2   41.77    1.83
   0   4  -2   43.23    1.86
   0   4  -2   43.96    2.04
   0   4   2   38.67    2.02
   0   4   2   43.36    2.21
  -1  -4  -2   13.10    0.89
  -1  -4  -2   13.79    0.64
  -1   4  -2   12.85    0.78
   1   4   2   14.72    0.89
  -1   4  -2   14.16    0.88
  -1   4  -2   13.27    0.82
  -2  -4  -2   21.46    1.06
  -2  -4  -2   20.40    0.93
   2   4   2   20.28    0.90
  -2   4  -2   21.11    1.23
   2   4   2   21.54    1.18
  -2   4  -2   19.59    1.16
   2   4   2   21.31    0.93
  -2   4  -2   19.68    1.19
  -3  -4  -2   15.81    0.84
   3   4   2   16.51    0.87
  -3   4  -2   15.35    1.05
  -3   4  -2   18.01    1.13
  -4  -4  -2    8.09    0.66
  -4   4  -2    7.59    0.88
   4   4   2    6.43    0.63
  -4   4  -2    7.78    0.79
  -5   4  -2    8.93    1.03
  -5   4  -2    8.03    0.87
  -6   4  -2    2.17    0.69
  -7   4  -2    1.90    0.76
  -7   5   2    0.42    0.64
  -7   5   2    1.15    0.71
  -6   5   2    0.37    0.60
  -6   5   2   -0.30    0.55
  -6   5   2   -0.77    0.44
  -5   5   2    1.61    0.68
  -5   5   2    1.46    0.54
  -5   5   2    1.19    0.60
   4  -5  -2    2.69    0.59
  -4   5   2    3.14    0.63
  -4   5   2    3.20    0.66
  -4   5   2    2.21    0.75
   3  -5  -2    1.06    0.46
  -3   5   2    1.36    0.47
  -3   5   2    1.05    0.62
  -3   5   2    0.68    0.44
   2  -5  -2   12.03    0.87
  -2   5   2   13.30    1.14
  -2   5   2   13.55    1.00
  -2   5   2   13.04    0.90
  -2   5   2   12.51    0.91
   2   5  -2   12.24    0.94
   1  -5  -2    7.40    0.62
  -1  -5   2    7.39    0.41
  -1   5   2    7.95    0.61
   1   5  -2    6.34    0.67
  -1   5   2    8.12    0.88
  -1   5   2    7.09    0.72
  -1   5   2    7.31    0.59
   0  -5  -2   16.94    0.84
   0  -5  -2   16.35    1.25
   0   5   2   16.02    0.80
   0   5   2   17.00    0.80
   0   5  -2   15.79    0.82
   0   5  -2   15.41    1.06
   0   5   2   15.61    1.06
  -1  -5  -2    0.66    0.48
  -1   5  -2    0.05    0.29
  -1   5  -2   -0.03    0.30
   1   5   2    0.03    0.22
  -1   5  -2    0.42    0.28
  -2  -5  -2    7.66    0.71
  -2   5  -2    8.90    0.73
   2   5   2    8.36    0.71
  -2   5  -2    8.97    0.82
  -2   5  -2    6.44    0.73
  -3   5  -2    1.88    0.50
  -3   5  -2    1.80    0.46
  -4   5  -2    8.87    0.92
  -4   5  -2   11.78    1.08
  -5   5  -2    0.75    0.41
  -5   5  -2   -0.01    0.49
  -6   5  -2    0.43    0.60
  -6   5  -2    0.08    0.47
  -7   5  -2   -0.41    0.55
  -7   5  -2    0.32    0.67
  -7   6   2   -0.88    0.60
  -7   6   2    1.08    0.69
  -6   6   2    2.29    0.81
  -6   6   2    0.69    0.52
  -6   6   2    2.53    0.80
  -5   6   2    2.10    0.67
  -5   6   2    1.52    0.75
  -5   6   2    0.76    0.51
  -4   6   2    1.58    0.57
  -4   6   2    1.66    0.53
  -4   6   2    1.72    0.68
  -3   6   2    3.80    0.66
  -3   6   2    4.39    0.68
  -3   6   2    4.40    0.84
   2   6  -2    1.43    0.44
  -2   6   2    2.40    0.51
  -2   6   2    1.35    0.47
  -1   6   2   11.39    0.76
   1   6  -2   10.98    0.90
  -1   6   2   10.43    0.93
   0   6  -2    7.94    0.54
   0   6  -2    7.34    0.80
   0   6  -2    8.49    0.57
   0   6   2    7.81    0.82
   1   6   2    2.73    0.52
  -1   6  -2    2.75    0.42
  -1   6  -2    2.02    0.49
  -2   6  -2    0.97    0.40
   2   6   2    1.10    0.35
  -2   6  -2    0.60    0.37
  -3   6  -2    6.54    0.78
  -3   6  -2    6.85    0.83
  -4   6  -2    3.82    0.73
  -4   6  -2    6.03    0.79
  -5   6  -2    0.77    0.51
  -5   6  -2    1.50    0.63
  -6   6  -2    1.17    0.61
  -6   6  -2    0.33    0.60
  -6   7   2   -0.30    0.54
  -6   7   2    0.66    0.65
  -5   7   2   -0.64    0.53
  -5   7   2   -0.10    0.50
  -4   7   2    0.93    0.52
  -3   7   2    0.13    0.42
  -3   7   2   -0.32    0.41
   2   7  -2    0.79    0.42
  -2   7   2    1.20    0.43
  -2   7   2    1.30    0.47
  -1   7   2    5.59    0.53
   1   7  -2    5.45    0.72
  -1   7   2    4.72    0.72
   0   7  -2    1.54    0.48
   0   7   2    1.23    0.42
  -1   7  -2    0.62    0.31
  -1   7  -2    0.36    0.37
   1   7   2    0.29    0.31
  -2   7  -2    0.81    0.39
   2   7   2    0.16    0.33
  -2   7  -2    0.82    0.40
  -3   7  -2    3.81    0.72
  -3   7  -2    3.96    0.67
  -4   7  -2    1.06    0.56
  -4   7  -2    2.23    0.62
  -5   7  -2   -0.76    0.44
  -5   7  -2   -0.04    0.51
  -5   8   2   -1.02    0.57
  -4   8   2    0.17    0.55
  -4   8   2   -0.06    0.57
  -3   8   2    1.39    0.58
  -3   8   2    0.51    0.53
   2   8  -2    0.08    0.39
  -2   8   2   -0.05    0.38
  -2   8   2   -0.86    0.35
   1   8  -2    0.82    0.45
  -1   8   2    0.33    0.36
   0   8  -2    0.85    0.51
   0   8   2    2.00    0.52
  -1   8  -2   -0.56    0.36
  -1   8  -2   -0.07    0.26
   1   8   2   -0.22    0.30
  -2   8  -2    0.19    0.35
   2   8   2    0.12    0.35
  -2   8  -2   -0.79    0.38
  -3   8  -2    2.25    0.70
  -3   8  -2    3.36    0.67
  -4   8  -2    0.12    0.55
  -4   8  -2    0.24    0.52
  -2   9   2   -0.29    0.42
  -1   9   2    1.57    0.59
   1   9  -2    1.24    0.52
   0   9   2    0.55    0.38
   0   9  -2    0.86    0.50
  -1   9  -2   -0.31    0.43
   1   9   2   -0.18    0.38
  -2   9  -2    2.80    0.69
   2   9   2    2.06    0.64
  -9   0   3   -0.77    0.74
  -8   0   3    0.62    0.61
  -8   0   3    0.10    0.62
   7   0  -3    3.09    0.70
  -7   0   3    1.74    0.69
  -7   0   3    4.19    0.87
  -6   0   3    0.21    0.53
   6   0  -3   -0.38    0.46
  -6   0   3   -0.48    0.61
   5   0  -3    7.32    0.80
  -5   0   3    5.78    0.87
  -5   0   3    6.08    0.78
   4   0  -3  112.70    4.76
  -4   0   3  111.38    4.77
  -4   0   3  108.38    5.26
   3   0  -3    6.26    0.56
  -3   0   3    5.43    0.62
   3   0  -3    5.92    0.57
  -3   0   3    5.96    0.56
  -2   0   3   91.65    3.91
   2   0  -3  100.85    3.92
   2   0  -3   88.13    3.90
  -2   0   3   95.51    3.92
   1   0  -3   56.29    2.34
   1   0  -3   53.61    2.34
  -1   0   3   55.98    2.35
  -1   0   3   54.78    2.35
   0   0  -3  181.33    7.31
   0   0   3  181.85    7.31
  -1   0  -3   58.31    2.70
   1   0   3   69.77    2.72
  -2   0  -3    0.36    0.22
   2   0   3    0.67    0.26
   3   0   3  194.99    8.78
  -3   0  -3  190.02    7.91
  -4   0  -3   -0.08    0.27
   4   0   3    0.13    0.43
  -5   0  -3   75.01    3.37
   5   0   3   68.88    3.61
  -6   0  -3    2.88    0.67
  -7   0  -3   -0.14    0.50
  -8   0  -3   -0.91    0.57
  -9   1   3   -0.59    0.75
  -8  -1   3   -0.67    0.61
  -8  -1   3    2.04    0.65
  -8   1   3    0.17    0.58
  -8   1   3   -0.45    0.62
   7  -1  -3    1.61    0.61
  -7  -1   3    1.52    0.65
  -7  -1   3    1.10    0.64
  -7   1   3    1.50    0.67
  -7   1   3    2.33    0.76
   7   1  -3    1.33    0.57
  -6  -1   3    1.56    0.68
  -6  -1   3    1.81    0.62
   6  -1  -3    1.06    0.55
  -6   1   3    1.41    0.58
  -6   1   3    1.49    0.74
   6   1  -3    1.27    0.56
  -5  -1   3    2.19    0.53
  -5  -1   3    2.25    0.62
   5  -1  -3    1.53    0.50
   5   1  -3    3.13    0.57
  -5   1   3    2.06    0.74
  -5   1   3    3.10    0.62
  -4  -1   3   29.89    1.54
  -4  -1   3   28.65    1.66
   4  -1  -3   28.93    1.58
  -4   1   3   29.27    1.57
  -4   1   3   31.25    1.80
   4   1  -3   27.43    1.52
   3  -1  -3   15.88    1.01
  -3  -1   3   17.98    0.96
   3   1  -3   18.15    0.99
  -3   1   3   17.56    1.19
   3   1  -3   18.58    0.98
  -3   1   3   17.59    1.01
   2  -1  -3   14.89    0.81
  -2  -1   3   13.97    0.76
   2  -1  -3   15.45    0.80
  -2  -1   3   15.11    0.78
  -2   1   3   14.71    0.80
  -2   1   3   12.61    0.79
   2   1  -3   12.35    0.74
   2   1  -3   14.98    0.78
  -2   1   3   15.95    0.99
   1  -1  -3   69.32    2.73
  -1  -1   3   58.49    2.69
  -1  -1   3   65.33    2.70
   1  -1  -3   66.67    2.72
  -1   1   3   65.55    2.72
   1   1  -3   67.02    2.70
   1   1  -3   65.55    2.70
  -1   1   3   58.94    2.70
   0  -1  -3   47.32    2.00
   0  -1   3   46.47    1.93
   0  -1   3   44.55    1.99
   0   1   3   48.35    2.00
   0   1  -3   45.74    2.00
   0   1   3   46.90    1.93
   0   1  -3   46.47    1.93
   0   1   3   48.01    1.99
   1  -1   3   27.69    1.31
  -1  -1  -3   27.37    1.19
  -1  -1  -3   26.96    1.26
   1   1   3   28.88    1.30
  -1   1  -3   28.23    1.20
  -1   1  -3   27.64    1.31
  -2  -1  -3  215.79    8.31
  -2   1  -3  204.16    8.32
   2   1   3  193.80    8.29
   3  -1   3   17.83    1.18
  -3  -1  -3   16.90    0.99
   3   1   3   17.45    1.00
  -3   1  -3   18.36    1.08
   3   1   3   18.33    1.07
  -4  -1  -3    3.86    0.55
   4   1   3    4.72    0.56
  -4   1  -3    4.39    0.63
  -5  -1  -3   13.48    1.03
  -5   1  -3   11.63    1.10
   5   1   3   10.82    0.98
  -6  -1  -3    1.50    0.56
  -6   1  -3    0.83    0.58
  -7  -1  -3   -0.58    0.50
  -7   1  -3    0.12    0.53
  -8   1  -3   -0.23    0.64
  -9   2   3   -0.80    0.70
  -9   2   3    2.41    0.80
  -8   2   3    1.66    0.70
  -8   2   3    1.30    0.73
  -7  -2   3    0.89    0.59
  -7  -2   3    2.25    0.61
   7  -2  -3    0.51    0.58
  -7   2   3   -0.17    0.60
  -7   2   3    0.35    0.51
  -6  -2   3    1.10    0.56
  -6  -2   3    1.09    0.61
   6  -2  -3    0.08    0.49
  -6   2   3    0.13    0.61
   6   2  -3    1.08    0.49
  -6   2   3    0.78    0.57
  -5  -2   3    5.59    0.77
   5  -2  -3    5.68    0.78
  -5  -2   3    5.07    0.70
  -5   2   3    5.86    0.93
  -5   2   3    6.06    0.82
   5   2  -3    5.84    0.69
  -4  -2   3    2.97    0.48
   4  -2  -3    3.62    0.58
  -4   2   3    2.90    0.56
   4   2  -3    2.49    0.44
  -4   2   3    3.98    0.75
   4   2  -3    3.58    0.47
  -3  -2   3   19.50    0.99
   3  -2  -3   18.74    1.10
  -3   2   3   19.31    1.11
  -3   2   3   18.45    1.25
   3   2  -3   17.88    1.00
   3   2  -3   18.25    0.98
  -2  -2   3   25.51    1.18
   2  -2  -3   20.88    1.44
  -2  -2   3   25.66    1.17
   2  -2  -3   26.15    1.28
   2   2  -3   23.96    1.18
  -2   2   3   24.36    1.25
  -2   2   3   28.04    1.29
   2   2  -3   27.67    1.19
  -2   2   3   26.08    1.47
   1  -2  -3  116.80    4.78
  -1  -2   3  108.85    4.74
  -1  -2   3  107.89    4.78
  -1  -2   3  119.75    4.75
   1  -2  -3  119.08    4.80
   1   2  -3  119.89    4.76
  -1   2   3  114.27    4.79
  -1   2   3  124.56    5.42
  -1   2   3  117.34    4.79
  -1   2   3  119.76    4.79
   0  -2  -3   39.71    1.72
   0  -2  -3   37.81    1.70
   0  -2  -3   39.21    1.68
   0  -2   3   41.23    1.72
   0  -2   3   33.13    1.70
   0   2   3   40.75    1.70
   0   2   3   41.99    1.93
   0   2  -3   41.62    1.72
   0   2   3   40.54    1.72
   0   2  -3   35.30    1.70
   0   2   3   38.75    1.70
  -1  -2  -3    7.30    0.48
  -1  -2  -3    7.76    0.49
   1  -2   3    9.39    0.52
   1   2   3    7.55    0.47
   1   2   3    7.96    0.51
  -1   2  -3    6.88    0.54
   1   2   3    7.95    0.51
  -1   2  -3    7.61    0.49
  -2  -2  -3   75.46    3.49
  -2  -2  -3   83.02    3.50
  -2   2  -3   85.97    3.51
   2   2   3   88.07    3.53
  -2   2  -3   86.08    3.60
  -3  -2  -3   96.36    4.10
  -3  -2  -3   95.31    4.08
   3   2   3  100.22    4.14
  -3   2  -3   96.39    4.22
  -4  -2  -3   21.14    1.20
   4   2   3   22.20    1.33
  -4   2  -3   20.30    1.31
  -5  -2  -3    8.25    0.84
  -5   2  -3    8.70    0.99
  -6  -2  -3   10.55    1.02
  -6   2  -3    9.24    1.09
  -7   2  -3   -0.14    0.56
  -8   2  -3   -0.02    0.66
  -8   3   3    1.94    0.71
  -8   3   3   -0.25    0.64
   7  -3  -3    0.89    0.53
  -7   3   3    0.18    0.60
  -7   3   3   -0.10    0.57
  -6  -3   3    1.40    0.53
   6  -3  -3    1.33    0.56
  -6  -3   3    0.95    0.49
   6   3  -3    1.07    0.44
  -6   3   3    0.71    0.57
  -6   3   3    1.49    0.66
  -5  -3   3    6.20    0.74
   5  -3  -3    5.29    0.81
   5   3  -3    8.79    0.76
   5   3  -3    5.82    0.69
  -5   3   3    7.53    0.91
  -5   3   3    8.33    1.12
   4  -3  -3   17.04    1.15
  -4  -3   3   12.80    0.96
  -4   3   3   16.22    1.13
   4   3  -3   16.02    0.95
   4   3  -3   16.60    0.94
  -4   3   3   15.92    1.35
  -3  -3   3    2.67    0.37
   3  -3  -3    4.06    0.55
   3   3  -3    3.60    0.41
  -3   3   3    3.22    0.51
  -3   3   3    4.11    0.73
   3   3  -3    4.60    0.41
   2  -3  -3   38.84    2.05
   2  -3  -3   35.77    1.72
  -2  -3   3   34.14    1.58
   2   3  -3   35.23    1.59
  -2   3   3   35.62    1.71
  -2   3   3   37.48    1.72
  -2   3   3   36.79    1.73
  -2   3   3   35.93    2.02
  -1  -3   3   79.80    3.46
  -1  -3   3   81.80    3.34
  -1  -3   3   78.99    3.33
   1  -3  -3   81.41    3.40
   1  -3  -3   80.61    3.88
  -1   3   3   83.53    3.90
   1   3  -3   85.30    3.47
  -1   3   3   84.07    3.40
  -1   3   3   80.81    3.47
  -1   3   3   80.00    3.39
   1   3  -3   74.49    3.33
   0  -3  -3    1.10    0.19
   0  -3  -3    1.44    0.24
   0  -3  -3    1.08    0.25
   0  -3  -3    1.32    0.35
   0  -3   3    1.12    0.23
   0   3   3    1.09    0.37
   0   3  -3    0.65    0.21
   0   3   3    1.81    0.29
   0   3  -3    1.72    0.26
   0   3   3    1.25    0.21
   0   3   3    0.76    0.20
  -1  -3  -3   70.82    2.80
  -1  -3  -3   70.57    2.91
   1  -3   3   68.29    2.89
   1   3   3   59.73    2.77
   1   3   3   72.40    3.13
   1   3   3   63.57    2.89
  -1   3  -3   62.66    2.89
  -1   3  -3   68.23    2.91
  -2  -3  -3  105.58    4.53
  -2   3  -3  110.27    4.64
   2   3   3  111.71    4.55
  -2   3  -3  114.28    4.68
  -3  -3  -3   12.86    0.79
  -3   3  -3   12.53    0.86
  -3   3  -3   13.05    0.96
   3   3   3   14.24    0.88
  -4  -3  -3   10.73    0.82
  -4   3  -3   12.57    1.01
   4   3   3   10.76    0.89
  -5  -3  -3    2.12    0.47
  -5   3  -3    1.53    0.59
  -6   3  -3    1.03    0.63
  -7   3  -3    0.42    0.58
  -8   3  -3   -0.55    0.66
  -8   4   3   -0.75    0.68
  -8   4   3    0.22    0.64
  -7   4   3    0.44    0.55
  -7   4   3    0.31    0.61
   6  -4  -3   -0.26    0.46
  -6   4   3   -0.21    0.59
  -6   4   3    0.34    0.54
   5  -4  -3    6.20    0.82
   5   4  -3    5.62    0.60
  -5   4   3    6.65    1.06
  -5   4   3    7.10    0.89
  -4  -4   3    5.44    0.57
   4  -4  -3    3.60    0.67
   4   4  -3    4.24    0.48
  -4   4   3    4.93    0.71
  -4   4   3    4.92    0.92
   4   4  -3    4.75    0.47
  -3  -4   3    2.06    0.31
   3  -4  -3    1.53    0.46
  -3   4   3    1.97    0.64
   3   4  -3    1.95    0.32
  -3   4   3    1.44    0.48
  -3   4   3    1.80    0.43
  -2  -4   3   23.70    1.06
   2  -4  -3   22.38    1.23
  -2   4   3   23.80    1.26
  -2   4   3   23.38    1.53
  -2   4   3   22.99    1.30
  -2   4   3   21.28    1.24
   2   4  -3   22.30    1.06
   1  -4  -3   19.64    1.13
   1  -4  -3   23.49    1.43
  -1  -4   3   21.64    1.02
   1   4  -3   21.88    1.20
  -1   4   3   22.14    1.21
  -1   4   3   23.48    1.13
  -1   4   3   22.46    1.39
  -1   4   3   20.93    1.11
   1   4  -3   21.35    1.02
   0  -4  -3   59.68    2.87
   0  -4  -3   58.16    2.45
   0   4   3   53.43    2.43
   0   4   3   58.42    2.63
   0   4  -3   58.17    2.62
   0   4  -3   56.86    2.47
   0   4   3   59.42    2.87
  -1  -4  -3   50.60    2.17
  -1   4  -3   52.52    2.31
   1   4   3   48.07    2.16
   1   4   3   51.87    2.37
   1   4   3   52.75    2.49
  -1   4  -3   53.81    2.39
   1   4   3   50.78    2.15
  -2  -4  -3   15.56    0.76
  -2   4  -3   15.13    0.96
   2   4   3   15.22    0.94
   2   4   3   14.52    0.73
  -2   4  -3   14.50    0.94
   2   4   3   14.01    0.78
  -3  -4  -3    2.76    0.36
  -3   4  -3    2.45    0.52
  -3   4  -3    2.91    0.49
  -4  -4  -3    9.00    0.70
  -4   4  -3    8.18    0.93
  -4   4  -3    9.00    0.86
  -5   4  -3    2.09    0.59
  -5   4  -3    1.62    0.50
  -6   4  -3    1.03    0.55
  -6   4  -3   -0.47    0.46
  -7   4  -3    0.35    0.60
  -7   4  -3   -0.64    0.54
  -7   5   3    0.98    0.66
  -7   5   3    1.21    0.64
  -6   5   3    1.64    0.68
  -6   5   3    1.76    0.76
  -6   5   3    0.44    0.48
   5  -5  -3    2.11    0.60
  -5   5   3    2.38    0.56
  -5   5   3    2.01    0.63
  -5   5   3    3.52    0.84
   4  -5  -3    7.18    0.85
  -4   5   3    5.77    0.80
  -4   5   3    7.79    1.09
  -4   5   3    5.71    0.74
  -3  -5   3    0.92    0.28
   3  -5  -3    1.38    0.50
  -3   5   3   -0.28    0.53
  -3   5   3    0.98    0.43
   3   5  -3    0.67    0.20
  -3   5   3   -0.20    0.42
   2  -5  -3   16.28    1.02
  -2  -5   3   15.95    0.77
  -2   5   3   14.58    1.06
  -2   5   3   15.83    1.01
  -2   5   3   12.35    1.20
  -2   5   3   16.60    1.02
   1  -5  -3   14.83    0.93
  -1  -5   3   15.32    0.77
  -1   5   3   13.33    1.00
   1   5  -3   15.57    1.02
  -1   5   3   16.10    0.92
  -1   5   3   15.76    1.18
  -1   5   3   15.65    0.91
   1   5  -3   15.26    0.78
   0  -5  -3    4.92    0.46
   0  -5  -3    6.06    0.76
   0   5  -3    4.95    0.45
   0   5   3    4.91    0.38
   0   5   3    5.23    0.46
   0   5   3    5.11    0.68
   0   5   3    5.62    0.63
   0   5  -3    4.48    0.57
  -1  -5  -3   10.74    0.58
  -1  -5  -3   10.08    0.89
  -1   5  -3    9.09    0.78
   1   5   3   10.34    0.81
  -1   5  -3    8.39    0.70
  -1   5  -3   11.36    0.82
  -2  -5  -3    1.78    0.23
  -2   5  -3    1.32    0.41
   2   5   3    1.09    0.33
  -2   5  -3    0.73    0.37
  -3   5  -3    5.69    0.70
  -3   5  -3    6.62    0.77
   3   5   3    6.28    0.41
   3   5   3    6.93    0.52
  -4   5  -3    1.99    0.52
  -4   5  -3    2.68    0.62
  -5   5  -3    0.42    0.56
  -5   5  -3    0.84    0.52
  -6   5  -3    0.20    0.58
  -6   5  -3    1.09    0.43
  -7   5  -3   -0.32    0.64
  -7   5  -3   -1.05    0.45
  -7   6   3    0.02    0.55
  -7   6   3   -0.21    0.72
  -6   6   3   -0.25    0.55
  -6   6   3    0.16    0.60
  -6   6   3   -0.46    0.50
  -5   6   3    1.21    0.49
  -5   6   3    1.27    0.65
  -5   6   3    1.17    0.64
   4  -6  -3    1.75    0.56
  -4   6   3    2.07    0.61
  -4   6   3    1.64    0.70
  -4   6   3    0.52    0.48
   3  -6  -3    0.58    0.42
  -3   6   3    0.62    0.39
  -3   6   3    0.55    0.56
  -3   6   3    1.03    0.48
   2  -6  -3    2.02    0.50
  -2   6   3    2.18    0.67
  -2   6   3    1.51    0.45
  -2   6   3    2.61    0.51
   1  -6  -3    8.75    0.72
   1   6  -3    9.11    0.51
  -1   6   3   10.41    1.11
   1   6  -3    7.81    0.80
  -1   6   3    8.29    0.89
  -1   6   3    8.33    0.70
   0   6   3    2.38    0.48
   0   6   3    2.70    0.34
   0   6  -3    2.25    0.36
   0   6  -3    1.71    0.44
   0   6   3    3.26    0.33
  -1  -6  -3    7.68    0.87
  -1   6  -3    7.13    0.64
   1   6   3    6.21    0.74
  -1   6  -3    4.96    0.68
   2   6   3    0.31    0.28
  -2   6  -3    0.45    0.37
  -2   6  -3    0.21    0.35
  -3   6  -3   -0.05    0.39
  -3   6  -3    0.02    0.35
  -4   6  -3    0.26    0.43
  -4   6  -3   -0.08    0.45
  -5   6  -3    1.99    0.63
  -5   6  -3    2.60    0.69
  -6   6  -3    0.08    0.50
  -6   6  -3    0.64    0.63
  -6   7   3   -0.58    0.59
  -6   7   3    0.14    0.63
  -5   7   3    0.75    0.51
  -5   7   3    0.23    0.68
  -5   7   3   -0.35    0.53
  -4   7   3    0.69    0.53
  -4   7   3    2.50    0.68
  -4   7   3    2.15    0.82
  -3   7   3   -0.26    0.44
  -3   7   3    1.33    0.60
  -3   7   3    0.86    0.42
   2   7  -3    0.67    0.37
  -2   7   3    0.08    0.40
  -2   7   3    0.70    0.45
  -1   7   3    7.57    0.66
  -1   7   3    8.83    0.96
   1   7  -3    7.52    0.85
   0   7   3    1.48    0.46
   0   7  -3    1.79    0.30
   0   7  -3    1.89    0.48
   1   7   3   -0.21    0.28
  -1   7  -3   -0.17    0.34
  -1   7  -3   -0.07    0.28
  -2   7  -3    0.15    0.40
   2   7   3    0.03    0.29
  -2   7  -3    0.07    0.36
  -3   7  -3    0.56    0.45
  -3   7  -3   -0.21    0.38
  -4   7  -3    0.31    0.46
  -4   7  -3    0.44    0.48
  -5   7  -3    0.60    0.59
  -5   7  -3    0.17    0.53
  -5   8   3   -0.71    0.58
  -4   8   3   -0.05    0.47
  -4   8   3    0.28    0.55
  -3   8   3   -0.56    0.48
  -3   8   3   -0.03    0.47
  -2   8   3   -0.41    0.39
  -2   8   3   -0.49    0.38
  -1   8   3   -0.11    0.35
   1   8  -3    0.13    0.38
   0   8   3    5.33    0.81
  -1   8  -3    0.30    0.33
  -1   8  -3   -0.12    0.39
   1   8   3    0.26    0.35
  -2   8  -3    2.47    0.65
  -2   8  -3    2.58    0.52
   2   8   3    1.49    0.49
  -3   8  -3   -0.47    0.44
  -3   8  -3   -0.24    0.42
  -4   8  -3   -0.32    0.49
  -4   8  -3   -0.49    0.48
  -2   9   3   -0.20    0.45
  -1   9   3    0.39    0.49
   1   9  -3    1.00    0.55
   0   9  -3    0.27    0.43
   0   9   3    0.14    0.36
   1   9   3   -0.15    0.37
  -1   9  -3   -0.16    0.48
   2   9   3    0.51    0.47
  -2   9  -3    0.31    0.56
  -9   0   4    0.28    0.77
   8   0  -4    1.26    0.63
  -8   0   4    0.48    0.67
  -8   0   4    0.20    0.65
  -7   0   4   -0.71    0.61
  -7   0   4    0.77    0.59
   7   0  -4    1.27    0.59
  -6   0   4    0.80    0.70
  -6   0   4    1.51    0.61
   6   0  -4    1.46    0.59
  -5   0   4    4.92    0.72
   5   0  -4    3.80    0.66
  -5   0   4    5.73    0.88
  -4   0   4   35.77    2.07
   4   0  -4   36.65    1.85
  -4   0   4   37.73    1.84
  -3   0   4    0.54    0.27
   3   0  -4    0.99    0.33
   2   0  -4   43.96    1.87
   2   0  -4   40.18    1.85
  -2   0   4   38.35    1.83
  -1   0   4  178.93    7.23
   1   0  -4  178.45    7.22
   1   0  -4  177.46    7.23
  -1   0   4  178.37    7.24
   0   0  -4   23.64    1.18
   0   0   4   25.85    1.20
  -1   0  -4  105.04    4.01
   1   0   4   86.27    3.99
  -2   0  -4   29.64    1.47
   3   0   4   65.05    3.18
  -3   0  -4   65.26    2.92
  -4   0  -4    0.84    0.40
   4   0   4    0.77    0.49
  -5   0  -4    3.17    0.63
  -6   0  -4    2.37    0.65
  -7   0  -4   -0.65    0.47
  -8   0  -4    0.06    0.64
  -9   1   4   -1.18    0.64
  -9   1   4    1.98    0.74
  -8  -1   4    1.17    0.71
  -8  -1   4   -0.15    0.60
   8  -1  -4    0.64    0.59
  -8   1   4    0.83    0.71
  -8   1   4    0.92    0.69
   8   1  -4    1.01    0.56
  -7  -1   4    8.75    1.10
  -7  -1   4    7.40    0.99
   7  -1  -4    6.78    0.98
   7   1  -4    8.27    0.99
  -7   1   4    7.61    1.14
  -7   1   4    7.68    1.03
   6  -1  -4    4.07    0.77
  -6  -1   4    4.03    0.72
  -6  -1   4    2.93    0.80
   6   1  -4    3.62    0.67
  -6   1   4    3.23    0.88
  -6   1   4    2.40    0.71
  -5  -1   4    0.39    0.56
  -5  -1   4    0.68    0.43
   5  -1  -4    0.81    0.49
  -5   1   4    0.42    0.64
   5   1  -4    0.42    0.44
  -5   1   4    0.58    0.43
   4  -1  -4   12.40    0.92
  -4  -1   4   10.50    0.81
  -4   1   4   12.02    0.86
   4   1  -4   11.77    0.88
  -4   1   4   11.99    1.08
  -3  -1   4    8.06    0.60
   3  -1  -4    8.15    0.72
   3   1  -4    8.27    0.62
  -3   1   4    8.09    0.65
   3   1  -4    7.31    0.61
  -3   1   4    8.26    0.83
   2  -1  -4    0.22    0.24
  -2  -1   4    0.52    0.20
   2   1  -4    0.29    0.22
   2   1  -4    0.26    0.18
  -2   1   4    0.50    0.25
  -2   1   4    0.47    0.22
  -1  -1   4   71.45    3.18
   1  -1  -4   77.75    3.20
   1  -1  -4   74.02    3.20
  -1  -1   4   76.23    3.18
   1   1  -4   73.87    3.19
  -1   1   4   80.83    3.22
  -1   1   4   77.20    3.20
   0  -1   4   32.12    1.46
   0  -1  -4   30.33    1.44
   0  -1   4   32.15    1.33
   0   1   4   32.06    1.33
   0   1   4   31.26    1.43
   0   1  -4   30.05    1.45
   0   1   4   31.55    1.45
  -1  -1  -4   43.05    1.81
  -1  -1  -4   43.28    1.94
  -1   1  -4   45.05    1.98
   1   1   4   46.59    1.97
  -1   1  -4   41.97    1.81
  -2  -1  -4  220.16    8.70
  -2  -1  -4  212.66    8.56
  -2   1  -4  217.33    8.75
   2   1   4  204.99    8.70
  -3  -1  -4    0.67    0.29
   3  -1   4    0.37    0.37
  -3   1  -4    0.76    0.33
   3   1   4    1.04    0.30
  -4  -1  -4    0.53    0.35
  -4   1  -4   -0.16    0.36
   4   1   4    0.71    0.40
  -5  -1  -4   11.91    1.03
  -5   1  -4   14.73    1.16
   5   1   4   14.91    1.12
  -6  -1  -4    0.14    0.43
  -6   1  -4   -0.18    0.47
  -7  -1  -4   -0.22    0.50
  -7   1  -4   -0.50    0.49
  -8   1  -4    0.93    0.71
  -9   2   4    1.37    0.74
  -9   2   4    0.23    0.83
   8  -2  -4   -0.50    0.53
  -8   2   4   -0.49    0.46
  -8   2   4    0.69    0.70
   7  -2  -4    0.49    0.55
  -7  -2   4    0.73    0.62
  -7  -2   4   -0.25    0.52
  -7   2   4    1.59    0.69
   7   2  -4    0.39    0.50
  -7   2   4    0.68    0.56
  -6  -2   4   -0.18    0.59
   6  -2  -4   -0.44    0.43
  -6  -2   4   -0.02    0.46
  -6   2   4   -0.05    0.59
   6   2  -4    0.20    0.46
  -6   2   4    0.04    0.51
  -5  -2   4   11.13    0.97
   5  -2  -4   13.87    1.13
  -5   2   4   13.00    1.10
   5   2  -4   13.41    1.01
  -5   2   4   15.08    1.45
  -4  -2   4    4.30    0.54
   4  -2  -4    4.56    0.62
   4   2  -4    4.38    0.52
   4   2  -4    4.45    0.57
  -4   2   4    3.96    0.59
  -4   2   4    4.47    0.77
  -3  -2   4    8.36    0.61
   3  -2  -4    8.19    0.72
  -3   2   4    8.39    0.70
  -3   2   4    9.51    0.88
   3   2  -4    9.92    0.67
   3   2  -4    9.51    0.65
  -2  -2   4   15.81    0.86
   2  -2  -4   16.91    0.95
  -2   2   4   17.16    1.14
   2   2  -4   16.82    0.87
  -2   2   4   16.95    0.95
   2   2  -4   15.60    0.87
  -2   2   4   16.98    0.94
  -1  -2   4   14.03    0.78
   1  -2  -4   15.59    0.83
  -1  -2   4   14.88    0.79
  -1   2   4   15.79    0.84
  -1   2   4   13.89    0.98
  -1   2   4   15.76    0.82
  -1   2   4   15.07    0.82
   1   2  -4   15.54    0.82
   0  -2  -4    4.09    0.35
   0  -2   4    4.32    0.36
   0  -2  -4    4.89    0.41
   0   2   4    4.71    0.40
   0   2   4    4.10    0.36
   0   2   4    3.67    0.34
   0   2  -4    3.97    0.40
   0   2  -4    4.46    0.35
  -1  -2  -4   39.56    1.77
  -1  -2  -4   38.50    1.72
  -1   2  -4   40.48    1.74
  -1   2  -4   37.81    1.82
   1   2   4   40.60    1.78
   1   2   4   39.47    1.72
  -2  -2  -4   43.55    1.97
  -2  -2  -4   43.40    1.93
   2   2   4   44.64    2.01
  -2   2  -4   42.81    2.06
  -2   2  -4   43.75    1.93
  -3  -2  -4   17.24    1.04
  -3  -2  -4   18.05    0.97
   3   2   4   17.90    0.94
   3   2   4   18.92    1.11
  -3   2  -4   19.24    1.12
  -4  -2  -4   21.03    1.29
  -4   2  -4   23.53    1.41
   4   2   4   22.56    1.16
  -5  -2  -4   11.49    0.94
  -5   2  -4   10.29    1.05
  -6  -2  -4    1.22    0.50
  -6   2  -4    1.07    0.60
  -7   2  -4    0.61    0.57
  -8   2  -4    0.82    0.75
   8  -3  -4    2.13    0.68
  -8   3   4    2.26    0.79
  -8   3   4   -0.19    0.64
   7  -3  -4    0.22    0.56
   7   3  -4    0.00    0.43
  -7   3   4   -0.21    0.58
  -7   3   4   -0.51    0.49
  -6  -3   4    1.60    0.54
  -6  -3   4    1.67    0.65
   6  -3  -4    0.70    0.52
   6   3  -4    1.82    0.50
  -6   3   4    2.16    0.70
  -6   3   4    0.99    0.58
   5  -3  -4   -0.14    0.44
  -5  -3   4    0.38    0.44
   5   3  -4    0.62    0.39
  -5   3   4   -0.38    0.61
  -5   3   4    0.10    0.52
  -4  -3   4    4.32    0.53
   4  -3  -4    3.59    0.63
  -4   3   4    3.58    0.63
   4   3  -4    4.17    0.49
   4   3  -4    3.98    0.54
  -4   3   4    4.02    0.82
   3  -3  -4    0.60    0.36
  -3  -3   4    0.45    0.23
   3   3  -4    0.26    0.20
  -3   3   4    0.27    0.33
  -3   3   4    0.19    0.54
   3   3  -4    0.22    0.28
  -2  -3   4    8.55    0.56
   2  -3  -4    9.04    0.70
   2   3  -4    9.22    0.58
  -2   3   4    9.24    0.70
  -2   3   4   10.49    0.74
  -2   3   4    9.06    0.85
  -2   3   4    8.76    0.67
  -1  -3   4   65.62    2.83
   1  -3  -4   66.80    2.88
  -1  -3   4   66.72    2.90
   1   3  -4   67.83    2.84
   1   3  -4   61.32    2.90
  -1   3   4   69.62    2.92
  -1   3   4   63.47    2.87
  -1   3   4   67.92    3.29
  -1   3   4   71.03    2.89
   0  -3  -4    1.95    0.31
   0  -3  -4    2.11    0.31
   0  -3   4    2.18    0.31
   0   3   4    2.26    0.30
   0   3  -4    3.19    0.37
   0   3   4    2.35    0.31
   0   3   4    2.35    0.33
   0   3   4    2.32    0.45
   0   3  -4    1.76    0.29
  -1  -3  -4   24.34    1.13
  -1  -3  -4   22.83    1.16
   1  -3   4   22.35    1.15
   1   3   4   24.50    1.11
   1   3   4   21.36    1.22
  -1   3  -4   24.05    1.17
  -1   3  -4   19.98    1.17
   1   3   4   22.69    1.13
   1   3   4   23.94    1.16
  -2  -3  -4    6.13    0.52
  -2  -3  -4    6.06    0.50
   2   3   4    6.03    0.53
  -2   3  -4    4.65    0.57
  -2   3  -4    5.09    0.50
  -3  -3  -4    9.92    0.71
  -3   3  -4    9.80    0.85
   3   3   4   11.28    0.86
  -3   3  -4   10.24    0.77
  -4  -3  -4    4.95    0.59
  -4   3  -4    3.99    0.58
   4   3   4    4.22    0.63
  -4   3  -4    4.51    0.70
  -5  -3  -4    1.60    0.43
  -5   3  -4    1.51    0.55
  -6   3  -4    1.05    0.57
  -7   3  -4    0.28    0.61
  -8   4   4    0.15    0.72
   7  -4  -4   -0.03    0.51
  -7   4   4   -0.06    0.55
  -7   4   4    0.52    0.68
   6  -4  -4    1.36    0.62
  -6   4   4    2.28    0.67
   6   4  -4    1.13    0.43
  -6   4   4    1.87    0.73
   5  -4  -4    5.12    0.81
  -5   4   4    5.66    0.84
   5   4  -4    5.59    0.62
  -5   4   4    7.23    1.08
  -4  -4   4    6.92    0.65
   4  -4  -4    6.95    0.83
   4   4  -4    6.02    0.60
  -4   4   4    6.23    0.80
   4   4  -4    6.21    0.57
  -4   4   4    4.42    0.90
   3  -4  -4    1.15    0.44
  -3  -4   4    1.10    0.28
  -3   4   4    1.05    0.39
  -3   4   4    0.22    0.43
   3   4  -4    1.08    0.32
  -3   4   4    0.81    0.60
  -2  -4   4    8.18    0.55
   2  -4  -4    8.09    0.75
   2   4  -4    8.10    0.58
  -2   4   4    8.86    1.00
  -2   4   4    9.43    0.76
  -2   4   4    9.39    0.71
  -2   4   4    9.97    0.77
  -1  -4   4   29.51    1.31
   1  -4  -4   25.95    1.65
   1  -4  -4   25.28    1.37
   1   4  -4   26.00    1.31
  -1   4   4   29.47    1.69
   1   4  -4   29.20    1.47
  -1   4   4   28.26    1.38
  -1   4   4   28.00    1.38
  -1   4   4   28.36    1.47
   0  -4  -4    8.32    0.58
   0   4   4    7.92    0.66
   0   4   4    8.94    0.77
   0   4  -4    8.53    0.68
   0   4  -4    7.81    0.58
   0   4   4    8.31    0.57
   0   4   4    7.36    0.55
  -1  -4  -4    3.66    0.37
   1   4   4    2.99    0.46
  -1   4  -4    2.45    0.41
   1   4   4    2.65    0.32
   1   4   4    3.25    0.43
  -1   4  -4    2.35    0.40
  -2  -4  -4    5.29    0.44
   2   4   4    2.47    0.40
   2   4   4    4.67    0.39
  -2   4  -4    5.13    0.62
   2   4   4    4.90    0.52
  -2   4  -4    4.25    0.52
  -3  -4  -4    2.59    0.39
  -3   4  -4    1.99    0.50
   3   4   4    2.74    0.47
  -3   4  -4    2.04    0.44
  -4   4  -4   13.66    1.09
  -4   4  -4   12.81    1.00
  -5   4  -4    2.71    0.56
  -5   4  -4    2.92    0.67
  -6   4  -4   -0.94    0.43
  -6   4  -4    0.09    0.51
  -7   4  -4    1.06    0.71
  -7   4  -4    0.16    0.56
  -7   5   4    0.35    0.61
  -7   5   4   -0.10    0.60
   6  -5  -4    1.10    0.60
  -6   5   4    1.77    0.65
  -6   5   4    2.14    0.72
   5  -5  -4    0.31    0.49
  -5   5   4    0.38    0.62
  -5   5   4   -0.08    0.40
   5   5  -4    0.33    0.29
  -5   5   4    0.39    0.52
   4  -5  -4    5.83    0.81
  -4   5   4    5.49    0.96
  -4   5   4    5.37    0.73
  -4   5   4    6.12    0.81
   4   5  -4    5.61    0.51
   3  -5  -4    0.42    0.44
  -3  -5   4    0.26    0.24
   3   5  -4    0.21    0.25
  -3   5   4    0.14    0.57
  -3   5   4    0.30    0.47
  -3   5   4    0.43    0.40
  -2  -5   4    1.05    0.25
   2  -5  -4    0.57    0.39
  -2   5   4    0.89    0.38
  -2   5   4    0.77    0.40
  -2   5   4    0.77    0.62
  -2   5   4    1.03    0.41
   2   5  -4    0.75    0.25
  -1  -5   4   12.85    0.73
   1  -5  -4   13.24    0.87
  -1   5   4   13.75    0.98
   1   5  -4   10.72    0.88
  -1   5   4   13.55    0.86
   1   5  -4   12.64    0.75
  -1   5   4   12.54    1.09
  -1   5   4   13.96    0.85
   0  -5  -4    1.19    0.33
   0  -5  -4    2.99    0.60
   0   5  -4    1.63    0.33
   0   5  -4    1.79    0.40
   0   5   4    1.57    0.50
   0   5   4    2.10    0.43
   0   5   4    1.43    0.31
   0   5   4    0.30    0.21
  -1  -5  -4   17.75    0.89
   1   5   4   18.54    0.89
  -1   5  -4   16.11    1.00
   1   5   4   16.21    1.09
   1   5   4   15.14    1.05
  -1   5  -4   15.82    1.09
   1   5   4   16.70    0.86
  -2  -5  -4    0.22    0.22
   2   5   4    0.64    0.29
  -2   5  -4    0.38    0.35
   2   5   4    0.47    0.20
   2   5   4    0.80    0.31
  -2   5  -4    0.67    0.40
  -3   5  -4    1.15    0.42
  -3   5  -4    1.37    0.46
   3   5   4    1.42    0.26
  -4   5  -4    1.04    0.50
  -4   5  -4    1.77    0.49
  -5   5  -4    0.13    0.50
  -5   5  -4   -0.22    0.42
  -6   5  -4    1.01    0.59
  -6   5  -4    1.98    0.69
  -7   5  -4    0.96    0.71
  -7   5  -4   -0.79    0.58
  -7   6   4   -0.22    0.62
   6  -6  -4    0.80    0.54
  -6   6   4   -0.61    0.48
  -6   6   4    0.21    0.66
  -6   6   4    0.46    0.63
   5  -6  -4    2.44    0.65
  -5   6   4    2.25    0.66
  -5   6   4    2.70    0.85
  -5   6   4    2.12    0.52
   4  -6  -4    3.52    0.69
  -4   6   4    2.56    0.78
  -4   6   4    2.31    0.60
  -4   6   4    2.76    0.64
   3  -6  -4    0.44    0.45
  -3   6   4    0.15    0.37
  -3   6   4   -0.19    0.50
  -3   6   4    0.44    0.44
   2  -6  -4    2.99    0.56
  -2   6   4    2.64    0.52
  -2   6   4    2.47    0.67
  -2   6   4    2.98    0.56
   1   6  -4    6.11    0.73
  -1   6   4    6.72    0.79
  -1   6   4    6.35    0.64
   1   6  -4    6.97    0.52
  -1   6   4    6.85    0.91
   0   6  -4   10.56    0.88
   0   6   4    9.58    0.84
   0   6   4   10.80    1.02
   0   6   4    7.86    0.63
   0   6  -4    9.90    0.68
   1   6   4    3.31    0.55
  -1   6  -4    2.72    0.51
  -1   6  -4    2.67    0.46
   2   6   4    2.11    0.43
  -2   6  -4    1.82    0.48
  -2   6  -4    2.35    0.49
  -3   6  -4    0.54    0.41
  -3   6  -4    1.14    0.48
  -4   6  -4    0.92    0.51
  -4   6  -4    1.37    0.53
  -5   6  -4    0.01    0.49
  -5   6  -4    0.19    0.52
  -6   6  -4   -0.81    0.56
  -6   6  -4   -0.85    0.49
  -6   7   4   -0.46    0.67
  -5   7   4   -0.19    0.56
  -5   7   4    0.94    0.48
  -5   7   4   -0.49    0.55
  -4   7   4    0.12    0.42
  -4   7   4    0.43    0.65
  -4   7   4   -0.31    0.50
  -3   7   4    0.28    0.48
  -3   7   4    0.36    0.41
  -3   7   4    0.45    0.60
  -2   7   4    0.72    0.42
  -2   7   4    0.32    0.41
  -2   7   4    1.18    0.61
  -1   7   4    0.10    0.35
  -1   7   4    0.16    0.33
   1   7  -4    0.29    0.34
   0   7  -4    0.96    0.30
   0   7  -4    0.78    0.41
   0   7   4    0.70    0.39
  -1   7  -4    4.35    0.55
   1   7   4    3.27    0.59
  -1   7  -4    4.19    0.69
   2   7   4    1.07    0.43
  -2   7  -4    0.80    0.42
  -2   7  -4    2.00    0.55
  -3   7  -4    0.23    0.43
  -3   7  -4    0.09    0.41
  -4   7  -4    0.90    0.54
  -4   7  -4    0.69    0.55
  -5   7  -4    2.11    0.68
  -5   7  -4    1.43    0.68
  -5   8   4   -0.65    0.65
  -4   8   4    0.52    0.60
  -4   8   4    0.26    0.51
  -3   8   4    0.13    0.44
  -3   8   4   -0.17    0.50
  -2   8   4   -0.12    0.40
  -2   8   4   -0.57    0.33
   1   8  -4    0.70    0.45
  -1   8   4    1.05    0.45
   0   8  -4    0.93    0.49
   0   8   4    1.00    0.51
  -1   8  -4   -0.11    0.38
  -1   8  -4    0.64    0.37
   1   8   4   -0.06    0.35
   2   8   4    1.31    0.50
  -2   8  -4    1.13    0.46
  -2   8  -4    0.76    0.49
  -3   8  -4    0.34    0.47
  -3   8  -4   -0.09    0.47
  -4   8  -4    0.12    0.57
  -4   8  -4   -0.05    0.55
  -2   9   4    0.25    0.50
  -1   9   4    0.51    0.47
   1   9  -4    1.28    0.55
   0   9  -4    0.18    0.46
   0   9   4   -0.08    0.30
   1   9   4    0.02    0.43
  -1   9  -4    0.37    0.54
  -2   9  -4    0.22    0.54
   2   9   4    0.80    0.52
  -9   0   5   -0.18    0.64
   9   0  -5    1.02    0.69
  -9   0   5    3.13    0.76
   8   0  -5    1.48    0.64
  -8   0   5    2.08    0.79
  -8   0   5    0.52    0.63
  -7   0   5    4.33    0.84
   7   0  -5    5.17    0.86
  -7   0   5    5.54    0.97
  -6   0   5    0.15    0.67
   6   0  -5    0.10    0.48
  -6   0   5   -0.22    0.48
  -5   0   5    9.79    1.11
  -5   0   5    9.65    0.93
   5   0  -5    7.88    0.87
   4   0  -5   -0.16    0.34
  -4   0   5    0.06    0.30
  -4   0   5    0.39    0.49
   3   0  -5    0.04    0.27
  -3   0   5    0.54    0.27
   2   0  -5    3.05    0.42
  -2   0   5    4.39    0.45
   1   0  -5   75.25    3.22
  -1   0   5   75.10    3.22
   0   0  -5    0.58    0.23
   0   0   5    1.31    0.24
  -1   0  -5   50.23    2.26
  -2   0  -5   57.04    2.58
  -3   0  -5    1.47    0.37
  -4   0  -5    2.86    0.56
   4   0   5    4.19    0.63
  -5   0  -5    0.58    0.44
  -6   0  -5    3.34    0.68
  -7   0  -5    0.44    0.55
  -8   0  -5    1.09    0.74
   9  -1  -5    0.74    0.64
  -9   1   5    1.57    0.80
  -9   1   5    0.73    0.74
  -8  -1   5    0.67    0.63
  -8  -1   5    2.82    0.73
   8  -1  -5    0.86    0.59
  -8   1   5    1.33    0.68
  -8   1   5    1.43    0.78
   8   1  -5    1.36    0.63
   7  -1  -5    3.40    0.79
  -7  -1   5    4.53    0.95
  -7  -1   5    4.23    0.80
  -7   1   5    3.69    0.81
  -7   1   5    3.65    0.95
   7   1  -5    3.85    0.79
  -6  -1   5   -0.28    0.62
   6  -1  -5    0.26    0.50
  -6  -1   5   -0.42    0.45
   6   1  -5   -0.06    0.46
  -6   1   5   -0.46    0.47
  -6   1   5   -0.71    0.57
  -5  -1   5    2.97    0.57
  -5  -1   5    2.72    0.71
   5  -1  -5    3.28    0.63
  -5   1   5    1.91    0.57
   5   1  -5    4.03    0.63
  -5   1   5    3.82    0.84
   4  -1  -5    5.60    0.70
  -4  -1   5    7.93    0.72
  -4   1   5    5.52    0.65
   4   1  -5    7.68    0.74
  -4   1   5    7.52    0.93
   3  -1  -5    7.90    0.71
  -3  -1   5    5.85    0.58
  -3   1   5    7.21    0.62
   3   1  -5    8.27    0.64
  -3   1   5    6.59    0.79
   2  -1  -5    1.76    0.36
  -2  -1   5    2.68    0.35
   2   1  -5    2.25    0.33
  -2   1   5    2.78    0.36
   2   1  -5    2.23    0.35
   1  -1  -5   87.46    3.80
  -1  -1   5   89.90    3.80
  -1   1   5   95.07    3.83
   1   1  -5   88.71    3.80
  -1   1   5   89.21    3.81
   0  -1   5   19.19    0.86
   0  -1  -5   19.05    1.02
   0   1   5   20.03    1.03
   0   1   5   19.37    0.87
   0   1  -5   19.30    1.03
   0   1   5   19.51    1.01
  -1  -1  -5    1.55    0.31
  -1  -1  -5    2.03    0.18
  -1   1  -5    1.96    0.17
  -1   1  -5    2.00    0.35
   1   1   5    2.16    0.35
  -2  -1  -5   24.92    1.07
  -2  -1  -5   25.01    1.26
  -2   1  -5   23.29    1.07
  -2   1  -5   20.78    1.26
  -3  -1  -5    0.69    0.33
  -3   1  -5    0.44    0.36
  -4  -1  -5    0.01    0.35
  -4   1  -5    0.81    0.43
   4   1   5    0.59    0.43
  -5  -1  -5    3.09    0.62
  -5   1  -5    2.41    0.58
  -6  -1  -5   -0.06    0.42
  -6   1  -5   -0.12    0.46
  -7  -1  -5   -0.09    0.45
  -7   1  -5    0.18    0.54
  -8   1  -5    1.63    0.81
   8  -2  -5    1.69    0.73
  -8   2   5    2.51    0.78
   8   2  -5    1.97    0.66
  -8   2   5    2.37    0.79
   7  -2  -5    2.44    0.74
  -7  -2   5    1.51    0.73
  -7  -2   5    2.56    0.71
   7   2  -5    3.35    0.69
  -7   2   5    2.47    0.76
  -7   2   5    3.24    0.89
  -6  -2   5    7.04    0.88
   6  -2  -5    6.14    0.90
  -6  -2   5    6.47    0.94
  -6   2   5    6.51    0.87
   6   2  -5    6.99    0.84
  -6   2   5    7.03    1.08
   5  -2  -5   10.92    1.07
  -5  -2   5   11.95    0.96
   5   2  -5   11.43    0.93
  -5   2   5    9.69    1.21
  -5   2   5   10.61    1.08
  -4  -2   5    9.36    0.74
   4  -2  -5    9.52    0.91
   4   2  -5   10.05    0.80
  -4   2   5   10.07    0.87
  -4   2   5    9.60    1.08
   3  -2  -5    5.07    0.59
  -3  -2   5    5.86    0.55
  -3   2   5    5.56    0.78
   3   2  -5    5.97    0.56
   3   2  -5    4.88    0.55
  -3   2   5    5.62    0.61
   2  -2  -5   32.43    1.58
  -2  -2   5   32.34    1.51
  -2   2   5   28.95    1.77
   2   2  -5   33.13    1.51
  -2   2   5   31.79    1.56
   2   2  -5   31.28    1.51
  -1  -2   5   17.95    0.96
  -1  -2   5   19.07    0.94
   1  -2  -5   18.90    1.01
  -1   2   5   17.53    0.99
   1   2  -5   17.68    0.99
  -1   2   5   18.53    1.02
  -1   2   5   19.59    0.95
   0  -2   5    5.46    0.41
   0  -2  -5    6.70    0.54
   0   2  -5    5.42    0.41
   0   2   5    5.86    0.42
   0   2   5    6.64    0.56
   0   2  -5    5.66    0.54
   0   2   5    7.11    0.50
  -1  -2  -5   46.79    2.19
  -1  -2  -5   45.82    2.09
  -1   2  -5   47.00    2.22
  -1   2  -5   50.01    2.10
   1   2   5   54.17    2.23
   1   2   5   49.76    2.09
   1   2   5   49.93    2.18
  -2  -2  -5    8.79    0.56
  -2  -2  -5    9.28    0.65
  -2   2  -5    8.41    0.71
   2   2   5    8.33    0.71
  -2   2  -5    8.17    0.56
  -3  -2  -5    0.66    0.32
  -3  -2  -5    0.99    0.23
  -3   2  -5    0.84    0.29
  -3   2  -5    0.43    0.37
  -4  -2  -5    7.56    0.78
  -4   2  -5    6.79    0.82
   4   2   5    7.87    0.66
  -5  -2  -5    9.23    0.91
  -5   2  -5    9.18    1.01
  -6  -2  -5   -0.08    0.47
  -6   2  -5    0.57    0.54
  -7   2  -5   -0.42    0.51
   8  -3  -5    0.84    0.64
   8   3  -5    0.93    0.54
  -8   3   5   -0.34    0.63
  -8   3   5    1.55    0.84
   7  -3  -5    1.95    0.74
  -7  -3   5    1.91    0.74
  -7   3   5    2.76    0.74
   7   3  -5    1.28    0.56
  -7   3   5    2.51    0.80
   6  -3  -5    1.39    0.61
  -6  -3   5    1.78    0.57
   6   3  -5    1.63    0.52
  -6   3   5    2.36    0.79
  -6   3   5    0.99    0.61
   5  -3  -5    0.24    0.47
  -5  -3   5    0.99    0.46
  -5   3   5    0.76    0.58
   5   3  -5    1.22    0.45
  -5   3   5    0.16    0.66
   4  -3  -5    0.15    0.44
  -4  -3   5    0.92    0.35
  -4   3   5    1.09    0.72
   4   3  -5    1.16    0.42
   4   3  -5    0.97    0.34
  -4   3   5    1.15    0.48
   3  -3  -5    4.28    0.61
  -3  -3   5    5.31    0.52
  -3   3   5    4.35    0.58
  -3   3   5    5.21    0.85
   3   3  -5    5.32    0.54
   3   3  -5    5.11    0.50
   2  -3  -5    7.71    0.66
  -2  -3   5    7.64    0.56
  -2   3   5    7.91    0.89
   2   3  -5    7.61    0.58
  -2   3   5    6.75    0.65
  -2   3   5    8.02    0.67
   1  -3  -5   70.69    3.01
  -1  -3   5   65.70    2.95
  -1   3   5   68.82    3.40
  -1   3   5   67.84    2.98
  -1   3   5   72.41    3.01
   1   3  -5   70.81    2.98
  -1   3   5   64.43    2.98
   0  -3  -5   31.04    1.52
   0  -3   5   33.55    1.54
   0  -3  -5   31.67    1.53
   0   3   5   33.13    1.54
   0   3  -5   32.80    1.52
   0   3   5   32.78    1.53
   0   3  -5   32.24    1.56
   0   3   5   32.36    1.54
   0   3   5   29.71    1.71
   1  -3   5    6.38    0.52
  -1  -3  -5    7.05    0.56
  -1  -3  -5    6.66    0.56
   1   3   5    6.50    0.57
   1   3   5    6.13    0.49
   1   3   5    6.37    0.49
  -1   3  -5    7.35    0.60
   1   3   5    6.54    0.60
  -2  -3  -5    3.20    0.39
  -2  -3  -5    3.58    0.44
  -2   3  -5    2.86    0.48
   2   3   5    2.69    0.37
  -2   3  -5    2.38    0.37
   2   3   5    3.71    0.47
  -3  -3  -5    0.60    0.31
   3   3   5    0.25    0.38
  -3   3  -5    0.43    0.38
  -3   3  -5    0.26    0.30
  -4  -3  -5    2.34    0.46
  -4   3  -5    2.02    0.54
  -4   3  -5    1.56    0.44
  -5  -3  -5    2.26    0.51
  -5   3  -5    1.73    0.60
  -5   3  -5    1.70    0.49
  -6   3  -5   -0.04    0.52
  -6   3  -5   -1.00    0.44
  -7   3  -5    0.45    0.62
   8  -4  -5    0.47    0.67
  -8   4   5   -0.07    0.68
   7  -4  -5    0.62    0.54
  -7   4   5    1.22    0.61
  -7   4   5    0.51    0.69
   7   4  -5    0.54    0.45
   6  -4  -5    1.38    0.65
   6   4  -5    1.41    0.49
  -6   4   5    1.47    0.80
  -6   4   5    3.55    0.78
   5  -4  -5   10.66    1.11
   5   4  -5   11.63    0.89
  -5   4   5   12.03    1.17
  -5   4   5   14.24    1.49
  -4  -4   5    8.06    0.71
   4  -4  -5    7.99    0.90
  -4   4   5    6.95    0.87
  -4   4   5    7.71    1.10
   4   4  -5    5.53    0.66
  -3  -4   5    2.76    0.40
   3  -4  -5    2.64    0.55
   3   4  -5    2.48    0.41
  -3   4   5    3.17    0.55
  -3   4   5    2.44    0.49
  -3   4   5    2.91    0.78
  -2  -4   5    3.96    0.44
   2  -4  -5    3.82    0.57
  -2   4   5    3.84    0.78
   2   4  -5    3.98    0.45
  -2   4   5    3.62    0.54
  -1  -4   5    2.71    0.36
   1  -4  -5    3.58    0.48
  -1   4   5    3.75    0.70
   1   4  -5    3.45    0.43
   1   4  -5    3.74    0.48
  -1   4   5    3.57    0.46
  -1   4   5    3.45    0.45
  -1   4   5    3.67    0.48
   0  -4  -5    4.26    0.47
   0   4  -5    3.94    0.48
   0   4   5    3.24    0.62
   0   4   5    4.11    0.49
   0   4   5    4.47    0.46
   0   4  -5    3.50    0.47
   0   4   5    4.77    0.49
  -1  -4  -5    5.85    0.53
  -1   4  -5    5.03    0.54
   1   4   5    4.74    0.51
  -1   4  -5    6.02    0.61
   1   4   5    6.09    0.55
   1   4   5    4.86    0.60
   1   4   5    5.49    0.47
  -2  -4  -5    0.50    0.26
   2   4   5    0.15    0.31
   2   4   5    0.03    0.19
  -2   4  -5    0.20    0.34
  -2   4  -5    0.18    0.28
   2   4   5    0.51    0.24
  -3  -4  -5    0.15    0.28
  -3   4  -5   -0.32    0.28
  -3   4  -5   -0.21    0.37
  -4   4  -5    1.14    0.50
  -4   4  -5    1.93    0.47
  -5   4  -5    3.45    0.72
  -5   4  -5    3.86    0.66
  -6   4  -5    0.80    0.49
  -6   4  -5    0.27    0.54
  -7   4  -5    0.66    0.69
   7  -5  -5    0.83    0.62
  -7   5   5   -1.05    0.55
  -7   5   5    0.78    0.74
   6  -5  -5    0.24    0.55
  -6   5   5    1.70    0.74
  -6   5   5    0.24    0.58
   6   5  -5    0.81    0.39
   5  -5  -5    1.50    0.65
  -5   5   5    1.05    0.48
   5   5  -5    1.71    0.43
  -5   5   5    1.63    0.64
  -5   5   5    2.30    0.81
   4  -5  -5    1.77    0.56
  -4   5   5    2.04    0.58
   4   5  -5    1.64    0.39
  -4   5   5    1.43    0.46
  -4   5   5    1.70    0.70
   3  -5  -5    2.03    0.56
  -3   5   5    1.80    0.56
   3   5  -5    1.70    0.37
  -3   5   5    1.78    0.77
  -3   5   5    1.96    0.53
  -2  -5   5    1.79    0.32
   2  -5  -5    1.66    0.48
  -2   5   5    1.33    0.69
  -2   5   5    1.99    0.46
  -2   5   5    1.34    0.44
  -2   5   5    0.78    0.41
   2   5  -5    1.49    0.33
  -1  -5   5    8.56    0.59
   1  -5  -5    8.09    0.75
  -1   5   5    8.34    0.99
  -1   5   5    7.35    0.77
   1   5  -5    8.30    0.66
   1   5  -5    8.32    0.73
  -1   5   5    8.03    0.73
  -1   5   5   10.85    0.79
   0  -5  -5    3.57    0.47
   0   5  -5    4.11    0.51
   0   5   5    3.72    0.46
   0   5   5    4.10    0.54
   0   5   5    4.00    0.69
   0   5  -5    3.09    0.49
   0   5   5    3.21    0.44
  -1  -5  -5   10.03    0.70
   1   5   5   10.12    0.84
   1   5   5    9.95    0.79
  -1   5  -5    8.41    0.81
   1   5   5    9.15    0.63
  -1   5  -5   10.36    0.79
   2   5   5    2.44    0.36
   2   5   5    3.32    0.50
  -2   5  -5    2.88    0.48
  -2   5  -5    2.89    0.53
  -3   5  -5    0.24    0.39
  -3   5  -5   -0.18    0.29
   3   5   5   -0.11    0.19
   4   5   5    2.54    0.36
  -4   5  -5    1.10    0.45
  -4   5  -5    1.94    0.61
  -5   5  -5   -0.23    0.42
  -5   5  -5    0.54    0.50
  -6   5  -5   -0.15    0.57
  -6   5  -5    0.05    0.50
   7  -6  -5    0.06    0.58
  -7   6   5   -0.53    0.64
   6  -6  -5    0.80    0.61
  -6   6   5    0.95    0.69
  -6   6   5    2.56    0.80
  -6   6   5   -0.82    0.44
   5  -6  -5   -0.14    0.50
  -5   6   5    0.06    0.48
  -5   6   5    1.13    0.63
  -5   6   5    0.54    0.41
   4  -6  -5    0.64    0.50
  -4   6   5    1.29    0.59
   4   6  -5    0.76    0.29
  -4   6   5    0.33    0.42
  -4   6   5    1.64    0.76
   3  -6  -5    3.48    0.63
  -3   6   5    3.73    0.66
   3   6  -5    3.53    0.40
  -3   6   5    2.98    0.79
  -3   6   5    2.93    0.62
   2  -6  -5    7.29    0.75
  -2   6   5    5.37    0.74
  -2   6   5    6.20    0.96
  -2   6   5    4.90    0.67
   2   6  -5    5.05    0.48
   1   6  -5    2.99    0.54
   1   6  -5    3.11    0.41
  -1   6   5    2.71    0.48
  -1   6   5    3.12    0.58
  -1   6   5    3.68    0.69
   0   6   5    0.13    0.31
   0   6  -5    0.31    0.30
   0   6   5    0.23    0.30
   0   6   5    1.25    0.50
   0   6  -5    0.68    0.38
  -1   6  -5    0.89    0.40
   1   6   5    0.76    0.35
  -1   6  -5    0.58    0.36
   1   6   5    0.75    0.25
  -2   6  -5    1.23    0.46
   2   6   5    2.52    0.29
  -2   6  -5    2.74    0.55
   2   6   5    2.74    0.50
  -3   6  -5   -0.09    0.38
  -3   6  -5   -0.18    0.40
  -4   6  -5   -0.56    0.34
  -4   6  -5    0.13    0.47
  -5   6  -5    0.02    0.52
  -5   6  -5   -0.32    0.46
  -6   6  -5    0.26    0.64
  -6   7   5   -0.26    0.63
  -5   7   5    0.75    0.46
  -5   7   5    0.84    0.69
  -5   7   5    0.45    0.64
  -4   7   5    2.43    0.66
  -4   7   5    3.53    0.87
  -4   7   5    2.44    0.70
  -3   7   5    0.74    0.44
  -3   7   5    0.88    0.46
  -3   7   5    0.41    0.64
  -2   7   5    0.24    0.54
  -2   7   5    0.09    0.41
  -2   7   5    0.66    0.42
   1   7  -5    1.15    0.32
  -1   7   5    1.10    0.46
   1   7  -5    0.78    0.41
  -1   7   5    1.31    0.58
  -1   7   5    1.60    0.43
   0   7   5    0.09    0.33
   0   7  -5    0.52    0.31
   0   7   5    0.56    0.30
   0   7  -5    0.01    0.36
  -1   7  -5    0.81    0.43
   1   7   5    0.41    0.37
  -1   7  -5    1.16    0.42
   2   7   5    2.89    0.56
  -2   7  -5    2.87    0.56
  -2   7  -5    2.61    0.61
  -3   7  -5    0.23    0.43
  -3   7  -5    0.11    0.45
  -4   7  -5    0.02    0.46
  -4   7  -5    0.01    0.47
  -5   7  -5    1.18    0.56
  -5   7  -5   -0.91    0.45
  -4   8   5    0.75    0.62
  -4   8   5    0.36    0.55
  -4   8   5    0.79    0.71
  -3   8   5    0.26    0.53
  -3   8   5    2.63    0.80
  -3   8   5    1.16    0.56
  -2   8   5    0.75    0.48
  -2   8   5    0.11    0.47
  -1   8   5    0.14    0.38
   1   8  -5    0.12    0.38
   0   8   5   -0.24    0.34
   0   8  -5    0.03    0.37
  -1   8  -5    1.03    0.51
  -1   8  -5    0.71    0.40
   1   8   5    1.08    0.47
  -2   8  -5    1.81    0.62
   2   8   5    2.69    0.62
  -2   8  -5    2.03    0.53
  -3   8  -5    0.78    0.51
  -3   8  -5   -0.22    0.45
   1   9  -5    0.14    0.53
  -1   9   5    0.72    0.53
   0   9  -5    0.31    0.46
   0   9   5    0.07    0.41
   1   9   5   -0.18    0.41
  -1   9  -5    0.08    0.51
   9   0  -6    0.29    0.69
  -9   0   6    0.90    0.77
  -9   0   6    1.80    0.81
  -8   0   6   -0.20    0.60
  -8   0   6    1.44    0.67
   8   0  -6    0.84    0.59
  -7   0   6    0.26    0.53
   7   0  -6    0.28    0.54
  -7   0   6    0.42    0.72
   6   0  -6   11.24    1.13
  -6   0   6   12.59    1.19
  -6   0   6   11.32    1.28
   5   0  -6   10.65    1.03
  -5   0   6   12.43    1.16
  -5   0   6   11.15    0.97
  -4   0   6    6.74    0.71
   4   0  -6    6.51    0.74
   3   0  -6    0.14    0.29
  -3   0   6    0.02    0.23
  -2   0   6  119.33    5.22
   2   0  -6  130.18    5.25
   1   0  -6   28.92    1.47
  -1   0   6   29.30    1.46
   0   0   6   53.47    2.40
   0   0  -6   53.58    2.41
  -1   0  -6   31.19    1.56
  -2   0  -6   21.66    1.23
  -3   0  -6    6.04    0.69
  -4   0  -6    0.12    0.40
  -5   0  -6    0.09    0.46
  -6   0  -6    0.14    0.45
  -7   0  -6    2.10    0.68
   9  -1  -6   -0.17    0.62
  -9   1   6    3.43    0.88
  -9   1   6    0.47    0.75
   9   1  -6    0.18    0.64
   8  -1  -6    1.08    0.65
  -8  -1   6    0.87    0.67
  -8  -1   6    0.69    0.78
  -8   1   6    0.73    0.67
   8   1  -6    1.80    0.67
  -8   1   6    1.08    0.76
  -7  -1   6   -0.02    0.68
  -7  -1   6   -0.04    0.53
   7  -1  -6   -0.17    0.56
  -7   1   6    0.06    0.53
  -7   1   6    0.43    0.69
   7   1  -6    0.28    0.54
  -6  -1   6    1.26    0.52
  -6  -1   6    1.91    0.74
   6  -1  -6    1.36    0.60
  -6   1   6    1.10    0.49
  -6   1   6    2.80    0.80
   6   1  -6    1.86    0.58
   5  -1  -6    1.65    0.58
  -5  -1   6    2.32    0.53
  -5   1   6    1.01    0.50
  -5   1   6    1.46    0.76
   5   1  -6    1.63    0.54
   4  -1  -6    2.06    0.49
  -4  -1   6    2.15    0.44
   4   1  -6    2.20    0.49
  -4   1   6    2.43    0.72
  -4   1   6    1.68    0.45
  -3  -1   6    0.25    0.25
   3  -1  -6    0.29    0.34
   3   1  -6    0.82    0.33
  -3   1   6    0.41    0.30
  -2  -1   6  109.58    4.57
   2  -1  -6  110.47    4.60
  -2   1   6  106.89    4.59
   2   1  -6  104.54    4.56
   1  -1  -6  284.46   10.41
  -1  -1   6  254.19   10.38
   1   1  -6  252.15   10.38
  -1   1   6  231.94   10.38
   0  -1  -6   29.21    1.42
   0  -1   6   27.70    1.19
   0   1   6   27.45    1.19
   0   1   6   27.04    1.38
   0   1  -6   27.17    1.40
  -1  -1  -6    4.37    0.50
  -1   1  -6    3.79    0.50
  -2  -1  -6    0.60    0.14
  -2  -1  -6    0.66    0.30
  -2   1  -6    0.71    0.33
  -2   1  -6    0.59    0.15
  -3  -1  -6    0.41    0.16
  -3  -1  -6    0.23    0.33
  -3   1  -6    0.87    0.37
  -4  -1  -6    0.28    0.38
  -4  -1  -6    1.27    0.27
   4   1   6    1.16    0.46
  -4   1  -6    0.31    0.41
  -5  -1  -6    3.01    0.62
  -5   1  -6    2.87    0.62
  -6  -1  -6    0.23    0.42
  -6   1  -6    0.40    0.53
  -7  -1  -6    1.17    0.52
  -7   1  -6    0.58    0.65
  -8  -2   6    0.47    0.71
   8  -2  -6   -0.20    0.61
   8   2  -6   -0.27    0.57
  -8   2   6    1.36    0.78
  -8   2   6   -0.13    0.63
   7  -2  -6    1.17    0.66
  -7  -2   6    1.50    0.58
  -7  -2   6    1.33    0.76
  -7   2   6    1.02    0.65
   7   2  -6    2.40    0.69
  -7   2   6    2.81    0.90
  -6  -2   6    0.92    0.46
   6  -2  -6    0.88    0.58
  -6  -2   6    0.96    0.62
  -6   2   6    1.44    0.74
   6   2  -6    0.56    0.48
  -6   2   6    0.55    0.54
   5  -2  -6    7.40    0.89
  -5  -2   6    6.02    0.76
  -5   2   6    7.55    0.92
  -5   2   6    9.55    1.21
   5   2  -6    6.98    0.81
   4  -2  -6   14.63    1.06
  -4  -2   6   11.84    0.87
  -4   2   6   11.19    0.95
   4   2  -6   12.26    0.93
  -4   2   6   12.77    1.18
  -3  -2   6    6.78    0.62
   3  -2  -6    5.65    0.67
  -3   2   6    5.52    0.81
  -3   2   6    6.66    0.68
   3   2  -6    6.26    0.63
  -2  -2   6   11.28    0.82
   2  -2  -6   16.82    0.96
  -2   2   6   14.69    1.10
   2   2  -6   15.61    0.89
  -2   2   6   13.33    0.89
   1  -2  -6   23.99    1.29
  -1  -2   6   22.96    1.18
  -1  -2   6   25.77    1.27
  -1   2   6   25.62    1.29
   1   2  -6   25.53    1.30
  -1   2   6   24.37    1.19
   0  -2  -6   13.10    0.82
   0  -2   6   13.40    0.70
   0   2   6   12.64    0.69
   0   2   6   12.22    0.78
   0   2  -6   11.26    0.81
   0   2   6   13.70    0.87
  -1  -2  -6   28.69    1.41
  -1  -2  -6   27.90    1.27
   1   2   6   26.44    1.25
  -1   2  -6   27.37    1.27
  -1   2  -6   29.09    1.47
   1   2   6   27.50    1.39
   1   2   6   30.16    1.48
  -2  -2  -6    2.65    0.44
  -2  -2  -6    2.28    0.28
  -2   2  -6    1.69    0.26
  -2   2  -6    2.33    0.46
  -3  -2  -6    1.25    0.40
  -3  -2  -6    1.25    0.25
  -3   2  -6    1.01    0.30
  -3   2  -6    1.38    0.46
  -4  -2  -6    1.43    0.43
  -4   2  -6    0.26    0.42
  -4   2  -6    0.56    0.34
  -5  -2  -6    4.06    0.68
  -5   2  -6    5.51    0.84
  -6  -2  -6    0.04    0.48
  -6   2  -6   -0.11    0.50
  -7   2  -6    0.40    0.62
   8  -3  -6   -0.46    0.57
  -8   3   6    0.39    0.70
   8   3  -6    0.66    0.53
  -8   3   6    0.72    0.63
   7  -3  -6    0.34    0.60
  -7  -3   6    1.57    0.71
  -7   3   6    1.25    0.65
   7   3  -6   -0.50    0.47
  -7   3   6    0.86    0.76
  -6  -3   6    1.07    0.53
   6  -3  -6    1.26    0.60
  -6   3   6    1.04    0.57
  -6   3   6    1.17    0.73
   6   3  -6    0.66    0.46
  -5  -3   6   11.72    0.93
   5  -3  -6   11.45    1.12
  -5   3   6   13.15    1.23
   5   3  -6   11.36    0.94
  -5   3   6   11.67    1.41
   4  -3  -6    1.29    0.53
  -4  -3   6    1.12    0.39
  -4   3   6    1.86    0.79
  -4   3   6    1.25    0.50
   4   3  -6    1.34    0.45
  -3  -3   6    4.21    0.50
   3  -3  -6    4.61    0.64
   3   3  -6    5.88    0.54
  -3   3   6    4.21    0.83
   3   3  -6    3.83    0.53
  -3   3   6    3.99    0.60
  -2  -3   6   32.30    1.64
   2  -3  -6   34.47    1.72
  -2   3   6   33.74    1.96
  -2   3   6   34.11    1.71
  -2   3   6   34.04    1.67
   2   3  -6   33.40    1.65
  -1  -3   6   13.64    0.83
   1  -3  -6   13.45    0.88
  -1   3   6   14.27    0.88
   1   3  -6   13.85    0.88
  -1   3   6   13.61    1.02
  -1   3   6   12.98    0.84
   0  -3   6   21.95    1.14
   0  -3  -6   22.29    1.19
   0   3   6   21.57    1.14
   0   3  -6   21.29    1.13
   0   3   6   23.77    1.21
   0   3   6   22.86    1.34
   0   3  -6   22.81    1.22
   0   3   6   21.87    1.21
  -1  -3  -6   18.64    1.08
   1  -3   6   19.87    1.05
  -1  -3  -6   18.02    1.03
   1   3   6   19.48    1.19
  -1   3  -6   21.22    1.06
   1   3   6   18.23    1.00
  -1   3  -6   20.53    1.17
   1   3   6   19.62    1.07
   1   3   6   21.58    1.15
  -2  -3  -6    0.76    0.33
  -2  -3  -6    0.93    0.27
  -2   3  -6    0.47    0.35
   2   3   6    1.50    0.40
   2   3   6    1.31    0.39
  -2   3  -6    1.26    0.30
  -3  -3  -6    0.85    0.37
  -3   3  -6   -0.13    0.38
  -3   3  -6    0.67    0.33
  -4  -3  -6    2.43    0.50
  -4   3  -6    1.38    0.42
  -4   3  -6    2.63    0.61
  -5   3  -6   -0.09    0.50
  -5   3  -6   -0.38    0.36
  -6   3  -6    0.42    0.56
  -7   3  -6    0.17    0.57
   8  -4  -6    0.80    0.71
   8   4  -6    1.39    0.60
  -8   4   6    1.11    0.79
   7  -4  -6    0.65    0.58
  -7   4   6    0.41    0.70
  -7   4   6   -0.24    0.62
   7   4  -6    0.88    0.49
   6  -4  -6    0.02    0.53
  -6   4   6    0.50    0.68
  -6   4   6    0.55    0.60
   6   4  -6    1.05    0.46
   5  -4  -6    4.01    0.76
  -5   4   6    4.65    1.00
   5   4  -6    4.10    0.61
  -5   4   6    5.64    0.85
  -4  -4   6    6.21    0.65
   4  -4  -6    5.70    0.81
  -4   4   6    6.17    0.82
  -4   4   6    6.82    1.12
   4   4  -6    6.43    0.70
   3  -4  -6    8.60    0.89
  -3  -4   6    8.93    0.68
  -3   4   6    8.53    0.81
  -3   4   6    8.20    1.15
   3   4  -6    8.35    0.71
  -3   4   6    9.22    0.88
   2  -4  -6    6.11    0.70
  -2  -4   6    5.47    0.58
  -2   4   6    6.87    0.93
   2   4  -6    6.87    0.59
  -2   4   6    6.05    0.66
  -2   4   6    6.36    0.69
  -1  -4   6    0.21    0.21
   1  -4  -6    0.27    0.32
   1   4  -6   -0.21    0.28
  -1   4   6    0.28    0.32
  -1   4   6    0.01    0.24
  -1   4   6   -0.10    0.28
  -1   4   6   -0.62    0.50
   0  -4  -6   23.28    1.21
   0   4   6   23.75    1.22
   0   4   6   20.40    1.15
   0   4   6   21.53    1.39
   0   4   6   21.19    1.21
   0   4  -6   19.53    1.20
   0   4  -6   22.67    1.21
  -1  -4  -6   10.02    0.73
  -1   4  -6    8.46    0.78
   1   4   6    7.64    0.64
   1   4   6    8.76    0.67
  -1   4  -6    9.40    0.74
   1   4   6    9.71    0.84
   1   4   6    8.41    0.72
  -2  -4  -6   -0.16    0.26
  -2   4  -6   -0.32    0.32
   2   4   6    0.05    0.21
   2   4   6    0.12    0.35
  -2   4  -6    0.21    0.29
  -3  -4  -6    0.69    0.36
  -3   4  -6    0.64    0.34
  -3   4  -6    0.35    0.43
  -4   4  -6    2.91    0.62
  -4   4  -6    2.95    0.54
  -5   4  -6    4.14    0.78
  -5   4  -6    3.81    0.63
  -6   4  -6    0.29    0.61
   7  -5  -6   -0.12    0.61
  -7   5   6   -0.44    0.56
   7   5  -6   -0.19    0.37
   6  -5  -6    0.53    0.62
  -6   5   6   -0.01    0.60
  -6   5   6    0.20    0.67
   6   5  -6    0.87    0.44
   5  -5  -6    3.28    0.72
  -5   5   6    2.66    0.86
  -5   5   6    1.37    0.62
   5   5  -6    1.94    0.47
  -5   5   6    1.73    0.57
   4  -5  -6    3.20    0.70
  -4   5   6    2.80    0.84
  -4   5   6    3.28    0.62
  -4   5   6    3.26    0.67
   4   5  -6    3.95    0.54
   3  -5  -6    7.56    0.85
  -3   5   6    6.73    1.06
   3   5  -6    6.45    0.64
  -3   5   6    7.91    0.85
  -3   5   6    6.88    0.82
  -2  -5   6    7.97    0.68
   2  -5  -6   10.01    0.91
   2   5  -6    9.61    0.71
  -2   5   6   11.09    1.21
  -2   5   6   10.00    0.89
  -2   5   6    9.33    0.90
   1  -5  -6    3.15    0.53
  -1  -5   6    4.45    0.50
  -1   5   6    4.67    0.83
   1   5  -6    3.27    0.51
  -1   5   6    3.44    0.55
  -1   5   6    3.52    0.53
   0  -5  -6    2.04    0.43
   0   5  -6    1.10    0.36
   0   5   6    1.71    0.39
   0   5  -6    1.95    0.43
   0   5   6    1.33    0.37
   0   5   6    1.81    0.60
  -1  -5  -6    1.08    0.34
  -1   5  -6    1.10    0.41
   1   5   6    1.55    0.36
   1   5   6    1.44    0.48
   1   5   6    1.50    0.32
  -1   5  -6    1.30    0.39
   2   5   6    2.55    0.44
  -2   5  -6    2.29    0.53
  -2   5  -6    1.64    0.43
   2   5   6    3.03    0.41
  -3   5  -6   -0.22    0.33
   3   5   6    0.30    0.25
  -3   5  -6    0.44    0.41
  -4   5  -6    0.65    0.44
   4   5   6    1.07    0.33
  -4   5  -6    1.55    0.59
  -5   5  -6   -0.91    0.36
  -5   5  -6   -0.26    0.50
  -6   5  -6    0.99    0.64
   6  -6  -6    0.06    0.63
  -6   6   6   -0.36    0.48
  -6   6   6   -0.18    0.55
   5  -6  -6    1.93    0.69
  -5   6   6    0.78    0.74
  -5   6   6    1.34    0.44
   5   6  -6    0.75    0.38
  -5   6   6    1.19    0.65
   4  -6  -6    1.62    0.58
  -4   6   6    1.39    0.74
   4   6  -6    1.89    0.40
  -4   6   6    1.66    0.56
  -4   6   6    2.36    0.64
  -3   6   6    1.48    0.70
   3   6  -6    1.61    0.36
  -3   6   6    1.00    0.46
  -3   6   6    0.39    0.48
   2   6  -6    1.33    0.35
  -2   6   6    1.36    0.49
  -2   6   6    1.95    0.50
  -2   6   6    1.70    0.68
   1   6  -6    1.60    0.38
   1   6  -6    1.96    0.48
  -1   6   6    1.67    0.41
  -1   6   6    1.38    0.61
  -1   6   6    1.45    0.48
   0   6  -6    1.24    0.38
   0   6   6    1.64    0.39
   0   6   6    1.77    0.44
   0   6  -6    1.75    0.44
   0   6   6    2.04    0.55
  -1   6  -6    9.98    0.98
  -1   6  -6   11.57    0.88
   1   6   6   10.86    0.73
   1   6   6   10.99    0.91
   1   6   6   12.16    0.93
   2   6   6    3.62    0.42
  -2   6  -6    3.61    0.62
   2   6   6    3.65    0.57
  -2   6  -6    3.53    0.62
  -3   6  -6    0.42    0.42
  -3   6  -6    0.65    0.47
   3   6   6    1.07    0.29
  -4   6  -6   -0.03    0.46
  -4   6  -6    0.17    0.49
  -5   6  -6    1.62    0.58
  -5   6  -6   -0.34    0.59
  -5   7   6    0.20    0.43
  -5   7   6    0.62    0.73
  -5   7   6    0.10    0.55
  -4   7   6    2.33    0.77
  -4   7   6    1.04    0.52
  -4   7   6    1.27    0.60
  -3   7   6    1.55    0.71
  -3   7   6    0.32    0.45
  -3   7   6    0.65    0.52
  -2   7   6    0.30    0.41
  -2   7   6    0.97    0.64
  -2   7   6    0.79    0.48
   2   7  -6    0.55    0.29
  -1   7   6    1.58    0.61
  -1   7   6    1.31    0.44
   1   7  -6    1.08    0.36
   1   7  -6    0.38    0.41
  -1   7   6    1.02    0.46
   0   7   6    0.08    0.35
   0   7   6    1.12    0.35
   0   7   6    0.68    0.52
   0   7  -6   -0.03    0.32
   0   7  -6    0.37    0.40
   1   7   6    2.53    0.53
  -1   7  -6    1.91    0.56
  -1   7  -6    1.74    0.49
  -2   7  -6    0.18    0.42
   2   7   6    0.32    0.39
  -2   7  -6    0.51    0.46
  -3   7  -6    0.41    0.49
  -3   7  -6    0.25    0.44
  -4   7  -6    0.78    0.48
  -4   7  -6    0.36    0.53
  -4   8   6    0.58    0.54
  -4   8   6   -0.10    0.60
  -3   8   6    0.61    0.57
  -3   8   6   -0.85    0.42
  -3   8   6    1.76    0.74
  -2   8   6    2.08    0.76
  -2   8   6    0.90    0.53
  -2   8   6    1.45    0.58
  -1   8   6    0.32    0.44
   1   8  -6    0.87    0.47
   0   8   6    0.12    0.35
   0   8  -6   -0.04    0.36
  -1   8  -6    0.70    0.44
   1   8   6   -0.14    0.35
  -1   8  -6   -0.37    0.42
   2   8   6    0.04    0.38
  -2   8  -6   -0.35    0.41
  -2   8  -6    0.12    0.47
  -3   8  -6    0.39    0.58
  -3   8  -6    1.01    0.58
  -8   0   7    0.48    0.63
   8   0  -7   -0.35    0.57
  -8   0   7    0.40    0.76
  -7   0   7   -0.25    0.51
  -7   0   7    0.31    0.63
   7   0  -7    0.10    0.55
  -6   0   7    6.94    1.10
  -6   0   7    8.23    0.95
   6   0  -7    6.72    0.91
   5   0  -7    0.64    0.54
  -5   0   7   -0.11    0.41
  -5   0   7   -0.42    0.53
   4   0  -7    1.36    0.49
  -4   0   7    2.18    0.50
  -3   0   7    1.93    0.39
   3   0  -7    2.28    0.46
   2   0  -7    5.77    0.63
  -2   0   7    5.46    0.59
   1   0  -7    2.50    0.42
  -1   0   7    3.16    0.43
   0   0  -7    1.44    0.35
   0   0   7    1.42    0.30
  -1   0  -7   24.81    1.37
  -2   0  -7    3.88    0.56
  -3   0  -7    3.16    0.57
  -3   0  -7    2.85    0.25
  -4   0  -7    0.44    0.39
  -5   0  -7    3.99    0.71
  -6   0  -7    0.22    0.48
  -7   0  -7    0.55    0.64
  -8  -1   7   -0.36    0.74
   8  -1  -7    0.40    0.62
  -8  -1   7    0.01    0.60
  -8   1   7   -0.15    0.61
  -8   1   7    1.82    0.69
   8   1  -7   -1.12    0.49
   7  -1  -7   -0.45    0.55
  -7  -1   7    0.55    0.56
  -7  -1   7   -0.62    0.65
  -7   1   7    1.69    0.81
   7   1  -7   -0.18    0.53
  -7   1   7   -0.38    0.53
  -6  -1   7    4.62    0.94
   6  -1  -7    1.87    0.62
  -6  -1   7    3.74    0.68
  -6   1   7    2.76    0.68
  -6   1   7    4.18    0.94
   6   1  -7    3.07    0.68
   5  -1  -7   -0.08    0.42
  -5  -1   7    1.10    0.46
   5   1  -7    0.13    0.48
  -5   1   7    0.51    0.45
  -5   1   7   -0.05    0.67
  -4  -1   7   24.37    1.36
   4  -1  -7   22.43    1.42
   4   1  -7   22.76    1.38
  -4   1   7   22.29    1.59
  -4   1   7   22.81    1.39
  -3  -1   7    1.65    0.38
   3  -1  -7    1.94    0.48
   3   1  -7    2.08    0.46
  -3   1   7    1.88    0.43
   2  -1  -7   39.63    1.94
  -2  -1   7   39.04    1.93
  -2   1   7   40.54    1.94
   2   1  -7   38.96    1.92
  -1  -1   7   50.10    2.05
  -1  -1   7   45.89    2.22
   1  -1  -7   43.02    2.22
  -1   1   7   51.13    2.27
   0  -1   7   10.58    0.53
   0  -1  -7   10.89    0.81
   0   1  -7   11.37    0.79
   0   1   7   10.81    0.53
   0   1   7   11.85    0.77
  -1  -1  -7   10.45    0.79
  -1   1  -7   10.74    0.81
  -2  -1  -7    9.52    0.79
  -2   1  -7    8.91    0.84
  -3  -1  -7    0.01    0.36
  -3  -1  -7    0.20    0.15
  -3   1  -7    0.60    0.22
  -3   1  -7    0.35    0.37
  -4  -1  -7    3.36    0.59
  -4   1  -7    2.84    0.60
  -5  -1  -7    4.13    0.70
  -5   1  -7    3.14    0.69
  -6  -1  -7    1.17    0.53
  -6   1  -7    0.37    0.56
  -7   1  -7    0.63    0.61
  -8  -2   7    0.32    0.77
   8  -2  -7    0.85    0.68
   8   2  -7   -0.08    0.60
  -8   2   7    0.39    0.68
  -8   2   7    0.35    0.73
   7  -2  -7    1.27    0.60
  -7  -2   7    0.09    0.67
  -7  -2   7    0.89    0.56
  -7   2   7    2.15    0.89
  -7   2   7    0.34    0.62
   7   2  -7    0.32    0.54
  -6  -2   7    0.39    0.45
   6  -2  -7   -0.03    0.53
   6   2  -7    0.07    0.46
  -6   2   7    0.12    0.65
  -6   2   7    1.02    0.55
  -5  -2   7   22.43    1.45
   5  -2  -7   26.53    1.66
  -5   2   7   24.26    1.87
  -5   2   7   27.62    1.63
   5   2  -7   25.67    1.54
  -4  -2   7    8.67    0.82
   4  -2  -7    8.51    0.89
   4   2  -7    7.76    0.81
  -4   2   7    8.08    0.85
  -4   2   7    6.89    1.01
   3  -2  -7    2.06    0.51
  -3  -2   7    2.98    0.47
   3   2  -7    2.30    0.49
  -3   2   7    3.06    0.53
  -3   2   7    3.39    0.73
  -2  -2   7   17.94    1.12
   2  -2  -7   20.97    1.20
  -2   2   7   20.28    1.17
   2   2  -7   19.63    1.15
   1  -2  -7    6.09    0.64
  -1  -2   7    6.50    0.48
  -1  -2   7    6.74    0.58
  -1   2   7    6.30    0.52
   1   2  -7    6.35    0.65
  -1   2   7    7.19    0.62
   0  -2   7   33.03    1.42
   0  -2  -7   32.40    1.62
   0   2  -7   32.64    1.63
   0   2   7   26.10    1.54
   0   2   7   32.31    1.43
  -1  -2  -7    8.48    0.70
   1   2   7    8.11    0.64
  -1   2  -7    8.98    0.50
  -1   2  -7    8.01    0.77
  -2  -2  -7    2.30    0.28
  -2  -2  -7    2.16    0.45
  -2   2  -7    2.51    0.49
  -2   2  -7    2.45    0.28
  -3  -2  -7   -0.10    0.34
  -3  -2  -7   -0.02    0.20
  -3   2  -7   -0.10    0.22
  -3   2  -7   -0.24    0.38
  -4  -2  -7    2.86    0.57
  -4   2  -7    2.23    0.61
  -4   2  -7    2.24    0.42
  -5  -2  -7    0.13    0.41
  -5   2  -7   -0.21    0.44
  -6   2  -7    0.12    0.47
  -7   2  -7    1.76    0.56
   8  -3  -7   -0.06    0.63
   8   3  -7   -0.43    0.52
  -8   3   7   -0.35    0.68
   7  -3  -7    0.49    0.63
  -7  -3   7    0.64    0.71
  -7   3   7    1.21    0.74
  -7   3   7    1.56    0.72
   7   3  -7    0.75    0.50
   6  -3  -7    0.80    0.58
   6   3  -7    0.44    0.46
  -6   3   7    1.30    0.65
  -6   3   7    1.08    0.76
  -5  -3   7   10.04    0.93
   5  -3  -7    9.11    1.01
  -5   3   7    8.88    1.20
  -5   3   7    9.42    1.04
   5   3  -7    9.23    0.93
   4  -3  -7    3.92    0.73
  -4  -3   7    5.79    0.67
   4   3  -7    4.09    0.63
  -4   3   7    4.45    0.72
  -4   3   7    5.04    0.96
   3  -3  -7   10.13    0.95
  -3  -3   7   10.09    0.76
   3   3  -7   10.02    0.84
  -3   3   7   11.58    1.22
  -3   3   7    9.85    0.87
  -2  -3   7    7.78    0.72
   2   3  -7    6.69    0.69
  -2   3   7    8.25    0.98
  -2   3   7    6.97    0.74
  -2   3   7    7.06    0.66
  -1  -3   7    7.95    0.64
   1  -3  -7    9.11    0.73
  -1   3   7    8.72    0.68
  -1   3   7    7.91    0.68
  -1   3   7    9.21    0.95
   1   3  -7    7.16    0.72
   0  -3  -7    5.94    0.64
   0  -3   7    5.71    0.51
   0   3   7    5.90    0.76
   0   3   7    6.36    0.52
   0   3  -7    5.49    0.63
   0   3   7    7.01    0.67
  -1  -3  -7    2.79    0.47
  -1  -3  -7    2.49    0.39
  -1   3  -7    2.63    0.34
   1   3   7    3.15    0.46
  -1   3  -7    2.72    0.51
   1   3   7    2.82    0.33
  -2  -3  -7    5.36    0.49
  -2  -3  -7    4.73    0.60
  -2   3  -7    4.54    0.65
   2   3   7    5.55    0.58
  -2   3  -7    4.50    0.46
  -3  -3  -7    2.29    0.49
  -3   3  -7    2.70    0.59
  -3   3  -7    1.81    0.37
  -4  -3  -7    9.83    0.93
  -4   3  -7    8.96    1.02
  -4   3  -7    9.20    0.79
  -5   3  -7    1.81    0.63
  -6   3  -7    1.02    0.53
   7  -4  -7    0.64    0.66
  -7   4   7    2.23    0.79
  -7   4   7    1.75    0.75
   7   4  -7    0.64    0.54
   6  -4  -7    2.53    0.78
   6   4  -7    2.97    0.65
  -6   4   7    3.34    0.83
  -6   4   7    2.93    0.91
   5  -4  -7    2.97    0.72
  -5   4   7    2.06    0.80
  -5   4   7    2.12    0.67
   5   4  -7    2.15    0.53
  -4  -4   7    9.57    0.80
   4  -4  -7    8.45    0.97
   4   4  -7    9.63    0.84
  -4   4   7    9.52    0.99
  -4   4   7   10.50    1.28
  -3  -4   7    0.10    0.28
   3  -4  -7    0.54    0.46
  -3   4   7    0.43    0.36
  -3   4   7    0.01    0.39
   3   4  -7    0.57    0.38
  -3   4   7    0.06    0.64
  -2  -4   7    1.94    0.41
   2  -4  -7    3.00    0.55
  -2   4   7    1.78    0.47
   2   4  -7    1.88    0.45
  -2   4   7    1.93    0.74
  -2   4   7    1.56    0.42
   1  -4  -7    1.51    0.44
  -1  -4   7    1.76    0.36
  -1   4   7    1.56    0.38
   1   4  -7    1.41    0.39
  -1   4   7    1.50    0.39
  -1   4   7    2.16    0.67
   0  -4  -7    1.34    0.39
   0   4   7    0.65    0.36
   0   4   7    0.91    0.58
   0   4   7    0.87    0.33
   0   4  -7    0.86    0.31
   0   4  -7    0.36    0.34
   0   4   7    0.71    0.27
  -1  -4  -7   25.95    1.42
  -1   4  -7   26.55    1.40
  -1   4  -7   25.22    1.48
   1   4   7   26.76    1.38
   1   4   7   26.59    1.57
   1   4   7   26.64    1.41
  -2  -4  -7    1.36    0.41
  -2   4  -7    1.29    0.35
  -2   4  -7    1.23    0.44
   2   4   7    1.51    0.45
   2   4   7    1.76    0.38
   3   4   7    0.04    0.25
  -3   4  -7    0.60    0.34
  -3   4  -7    0.40    0.44
  -4   4  -7    1.40    0.52
  -4   4  -7    1.34    0.47
  -5   4  -7    1.13    0.58
  -6   4  -7    0.61    0.63
   7  -5  -7    0.92    0.72
   7   5  -7    1.69    0.58
  -7   5   7    0.94    0.72
   6  -5  -7   -0.11    0.57
  -6   5   7    0.04    0.59
  -6   5   7    0.35    0.68
  -6   5   7   -0.33    0.46
   6   5  -7    0.47    0.44
   5  -5  -7    1.37    0.61
  -5   5   7    0.44    0.72
  -5   5   7    0.61    0.52
   5   5  -7    1.39    0.45
  -5   5   7    0.92    0.62
   4  -5  -7    0.56    0.49
   4   5  -7    0.51    0.39
  -4   5   7    0.38    0.42
  -4   5   7    0.72    0.44
  -4   5   7   -0.11    0.64
   3  -5  -7    4.71    0.70
   3   5  -7    4.05    0.56
  -3   5   7    3.89    0.64
  -3   5   7    4.51    0.92
  -3   5   7    3.48    0.63
   2  -5  -7    2.34    0.57
  -2  -5   7    2.97    0.47
   2   5  -7    1.93    0.42
  -2   5   7    2.80    0.54
  -2   5   7    2.09    0.50
  -2   5   7    2.71    0.78
  -1  -5   7    2.25    0.41
   1  -5  -7    1.95    0.49
  -1   5   7    2.02    0.47
  -1   5   7    1.63    0.68
  -1   5   7    3.10    0.52
   1   5  -7    2.87    0.49
   0  -5  -7    2.71    0.50
   0   5   7    2.65    0.45
   0   5   7    3.05    0.48
   0   5  -7    2.47    0.49
   0   5   7    3.50    0.71
   0   5  -7    2.62    0.47
  -1   5  -7   13.10    0.97
   1   5   7   11.16    0.87
  -1   5  -7   11.33    0.90
   1   5   7   12.05    0.82
   1   5   7   12.40    0.97
  -2   5  -7    1.66    0.49
   2   5   7    2.56    0.42
  -2   5  -7    2.27    0.47
   3   5   7    1.69    0.37
  -3   5  -7    1.98    0.59
  -3   5  -7    1.10    0.43
   4   5   7    1.74    0.39
  -4   5  -7    1.00    0.49
  -4   5  -7    0.85    0.58
  -5   5  -7    0.28    0.57
  -6   6   7    0.42    0.65
  -6   6   7    0.10    0.56
   5   6  -7    0.39    0.38
  -5   6   7    0.43    0.42
  -5   6   7    0.36    0.56
  -5   6   7    1.58    0.76
  -4   6   7    0.68    0.64
   4   6  -7   -0.11    0.35
  -4   6   7   -0.25    0.40
  -4   6   7   -0.37    0.50
   3   6  -7    2.36    0.45
  -3   6   7    2.49    0.82
  -3   6   7    2.02    0.58
  -3   6   7    3.47    0.69
  -2   6   7    4.20    0.65
  -2   6   7    7.21    1.05
   2   6  -7    5.51    0.61
  -2   6   7    5.06    0.74
   1   6  -7    1.00    0.38
  -1   6   7    1.29    0.64
  -1   6   7    0.77    0.40
  -1   6   7    0.75    0.40
   0   6   7    1.50    0.44
   0   6  -7    1.79    0.46
   0   6  -7    2.06    0.45
   0   6   7    2.12    0.64
   0   6   7    2.04    0.43
   1   6   7    1.20    0.38
  -1   6  -7    0.63    0.42
  -1   6  -7    0.89    0.43
   1   6   7    1.17    0.34
   2   6   7    2.27    0.40
  -2   6  -7    1.64    0.51
  -2   6  -7    1.73    0.55
   2   6   7    1.67    0.42
  -3   6  -7    1.42    0.51
  -3   6  -7    2.37    0.61
   3   6   7    2.21    0.39
  -4   6  -7    1.42    0.51
  -4   6  -7    0.82    0.60
  -5   6  -7    1.02    0.67
  -5   7   7    0.34    0.49
  -5   7   7    1.52    0.70
  -4   7   7    0.92    0.76
  -4   7   7    0.37    0.47
  -4   7   7    1.76    0.63
  -3   7   7    0.16    0.47
  -3   7   7    1.33    0.76
  -3   7   7   -0.07    0.43
  -2   7   7    0.91    0.52
  -2   7   7    2.66    0.73
  -2   7   7    1.65    0.57
   2   7  -7    1.25    0.40
  -1   7   7    1.54    0.65
  -1   7   7    1.11    0.43
  -1   7   7   -0.08    0.35
   1   7  -7    0.96    0.40
   0   7   7   -0.81    0.25
   0   7  -7    0.02    0.36
   0   7  -7   -0.09    0.37
   0   7   7    0.39    0.35
  -1   7  -7    0.86    0.46
  -1   7  -7    0.59    0.45
   1   7   7    0.44    0.35
  -2   7  -7    4.11    0.70
   2   7   7    3.80    0.63
  -2   7  -7    3.88    0.68
  -3   7  -7    0.77    0.54
  -3   7  -7    0.60    0.49
  -4   7  -7   -0.39    0.56
  -3   8   7    0.52    0.69
  -3   8   7   -0.41    0.46
  -3   8   7   -1.02    0.49
  -2   8   7    1.00    0.53
  -2   8   7    1.92    0.75
  -2   8   7    1.29    0.57
  -1   8   7    0.76    0.45
   0   8  -7    0.76    0.42
   0   8   7   -0.51    0.33
   0   8  -7    0.31    0.47
  -1   8  -7    1.49    0.49
   1   8   7    0.26    0.40
  -1   8  -7    1.07    0.56
  -2   8  -7    0.18    0.51
  -2   8  -7   -0.24    0.52
   8   0  -8    1.23    0.67
  -8   0   8   -0.63    0.59
  -8   0   8    0.46    0.80
   7   0  -8    3.03    0.77
  -7   0   8    3.79    0.80
  -7   0   8    4.09    0.97
  -6   0   8    4.37    0.77
  -6   0   8    3.26    0.86
   6   0  -8    3.75    0.78
   5   0  -8   99.62    4.68
  -5   0   8  107.73    4.68
   4   0  -8   29.75    1.74
  -4   0   8   33.15    1.78
  -3   0   8    0.64    0.35
   3   0  -8    0.01    0.38
   2   0  -8   21.40    1.30
  -2   0   8   23.23    1.31
  -1   0   8    0.55    0.27
   1   0  -8    0.35    0.30
   0   0  -8   14.28    0.96
   0   0   8   14.22    0.93
  -1   0  -8   29.29    1.59
  -2   0  -8    1.92    0.50
  -3   0  -8    0.79    0.47
  -4   0  -8   15.20    1.19
  -5   0  -8   -0.56    0.42
  -6   0  -8    2.07    0.62
  -8  -1   8    0.78    0.73
   8  -1  -8    0.10    0.65
  -8  -1   8    1.95    0.91
   8   1  -8   -0.11    0.60
  -8   1   8    0.13    0.66
  -8   1   8    1.58    0.66
   7  -1  -8    0.06    0.53
  -7  -1   8    0.76    0.51
  -7  -1   8   -0.49    0.72
   7   1  -8   -0.15    0.53
  -7   1   8    0.80    0.58
  -7   1   8    0.04    0.72
  -6  -1   8    2.38    0.61
  -6  -1   8    1.46    0.71
   6  -1  -8    1.13    0.58
  -6   1   8    2.15    0.79
   6   1  -8    2.32    0.65
  -6   1   8    1.37    0.58
  -5  -1   8   12.84    1.06
   5  -1  -8   11.79    1.15
   5   1  -8   12.69    1.10
  -5   1   8   11.50    1.34
  -5   1   8   13.44    1.21
   4  -1  -8   30.21    1.74
  -4  -1   8   30.05    1.70
   4   1  -8   30.89    1.74
  -4   1   8   30.77    1.74
   3  -1  -8   11.78    0.96
  -3  -1   8   11.53    0.89
   3   1  -8   11.82    0.93
  -3   1   8   12.11    0.90
  -2  -1   8   14.84    1.00
   2  -1  -8   16.31    1.06
   2   1  -8   14.69    1.02
  -2   1   8   14.97    1.01
  -1  -1   8    2.11    0.41
  -1  -1   8    1.81    0.22
   1  -1  -8    1.69    0.43
  -1   1   8    1.86    0.41
   1   1  -8    1.89    0.41
   0  -1   8    5.39    0.60
   0  -1   8    5.04    0.31
   0  -1  -8    5.51    0.65
   0   1  -8    4.73    0.58
   0   1   8    5.21    0.60
   0   1   8    5.27    0.30
  -1  -1  -8    1.37    0.40
   1   1   8    1.99    0.38
  -1   1  -8    1.31    0.42
  -2  -1  -8   17.05    1.16
  -2   1  -8   16.65    1.17
  -3  -1  -8    0.31    0.40
  -3   1  -8    0.27    0.43
  -4  -1  -8    0.36    0.40
  -4   1  -8    1.01    0.47
  -5  -1  -8    1.44    0.55
  -5   1  -8    1.15    0.54
  -6  -1  -8    0.93    0.59
  -6   1  -8    0.67    0.57
  -8  -2   8    0.97    0.79
   8  -2  -8    0.69    0.67
   8   2  -8   -0.49    0.62
  -8   2   8    0.91    0.74
  -8   2   8    0.68    0.81
   7  -2  -8    0.31    0.57
  -7  -2   8   -0.94    0.69
  -7  -2   8    1.27    0.52
   7   2  -8    0.19    0.54
  -7   2   8    0.60    0.58
  -7   2   8   -0.07    0.67
   6  -2  -8   11.19    1.25
  -6  -2   8   13.46    1.16
  -6   2   8   14.39    1.60
  -6   2   8   13.45    1.17
   6   2  -8   15.04    1.24
   5  -2  -8   29.18    1.82
  -5  -2   8   30.26    1.73
  -5   2   8   32.52    1.85
  -5   2   8   27.32    2.01
   5   2  -8   34.79    1.86
  -4  -2   8   37.62    1.90
   4  -2  -8   35.40    1.96
  -4   2   8   34.05    1.90
  -4   2   8   34.41    2.20
   4   2  -8   33.00    1.87
  -3  -2   8   18.28    1.15
   3  -2  -8   19.01    1.25
  -3   2   8   18.79    1.41
  -3   2   8   18.75    1.22
   3   2  -8   17.78    1.18
  -2  -2   8   12.17    0.88
   2  -2  -8   11.74    0.94
   2   2  -8   11.98    0.92
  -2   2   8   13.97    0.95
   1  -2  -8    3.88    0.57
  -1  -2   8    4.18    0.54
  -1  -2   8    3.65    0.37
  -1   2   8    2.86    0.50
   1   2  -8    3.81    0.56
  -1   2   8    3.66    0.41
   0  -2   8   20.89    1.03
   0  -2  -8   21.05    1.27
   0   2   8   21.96    1.04
   0   2   8   22.86    1.26
   0   2  -8   20.18    1.25
  -1  -2  -8    1.86    0.45
   1   2   8    1.94    0.40
  -1   2  -8    2.21    0.49
  -2  -2  -8    1.77    0.48
  -2   2  -8    1.90    0.53
  -2   2  -8    3.26    0.28
  -3  -2  -8    0.92    0.45
  -3   2  -8    0.99    0.47
  -4  -2  -8    2.46    0.57
  -4   2  -8    2.36    0.59
  -5  -2  -8    1.74    0.58
  -5   2  -8    1.57    0.59
  -6   2  -8    0.56    0.55
   8  -3  -8   -0.70    0.64
  -8   3   8    0.40    0.73
   8   3  -8    0.43    0.65
   7  -3  -8    0.50    0.66
  -7  -3   8    1.45    0.71
  -7   3   8    0.19    0.73
  -7   3   8    0.24    0.68
   7   3  -8    0.05    0.52
   6  -3  -8    2.80    0.72
  -6   3   8    4.06    0.93
  -6   3   8    3.02    0.71
   6   3  -8    3.31    0.70
  -5  -3   8    5.21    0.70
   5  -3  -8    4.50    0.81
  -5   3   8    4.30    1.00
   5   3  -8    4.96    0.74
  -5   3   8    5.44    0.83
  -4  -3   8   10.07    0.87
   4  -3  -8    9.36    1.01
  -4   3   8    9.41    1.21
   4   3  -8    9.32    0.93
  -4   3   8   10.48    1.05
   3  -3  -8   31.85    1.72
  -3  -3   8   30.80    1.59
  -3   3   8   25.26    1.88
   3   3  -8   28.50    1.61
  -3   3   8   29.61    1.67
   2  -3  -8    9.39    0.89
  -2  -3   8    8.85    0.76
  -2   3   8    9.42    0.89
  -2   3   8   10.58    0.80
   2   3  -8    7.23    0.79
  -2   3   8    8.77    1.03
  -1  -3   8    7.61    0.72
   1  -3  -8    6.75    0.73
  -1   3   8    7.12    0.74
   1   3  -8    6.05    0.71
  -1   3   8    7.31    0.92
  -1   3   8    6.36    0.59
   0  -3  -8    6.20    0.71
   0  -3   8    6.88    0.60
   0   3   8    6.49    0.71
   0   3  -8    7.43    0.75
   0   3   8    7.85    0.58
  -1  -3  -8    3.69    0.56
  -1   3  -8    3.63    0.59
   1   3   8    3.18    0.50
  -1   3  -8    2.24    0.33
   1   3   8    2.72    0.32
  -2  -3  -8    5.02    0.66
  -2   3  -8    4.95    0.46
  -2   3  -8    4.91    0.70
   2   3   8    4.27    0.58
  -3  -3  -8    2.98    0.56
  -3   3  -8    2.11    0.56
  -3   3  -8    1.88    0.36
  -4  -3  -8    0.36    0.46
  -4   3  -8    0.92    0.54
  -5   3  -8    0.44    0.56
  -6   3  -8    0.61    0.50
   7  -4  -8    0.73    0.63
   7   4  -8    0.58    0.53
  -7   4   8   -0.09    0.65
   6  -4  -8    4.81    0.90
   6   4  -8    3.69    0.68
  -6   4   8    3.68    0.85
  -6   4   8    5.06    1.13
   5  -4  -8    1.99    0.67
  -5   4   8    1.94    0.88
  -5   4   8    1.80    0.61
   5   4  -8    1.26    0.53
  -4  -4   8    7.53    0.76
   4  -4  -8    5.40    0.82
  -4   4   8    7.23    0.88
   4   4  -8    5.52    0.72
  -4   4   8    5.02    1.00
  -3  -4   8   31.93    1.62
   3  -4  -8   29.07    1.73
  -3   4   8   28.38    1.67
  -3   4   8   29.03    2.01
   3   4  -8   28.63    1.61
  -3   4   8   28.74    1.64
  -2  -4   8    6.98    0.73
   2  -4  -8    6.17    0.76
   2   4  -8    5.40    0.68
  -2   4   8    5.88    0.94
  -2   4   8    6.65    0.78
  -2   4   8    6.64    0.70
   1  -4  -8    6.27    0.73
  -1  -4   8    6.77    0.70
  -1   4   8    6.28    0.64
  -1   4   8    5.67    0.68
  -1   4   8    6.16    0.94
   1   4  -8    6.12    0.72
   0  -4  -8   -0.02    0.35
   0   4   8    0.44    0.31
   0   4  -8    0.59    0.38
   0   4   8    1.15    0.57
   0   4   8    0.09    0.23
  -1  -4  -8   12.63    0.98
   1   4   8   13.45    1.08
  -1   4  -8   14.70    1.06
   1   4   8   14.60    0.88
   1   4   8   14.46    0.96
  -1   4  -8   12.43    0.87
  -2  -4  -8    2.79    0.53
  -2   4  -8    1.50    0.36
   2   4   8    1.75    0.41
  -2   4  -8    1.97    0.53
  -3   4  -8    2.18    0.57
   3   4   8    2.18    0.46
  -3   4  -8    3.12    0.48
  -4   4  -8    1.06    0.55
  -5   4  -8    0.28    0.52
  -6   4  -8    1.50    0.64
   7  -5  -8    0.89    0.75
   7   5  -8   -0.39    0.52
  -7   5   8    0.61    0.70
   6  -5  -8    0.80    0.65
  -6   5   8    1.76    0.72
   6   5  -8    1.31    0.54
  -6   5   8    1.42    0.84
  -6   5   8    0.46    0.59
   5  -5  -8    0.54    0.61
  -5   5   8    1.30    0.82
  -5   5   8    0.12    0.49
  -5   5   8    0.52    0.55
   5   5  -8    0.53    0.43
   4  -5  -8    1.03    0.57
   4   5  -8    0.90    0.44
  -4   5   8    2.03    0.84
  -4   5   8    1.19    0.45
  -4   5   8    1.48    0.56
   3  -5  -8    9.38    1.01
  -3   5   8    7.84    0.89
  -3   5   8    9.33    1.24
   3   5  -8    7.90    0.80
  -3   5   8    8.78    0.91
   2  -5  -8    6.94    0.82
  -2  -5   8    8.29    0.71
  -2   5   8    7.58    0.82
   2   5  -8    6.63    0.73
  -2   5   8    6.57    1.00
  -2   5   8    7.91    0.82
   1  -5  -8    0.63    0.41
  -1  -5   8    0.78    0.34
  -1   5   8    1.07    0.40
  -1   5   8    1.29    0.62
  -1   5   8    0.21    0.32
   1   5  -8    0.09    0.35
   0  -5  -8    1.53    0.44
   0   5   8    2.39    0.43
   0   5   8    3.45    0.70
   0   5  -8    1.66    0.47
   0   5   8    1.78    0.45
  -1   5  -8    3.96    0.66
  -1   5  -8    5.30    0.61
   1   5   8    4.75    0.56
   1   5   8    5.07    0.72
   1   5   8    4.94    0.59
   2   5   8    1.83    0.41
  -2   5  -8    1.45    0.52
  -2   5  -8    1.56    0.44
  -3   5  -8    1.73    0.47
   3   5   8    2.66    0.47
  -3   5  -8    1.61    0.56
   4   5   8    4.75    0.63
  -4   5  -8    4.14    0.81
   5   5   8    0.33    0.35
  -5   5  -8   -0.55    0.53
  -6   6   8    2.85    0.84
  -6   6   8    2.22    0.68
  -5   6   8    1.39    0.65
  -5   6   8    1.14    0.78
  -5   6   8    2.28    0.72
   5   6  -8    1.94    0.51
  -4   6   8    0.14    0.42
  -4   6   8    2.24    0.77
   4   6  -8    0.62    0.43
  -4   6   8    1.10    0.54
  -3   6   8    2.64    0.62
  -3   6   8    1.91    0.59
   3   6  -8    2.11    0.50
  -3   6   8    3.20    0.87
   2   6  -8    7.16    0.75
  -2   6   8    6.56    0.80
  -2   6   8    6.55    0.82
  -2   6   8    6.36    1.02
  -1   6   8    2.17    0.67
  -1   6   8    2.34    0.52
   1   6  -8    1.66    0.47
  -1   6   8    1.61    0.49
   0   6   8    1.61    0.63
   0   6   8    1.15    0.40
   0   6  -8    1.62    0.44
   0   6   8    1.29    0.42
   0   6  -8    1.33    0.46
   1   6   8    2.17    0.46
  -1   6  -8    2.26    0.58
  -1   6  -8    2.63    0.55
   2   6   8    0.33    0.33
  -2   6  -8    0.34    0.39
  -2   6  -8    0.52    0.45
  -3   6  -8    0.27    0.46
   3   6   8    0.78    0.32
  -4   6  -8    0.49    0.60
  -5   7   8    0.13    0.52
  -5   7   8   -0.54    0.61
  -4   7   8    0.34    0.69
  -4   7   8   -0.57    0.44
  -4   7   8    0.05    0.51
  -3   7   8    2.40    0.65
  -3   7   8    0.98    0.55
  -3   7   8    2.72    0.87
  -2   7   8    6.20    0.80
  -2   7   8    5.43    0.98
  -2   7   8    6.67    0.92
   2   7  -8    5.25    0.64
  -1   7   8    3.56    0.69
  -1   7   8    4.05    0.87
   1   7  -8    3.31    0.60
  -1   7   8    3.99    0.62
   0   7  -8    1.55    0.54
   0   7   8    0.74    0.42
   0   7  -8    0.57    0.42
   0   7   8    1.41    0.42
  -1   7  -8    0.38    0.43
  -1   7  -8    0.38    0.43
   1   7   8    0.20    0.34
  -2   7  -8    0.18    0.46
  -2   7  -8    0.03    0.41
  -3   7  -8    1.13    0.61
  -3   8   8    0.14    0.59
  -3   8   8   -0.01    0.47
  -3   8   8    0.74    0.69
  -2   8   8    4.34    0.77
  -2   8   8    4.36    0.86
  -1   8   8    1.41    0.53
   0   8  -8    0.09    0.43
   0   8   8    0.34    0.37
   0   8  -8   -0.01    0.43
  -1   8  -8    0.54    0.51
  -1   8  -8    0.22    0.51
   1   8   8    0.12    0.34
  -8   0   9    0.32    0.89
   8   0  -9    1.23    0.77
  -8   0   9    2.92    0.80
  -7   0   9   -0.55    0.67
   7   0  -9   -0.13    0.54
  -7   0   9   -0.51    0.47
   6   0  -9    1.21    0.55
  -6   0   9    1.16    0.52
  -6   0   9   -0.09    0.66
  -5   0   9    0.66    0.46
   5   0  -9    1.79    0.59
  -4   0   9   12.01    1.04
   4   0  -9   11.35    1.09
  -3   0   9    0.01    0.31
   3   0  -9    0.48    0.44
   2   0  -9    6.02    0.73
  -2   0   9    6.34    0.72
   1   0  -9    0.16    0.36
  -1   0   9   -0.11    0.23
   0   0  -9   11.71    0.94
   0   0   9    9.42    0.78
  -1   0  -9   80.00    3.67
  -2   0  -9    1.82    0.53
  -3   0  -9    0.91    0.49
  -4   0  -9    0.41    0.47
  -5   0  -9    1.02    0.56
  -6   0  -9    1.16    0.62
   8  -1  -9   -0.13    0.63
  -8  -1   9    0.77    0.67
  -8  -1   9    0.12    0.83
  -8   1   9    0.13    0.83
   8   1  -9    1.07    0.76
  -8   1   9   -0.63    0.62
  -7  -1   9    2.20    0.66
  -7  -1   9    0.95    0.71
   7  -1  -9    1.24    0.71
   7   1  -9   -0.03    0.58
  -7   1   9    0.89    0.61
  -7   1   9    0.24    0.82
  -6  -1   9    8.29    1.01
   6  -1  -9    7.90    1.04
   6   1  -9    8.89    1.06
  -6   1   9   10.70    1.14
  -6   1   9    8.22    1.27
  -5  -1   9   15.83    1.17
   5  -1  -9   14.91    1.22
  -5   1   9   14.38    1.38
   5   1  -9   14.76    1.20
  -5   1   9   13.91    1.18
   4  -1  -9   10.94    1.09
  -4  -1   9   12.25    1.09
   4   1  -9   10.43    1.05
  -4   1   9   12.09    1.13
   3  -1  -9    0.38    0.48
  -3  -1   9    1.57    0.45
  -3   1   9    1.35    0.45
   3   1  -9    1.52    0.53
   2  -1  -9    4.83    0.67
  -2  -1   9    8.42    0.82
  -2   1   9    5.30    0.69
   2   1  -9    6.31    0.74
   1  -1  -9    4.27    0.64
  -1  -1   9    4.89    0.38
  -1  -1   9    5.13    0.64
  -1   1   9    4.60    0.64
  -1   1   9    4.93    0.40
   1   1  -9    4.70    0.67
   0  -1  -9    0.15    0.33
   0  -1   9    1.31    0.37
   0   1  -9    1.08    0.40
   0   1   9    0.29    0.28
  -1  -1  -9   20.59    1.28
   1   1   9   20.07    1.25
  -1   1  -9   20.74    1.35
  -2  -1  -9   65.91    3.14
  -2   1  -9   65.22    3.16
  -3  -1  -9   11.18    1.08
  -3   1  -9   12.71    1.08
  -4  -1  -9    3.51    0.70
  -4   1  -9    4.90    0.79
  -5  -1  -9   -0.43    0.41
  -5   1  -9    0.43    0.51
  -6  -1  -9    0.13    0.54
  -6   1  -9    0.06    0.56
  -8  -2   9   -0.67    0.83
   8  -2  -9    2.39    0.78
   8   2  -9   -0.64    0.58
  -8   2   9    1.12    0.78
  -7  -2   9    0.78    0.69
  -7  -2   9    0.47    0.53
   7  -2  -9    0.54    0.60
   7   2  -9    0.23    0.59
  -7   2   9   -1.49    0.49
  -7   2   9    0.51    0.75
   6  -2  -9    1.34    0.60
  -6  -2   9    1.00    0.52
  -6   2   9    2.15    0.85
  -6   2   9    1.67    0.63
   6   2  -9    2.51    0.66
   5  -2  -9    5.19    0.85
  -5  -2   9    5.34    0.74
   5   2  -9    4.84    0.77
  -5   2   9    3.68    0.90
  -5   2   9    4.71    0.81
  -4  -2   9    3.20    0.62
   4  -2  -9    2.99    0.68
   4   2  -9    2.69    0.59
  -4   2   9    3.20    0.86
  -4   2   9    3.69    0.67
  -3  -2   9    6.67    0.77
   3  -2  -9    6.75    0.85
   3   2  -9    6.63    0.78
  -3   2   9    6.23    0.80
  -2  -2   9    2.56    0.49
   2  -2  -9    1.49    0.51
  -2   2   9    2.66    0.53
   2   2  -9    2.32    0.51
  -1  -2   9    1.31    0.24
   1  -2  -9    0.75    0.44
  -1  -2   9    1.40    0.39
  -1   2   9    1.08    0.27
   1   2  -9    1.09    0.43
  -1   2   9    1.38    0.44
   0  -2   9   13.20    0.72
   0  -2  -9   14.83    1.04
   0  -2   9   11.24    0.89
   0   2   9   13.62    0.70
   0   2  -9   14.32    1.03
   0   2   9   13.14    0.97
  -1  -2  -9   93.31    4.33
  -1   2  -9   98.18    4.38
   1   2   9   99.45    4.32
  -2  -2  -9    8.48    0.89
  -2   2  -9    8.17    0.93
  -3  -2  -9    5.36    0.77
  -3   2  -9    5.20    0.77
  -4  -2  -9    0.26    0.46
  -4   2  -9    1.52    0.59
  -5  -2  -9   -0.10    0.43
  -5   2  -9    0.29    0.52
  -6   2  -9    0.48    0.62
   7  -3  -9    0.19    0.58
  -7   3   9   -0.23    0.71
  -7   3   9    0.10    0.63
   7   3  -9    0.04    0.56
   6  -3  -9    1.48    0.68
   6   3  -9    2.87    0.71
  -6   3   9    1.16    0.85
  -6   3   9    2.43    0.73
   5  -3  -9    1.20    0.60
  -5  -3   9    1.01    0.47
  -5   3   9    1.17    0.76
  -5   3   9    0.24    0.44
   5   3  -9    0.00    0.48
  -4  -3   9    6.07    0.75
   4  -3  -9    4.88    0.79
  -4   3   9    7.33    0.88
   4   3  -9    5.64    0.77
  -4   3   9    8.08    1.10
   3  -3  -9    4.98    0.75
  -3  -3   9    4.40    0.63
  -3   3   9    3.30    0.87
   3   3  -9    2.88    0.57
  -3   3   9    4.47    0.70
   2  -3  -9    5.81    0.77
  -2  -3   9    5.77    0.71
  -2   3   9    5.72    0.96
   2   3  -9    4.47    0.67
  -2   3   9    6.82    0.78
  -2   3   9    5.61    0.61
   1  -3  -9    0.80    0.44
  -1  -3   9    0.91    0.36
  -1   3   9    0.99    0.63
  -1   3   9    0.53    0.36
   1   3  -9    0.33    0.38
  -1   3   9    0.68    0.27
   0  -3   9   30.85    1.64
   0  -3  -9   27.55    1.64
   0   3  -9   32.39    1.69
   0   3   9   30.66    1.43
   0   3   9   25.88    1.60
  -1  -3  -9   30.82    1.67
  -1   3  -9   29.48    1.68
   1   3   9   24.19    1.52
  -2  -3  -9   11.12    0.93
  -2   3  -9   10.18    1.03
   2   3   9    9.05    0.88
  -3  -3  -9   19.05    1.29
  -3   3  -9   17.92    1.36
  -4   3  -9   -0.03    0.48
  -5   3  -9    0.27    0.56
   7  -4  -9   -0.89    0.66
   7   4  -9    0.43    0.58
  -7   4   9   -0.35    0.64
   6  -4  -9    3.31    0.84
  -6   4   9    3.32    0.86
  -6   4   9    3.37    0.92
   6   4  -9    2.70    0.67
   5  -4  -9    1.23    0.65
  -5   4   9    1.62    0.75
   5   4  -9    1.97    0.59
  -5   4   9    1.72    0.62
   4  -4  -9    2.75    0.69
  -4  -4   9    2.62    0.53
  -4   4   9    2.13    0.61
  -4   4   9    1.56    0.51
  -4   4   9    2.39    0.87
   4   4  -9    1.83    0.55
   3  -4  -9    6.79    0.88
  -3  -4   9    8.80    0.84
  -3   4   9    7.04    1.09
  -3   4   9    6.28    0.73
   3   4  -9    7.55    0.81
  -3   4   9    6.33    0.82
  -2  -4   9    0.26    0.34
   2  -4  -9    0.11    0.41
  -2   4   9    0.19    0.38
   2   4  -9    0.07    0.39
  -2   4   9    1.36    0.62
  -2   4   9    0.48    0.34
  -1  -4   9    4.74    0.65
   1  -4  -9    5.49    0.71
  -1   4   9    5.95    0.61
  -1   4   9    4.80    0.69
  -1   4   9    5.38    0.86
   1   4  -9    6.04    0.74
   0  -4  -9   36.29    1.82
   0   4   9   32.03    1.63
   0   4   9   32.84    1.77
   0   4   9   30.97    1.95
   0   4  -9   31.24    1.77
  -1  -4  -9   10.08    0.95
   1   4   9    9.53    0.82
   1   4   9   10.13    1.00
   1   4   9    9.90    0.69
  -1   4  -9    9.15    0.97
  -2   4  -9    5.68    0.81
   2   4   9    5.77    0.69
   3   4   9    5.19    0.67
  -3   4  -9    5.57    0.86
   4   4   9    0.17    0.32
  -4   4  -9    0.93    0.57
  -5   4  -9   -0.47    0.51
   6  -5  -9    1.85    0.72
   6   5  -9    1.27    0.57
  -6   5   9    3.37    0.83
  -6   5   9    0.64    0.62
   5  -5  -9   -0.47    0.55
  -5   5   9    0.48    0.53
   5   5  -9   -0.12    0.46
  -5   5   9    1.45    0.76
  -5   5   9   -0.11    0.47
   4  -5  -9    1.21    0.53
  -4   5   9    0.06    0.68
  -4   5   9    0.94    0.41
   4   5  -9    0.03    0.39
  -4   5   9    0.12    0.48
   3  -5  -9    4.79    0.79
   3   5  -9    3.22    0.60
  -3   5   9    3.15    0.93
  -3   5   9    3.34    0.68
  -3   5   9    3.44    0.64
   2  -5  -9    2.05    0.58
  -2   5   9    1.20    0.67
  -2   5   9    1.09    0.47
   2   5  -9    1.70    0.49
  -2   5   9    1.84    0.47
  -1  -5   9    9.61    0.90
   1  -5  -9    8.63    0.91
  -1   5   9    9.73    1.13
   1   5  -9    7.18    0.83
  -1   5   9    8.53    0.86
  -1   5   9    8.89    0.89
   0  -5   9   18.70    1.21
   0   5   9   19.56    1.19
   0   5   9   18.44    1.44
   0   5  -9   16.33    1.21
   0   5   9   20.50    1.23
   1   5   9    2.25    0.40
   1   5   9    1.76    0.45
  -1   5  -9    1.37    0.53
  -2   5  -9    0.94    0.51
   2   5   9    0.86    0.36
   3   5   9    5.04    0.65
  -3   5  -9    4.66    0.81
  -4   5  -9    0.99    0.60
   4   5   9    1.70    0.48
  -5   6   9    0.58    0.58
   5   6  -9    0.06    0.42
  -5   6   9   -0.40    0.49
  -5   6   9    2.35    0.84
  -4   6   9    0.38    0.51
  -4   6   9    0.49    0.45
  -4   6   9   -0.72    0.62
   4   6  -9    0.92    0.45
  -3   6   9    5.42    1.06
  -3   6   9    3.95    0.71
  -3   6   9    5.39    0.81
   3   6  -9    6.00    0.72
  -2   6   9    5.46    0.76
   2   6  -9    5.60    0.71
  -2   6   9    4.71    0.74
  -2   6   9    4.91    1.00
  -1   6   9    3.16    0.61
  -1   6   9    3.47    0.85
   1   6  -9    3.58    0.63
   0   6   9    1.72    0.46
   0   6  -9    1.97    0.57
   0   6   9    3.01    0.55
   1   6   9    0.75    0.39
   1   6   9    0.68    0.35
  -1   6  -9    0.77    0.49
  -1   6  -9    0.29    0.41
  -2   6  -9   -0.29    0.41
   2   6   9    0.49    0.35
   3   6   9    3.63    0.58
  -3   6  -9    5.37    0.87
  -4   7   9    0.78    0.77
  -4   7   9   -0.67    0.45
  -4   7   9    0.11    0.60
  -3   7   9    1.05    0.74
  -3   7   9    0.09    0.46
  -3   7   9    0.08    0.55
   3   7  -9    0.63    0.45
  -2   7   9   -0.13    0.47
   2   7  -9    0.75    0.44
  -2   7   9    2.11    0.80
  -2   7   9   -0.52    0.42
  -1   7   9    5.72    0.83
  -1   7   9    8.05    0.83
   1   7  -9    7.45    0.84
   0   7   9    1.27    0.47
   0   7  -9    1.59    0.57
   0   7   9    1.79    0.48
  -1   7  -9    0.85    0.52
  -2   7  -9    0.15    0.52
  -8   0  10    2.18    0.74
   8   0 -10    0.37    0.65
  -7   0  10    1.42    0.62
   7   0 -10    0.91    0.67
  -7   0  10   -0.54    0.78
   6   0 -10    1.31    0.62
  -6   0  10    3.23    0.96
  -6   0  10    1.73    0.60
  -5   0  10    2.73    0.65
   5   0 -10    1.98    0.65
  -4   0  10    1.91    0.52
   4   0 -10    1.78    0.58
  -3   0  10    2.77    0.60
   3   0 -10    2.08    0.56
   2   0 -10    1.85    0.55
  -2   0  10    2.19    0.52
  -1   0  10    8.68    0.90
   1   0 -10    7.98    0.90
   0   0 -10   31.51    1.81
   0   0  10   32.93    1.80
  -1   0 -10   65.67    3.05
   1   0  10   59.98    2.99
  -2   0 -10    1.44    0.54
  -3   0 -10    0.17    0.45
  -4   0 -10    0.66    0.46
  -5   0 -10    0.90    0.57
   8  -1 -10    2.60    0.89
  -8  -1  10    2.50    0.85
   8   1 -10    0.97    0.73
  -8   1  10    2.25    0.84
  -7  -1  10    0.93    0.58
  -7  -1  10    1.00    0.85
   7  -1 -10    1.92    0.79
  -7   1  10    0.43    0.84
   7   1 -10    1.41    0.68
  -7   1  10    0.44    0.61
  -6  -1  10    3.99    0.76
   6  -1 -10    3.27    0.74
  -6   1  10    4.19    0.83
   6   1 -10    2.57    0.74
  -6   1  10    1.84    0.94
  -5  -1  10    5.79    0.82
   5  -1 -10    5.12    0.83
   5   1 -10    4.38    0.79
  -5   1  10    6.47    0.86
  -5   1  10    5.18    1.03
  -4  -1  10    1.68    0.51
   4  -1 -10    0.94    0.55
   4   1 -10    1.23    0.52
  -4   1  10    0.87    0.46
  -3  -1  10    1.63    0.50
   3  -1 -10    2.98    0.62
  -3   1  10    1.53    0.51
   3   1 -10    1.61    0.52
  -2  -1  10    1.26    0.46
   2  -1 -10    1.05    0.50
  -2   1  10    2.17    0.54
   2   1 -10    1.86    0.53
   1  -1 -10    1.48    0.50
  -1  -1  10    0.92    0.40
   1   1 -10    1.31    0.49
  -1   1  10    1.04    0.23
  -1   1  10    0.93    0.38
   0  -1 -10    4.91    0.74
   0  -1  10    5.80    0.74
   0   1  10    5.94    0.74
   0   1 -10    4.48    0.73
  -1  -1 -10    1.55    0.51
  -1   1 -10    1.57    0.53
   1   1  10    1.76    0.46
  -2  -1 -10   25.29    1.57
  -2   1 -10   26.55    1.65
  -3  -1 -10    1.34    0.55
  -3   1 -10    1.68    0.58
  -4  -1 -10    0.57    0.51
  -4   1 -10    0.56    0.53
  -5  -1 -10    0.22    0.48
  -5   1 -10   -0.03    0.52
   7  -2 -10    1.73    0.75
  -7  -2  10    2.22    0.87
   7   2 -10    1.93    0.70
  -7   2  10    1.29    0.73
  -7   2  10    2.59    1.00
  -6  -2  10    3.85    0.73
   6  -2 -10    2.80    0.77
   6   2 -10    4.42    0.83
  -6   2  10    3.93    0.83
  -6   2  10    5.25    1.12
   5  -2 -10    1.46    0.63
  -5  -2  10    3.19    0.64
   5   2 -10    1.73    0.62
  -5   2  10    2.39    0.89
  -5   2  10    2.06    0.65
   4  -2 -10    2.37    0.63
  -4  -2  10    2.23    0.54
  -4   2  10    1.24    0.54
  -4   2  10    2.09    0.82
   4   2 -10    1.46    0.54
   3  -2 -10    0.56    0.47
  -3  -2  10    0.80    0.38
  -3   2  10    0.64    0.42
   3   2 -10    0.49    0.43
   2  -2 -10    2.04    0.56
  -2  -2  10    2.55    0.54
   2   2 -10    2.26    0.55
  -2   2  10    1.80    0.38
  -2   2  10    1.93    0.50
  -1  -2  10    0.46    0.33
   1  -2 -10   -0.16    0.40
   1   2 -10   -0.16    0.38
  -1   2  10   -0.34    0.33
  -1   2  10    0.45    0.23
   0  -2 -10   36.79    1.97
   0  -2  10   34.53    1.91
   0   2  10   34.68    1.54
   0   2 -10   35.51    1.94
   0   2  10   37.54    1.96
  -1  -2 -10    9.93    0.99
   1   2  10    9.36    0.92
  -1   2 -10    9.23    0.98
  -2  -2 -10    4.34    0.70
   2   2  10    4.21    0.64
  -2   2 -10    5.32    0.80
  -3  -2 -10    1.82    0.55
  -3   2 -10    0.59    0.49
  -4  -2 -10    1.79    0.60
  -4   2 -10    2.21    0.62
  -5   2 -10    0.10    0.54
   7  -3 -10    0.66    0.68
  -7   3  10    0.07    0.70
   7   3 -10   -0.38    0.53
   6  -3 -10    1.60    0.73
  -6   3  10    1.59    0.94
  -6   3  10    1.20    0.66
   6   3 -10    0.43    0.59
   5  -3 -10    2.16    0.74
  -5  -3  10    2.55    0.60
  -5   3  10    2.45    0.84
  -5   3  10    2.04    0.65
   5   3 -10    1.05    0.56
  -4  -3  10    2.66    0.56
   4  -3 -10    3.53    0.73
   4   3 -10    3.05    0.63
  -4   3  10    1.78    0.77
  -4   3  10    2.68    0.65
  -3  -3  10    1.26    0.42
   3  -3 -10    1.69    0.56
  -3   3  10    0.71    0.41
  -3   3  10    1.55    0.52
  -3   3  10    0.94    0.62
   3   3 -10    0.98    0.45
  -2  -3  10    0.64    0.36
   2  -3 -10    0.96    0.46
  -2   3  10    0.21    0.30
   2   3 -10    0.37    0.41
  -2   3  10    1.26    0.47
  -2   3  10   -0.30    0.61
   1  -3 -10    1.74    0.52
  -1  -3  10    1.83    0.45
  -1   3  10    1.65    0.46
   1   3 -10    1.66    0.48
  -1   3  10    1.54    0.33
   0  -3  10   10.32    0.98
   0  -3 -10    9.21    0.96
   0   3  10    9.05    0.94
   0   3  10   10.40    0.66
   0   3 -10   11.34    0.94
  -1  -3 -10    1.63    0.53
   1   3  10    1.42    0.41
  -1   3 -10    0.75    0.46
  -2  -3 -10    4.19    0.68
   2   3  10    3.76    0.60
  -2   3 -10    2.84    0.65
  -3  -3 -10    5.02    0.77
   3   3  10    4.37    0.67
  -3   3 -10    5.77    0.84
  -4   3 -10    0.96    0.57
  -5   3 -10    0.22    0.55
   7  -4 -10    0.82    0.69
   7   4 -10   -0.23    0.59
  -7   4  10    1.69    0.76
   6  -4 -10    6.19    1.04
  -6   4  10    4.59    1.19
  -6   4  10    4.77    0.94
   6   4 -10    4.42    0.82
   5  -4 -10    1.48    0.61
   5   4 -10    0.69    0.49
  -5   4  10    0.62    0.57
  -5   4  10    2.47    0.86
   4  -4 -10    1.10    0.59
   4   4 -10    0.36    0.45
  -4   4  10    0.61    0.78
  -4   4  10    0.66    0.50
  -4   4  10    0.00    0.42
   3  -4 -10    1.30    0.54
  -3  -4  10    1.09    0.40
   3   4 -10    0.82    0.48
  -3   4  10    1.88    0.53
  -3   4  10    1.36    0.76
  -3   4  10    1.34    0.43
  -2  -4  10    1.37    0.44
   2  -4 -10    0.71    0.49
  -2   4  10    1.09    0.40
   2   4 -10    1.35    0.49
  -2   4  10    1.66    0.51
  -2   4  10    0.82    0.64
   1  -4 -10    1.57    0.52
  -1  -4  10    1.87    0.47
   1   4 -10    0.80    0.44
  -1   4  10    1.50    0.38
  -1   4  10    1.98    0.71
   0  -4  10    5.32    0.72
   0  -4 -10    5.14    0.73
   0   4  10    5.50    0.55
   0   4  10    4.95    0.88
   0   4 -10    5.32    0.75
   0   4  10    5.12    0.70
  -1  -4 -10    3.42    0.65
   1   4  10    4.03    0.75
   1   4  10    4.33    0.64
  -1   4 -10    4.36    0.71
  -2   4 -10    2.54    0.63
   2   4  10    3.44    0.58
   3   4  10    3.24    0.60
  -3   4 -10    3.10    0.69
  -4   4 -10    0.67    0.57
   4   4  10   -0.34    0.29
   6  -5 -10    0.01    0.64
  -6   5  10   -1.05    0.51
   6   5 -10   -0.13    0.48
  -6   5  10    1.36    0.71
   5  -5 -10   -0.08    0.61
  -5   5  10    0.18    0.73
   5   5 -10    0.22    0.48
  -5   5  10   -0.50    0.50
  -5   5  10   -0.89    0.40
   4  -5 -10    1.29    0.62
  -4   5  10    0.29    0.48
   4   5 -10    0.34    0.46
  -4   5  10   -0.49    0.72
  -4   5  10    2.02    0.56
   3  -5 -10    2.81    0.68
  -3   5  10    3.28    0.67
  -3   5  10    2.39    0.86
  -3   5  10    2.76    0.61
   3   5 -10    2.29    0.57
   2  -5 -10    1.32    0.51
  -2   5  10    0.86    0.46
  -2   5  10    0.69    0.71
   2   5 -10    0.59    0.47
  -2   5  10    0.18    0.37
   1   5 -10    1.79    0.57
  -1   5  10    2.60    0.58
  -1   5  10    2.30    0.48
  -1   5  10    2.68    0.81
   0  -5  10    2.05    0.51
   0   5  10    2.11    0.51
   0   5  10    1.61    0.70
   0   5  10    2.47    0.43
   0   5 -10    2.31    0.58
  -1   5 -10    0.44    0.47
   1   5  10    0.70    0.42
  -2   5 -10    0.79    0.49
   2   5  10    0.44    0.33
   3   5  10    2.14    0.51
  -3   5 -10    3.39    0.77
   4   5  10    1.02    0.45
  -4   5 -10    0.52    0.63
   5   6 -10    0.40    0.58
  -5   6  10   -1.02    0.46
  -5   6  10    1.09    0.69
   4   6 -10    0.30    0.44
  -4   6  10    0.65    0.58
  -4   6  10   -0.31    0.46
  -4   6  10    1.11    0.76
  -3   6  10    0.53    0.72
  -3   6  10    1.33    0.51
  -3   6  10    0.39    0.46
   3   6 -10    0.16    0.46
  -2   6  10    1.48    0.52
   2   6 -10    0.88    0.48
  -2   6  10    1.76    0.55
  -2   6  10    1.84    0.74
  -1   6  10    1.96    0.56
   1   6 -10    2.07    0.58
  -1   6  10    2.40    0.54
  -1   6  10    3.27    0.83
   0   6 -10    2.53    0.62
   0   6  10    2.50    0.56
  -1   6 -10   -0.78    0.39
   1   6  10   -0.13    0.37
  -2   6 -10    0.90    0.59
   2   6  10    0.21    0.37
   3   6  10    1.08    0.43
  -3   6 -10    1.17    0.68
  -3   7  10   -0.22    0.56
  -3   7  10    0.57    0.80
  -3   7  10    0.54    0.49
   3   7 -10    0.41    0.48
  -2   7  10    0.31    0.46
   2   7 -10    0.50    0.51
  -2   7  10    0.99    0.53
  -1   7  10    1.93    0.57
   1   7 -10    2.64    0.63
  -1   7  10    2.82    0.63
   0   7 -10    0.50    0.50
   0   7  10    0.86    0.45
  -1   7 -10   -0.11    0.50
  -7   0  11    1.58    0.99
   7   0 -11    0.64    0.70
  -7   0  11    1.24    0.66
  -6   0  11   -0.23    0.47
  -6   0  11    1.80    0.73
   6   0 -11   -0.20    0.54
  -5   0  11    0.00    0.40
   5   0 -11    0.30    0.51
  -4   0  11    0.49    0.41
   4   0 -11    0.16    0.41
   3   0 -11    0.07    0.44
  -3   0  11    0.52    0.41
  -2   0  11   16.01    1.19
   2   0 -11   15.23    1.20
  -1   0  11    4.81    0.72
   1   0 -11    3.79    0.71
   0   0 -11   37.15    2.14
   0   0  11   40.87    2.15
   1   0  11    6.95    0.82
  -1   0 -11    6.07    0.82
  -2   0 -11   -0.21    0.43
  -3   0 -11    0.57    0.45
  -4   0 -11   -0.15    0.50
  -5   0 -11    0.20    0.54
  -7  -1  11    0.09    0.82
   7  -1 -11   -0.13    0.66
  -7  -1  11    0.87    0.60
  -7   1  11    0.98    0.64
   7   1 -11   -0.09    0.68
  -6  -1  11    1.01    0.54
   6  -1 -11    1.26    0.68
  -6   1  11    1.46    0.64
   6   1 -11    1.50    0.63
  -6   1  11    2.43    0.89
   5  -1 -11    0.49    0.54
  -5  -1  11   -0.17    0.43
  -5   1  11    0.40    0.59
  -5   1  11    1.28    0.52
   5   1 -11    1.17    0.57
  -4  -1  11    1.14    0.48
   4  -1 -11    0.52    0.52
  -4   1  11    0.41    0.46
   4   1 -11   -0.06    0.43
   3  -1 -11    2.21    0.59
  -3  -1  11    2.22    0.56
   3   1 -11    1.21    0.53
  -3   1  11    3.02    0.62
  -2  -1  11    3.58    0.64
   2  -1 -11    2.42    0.60
  -2   1  11    2.73    0.59
   2   1 -11    2.69    0.61
   1  -1 -11    9.40    0.97
  -1  -1  11    8.99    0.95
  -1   1  11    9.81    1.02
   1   1 -11    7.89    0.94
   0  -1  11    9.57    0.98
   0  -1 -11    9.29    0.99
   0   1 -11    8.01    0.92
   0   1  11    8.36    0.93
  -1  -1 -11    0.09    0.41
   1  -1  11    0.24    0.34
  -1   1 -11   -0.15    0.40
   1   1  11   -0.23    0.30
  -2  -1 -11    0.12    0.43
  -2   1 -11    1.33    0.54
   2   1  11    0.91    0.38
  -3  -1 -11    0.99    0.51
  -3   1 -11    0.82    0.52
  -4  -1 -11    0.88    0.56
  -4   1 -11    0.02    0.52
  -5  -1 -11   -1.16    0.51
  -5   1 -11   -0.35    0.57
   7  -2 -11   -0.96    0.59
   7   2 -11   -0.28    0.66
  -7   2  11   -0.26    0.59
   6  -2 -11    0.21    0.58
  -6  -2  11    0.50    0.53
  -6   2  11    0.52    0.51
  -6   2  11    0.25    0.76
   6   2 -11    1.46    0.65
   5  -2 -11    0.53    0.54
  -5  -2  11    0.49    0.45
   5   2 -11   -0.46    0.44
  -5   2  11   -0.34    0.44
  -5   2  11   -0.67    0.65
   4  -2 -11    1.53    0.56
  -4  -2  11    1.34    0.51
   4   2 -11    1.35    0.57
  -4   2  11    2.15    0.58
  -4   2  11    1.26    0.78
  -3  -2  11    3.15    0.59
   3  -2 -11    3.03    0.64
  -3   2  11    3.76    0.67
   3   2 -11    2.98    0.63
   2  -2 -11    4.51    0.74
  -2  -2  11    5.23    0.75
  -2   2  11    4.23    0.69
  -2   2  11    5.26    0.54
   2   2 -11    5.26    0.75
  -1  -2  11    6.49    0.80
   1  -2 -11    6.01    0.82
   1   2 -11    6.10    0.82
  -1   2  11    5.53    0.79
   0  -2  11   11.64    1.00
   0  -2 -11   11.95    1.14
   0   2  11   12.29    1.02
   0   2 -11   12.74    1.08
  -1  -2 -11    7.79    0.93
  -1   2 -11    7.02    0.87
   1   2  11    7.35    0.87
  -2  -2 -11    0.57    0.43
  -2   2 -11    0.17    0.47
   2   2  11    0.10    0.32
  -3  -2 -11    1.16    0.52
  -3   2 -11    2.01    0.63
  -4  -2 -11    0.68    0.56
  -4   2 -11    0.95    0.57
  -5   2 -11   -0.95    0.51
   7  -3 -11    1.44    0.81
  -7   3  11    3.94    0.96
   7   3 -11    1.62    0.73
   6  -3 -11    3.19    0.82
  -6   3  11    2.07    1.02
   6   3 -11    1.79    0.71
  -6   3  11    2.82    0.79
   5  -3 -11    1.66    0.64
  -5  -3  11    1.06    0.49
  -5   3  11    0.88    0.55
   5   3 -11    0.77    0.56
  -5   3  11   -0.37    0.69
  -4  -3  11    1.17    0.49
   4  -3 -11    0.02    0.51
   4   3 -11    0.68    0.51
  -4   3  11    0.28    0.69
  -4   3  11    0.32    0.47
  -3  -3  11    4.02    0.70
   3  -3 -11    5.02    0.79
  -3   3  11    4.53    0.98
  -3   3  11    5.39    0.80
   3   3 -11    3.86    0.70
  -3   3  11    3.34    0.56
  -2  -3  11    0.77    0.42
   2  -3 -11    1.08    0.50
  -2   3  11    0.54    0.45
  -2   3  11    1.67    0.69
   2   3 -11    1.65    0.53
  -2   3  11    0.87    0.34
  -1  -3  11    0.31    0.36
   1  -3 -11    1.13    0.51
   1   3 -11    0.48    0.44
  -1   3  11    0.49    0.40
   0  -3 -11    1.05    0.50
   0  -3  11    0.98    0.44
   0   3  11    1.15    0.44
   0   3 -11    0.89    0.46
  -1  -3 -11    0.54    0.45
  -1   3 -11   -0.07    0.39
   1   3  11    0.20    0.35
  -2  -3 -11    1.54    0.59
   2   3  11    0.59    0.40
  -2   3 -11    0.82    0.52
   3   3  11    0.26    0.37
  -3   3 -11   -0.31    0.46
   4   3  11    0.28    0.35
  -4   3 -11    0.41    0.51
   6  -4 -11   -0.22    0.65
  -6   4  11    0.27    0.61
   6   4 -11    0.72    0.67
  -5   4  11   -0.83    0.44
   5   4 -11    0.42    0.55
  -5   4  11    0.60    0.47
  -5   4  11   -0.64    0.66
   4  -4 -11    1.40    0.59
  -4   4  11    3.03    0.91
   4   4 -11    0.85    0.53
  -4   4  11    1.67    0.62
  -4   4  11    1.24    0.51
  -3  -4  11    5.15    0.77
   3  -4 -11    5.21    0.83
   3   4 -11    5.47    0.77
  -3   4  11    4.77    0.81
  -3   4  11    4.34    1.02
  -3   4  11    5.04    0.71
  -2  -4  11    0.07    0.37
   2  -4 -11    0.49    0.51
  -2   4  11    0.58    0.69
  -2   4  11    0.64    0.43
  -2   4  11   -0.04    0.30
   2   4 -11   -0.20    0.39
   1  -4 -11    3.29    0.67
  -1  -4  11    3.31    0.63
   1   4 -11    2.24    0.61
  -1   4  11    3.80    0.88
  -1   4  11    3.40    0.65
   0  -4  11    1.35    0.47
   0  -4 -11    2.10    0.59
   0   4  11    2.28    0.76
   0   4  11    1.81    0.51
   0   4 -11    1.56    0.54
   1   4  11    0.76    0.36
  -1   4 -11    0.21    0.46
  -2   4 -11    0.59    0.54
   2   4  11    1.01    0.45
  -3   4 -11   -0.21    0.51
   3   4  11    0.66    0.39
  -4   4 -11    1.44    0.62
   4   4  11    0.41    0.40
   5  -5 -11   -1.17    0.52
  -5   5  11    0.13    0.51
   5   5 -11    0.38    0.54
  -5   5  11    0.69    0.62
   4  -5 -11    1.84    0.72
   4   5 -11    2.04    0.63
  -4   5  11    1.44    0.57
  -4   5  11    3.31    0.72
  -4   5  11    3.94    0.94
   3  -5 -11    1.00    0.58
  -3   5  11    1.52    0.58
  -3   5  11    0.96    0.78
   3   5 -11    1.01    0.52
  -3   5  11    0.56    0.46
  -2   5  11    0.53    0.38
   2   5 -11    0.54    0.49
  -2   5  11    0.84    0.75
  -2   5  11    1.19    0.52
  -1   5  11    0.62    0.40
  -1   5  11   -0.20    0.63
   1   5 -11    0.08    0.43
   0  -5  11    1.79    0.53
   0   5 -11    1.46    0.56
   0   5  11    1.67    0.52
  -1   5 -11    0.32    0.48
   1   5  11    1.20    0.48
   2   5  11    0.37    0.39
  -2   5 -11    0.36    0.54
   3   5  11    0.33    0.39
  -3   5 -11   -0.52    0.51
   4   6 -11    0.49    0.55
  -4   6  11   -1.22    0.42
  -4   6  11    0.10    0.56
  -4   6  11    1.07    0.85
  -3   6  11   -0.63    0.39
  -3   6  11    0.77    0.78
   3   6 -11    0.03    0.46
  -3   6  11    1.08    0.58
   2   6 -11   -0.28    0.43
  -2   6  11    0.77    0.75
  -2   6  11    0.49    0.49
  -1   6  11    0.71    0.49
   1   6 -11    0.81    0.53
   0   6 -11    3.31    0.75
   0   6  11    3.71    0.68
  -1   6 -11   -0.24    0.46
   1   6  11    0.58    0.46
  -2   6 -11   -0.27    0.55
   2   6  11    1.19    0.48
  -7   0  12    2.16    0.68
   7   0 -12    1.22    0.74
  -6   0  12    0.72    0.71
  -6   0  12    0.24    0.51
   6   0 -12   -0.51    0.54
   5   0 -12   -0.11    0.50
  -5   0  12    0.74    0.50
  -4   0  12    5.23    0.81
   4   0 -12    2.47    0.65
  -3   0  12    0.26    0.40
   3   0 -12    0.07    0.48
   2   0 -12    5.55    0.82
  -2   0  12    8.81    1.00
  -1   0  12    4.60    0.75
   1   0 -12    5.02    0.77
   0   0  12    0.47    0.38
   0   0 -12    0.38    0.50
  -1   0 -12   -0.07    0.39
   1   0  12    0.11    0.36
  -2   0 -12    0.67    0.50
   2   0  12    0.83    0.39
  -3   0 -12    0.05    0.48
  -4   0 -12    6.14    1.01
  -7  -1  12    1.68    0.57
   7  -1 -12    0.26    0.70
   7   1 -12    0.70    0.64
  -7   1  12    0.21    0.59
  -6  -1  12    0.90    0.55
   6  -1 -12    0.24    0.62
  -6   1  12    0.35    0.54
   6   1 -12   -0.48    0.56
  -6   1  12    0.27    0.83
   5  -1 -12   -0.29    0.51
  -5  -1  12   -0.30    0.43
  -5   1  12    0.07    0.71
  -5   1  12    0.21    0.48
   5   1 -12   -0.12    0.47
  -4  -1  12    0.51    0.48
   4  -1 -12    1.06    0.57
  -4   1  12    0.29    0.45
   4   1 -12    1.40    0.56
  -3  -1  12    3.71    0.70
   3  -1 -12    3.34    0.70
   3   1 -12    3.16    0.66
  -3   1  12    4.15    0.76
  -2  -1  12    1.11    0.49
   2  -1 -12    2.53    0.65
  -2   1  12    2.04    0.56
   2   1 -12    2.21    0.60
  -1  -1  12    5.43    0.80
   1  -1 -12    4.27    0.77
   1   1 -12    4.04    0.75
  -1   1  12    5.54    0.79
   0  -1  12    5.46    0.78
   0  -1 -12    5.25    0.81
   0   1 -12    5.57    0.82
   0   1  12    5.54    0.79
  -1  -1 -12    0.24    0.47
   1  -1  12    0.14    0.35
  -1   1 -12    0.66    0.43
   1   1  12    0.26    0.37
  -2  -1 -12    0.76    0.47
  -2   1 -12    0.43    0.48
   2   1  12    0.15    0.32
  -3  -1 -12    2.28    0.64
  -3   1 -12    1.42    0.65
  -4  -1 -12    0.43    0.60
  -4   1 -12    0.18    0.52
   6  -2 -12   -0.83    0.58
  -6  -2  12    0.81    0.54
   6   2 -12   -0.06    0.60
  -6   2  12    0.26    0.57
  -5  -2  12    0.39    0.50
   5  -2 -12    0.04    0.56
   5   2 -12    0.89    0.57
  -5   2  12    0.15    0.70
  -5   2  12    0.91    0.55
   4  -2 -12    0.99    0.57
  -4  -2  12    0.92    0.48
   4   2 -12    1.31    0.54
  -4   2  12    0.44    0.49
  -4   2  12    2.40    0.73
   3  -2 -12    3.37    0.70
  -3  -2  12    2.89    0.61
  -3   2  12    3.64    0.71
   3   2 -12    2.21    0.61
   2  -2 -12    2.63    0.66
  -2  -2  12    3.82    0.67
  -2   2  12    4.90    0.79
   2   2 -12    3.63    0.70
  -1  -2  12    9.97    1.06
   1  -2 -12    8.20    1.01
   1   2 -12    9.56    1.05
  -1   2  12   10.31    1.10
   0  -2 -12    3.35    0.72
   0  -2  12    4.14    0.69
   0   2  12    3.32    0.67
   0   2 -12    3.22    0.72
   1  -2  12    0.90    0.44
  -1  -2 -12    1.03    0.58
  -1   2 -12    1.73    0.58
   1   2  12    1.02    0.46
  -2  -2 -12    1.44    0.53
   2   2  12    0.19    0.34
  -2   2 -12    0.60    0.55
  -3  -2 -12   -0.01    0.49
  -3   2 -12    1.21    0.58
   3   2  12    0.13    0.37
  -4   2 -12    0.53    0.63
   6  -3 -12    1.43    0.70
   6   3 -12    1.90    0.79
  -6   3  12    2.66    0.72
   5  -3 -12   -0.92    0.52
  -5   3  12    0.63    0.65
  -5   3  12    0.14    0.51
   5   3 -12   -0.08    0.49
   4  -3 -12    1.40    0.64
  -4  -3  12    1.27    0.53
  -4   3  12    1.11    0.83
   4   3 -12    0.93    0.52
  -4   3  12    1.21    0.56
  -3  -3  12    2.25    0.56
   3  -3 -12    2.27    0.66
  -3   3  12    3.42    0.69
  -3   3  12    1.89    0.46
  -3   3  12    1.03    0.74
  -2  -3  12    0.62    0.40
   2  -3 -12    1.20    0.54
  -2   3  12    0.10    0.46
  -2   3  12    0.94    0.61
   2   3 -12    0.05    0.45
   1  -3 -12    2.08    0.61
  -1  -3  12    1.63    0.53
   1   3 -12    1.81    0.59
  -1   3  12    1.86    0.53
   0  -3  12    0.59    0.41
   0  -3 -12    0.40    0.49
   0   3  12    0.15    0.38
   0   3 -12    0.02    0.44
   1  -3  12    0.62    0.38
  -1  -3 -12    0.26    0.48
   1   3  12    0.06    0.35
  -1   3 -12   -0.09    0.42
  -2  -3 -12    2.58    0.64
  -2   3 -12    0.77    0.56
   2   3  12    1.38    0.49
   3   3  12    1.62    0.49
  -3   3 -12    1.02    0.59
   5  -4 -12   -0.05    0.62
  -5   4  12   -0.66    0.46
  -5   4  12   -0.64    0.44
   5   4 -12   -0.15    0.54
   4  -4 -12    0.87    0.59
  -4   4  12    0.19    0.71
  -4   4  12    0.82    0.47
   4   4 -12    0.47    0.55
  -4   4  12    0.31    0.51
   3  -4 -12    0.72    0.56
  -3   4  12    0.87    0.73
  -3   4  12    0.08    0.45
   3   4 -12    0.54    0.49
   2  -4 -12    1.16    0.49
  -2  -4  12    1.19    0.45
  -2   4  12    0.49    0.45
   2   4 -12    0.11    0.45
  -2   4  12   -0.33    0.69
   1  -4 -12    7.79    0.96
  -1  -4  12    7.30    0.91
  -1   4  12    5.37    0.81
   1   4 -12    4.47    0.76
  -1   4  12    6.15    1.09
   0  -4  12    6.99    0.90
   0   4 -12    4.72    0.83
   0   4  12    4.94    0.80
   0   4  12    6.75    1.02
   1  -4  12   -0.10    0.33
   1   4  12    0.12    0.38
  -1   4 -12   -0.42    0.44
   2   4  12    0.84    0.48
  -2   4 -12    0.48    0.55
   3   4  12    1.99    0.57
  -3   4 -12    2.61    0.76
   4   5 -12   -0.24    0.52
  -4   5  12    0.84    0.83
  -4   5  12    0.79    0.58
  -4   5  12   -0.50    0.42
   3   5 -12    0.10    0.48
  -3   5  12    0.87    0.54
  -3   5  12    0.08    0.76
  -2   5  12    0.26    0.49
   2   5 -12   -0.36    0.46
  -2   5  12   -0.46    0.69
   1   5 -12    0.94    0.54
  -1   5  12    1.20    0.52
  -1   5  12    0.27    0.75
   0   5 -12    0.46    0.52
   0   5  12    0.56    0.44
   1   5  12    0.19    0.40
  -1   5 -12    0.68    0.50
  -2   5 -12    0.28    0.59
   2   5  12    0.90    0.48
  -3   6  12    0.71    0.59
   3   6 -12    0.06    0.58
  -3   6  12    0.42    0.83
  -2   6  12    0.55    0.51
   2   6 -12    0.84    0.60
  -1   6  12    1.25    0.57
   1   6 -12    0.58    0.55
   0   6 -12    0.62    0.55
   0   6  12    1.86    0.56
  -6   0  13    1.01    0.61
   6   0 -13   -0.50    0.54
   5   0 -13    1.54    0.56
  -5   0  13    0.49    0.51
   4   0 -13    0.14    0.53
  -4   0  13    1.32    0.56
  -3   0  13    0.78    0.48
   3   0 -13   -0.17    0.48
   2   0 -13    0.26    0.46
  -2   0  13    0.19    0.32
  -1   0  13    1.54    0.53
   1   0 -13    0.98    0.56
   0   0 -13    1.01    0.54
   0   0  13    0.44    0.40
  -1   0 -13   -0.38    0.44
   1   0  13    0.36    0.39
   2   0  13    1.07    0.45
  -2   0 -13   -0.17    0.43
  -3   0 -13    0.64    0.57
   6  -1 -13    0.38    0.67
  -6  -1  13    1.72    0.64
  -6   1  13   -0.41    0.51
   6   1 -13   -0.08    0.54
  -5  -1  13    0.62    0.55
   5  -1 -13   -0.30    0.55
  -5   1  13    1.24    0.59
   5   1 -13    0.52    0.59
   4  -1 -13    1.14    0.60
  -4  -1  13   -0.09    0.42
  -4   1  13    0.05    0.47
   4   1 -13    0.64    0.49
   3  -1 -13   -0.01    0.48
  -3  -1  13    0.41    0.44
  -3   1  13   -0.09    0.44
   3   1 -13   -0.31    0.44
   2  -1 -13   -0.05    0.45
  -2  -1  13    0.65    0.47
  -2   1  13    0.38    0.45
   2   1 -13    0.62    0.50
  -1  -1  13    1.88    0.56
   1  -1 -13    0.81    0.55
  -1   1  13    1.84    0.55
   1   1 -13    1.29    0.58
   0  -1  13    2.05    0.57
   0  -1 -13    1.96    0.62
   0   1  13    1.83    0.59
   0   1 -13    1.76    0.63
   1  -1  13    0.61    0.40
  -1  -1 -13   -0.66    0.41
  -1   1 -13    1.28    0.54
   1   1  13    0.07    0.34
   2  -1  13    0.34    0.36
  -2  -1 -13   -0.41    0.45
  -2   1 -13    0.39    0.48
   2   1  13   -0.20    0.32
  -3  -1 -13    1.00    0.61
  -3   1 -13    1.96    0.71
   3   1  13    1.37    0.51
   6  -2 -13   -0.26    0.70
  -6  -2  13    1.28    0.64
   6   2 -13    0.80    0.67
  -6   2  13   -0.04    0.54
  -5  -2  13    1.06    0.55
   5  -2 -13    0.16    0.59
  -5   2  13    0.07    0.83
  -5   2  13    0.75    0.56
   5   2 -13    1.27    0.65
  -4  -2  13    1.02    0.54
   4  -2 -13    0.97    0.61
  -4   2  13    1.77    0.67
   4   2 -13    1.03    0.58
  -4   2  13    1.07    0.56
  -3  -2  13    0.84    0.40
   3  -2 -13    0.67    0.58
   3   2 -13    1.03    0.53
  -3   2  13    0.45    0.47
   2  -2 -13    0.15    0.50
  -2  -2  13   -0.10    0.37
  -2   2  13    0.37    0.44
   2   2 -13    0.34    0.47
   1  -2 -13    1.37    0.60
  -1  -2  13    1.98    0.57
  -1   2  13    1.98    0.54
   1   2 -13    2.15    0.64
   0  -2 -13    1.77    0.65
   0  -2  13    3.03    0.67
   0   2 -13    2.73    0.66
   0   2  13    2.71    0.68
  -1  -2 -13    0.31    0.47
   1  -2  13    0.01    0.35
   1   2  13    0.04    0.36
  -1   2 -13    0.20    0.51
  -2  -2 -13   -0.19    0.51
  -2   2 -13    0.32    0.55
   2   2  13    0.25    0.39
  -3  -2 -13    1.66    0.71
   3   2  13    1.94    0.57
  -3   2 -13    1.96    0.72
   5  -3 -13    1.72    0.73
   5   3 -13    0.20    0.59
  -5   3  13    0.28    0.56
   4  -3 -13    0.63    0.56
  -4  -3  13   -0.04    0.44
   4   3 -13    0.24    0.46
  -4   3  13    0.35    0.48
  -4   3  13   -0.32    0.72
   3  -3 -13   -0.11    0.50
  -3  -3  13    1.28    0.50
  -3   3  13    0.38    0.47
  -3   3  13   -0.72    0.66
   3   3 -13   -0.07    0.45
  -2  -3  13    1.34    0.47
   2  -3 -13    0.80    0.53
  -2   3  13   -0.39    0.41
   2   3 -13   -0.02    0.47
  -2   3  13    0.72    0.59
  -1  -3  13    2.01    0.56
   1  -3 -13    2.03    0.64
   1   3 -13    1.35    0.59
  -1   3  13    1.58    0.53
   0  -3  13    0.41    0.43
   0  -3 -13    0.38    0.52
   0   3  13    0.77    0.47
   0   3 -13    0.01    0.44
   1  -3  13    0.08    0.37
  -1  -3 -13    0.32    0.53
   1   3  13    0.71    0.43
  -1   3 -13   -0.24    0.47
   2   3  13    1.45    0.54
  -2   3 -13    1.48    0.66
   4  -4 -13   -0.21    0.59
  -4   4  13    0.33    0.85
   4   4 -13    0.87    0.56
  -4   4  13    0.62    0.55
   3  -4 -13    0.61    0.62
  -3   4  13   -0.30    0.77
   3   4 -13    0.12    0.54
  -3   4  13    0.85    0.57
  -2  -4  13    1.11    0.44
   2  -4 -13    0.86    0.46
  -2   4  13    0.04    0.80
  -2   4  13    0.45    0.50
   2   4 -13    0.15    0.50
  -1  -4  13    2.22    0.56
  -1   4  13    0.53    0.76
  -1   4  13    1.36    0.54
   1   4 -13    1.44    0.59
   0  -4  13    2.49    0.64
   0   4 -13    1.72    0.60
   0   4  13    0.44    0.48
   1  -4  13    0.78    0.49
   1   4  13    0.26    0.39
  -1   4 -13   -0.02    0.54
   2   4  13    0.64    0.47
  -2   4 -13    0.43    0.58
  -3   5  13    0.49    0.56
   3   5 -13   -0.03    0.57
  -3   5  13    0.27    0.84
  -2   5  13    0.05    0.80
   2   5 -13    0.61    0.55
  -2   5  13    0.14    0.49
   1   5 -13    0.47    0.57
  -1   5  13    1.01    0.56
   0   5  13    0.46    0.46
   0   5 -13    0.62    0.53
   5   0 -14    0.95    0.69
  -5   0  14    1.63    0.70
  -4   0  14    0.87    0.60
   4   0 -14    0.98    0.63
   3   0 -14   -0.42    0.49
  -3   0  14    0.44    0.50
   2   0 -14    0.48    0.56
  -2   0  14    1.24    0.59
  -1   0  14    1.04    0.53
   1   0 -14    0.82    0.54
   0   0  14    0.76    0.45
   0   0 -14    0.48    0.54
   1   0  14    0.98    0.48
  -1   0 -14    1.57    0.64
  -2   0 -14    1.00    0.66
   2   0  14    0.92    0.54
   5  -1 -14    0.08    0.54
  -5  -1  14    1.26    0.63
  -5   1  14    0.00    0.53
   5   1 -14    0.73    0.66
  -4  -1  14    0.95    0.55
   4  -1 -14    0.38    0.56
  -4   1  14    0.25    0.49
   4   1 -14    1.43    0.57
   3  -1 -14   -0.09    0.50
  -3  -1  14    0.49    0.52
   3   1 -14    0.32    0.56
  -3   1  14    1.17    0.59
   2  -1 -14    0.08    0.49
  -2  -1  14    0.48    0.53
   2   1 -14   -0.15    0.48
  -2   1  14    0.38    0.45
  -1  -1  14    1.10    0.49
   1  -1 -14    0.98    0.60
  -1   1  14    1.11    0.52
   1   1 -14    0.66    0.60
   0  -1  14    1.09    0.49
   0  -1 -14    1.09    0.62
   0   1  14    0.70    0.50
   0   1 -14    2.15    0.68
   1  -1  14    1.46    0.56
  -1  -1 -14    1.13    0.65
  -1   1 -14    1.55    0.71
   1   1  14    0.10    0.45
  -2  -1 -14    0.23    0.61
   2  -1  14    0.93    0.50
   2   1  14    1.28    0.53
  -2   1 -14    1.27    0.61
  -5  -2  14    1.05    0.59
   5  -2 -14    0.55    0.71
   5   2 -14    0.04    0.62
  -5   2  14    0.14    0.58
   4  -2 -14    0.42    0.60
  -4  -2  14    1.20    0.59
   4   2 -14    0.80    0.59
  -4   2  14    0.80    0.58
  -3  -2  14    0.91    0.46
   3  -2 -14   -0.30    0.53
   3   2 -14   -0.13    0.47
  -3   2  14    0.61    0.52
  -2  -2  14    1.24    0.51
   2  -2 -14   -0.18    0.49
  -2   2  14    1.13    0.55
   2   2 -14    0.04    0.50
   1  -2 -14   -0.27    0.54
  -1  -2  14   -0.02    0.41
  -1   2  14    0.27    0.43
   1   2 -14   -0.16    0.49
   0  -2 -14    2.01    0.61
   0  -2  14    0.27    0.42
   0   2 -14    0.03    0.51
   0   2  14    0.56    0.44
   1  -2  14    0.31    0.44
  -1  -2 -14    0.93    0.60
   1   2  14    0.19    0.44
  -1   2 -14    0.22    0.59
  -2  -2 -14    1.26    0.63
   2  -2  14   -0.46    0.40
   2   2  14    0.20    0.43
  -2   2 -14   -0.33    0.54
   4  -3 -14    0.79    0.64
   4   3 -14    0.78    0.64
  -4   3  14    0.49    0.58
  -3  -3  14    0.79    0.47
   3  -3 -14    0.19    0.57
   3   3 -14    0.67    0.58
  -3   3  14   -0.68    0.79
  -3   3  14   -0.62    0.40
  -2  -3  14    0.61    0.50
   2  -3 -14    0.30    0.53
  -2   3  14    0.04    0.50
  -2   3  14    1.71    0.64
   2   3 -14    0.39    0.56
  -1  -3  14    0.01    0.46
   1  -3 -14    1.89    0.67
  -1   3  14    1.46    0.54
   1   3 -14    1.14    0.61
   0  -3  14    0.71    0.49
   0  -3 -14    0.71    0.58
   0   3  14    0.16    0.48
   0   3 -14    0.24    0.57
   1  -3  14    1.11    0.53
   1   3  14    0.43    0.49
  -1   3 -14    0.74    0.60
   3  -4 -14    0.79    0.68
  -3   4  14    0.48    0.58
   3   4 -14    0.14    0.56
  -3   4  14   -1.87    0.66
   2   4 -14    0.56    0.61
  -2   4  14   -0.37    0.84
  -2   4  14    0.79    0.56
  -1  -4  14    0.35    0.51
  -1   4  14    1.43    0.61
   1   4 -14    1.12    0.62
   0  -4  14    1.23    0.54
   0   4 -14    1.01    0.69
   0   4  14    1.14    0.51
   4   0 -15    0.59    0.63
   3   0 -15   -0.19    0.56
  -3   0  15    0.13    0.53
   2   0 -15    0.48    0.58
  -2   0  15    0.03    0.52
   1   0 -15   -0.47    0.50
  -1   0  15    1.17    0.46
   0   0  15    0.53    0.50
   0   0 -15    0.26    0.59
   1   0  15   -0.09    0.43
  -1   0 -15    0.63    0.67
  -4  -1  15    0.66    0.62
   4  -1 -15    0.04    0.63
  -4   1  15    1.34    0.60
   4   1 -15    1.59    0.63
   3  -1 -15   -0.36    0.53
  -3  -1  15   -0.51    0.47
  -3   1  15    0.49    0.54
   3   1 -15    0.46    0.60
   2  -1 -15    0.19    0.56
  -2  -1  15    0.69    0.46
  -2   1  15    1.24    0.50
   2   1 -15    0.58    0.57
   1  -1 -15    1.22    0.66
  -1  -1  15    0.33    0.53
   1   1 -15   -0.18    0.50
  -1   1  15    0.89    0.62
   0  -1  15    2.19    0.63
   0  -1 -15    2.68    0.82
   0   1 -15    2.63    0.79
   0   1  15    2.71    0.70
  -1  -1 -15    0.88    0.64
   1  -1  15   -0.09    0.41
   1   1  15    1.01    0.46
  -1   1 -15    0.00    0.56
   3  -2 -15   -0.30    0.58
  -3  -2  15    0.14    0.49
  -3   2  15   -0.18    0.51
   3   2 -15    0.36    0.61
   2  -2 -15    0.85    0.66
  -2  -2  15    0.11    0.54
  -2   2  15    0.43    0.51
   2   2 -15    0.35    0.58
  -1  -2  15    0.48    0.48
   1  -2 -15    0.22    0.59
   1   2 -15    0.82    0.59
  -1   2  15    1.02    0.58
   0  -2  15    0.77    0.51
   0  -2 -15    0.70    0.66
   0   2  15    0.80    0.54
   0   2 -15    0.35    0.62
   2  -3 -15    0.66    0.69
  -2   3  15    2.26    0.73
  -2   3  15   -0.11    0.54
   2   3 -15    0.15    0.62
   1  -3 -15    2.64    0.80
   0   0   0    0.00    0.00
;
_shelx_hkl_checksum              49618
loop_
_space_group_symop_operation_xyz
'x, y, z'
'-x, y+1/2, -z'
loop_
_atom_site_label
_atom_site_type_symbol
_atom_site_fract_x
_atom_site_fract_y
_atom_site_fract_z
_atom_site_U_iso_or_equiv
_atom_site_adp_type
_atom_site_occupancy
_atom_site_site_symmetry_order
_atom_site_calc_flag
_atom_site_refinement_flags_posn
_atom_site_refinement_flags_adp
_atom_site_refinement_flags_occupancy
_atom_site_disorder_assembly
_atom_site_disorder_group
F1 F 0.8494(3) 0.6033(4) 0.44374(18) 0.0973(8) Uani 1 1 d . . . . .
O1 O 0.5992(4) 0.8823(4) 0.2015(2) 0.0769(8) Uani 1 1 d . . . . .
H1 H 0.688313 0.837887 0.244260 0.115 Uiso 1 1 calc R U . . .
N1 N 0.9294(4) 0.7669(4) 0.2648(2) 0.0553(7) Uani 1 1 d . . . . .
C1 C 0.6323(5) 0.8750(4) 0.0991(3) 0.0579(9) Uani 1 1 d . . . . .
C2 C 0.4870(6) 0.9306(5) 0.0139(4) 0.0753(11) Uani 1 1 d . . . . .
H2 H 0.373856 0.971802 0.030802 0.090 Uiso 1 1 calc R U . . .
C3 C 0.5092(6) 0.9249(5) -0.0923(4) 0.0772(12) Uani 1 1 d . . . . .
H3 H 0.410466 0.963023 -0.147447 0.093 Uiso 1 1 calc R U . . .
C4 C 0.6771(6) 0.8631(5) -0.1227(3) 0.0608(9) Uani 1 1 d . . . . .
C5 C 0.6982(7) 0.8540(5) -0.2343(3) 0.0797(12) Uani 1 1 d . . . . .
H5 H 0.598571 0.890173 -0.289448 0.096 Uiso 1 1 calc R U . . .
C6 C 0.8581(8) 0.7944(5) -0.2632(3) 0.0867(14) Uani 1 1 d . . . . .
H6 H 0.868151 0.790203 -0.337533 0.104 Uiso 1 1 calc R U . . .
C7 C 1.0089(7) 0.7390(6) -0.1820(3) 0.0772(11) Uani 1 1 d . . . . .
H7 H 1.119017 0.696262 -0.202076 0.093 Uiso 1 1 calc R U . . .
C8 C 0.9944(6) 0.7475(5) -0.0728(3) 0.0621(9) Uani 1 1 d . . . . .
H8 H 1.096960 0.712915 -0.019097 0.075 Uiso 1 1 calc R U . . .
C9 C 0.8278(5) 0.8076(4) -0.0395(3) 0.0529(9) Uani 1 1 d . . . . .
C10 C 0.8038(5) 0.8146(4) 0.0746(3) 0.0494(8) Uani 1 1 d . . . . .
C11 C 0.9514(5) 0.7620(4) 0.1633(3) 0.0508(8) Uani 1 1 d . . . . .
H11 H 1.066136 0.723228 0.147423 0.061 Uiso 1 1 calc R U . . .
C12 C 1.0781(5) 0.7253(4) 0.3535(3) 0.0514(8) Uani 1 1 d . . . . .
C13 C 1.0332(5) 0.6443(5) 0.4458(3) 0.0618(9) Uani 1 1 d . . . . .
C14 C 1.1627(7) 0.6021(6) 0.5365(3) 0.0749(11) Uani 1 1 d . . . . .
H14 H 1.126802 0.546634 0.596981 0.090 Uiso 1 1 calc R U . . .
C15 C 1.3477(6) 0.6430(6) 0.5372(3) 0.0800(12) Uani 1 1 d . . . . .
H15 H 1.439512 0.614746 0.598697 0.096 Uiso 1 1 calc R U . . .
C16 C 1.3994(6) 0.7254(6) 0.4478(4) 0.0798(12) Uani 1 1 d . . . . .
H16 H 1.525923 0.752820 0.449173 0.096 Uiso 1 1 calc R U . . .
C17 C 1.2648(5) 0.7678(5) 0.3560(3) 0.0641(9) Uani 1 1 d . . . . .
H17 H 1.300256 0.824876 0.295985 0.077 Uiso 1 1 calc R U . . .
loop_
_atom_site_aniso_label
_atom_site_aniso_U_11
_atom_site_aniso_U_22
_atom_site_aniso_U_33
_atom_site_aniso_U_23
_atom_site_aniso_U_13
_atom_site_aniso_U_12
F1 0.0695(15) 0.138(2) 0.0882(17) 0.0349(16) 0.0256(13) -0.0061(16)
O1 0.0625(18) 0.096(2) 0.0750(18) -0.0041(14) 0.0203(14) 0.0115(16)
N1 0.0559(18) 0.0652(18) 0.0445(15) 0.0030(13) 0.0089(13) 0.0010(15)
C1 0.052(2) 0.056(2) 0.064(2) -0.0052(17) 0.0061(18) 0.0016(19)
C2 0.058(3) 0.070(3) 0.093(3) -0.003(2) 0.002(2) 0.009(2)
C3 0.074(3) 0.065(3) 0.081(3) 0.003(2) -0.016(2) 0.011(2)
C4 0.077(3) 0.0444(19) 0.053(2) 0.0017(14) -0.0061(18) -0.002(2)
C5 0.105(4) 0.063(3) 0.060(2) 0.0046(19) -0.013(2) 0.000(3)
C6 0.141(4) 0.072(3) 0.044(2) 0.0042(18) 0.011(3) -0.004(3)
C7 0.103(3) 0.076(3) 0.057(2) 0.0009(18) 0.026(2) 0.000(2)
C8 0.075(2) 0.061(2) 0.051(2) 0.0008(16) 0.0117(17) 0.002(2)
C9 0.063(2) 0.0420(19) 0.0519(19) 0.0020(13) 0.0048(17) -0.0038(16)
C10 0.050(2) 0.0452(19) 0.0517(18) -0.0008(14) 0.0062(16) -0.0036(16)
C11 0.0491(19) 0.0529(19) 0.0511(19) -0.0002(14) 0.0108(15) -0.0002(16)
C12 0.053(2) 0.055(2) 0.0473(18) -0.0035(14) 0.0109(16) 0.0050(17)
C13 0.060(2) 0.069(2) 0.058(2) 0.0026(18) 0.0160(19) 0.003(2)
C14 0.091(3) 0.076(3) 0.056(2) 0.0122(19) 0.011(2) 0.012(3)
C15 0.091(4) 0.072(3) 0.067(3) -0.001(2) -0.011(2) 0.010(3)
C16 0.058(2) 0.086(3) 0.089(3) -0.008(2) -0.004(2) -0.003(2)
C17 0.060(2) 0.078(2) 0.055(2) 0.0013(17) 0.0124(18) -0.003(2)
loop_
_atom_type_symbol
_atom_type_description
_atom_type_scat_dispersion_real
_atom_type_scat_dispersion_imag
_atom_type_scat_source
C C 0.0033 0.0016 'International Tables Vol C Tables 4.2.6.8 and 6.1.1.4'
H H 0.0000 0.0000 'International Tables Vol C Tables 4.2.6.8 and 6.1.1.4'
N N 0.0061 0.0033 'International Tables Vol C Tables 4.2.6.8 and 6.1.1.4'
O O 0.0106 0.0060 'International Tables Vol C Tables 4.2.6.8 and 6.1.1.4'
F F 0.0171 0.0103 'International Tables Vol C Tables 4.2.6.8 and 6.1.1.4'
loop_
_geom_angle_atom_site_label_1
_geom_angle_atom_site_label_2
_geom_angle_atom_site_label_3
_geom_angle
_geom_angle_site_symmetry_1
_geom_angle_site_symmetry_3
_geom_angle_publ_flag
C1 O1 H1 109.5 . . ?
C11 N1 C12 122.0(3) . . ?
O1 C1 C2 117.2(3) . . ?
O1 C1 C10 122.7(3) . . ?
C2 C1 C10 120.1(3) . . ?
C3 C2 C1 120.6(4) . . ?
C3 C2 H2 119.7 . . ?
C1 C2 H2 119.7 . . ?
C2 C3 C4 122.1(4) . . ?
C2 C3 H3 119.0 . . ?
C4 C3 H3 119.0 . . ?
C9 C4 C3 119.2(3) . . ?
C9 C4 C5 118.9(4) . . ?
C3 C4 C5 121.9(4) . . ?
C6 C5 C4 121.9(4) . . ?
C6 C5 H5 119.1 . . ?
C4 C5 H5 119.1 . . ?
C5 C6 C7 120.1(4) . . ?
C5 C6 H6 120.0 . . ?
C7 C6 H6 120.0 . . ?
C8 C7 C6 119.8(4) . . ?
C8 C7 H7 120.1 . . ?
C6 C7 H7 120.1 . . ?
C7 C8 C9 121.7(4) . . ?
C7 C8 H8 119.2 . . ?
C9 C8 H8 119.2 . . ?
C4 C9 C8 117.7(3) . . ?
C4 C9 C10 118.6(3) . . ?
C8 C9 C10 123.8(3) . . ?
C1 C10 C11 119.0(3) . . ?
C1 C10 C9 119.4(3) . . ?
C11 C10 C9 121.6(3) . . ?
N1 C11 C10 121.6(3) . . ?
N1 C11 H11 119.2 . . ?
C10 C11 H11 119.2 . . ?
C17 C12 C13 117.6(3) . . ?
C17 C12 N1 124.1(3) . . ?
C13 C12 N1 118.3(3) . . ?
C14 C13 F1 118.8(3) . . ?
C14 C13 C12 123.5(4) . . ?
F1 C13 C12 117.7(3) . . ?
C13 C14 C15 118.2(4) . . ?
C13 C14 H14 120.9 . . ?
C15 C14 H14 120.9 . . ?
C14 C15 C16 120.5(4) . . ?
C14 C15 H15 119.7 . . ?
C16 C15 H15 119.7 . . ?
C15 C16 C17 120.4(4) . . ?
C15 C16 H16 119.8 . . ?
C17 C16 H16 119.8 . . ?
C12 C17 C16 119.8(3) . . ?
C12 C17 H17 120.1 . . ?
C16 C17 H17 120.1 . . ?
loop_
_geom_bond_atom_site_label_1
_geom_bond_atom_site_label_2
_geom_bond_distance
_geom_bond_site_symmetry_2
_geom_bond_publ_flag
F1 C13 1.353(4) . ?
O1 C1 1.325(4) . ?
O1 H1 0.8200 . ?
N1 C11 1.286(4) . ?
N1 C12 1.412(4) . ?
C1 C2 1.398(5) . ?
C1 C10 1.400(4) . ?
C2 C3 1.345(5) . ?
C2 H2 0.9300 . ?
C3 C4 1.409(5) . ?
C3 H3 0.9300 . ?
C4 C9 1.407(4) . ?
C4 C5 1.410(5) . ?
C5 C6 1.343(6) . ?
C5 H5 0.9300 . ?
C6 C7 1.393(6) . ?
C6 H6 0.9300 . ?
C7 C8 1.367(5) . ?
C7 H7 0.9300 . ?
C8 C9 1.412(5) . ?
C8 H8 0.9300 . ?
C9 C10 1.445(4) . ?
C10 C11 1.428(4) . ?
C11 H11 0.9300 . ?
C12 C17 1.375(4) . ?
C12 C13 1.378(4) . ?
C13 C14 1.350(5) . ?
C14 C15 1.364(6) . ?
C14 H14 0.9300 . ?
C15 C16 1.372(6) . ?
C15 H15 0.9300 . ?
C16 C17 1.379(5) . ?
C16 H16 0.9300 . ?
C17 H17 0.9300 . ?
loop_
_geom_hbond_atom_site_label_D
_geom_hbond_atom_site_label_H
_geom_hbond_atom_site_label_A
_geom_hbond_distance_DH
_geom_hbond_distance_HA
_geom_hbond_distance_DA
_geom_hbond_angle_DHA
_geom_hbond_site_symmetry_A
_geom_hbond_publ_flag
O1 H1 N1 0.82 1.79 2.512(4) 146.5 . yes
loop_
_geom_torsion_atom_site_label_1
_geom_torsion_atom_site_label_2
_geom_torsion_atom_site_label_3
_geom_torsion_atom_site_label_4
_geom_torsion
_geom_torsion_site_symmetry_1
_geom_torsion_site_symmetry_2
_geom_torsion_site_symmetry_3
_geom_torsion_site_symmetry_4
_geom_torsion_publ_flag
O1 C1 C2 C3 -179.2(4) . . . . ?
C10 C1 C2 C3 0.7(5) . . . . ?
C1 C2 C3 C4 0.2(6) . . . . ?
C2 C3 C4 C9 -0.8(5) . . . . ?
C2 C3 C4 C5 178.6(4) . . . . ?
C9 C4 C5 C6 -0.3(5) . . . . ?
C3 C4 C5 C6 -179.7(4) . . . . ?
C4 C5 C6 C7 0.2(6) . . . . ?
C5 C6 C7 C8 -0.8(6) . . . . ?
C6 C7 C8 C9 1.5(6) . . . . ?
C3 C4 C9 C8 -179.6(3) . . . . ?
C5 C4 C9 C8 0.9(5) . . . . ?
C3 C4 C9 C10 0.5(4) . . . . ?
C5 C4 C9 C10 -179.0(3) . . . . ?
C7 C8 C9 C4 -1.6(5) . . . . ?
C7 C8 C9 C10 178.3(4) . . . . ?
O1 C1 C10 C11 -1.4(5) . . . . ?
C2 C1 C10 C11 178.8(3) . . . . ?
O1 C1 C10 C9 178.9(3) . . . . ?
C2 C1 C10 C9 -1.0(4) . . . . ?
C4 C9 C10 C1 0.4(4) . . . . ?
C8 C9 C10 C1 -179.5(3) . . . . ?
C4 C9 C10 C11 -179.4(3) . . . . ?
C8 C9 C10 C11 0.8(4) . . . . ?
C12 N1 C11 C10 -176.1(3) . . . . ?
C1 C10 C11 N1 0.9(4) . . . . ?
C9 C10 C11 N1 -179.4(3) . . . . ?
C11 N1 C12 C17 36.4(4) . . . . ?
C11 N1 C12 C13 -146.7(3) . . . . ?
C17 C12 C13 C14 -1.3(5) . . . . ?
N1 C12 C13 C14 -178.4(3) . . . . ?
C17 C12 C13 F1 179.7(3) . . . . ?
N1 C12 C13 F1 2.5(5) . . . . ?
F1 C13 C14 C15 179.5(4) . . . . ?
C12 C13 C14 C15 0.5(6) . . . . ?
C13 C14 C15 C16 0.2(6) . . . . ?
C14 C15 C16 C17 -0.1(6) . . . . ?
C13 C12 C17 C16 1.4(5) . . . . ?
N1 C12 C17 C16 178.4(3) . . . . ?
C15 C16 C17 C12 -0.8(6) . . . . ?
