#------------------------------------------------------------------------------
#$Date: 2021-11-03 22:26:33 +0200 (Wed, 03 Nov 2021) $
#$Revision: 270232 $
#$URL: file:///home/coder/svn-repositories/cod/cif/4/51/90/4519093.cif $
#------------------------------------------------------------------------------
#
# This file is available in the Crystallography Open Database (COD),
# http://www.crystallography.net/
#
# All data on this site have been placed in the public domain by the
# contributors.
#
data_4519093
loop_
_publ_author_name
'Pan, Yu-Liang'
'Shao, Ying-Bo'
'Wang, Jie'
'Liu, Zhen'
'Chen, Li'
'Li, Xin'
_publ_section_title
;
 Kinetic Resolution of 2H-Azirines by Asymmetric Allylation Reactions
;
_journal_name_full               'ACS Catalysis'
_journal_page_first              13752
_journal_page_last               13760
_journal_paper_doi               10.1021/acscatal.1c03875
_journal_year                    2021
_chemical_absolute_configuration ad
_chemical_formula_moiety         'C17 H16 Cl N'
_chemical_formula_sum            'C17 H16 Cl N'
_chemical_formula_weight         269.76
_space_group_crystal_system      monoclinic
_space_group_IT_number           4
_space_group_name_Hall           'P 2yb'
_space_group_name_H-M_alt        'P 1 21 1'
_atom_sites_solution_hydrogens   mixed
_atom_sites_solution_primary     dual
_audit_creation_date             2020-07-21
_audit_creation_method
;
Olex2 1.2
(compiled 2018.05.29 svn.r3508 for OlexSys, GUI svn.r5506)
;
_cell_angle_alpha                90
_cell_angle_beta                 105.121(8)
_cell_angle_gamma                90
_cell_formula_units_Z            2
_cell_length_a                   8.6110(6)
_cell_length_b                   9.7776(6)
_cell_length_c                   8.9599(6)
_cell_measurement_reflns_used    4348
_cell_measurement_temperature    113(2)
_cell_measurement_theta_max      32.6590
_cell_measurement_theta_min      2.4270
_cell_volume                     728.26(9)
_computing_cell_refinement       'CrysAlisPro 1.171.38.46 (Rigaku OD, 2015)'
_computing_data_collection       CrystalClear(Rigaku,2008)
_computing_data_reduction        'CrysAlisPro 1.171.38.46 (Rigaku OD, 2015)'
_computing_molecular_graphics    'Olex2 (Dolomanov et al., 2009)'
_computing_publication_material  'Olex2 (Dolomanov et al., 2009)'
_computing_structure_refinement  'ShelXL (Sheldrick, 2015)'
_computing_structure_solution    'ShelXT (Sheldrick, 2015)'
_diffrn_ambient_temperature      113.15
_diffrn_detector                 'CCD plate'
_diffrn_measured_fraction_theta_full 0.994
_diffrn_measured_fraction_theta_max 0.994
_diffrn_measurement_details
;
List of Runs (angles in degrees, time in seconds):

  # Type    Start    End  Width  t~exp~   \w     \q     \k     \f   Frames
--------------------------------------------------------------------------
  1  \w   -115.00  65.00   2.00    3.00    --  -25.00  45.00   0.00   90
  2  \w   -115.00  65.00   2.00    3.00    --  -25.00  45.00  90.00   90
  3  \w   -115.00  65.00   2.00    3.00    --  -25.00  45.00 180.00   90
;
_diffrn_measurement_device       'abstract diffractometer'
_diffrn_measurement_device_type  'Rigaku Saturn 70 CCD'
_diffrn_measurement_method       '\w scans'
_diffrn_orient_matrix_type
'CrysAlisPro convention (1999,Acta A55,543-557)'
_diffrn_orient_matrix_UB_11      0.0773950000
_diffrn_orient_matrix_UB_12      -0.0243736000
_diffrn_orient_matrix_UB_13      -0.0005203000
_diffrn_orient_matrix_UB_21      0.0357927000
_diffrn_orient_matrix_UB_22      0.0533913000
_diffrn_orient_matrix_UB_23      0.0510307000
_diffrn_orient_matrix_UB_31      0.0004514000
_diffrn_orient_matrix_UB_32      -0.0427251000
_diffrn_orient_matrix_UB_33      0.0641473000
_diffrn_radiation_monochromator  confocal
_diffrn_radiation_probe          x-ray
_diffrn_radiation_type           MoK\a
_diffrn_radiation_wavelength     0.71073
_diffrn_reflns_av_R_equivalents  0.0401
_diffrn_reflns_av_unetI/netI     0.0477
_diffrn_reflns_Laue_measured_fraction_full 0.994
_diffrn_reflns_Laue_measured_fraction_max 0.994
_diffrn_reflns_limit_h_max       10
_diffrn_reflns_limit_h_min       -10
_diffrn_reflns_limit_k_max       12
_diffrn_reflns_limit_k_min       -12
_diffrn_reflns_limit_l_max       11
_diffrn_reflns_limit_l_min       -10
_diffrn_reflns_number            7478
_diffrn_reflns_point_group_measured_fraction_full 0.990
_diffrn_reflns_point_group_measured_fraction_max 0.987
_diffrn_reflns_theta_full        25.242
_diffrn_reflns_theta_max         26.372
_diffrn_reflns_theta_min         2.450
_diffrn_source                   'rotating anode'
_diffrn_source_type              'Enhance (Mo) X-ray Source'
_exptl_absorpt_coefficient_mu    0.248
_exptl_absorpt_correction_T_max  1.00000
_exptl_absorpt_correction_T_min  0.39663
_exptl_absorpt_correction_type   multi-scan
_exptl_absorpt_process_details
'CrysAlisPro 1.171.38.46 (Rigaku Oxford Diffraction, 2015)'
_exptl_crystal_density_diffrn    1.230
_exptl_crystal_description       block
_exptl_crystal_F_000             284
_exptl_crystal_size_max          0.2
_exptl_crystal_size_mid          0.18
_exptl_crystal_size_min          0.16
_refine_diff_density_max         0.139
_refine_diff_density_min         -0.239
_refine_diff_density_rms         0.036
_refine_ls_abs_structure_details
;
 Flack x determined using 1074 quotients [(I+)-(I-)]/[(I+)+(I-)]
 (Parsons, Flack and Wagner, Acta Cryst. B69 (2013) 249-259).
;
_refine_ls_abs_structure_Flack   -0.07(3)
_refine_ls_extinction_method     none
_refine_ls_goodness_of_fit_ref   1.033
_refine_ls_hydrogen_treatment    mixed
_refine_ls_matrix_type           full
_refine_ls_number_parameters     184
_refine_ls_number_reflns         2952
_refine_ls_number_restraints     5
_refine_ls_restrained_S_all      1.033
_refine_ls_R_factor_all          0.0434
_refine_ls_R_factor_gt           0.0365
_refine_ls_shift/su_max          0.000
_refine_ls_shift/su_mean         0.000
_refine_ls_structure_factor_coef Fsqd
_refine_ls_weighting_details
'w=1/[\s^2^(Fo^2^)+(0.0369P)^2^+0.0556P] where P=(Fo^2^+2Fc^2^)/3'
_refine_ls_weighting_scheme      calc
_refine_ls_wR_factor_gt          0.0759
_refine_ls_wR_factor_ref         0.0788
_reflns_Friedel_coverage         0.871
_reflns_Friedel_fraction_full    0.985
_reflns_Friedel_fraction_max     0.979
_reflns_number_gt                2662
_reflns_number_total             2952
_reflns_threshold_expression     'I > 2\s(I)'
_cod_data_source_file            cs1c03875_si_002.cif
_cod_data_source_block           r20200710d
_cod_database_code               4519093
_shelx_shelxl_version_number     2018/3
_chemical_oxdiff_formula         'C11 H10 N O'
_shelx_space_group_comment
;
The symmetry employed for this shelxl refinement is uniquely defined
by the following loop, which should always be used as a source of
symmetry information in preference to the above space-group names.
They are only intended as comments.
;
_shelx_estimated_absorpt_t_max   0.961
_shelx_estimated_absorpt_t_min   0.952
_reflns_odcompleteness_completeness 99.44
_reflns_odcompleteness_iscentric 1
_reflns_odcompleteness_theta     26.32
_olex2_refinement_description
;
1. Fixed Uiso
 At 1.2 times of:
  All C(H) groups, All C(H,H) groups
2. Restrained distances
 C1-H1A = C1-H1B
 0.95 with sigma of 0.01
 H1B-H1A
 1.55 with sigma of 0.01
 N1-H1
 0.9 with sigma of 0.01
3.a Ternary CH refined with riding coordinates:
 C11(H11)
3.b Secondary CH2 refined with riding coordinates:
 C3(H3A,H3B)
3.c Aromatic/amide H refined with riding coordinates:
 C2(H2), C6(H6), C7(H7), C8(H8), C9(H9), C10(H10), C13(H13), C14(H14),
 C16(H16), C17(H17)
;
_shelx_res_file
;
TITL r20200710d_a.res in P2(1)
    r20200710d.res
    created by SHELXL-2018/3 at 15:17:12 on 21-Jul-2020
REM Old TITL r20200710d in P2(1)
REM SHELXT solution in P2(1): R1 0.095, Rweak 0.080, Alpha 0.004
REM <I/s> 0.914 for 6 systematic absences, Orientation as input
REM Flack x = -0.089 ( 0.041 ) from 1143 Parsons' quotients
REM Formula found by SHELXT: C16 N2 Cl
CELL 0.71073 8.611 9.7776 8.9599 90 105.121 90
ZERR 2 0.0006 0.0006 0.0006 0 0.008 0
LATT -1
SYMM -X,0.5+Y,-Z
SFAC C H Cl N
UNIT 34 32 2 2
DFIX 0.95 0.01 C1 H1a C1 H1b
DFIX 1.55 0.01 H1b H1a
DFIX 0.9 0.01 N1 H1

L.S. 4 0 0
PLAN  20
SIZE 0.2 0.18 0.16
TEMP -160
list 4
CONF
HTAB
BOND $H
fmap 2 53
acta
REM <olex2.extras>
REM <HklSrc "%.\\r20200710d.hkl">
REM </olex2.extras>

WGHT    0.036900    0.055600
FVAR       2.04204
CL1   3    0.238506    0.505572   -0.298847    11.00000    0.03656    0.03497 =
         0.02190    0.00007    0.00568    0.00367
N1    4    0.522612    0.417685    0.481944    11.00000    0.02848    0.02893 =
         0.02286    0.00156    0.00785   -0.00400
C1    1    0.774529    0.512990    0.900723    11.00000    0.07044    0.05661 =
         0.02672   -0.00114    0.00278   -0.01556
C2    1    0.798395    0.542650    0.765589    11.00000    0.03639    0.03094 =
         0.02436   -0.00186    0.00075   -0.00368
AFIX  43
H2    2    0.897976    0.516600    0.746989    11.00000   -1.20000
AFIX   0
C3    1    0.678536    0.614995    0.638793    11.00000    0.02849    0.02823 =
         0.02378   -0.00425    0.00662    0.00052
AFIX  23
H3A   2    0.723413    0.704286    0.618733    11.00000   -1.20000
H3B   2    0.579607    0.632780    0.672364    11.00000   -1.20000
AFIX   0
C4    1    0.635833    0.531450    0.489822    11.00000    0.02185    0.02248 =
         0.02110   -0.00067    0.00510   -0.00068
C5    1    0.770258    0.506988    0.416663    11.00000    0.01839    0.02351 =
         0.01847    0.00064   -0.00067   -0.00040
C6    1    0.828850    0.375847    0.406882    11.00000    0.02305    0.02524 =
         0.02690   -0.00117    0.00413    0.00185
AFIX  43
H6    2    0.779870    0.300345    0.443472    11.00000   -1.20000
AFIX   0
C7    1    0.958302    0.353832    0.344181    11.00000    0.02190    0.03909 =
         0.03216   -0.00644    0.00135    0.00590
AFIX  43
H7    2    0.997022    0.263632    0.337685    11.00000   -1.20000
AFIX   0
C8    1    1.030198    0.462343    0.291656    11.00000    0.02203    0.05657 =
         0.02632   -0.00884    0.00461   -0.00209
AFIX  43
H8    2    1.119285    0.447453    0.249599    11.00000   -1.20000
AFIX   0
C9    1    0.973085    0.592676    0.299995    11.00000    0.03460    0.04486 =
         0.02754    0.00048    0.01059   -0.01461
AFIX  43
H9    2    1.022669    0.667593    0.263011    11.00000   -1.20000
AFIX   0
C10   1    0.843587    0.615656    0.362007    11.00000    0.03444    0.02639 =
         0.02411    0.00080    0.00645   -0.00236
AFIX  43
H10   2    0.804943    0.706086    0.367091    11.00000   -1.20000
AFIX   0
C11   1    0.465204    0.543473    0.392505    11.00000    0.02112    0.02476 =
         0.02512   -0.00133    0.00771    0.00049
AFIX  13
H11   2    0.394315    0.603005    0.437266    11.00000   -1.20000
AFIX   0
C12   1    0.416378    0.532356    0.221254    11.00000    0.01680    0.02457 =
         0.02610   -0.00086    0.00629   -0.00328
C13   1    0.346651    0.644826    0.134578    11.00000    0.02695    0.02370 =
         0.02925   -0.00450    0.00360   -0.00018
AFIX  43
H13   2    0.335347    0.727836    0.185838    11.00000   -1.20000
AFIX   0
C14   1    0.293291    0.638386   -0.025028    11.00000    0.02962    0.02455 =
         0.02779    0.00249    0.00327    0.00112
AFIX  43
H14   2    0.246277    0.715989   -0.083372    11.00000   -1.20000
AFIX   0
C15   1    0.309899    0.516796   -0.097467    11.00000    0.02103    0.02882 =
         0.02112    0.00059    0.00654   -0.00314
C16   1    0.380418    0.403866   -0.014942    11.00000    0.03151    0.02605 =
         0.02905   -0.00275    0.01139    0.00276
AFIX  43
H16   2    0.391657    0.321113   -0.066698    11.00000   -1.20000
AFIX   0
C17   1    0.434711    0.412771    0.144672    11.00000    0.02582    0.02490 =
         0.02596    0.00239    0.00603    0.00238
AFIX  43
H17   2    0.485114    0.335905    0.202242    11.00000   -1.20000
AFIX   0
H1    2    0.485966    0.416145    0.567163    11.00000    0.04347
H1A   2    0.848100    0.463682    0.978573    11.00000    0.06366
H1B   2    0.679208    0.534182    0.929994    11.00000    0.06825
HKLF 4




REM  r20200710d_a.res in P2(1)
REM wR2 = 0.0788, GooF = S = 1.033, Restrained GooF = 1.033 for all data
REM R1 = 0.0365 for 2662 Fo > 4sig(Fo) and 0.0434 for all 2952 data
REM 184 parameters refined using 5 restraints

END

WGHT      0.0369      0.0556

REM Instructions for potential hydrogen bonds
EQIV $1 x, y, z+1
HTAB N1 Cl1_$1

REM Highest difference peak  0.139,  deepest hole -0.239,  1-sigma level  0.036
Q1    1   0.4550  0.5562  0.3051  11.00000  0.05    0.14
Q2    1   0.4324  0.5967  0.1794  11.00000  0.05    0.13
Q3    1   0.3378  0.5996  0.5539  11.00000  0.05    0.13
Q4    1   0.6536  0.5750  0.5574  11.00000  0.05    0.13
Q5    1   0.0418  0.4194 -0.4204  11.00000  0.05    0.12
Q6    1   0.3218  0.4552 -0.0473  11.00000  0.05    0.12
Q7    1   0.9237  0.1129  0.4387  11.00000  0.05    0.12
Q8    1   0.4422  0.6067  0.4185  11.00000  0.05    0.12
Q9    1   0.9097  0.5673  0.6742  11.00000  0.05    0.12
Q10   1   0.8154  0.4498  0.4611  11.00000  0.05    0.12
Q11   1   0.9623  0.5238  0.2538  11.00000  0.05    0.12
Q12   1   0.4557  0.4882  0.1916  11.00000  0.05    0.12
Q13   1   0.2351  0.4630 -0.3922  11.00000  0.05    0.11
Q14   1   0.2869  0.4998  0.4654  11.00000  0.05    0.11
Q15   1   0.4170  0.4925  0.4191  11.00000  0.05    0.11
Q16   1   0.3125  0.5743 -0.0541  11.00000  0.05    0.11
Q17   1   0.9958  0.7133  0.0812  11.00000  0.05    0.11
Q18   1   1.0509  0.1963  0.1557  11.00000  0.05    0.11
Q19   1   0.2165  0.8435 -0.0777  11.00000  0.05    0.11
Q20   1   0.8265  0.5894  0.8521  11.00000  0.05    0.11
;
_shelx_res_checksum              35114
_shelx_hkl_file
;
   0 -12   0  128.15   32.52
   0 -12   1  185.36   34.05
   0 -12  -1  209.72   35.91
   0 -12   2   84.42   26.74
   0 -12  -2   46.26   23.04
   0 -11   0   12.55   17.57
   0 -11   1  170.30   31.84
   0 -11  -1  217.32   34.99
   0 -11   2   97.88   26.22
   0 -11  -2  108.50   25.74
   0 -11  -3   -2.52   15.65
   0 -11   3   11.61   19.12
   0 -11  -4  209.21   33.17
   0 -11   4  129.77   29.51
   0 -10   0 1252.71   72.03
   0 -10   1   21.59   18.32
   0 -10  -1   16.38   15.38
   0 -10   2    6.26   14.68
   0 -10  -2   20.35   14.34
   0 -10  -3  137.25   25.89
   0 -10   3  154.40   30.96
   0 -10   4   14.32   17.14
   0 -10  -4   -5.18   13.77
   0 -10  -5  208.08   32.25
   0 -10   5  276.95   37.04
   0 -10   6   53.68   23.38
   0 -10  -6   27.77   17.03
   0  -9   0   23.21   15.90
   0  -9  -1  341.80   36.04
   0  -9   1  334.30   36.13
   0  -9  -2   33.36   15.61
   0  -9   2   59.96   17.86
   0  -9   3   59.73   21.05
   0  -9  -3   64.06   17.91
   0  -9   4 1049.88   63.69
   0  -9  -4 1081.61   59.25
   0  -9  -5   79.98   20.17
   0  -9   5   49.70   18.38
   0  -9   6  194.26   31.52
   0  -9  -6  166.85   26.36
   0  -9   7   55.07   19.23
   0  -8   0 3275.25   98.74
   0  -8   1  131.56   23.02
   0  -8  -1  128.75   21.81
   0  -8   2  287.41   31.25
   0  -8  -2  299.85   30.32
   0  -8  -3 1121.23   56.80
   0  -8   3 1223.24   63.56
   0  -8  -4  301.73   29.97
   0  -8   4  311.70   33.80
   0  -8   5   73.58   19.02
   0  -8  -5   90.89   19.15
   0  -8  -6   12.89   12.70
   0  -8   6   12.42   14.72
   0  -8   7  186.02   28.16
   0  -8   8  246.58   31.10
   0  -7   0   10.39   11.64
   0  -7   0    0.07    9.26
   0  -7  -1  480.52   36.55
   0  -7  -1  432.84   26.40
   0  -7   2   19.74   11.03
   0  -7  -2   36.91   15.05
   0  -7   3  453.27   36.28
   0  -7  -3  430.20   33.22
   0  -7   4 1446.93   64.01
   0  -7  -4 1429.82   58.09
   0  -7   5   31.66   14.74
   0  -7  -5   25.51   12.45
   0  -7   6  584.85   42.78
   0  -7  -6  583.38   36.42
   0  -7   7  145.51   22.56
   0  -7   8   19.28   13.70
   0  -6   0 1757.86   62.63
   0  -6   0 1798.20   49.53
   0  -6   1  176.88   21.61
   0  -6  -1  152.54   19.44
   0  -6   1  110.58   12.07
   0  -6  -1  163.19   14.31
   0  -6   2  539.70   36.36
   0  -6  -2  540.64   34.85
   0  -6  -3  492.91   32.48
   0  -6   3  561.48   37.94
   0  -6  -4   46.08   13.05
   0  -6   4   45.20   13.65
   0  -6   5  490.85   35.51
   0  -6  -5  512.09   31.91
   0  -6  -6  519.06   31.26
   0  -6   6  549.89   38.15
   0  -6   7  173.23   23.82
   0  -6   7  181.40   23.94
   0  -6   8  223.86   27.62
   0  -6   9    0.24   15.04
   0  -5   0    5.05    7.41
   0  -5   0    8.02    7.72
   0  -5  -1 2548.87   67.58
   0  -5   1 2607.06   70.61
   0  -5   1 2484.96   46.84
   0  -5  -2 1249.09   46.92
   0  -5   2 1272.40   50.69
   0  -5  -3  226.31   20.75
   0  -5   3  245.48   23.45
   0  -5  -4 1317.59   46.21
   0  -5   4 1331.86   52.72
   0  -5  -5  106.47   14.89
   0  -5   5   81.23   14.61
   0  -5   5  114.64   17.26
   0  -5  -6 2384.95   58.41
   0  -5   6 2378.63   69.09
   0  -5   6 2378.09   70.31
   0  -5   7   22.57   11.03
   0  -5   7   37.52   11.78
   0  -5   8    3.29   13.26
   0  -5   9  274.06   29.30
   0  -4   0  652.45   31.56
   0  -4   0  692.08   23.38
   0  -4  -1  724.30   32.65
   0  -4   1  693.68   23.60
   0  -4   1  747.56   34.15
   0  -4  -1  787.07   24.51
   0  -4  -2 2519.49   58.78
   0  -4  -2 2637.75   55.89
   0  -4   2 2650.38   65.05
   0  -4   3  237.30   18.27
   0  -4  -3  207.43   17.56
   0  -4   3  273.15   22.02
   0  -4   4  773.60   33.58
   0  -4  -4  733.27   30.49
   0  -4   4  759.25   36.11
   0  -4   5 1642.39   49.62
   0  -4  -5 1769.79   45.51
   0  -4   5 1758.87   53.85
   0  -4  -6 1300.97   35.32
   0  -4   6 1170.11   44.30
   0  -4   6 1264.79   45.57
   0  -4   7  404.10   26.05
   0  -4   7  463.56   29.75
   0  -4   8  518.68   33.82
   0  -4   9   14.96   10.85
   0  -4  10  841.72   47.72
   0  -3   0    0.78    4.41
   0  -3   0    6.89    5.43
   0  -3   0    5.59    4.48
   0  -3   1 5634.20   60.65
   0  -3  -1 5706.78   77.34
   0  -3  -2  378.89   19.83
   0  -3  -2  380.94   20.94
   0  -3   2  366.27   21.65
   0  -3   2  324.63   17.82
   0  -3   3  105.86   12.65
   0  -3  -3   94.41   10.26
   0  -3   3  102.37   10.79
   0  -3  -4 2220.39   44.18
   0  -3   4 2140.97   47.65
   0  -3   4 2136.64   52.11
   0  -3   5  351.20   21.81
   0  -3   5  366.78   21.56
   0  -3  -5  393.90   17.49
   0  -3   6 1515.49   41.90
   0  -3   6 1556.53   46.77
   0  -3   7   -3.38    6.53
   0  -3   8   26.83   10.05
   0  -3   9  286.56   25.77
   0  -3  10    2.14   10.84
   0  -2   1 1330.21   32.58
   0  -2  -1 1371.77   28.63
   0  -2  -1 1409.28   31.09
   0  -2  -1 1412.76   31.33
   0  -2   2 2632.52   46.84
   0  -2   2 2654.92   39.95
   0  -2  -2 2741.28   48.79
   0  -2  -2 2742.05   52.67
   0  -2  -2 2672.97   41.78
   0  -2   3  885.96   29.70
   0  -2  -3  862.48   22.56
   0  -2   3  804.41   24.26
   0  -2   3  834.65   26.62
   0  -2   4 1027.50   30.04
   0  -2   4  992.28   28.85
   0  -2   4 1080.59   38.63
   0  -2   5 1983.02   45.66
   0  -2   5 2043.80   60.31
   0  -2   5 2018.98   39.99
   0  -2   6  137.78   14.02
   0  -2   6  150.47   19.35
   0  -2   7  392.51   33.81
   0  -2   7  374.87   24.06
   0  -2   8   89.92   13.78
   0  -2   9   25.48   10.70
   0  -2  10  938.90   46.54
   0  -1   0   -0.81    1.61
   0  -1   0   -0.97    1.69
   0  -1  -1  718.45   15.20
   0  -1  -1  683.47   18.39
   0  -1  -1  688.42   17.25
   0  -1   1  689.30   17.20
   0  -1   1  727.04   14.52
   0  -1   1  685.79   15.55
   0  -1  -2 3942.39   59.02
   0  -1   3 1135.44   22.18
   0  -1   3 1136.17   25.73
   0  -1  -3 1132.37   29.84
   0  -1   3 1104.79   33.91
   0  -1   4 6337.12   70.16
   0  -1   4 6460.60   96.31
   0  -1   5  223.58   20.94
   0  -1   5  229.91   15.33
   0  -1   6  141.69   13.58
   0  -1   6  158.01   19.99
   0  -1   7   87.84   17.81
   0  -1   7   59.23   10.52
   0  -1   8   17.07    8.42
   0  -1   8   21.73   14.10
   0  -1   9  212.02   21.00
   0  -1  10   13.81   11.93
   0   0   2  698.47   23.17
   0   0   2  735.39   16.91
   0   0  -2  716.83   24.32
   0   0  -2  734.49   16.83
   0   0  -3 4097.98   50.42
   0   0   3 3960.92   67.17
   0   0   4   44.33   10.64
   0   0   4   39.69    6.58
   0   0   5 1362.02   37.10
   0   0   5 1185.63   48.20
   0   0   6  110.68   12.11
   0   0   6  108.62   17.68
   0   0   7  314.51   31.24
   0   0   7  285.63   21.11
   0   0   8   51.27   10.89
   0   0   8   61.89   17.71
   0   0   9   26.43   11.10
   0   0   9   13.46   12.16
   0   0  10  781.20   42.38
   0   1   0   -0.44    1.53
   0   1   0    0.14    1.49
   0   1  -1  730.78   15.54
   0   1   1  775.11   19.74
   0   1   1  778.97   15.78
   0   1  -1  743.53   13.99
   0   1  -1  733.18   17.39
   0   1   1  756.70   17.67
   0   1  -2 4043.35   42.25
   0   1   2 4096.89   60.10
   0   1   3 1119.03   37.73
   0   1  -3 1185.93   26.75
   0   1  -3 1148.96   22.82
   0   1   3 1099.74   28.00
   0   1   4 6540.50   76.07
   0   1   4 6895.82  106.23
   0   1  -5  204.87    9.03
   0   1   5  223.53   16.00
   0   1  -5  202.51    8.28
   0   1   5  234.21   22.82
   0   1   6  157.62   20.92
   0   1   6  143.65   14.51
   0   1   7   51.08   10.51
   0   1   7   47.27   15.56
   0   1   8   17.55   12.97
   0   1   8   23.74    9.28
   0   1   9  239.59   23.53
   0   1   9  290.79   34.34
   0   1  10   -2.10   17.42
   0   1  10   38.10   13.62
   0   2  -1 1429.68   31.39
   0   2  -1 1383.14   27.32
   0   2   1 1390.19   28.67
   0   2  -1 1395.43   33.08
   0   2   1 1389.76   31.07
   0   2   1 1398.39   30.93
   0   2  -1 1439.28   30.29
   0   2   2 2726.52   47.24
   0   2   2 2765.32   52.40
   0   2   2 2794.70   41.40
   0   2  -2 2783.67   37.79
   0   2  -2 2705.19   42.66
   0   2  -2 2828.89   48.17
   0   2   3  864.90   28.67
   0   2  -3  892.56   27.68
   0   2   3  862.77   34.93
   0   2   3  926.27   21.93
   0   2   4 1041.22   34.20
   0   2   4  972.04   41.59
   0   2  -4 1039.59   29.85
   0   2   5 2016.00   50.56
   0   2  -5 2141.27   41.85
   0   2   6  161.97   20.65
   0   2   6  175.47   16.66
   0   2  -6  160.62   11.47
   0   2   7  365.84   33.78
   0   2   7  372.12   25.40
   0   2  -7  336.46   12.67
   0   2   8   91.68   15.51
   0   2   8  160.29   25.88
   0   2   9   50.41   13.29
   0   2   9   19.68   16.73
   0   2  10 1113.87   71.28
   0   2  10 1077.49   52.54
   0   2 -10 1020.12   87.62
   0   3   0    0.58    2.51
   0   3   0    5.57    4.02
   0   3   0   -2.60    5.39
   0   3  -1 5173.63   65.60
   0   3  -1 5426.37   79.50
   0   3  -1 5631.59   72.06
   0   3   1 5351.55   75.70
   0   3  -1 5321.53   66.71
   0   3   1 5570.25   63.25
   0   3   2  366.39   19.61
   0   3   2  339.25   19.98
   0   3  -2  345.43   15.33
   0   3   2  341.98   19.93
   0   3  -2  341.08   23.97
   0   3   3   88.85   11.76
   0   3   3  106.86   10.78
   0   3   3   86.60   12.18
   0   3  -3   94.24   16.35
   0   3  -4 2160.43   70.38
   0   3   4 2160.53   63.90
   0   3   4 2087.77   53.47
   0   3   4 2215.84   41.47
   0   3   5  383.76   30.06
   0   3   5  386.32   15.45
   0   3   5  366.07   23.84
   0   3   6 1660.37   66.21
   0   3   6 1654.11   52.84
   0   3   6 1498.42   23.65
   0   3   7    7.81   11.26
   0   3  -7    8.90   18.56
   0   3   7    8.67    7.49
   0   3   8   24.90   14.88
   0   3  -8   60.51   31.19
   0   3   8   34.65   11.77
   0   3  -9  340.49   50.46
   0   3   9  264.62   26.80
   0   3   9  234.25   33.49
   0   3  10   -5.09   17.31
   0   3 -10   28.91   33.23
   0   3  10   30.10   15.15
   0   4   0  716.45   30.38
   0   4   0  747.26   19.43
   0   4  -1  756.86   30.78
   0   4   1  807.49   32.80
   0   4   1  826.49   26.36
   0   4  -1  791.71   24.35
   0   4  -2 2764.59   66.59
   0   4  -2 2685.41   58.88
   0   4   2 2688.19   62.24
   0   4  -2 2673.80   42.33
   0   4   2 2682.15   56.70
   0   4  -3  304.67   28.32
   0   4   3  265.12   21.02
   0   4   3  258.74   22.01
   0   4   4  776.34   39.98
   0   4   4  680.03   33.48
   0   4  -4  784.87   46.58
   0   4   5 1679.03   62.64
   0   4   5 1764.58   55.59
   0   4  -5 1696.00   71.56
   0   4  -6 1104.84   65.29
   0   4   6 1150.86   47.42
   0   4   6 1231.38   30.99
   0   4   6 1038.82   54.31
   0   4   7  346.53   28.10
   0   4   7  433.60   37.86
   0   4  -7  429.62   46.65
   0   4  -8  482.81   52.57
   0   4   8  597.24   47.18
   0   4   8  563.17   36.66
   0   4  -9   38.88   33.09
   0   4   9   50.05   18.98
   0   4   9   57.32   14.77
   0   4  10  876.83   64.11
   0   4  10  825.97   49.67
   0   4 -10  825.12   82.03
   0   5   0   12.56    8.28
   0   5   0    4.73    3.82
   0   5   1 2735.78   51.28
   0   5   1 2652.54   66.27
   0   5  -1 2565.62   63.14
   0   5  -1 2748.24   41.11
   0   5  -2 1212.62   44.08
   0   5   2 1224.27   46.81
   0   5  -2 1242.04   44.92
   0   5  -2 1322.16   30.60
   0   5   3  232.90   22.01
   0   5  -3  276.51   29.73
   0   5  -3  249.94   21.50
   0   5   3  260.50   22.92
   0   5   4 1453.97   56.03
   0   5   4 1358.88   51.65
   0   5  -4 1496.81   70.76
   0   5   5  132.60   17.74
   0   5   5   97.22   18.48
   0   5  -5  156.81   30.62
   0   5   6 2516.23   74.14
   0   5  -6 2599.27  102.37
   0   5   6 2297.08   81.91
   0   5   7   66.68   18.80
   0   5   7   20.30   10.13
   0   5  -7   15.30   26.27
   0   5   8   29.53   17.61
   0   5  -8   22.31   27.62
   0   5   8   13.27   12.53
   0   5  -9  303.10   56.05
   0   5   9  258.75   29.02
   0   5   9  261.48   35.61
   0   6   0 1899.44   61.65
   0   6   0 1794.51   36.53
   0   6  -1  127.53   17.75
   0   6   1  126.58   16.67
   0   6  -1  158.32   10.74
   0   6   1  145.28   13.60
   0   6  -2  511.83   32.14
   0   6  -2  498.57   19.95
   0   6   2  625.70   30.85
   0   6   2  521.47   34.40
   0   6  -2  596.75   27.95
   0   6   3  568.66   33.39
   0   6  -3  512.66   37.93
   0   6   3  479.97   33.43
   0   6  -3  478.50   31.94
   0   6  -4   86.80   29.33
   0   6  -4   55.22   14.55
   0   6   4   76.70   16.52
   0   6   4   51.58   13.59
   0   6   5  478.88   34.41
   0   6  -5  472.14   36.22
   0   6   5  545.32   39.62
   0   6  -5  518.68   51.58
   0   6   6  465.42   35.21
   0   6  -6  469.26   50.58
   0   6   6  485.64   39.17
   0   6  -7  174.19   41.90
   0   6   7  152.02   26.02
   0   6   7  158.87   22.52
   0   6   8  201.50   30.26
   0   6   8  178.67   24.53
   0   6  -8  188.71   42.92
   0   6   9    1.10   12.49
   0   6   9   -3.27   17.61
   0   7   0   -6.54   10.39
   0   7   0    2.78    5.10
   0   7  -1  426.05   16.88
   0   7  -1  425.69   32.08
   0   7   1  473.17   34.22
   0   7  -2   35.67   13.01
   0   7  -2   37.43    7.61
   0   7  -2   27.24    6.45
   0   7   2   38.50   10.68
   0   7   2   46.59   14.40
   0   7   3  508.95   33.18
   0   7   3  428.85   34.33
   0   7  -3  461.18   34.38
   0   7  -3  468.81   31.36
   0   7  -4 1624.27   74.02
   0   7  -4 1446.77   60.98
   0   7   4 1723.29   64.45
   0   7   4 1472.03   63.32
   0   7   5   39.00   16.17
   0   7   5   27.53   13.09
   0   7  -5   26.95   13.72
   0   7  -6  606.70   45.71
   0   7  -6  604.90   63.82
   0   7   6  644.31   43.13
   0   7   6  663.62   46.68
   0   7  -7  175.45   28.82
   0   7   7  223.88   30.12
   0   7  -7  175.41   41.48
   0   7   7  186.29   26.44
   0   7   8   11.30   17.42
   0   7  -8   24.98   31.62
   0   7   8    8.80   15.90
   0   8   0 2129.56   43.51
   0   8   0 3447.83   95.67
   0   8  -1   75.00    7.65
   0   8   1  159.54   15.34
   0   8  -1  124.49   20.90
   0   8   1  110.96   19.82
   0   8  -2  247.82   26.72
   0   8   2  286.21   30.07
   0   8  -2  231.11   13.93
   0   8  -3 1216.61   58.12
   0   8  -3 1046.90   37.23
   0   8   3 1229.90   61.06
   0   8   4  362.64   31.37
   0   8   4  329.70   34.00
   0   8  -4  247.93   27.13
   0   8  -4  252.40   29.14
   0   8   5   62.97   17.52
   0   8  -5  111.58   30.69
   0   8  -5   82.48   19.93
   0   8   5   87.56   20.17
   0   8   6   22.64   13.90
   0   8  -6    2.33   14.67
   0   8   6    8.94   13.46
   0   8   7  156.90   28.00
   0   8  -7  174.40   29.99
   0   8   7  109.68   22.40
   0   8   8  230.15   30.22
   0   8  -8  214.96   34.45
   0   8   8  261.37   36.54
   0   9   0    4.36   12.62
   0   9  -1  412.64   38.18
   0   9   1  321.57   32.88
   0   9   2   94.55   15.01
   0   9   2   90.85   19.58
   0   9  -2   73.19   17.36
   0   9   3   51.43   18.69
   0   9  -3   47.59   18.58
   0   9   3   70.78   15.93
   0   9   4 1240.43   66.05
   0   9   4 1312.17   58.65
   0   9  -5   33.32   19.42
   0   9   5   38.89   17.38
   0   9   5   63.73   20.06
   0   9   6  168.32   28.66
   0   9   6  153.25   26.54
   0   9  -6  183.62   31.07
   0   9   7   68.81   21.76
   0   9  -7   31.94   20.42
   0   9   7   47.01   21.90
   0  10   0 1467.70   72.58
   0  10   1   33.37   16.26
   0  10  -1   22.71   14.69
   0  10  -2   28.27   16.83
   0  10   2   63.43   21.14
   0  10  -3  197.26   30.78
   0  10   3  149.65   28.08
   0  10  -4   -2.63   15.71
   0  10   4   12.09   14.23
   0  10  -5  157.92   29.34
   0  10   5  240.64   33.63
   0  10   6   56.38   21.97
   0  10  -6   29.82   21.12
   0  11   0   -6.08   17.23
   0  11   1  182.24   30.49
   0  11  -1  242.72   33.59
   0  11  -2   99.58   25.44
   0  11   2   64.96   23.91
   0  11   3   21.56   18.56
   0  11  -3    0.64   16.42
   0  11   4  179.88   31.28
   0  11  -4  133.77   29.91
   0  12   0  102.81   27.68
   0  12   1  216.16   35.06
   0  12  -1  154.39   31.77
   0  12   2   56.78   24.69
   0  12  -2   54.98   22.60
  -1 -12   2   39.30   23.56
   1 -12  -2  -10.99   19.46
  -1 -12   1  220.24   37.05
   1 -12  -1  221.54   37.69
   1 -12   0   15.97   18.21
  -1 -12   0   14.97   19.10
   1 -12   1  167.38   36.28
  -1 -12  -1  130.40   30.18
  -1 -11   4   91.13   25.96
   1 -11  -4   26.76   20.47
   1 -11  -3   87.31   24.69
  -1 -11   3  109.84   26.55
   1 -11  -2  121.57   27.61
  -1 -11   2   93.70   25.69
   1 -11  -1   38.00   21.24
  -1 -11   1   25.91   19.51
  -1 -11   0  142.43   28.18
   1 -11   0   93.74   27.40
  -1 -11  -1   40.96   18.96
   1 -11   1   21.03   17.41
  -1 -11  -2  236.54   36.09
   1 -11   2  187.45   33.79
   1 -11   3   44.08   22.05
  -1 -11  -3   49.90   21.25
   1 -11   4   91.26   27.55
  -1 -11  -4   77.98   23.35
   1 -10  -6   35.07   19.74
  -1 -10   6   54.73   20.84
  -1 -10   5    6.97   18.04
   1 -10  -5  -10.87   16.32
  -1 -10   4  264.11   35.48
   1 -10  -4  255.96   34.45
   1 -10  -3  104.08   25.00
  -1 -10   3   70.82   23.78
  -1 -10   2   25.43   15.66
   1 -10  -2   30.22   19.34
   1 -10  -1  618.29   52.21
  -1 -10   1  639.44   51.27
   1 -10   0  475.23   46.73
  -1 -10   0  392.01   41.29
  -1 -10  -1  343.84   38.03
   1 -10   1  346.58   41.23
  -1 -10  -2  111.03   23.82
   1 -10   2  117.74   26.67
   1 -10   3  142.73   28.25
  -1 -10  -3   96.29   23.00
   1 -10   4   37.07   19.58
  -1 -10  -4   45.19   18.94
  -1 -10  -5   23.36   15.94
   1 -10   5   60.05   22.77
  -1  -9   7  448.97   43.04
   1  -9  -6    8.62   14.59
  -1  -9   6   23.83   16.63
   1  -9  -5  367.67   36.89
  -1  -9   5  355.71   38.81
  -1  -9   4  640.36   50.04
   1  -9  -4  519.21   44.26
   1  -9  -3   69.31   18.65
  -1  -9   3   55.51   18.70
   1  -9  -2   73.05   20.39
  -1  -9   2   98.89   22.05
  -1  -9   1 1108.23   62.25
   1  -9  -1 1068.43   62.67
  -1  -9   0  232.15   30.09
   1  -9   0  318.84   36.27
  -1  -9  -1  209.93   29.72
   1  -9   1  222.34   31.13
   1  -9   2  393.95   41.31
  -1  -9  -2  350.74   35.54
  -1  -9  -3  210.93   28.43
   1  -9   3  179.18   29.85
   1  -9   4  275.16   35.03
  -1  -9  -4  287.57   32.18
   1  -9   5  380.15   39.69
  -1  -9  -5  334.92   33.92
  -1  -9  -6  233.71   28.79
   1  -9   6  235.19   33.16
  -1  -8   7  143.18   25.02
  -1  -8   6  144.74   25.32
   1  -8  -6  118.41   20.76
   1  -8  -5   35.41   14.78
  -1  -8   5   68.75   18.74
   1  -8  -4  310.40   33.15
  -1  -8   4  366.31   36.42
   1  -8  -3   22.57   13.86
  -1  -8   3   33.31   15.61
  -1  -8   2  603.53   44.61
   1  -8  -2  528.28   42.01
   1  -8  -1 1717.75   74.39
  -1  -8   1 1694.71   71.93
  -1  -8   0 1730.92   71.56
   1  -8   0 1855.28   77.70
   1  -8   1  222.07   29.99
  -1  -8  -1  252.15   28.58
  -1  -8  -2  433.39   36.44
   1  -8   2  421.11   39.63
   1  -8   3   50.38   16.83
  -1  -8  -3   52.42   16.18
   1  -8   4   91.25   22.74
  -1  -8  -4   81.14   18.10
  -1  -8  -5  251.40   27.60
   1  -8   5  230.99   30.27
   1  -8   6  249.39   31.12
   1  -8   7   60.88   19.63
  -1  -7   7  244.49   28.94
   1  -7  -7  179.12   21.78
   1  -7  -6   96.60   19.35
  -1  -7   6   85.87   20.02
  -1  -7   5  547.24   41.17
   1  -7  -5  435.36   34.70
  -1  -7   4  572.98   41.01
   1  -7  -4  630.86   41.34
   1  -7  -3  229.74   26.64
  -1  -7   3  235.69   27.67
  -1  -7   2  547.28   39.56
   1  -7  -2  576.50   40.55
  -1  -7   1  968.13   50.84
   1  -7  -1 1101.10   55.71
   1  -7   0  384.88   34.27
  -1  -7   0  399.74   32.61
  -1  -7  -1  580.80   38.61
  -1  -7  -1  582.12   22.43
   1  -7   1  562.26   40.78
  -1  -7  -2  711.29   42.12
   1  -7   2  722.99   46.66
   1  -7   3 1027.95   55.37
  -1  -7  -3  986.38   49.14
   1  -7   4  246.06   29.34
  -1  -7  -4  243.44   25.24
   1  -7   5  793.30   49.11
  -1  -7  -5  828.85   44.71
   1  -7   6  323.01   32.61
   1  -7   7  152.06   23.16
   1  -6  -7   65.78   14.16
  -1  -6   6  971.56   49.00
   1  -6  -6  998.59   44.20
   1  -6  -5  130.26   18.34
  -1  -6   5   88.17   17.54
   1  -6  -4  345.06   28.24
  -1  -6   4  387.97   31.99
  -1  -6   3  209.88   23.64
   1  -6  -3  193.29   22.29
  -1  -6   2 1551.43   60.14
   1  -6  -2 1490.57   59.03
  -1  -6   1 1391.42   56.27
   1  -6  -1 1332.67   55.72
   1  -6   0  531.90   36.42
  -1  -6   0  498.82   33.62
   1  -6   1  601.58   38.98
  -1  -6  -1  685.29   22.52
  -1  -6  -1  610.60   36.78
   1  -6   2  130.79   20.41
  -1  -6  -2  149.81   19.83
   1  -6   3  295.56   28.38
  -1  -6  -3  304.12   26.22
   1  -6   4  457.82   35.31
  -1  -6  -4  421.58   30.00
   1  -6   5   74.22   16.21
  -1  -6  -5   42.61   11.70
   1  -6   5   68.97   17.19
   1  -6   6  182.16   24.86
   1  -6   6  162.70   22.90
   1  -6   7   98.07   20.13
   1  -6   7  107.04   19.59
   1  -6   8  274.76   30.75
   1  -6   9  277.36   33.08
  -1  -5  10  191.12   25.71
  -1  -5   9  119.50   19.58
  -1  -5   8  149.90   20.86
  -1  -5   7  146.57   19.53
   1  -5  -7  176.55   16.73
  -1  -5   6  431.40   30.40
  -1  -5   6  523.76   32.11
   1  -5  -6  464.03   27.71
  -1  -5   5  775.00   40.69
   1  -5  -5  864.78   39.27
  -1  -5   4  132.59   17.80
   1  -5  -4  153.84   17.97
   1  -5  -3  725.74   36.92
  -1  -5   3  643.80   36.02
   1  -5  -2 5383.08   99.50
  -1  -5   2 5261.56  100.46
   1  -5  -1  109.46   16.27
  -1  -5   1  102.75   15.75
  -1  -5   0 1472.21   51.70
   1  -5   0 1364.21   51.46
   1  -5   0 1430.05   52.77
   1  -5   1 1912.06   61.68
  -1  -5  -1 1954.64   37.96
  -1  -5  -1 1842.32   57.21
   1  -5   2  477.70   32.20
  -1  -5  -2  525.27   30.72
  -1  -5  -3 2287.02   62.31
   1  -5   3 2053.78   66.41
   1  -5   4  284.20   25.85
   1  -5   4  286.79   23.82
  -1  -5  -4  274.60   22.36
   1  -5   5  964.21   44.78
   1  -5   5  995.80   47.32
   1  -5   6  137.95   18.91
   1  -5   6  138.35   19.09
   1  -5   7   17.05   10.99
   1  -5   7   12.45   10.90
   1  -5   8  228.79   26.83
   1  -5   9    3.19   12.00
  -1  -4  10   10.84   12.02
  -1  -4   9  303.98   27.17
  -1  -4   8   44.77   12.39
   1  -4  -7   30.47    7.21
  -1  -4   7   41.13   10.30
   1  -4  -6 3548.63   64.46
  -1  -4   6 3480.58   72.53
  -1  -4   5   44.21   10.39
  -1  -4   5   43.98   10.10
   1  -4  -5   37.19    9.02
   1  -4  -4   75.04   11.94
  -1  -4   4   90.15   13.54
   1  -4  -3  226.50   18.90
  -1  -4   3  229.98   20.31
   1  -4  -2 1001.96   38.59
  -1  -4   2  977.34   39.37
  -1  -4   1   62.13   10.94
   1  -4  -1   55.64    9.47
   1  -4  -1   43.85    9.76
   1  -4   0  126.29   15.17
   1  -4   0  124.73   15.83
  -1  -4   0  150.98   15.37
  -1  -4  -1 2944.48   64.49
   1  -4   1 2933.40   70.26
  -1  -4  -1 3016.88   47.72
  -1  -4  -2  105.80   13.37
   1  -4   2  113.24   15.16
  -1  -4  -2  128.51   13.64
   1  -4   2  117.18   13.27
   1  -4   3  273.91   21.07
  -1  -4  -3  287.13   20.46
   1  -4   3  330.62   24.84
   1  -4   4  851.35   38.89
   1  -4   4  900.78   37.36
  -1  -4  -4  865.45   33.25
   1  -4   5  578.31   32.50
   1  -4   5  607.66   32.13
   1  -4   6  954.95   40.96
   1  -4   6 1058.68   44.72
   1  -4   7  546.53   34.76
   1  -4   7  514.73   29.32
   1  -4   8  210.74   23.29
   1  -4   9  272.17   28.09
  -1  -3  10  356.98   29.34
  -1  -3   9   72.23   15.19
  -1  -3   8  689.38   34.15
  -1  -3   8  703.17   45.60
   1  -3  -7   53.55    5.10
  -1  -3   7   77.39   11.91
  -1  -3   7   68.75   15.33
   1  -3  -6  762.74   24.84
  -1  -3   6  725.72   39.40
  -1  -3   6  736.72   30.42
   1  -3  -5  966.44   30.95
  -1  -3   5 1052.32   33.26
  -1  -3   5 1052.93   41.69
  -1  -3   4  231.06   17.53
  -1  -3   4  183.87   13.79
   1  -3  -4  180.71   14.40
  -1  -3   4  180.36   15.66
   1  -3  -3 3450.29   60.55
  -1  -3   3 3386.43   63.98
  -1  -3   3 3574.60   55.14
   1  -3  -2 9999.00  108.52
   1  -3  -1  238.47   16.66
  -1  -3   1  263.11   17.73
  -1  -3   1  263.20   15.51
   1  -3  -1  266.19   15.75
   1  -3   0 1276.14   40.04
  -1  -3   0 1260.06   34.85
   1  -3   0 1151.16   36.43
  -1  -3   0 1258.14   37.70
   1  -3   1 5496.02   80.90
  -1  -3  -1 5724.36   61.80
   1  -3   1 5566.46   90.21
   1  -3   2  871.64   33.52
   1  -3   2  906.03   30.84
  -1  -3  -2  980.17   32.86
  -1  -3  -2  949.97   31.52
   1  -3   3 2096.19   48.06
  -1  -3  -3 2219.90   45.88
   1  -3   4   87.90   11.60
   1  -3   4  112.07   13.66
   1  -3   5  705.37   31.49
   1  -3   5  731.46   32.56
   1  -3   6  572.97   27.43
   1  -3   6  560.82   30.60
   1  -3   7  304.70   24.37
   1  -3   7  321.05   19.40
   1  -3   8  255.98   24.23
   1  -3   9  115.85   19.56
   1  -3  10  154.01   23.29
  -1  -2  10   -0.68   14.39
  -1  -2  10   18.79   11.38
  -1  -2   9  483.49   29.47
  -1  -2   9  503.85   42.97
  -1  -2   8 1029.75   39.25
  -1  -2   8 1144.02   58.70
  -1  -2   7   28.37    7.49
  -1  -2   7    8.24   10.47
  -1  -2   6 1084.82   48.44
  -1  -2   6 1079.31   33.81
   1  -2  -5  325.40   14.14
  -1  -2   5  275.86   22.79
  -1  -2   5  278.90   15.81
  -1  -2   4  593.75   28.63
  -1  -2   4  558.39   19.93
   1  -2  -4  614.30   20.29
  -1  -2   3  809.06   21.81
  -1  -2   3  832.35   29.01
  -1  -2   3  840.01   27.31
   1  -2  -3  840.01   24.31
  -1  -2   2   93.53    9.31
  -1  -2   2   83.65    7.88
   1  -2  -2   97.78    9.32
   1  -2  -2   77.39    8.14
   1  -2  -2   64.36    9.74
  -1  -2   1 1800.58   38.04
   1  -2  -1 1806.67   35.31
  -1  -2   1 1845.89   30.94
   1  -2  -1 1784.27   36.24
   1  -2  -1 1786.30   36.39
  -1  -2   0 1276.03   31.06
   1  -2   0 1294.67   36.49
  -1  -2   0 1236.20   27.75
   1  -2   0 1228.02   30.67
   1  -2   1 2594.33   41.55
  -1  -2  -1 2542.09   38.29
   1  -2   1 2486.63   44.68
  -1  -2  -1 2503.72   42.79
   1  -2   1 2542.33   56.63
  -1  -2  -1 2609.35   45.49
   1  -2   2 6789.75   98.37
  -1  -2  -2 6570.41   80.55
   1  -2   3 1276.18   34.78
   1  -2   3 1327.13   34.17
   1  -2   4 2388.69   49.11
   1  -2   4 2456.17   50.93
   1  -2   5  197.03   16.22
   1  -2   5  212.89   14.97
   1  -2   6 1476.26   46.30
   1  -2   6 1427.22   33.39
   1  -2   7 1154.50   44.04
   1  -2   8   68.61   14.04
   1  -2   9  375.96   29.70
  -1  -2 -10  -19.58   35.48
   1  -2  10   44.53   14.33
  -1  -1  11   32.44   18.52
  -1  -1  11   49.36   14.95
  -1  -1  10  345.19   40.89
  -1  -1  10  292.60   24.58
  -1  -1   9    7.02   13.53
  -1  -1   9   31.35   10.88
  -1  -1   8  804.66   33.74
  -1  -1   8  700.35   47.78
  -1  -1   7 1031.82   34.72
  -1  -1   7  972.94   51.75
  -1  -1   6  317.21   17.99
  -1  -1   6  348.70   28.93
   1  -1  -5  921.63   17.50
  -1  -1   5  969.25   27.34
  -1  -1   5  940.90   42.55
  -1  -1   4  747.93   21.15
   1  -1  -4  759.13   17.18
  -1  -1   4  734.70   33.48
  -1  -1   3 1815.41   26.59
   1  -1  -3 1808.15   35.94
  -1  -1   3 1703.44   43.95
   1  -1  -3 1725.07   25.87
  -1  -1   2  146.94    6.19
   1  -1  -2  149.26    7.81
   1  -1  -2  142.25    8.66
   1  -1  -2  157.00   13.18
  -1  -1   2  155.98   11.43
  -1  -1   0  196.55   12.08
   1  -1   0  167.44    8.72
   1  -1   0  166.24    7.70
  -1  -1   0  178.58    8.21
   1  -1   0  161.65   12.97
   1  -1   1 6238.92   81.47
   1  -1   3 1340.84   27.60
   1  -1   3 1333.04   32.50
   1  -1   4 5077.43   55.20
   1  -1   4 4984.95   69.53
   1  -1   5 1615.24   27.78
   1  -1   5 1629.94   44.13
   1  -1   6  414.27   24.62
   1  -1   7 1616.58   51.09
   1  -1   8  217.54   20.94
   1  -1   9  153.50   20.22
   1  -1  10  235.52   25.86
  -1  -1 -10  263.51   55.60
  -1   0  11  134.94   30.83
  -1   0  11  138.88   20.01
  -1   0  10   22.63   19.01
  -1   0  10   10.60    9.07
  -1   0   9  633.72   33.24
  -1   0   9  653.74   49.86
  -1   0   8 2200.93   83.64
  -1   0   8 2194.78   56.68
  -1   0   7  229.62   17.75
  -1   0   7  222.80   26.56
  -1   0   6  131.27   12.33
  -1   0   6  100.22   18.08
   1   0  -5 1390.12   23.96
   1   0  -5 1291.45   18.30
  -1   0   5 1366.62   52.47
  -1   0   5 1394.63   33.27
   1   0  -4 2685.23   26.88
  -1   0   4 2783.69   40.48
   1   0  -4 2731.09   43.07
  -1   0   3 3091.07   62.47
   1   0  -3 3235.84   37.99
  -1   0   2    1.30    1.43
   1   0  -2    3.29    4.57
  -1   0   2   -1.66    4.26
   1   0  -2   -0.07    1.63
  -1   0   2    3.16    1.69
  -1   0   0 2627.25   44.17
   1   0   0 2908.37   46.46
  -1   0  -1    3.65    7.32
  -1   0  -1    0.71    1.46
   1   0   1   -0.71    5.62
  -1   0  -1   10.09    2.64
   1   0   1    0.79    1.75
   1   0   1    2.31    1.45
   1   0   4 1243.82   44.50
   1   0   4 1248.79   35.14
   1   0   5    2.48    7.18
   1   0   5    8.61    6.43
   1   0   6  959.11   48.99
   1   0   6  966.39   37.20
   1   0   7 1109.70   43.69
   1   0   8   44.03   13.06
   1   0   9  420.86   31.31
  -1   0  -9  500.35   65.29
   1   0  10   -0.09   10.25
  -1   0 -10  -20.59   38.74
  -1   1  11   74.74   26.50
  -1   1  11   73.27   16.96
  -1   1  10  285.90   25.20
  -1   1  10  386.11   43.05
  -1   1   9   41.47   17.93
  -1   1   9   36.60   12.49
  -1   1   8  746.52   50.39
  -1   1   8  747.42   34.34
  -1   1   7  938.46   52.59
  -1   1   7  956.15   35.61
   1   1  -6  340.96   11.62
   1   1  -6  328.34   14.58
  -1   1   6  371.33   31.31
  -1   1   6  353.79   19.75
   1   1  -5 1016.67   20.97
  -1   1   5  967.91   45.67
  -1   1   5  943.34   29.18
   1   1  -4  754.80   21.37
  -1   1   4  767.95   37.22
   1   1  -4  744.66   18.81
   1   1  -4  758.51   22.71
  -1   1   4  760.88   14.77
  -1   1   4  756.76   23.85
   1   1  -3 1644.55   31.54
  -1   1   3 1673.22   22.27
   1   1  -3 1721.10   46.29
   1   1  -3 1798.03   27.20
   1   1  -3 1730.96   29.18
  -1   1   3 1613.22   47.07
  -1   1   3 1744.48   32.48
   1   1  -2  132.65    5.68
   1   1  -2  113.01    9.88
  -1   1   2  116.73    6.33
   1   1  -2  116.13    8.08
  -1   1   2  130.18   12.23
   1   1  -2  121.17    7.65
  -1   1   2  124.72    7.96
  -1   1   0  180.79    8.92
  -1   1   0  178.74   13.47
   1   1   0  185.26    8.87
  -1   1   0  178.08    7.67
   1   1   0  167.10    7.75
   1   1   0  176.53   10.43
  -1   1  -1 5722.66   84.68
   1   1   2 7006.07   68.41
  -1   1  -2 6628.80  103.13
   1   1   3 1272.10   33.01
   1   1   3 1232.06   39.31
  -1   1  -3 1311.43   23.58
   1   1   3 1251.96   16.64
  -1   1  -3 1248.51   50.56
  -1   1  -4 5192.36   44.36
  -1   1  -4 5114.06  113.32
   1   1   4 5043.23   72.90
   1   1   4 5071.20   91.46
  -1   1  -5 1628.59   22.34
   1   1   5 1679.05   46.22
   1   1   5 1689.96   59.18
   1   1   6  467.94   35.40
   1   1   6  381.81   24.24
   1   1   7 1724.73   54.92
   1   1   7 1713.79   71.50
  -1   1  -7 1675.50   89.87
   1   1   8  234.03   22.95
  -1   1  -8  265.14   44.38
  -1   1  -9  144.34   46.66
   1   1   9  126.36   19.46
   1   1  10  244.68   27.54
  -1   1 -10  318.02   60.58
  -1   2  10   13.41   11.64
  -1   2  10   12.06   15.59
  -1   2   9  473.26   31.35
  -1   2   9  383.14   39.86
  -1   2   8 1012.97   59.09
  -1   2   8 1042.21   42.15
  -1   2   7   30.46   14.27
   1   2  -7   30.03    5.21
  -1   2   7   21.80    8.83
   1   2  -6 1156.26   34.91
  -1   2   6 1219.50   56.99
  -1   2   6 1144.10   38.47
   1   2  -6 1129.83   28.46
  -1   2   5  283.14   18.55
  -1   2   5  300.36   27.10
  -1   2   5  268.51    9.80
   1   2  -5  313.17   16.01
   1   2  -5  318.95   19.79
  -1   2   4  548.32   32.57
  -1   2   4  580.17   16.26
   1   2  -4  601.79   25.84
  -1   2   4  601.02   24.89
   1   2  -3  859.01   29.00
   1   2  -3  849.04   31.55
   1   2  -3  863.66   20.27
  -1   2   3  864.15   21.40
  -1   2   3  805.54   26.58
  -1   2   3  850.14   36.02
   1   2  -2  104.98    9.37
  -1   2   2   86.33   11.06
   1   2  -2   94.49    9.96
  -1   2   2   97.90    9.17
  -1   2   2   93.86    8.07
   1   2  -2   92.72    6.55
   1   2  -1 1714.70   30.08
  -1   2   1 1712.57   36.03
  -1   2   1 1642.64   34.03
   1   2  -1 1691.28   37.15
  -1   2   1 1746.06   34.28
  -1   2   0 1280.69   30.26
   1   2   0 1284.36   28.03
  -1   2   0 1328.54   30.68
  -1   2   0 1253.07   27.53
  -1   2   0 1277.91   31.99
   1   2   0 1210.70   30.26
  -1   2  -1 2540.80   37.83
   1   2   1 2629.14   36.62
  -1   2  -1 2608.08   44.75
   1   2   1 2516.06   43.43
  -1   2  -1 2559.99   61.39
   1   2   1 2526.88   42.53
  -1   2  -2 6540.43  109.91
   1   2   3 1412.41   30.71
  -1   2  -3 1427.33   33.37
   1   2   3 1362.09   38.03
   1   2   3 1400.37   26.66
  -1   2  -3 1281.63   54.09
   1   2   3 1393.84   42.58
  -1   2  -4 2676.54   45.57
   1   2   4 2383.49   54.28
   1   2   4 2620.01   38.73
  -1   2  -4 2358.48   79.71
   1   2   4 2536.79   31.00
   1   2   4 2478.61   64.83
   1   2   5  240.29   24.72
  -1   2  -5  174.87   28.46
   1   2   5  206.09   17.74
  -1   2  -5  225.41   13.18
  -1   2  -6 1466.25   29.00
   1   2   6 1512.82   63.00
  -1   2  -6 1468.33   78.05
   1   2   6 1469.00   49.00
   1   2   7 1275.41   48.76
   1   2   7 1265.14   62.07
  -1   2  -7 1303.46   79.56
   1   2   8   86.57   21.01
   1   2   8  102.69   16.69
  -1   2  -8  105.75   33.59
  -1   2  -9  403.65   58.28
   1   2   9  435.69   33.69
  -1   2 -10   11.21   41.10
   1   2  10    1.83   11.58
  -1   3  10  371.92   42.27
  -1   3  10  440.75   33.48
  -1   3   9   88.55   15.69
  -1   3   9   90.70   21.40
  -1   3   8  736.53   38.28
  -1   3   8  667.36   49.49
   1   3  -7   71.11   10.05
  -1   3   7   90.83   13.98
  -1   3   7   80.67   20.14
  -1   3   6  772.63   35.03
  -1   3   6  800.45   19.73
  -1   3   6  677.42   44.79
   1   3  -6  719.19   28.91
  -1   3   5  975.41   49.50
  -1   3   5  995.48   25.51
  -1   3   5  893.28   35.69
  -1   3   4  183.34   12.05
  -1   3   4  167.84   20.08
  -1   3   4  166.59   15.32
  -1   3   3 3468.84   75.47
  -1   3   3 3787.96   56.55
   1   3  -3 3956.80   65.66
  -1   3   3 3527.32   65.14
  -1   3   1  236.20   14.93
  -1   3   1  235.43   16.04
   1   3  -1  250.34   14.73
   1   3   0 1140.88   32.49
  -1   3   0 1171.56   31.59
  -1   3   0 1151.56   34.10
   1   3   1 5433.47   54.13
  -1   3  -1 5574.00   94.29
   1   3   1 5718.87   78.67
   1   3   1 5306.61   74.48
   1   3   2  897.73   29.37
  -1   3  -2  879.01   46.36
   1   3   2  862.38   31.78
   1   3   2  942.37   31.84
   1   3   3 2160.02   54.75
   1   3   3 2063.78   46.50
   1   3   3 2026.04   51.09
   1   3   4  108.40   15.40
  -1   3  -4  130.06   25.50
   1   3   4  121.27   14.43
   1   3   4  120.35   11.64
   1   3   5  767.41   35.52
   1   3   5  777.45   24.20
  -1   3  -5  769.28   55.41
   1   3   5  750.44   20.24
   1   3   5  785.99   42.35
   1   3   6  389.54   11.78
   1   3   6  503.25   30.81
  -1   3  -6  555.66   50.30
   1   3   6  472.56   36.67
   1   3   6  421.13   10.37
   1   3   7  360.43   34.48
  -1   3  -7  410.97   50.81
   1   3   7  367.92   28.48
   1   3   8  332.49   36.39
   1   3   8  278.34   26.95
   1   3   9  139.30   21.12
  -1   3  -9  131.66   43.23
   1   3  10  112.64   21.07
  -1   3 -10  192.86   51.98
  -1   4  10   41.13   22.89
   1   4 -10   34.72   34.88
  -1   4  10   38.09   15.24
   1   4  -9  268.50   43.69
  -1   4   9  272.01   35.26
  -1   4   9  336.51   29.35
  -1   4   8   64.13   14.53
  -1   4   8   60.73   18.90
   1   4  -8   40.80    9.70
  -1   4   7   33.18   10.84
   1   4  -7   60.59   11.72
  -1   4   7   29.32   16.42
  -1   4   6 3438.31   99.38
  -1   4   6 3338.21   77.88
  -1   4   5   28.74   14.88
  -1   4   5   43.54   10.52
  -1   4   4  125.05   15.53
  -1   4   4   85.36   14.76
  -1   4   3  193.48   19.65
   1   4  -3  210.02   17.24
  -1   4   3  227.00   19.16
   1   4  -3  217.72   15.95
   1   4  -2 1009.85   34.19
   1   4  -2 1150.31   32.11
  -1   4   2 1036.23   38.36
  -1   4   2 1038.47   38.01
   1   4  -2 1215.87   26.44
  -1   4   1   42.21    7.51
   1   4  -1   55.19    9.33
  -1   4   1   35.35    8.20
   1   4   0  150.26   14.35
  -1   4   0  148.44   12.25
  -1   4   0  136.72   14.65
  -1   4  -1 2896.12   66.52
   1   4   1 2959.48   63.78
   1   4   1 2917.49   41.14
  -1   4  -1 2915.51   63.16
   1   4   2  111.16   11.48
  -1   4  -2   95.10   23.19
   1   4   2  111.41   14.05
   1   4   3  280.73   21.16
  -1   4  -3  279.10   34.40
   1   4   3  278.78   21.36
  -1   4  -4  928.31   59.19
   1   4   4  867.78   41.13
   1   4   4  814.14   37.52
   1   4   5  595.87   33.86
   1   4   5  676.33   41.43
  -1   4  -5  563.39   51.13
   1   4   6 1009.06   45.18
   1   4   6 1147.31   57.68
  -1   4  -6 1087.94   72.35
   1   4   6 1048.48   27.15
  -1   4  -7  516.29   56.35
   1   4   7  532.60   43.55
   1   4   7  580.59   36.86
   1   4   8  254.11   32.85
  -1   4  -8  201.56   43.18
   1   4   8  195.55   23.51
   1   4   9  360.68   33.78
   1   4   9  351.67   40.60
  -1   4  -9  309.82   53.40
   1   5 -10  186.10   45.95
  -1   5  10  264.57   37.85
  -1   5  10  197.58   25.99
  -1   5   9   81.36   23.29
  -1   5   9  129.13   21.13
   1   5  -9  141.28   39.45
   1   5  -8  180.41   19.77
  -1   5   8  155.70   28.01
  -1   5   8  166.40   21.86
   1   5  -8  159.33   32.26
  -1   5   7  147.56   20.20
   1   5  -7  124.54   30.00
  -1   5   7  170.46   26.50
  -1   5   6  457.41   38.97
   1   5  -6  472.06   43.23
  -1   5   6  483.08   32.87
   1   5  -5  818.33   40.26
  -1   5   5  836.75   41.55
  -1   5   5  894.04   50.10
   1   5  -5  856.83   48.71
   1   5  -4  133.75   22.46
  -1   5   4  141.17   20.51
  -1   5   4  180.27   19.89
   1   5  -4  186.47   18.74
   1   5  -3  805.67   38.73
  -1   5   3  674.75   35.92
  -1   5   3  653.84   36.47
   1   5  -3  680.27   32.58
   1   5  -3  856.71   29.80
  -1   5   2 5253.32   95.25
   1   5  -2 5106.73   61.32
   1   5  -2 5153.49   86.77
  -1   5   2 5191.02   88.61
  -1   5   1  106.77   15.06
   1   5  -1   91.42   12.96
  -1   5   1  124.89   12.89
   1   5   0 1384.85   46.64
  -1   5   0 1325.40   47.17
  -1   5   0 1460.58   38.47
   1   5   1 1845.89   33.80
  -1   5  -1 1880.92   50.04
  -1   5  -1 1833.85   55.79
   1   5   1 1862.70   55.95
  -1   5  -2  529.15   31.16
  -1   5  -2  554.73   38.77
   1   5   2  546.69   24.45
   1   5   2  471.45   29.89
  -1   5  -3 2208.15   87.08
   1   5   3 2140.34   63.68
   1   5   3 2150.08   58.13
   1   5   4  257.72   24.05
   1   5   4  270.37   24.78
  -1   5  -4  310.31   44.59
  -1   5  -5 1016.41   71.16
   1   5   5 1067.17   52.41
   1   5   5 1009.57   46.54
   1   5   6  154.61   23.86
   1   5   6  135.70   19.21
   1   5   6  132.77   13.34
  -1   5  -6   97.87   31.00
   1   5   7   15.81   11.49
  -1   5  -7   33.31   28.99
   1   5   7   -2.02   12.72
   1   5   8  287.19   29.36
  -1   5  -8  205.93   46.54
   1   5   8  265.45   34.74
   1   5   9   22.24   14.74
   1   5   9   -1.39   17.02
  -1   5  -9   39.46   37.74
  -1   6   9  274.31   37.55
  -1   6   9  280.88   30.46
   1   6  -9  252.40   48.68
  -1   6   8  140.46   21.76
   1   6  -8  105.74   31.60
   1   6  -8  156.72   21.16
  -1   6   8  107.38   26.58
   1   6  -7   73.41   27.73
   1   6  -7   40.23   14.25
  -1   6   7   36.08   13.81
  -1   6   7   56.01   17.49
  -1   6   6  856.72   53.13
   1   6  -6  905.64   48.12
  -1   6   6  940.75   48.49
   1   6  -6  969.07   61.21
   1   6  -5   73.75   25.44
   1   6  -5  112.60   18.42
  -1   6   5  102.82   20.09
  -1   6   5  117.24   18.69
  -1   6   4  393.50   31.10
  -1   6   4  355.42   29.79
   1   6  -4  472.17   38.71
   1   6  -4  381.44   29.61
  -1   6   3  155.79   19.46
   1   6  -3  204.09   21.29
   1   6  -3  196.70   15.01
   1   6  -3  204.60   21.28
  -1   6   3  191.85   21.95
  -1   6   2 1579.94   51.27
   1   6  -2 1564.29   53.41
  -1   6   2 1499.26   56.22
  -1   6   1 1361.04   42.46
  -1   6   1 1350.86   54.03
   1   6  -1 1256.32   48.33
  -1   6   0  514.90   32.86
  -1   6   0  566.84   25.79
   1   6   0  473.49   30.80
   1   6   1  622.28   19.95
  -1   6  -1  689.82   29.75
   1   6   1  636.40   36.49
  -1   6  -1  606.91   35.79
   1   6   2  185.35   21.31
  -1   6  -2  160.33   21.69
   1   6   2  178.10   15.10
  -1   6  -2  172.17   21.42
   1   6   3  318.64   23.82
  -1   6  -3  307.07   36.32
  -1   6  -3  251.77   25.26
   1   6   3  298.54   26.75
   1   6   4  444.16   31.68
  -1   6  -4  415.54   51.25
   1   6   4  351.74   29.33
  -1   6  -5  114.55   36.00
   1   6   5   68.44   15.47
   1   6   5   69.61   17.41
   1   6   6  244.74   26.83
   1   6   6  242.07   28.66
  -1   6  -6  246.62   47.08
  -1   6  -7  100.11   41.68
   1   6   7  132.10   25.77
   1   6   7  104.94   19.59
   1   6   8  273.97   30.42
  -1   6  -8  303.31   56.84
   1   6   8  398.99   42.02
   1   6   9  316.92   40.78
   1   6   9  324.73   34.61
  -1   6  -9  293.63   57.68
   1   7  -9   74.17   23.47
  -1   7   9   56.70   23.61
  -1   7   9   96.14   22.42
  -1   7   8   25.61   14.64
   1   7  -8   28.35   32.59
  -1   7   8    8.64   15.83
   1   7  -8   20.43   16.23
   1   7  -7  168.21   27.44
  -1   7   7  209.18   29.27
  -1   7   7  229.84   28.32
   1   7  -7  236.87   41.27
   1   7  -6   73.03   19.00
  -1   7   6   81.64   20.84
   1   7  -6  105.24   29.18
  -1   7   6   74.51   17.54
   1   7  -5  560.39   39.83
  -1   7   5  514.31   40.80
   1   7  -5  587.64   49.82
  -1   7   5  573.77   40.51
  -1   7   4  592.91   39.57
   1   7  -4  651.86   41.76
   1   7  -4  584.09   38.09
  -1   7   4  568.08   39.81
   1   7  -3  205.13   22.86
  -1   7   3  258.96   27.11
  -1   7   3  209.35   23.40
   1   7  -3  198.66   13.95
   1   7  -3  194.37   14.36
  -1   7   2  563.97   33.10
   1   7  -2  579.08   36.37
  -1   7   2  581.92   39.18
  -1   7   1 1016.73   50.38
   1   7  -1  996.64   46.96
  -1   7   1  986.47   38.22
  -1   7   0  457.86   24.47
  -1   7   0  412.56   33.13
   1   7   0  373.36   30.67
   1   7   1  599.21   38.12
  -1   7  -1  580.05   27.20
   1   7   1  541.30   17.91
  -1   7  -1  597.52   38.63
   1   7   2  765.21   43.55
  -1   7  -2  686.55   41.60
  -1   7  -2  783.21   37.28
   1   7   2  766.19   29.21
   1   7   3 1056.69   53.19
  -1   7  -3 1008.58   51.38
   1   7   3 1120.86   43.66
   1   7   4  241.32   26.91
  -1   7  -4  251.35   39.48
   1   7   4  264.51   25.92
  -1   7  -4  246.65   27.86
  -1   7  -5 1043.13   81.27
   1   7   5  994.11   52.89
   1   7   5  850.53   49.13
  -1   7  -5  772.35   49.55
   1   7   6  369.14   36.10
  -1   7  -6  339.56   56.49
   1   7   6  259.06   29.38
  -1   7  -7  132.14   45.72
   1   7   7  117.76   25.00
   1   7   7  166.21   24.37
  -1   7  -8  126.74   53.50
   1   7   8  146.96   28.47
   1   7   8   57.24   17.76
  -1   8   8  287.66   33.38
  -1   8   8  348.45   39.96
   1   8  -8  368.77   40.49
   1   8  -7  189.21   29.84
  -1   8   7  150.05   24.85
  -1   8   7  133.99   26.11
  -1   8   6  117.34   24.23
   1   8  -6   83.76   21.85
  -1   8   6  124.44   24.48
  -1   8   5   41.15   15.61
  -1   8   5   48.07   18.94
   1   8  -5   36.82   16.91
   1   8  -4  320.90   31.77
  -1   8   4  349.51   34.13
  -1   8   3   30.25   14.31
  -1   8   3   27.19   12.40
   1   8  -3   25.57   13.23
   1   8  -2  606.80   40.75
  -1   8   2  603.94   35.15
  -1   8   2  519.25   39.89
  -1   8   1 1678.55   51.43
   1   8  -1 1591.17   64.12
  -1   8   1 1680.48   68.82
   1   8   0 1700.30   67.13
  -1   8   0 1782.11   49.58
  -1   8   0 1733.81   70.04
  -1   8  -1  223.43   26.76
  -1   8  -1  216.96   18.13
   1   8   1  241.85   27.60
  -1   8  -2  421.96   26.31
   1   8   2  444.93   22.14
  -1   8  -3   33.91   14.14
   1   8   3   45.62   16.30
   1   8   3   38.39   10.93
  -1   8  -3   32.46   15.68
  -1   8  -4   73.48   25.66
   1   8   4  106.26   20.93
   1   8   4  125.34   18.93
  -1   8  -4  111.42   22.55
  -1   8  -5  174.70   36.19
  -1   8  -5  195.56   28.19
   1   8   5  249.62   30.26
   1   8   6  283.14   32.88
  -1   8  -6  381.48   60.89
  -1   8  -6  284.04   34.67
   1   8   6  261.10   31.31
   1   8   7   50.60   19.08
  -1   8  -7   88.82   23.69
   1   8   7   78.04   23.37
  -1   8  -7   58.59   39.90
   1   9  -7  317.94   40.41
  -1   9   7  318.67   40.04
  -1   9   7  319.72   36.28
   1   9  -6   12.20   15.90
  -1   9   6   -2.70   14.32
  -1   9   6    2.49   13.64
   1   9  -5  349.98   37.39
  -1   9   5  367.35   36.07
  -1   9   5  294.04   33.80
   1   9  -4  540.84   43.40
  -1   9   4  698.98   46.49
  -1   9   4  608.77   47.59
  -1   9   3   59.81   16.89
   1   9  -3   38.74   17.03
  -1   9   2   99.44   23.77
   1   9  -2  104.81   20.28
  -1   9   2   69.34   15.55
   1   9  -1 1030.74   55.88
  -1   9   1 1046.63   58.42
  -1   9   1  968.06   41.73
  -1   9   0  216.23   19.24
  -1   9   0  248.25   30.45
   1   9   0  263.60   29.93
   1   9   1  192.03   27.45
  -1   9  -1  247.94   30.11
   1   9   2  415.34   38.20
  -1   9  -2  357.18   35.54
  -1   9  -3  199.06   27.18
   1   9   3  281.41   33.08
   1   9   4  255.35   31.73
  -1   9  -4  247.14   32.19
  -1   9  -5  341.53   39.12
   1   9   5  362.27   37.64
   1   9   6  222.84   31.20
  -1   9  -6  235.20   35.87
   1   9   6  310.75   34.83
   1  10  -6   58.73   24.30
  -1  10   6   63.17   21.19
   1  10  -5    6.02   18.34
  -1  10   5   -5.21   14.16
  -1  10   4  282.38   35.62
   1  10  -4  230.30   32.03
  -1  10   3  121.76   25.22
   1  10  -3   53.06   19.88
  -1  10   2   43.72   17.18
   1  10  -2   35.17   17.82
  -1  10   1  558.09   46.76
   1  10  -1  635.72   47.35
   1  10   0  458.53   41.09
  -1  10   0  455.63   42.35
   1  10   1  307.84   34.52
  -1  10  -1  308.33   35.55
   1  10   2  168.75   28.80
  -1  10  -2  132.94   25.44
   1  10   3   65.16   19.94
  -1  10  -3  101.25   24.86
  -1  10  -4   44.69   19.95
   1  10   4   39.86   19.71
  -1  10  -5   58.51   22.94
   1  10   5   71.62   22.68
  -1  11   4   72.50   23.39
   1  11  -4   61.14   23.21
  -1  11   3   80.62   23.43
   1  11  -3  118.09   25.08
   1  11  -2  156.56   26.61
  -1  11   2  112.98   26.43
  -1  11   1   50.40   21.54
   1  11  -1   68.06   21.26
  -1  11   0  113.78   25.87
   1  11   0  132.84   25.33
   1  11   1   40.47   19.62
  -1  11  -1   35.85   19.06
   1  11   2  195.65   30.76
  -1  11  -2  204.04   33.44
   1  11   3   42.92   21.51
  -1  11  -3   33.68   19.42
   1  11   4   86.85   24.21
  -1  11  -4   62.28   23.33
   1  12  -2   38.67   21.71
  -1  12   2  -22.80   21.87
   1  12  -1  161.66   30.37
  -1  12   1  225.61   36.63
  -1  12   0   -0.98   18.09
   1  12   0   43.04   21.14
  -1  12  -1  183.14   33.03
   1  12   1  125.92   28.79
   2 -11  -4   92.67   28.04
  -2 -11   4  166.82   31.67
  -2 -11   3   44.92   21.99
   2 -11  -3   66.59   24.96
  -2 -11   2   93.53   25.59
   2 -11  -2  119.04   29.04
  -2 -11   1  350.51   42.10
   2 -11  -1  282.07   39.97
  -2 -11   0    4.51   15.52
   2 -11   0    2.94   16.25
   2 -11   1   65.47   22.69
  -2 -11  -1   85.64   23.77
   2 -11   2   59.33   22.85
  -2 -11  -2   65.18   23.38
   2 -11   3   -6.83   17.81
  -2 -11  -3   23.79   18.81
  -2 -10   6   44.66   21.25
   2 -10  -6   32.88   20.12
   2 -10  -5  306.77   39.29
  -2 -10   5  332.71   39.99
  -2 -10   4   28.52   17.89
   2 -10  -4   45.75   21.01
   2 -10  -3  227.13   33.81
  -2 -10   3  202.83   32.23
   2 -10  -2  373.45   43.51
  -2 -10   2  370.43   40.18
   2 -10  -1  206.46   34.08
  -2 -10   1  167.46   28.22
  -2 -10   0  446.13   42.93
   2 -10   0  420.88   45.24
   2 -10   1  235.09   35.36
  -2 -10  -1  226.88   31.79
   2 -10   2   -6.26   15.89
  -2 -10  -2   14.83   16.81
   2 -10   3  590.19   53.26
  -2 -10  -3  555.66   47.35
  -2 -10  -4   91.24   22.94
   2 -10   4   98.32   27.01
   2 -10   5   30.48   18.86
   2  -9  -7  139.01   26.55
  -2  -9   6  383.58   41.04
   2  -9  -6  352.77   37.43
  -2  -9   5  218.26   32.00
   2  -9  -5  167.19   28.11
   2  -9  -4  518.31   46.21
  -2  -9   4  503.29   44.70
  -2  -9   3  116.14   24.11
   2  -9  -3  115.04   25.26
   2  -9  -2  175.08   29.22
  -2  -9   2  175.54   27.25
   2  -9  -1  860.04   58.78
  -2  -9   1  969.72   58.78
  -2  -9   0  172.15   26.79
   2  -9   0  168.37   28.57
  -2  -9  -1  235.49   30.15
   2  -9   1  232.22   32.69
  -2  -9  -2  193.19   27.21
   2  -9   2  140.34   27.35
  -2  -9  -3  104.49   21.77
   2  -9   3  113.67   25.65
   2  -9   4  534.57   48.36
  -2  -9  -4  491.09   41.36
   2  -9   5   15.69   17.92
   2  -9   6  255.52   35.00
   2  -8  -7  165.77   24.98
  -2  -8   6   95.22   24.22
   2  -8  -6   51.46   17.86
   2  -8  -5  577.31   44.98
  -2  -8   5  680.73   48.43
  -2  -8   4   63.16   18.87
   2  -8  -4   62.83   18.51
  -2  -8   3  378.19   35.88
   2  -8  -3  334.45   35.61
   2  -8  -2  400.10   38.92
  -2  -8   2  376.57   35.98
  -2  -8   1   81.38   19.01
   2  -8  -1   90.29   21.21
  -2  -8   0 2038.62   78.56
   2  -8   0 2242.69   87.78
   2  -8   1  528.36   44.35
  -2  -8  -1  553.73   41.09
   2  -8   2  465.39   41.81
  -2  -8  -2  535.54   41.06
  -2  -8  -2  539.58   32.93
   2  -8   3  411.42   40.69
  -2  -8  -3  446.88   34.90
  -2  -8  -3  492.98   38.21
  -2  -8  -4  142.87   23.31
  -2  -8  -4  177.57   27.02
   2  -8   4  126.45   25.47
   2  -8   5   79.47   22.14
  -2  -8  -5   65.91   23.99
   2  -8   6   12.44   14.22
  -2  -8  -6  -33.03   25.38
  -2  -8  -7  303.32   47.19
   2  -8   7  381.40   39.95
   2  -7  -7   61.40   16.38
   2  -7  -6  260.77   28.90
   2  -7  -5  237.61   28.04
  -2  -7   5  280.50   31.42
  -2  -7   4  639.51   43.63
   2  -7  -4  658.50   44.14
   2  -7  -3  450.09   37.11
  -2  -7   3  397.76   34.38
   2  -7  -2   13.47   10.66
  -2  -7   2   13.26   13.56
   2  -7  -1  875.46   51.98
  -2  -7   1  862.11   48.96
  -2  -7   0  373.70   33.42
   2  -7   0  354.43   34.01
   2  -7   1  230.43   28.43
  -2  -7  -1  260.15   27.30
  -2  -7  -1  180.81   16.57
   2  -7   2  422.91   36.89
  -2  -7  -2  394.08   29.27
  -2  -7  -2  400.49   32.72
   2  -7   3  158.14   25.62
  -2  -7  -3  184.06   24.92
  -2  -7  -3  162.27   22.91
   2  -7   4 1586.05   72.18
   2  -7   5  116.91   23.12
   2  -7   6  115.06   20.91
   2  -7   6  122.81   22.56
  -2  -7  -7  184.13   40.55
   2  -7   7  175.15   29.31
   2  -7   7  240.27   28.90
   2  -7   8   63.25   22.09
  -2  -7  -8  131.86   39.16
   2  -6  -7  869.84   43.82
   2  -6  -6   46.14   14.53
   2  -6  -5  858.16   45.19
  -2  -6   5  869.66   46.57
  -2  -6   4   55.28   15.37
   2  -6  -4   37.38   12.93
  -2  -6   3  122.44   19.31
   2  -6  -3  124.64   20.72
  -2  -6   2  250.72   25.72
   2  -6  -2  247.54   26.17
  -2  -6   1  121.54   18.88
   2  -6  -1  149.97   20.41
  -2  -6   0 3812.45   92.70
   2  -6   0 3637.93   95.37
   2  -6   1   47.17   13.23
  -2  -6  -1   52.58   12.77
  -2  -6  -1   44.49    7.32
  -2  -6  -1   45.60   11.81
  -2  -6  -2   38.20   12.37
  -2  -6  -2   52.96   15.17
   2  -6   2   68.57   16.72
  -2  -6  -3  177.49   21.23
   2  -6   3  129.08   22.09
   2  -6   4  215.52   26.47
   2  -6   4  221.76   26.72
   2  -6   5 1676.61   66.79
   2  -6   5 1695.10   68.61
   2  -6   6  201.82   25.94
   2  -6   6  204.62   26.06
   2  -6   7  405.40   34.17
   2  -6   7  467.59   39.17
  -2  -6  -7  419.90   50.58
  -2  -6  -8  375.98   53.21
   2  -6   8  410.48   38.75
   2  -5  -7  707.25   36.01
  -2  -5   7  709.17   40.64
   2  -5  -6  999.63   44.28
  -2  -5   6 1160.31   45.88
   2  -5  -5   20.33   10.00
  -2  -5   5   21.26    8.10
   2  -5  -4  723.65   38.09
  -2  -5   4  717.67   39.07
   2  -5  -3  898.68   42.38
  -2  -5   3  921.69   43.77
  -2  -5   2  725.11   38.44
   2  -5  -2  661.00   36.52
  -2  -5   1  914.84   42.89
   2  -5  -1  913.60   42.92
  -2  -5   0  454.91   30.20
   2  -5   0  467.30   31.49
   2  -5   1 1763.99   60.84
  -2  -5  -1 1807.80   48.90
  -2  -5  -1 1871.57   59.94
  -2  -5  -1 1973.05   41.28
   2  -5   2  509.92   33.55
  -2  -5  -2  534.68   33.23
  -2  -5  -2  619.79   34.25
   2  -5   3  202.95   22.77
   2  -5   3  211.37   21.45
   2  -5   4 1107.97   50.67
   2  -5   4 1289.81   52.17
   2  -5   5  265.15   26.73
   2  -5   5  266.29   26.21
   2  -5   6  306.61   27.99
   2  -5   6  336.54   30.53
   2  -5   7   86.06   15.95
   2  -5   7   87.25   19.06
  -2  -5  -8   59.90   33.68
   2  -5   8   45.40   15.90
   2  -5   9  506.61   42.58
  -2  -5  -9  538.32   69.76
  -2  -4   9   35.14   13.36
  -2  -4   9   71.48   19.69
  -2  -4   8  166.63   23.85
  -2  -4   8  144.13   17.53
  -2  -4   7  918.32   47.29
  -2  -4   7  909.69   37.95
   2  -4  -7  904.86   35.43
   2  -4  -6  202.34   18.87
  -2  -4   6  171.77   19.51
   2  -4  -5  873.77   37.49
  -2  -4   5  923.62   38.06
  -2  -4   4  458.09   23.27
   2  -4  -4  428.08   26.86
   2  -4  -3 1043.20   40.94
  -2  -4   3 1104.79   42.54
  -2  -4   3 1166.04   29.67
  -2  -4   2  557.54   15.19
   2  -4  -2  551.93   30.06
   2  -4  -1 2196.29   59.58
  -2  -4   1 2269.65   59.81
  -2  -4   0 3854.51   77.81
  -2  -4   0 3799.19   56.71
   2  -4   0 3836.39   78.87
  -2  -4  -1  418.44   25.85
   2  -4   1  397.17   26.99
  -2  -4  -1  453.64   27.47
  -2  -4  -1  422.72   19.28
   2  -4   2 1729.51   51.95
  -2  -4  -2 1659.60   56.23
   2  -4   2 1580.89   52.17
   2  -4   3  941.67   41.74
   2  -4   3 1038.41   41.24
   2  -4   4  108.38   15.84
   2  -4   4   98.96   15.04
   2  -4   5 4332.81   91.35
   2  -4   5 4529.35   91.53
   2  -4   6  107.03   15.98
   2  -4   6  123.54   17.60
  -2  -4  -7   50.81   28.32
   2  -4   7   23.82   10.81
   2  -4   7   49.56   12.50
   2  -4   8  535.54   38.20
  -2  -4  -8  762.07   73.48
   2  -4   9   75.41   19.42
  -2  -4  -9   -9.65   31.14
  -2  -3  10   82.90   22.32
  -2  -3   9  218.37   20.43
  -2  -3   9  265.19   31.91
  -2  -3   8   13.61    8.07
  -2  -3   8   22.65   14.76
   2  -3  -7  520.24   23.59
  -2  -3   7  556.50   26.92
  -2  -3   7  535.57   37.84
  -2  -3   6 3040.31   80.07
  -2  -3   6 3039.98   56.95
   2  -3  -6 3106.88   59.30
   2  -3  -5  278.06   18.60
  -2  -3   5  251.36   21.99
  -2  -3   5  255.69   16.04
  -2  -3   4 1363.11   43.14
   2  -3  -4 1244.96   38.69
   2  -3  -3 1074.49   36.21
  -2  -3   3 1108.85   33.90
  -2  -3   2 2108.28   39.58
  -2  -3   2 2166.48   37.55
  -2  -3   1 6319.77   72.65
  -2  -3   1 6098.02   47.94
   2  -3   0  749.89   30.88
  -2  -3   0  747.83   28.66
  -2  -3  -1 2943.70   66.12
   2  -3   1 2881.48   60.87
  -2  -3  -1 2949.11   48.54
   2  -3   1 2884.53   56.57
   2  -3   2  557.20   25.84
  -2  -3  -2  579.51   35.44
   2  -3   2  509.28   27.09
   2  -3   3  214.77   18.07
   2  -3   3  207.77   17.07
  -2  -3  -3  229.67   27.21
   2  -3   4  968.32   38.56
   2  -3   4  916.23   36.79
   2  -3   5  139.00   15.70
   2  -3   5  200.95   19.09
   2  -3   6  552.47   32.52
   2  -3   6  593.62   30.36
  -2  -3  -7   42.75   26.21
   2  -3   7   36.91   10.12
   2  -3   7   43.81   12.50
   2  -3   8   99.29   17.16
  -2  -3  -8   63.27   29.53
  -2  -3  -9  822.05   80.36
   2  -3   9  716.64   44.11
  -2  -2  11   62.86   26.11
  -2  -2  10  479.03   29.92
  -2  -2  10  536.94   48.38
  -2  -2   9  116.79   14.53
  -2  -2   9  127.09   24.25
  -2  -2   8  141.17   14.79
  -2  -2   8  115.50   21.24
  -2  -2   7  232.14   26.57
  -2  -2   7  247.03   16.93
   2  -2  -7  276.12   14.70
  -2  -2   6  741.11   25.45
   2  -2  -6  764.16   25.77
  -2  -2   6  720.29   41.09
  -2  -2   5 1938.68   61.47
  -2  -2   5 1947.16   36.16
   2  -2  -5 2050.21   42.15
   2  -2  -4  247.27   14.87
  -2  -2   4  244.64   11.99
   2  -2  -3  364.29   17.80
  -2  -2   3  386.32   21.52
   2  -2  -3  367.19   18.33
   2  -2  -2 2137.24   40.32
  -2  -2   2 2154.02   41.60
   2  -2  -2 2188.32   42.91
  -2  -2   1 1194.90   24.83
   2  -2  -1 1143.44   31.56
  -2  -2   1 1156.40   25.18
  -2  -2   0 6684.30   88.76
   2  -2   0 6517.36   77.06
   2  -2   1  283.51   16.82
   2  -2   1  290.79   15.55
  -2  -2  -1  249.31   23.15
   2  -2   2  747.82   26.40
   2  -2   2  744.06   27.86
  -2  -2  -2  764.20   40.14
  -2  -2  -3  963.94   49.65
   2  -2   3  979.36   32.43
   2  -2   3  917.03   31.76
  -2  -2  -4  120.23   22.61
   2  -2   4  118.74   13.02
   2  -2   4  106.90   12.38
   2  -2   5  552.05   28.60
  -2  -2  -5  486.25   45.05
   2  -2   5  562.14   26.01
   2  -2   6  382.41   20.66
   2  -2   6  400.04   26.30
  -2  -2  -6  420.26   47.55
  -2  -2  -7  249.98   42.57
   2  -2   7  160.82   18.46
   2  -2   8  624.36   37.66
  -2  -2  -8  737.93   73.31
  -2  -2  -9   87.12   42.72
   2  -2   9   84.86   17.60
  -2  -1  11  512.01   49.75
  -2  -1  10   46.08   20.99
  -2  -1  10   67.46   13.04
  -2  -1   9   13.63    7.44
  -2  -1   9   38.51   16.39
  -2  -1   8  182.00   15.12
  -2  -1   8  187.83   26.07
  -2  -1   7  440.05   21.14
   2  -1  -7  356.66   15.66
  -2  -1   7  431.50   35.72
   2  -1  -7  436.60   15.66
  -2  -1   6 2762.98   45.50
  -2  -1   6 2714.66   81.45
   2  -1  -6 2755.37   41.45
  -2  -1   5 1728.17   60.11
   2  -1  -5 1759.27   33.05
  -2  -1   5 1752.81   31.61
   2  -1  -4 1869.76   34.03
  -2  -1   4 1966.10   27.08
  -2  -1   4 1849.07   55.55
   2  -1  -4 1915.26   38.78
  -2  -1   3  730.84   12.75
   2  -1  -3  735.34   20.63
  -2  -1   3  663.16   22.45
   2  -1  -3  709.64   20.61
  -2  -1   3  734.24   30.93
   2  -1  -2  730.44   20.83
   2  -1  -2  722.37   18.12
   2  -1  -2  741.97   29.40
  -2  -1   2  752.69   26.33
  -2  -1   2  725.90   22.44
   2  -1   0 7813.41  112.99
  -2  -1  -1 6083.57  100.95
   2  -1   1 5961.37  103.97
   2  -1   2   93.28    8.88
  -2  -1  -2  107.43   18.82
  -2  -1  -2   89.63    7.47
   2  -1   2   90.20    8.66
   2  -1   3 1606.47   35.45
  -2  -1  -3 1583.84   63.45
   2  -1   3 1564.57   38.69
  -2  -1  -3 1475.67   28.83
   2  -1   4 6080.49   70.30
  -2  -1  -4 6171.61  136.77
   2  -1   4 5972.32   84.19
   2  -1   5  938.89   36.46
  -2  -1  -5  891.64   59.88
   2  -1   5  903.72   26.79
   2  -1   6  323.61   14.70
   2  -1   6  332.43   23.89
   2  -1   7   57.80   12.35
  -2  -1  -7   64.86   29.24
   2  -1   8   43.07   11.98
  -2  -1  -8   19.99   29.12
   2  -1   9  517.06   35.92
  -2  -1  -9  517.95   70.64
  -2  -1 -10   17.23   39.45
   2  -1  10   12.76   13.45
  -2   0  11   64.76   25.76
  -2   0  10  262.45   21.33
  -2   0  10  283.27   36.29
  -2   0   9   11.27    6.92
  -2   0   9    5.40   14.44
  -2   0   8   19.66    7.11
  -2   0   8   18.30   12.04
   2   0  -7   52.86    7.61
  -2   0   7   46.58    7.81
   2   0  -7   38.76    5.16
  -2   0   7   58.85   16.81
   2   0  -6  187.13   10.52
  -2   0   6  199.27   13.03
   2   0  -6  187.61   12.72
  -2   0   6  222.09   26.06
   2   0  -5 3614.57   43.72
  -2   0   5 3480.60   45.65
  -2   0   5 3695.10   48.97
  -2   0   5 3546.35   88.29
   2   0  -5 3539.33   52.79
   2   0  -4 1509.96   28.33
  -2   0   4 1393.11   50.31
  -2   0   4 1431.60   24.26
  -2   0   4 1464.33   30.52
   2   0  -4 1487.52   29.07
  -2   0   3 3347.58   68.99
  -2   0   3 3300.22   43.10
   2   0  -3 3170.47   40.57
  -2   0   2 2806.00   38.89
  -2   0   2 2819.99   53.85
   2   0  -2 2856.86   53.30
   2   0  -2 2877.97   38.15
  -2   0   0 3640.91   73.79
   2   0   0 3675.82   74.15
   2   0   1  883.75   38.71
   2   0   1  868.61   22.25
  -2   0  -1  884.10   42.70
   2   0   1  917.55   20.76
  -2   0  -1  902.48   22.70
  -2   0  -1  930.71   21.51
   2   0   2 2591.50   35.40
   2   0   2 2498.04   43.32
  -2   0  -2 2525.73   34.90
   2   0   3  208.38   14.54
  -2   0  -3  224.91   10.51
   2   0   3  233.10   11.15
   2   0   4   27.81    4.76
   2   0   4   24.10    7.24
  -2   0  -4   25.06    4.26
   2   0   5  754.37   19.78
   2   0   5  769.62   33.34
  -2   0  -5  842.13   58.93
  -2   0  -6  613.68   57.78
   2   0   6  554.57   30.63
   2   0   7  473.38   30.74
  -2   0  -7  447.56   53.86
  -2   0  -8  152.82   43.18
   2   0   8  192.53   22.27
  -2   0  -9    3.29   34.43
   2   0   9   32.50   13.82
   2   0  10  123.48   21.51
  -2   0 -10   85.31   45.65
  -2   1  11  501.86   51.11
  -2   1  10   58.51   12.22
  -2   1  10   50.14   22.00
  -2   1   9   30.01    9.59
  -2   1   9   26.02   17.80
  -2   1   8  156.16   15.46
  -2   1   8  186.34   27.51
   2   1  -7  444.64   21.89
  -2   1   7  466.82   23.13
   2   1  -7  459.23   16.52
  -2   1   7  437.49   38.39
   2   1  -6 2804.98   42.07
  -2   1   6 2666.79   86.25
  -2   1   6 2682.52   49.99
  -2   1   6 2863.42   40.74
   2   1  -6 2901.05   54.06
   2   1  -5 1776.17   40.32
  -2   1   5 1732.20   64.03
  -2   1   5 1681.50   35.43
   2   1  -5 1776.35   33.37
  -2   1   5 1766.45   31.36
   2   1  -5 1679.03   32.62
   2   1  -4 1937.82   28.00
  -2   1   4 1896.47   34.45
  -2   1   4 1929.63   61.69
   2   1  -4 1909.23   34.81
  -2   1   4 1992.96   32.86
  -2   1   3  711.55   33.94
   2   1  -3  744.42   12.15
   2   1  -3  750.29   21.77
  -2   1   3  761.76   19.99
  -2   1   3  701.69   19.36
   2   1  -2  768.26   25.58
  -2   1   2  796.54   20.32
  -2   1   2  749.33   18.37
   2   1  -2  811.74   22.69
  -2   1   0 6867.04  101.77
   2   1   0 7546.31   98.03
   2   1   1 5953.94   91.19
  -2   1  -1 5718.51  110.08
   2   1   2   84.08    8.81
  -2   1  -2   69.05    6.69
   2   1   2   78.01    6.41
  -2   1  -3 1605.00   29.84
   2   1   3 1506.02   39.20
  -2   1  -3 1563.67   68.00
   2   1   3 1529.08   26.11
  -2   1  -4 6042.51   56.50
  -2   1  -4 6106.30  143.29
   2   1   4 6006.52   86.67
   2   1   4 6143.61   50.51
   2   1   5  964.68   37.61
   2   1   5  871.96   18.94
  -2   1  -5  920.02   22.00
  -2   1  -6  300.07   40.52
   2   1   6  326.27   24.06
  -2   1  -6  249.48   10.97
   2   1   7   31.01   10.36
  -2   1  -7   83.62   34.56
  -2   1  -8   28.56   31.49
   2   1   8   63.27   14.60
   2   1   9  488.64   37.24
  -2   1  -9  708.95   79.21
  -2   1 -10   65.87   45.15
   2   1  10   -0.19   12.57
  -2   2  11   53.47   25.59
  -2   2  11   38.95   12.88
  -2   2  10  514.23   32.73
  -2   2  10  506.09   49.01
  -2   2   9  133.14   16.26
  -2   2   9  108.26   24.56
  -2   2   8  107.15   21.89
  -2   2   8  129.98   15.36
   2   2  -8   94.01    9.27
  -2   2   7  252.27   18.70
  -2   2   7  256.17   31.26
   2   2  -7  285.43   15.31
  -2   2   6  713.71   29.21
  -2   2   6  757.48   47.50
   2   2  -6  740.73   25.25
  -2   2   6  709.01   20.87
  -2   2   5 1969.01   34.91
  -2   2   5 1911.34   68.96
   2   2  -5 2041.63   43.16
  -2   2   5 2046.46   46.21
  -2   2   4  258.15   13.12
   2   2  -4  285.49   11.63
   2   2  -4  245.54   15.29
  -2   2   4  258.16   24.69
  -2   2   4  274.37   16.61
   2   2  -3  398.11   21.41
  -2   2   3  376.81   25.82
  -2   2   3  381.49   18.20
   2   2  -3  391.35   19.07
   2   2  -3  405.93   11.66
   2   2  -3  414.56   14.35
  -2   2   3  435.56   17.27
  -2   2   2 2094.52   52.82
   2   2  -2 2170.50   31.59
  -2   2   2 2242.04   41.49
   2   2  -2 2086.82   38.99
   2   2  -2 2134.72   43.32
  -2   2   2 2180.94   39.22
   2   2  -1 1161.68   24.99
  -2   2   1 1155.69   35.18
  -2   2   1 1181.26   29.72
   2   2  -1 1090.63   31.73
   2   2  -1 1128.16   29.52
  -2   2   1 1156.68   30.25
  -2   2   1 1185.47   27.70
   2   2  -1 1094.25   30.60
  -2   2   0 6720.10  101.06
   2   2   0 6981.49   84.45
   2   2   0 6940.67   78.34
   2   2   1  299.39   16.40
   2   2   1  294.47   15.27
  -2   2  -1  272.59   27.99
   2   2   1  296.36   16.92
  -2   2  -1  298.54   15.86
   2   2   2  753.25   26.55
  -2   2  -2  703.41   47.23
   2   2   2  708.68   22.48
   2   2   2  680.89   26.24
   2   2   3  891.20   32.90
  -2   2  -3  928.25   55.62
   2   2   3 1018.10   31.17
   2   2   3  948.06   24.29
  -2   2  -4   95.36   27.67
   2   2   4  128.09   14.48
   2   2   4  125.74   11.15
   2   2   4  122.51    8.34
   2   2   5  493.32   14.12
   2   2   5  503.68   19.53
   2   2   5  467.53   27.55
  -2   2  -5  543.70   51.45
   2   2   6  421.78   28.21
  -2   2  -6  370.79   49.22
  -2   2  -7  215.22   45.58
   2   2   7  180.51   20.69
  -2   2  -8  521.88   67.15
   2   2   8  697.69   41.39
  -2   2  -9   26.66   39.28
   2   2   9  110.95   20.48
  -2   3  10   36.48   12.47
  -2   3  10   78.32   24.49
  -2   3   9  231.27   22.32
  -2   3   9  209.64   31.46
   2   3  -8   15.79    6.50
  -2   3   8   17.80    9.00
  -2   3   8   13.15   14.60
  -2   3   7  609.10   46.42
  -2   3   7  552.08   30.16
   2   3  -7  517.60   24.90
  -2   3   6 3095.45   67.65
  -2   3   6 2976.26   94.70
   2   3  -6 3101.50   60.75
  -2   3   5  241.31   25.92
   2   3  -5  230.60   17.50
  -2   3   5  236.32   18.75
   2   3  -4 1288.43   39.59
  -2   3   4 1300.32   54.17
   2   3  -4 1341.03   27.50
   2   3  -4 1373.26   35.84
  -2   3   4 1321.60   41.58
   2   3  -3 1135.42   34.22
   2   3  -3 1097.88   29.24
  -2   3   3 1021.74   44.00
   2   3  -3 1133.34   35.76
  -2   3   3 1027.81   34.80
   2   3  -3 1177.46   27.05
   2   3  -2 2170.09   35.51
  -2   3   2 2117.93   48.37
   2   3  -2 2082.70   40.50
  -2   3   2 2070.92   54.59
  -2   3   1 6017.42   84.20
   2   3  -1 5952.56   64.65
  -2   3   0  740.10   33.60
  -2   3   0  663.88   28.13
   2   3   0  745.05   26.54
  -2   3  -1 2815.41   81.60
   2   3   1 2848.29   53.98
   2   3   1 2956.51   56.07
   2   3   2  531.20   23.07
  -2   3  -2  503.09   44.27
   2   3   2  505.06   24.92
   2   3   3  182.83   16.49
   2   3   3  219.76   14.38
  -2   3  -3  232.32   36.68
   2   3   4  998.59   39.48
   2   3   4  978.27   28.00
  -2   3  -4 1054.11   68.20
   2   3   5  119.93   16.25
   2   3   5  162.83   14.59
  -2   3  -5  195.75   40.84
   2   3   5  172.69   10.91
   2   3   6  535.94   32.93
  -2   3  -6  577.72   59.12
   2   3   6  450.30   13.75
   2   3   7   33.31   12.57
  -2   3  -7   83.25   33.00
   2   3   8   46.32   14.08
  -2   3  -8   86.48   38.69
  -2   3  -9  692.76   84.23
   2   3   9  785.91   48.27
  -2   4  10  615.97   40.10
  -2   4  10  551.04   54.35
  -2   4   9   57.46   21.32
  -2   4   9   73.84   15.46
  -2   4   8  126.56   18.58
   2   4  -8  136.39   15.48
  -2   4   8  172.82   29.05
  -2   4   7  953.74   42.94
   2   4  -7 1041.25   40.46
   2   4  -6  214.26   19.97
  -2   4   6  240.86   30.03
  -2   4   6  183.64   18.89
   2   4  -5  901.67   36.30
  -2   4   5  823.64   48.29
   2   4  -5  927.58   37.60
  -2   4   5  874.46   38.79
   2   4  -4  419.59   23.04
  -2   4   4  467.61   34.63
  -2   4   4  512.82   29.03
   2   4  -3 1130.39   31.65
  -2   4   3 1072.91   46.64
  -2   4   3  997.09   38.59
   2   4  -3 1033.42   33.57
  -2   4   2  660.85   32.93
   2   4  -2  688.77   17.08
  -2   4   2  679.73   31.96
   2   4  -2  655.22   27.63
  -2   4   1 2113.98   53.28
  -2   4   1 2284.20   56.78
   2   4  -1 2201.18   50.26
  -2   4   0 3777.98   74.89
  -2   4   0 3935.44   75.63
   2   4   0 3876.82   69.90
  -2   4  -1  417.27   32.73
   2   4   1  443.78   25.18
   2   4   2 1473.24   46.99
  -2   4  -2 1621.20   73.90
  -2   4  -3  924.24   64.06
   2   4   3  904.04   32.97
   2   4   3  906.94   38.10
   2   4   4   84.98   10.76
  -2   4  -4   94.49   33.15
   2   4   4   83.38   13.64
   2   4   5 4308.42   91.45
  -2   4  -5 4550.12  151.07
   2   4   5 4412.87   64.33
   2   4   6  110.22   17.39
  -2   4  -6  129.66   37.29
   2   4   6  119.75   10.08
  -2   4  -7    4.91   29.05
   2   4   7   20.13   11.01
  -2   4  -8  378.70   60.23
   2   4   8  579.87   40.28
   2   4   9   53.12   17.80
  -2   4  -9  102.94   44.86
  -2   5  10   67.84   18.05
   2   5 -10   20.63   31.06
  -2   5  10   48.00   23.38
  -2   5   9  191.38   23.55
  -2   5   9  196.16   32.66
  -2   5   8  228.76   23.86
  -2   5   8  229.44   31.63
   2   5  -8  187.45   20.26
  -2   5   7  643.88   50.31
   2   5  -7  743.88   39.25
  -2   5   7  689.20   39.07
  -2   5   6 1036.04   58.50
   2   5  -6 1065.83   45.07
   2   5  -6 1122.57   47.14
  -2   5   6 1051.86   46.54
  -2   5   5   -1.39    9.11
  -2   5   5    7.13   11.93
   2   5  -5   15.71   10.36
  -2   5   4  741.53   44.67
   2   5  -4  708.83   33.00
  -2   5   4  746.13   37.95
   2   5  -3 1030.98   27.09
  -2   5   3  968.27   46.57
   2   5  -3  887.35   35.65
  -2   5   3  953.46   42.03
  -2   5   2  668.25   34.98
  -2   5   2  664.31   35.22
   2   5  -2  661.74   31.32
  -2   5   1  924.30   37.97
  -2   5   1  895.67   39.95
   2   5  -1  871.10   36.10
  -2   5   0  412.01   25.46
   2   5   0  457.02   27.75
  -2   5   0  415.39   27.46
   2   5   1 1937.61   57.84
  -2   5  -1 2016.58   64.30
  -2   5  -1 1843.76   58.27
   2   5   2  475.90   30.54
  -2   5  -2  405.37   39.62
   2   5   3  204.10   20.93
  -2   5  -3  259.91   43.84
  -2   5  -4 1121.33   79.02
   2   5   4 1049.50   38.79
   2   5   4 1189.23   49.46
   2   5   5  225.49   23.67
   2   5   5  285.89   19.94
  -2   5  -5  243.52   52.19
   2   5   6  334.28   29.14
   2   5   6  339.14   19.85
  -2   5  -7   90.72   45.89
   2   5   7   81.08   17.57
   2   5   8   45.01   14.88
  -2   5  -8   67.11   41.06
   2   5   9  565.33   43.29
  -2   5  -9  372.39   67.50
  -2   6   9  201.52   26.11
  -2   6   9  214.80   34.46
   2   6  -9  144.27   36.89
   2   6  -8   67.76   16.16
  -2   6   8   47.41   14.97
   2   6  -8   42.01   23.78
  -2   6   8   95.17   23.91
   2   6  -8   32.80   15.35
   2   6  -7  927.95   48.22
  -2   6   7  866.32   47.11
   2   6  -7  775.51   53.37
  -2   6   7  899.15   58.61
   2   6  -7  942.56   49.32
   2   6  -6   34.55   17.78
  -2   6   6   57.91   14.87
  -2   6   6   37.55   15.54
   2   6  -6   51.21   14.90
   2   6  -5  993.30   49.52
  -2   6   5  889.57   52.32
   2   6  -5  922.91   43.29
  -2   6   5  872.26   46.04
  -2   6   4   36.56   13.72
   2   6  -4   77.36   18.75
   2   6  -4   56.49   10.26
  -2   6   4   30.43   13.70
   2   6  -4   38.09   11.83
   2   6  -3  101.92    7.12
  -2   6   3   92.61   18.34
   2   6  -3   86.23   10.85
   2   6  -3  107.41   15.57
  -2   6   3   91.64   15.94
  -2   6   2  243.87   23.38
  -2   6   2  253.02   25.35
   2   6  -2  254.96   22.49
  -2   6   1  100.95   15.70
  -2   6   1  134.57   19.65
   2   6  -1  113.02   15.93
   2   6   0 3619.81   83.48
  -2   6   0 3698.64   75.99
  -2   6   0 3542.05   86.86
  -2   6  -1   31.08   11.90
   2   6   1   36.29   11.45
  -2   6  -1   44.59   13.85
  -2   6  -2   67.97   20.58
   2   6   2   54.82   13.92
  -2   6  -2   80.81   15.85
  -2   6  -3  141.02   33.76
   2   6   3  175.51   21.77
  -2   6  -4  297.05   51.99
   2   6   4  237.48   24.95
   2   6   5 1779.16   66.70
   2   6   5 1640.73   52.20
   2   6   6  180.56   23.48
   2   6   6  211.15   18.77
  -2   6  -6  216.95   51.16
   2   6   7  369.61   33.90
  -2   6  -7  428.46   63.98
  -2   6  -8  275.42   61.58
   2   6   8  406.04   36.67
  -2   7   9   96.96   20.87
  -2   7   9   42.75   24.04
   2   7  -8   37.01   15.49
  -2   7   8   16.63   12.86
  -2   7   8   -5.01   16.08
   2   7  -8   17.22   16.91
  -2   7   7   72.41   21.11
   2   7  -7   57.76   26.82
   2   7  -7   51.43   17.68
  -2   7   7   67.80   17.63
  -2   7   6  311.18   35.37
   2   7  -6  330.54   31.45
  -2   7   6  262.42   28.43
   2   7  -6  271.31   32.96
  -2   7   5  323.63   33.74
   2   7  -5  276.21   31.75
   2   7  -5  302.71   28.57
  -2   7   5  260.18   28.42
  -2   7   4  587.28   42.05
   2   7  -4  546.81   29.32
   2   7  -4  559.97   35.88
  -2   7   4  597.14   40.20
  -2   7   3  365.58   31.51
  -2   7   3  296.84   29.31
   2   7  -3  379.22   30.18
  -2   7   2   30.62   13.97
   2   7  -2   11.99    9.75
  -2   7   2   11.22    9.53
  -2   7   1  918.69   48.81
  -2   7   1  857.73   40.88
   2   7  -1  870.43   43.94
  -2   7   0  376.83   26.92
  -2   7   0  315.04   28.98
   2   7   0  389.37   31.35
   2   7   1  202.16   23.19
  -2   7  -1  206.35   20.72
  -2   7  -1  228.08   26.27
  -2   7  -2  389.81   32.78
  -2   7  -2  399.24   33.56
   2   7   2  427.72   33.58
   2   7   3  182.51   23.64
  -2   7  -3  138.73   29.02
  -2   7  -3  190.36   25.39
  -2   7  -4 1495.73   66.74
   2   7   4 1539.86   64.26
   2   7   5  139.47   18.79
  -2   7  -5  177.99   45.62
   2   7   5  127.54   21.85
  -2   7  -6  115.51   46.20
   2   7   6   81.92   14.80
   2   7   6   90.70   19.21
   2   7   7  242.17   30.03
  -2   7  -7  259.69   66.47
   2   7   8   51.53   18.84
  -2   7  -8   89.88   57.64
  -2   8   8   51.86   17.66
   2   8  -8    8.48   16.21
  -2   8   8    0.56   16.22
   2   8  -8   39.31   18.23
  -2   8   7  134.26   28.16
  -2   8   7  175.73   26.50
   2   8  -7  142.28   26.01
  -2   8   6   83.00   21.01
  -2   8   6   64.59   21.35
   2   8  -6   70.86   18.53
   2   8  -5  694.52   44.07
  -2   8   5  642.90   45.95
  -2   8   5  560.78   44.70
  -2   8   4   46.70   15.59
   2   8  -4   63.84   17.58
  -2   8   4   39.51   16.22
  -2   8   3  466.00   35.60
  -2   8   3  426.42   36.58
   2   8  -3  404.04   33.58
  -2   8   2  324.74   29.76
  -2   8   2  339.55   32.45
   2   8  -2  400.30   32.95
  -2   8   1   73.61   15.32
  -2   8   1   59.89   16.99
  -2   8   0 2220.02   63.06
  -2   8   0 2173.39   79.37
   2   8   0 2075.86   74.44
  -2   8  -1  536.28   32.28
   2   8   1  575.34   41.51
  -2   8  -2  519.57   34.80
  -2   8  -2  529.07   41.40
   2   8   2  626.09   43.98
  -2   8  -3  441.49   38.67
  -2   8  -3  453.45   39.58
   2   8   3  502.07   39.19
  -2   8  -4  150.17   33.49
  -2   8  -4  118.06   25.56
   2   8   4  156.47   23.34
  -2   8  -5   74.22   20.11
  -2   8  -5   50.75   40.05
   2   8   5   93.14   20.39
   2   8   6   11.75   11.03
   2   8   6   10.36   16.72
  -2   8  -6   22.84   16.77
  -2   8  -6  -15.36   36.78
   2   8   7  308.22   35.54
  -2   8  -7  282.79   37.99
  -2   8  -7  365.20   74.12
  -2   9   7  172.88   31.63
   2   9  -7  165.19   28.32
  -2   9   7  175.18   28.78
  -2   9   6  323.76   39.12
   2   9  -6  296.58   35.69
  -2   9   6  305.16   34.79
  -2   9   5  158.84   26.23
   2   9  -5  167.59   26.77
  -2   9   5  187.47   29.35
  -2   9   4  460.97   39.21
   2   9  -4  444.88   38.42
  -2   9   4  426.87   40.23
  -2   9   3  104.28   21.29
  -2   9   3   91.75   20.35
   2   9  -3  114.62   22.32
  -2   9   2  110.50   20.31
  -2   9   2  185.24   26.76
   2   9  -2  167.61   24.86
  -2   9   1  902.61   44.83
  -2   9   1 1048.13   60.59
   2   9  -1  997.57   54.99
  -2   9   0  176.76   20.97
  -2   9   0  167.02   26.26
   2   9   0  174.65   24.81
  -2   9  -1  205.35   21.69
  -2   9  -1  213.44   29.22
   2   9   1  180.97   25.85
  -2   9  -2  196.36   21.49
  -2   9  -2  190.24   27.52
   2   9   2  167.44   25.36
  -2   9  -3  110.33   19.72
   2   9   3  104.52   22.56
  -2   9  -3   81.12   22.39
  -2   9  -4  354.80   38.84
   2   9   4  468.57   42.13
   2   9   5   61.48   19.24
  -2   9  -5   31.72   19.03
   2   9   6  159.64   28.29
  -2   9  -6  308.59   41.29
  -2  10   6   58.93   21.17
  -2  10   6   75.68   24.09
   2  10  -6   61.29   22.40
   2  10  -5  297.06   35.61
  -2  10   5  358.29   39.01
  -2  10   5  259.58   34.99
  -2  10   4   19.82   16.00
  -2  10   4   26.95   16.94
   2  10  -4   74.71   22.31
   2  10  -3  156.06   26.01
  -2  10   3  254.26   33.49
  -2  10   2  379.83   39.46
   2  10  -2  427.04   39.61
  -2  10   1  218.75   32.17
   2  10  -1  216.24   28.65
  -2  10   0  356.00   39.65
   2  10   0  362.32   37.05
  -2  10  -1  210.67   31.18
   2  10   1  244.90   31.59
   2  10   2   33.23   17.36
  -2  10  -2   47.21   19.42
  -2  10  -3  598.84   50.26
   2  10   3  651.27   50.95
   2  10   4   67.05   21.05
  -2  10  -4   92.63   26.70
   2  10   5   36.93   18.52
  -2  10  -5   46.81   22.93
   2  11  -4  117.41   26.37
  -2  11   4  133.42   27.37
  -2  11   3   41.39   20.73
   2  11  -3   52.54   18.58
  -2  11   2  147.57   29.08
   2  11  -2  107.28   24.63
  -2  11   1  259.36   35.86
   2  11  -1  316.00   37.08
   2  11   0   15.06   16.76
  -2  11   0    0.59   15.16
   2  11   1   72.91   21.83
  -2  11  -1   57.23   22.32
   2  11   2   66.82   22.01
  -2  11  -2   40.44   19.38
   2  11   3   45.58   20.61
  -2  11  -3    9.31   17.06
   3 -11  -4   72.30   26.48
   3 -11  -3   64.55   25.96
  -3 -11   2  716.76   58.89
   3 -11  -2  666.68   61.09
   3 -11  -1  166.44   34.07
  -3 -11   1  128.84   27.99
   3 -11   0   69.34   26.45
  -3 -11   0   43.44   19.47
   3 -11   1   84.27   28.02
   3 -11   2   61.15   25.30
   3 -10  -6  359.83   43.43
   3 -10  -5   42.65   23.41
   3 -10  -4   39.16   21.34
   3 -10  -3   12.09   17.04
  -3 -10   3   21.53   16.69
   3 -10  -2  154.16   30.00
  -3 -10   2  115.96   26.04
   3 -10  -1  333.27   41.60
  -3 -10   1  422.11   42.97
  -3 -10   0   24.45   17.42
   3 -10   0   27.07   17.48
   3 -10   1   61.70   23.69
   3 -10   2   23.47   19.05
   3 -10   3   90.53   25.93
   3 -10   4   18.80   21.06
   3  -9  -7   82.50   24.16
   3  -9  -6   51.92   21.67
   3  -9  -5  265.56   35.83
   3  -9  -4   84.07   22.94
   3  -9  -3   39.16   18.66
  -3  -9   3   -0.05   13.79
  -3  -9   2  446.28   42.72
   3  -9  -2  379.63   41.77
   3  -9  -1  252.83   34.47
  -3  -9   1  268.53   33.59
   3  -9   0  229.13   34.34
  -3  -9   0  236.44   31.71
   3  -9   1    9.28   16.00
   3  -9   2  589.07   52.88
   3  -9   3  440.55   47.20
   3  -9   4  338.44   42.09
   3  -9   5  402.35   47.29
   3  -8  -7   -6.62   14.80
   3  -8  -6   51.73   18.36
   3  -8  -5  112.20   24.64
   3  -8  -4  187.51   28.40
  -3  -8   3  260.16   31.09
   3  -8  -3  199.83   29.07
  -3  -8   2   98.70   21.19
   3  -8  -2  140.33   25.53
   3  -8  -1 1609.00   75.77
  -3  -8   1 1706.99   74.51
   3  -8   0   43.33   20.11
  -3  -8   0   44.93   16.51
   3  -8   1   30.81   16.85
  -3  -8  -2  437.36   35.31
   3  -8   2  412.72   41.24
   3  -8   3   31.80   16.54
  -3  -8  -3   42.01   21.21
  -3  -8  -4   95.32   28.96
   3  -8   4   55.67   20.37
  -3  -8  -5  151.92   35.68
   3  -8   5  110.87   24.80
  -3  -8  -6  217.44   46.25
   3  -8   6  256.89   35.47
   3  -7  -7  369.85   35.29
   3  -7  -6  198.81   26.27
   3  -7  -5 1045.37   57.02
   3  -7  -4   87.02   20.19
   3  -7  -3  486.47   39.83
   3  -7  -2  154.46   24.27
  -3  -7   2  201.02   25.02
   3  -7  -1  182.22   25.65
  -3  -7   1  164.76   23.27
   3  -7   0  832.06   51.57
  -3  -7  -1   87.62   16.18
   3  -7   1   65.06   16.76
  -3  -7  -2  436.21   37.06
   3  -7   2  640.15   46.03
  -3  -7  -3  684.58   48.34
   3  -7   3  616.78   46.25
   3  -7   4   29.86   15.85
  -3  -7  -4   72.63   26.85
  -3  -7  -5  236.48   37.86
   3  -7   5  201.81   30.04
   3  -7   5  176.45   27.28
   3  -7   6  554.19   45.22
   3  -7   6  524.38   45.09
  -3  -7  -6  486.20   60.07
   3  -7   7   25.38   17.81
   3  -7   7    6.12   15.90
  -3  -7  -7   60.68   33.84
   3  -6  -7  340.00   30.78
   3  -6  -6  265.27   28.13
  -3  -6   6  318.44   23.55
   3  -6  -5  345.63   30.91
  -3  -6   5  345.52   21.01
   3  -6  -4  180.17   23.59
   3  -6  -3 1221.98   55.73
   3  -6  -2   78.17   16.68
   3  -6  -1  656.94   41.51
  -3  -6   0  378.50   15.10
   3  -6   0  388.05   33.30
  -3  -6  -1  735.44   29.35
  -3  -6  -1  682.03   38.33
   3  -6   1  708.25   44.83
   3  -6   2 1461.35   63.94
  -3  -6  -2 1532.11   63.11
  -3  -6  -3   47.33   22.36
   3  -6   3   94.27   18.69
   3  -6   3   62.21   16.62
  -3  -6  -4  458.16   44.37
   3  -6   4  462.20   36.66
   3  -6   4  457.59   37.60
  -3  -6  -5  459.77   48.69
   3  -6   5  378.23   35.54
   3  -6   5  355.55   33.55
   3  -6   6  303.99   33.00
   3  -6   6  360.11   34.84
  -3  -6  -7  278.98   48.06
   3  -6   7  251.51   32.58
   3  -6   7  322.22   32.77
   3  -6   8   -8.10   16.48
  -3  -6  -8    2.87   32.68
  -3  -5   9  128.18   22.84
  -3  -5   8  372.67   33.27
   3  -5  -7 1048.55   47.40
  -3  -5   7 1155.48   51.69
   3  -5  -6  925.33   45.21
  -3  -5   6 1075.44   45.08
  -3  -5   5  976.79   37.45
   3  -5  -5  990.03   46.04
   3  -5  -4   63.38   14.69
  -3  -5   4   96.66   11.44
   3  -5  -3  532.64   34.33
  -3  -5   3  532.03   19.25
  -3  -5   2  599.49   15.07
   3  -5  -2 1125.38   49.49
  -3  -5   1  489.91   13.20
   3  -5  -1  620.40   36.76
  -3  -5   0  316.52   20.14
   3  -5   0  272.00   25.50
  -3  -5  -1   30.54   16.33
  -3  -5  -1   43.82    8.85
   3  -5   1   62.17   13.67
   3  -5   2    3.09    9.18
  -3  -5  -2  -15.26   19.21
   3  -5   2   10.55    9.42
  -3  -5  -3  279.56   36.14
   3  -5   3  329.79   29.81
   3  -5   3  329.60   29.25
   3  -5   4  118.35   19.33
  -3  -5  -4  181.77   32.48
   3  -5   4  140.17   19.52
  -3  -5  -5  848.12   63.62
   3  -5   5  774.28   44.83
   3  -5   5  767.08   45.15
  -3  -5  -6  117.28   33.49
   3  -5   6  103.23   19.06
   3  -5   6  147.41   21.44
  -3  -5  -7  217.96   46.43
   3  -5   7  122.78   21.48
  -3  -5  -8  148.06   45.49
   3  -5   8   80.81   21.34
  -3  -4  10   15.44   17.63
  -3  -4   9  871.64   54.16
  -3  -4   8  176.14   25.57
  -3  -4   7  146.50   20.74
   3  -4  -7  122.75   16.29
  -3  -4   6  969.78   45.48
   3  -4  -6  880.72   39.89
  -3  -4   5  150.90   17.52
   3  -4  -5  160.41   18.04
   3  -4  -4  610.19   32.92
  -3  -4   4  647.38   30.32
   3  -4  -3 2301.86   63.10
  -3  -4   3 2422.28   49.38
  -3  -4   2 1205.74   29.81
   3  -4  -2 1109.98   44.38
  -3  -4   1 1409.96   29.65
   3  -4  -1 1463.01   50.75
   3  -4   0  260.09   22.79
  -3  -4   0  231.33   20.85
   3  -4   1 4154.34   82.28
   3  -4   1 4209.07   87.10
  -3  -4  -1 4144.92   93.84
  -3  -4  -2 3520.72   97.68
   3  -4   2 3640.95   78.96
   3  -4   2 3521.18   81.64
  -3  -4  -3  246.05   34.21
   3  -4   3  205.88   20.41
   3  -4   3  231.85   22.77
  -3  -4  -4  592.14   51.73
   3  -4   4  594.40   34.00
   3  -4   4  583.60   35.84
   3  -4   5  635.17   37.85
  -3  -4  -5  727.34   58.94
   3  -4   5  639.66   37.02
   3  -4   6   66.91   14.68
  -3  -4  -6   31.96   29.68
   3  -4   6   77.53   15.08
  -3  -4  -7  339.30   49.69
   3  -4   7  323.50   29.73
  -3  -4  -8   55.34   35.18
   3  -4   8   35.90   18.37
  -3  -3  10  127.94   26.23
  -3  -3   9   91.97   22.05
  -3  -3   8   90.37   12.49
  -3  -3   8  115.69   21.65
  -3  -3   7 1402.90   61.22
  -3  -3   7 1430.16   39.66
   3  -3  -7 1374.77   44.23
  -3  -3   6  557.75   37.10
   3  -3  -6  540.13   28.24
  -3  -3   5 1061.03   46.07
   3  -3  -5  871.09   34.81
  -3  -3   4  568.89   30.21
   3  -3  -4  553.58   28.07
   3  -3  -3   35.16    7.74
  -3  -3   3   44.13    9.30
  -3  -3   2 1922.26   41.84
   3  -3  -2 1919.58   51.09
  -3  -3   2 1836.04   36.79
  -3  -3   1  437.71   19.44
   3  -3  -1  450.79   25.06
  -3  -3   1  441.10   20.62
   3  -3   0  132.06   14.33
   3  -3   0  120.15   13.63
  -3  -3   0  142.38   17.89
  -3  -3  -1  616.65   40.80
   3  -3   1  632.18   28.70
   3  -3   1  642.29   31.43
  -3  -3  -2  143.50   26.48
   3  -3   2  152.38   15.72
   3  -3   2  134.96   15.84
  -3  -3  -3  991.65   59.96
   3  -3   3  866.20   36.89
   3  -3   3  910.68   38.64
  -3  -3  -4  235.83   35.35
   3  -3   4  201.51   19.12
   3  -3   4  218.75   20.84
   3  -3   5 2088.76   62.09
  -3  -3  -5 2300.85  103.25
   3  -3   5 2212.15   62.20
   3  -3   6  731.62   36.04
   3  -3   6  677.01   37.85
  -3  -3  -6  734.91   64.30
  -3  -3  -7  188.10   42.79
   3  -3   7  199.37   23.33
  -3  -3  -8  240.90   53.86
   3  -3   8  181.93   23.20
   3  -3   9  100.57   20.29
  -3  -3  -9  128.01   46.30
  -3  -2  11  289.05   39.42
  -3  -2  10  126.11   26.27
  -3  -2   9  586.52   47.13
  -3  -2   9  538.48   26.68
  -3  -2   8  423.11   21.24
  -3  -2   8  335.13   33.83
  -3  -2   7  252.30   15.24
  -3  -2   7  281.18   29.83
   3  -2  -7  236.54   17.11
   3  -2  -6  452.33   23.09
  -3  -2   6  456.92   17.84
  -3  -2   6  399.28   32.36
   3  -2  -5  334.63   19.59
  -3  -2   5  365.74   28.27
  -3  -2   4  673.11   34.74
   3  -2  -4  631.91   26.35
   3  -2  -4  721.61   26.36
   3  -2  -3  847.53   30.10
  -3  -2   3  861.30   34.87
   3  -2  -3  868.77   27.19
   3  -2  -2 1137.25   34.70
  -3  -2   2 1160.20   22.86
  -3  -2   2 1175.24   34.77
  -3  -2   1 5184.25   73.56
   3  -2  -1 5664.14   76.69
  -3  -2   0 2278.69   66.18
   3  -2   0 2260.47   44.83
   3  -2   0 2238.39   48.79
   3  -2   1 2330.21   48.34
   3  -2   1 2406.72   52.17
  -3  -2  -1 2324.60   75.76
  -3  -2  -2 2595.78   87.73
   3  -2   2 2610.70   54.34
   3  -2   2 2534.66   55.61
  -3  -2  -3 1255.59   66.93
   3  -2   3 1226.93   39.50
   3  -2   3 1293.33   41.81
  -3  -2  -4  104.84   27.52
   3  -2   4  132.36   14.96
   3  -2   4  125.37   14.36
   3  -2   5  401.28   26.35
   3  -2   5  423.18   24.77
  -3  -2  -5  474.20   50.34
   3  -2   6  473.02   25.82
  -3  -2  -6  527.31   59.48
   3  -2   6  439.38   29.42
  -3  -2  -7   66.40   35.79
   3  -2   7   67.93   14.54
  -3  -2  -8  341.37   58.83
   3  -2   8  315.77   29.32
   3  -2   9  393.05   35.23
  -3  -2  -9  310.33   68.15
  -3  -1  11    4.02   17.25
  -3  -1  10  393.20   42.15
  -3  -1   9  454.89   23.63
  -3  -1   9  508.14   45.23
   3  -1  -8  263.82   15.65
  -3  -1   8  317.30   34.99
  -3  -1   8  337.88   18.34
  -3  -1   7  504.12   19.45
   3  -1  -7  459.39   21.37
  -3  -1   7  548.56   42.35
  -3  -1   6  258.05   12.00
   3  -1  -6  242.64   15.29
   3  -1  -5 3176.72   53.37
  -3  -1   5 3244.72   33.66
  -3  -1   5 3164.81   84.82
   3  -1  -5 3143.32   51.24
   3  -1  -4 2325.24   45.41
   3  -1  -4 2436.57   38.46
  -3  -1   4 2395.16   67.68
   3  -1  -3  730.59   25.03
   3  -1  -3  714.79   18.99
  -3  -1   3  742.85   33.45
   3  -1  -2 1990.39   40.66
  -3  -1   2 1980.95   47.55
   3  -1  -1 1097.75   30.50
  -3  -1   1 1098.15   36.74
   3  -1  -1 1046.03   24.06
  -3  -1   1 1091.67   21.62
  -3  -1   0  146.47    9.91
   3  -1   0  141.84   11.32
   3  -1   0  167.90   10.76
  -3  -1   0  131.66   20.58
   3  -1   1 1718.43   38.21
  -3  -1  -1 1668.62   66.82
   3  -1   1 1744.82   37.25
  -3  -1  -2  931.79   56.40
   3  -1   2  996.60   29.82
   3  -1   2  893.07   29.53
   3  -1   3 7109.31   84.62
   3  -1   3 7093.84   90.80
  -3  -1  -4  559.62   52.32
   3  -1   4  454.40   25.72
   3  -1   4  565.60   25.54
  -3  -1  -4  526.85   21.31
  -3  -1  -5 2497.69  108.19
   3  -1   5 2592.45   63.73
   3  -1   5 2605.14   53.98
  -3  -1  -6 2591.42  119.96
   3  -1   6 2550.32   67.66
   3  -1   6 2476.40   49.82
  -3  -1  -7  136.34   38.46
   3  -1   7  102.83   16.24
  -3  -1  -8  285.39   56.67
   3  -1   8  266.01   26.54
  -3  -1  -9   25.38   40.77
   3  -1   9   50.17   16.25
  -3   0  11  354.30   45.09
  -3   0  10   24.37   17.96
  -3   0   9  352.05   39.61
  -3   0   9  346.08   20.99
   3   0  -8  933.91   27.82
  -3   0   8 1038.19   31.70
  -3   0   8 1039.66   61.95
  -3   0   7   51.93    7.39
  -3   0   7   58.71   17.83
   3   0  -7   32.02    6.75
   3   0  -6    5.06    4.94
  -3   0   6    0.25    3.23
  -3   0   6   -2.66   11.08
   3   0  -6    4.73    4.81
   3   0  -5  638.99   23.01
  -3   0   5  615.95   15.96
   3   0  -5  621.21   19.52
  -3   0   4  202.49    6.87
   3   0  -4  202.53    8.44
  -3   0   4  185.54   20.26
   3   0  -3   94.13    8.74
  -3   0   3   96.34   14.03
   3   0  -2  312.38   15.32
  -3   0   2  332.50   20.96
   3   0   0  202.26   12.32
  -3   0   0  208.75   11.09
   3   0   0  205.89   10.90
  -3   0   0  201.26   23.69
   3   0   1  201.00   12.31
   3   0   1  204.36   12.89
   3   0   2  177.37   11.73
   3   0   2  188.80   13.92
  -3   0  -2  190.88   31.96
  -3   0  -3 1038.25   65.63
   3   0   3  980.15   27.91
   3   0   3 1015.34   35.07
  -3   0  -4   -4.37   25.23
   3   0   4   11.33    6.66
   3   0   4   23.09    5.65
   3   0   5  643.38   32.49
  -3   0  -5  593.02   22.16
   3   0   6 1645.02   55.60
  -3   0  -6 1565.84   94.43
   3   0   6 1580.26   34.88
  -3   0  -7   12.38   31.96
   3   0   7    7.34    9.18
  -3   0  -8  507.68   69.03
   3   0   8  631.83   39.90
  -3   0  -9  625.61   81.86
   3   0   9  597.20   41.58
  -3   1  11   40.67   20.58
  -3   1  10  247.62   36.34
  -3   1   9  524.53   26.86
  -3   1   9  491.17   46.78
   3   1  -8  284.41   16.37
  -3   1   8  317.08   19.06
  -3   1   8  306.46   35.82
   3   1  -7  482.85   20.87
  -3   1   7  515.04   22.44
  -3   1   6  236.07   13.67
  -3   1   6  233.71   29.11
   3   1  -6  244.00   13.47
   3   1  -6  241.54   14.91
  -3   1   5 3221.16   44.37
  -3   1   5 3173.10   92.20
   3   1  -5 3163.43   52.71
   3   1  -5 3190.90   37.91
  -3   1   4 2298.83   71.99
   3   1  -4 2387.84   45.56
  -3   1   4 2406.35   36.07
  -3   1   3  739.04   36.59
  -3   1   3  724.50   19.01
   3   1  -3  759.75   25.46
   3   1  -2 1770.35   17.02
  -3   1   2 1960.96   27.38
   3   1  -2 1907.91   48.58
  -3   1   2 1777.91   50.30
  -3   1   2 1893.40   31.99
   3   1  -2 1816.47   38.53
  -3   1   1 1135.05   41.05
  -3   1   1 1105.84   22.29
   3   1  -1 1063.95   19.66
   3   1  -1 1063.15   42.33
   3   1  -1 1114.35   30.20
   3   1   0  192.02   22.88
   3   1   0  147.59    9.57
  -3   1   0  188.00   23.63
  -3   1   0  169.79   10.68
   3   1   0  165.90   11.82
   3   1   1 1639.55   35.74
  -3   1  -1 1591.02   69.31
   3   1   1 1664.49   35.83
   3   1   2  882.03   29.94
  -3   1  -2  930.81   59.51
   3   1   2  924.50   26.21
   3   1   3 7045.50   71.03
   3   1   3 7099.01   92.83
  -3   1  -3 6846.81  165.05
   3   1   4  546.52   19.80
   3   1   4  514.91   27.92
  -3   1  -4  493.20   50.86
   3   1   5 2558.91   65.55
   3   1   5 2516.23   42.56
  -3   1  -5 2595.48  114.19
  -3   1  -6 2477.34  118.70
   3   1   6 2547.27   70.37
   3   1   6 2301.28   38.61
   3   1   7  133.49   19.23
  -3   1  -7  134.39   44.48
  -3   1  -8  336.61   60.82
   3   1   8  311.08   29.62
  -3   1  -9  105.77   47.45
   3   1   9   27.99   13.37
  -3   2  11  269.11   41.40
  -3   2  10  113.74   16.17
  -3   2  10  114.40   31.08
  -3   2   9  575.44   50.83
  -3   2   9  580.91   29.87
  -3   2   8  361.20   22.40
  -3   2   8  408.28   41.23
   3   2  -8  346.90   18.67
  -3   2   7  220.72   17.30
  -3   2   7  257.35   31.47
   3   2  -7  268.86   17.40
   3   2  -6  420.88   16.58
  -3   2   6  479.39   22.96
  -3   2   6  418.95   38.13
   3   2  -6  438.80   21.73
   3   2  -5  343.00   12.06
  -3   2   5  330.93   31.16
   3   2  -5  326.06   18.97
  -3   2   5  322.60   18.14
  -3   2   4  656.99   40.01
   3   2  -4  691.79   13.05
   3   2  -4  670.75   15.91
   3   2  -4  676.02   26.99
  -3   2   4  668.85   25.25
   3   2  -3  867.88   14.11
  -3   2   3  922.94   42.22
  -3   2   3  890.24   26.97
   3   2  -3  933.44   31.26
   3   2  -3  882.34   16.43
  -3   2   2 1082.81   30.38
   3   2  -2 1165.58   36.14
  -3   2   2 1075.99   41.22
  -3   2   2 1202.21   28.99
   3   2  -2 1229.09   35.35
   3   2  -2 1192.63   21.67
   3   2  -1 5555.75   74.52
  -3   2   1 5548.09   60.20
   3   2  -1 5491.46   94.14
  -3   2   1 5762.53   94.70
   3   2   0 2155.44   39.77
   3   2   0 2094.05   62.23
  -3   2   0 2142.29   69.05
   3   2   0 2131.21   45.60
   3   2   1 2442.25   47.61
  -3   2  -1 2386.76   85.22
   3   2   1 2449.93   48.13
   3   2   2 2574.69   53.46
  -3   2  -2 2522.86   97.91
   3   2   2 2588.25   47.16
   3   2   3 1199.18   40.31
   3   2   3 1246.11   32.23
  -3   2  -4  164.55   35.19
   3   2   4  130.89   15.29
   3   2   4  134.26   10.42
   3   2   5  411.79   17.13
  -3   2  -5  437.96   53.49
   3   2   5  409.67   28.15
   3   2   6  477.49   31.74
   3   2   6  388.27   15.64
  -3   2  -6  479.03   58.70
  -3   2  -7  110.44   40.14
   3   2   7   68.64   15.17
   3   2   8  367.77   32.54
  -3   2  -8  448.41   64.27
  -3   2  -9  383.48   70.61
   3   2   9  411.33   36.26
  -3   3  10  136.93   18.23
  -3   3  10  108.84   28.70
  -3   3   9   89.32   14.38
  -3   3   9  133.01   28.78
  -3   3   8   79.04   13.41
   3   3  -8   60.27    9.96
  -3   3   8   69.93   21.21
  -3   3   7 1392.89   45.16
  -3   3   7 1486.43   74.60
   3   3  -7 1339.50   41.28
  -3   3   6  615.87   46.53
   3   3  -6  581.61   27.83
  -3   3   6  549.61   27.85
   3   3  -5  933.25   22.19
  -3   3   5  827.35   50.03
   3   3  -5  929.18   27.65
   3   3  -5  852.28   33.73
  -3   3   5  879.29   33.89
  -3   3   4  472.62   35.44
   3   3  -4  552.89   15.49
   3   3  -4  547.52   27.32
   3   3  -4  519.67   18.65
  -3   3   4  502.19   25.03
   3   3  -3   48.40    9.54
  -3   3   3   55.76   12.84
   3   3  -3   69.96    7.44
   3   3  -3   54.09    9.45
  -3   3   3   70.24    9.88
   3   3  -3   57.29    6.74
   3   3  -2 1842.98   44.17
  -3   3   2 1720.00   54.30
  -3   3   2 1750.26   45.20
   3   3  -2 1729.15   47.14
   3   3  -2 1795.20   35.99
   3   3  -1  454.11   27.34
  -3   3   1  463.37   24.79
   3   3  -1  439.18   23.81
   3   3  -1  421.56   19.11
   3   3   0  144.59   17.43
  -3   3   0  153.40   20.99
   3   3   0  168.20   15.01
   3   3   0  115.26   11.14
   3   3   1  595.33   26.39
  -3   3  -1  632.94   46.13
   3   3   1  609.16   27.00
   3   3   2  153.82   14.90
  -3   3  -2  158.58   31.16
   3   3   2  168.91   14.43
   3   3   3  900.35   37.03
   3   3   3  959.60   31.45
   3   3   4  196.85   19.30
  -3   3  -4  187.39   43.40
   3   3   4  216.94   14.60
  -3   3  -5 2309.83  114.79
   3   3   5 2349.87   67.08
   3   3   5 2270.42   43.08
   3   3   6  660.90   21.20
   3   3   6  747.70   40.92
  -3   3  -6  814.59   74.79
  -3   3  -7  204.98   51.10
   3   3   7  179.20   22.67
   3   3   8  169.31   23.65
  -3   3  -8  149.32   50.01
   3   3   9  165.40   25.85
  -3   3  -9  221.30   60.38
  -3   4  10   25.96   12.78
  -3   4  10   35.71   22.41
  -3   4   9  889.15   43.32
  -3   4   9  775.17   61.06
  -3   4   8  143.90   18.41
  -3   4   8  151.59   29.57
   3   4  -8  141.52   16.28
  -3   4   7  138.60   27.31
   3   4  -7  130.55   15.83
   3   4  -7  113.59   14.98
  -3   4   7  168.23   19.14
   3   4  -6  835.25   37.61
   3   4  -6  883.30   34.48
  -3   4   6  932.69   58.36
  -3   4   6  805.63   37.59
  -3   4   5  162.14   24.50
   3   4  -5  136.45   13.30
   3   4  -5  140.86   16.23
  -3   4   5  132.60   15.56
  -3   4   4  557.03   39.89
   3   4  -4  616.32   31.98
   3   4  -4  590.41   25.15
  -3   4   4  609.42   30.55
  -3   4   3 2229.34   58.28
  -3   4   3 2258.21   70.24
   3   4  -3 2224.37   45.84
   3   4  -3 2201.38   58.86
   3   4  -3 2341.63   47.16
  -3   4   2 1052.17   44.29
   3   4  -2 1147.03   35.90
   3   4  -2 1159.18   41.91
  -3   4   2 1111.07   40.72
   3   4  -2 1160.19   34.83
  -3   4   1 1240.93   47.16
   3   4  -1 1258.72   43.35
   3   4  -1 1352.36   39.93
   3   4  -1 1288.35   38.26
  -3   4   1 1314.65   45.40
  -3   4   0  208.32   22.84
  -3   4   0  244.90   21.35
   3   4   0  243.93   19.46
   3   4   0  221.30   17.28
  -3   4  -1 4372.18  113.35
   3   4   1 4192.44   77.40
   3   4   1 4201.24   76.48
   3   4   2 3399.41   72.56
  -3   4  -2 3524.42  118.99
   3   4   2 3698.29   71.14
   3   4   3  178.25   18.28
  -3   4  -3  156.67   36.96
   3   4   3  184.40   16.21
   3   4   4  564.05   33.39
  -3   4  -4  513.69   62.23
   3   4   4  592.54   26.75
   3   4   5  644.90   37.82
   3   4   5  604.40   25.34
  -3   4  -6   27.21   33.68
   3   4   6   56.20   14.49
   3   4   6   65.68    9.28
   3   4   7  291.93   29.10
  -3   4  -7  282.66   58.10
   3   4   8   79.50   18.92
  -3   4  -8   74.93   47.16
  -3   5  10   21.80   13.39
  -3   5  10   15.99   21.74
  -3   5   9  124.06   19.38
  -3   5   9  158.94   31.95
  -3   5   8  342.23   28.58
   3   5  -8  361.39   29.66
  -3   5   8  307.27   39.89
   3   5  -8  323.97   27.26
  -3   5   7 1021.48   63.55
   3   5  -7 1183.04   46.91
   3   5  -7 1106.96   47.37
  -3   5   7 1076.89   47.97
  -3   5   6  939.60   59.31
   3   5  -6 1074.73   41.59
   3   5  -6 1059.72   46.28
  -3   5   6 1038.47   46.88
  -3   5   5  848.65   53.97
   3   5  -5  982.24   44.19
   3   5  -5  935.46   36.35
  -3   5   5  911.75   43.25
  -3   5   4   61.59   12.57
  -3   5   4   88.65   19.36
   3   5  -4   66.35   11.71
   3   5  -4   72.02   13.74
  -3   5   3  490.07   35.57
   3   5  -3  473.42   20.56
   3   5  -3  533.46   32.37
  -3   5   3  494.32   30.38
   3   5  -3  444.79   24.81
   3   5  -2 1142.46   46.20
  -3   5   2 1149.87   46.50
   3   5  -2 1130.66   39.83
  -3   5   2 1286.18   51.97
  -3   5   1  681.09   36.59
  -3   5   1  671.69   36.43
   3   5  -1  648.68   34.43
   3   5  -1  645.85   31.18
  -3   5   0  278.10   26.11
  -3   5   0  201.46   21.39
   3   5   0  250.39   21.98
   3   5   0  240.56   20.61
   3   5   1   41.08   10.69
  -3   5  -1   70.21   19.32
  -3   5  -1   42.26   11.17
   3   5   1   49.39   11.83
   3   5   2    6.94    7.72
   3   5   2    8.33    7.61
   3   5   3  347.94   27.34
  -3   5  -3  321.58   47.35
   3   5   3  364.23   24.67
   3   5   4  142.30   19.05
   3   5   4  144.83   15.88
  -3   5  -4  184.35   52.64
   3   5   5  794.09   43.65
  -3   5  -5  935.87   86.70
   3   5   5  889.60   34.72
   3   5   6  121.67   19.25
  -3   5  -6  129.80   47.14
   3   5   6  119.63   13.28
   3   5   7  120.35   20.97
  -3   5  -7   76.47   42.89
  -3   5  -8   28.59   41.19
   3   5   8   55.82   17.41
  -3   6   9  312.89   30.22
  -3   6   9  285.33   41.37
  -3   6   8  640.59   56.51
   3   6  -8  716.14   43.37
  -3   6   8  718.33   43.13
   3   6  -7  326.82   28.53
   3   6  -7  341.28   29.37
  -3   6   7  334.09   39.57
  -3   6   7  342.42   30.61
  -3   6   6  224.68   32.80
   3   6  -6  259.23   26.00
   3   6  -6  262.68   24.40
  -3   6   6  250.10   26.23
   3   6  -5  305.01   27.24
  -3   6   5  323.87   35.27
   3   6  -5  278.97   23.20
  -3   6   5  303.08   27.50
  -3   6   4  207.69   27.00
   3   6  -4  183.18   21.60
   3   6  -4  220.10   21.04
  -3   6   4  225.04   23.49
  -3   6   3 1288.22   59.08
  -3   6   3 1324.76   54.10
   3   6  -3 1263.15   45.37
  -3   6   2  105.84   17.73
  -3   6   2  117.77   18.00
   3   6  -2  125.53   16.54
  -3   6   1  737.10   39.89
  -3   6   1  668.25   39.34
   3   6  -1  703.98   36.08
  -3   6   0  416.36   31.12
  -3   6   0  376.37   31.50
   3   6   0  414.00   28.68
  -3   6  -1  746.96   45.01
  -3   6  -1  695.86   40.25
   3   6   1  732.88   38.76
  -3   6  -2 1483.72   74.67
  -3   6  -2 1316.31   56.48
   3   6   2 1523.03   54.92
   3   6   2 1360.10   53.91
   3   6   3   85.70   14.08
  -3   6  -3  103.29   34.08
   3   6   3   62.28   13.97
   3   6   4  439.37   33.16
  -3   6  -4  466.78   60.98
   3   6   4  386.51   27.27
   3   6   5  335.76   30.55
   3   6   5  352.55   25.22
   3   6   6  330.84   31.68
  -3   6  -6  343.28   68.20
  -3   6  -7  303.56   65.26
   3   6   7  320.76   33.40
  -3   6  -8  -12.43   45.79
   3   6   8   13.22   13.68
  -3   7   9   27.45   15.13
  -3   7   9   20.06   20.14
  -3   7   8  346.44   42.43
   3   7  -8  462.60   37.64
  -3   7   8  402.05   35.72
  -3   7   7  323.12   39.69
   3   7  -7  321.18   31.92
   3   7  -7  326.74   31.49
  -3   7   7  337.17   31.97
   3   7  -6  239.15   27.38
   3   7  -6  210.97   25.14
  -3   7   6  218.81   27.25
  -3   7   5  931.05   58.77
   3   7  -5  983.65   50.61
   3   7  -5 1034.09   47.66
  -3   7   5 1060.32   53.96
  -3   7   4   74.50   17.02
  -3   7   4  108.99   22.72
   3   7  -4   72.17   15.53
  -3   7   3  480.99   37.91
  -3   7   3  498.41   36.46
   3   7  -3  452.05   31.10
  -3   7   2  135.17   21.94
  -3   7   2  139.58   19.93
   3   7  -2  181.38   21.18
  -3   7   1  155.82   22.02
   3   7  -1  141.07   19.34
  -3   7   1  162.12   22.12
  -3   7   0  852.11   43.37
  -3   7   0  871.50   48.30
   3   7   0  823.19   43.38
  -3   7  -1   67.00   16.66
  -3   7  -1   72.20   16.59
   3   7   1   96.27   17.46
  -3   7  -2  410.46   39.71
  -3   7  -2  429.12   35.14
   3   7   2  443.65   34.38
  -3   7  -3  657.33   59.14
  -3   7  -3  572.02   41.42
   3   7   3  680.05   39.52
   3   7   3  682.63   43.47
   3   7   4   72.56   14.56
  -3   7  -4   91.94   38.36
   3   7   4   91.11   18.90
   3   7   5  221.21   27.73
   3   7   5  209.11   21.95
   3   7   6  549.13   42.95
  -3   7  -6  555.12   77.94
  -3   7  -7  144.05   64.93
   3   7   7   41.30   17.65
  -3   8   8  399.01   46.76
   3   8  -8  476.08   41.72
  -3   8   8  388.57   37.16
   3   8  -7   19.83   15.10
  -3   8   7   -4.10   12.01
  -3   8   7   30.77   20.85
   3   8  -7   14.69   15.90
  -3   8   6   34.71   14.82
  -3   8   6   54.86   20.39
   3   8  -6   53.52   17.89
   3   8  -6   72.74   17.85
  -3   8   5  110.16   20.97
  -3   8   5  135.37   27.65
   3   8  -5   94.94   19.82
  -3   8   4  163.60   26.46
   3   8  -4  146.72   20.71
  -3   8   4  176.08   24.59
  -3   8   3  184.31   26.34
  -3   8   3  175.82   25.81
   3   8  -3  218.95   25.06
  -3   8   2  152.24   22.47
   3   8  -2  136.11   20.32
  -3   8   2  110.66   21.74
  -3   8   1 1712.98   64.95
  -3   8   1 1749.79   72.68
   3   8  -1 1625.54   63.68
   3   8   0   30.42   15.03
  -3   8   0   48.18   13.40
  -3   8   0   50.53   16.23
  -3   8  -1   45.52   14.11
   3   8   1   64.07   16.64
  -3   8  -1   53.95   17.32
  -3   8  -2  470.33   39.35
   3   8   2  580.13   41.60
  -3   8  -2  524.71   40.11
   3   8   3   24.46   15.18
  -3   8  -3   17.13   21.34
  -3   8  -3   34.69   15.73
   3   8   3   35.95   14.08
   3   8   4   58.17   15.07
  -3   8  -4   82.23   33.86
   3   8   4   32.00   15.26
  -3   8  -4   30.82   16.23
   3   8   5  125.06   22.33
   3   8   5  123.51   19.27
  -3   8  -5   96.87   23.48
   3   8   6  231.70   30.61
  -3   8  -6  220.43   59.45
  -3   8  -6  242.03   34.39
  -3   9   7  107.84   24.28
  -3   9   7   71.63   24.88
   3   9  -7  102.90   22.29
  -3   9   6   44.67   18.74
  -3   9   6   19.20   17.28
   3   9  -6   26.00   14.67
   3   9  -6   23.68   17.48
   3   9  -5  296.79   31.53
  -3   9   5  291.90   34.16
   3   9  -4  106.64   20.43
  -3   9   4   74.83   20.47
  -3   9   4   93.31   22.28
  -3   9   3   13.62   13.91
   3   9  -3   24.68   14.92
  -3   9   3   -7.35   13.68
  -3   9   2  374.14   34.93
  -3   9   2  288.88   34.05
   3   9  -2  362.89   34.17
  -3   9   1  248.84   28.81
  -3   9   1  211.93   31.23
   3   9  -1  217.62   26.85
  -3   9   0  162.46   22.61
   3   9   0  158.19   23.85
  -3   9  -1   20.56   13.80
   3   9   1   22.05   14.38
  -3   9  -1   31.44   16.99
  -3   9  -2  500.96   38.51
  -3   9  -2  474.18   41.73
   3   9   2  541.39   43.25
  -3   9  -3  379.38   37.62
   3   9   3  391.24   36.27
  -3   9  -3  379.96   39.82
   3   9   3  379.68   37.55
   3   9   4  320.81   32.70
  -3   9  -4  267.74   38.87
  -3   9  -4  207.81   32.77
   3   9   4  320.13   35.62
   3   9   5  391.52   39.49
  -3   9  -5  370.56   40.85
   3   9   5  368.74   33.57
  -3   9  -5  414.41   54.78
  -3  10   6  373.34   43.47
   3  10  -6  328.84   36.50
   3  10  -6  413.69   42.02
  -3  10   6  324.91   38.71
   3  10  -5   58.04   23.57
  -3  10   5   32.66   17.60
  -3  10   5   30.56   21.65
   3  10  -4   50.14   19.94
  -3  10   4   45.59   21.60
  -3  10   4   25.58   17.69
  -3  10   3   17.79   15.53
   3  10  -3   10.25   14.18
  -3  10   3    6.14   14.98
  -3  10   2  142.39   27.43
  -3  10   2  130.28   25.21
   3  10  -2  139.67   25.43
  -3  10   1  268.02   29.95
  -3  10   1  338.03   39.72
   3  10  -1  290.44   33.83
   3  10   0   39.62   16.99
  -3  10   0   26.42   16.97
   3  10   1  111.45   22.86
  -3  10  -1   87.45   22.83
   3  10   2   65.17   19.96
  -3  10  -2   74.66   21.82
  -3  10  -3   62.91   23.81
   3  10   3   79.91   22.05
   3  10   3   32.11   17.55
   3  10   4   69.76   21.80
  -3  10  -4   29.63   20.06
   3  10   4   28.65   15.28
   3  11  -4  105.73   27.16
  -3  11   4  108.48   28.49
  -3  11   3   31.96   18.81
   3  11  -3   46.27   20.90
  -3  11   2  596.08   53.08
   3  11  -2  653.74   50.73
   3  11  -1  131.33   26.79
  -3  11   1   98.78   26.15
   3  11   0   89.39   23.22
  -3  11   0   52.52   22.32
   3  11   1   58.85   22.98
  -3  11  -1   62.42   23.24
   3  11   2   37.23   20.12
  -3  11  -2   31.24   19.55
   4 -11  -3  141.12   33.43
   4 -11  -2   -0.83   21.15
   4 -11  -1   39.34   23.76
   4 -11   0  108.40   30.81
   4 -11   1   70.45   26.72
   4 -10  -5  204.68   35.21
   4 -10  -4   19.84   18.38
   4 -10  -3   29.09   19.61
   4 -10  -2  724.59   61.49
   4 -10  -1   37.58   23.10
   4 -10   0  135.54   32.35
   4 -10   1  247.72   39.06
   4 -10   2  136.89   31.29
   4 -10   3   35.55   22.00
   4  -9  -7   34.19   20.24
   4  -9  -6  243.10   36.01
   4  -9  -5  114.58   26.99
   4  -9  -4  123.65   27.57
   4  -9  -3  106.03   24.80
   4  -9  -2  106.08   24.90
   4  -9  -1  450.66   46.21
   4  -9   0   -0.71   17.43
   4  -9   1  314.18   38.88
   4  -9   2  373.66   42.63
   4  -9   3  153.62   29.88
   4  -9   4  526.92   52.63
   4  -9   5  116.20   30.05
   4  -8  -7   69.24   22.14
   4  -8  -6  213.26   32.00
   4  -8  -5  311.45   36.88
   4  -8  -4   12.24   14.77
   4  -8  -3  167.59   28.44
   4  -8  -2  795.67   54.90
   4  -8  -1  670.65   51.18
   4  -8   0  129.22   25.77
   4  -8   1  177.30   28.56
   4  -8   2   61.15   20.58
   4  -8   3   61.94   20.96
   4  -8   4  123.89   27.32
  -4  -8  -4  263.83   44.73
   4  -8   5   51.11   21.40
  -4  -8  -5  144.86   40.83
  -4  -8  -6   89.84   40.15
   4  -8   6   23.79   21.21
   4  -7  -7  428.22   38.93
   4  -7  -6  927.96   55.48
   4  -7  -5   74.86   18.95
   4  -7  -4   46.08   18.22
   4  -7  -3  313.25   33.31
   4  -7  -2   68.77   19.04
   4  -7  -1 1466.82   68.40
  -4  -7   0   87.28    7.92
   4  -7   0  112.12   22.84
  -4  -7  -1  198.76   25.76
   4  -7   1  138.60   24.06
   4  -7   2  251.27   31.22
  -4  -7  -2  265.72   34.46
   4  -7   3  147.00   25.18
  -4  -7  -3  105.88   32.14
  -4  -7  -4  791.75   64.19
   4  -7   4  912.72   58.94
   4  -7   5   76.21   21.79
  -4  -7  -5   41.17   29.08
   4  -7   5   89.33   21.74
  -4  -7  -6   69.96   37.84
   4  -7   6   91.39   24.35
   4  -7   6   72.65   22.39
  -4  -6   9   55.91   18.03
   4  -6  -8  243.30   28.07
  -4  -6   8  177.72   24.32
  -4  -6   7  547.27   34.54
   4  -6  -7  451.72   36.97
  -4  -6   6  373.68   26.17
   4  -6  -6  338.07   32.01
  -4  -6   5  145.27   14.99
   4  -6  -5   97.01   19.12
  -4  -6   4  603.89   23.62
   4  -6  -4  582.75   40.81
  -4  -6   3  307.57   13.24
   4  -6  -3  697.20   44.05
  -4  -6   2   79.97    5.77
   4  -6  -2  237.98   27.51
  -4  -6   1  506.45   17.39
   4  -6  -1  759.12   46.69
  -4  -6   0  633.41   28.43
   4  -6   0  542.96   40.07
  -4  -6  -1  486.32   39.46
   4  -6   1  432.92   36.24
  -4  -6  -2  234.92   34.00
   4  -6   2  233.12   28.05
  -4  -6  -3 1148.20   71.62
   4  -6   3 1093.89   56.95
   4  -6   3 1135.33   59.49
   4  -6   4  339.02   34.09
  -4  -6  -4  298.64   45.15
   4  -6   4  295.34   31.51
   4  -6   5   54.50   17.96
  -4  -6  -5   33.95   33.81
   4  -6   5   46.57   15.94
   4  -6   6  108.49   22.95
  -4  -6  -6   57.25   31.00
   4  -6   6   67.84   20.56
  -4  -6  -7  264.53   53.15
   4  -6   7  276.99   33.84
  -4  -5  10   32.44   19.60
  -4  -5   9   16.24   17.60
   4  -5  -8   67.34   15.51
  -4  -5   8   90.92   19.73
  -4  -5   7  556.31   37.93
   4  -5  -7  487.96   34.82
  -4  -5   6 1216.45   50.51
   4  -5  -6 1177.63   52.66
  -4  -5   5  203.33   20.34
   4  -5  -5  146.35   19.84
  -4  -5   4  215.79   17.72
   4  -5  -4  214.26   23.43
  -4  -5   3 1226.04   36.41
   4  -5  -3 1157.94   52.29
  -4  -5   2   14.35    5.85
   4  -5  -2   14.90    9.70
  -4  -5   1 1444.86   36.06
   4  -5  -1 1466.66   58.90
  -4  -5   0  298.02   24.83
   4  -5   0  301.83   28.57
   4  -5   1   51.79   14.72
  -4  -5  -1   46.12   19.33
   4  -5   1   55.79   14.54
   4  -5   2   10.92   10.98
   4  -5   2   -6.44    9.87
  -4  -5  -2   -9.03   20.82
   4  -5   3  155.94   23.71
  -4  -5  -3  176.84   35.98
   4  -5   3  215.96   25.52
  -4  -5  -4 1496.76   87.63
   4  -5   4 1418.60   59.98
   4  -5   4 1533.99   64.88
   4  -5   5  156.61   23.24
  -4  -5  -5  105.85   36.59
   4  -5   5  123.71   20.58
  -4  -5  -6  236.47   50.18
   4  -5   6  266.24   29.94
   4  -5   6  228.06   28.15
  -4  -5  -7  125.25   46.79
   4  -5   7  116.46   22.35
  -4  -4  10  306.85   37.06
  -4  -4   9  191.33   27.72
  -4  -4   8   98.51   20.97
   4  -4  -8  115.26   17.49
  -4  -4   7 3026.17   89.23
   4  -4  -7 2827.68   74.77
  -4  -4   6  534.81   36.42
   4  -4  -6  508.83   32.45
   4  -4  -5   47.94   12.56
  -4  -4   5   42.23   12.20
  -4  -4   4  187.94   19.32
   4  -4  -4  170.67   19.77
   4  -4  -3  751.36   38.31
  -4  -4   3  772.22   32.54
  -4  -4   2  693.69   28.05
   4  -4  -2  651.17   36.59
  -4  -4   1  155.52   14.91
   4  -4  -1  149.15   18.04
  -4  -4   0 2448.65   71.42
   4  -4   0 2075.45   63.88
  -4  -4  -1 1185.73   60.54
   4  -4   1 1200.20   47.39
   4  -4   1 1285.03   51.56
  -4  -4  -2  471.09   47.33
   4  -4   2  435.61   29.43
   4  -4   2  474.85   32.60
  -4  -4  -3 1927.31   93.74
   4  -4   3 2103.17   64.76
   4  -4   3 1990.65   66.41
   4  -4   4  857.90   43.02
  -4  -4  -4  878.11   70.81
   4  -4   4  821.74   44.87
  -4  -4  -5  337.55   51.67
   4  -4   5  266.02   26.00
   4  -4   5  276.25   27.64
  -4  -4  -6   32.82   33.51
   4  -4   6   51.82   15.31
   4  -4   6   46.12   15.58
  -4  -4  -7   51.39   42.62
   4  -4   7    4.66   12.80
  -4  -4  -8  418.43   68.57
   4  -4   8  509.38   41.40
  -4  -3  10  183.15   30.73
  -4  -3   9  400.46   39.04
  -4  -3   8   79.78   19.99
   4  -3  -8   42.55   11.80
  -4  -3   7  266.91   29.27
   4  -3  -7  261.80   22.06
  -4  -3   6  748.33   43.89
   4  -3  -6  787.58   36.45
   4  -3  -5  106.15   14.68
  -4  -3   5  106.24   17.21
  -4  -3   4  435.95   29.74
   4  -3  -4  422.44   26.58
  -4  -3   3 1215.23   42.87
   4  -3  -3 1275.07   45.24
  -4  -3   3 1266.87   27.56
  -4  -3   2  106.45   12.88
   4  -3  -2   74.15   12.74
  -4  -3   2  113.85   10.97
  -4  -3   1 2520.45   60.20
   4  -3  -1 2680.09   65.73
  -4  -3   0   51.75   18.57
   4  -3   0   76.35   12.24
   4  -3   0   83.89   12.06
   4  -3   1  939.01   37.74
   4  -3   1  970.17   40.45
  -4  -3  -1  848.01   54.58
  -4  -3  -2   32.69   24.42
   4  -3   2   63.74   12.12
   4  -3   2   68.85   13.05
   4  -3   3  702.67   35.41
  -4  -3  -3  661.61   59.63
   4  -3   3  736.76   37.62
  -4  -3  -4 1243.47   81.41
   4  -3   4 1272.35   48.80
   4  -3   4 1305.16   51.02
   4  -3   5  141.27   18.72
  -4  -3  -5  170.30   38.00
   4  -3   5  140.17   18.72
   4  -3   6  102.14   19.41
   4  -3   6  132.16   18.17
  -4  -3  -7  378.03   60.23
   4  -3   7  327.04   30.97
  -4  -3  -8  116.22   46.38
   4  -3   8   66.12   18.03
  -4  -2  10  272.95   35.50
  -4  -2   9  405.34   41.22
  -4  -2   8  259.45   31.97
   4  -2  -8  220.74   18.98
  -4  -2   7 2644.57   90.75
   4  -2  -7 2562.90   60.83
   4  -2  -6  465.33   26.15
  -4  -2   6  454.26   36.20
   4  -2  -5 1627.85   47.44
  -4  -2   5 1609.07   62.91
   4  -2  -4  282.42   20.04
  -4  -2   4  257.16   23.64
   4  -2  -3 1600.72   45.63
  -4  -2   3 1452.18   49.16
  -4  -2   2 4165.14   75.27
   4  -2  -2 4242.67   74.36
  -4  -2   2 4338.32   51.62
   4  -2  -1 2164.47   53.16
  -4  -2   1 2354.28   62.37
   4  -2  -1 2133.21   46.25
  -4  -2   1 2282.22   43.79
   4  -2   0 2380.36   56.02
  -4  -2   0 2362.56   77.69
   4  -2   0 2360.52   49.97
   4  -2   1  452.55   23.78
   4  -2   1  422.27   24.46
  -4  -2  -1  401.62   41.41
   4  -2   2    2.11    5.65
  -4  -2  -2   18.79   23.58
   4  -2   2    1.34    5.85
   4  -2   3 1224.76   42.95
   4  -2   3 1148.69   42.79
  -4  -2  -4  269.05   45.20
   4  -2   4  245.64   21.38
   4  -2   4  253.13   21.45
  -4  -2  -5 2031.82  108.27
   4  -2   5 2029.98   61.90
   4  -2   5 2250.48   63.09
   4  -2   6   70.50   13.07
  -4  -2  -6   37.29   33.45
   4  -2   6   75.16   15.13
  -4  -2  -7  280.88   57.51
   4  -2   7  164.46   21.93
  -4  -2  -8  639.70   83.15
   4  -2   8  609.90   41.72
  -4  -1  11  142.86   31.53
  -4  -1  10   76.07   22.72
  -4  -1   9  270.99   36.11
  -4  -1   8    7.86    5.09
  -4  -1   8   27.69   16.65
   4  -1  -8    8.51    6.58
  -4  -1   7   81.14    6.70
   4  -1  -7   93.48   12.04
  -4  -1   7   68.31   18.95
   4  -1  -6 1474.22   42.72
  -4  -1   6 1524.01   67.09
   4  -1  -6 1583.62   35.70
   4  -1  -5   74.56    7.91
   4  -1  -5   70.21   10.50
   4  -1  -4  532.17   24.77
  -4  -1   4  503.70   33.52
   4  -1  -3 1216.32   36.61
  -4  -1   3 1178.42   45.64
  -4  -1   2 1709.91   51.08
  -4  -1   2 1778.51   27.16
  -4  -1   1 3739.27   82.49
   4  -1  -1 3720.11   51.25
   4  -1  -1 3733.51   63.76
  -4  -1   0  167.61   26.55
   4  -1   0  165.96   14.45
   4  -1   0  160.33   12.08
  -4  -1  -1  389.02   42.14
   4  -1   1  359.79   20.50
   4  -1   1  346.37   18.93
   4  -1   2  172.60   15.16
   4  -1   2  206.71   16.39
   4  -1   3   87.34   12.16
   4  -1   3   85.63   12.14
   4  -1   4  318.27   21.62
   4  -1   4  278.94   21.65
  -4  -1  -5    0.43   33.18
   4  -1   5   25.63   11.76
   4  -1   5    2.49    7.09
  -4  -1  -6   60.73   33.14
   4  -1   6   55.82   12.69
   4  -1   6   54.57   12.03
  -4  -1  -7   52.87   40.40
   4  -1   7   35.26   12.48
  -4  -1  -8   52.60   40.25
   4  -1   8   36.79   14.52
  -4   0  11   36.20   22.38
  -4   0  10  164.30   30.86
  -4   0   9  208.98   31.80
   4   0  -8  262.68   18.44
  -4   0   8  252.12   13.53
  -4   0   8  274.68   36.43
   4   0  -7  965.02   33.84
  -4   0   7  990.47   22.47
   4   0  -6  290.52   18.28
  -4   0   6  293.26    9.98
   4   0  -6  281.95   12.28
   4   0  -5 2487.71   51.52
  -4   0   5 2334.99   79.74
  -4   0   4   23.01   11.57
   4   0  -4   16.23    5.61
  -4   0   3 2259.67   64.90
  -4   0   3 2132.08   23.24
   4   0  -2 7720.85   87.48
  -4   0   2 7501.28  112.08
   4   0  -1 2283.10   47.93
  -4   0   1 2232.32   35.94
   4   0  -1 2101.78   34.42
  -4   0   1 2081.44   64.37
   4   0   0 2928.71   54.12
  -4   0   0 3046.28   93.03
   4   0   0 2894.27   46.52
   4   0   1  453.16   21.59
  -4   0  -1  457.09   44.50
   4   0   1  464.91   21.26
  -4   0  -2   77.06   27.40
   4   0   2   79.04   10.32
   4   0   2   78.21    9.71
   4   0   3  600.78   29.23
  -4   0  -3  566.55   58.05
   4   0   3  651.58   26.90
  -4   0  -4   68.39   34.38
   4   0   4   65.98   11.97
   4   0   4   73.85   10.66
  -4   0  -5  662.76   70.70
   4   0   5  608.79   28.53
   4   0   5  615.75   34.20
  -4   0  -6  -32.26   36.24
   4   0   6   -3.73    8.85
   4   0   6    4.72    7.43
   4   0   7  203.13   23.72
  -4   0  -7  122.11   49.06
  -4   0  -8  955.22  101.18
   4   0   8  963.80   51.61
  -4   1  11  152.30   34.01
  -4   1  10   95.53   27.90
  -4   1   9  294.61   37.82
  -4   1   8   12.40    5.74
  -4   1   8   30.27   16.32
   4   1  -8   13.09    6.87
   4   1  -7   71.29   10.45
  -4   1   7   74.31   21.49
  -4   1   7   71.28    8.02
  -4   1   6 1529.81   28.82
  -4   1   6 1596.83   73.35
   4   1  -6 1570.48   42.26
  -4   1   5   56.89   15.66
   4   1  -5   93.92   11.55
  -4   1   5   74.48    6.68
  -4   1   4  559.97   37.43
  -4   1   4  532.27   15.89
  -4   1   4  552.02   17.09
   4   1  -4  540.46   24.71
  -4   1   3 1214.04   22.01
  -4   1   3 1190.84   25.78
  -4   1   3 1158.46   48.31
   4   1  -3 1177.38   35.71
  -4   1   2 1777.46   29.12
   4   1  -2 1828.90   24.26
  -4   1   2 1690.16   55.06
   4   1  -2 1735.65   42.99
   4   1  -1 3790.13   45.42
   4   1  -1 3684.12   62.11
  -4   1   1 3682.51   87.82
   4   1   0  153.56   11.22
  -4   1   0  143.19   24.96
   4   1   0  148.77   13.14
  -4   1  -1  285.70   37.38
   4   1   1  300.03   17.43
   4   1   1  347.63   19.16
   4   1   2  190.23   14.06
   4   1   2  196.01   15.94
   4   1   3   95.11   10.49
   4   1   3   95.11   12.80
  -4   1  -3  127.17   39.63
  -4   1  -4  359.37   54.41
   4   1   4  322.67   18.59
   4   1   4  347.91   24.54
  -4   1  -5   15.03   31.17
   4   1   5   16.90    9.11
   4   1   5   12.98    6.91
   4   1   6   64.13    9.98
   4   1   6   41.37   12.46
  -4   1  -7   43.05   40.29
   4   1   7   20.61   11.42
  -4   1  -8   49.60   45.92
   4   1   8   69.81   18.48
  -4   2  10  232.85   36.42
  -4   2   9  440.78   48.03
  -4   2   9  349.15   21.18
  -4   2   8  253.99   16.99
  -4   2   8  271.82   36.75
   4   2  -8  272.31   19.09
  -4   2   7 2676.11   51.13
  -4   2   7 2614.13  100.42
   4   2  -7 2523.02   56.41
  -4   2   6  504.55   43.23
   4   2  -6  342.26   10.12
   4   2  -6  432.26   23.57
  -4   2   6  430.72   20.24
  -4   2   5 1696.13   71.88
   4   2  -5 1747.52   46.68
  -4   2   5 1784.59   40.28
  -4   2   4  257.36   26.67
  -4   2   4  282.72   16.32
   4   2  -4  308.42   20.07
  -4   2   3 1500.49   56.42
  -4   2   3 1580.09   37.18
   4   2  -3 1534.27   43.33
  -4   2   3 1575.49   33.82
   4   2  -2 4284.81   41.98
  -4   2   2 4255.84   67.02
   4   2  -2 4427.94   72.89
   4   2  -1 2181.56   37.55
  -4   2   1 2251.34   70.33
   4   2  -1 2224.45   52.11
   4   2   0 2224.49   43.30
  -4   2   0 2277.31   81.23
   4   2   0 2260.55   51.63
   4   2   1  405.77   21.33
  -4   2  -1  434.52   43.33
   4   2   1  400.27   21.21
   4   2   2    4.05    6.07
   4   2   2   -0.38    4.57
  -4   2  -3 1173.30   83.30
   4   2   3 1205.94   42.71
   4   2   3 1222.48   35.89
   4   2   4  302.11   17.78
   4   2   4  291.57   23.14
   4   2   5 2044.45   45.08
   4   2   5 2031.27   63.75
  -4   2  -6   18.93   35.12
   4   2   6   78.01   15.70
   4   2   7  207.18   25.35
  -4   2  -7  193.84   50.83
  -4   2  -8  548.21   85.00
   4   2   8  579.08   42.95
  -4   3  10  218.06   38.16
  -4   3   9  387.08   24.87
  -4   3   9  392.36   47.42
  -4   3   8   72.04   11.95
   4   3  -8   37.18    9.24
  -4   3   8   43.90   20.63
  -4   3   7  291.52   20.66
  -4   3   7  264.32   34.87
   4   3  -7  319.18   16.85
   4   3  -7  284.57   21.88
  -4   3   6  740.79   53.60
   4   3  -6  768.16   21.30
   4   3  -6  765.82   34.35
  -4   3   6  838.75   33.11
  -4   3   5  161.57   24.84
   4   3  -5  104.28    5.77
   4   3  -5  112.97    7.23
   4   3  -5  140.11   15.44
  -4   3   5  175.67   15.83
  -4   3   4  384.07   32.98
   4   3  -4  410.73   11.47
  -4   3   4  376.90   21.79
   4   3  -4  448.68   25.95
   4   3  -4  392.18   13.04
  -4   3   3 1191.67   52.63
  -4   3   3 1206.75   38.67
   4   3  -3 1249.03   42.87
   4   3  -3 1332.42   26.69
  -4   3   2  113.07   17.47
  -4   3   2  102.57   12.45
   4   3  -2  140.77   15.35
   4   3  -2   97.65    9.04
   4   3  -1 2578.74   47.31
  -4   3   1 2574.66   75.80
   4   3  -1 2630.53   61.39
   4   3   0   86.02   10.31
  -4   3   0  105.52   21.60
   4   3   0   84.37   11.91
   4   3   1  900.26   33.53
  -4   3  -1  851.59   57.24
   4   3   1  818.71   33.44
  -4   3  -2   15.27   26.59
   4   3   2   45.39   10.09
   4   3   2   45.59    9.46
   4   3   3  633.90   33.58
  -4   3  -3  677.11   70.20
   4   3   3  686.81   28.62
   4   3   4 1399.55   51.48
  -4   3  -4 1242.03   94.29
   4   3   4 1279.59   38.25
  -4   3  -5  155.87   46.46
   4   3   5  179.59   21.36
   4   3   5  155.46   13.51
  -4   3  -6  120.55   44.80
   4   3   6  116.20   18.04
   4   3   7  435.96   35.25
  -4   3  -7  296.11   60.73
  -4   3  -8   94.13   49.41
   4   3   8  119.63   21.78
  -4   4  10  266.70   43.32
  -4   4   9  100.14   16.05
  -4   4   9  110.21   28.90
  -4   4   8  121.90   16.28
  -4   4   8  112.24   26.58
   4   4  -8  118.76   16.64
   4   4  -7 3119.92   58.05
   4   4  -7 2913.47   71.69
  -4   4   7 3035.70   72.57
  -4   4   6  471.84   44.25
   4   4  -6  544.64   22.99
   4   4  -6  494.65   29.83
  -4   4   6  514.55   29.60
   4   4  -5   43.35    6.96
  -4   4   5   49.50   11.82
   4   4  -5   53.89    6.04
  -4   4   5   52.95   18.70
   4   4  -5   49.51   11.55
  -4   4   4  138.80   22.25
   4   4  -4  204.38   13.29
   4   4  -4  160.67   18.18
  -4   4   4  155.46   16.40
   4   4  -4  163.57   12.18
  -4   4   3  792.66   45.71
  -4   4   3  856.55   36.95
   4   4  -3  814.24   37.47
   4   4  -3  794.42   27.10
   4   4  -2  586.32   35.78
  -4   4   2  645.17   39.24
  -4   4   2  669.02   33.71
   4   4  -2  694.52   34.13
   4   4  -2  694.52   26.47
   4   4  -1  117.27   20.46
  -4   4   1  181.43   23.15
  -4   4   1  145.81   17.21
   4   4  -1  144.43   16.26
   4   4  -1  147.46   13.76
  -4   4   0 2153.95   77.14
   4   4   0 2151.42   59.38
   4   4   0 2112.04   52.52
   4   4   1 1260.98   43.10
  -4   4  -1 1204.46   66.44
   4   4   1 1202.56   43.62
   4   4   2  454.77   28.07
  -4   4  -2  418.70   49.81
   4   4   2  447.70   26.65
   4   4   3 1894.73   59.94
  -4   4  -3 1930.20  107.70
   4   4   3 1941.27   52.44
   4   4   4  801.23   41.70
  -4   4  -4  818.87   82.80
   4   4   4  835.67   33.68
   4   4   5  268.92   26.32
  -4   4  -5  320.88   59.23
   4   4   5  253.52   18.54
  -4   4  -6   28.68   43.00
   4   4   6   19.05   11.90
  -4   4  -7   -5.03   39.55
   4   4   7   20.43   12.32
   4   4   8  525.61   42.46
  -4   4  -8  411.16   76.47
  -4   5  10   36.19   22.46
   4   5  -9   28.08   12.47
  -4   5   9   15.99   10.89
  -4   5   9   33.32   23.09
   4   5  -8   44.06   13.61
  -4   5   8   47.57   13.76
  -4   5   8   69.96   23.37
  -4   5   7  453.02   47.12
   4   5  -7  580.76   35.81
  -4   5   7  479.35   31.77
  -4   5   6 1215.48   70.69
   4   5  -6 1274.28   41.31
   4   5  -6 1224.31   51.95
  -4   5   6 1202.31   49.10
  -4   5   5  175.29   27.57
   4   5  -5  222.29   21.99
   4   5  -5  196.82   16.25
  -4   5   5  175.77   19.07
  -4   5   4  159.04   25.07
   4   5  -4  198.73   21.13
  -4   5   4  192.56   20.36
   4   5  -4  191.39   15.94
   4   5  -3 1035.55   42.66
   4   5  -3 1096.88   47.84
  -4   5   3 1160.54   48.12
   4   5  -3 1139.99   38.00
  -4   5   3 1206.63   57.50
   4   5  -2   40.49   11.02
   4   5  -2   19.76    8.05
   4   5  -2   35.61   14.31
  -4   5   2   19.92   12.86
  -4   5   2   29.47   13.37
   4   5  -1 1434.70   45.56
  -4   5   1 1418.95   58.66
  -4   5   1 1444.32   54.71
   4   5  -1 1366.53   51.46
   4   5  -1 1449.96   45.57
  -4   5   0  366.17   33.32
  -4   5   0  309.76   26.80
   4   5   0  308.49   24.61
   4   5   0  374.69   24.89
   4   5   1   50.91   11.29
   4   5   1   50.41   11.63
  -4   5  -1   54.11   24.14
   4   5   2    6.98    9.10
  -4   5  -2   -0.64   24.94
   4   5   2    8.57    8.00
   4   5   3  188.85   20.72
   4   5   3  213.36   20.06
   4   5   4 1527.00   58.86
  -4   5  -4 1569.64  109.30
   4   5   4 1534.08   49.31
  -4   5  -5  162.90   52.37
   4   5   5  112.44   17.71
   4   5   5  138.93   15.32
   4   5   6  212.70   25.57
  -4   5  -6  250.07   60.60
   4   5   7  136.21   23.04
  -4   5  -7   86.58   52.06
   4   6  -9   43.32   14.84
  -4   6   9   78.74   17.53
  -4   6   9   75.03   29.11
  -4   6   8  201.36   36.58
   4   6  -8  220.03   25.56
  -4   6   8  195.65   24.17
  -4   6   7  557.73   52.53
   4   6  -7  519.12   36.69
  -4   6   7  487.85   34.93
  -4   6   6  320.23   40.48
   4   6  -6  311.90   28.21
   4   6  -6  416.46   27.53
  -4   6   6  334.68   29.62
   4   6  -5   95.95   16.65
  -4   6   5   60.24   14.92
  -4   6   5   54.53   20.48
   4   6  -5   87.72   13.61
  -4   6   4  518.42   44.05
   4   6  -4  547.37   36.65
  -4   6   4  494.64   34.51
   4   6  -4  531.36   29.28
  -4   6   3  591.05   43.68
   4   6  -3  559.76   36.13
  -4   6   3  562.12   37.59
   4   6  -3  614.70   31.79
   4   6  -2  321.46   28.67
  -4   6   2  209.61   24.54
  -4   6   2  252.12   28.50
   4   6  -2  302.61   23.30
  -4   6   1  629.55   41.32
   4   6  -1  719.68   40.64
  -4   6   1  716.19   42.03
   4   6  -1  683.41   35.27
  -4   6   0  642.00   42.57
  -4   6   0  556.09   37.55
   4   6   0  643.49   38.36
   4   6   0  603.08   34.24
  -4   6  -1  484.34   42.18
  -4   6  -1  354.56   31.34
   4   6   1  431.38   31.25
   4   6   1  414.44   30.39
  -4   6  -2  237.70   38.77
   4   6   2  265.46   24.61
   4   6   2  297.32   26.60
   4   6   3 1143.42   51.64
   4   6   3 1159.97   48.27
   4   6   4  225.23   25.57
  -4   6  -4  286.06   57.06
   4   6   4  284.43   24.40
  -4   6  -5  137.33   51.61
   4   6   5   59.05   12.36
   4   6   5  100.55   19.44
  -4   6  -6  109.29   53.35
   4   6   6   66.98   18.40
   4   6   7  188.73   27.46
  -4   6  -7  194.03   63.04
  -4   7   8  131.50   22.21
  -4   7   8  162.82   33.54
   4   7  -8  152.64   24.85
  -4   7   7  356.75   44.33
   4   7  -7  422.83   36.15
  -4   7   7  455.76   37.37
  -4   7   6  894.67   64.27
   4   7  -6 1069.28   55.12
   4   7  -6 1032.65   47.10
  -4   7   6 1029.65   54.16
   4   7  -5   49.78   13.67
   4   7  -5   82.68   18.16
  -4   7   5   61.66   17.43
  -4   7   5   74.29   23.37
   4   7  -4   53.96   15.16
  -4   7   4   42.22   14.80
   4   7  -4   41.70   12.77
  -4   7   4   36.58   19.05
  -4   7   3  205.38   28.81
   4   7  -3  232.64   26.33
  -4   7   3  218.64   25.77
   4   7  -3  192.19   21.35
   4   7  -2   97.45   16.05
  -4   7   2   96.81   19.41
   4   7  -2  103.08   18.66
  -4   7   2  110.12   19.70
  -4   7   1 1548.90   65.47
   4   7  -1 1484.07   63.01
  -4   7   1 1486.77   64.34
   4   7  -1 1395.74   55.00
  -4   7   0  117.60   22.10
   4   7   0  102.75   18.66
  -4   7   0  100.94   19.14
   4   7   0  102.05   17.71
  -4   7  -1  224.68   29.91
  -4   7  -1  216.82   26.56
   4   7   1  197.18   23.34
   4   7   1  244.01   24.84
  -4   7  -2  227.25   33.62
  -4   7  -2  198.82   25.81
   4   7   2  205.42   23.76
   4   7   2  249.76   26.08
   4   7   3  136.40   20.95
  -4   7  -3  140.01   38.40
  -4   7  -3  120.06   22.43
   4   7   3  138.42   19.40
   4   7   4  828.19   48.77
  -4   7  -4  933.03   85.33
   4   7   4  876.03   44.49
   4   7   5   52.55   16.78
   4   7   5   68.92   15.07
   4   7   6   96.81   21.45
  -4   7  -6   89.91   48.68
   4   8  -8   68.27   20.82
  -4   8   8   40.88   23.37
  -4   8   8   56.21   20.17
   4   8  -7   82.32   19.55
  -4   8   7   95.78   21.02
  -4   8   7   67.13   25.22
  -4   8   6  245.44   37.93
   4   8  -6  233.57   28.60
   4   8  -6  226.38   26.57
  -4   8   6  206.67   28.67
  -4   8   5  315.30   40.35
   4   8  -5  269.13   29.90
   4   8  -5  365.65   31.66
  -4   8   5  351.09   35.27
   4   8  -4   19.60   11.95
  -4   8   4   18.16   14.92
   4   8  -4   27.04   13.49
  -4   8   4   22.05   15.14
  -4   8   3  146.51   25.34
   4   8  -3  226.98   27.86
  -4   8   3  167.64   25.68
   4   8  -3  201.08   24.50
  -4   8   2  637.20   46.26
   4   8  -2  730.39   48.48
  -4   8   2  670.04   47.15
   4   8  -2  751.55   43.05
  -4   8   1  541.78   42.08
   4   8  -1  576.99   42.78
  -4   8   1  549.43   42.68
   4   8  -1  532.93   37.97
  -4   8   0   71.38   17.86
  -4   8   0   57.41   16.66
   4   8   0   92.67   18.88
  -4   8  -1  145.92   24.17
   4   8   1  171.70   25.10
  -4   8  -1  156.42   24.73
   4   8   1  138.20   21.16
   4   8   2   33.14   13.59
   4   8   2   34.46   14.97
  -4   8  -2   61.74   23.49
  -4   8  -2   54.58   18.81
   4   8   3   89.85   17.47
  -4   8  -3   93.19   27.67
  -4   8  -3  101.77   21.49
   4   8   3  144.13   23.38
   4   8   4  160.94   24.79
  -4   8  -4  155.83   41.33
   4   8   4  175.33   23.27
  -4   8  -4  100.17   22.06
   4   8   5   48.80   14.54
   4   8   5   28.81   15.12
  -4   8  -5   37.81   40.79
  -4   8  -5   30.07   17.18
   4   8   6   21.74   16.29
  -4   8  -6   23.99   46.09
   4   9  -7  -17.44   16.41
  -4   9   7    6.59   15.36
  -4   9   7    6.24   20.59
  -4   9   6  259.70   39.33
   4   9  -6  243.99   31.22
  -4   9   6  233.93   30.68
   4   9  -5  111.71   22.38
   4   9  -5  121.43   23.99
  -4   9   5  135.79   26.04
  -4   9   5   62.75   22.48
  -4   9   4  116.71   25.99
   4   9  -4  126.56   24.54
  -4   9   4  149.96   26.74
   4   9  -4  138.27   23.08
  -4   9   3   99.08   21.54
   4   9  -3  100.97   20.49
  -4   9   3   78.94   21.68
   4   9  -3   89.92   21.51
   4   9  -2   62.59   15.98
  -4   9   2   52.64   18.18
   4   9  -2  109.90   22.53
  -4   9   2   91.44   22.33
  -4   9   1  432.84   38.72
   4   9  -1  454.49   40.81
  -4   9   1  418.45   40.61
   4   9  -1  361.46   34.04
   4   9   0   14.99   13.02
  -4   9   0   34.26   16.24
  -4   9   0    1.16   13.00
   4   9   0   15.91   12.52
  -4   9  -1  252.06   30.62
  -4   9  -1  257.30   32.07
   4   9   1  246.94   29.39
  -4   9  -2  310.90   35.51
   4   9   2  411.20   37.66
  -4   9  -2  339.85   37.27
   4   9   2  354.28   35.72
   4   9   3  122.21   21.52
  -4   9  -3   76.39   25.74
   4   9   3  110.78   23.42
  -4   9  -3  134.81   26.05
   4   9   4  536.34   44.47
  -4   9  -4  463.40   54.14
  -4   9  -4  442.20   45.05
   4   9   4  473.15   38.53
   4   9   5  160.39   28.97
  -4   9  -5   95.01   40.34
   4   9   5  150.99   24.09
  -4   9  -5  159.64   30.77
   4  10  -5  202.93   29.75
   4  10  -5  205.19   29.69
  -4  10   5  190.87   31.15
  -4  10   5  236.19   37.25
  -4  10   4   11.44   15.75
   4  10  -4    5.66   15.17
  -4  10   4   17.98   17.95
   4  10  -4   20.87   17.51
  -4  10   3   38.25   18.49
   4  10  -3   13.68   15.27
  -4  10   3    8.89   16.65
   4  10  -3   28.76   16.50
  -4  10   2  536.11   46.85
   4  10  -2  602.74   50.28
  -4  10   2  582.04   50.34
   4  10  -2  622.01   46.22
  -4  10   1   19.85   15.40
   4  10  -1   46.50   19.28
  -4  10   1    9.56   16.97
   4  10  -1   53.74   20.09
   4  10   0  103.72   24.55
  -4  10   0   94.98   21.83
  -4  10   0  123.48   25.65
   4  10   0   83.57   21.73
  -4  10  -1  193.48   27.46
  -4  10  -1  230.64   32.54
   4  10   1  223.72   30.93
   4  10   1  160.94   27.41
   4  10   2  135.04   25.93
   4  10   2  144.17   26.16
  -4  10  -2  160.45   29.40
   4  10   3   -0.05   13.45
   4  10   3    5.93   17.03
  -4  10  -3   18.08   17.63
  -4  11   3  183.56   32.78
   4  11  -3  168.17   30.18
   4  11  -3  237.15   32.25
  -4  11   2   -2.20   18.57
   4  11  -2   10.87   16.21
   4  11  -2   19.01   18.75
   4  11  -1   64.87   21.37
   4  11  -1   70.62   22.97
  -4  11   1   88.01   25.59
   4  11   0   62.10   21.25
  -4  11   0   94.32   24.63
   4  11   0  117.73   27.28
   4  11   1  116.11   25.76
  -4  11  -1   85.40   25.22
   4  11   1  141.76   29.91
   5 -10  -5   86.11   26.99
   5 -10  -4   43.10   23.87
   5 -10  -3  312.12   44.62
   5 -10  -2  405.22   48.17
   5 -10  -1   12.69   19.72
   5 -10   0   78.05   28.19
   5 -10   1  128.22   33.56
   5 -10   2  323.01   46.02
   5  -9  -6    1.53   17.16
   5  -9  -5   45.26   21.75
   5  -9  -4   39.81   21.11
   5  -9  -3   25.31   16.95
   5  -9  -2  377.04   42.77
   5  -9  -1  105.48   26.14
   5  -9   0  113.04   27.59
   5  -9   1   28.30   18.01
   5  -9   2  234.50   37.19
   5  -9   3  313.95   44.51
   5  -8  -7   28.00   19.52
   5  -8  -6  189.71   31.76
   5  -8  -5   29.93   18.50
   5  -8  -4  187.79   30.93
   5  -8  -3   68.69   22.52
   5  -8  -2  104.74   24.48
   5  -8  -1  988.90   63.19
   5  -8   0   47.51   18.26
   5  -8   1    3.41   14.90
   5  -8   2  125.51   26.03
   5  -8   3   64.15   22.88
   5  -8   4  152.28   31.27
   5  -8   5  160.23   32.89
   5  -7  -8   41.00   18.40
   5  -7  -7  119.82   24.03
   5  -7  -6   47.16   18.27
   5  -7  -5  335.55   36.27
   5  -7  -4  881.07   55.71
   5  -7  -3   90.16   21.85
   5  -7  -2  252.53   31.66
   5  -7  -1   89.18   21.29
  -5  -7   0   88.54   12.44
   5  -7   0  116.28   23.80
  -5  -7  -1  262.28   30.14
   5  -7   1  191.87   29.81
  -5  -7  -2  115.15   29.34
   5  -7   2  123.67   25.65
   5  -7   3  630.65   50.81
  -5  -7  -3  686.79   63.06
   5  -7   4  125.17   27.58
   5  -7   4  142.49   28.80
  -5  -7  -4  219.23   44.50
  -5  -7  -5   57.42   44.71
   5  -7   5   29.06   20.02
   5  -7   5   21.30   19.06
   5  -6  -8  436.56   38.52
  -5  -6   7  306.37   28.16
   5  -6  -7  278.93   30.76
  -5  -6   6  154.47   19.28
   5  -6  -6  122.39   21.78
  -5  -6   5  222.87   20.28
   5  -6  -5  208.77   27.27
  -5  -6   4   82.72   12.72
   5  -6  -4   72.55   18.03
  -5  -6   3  141.33   13.69
   5  -6  -3  195.57   26.26
  -5  -6   2   75.94   10.34
   5  -6  -2  135.29   22.62
  -5  -6   1 1797.64   45.60
   5  -6  -1 1813.92   73.49
  -5  -6   0  362.46   27.00
   5  -6   0  378.61   35.79
   5  -6   1   25.31   14.84
  -5  -6  -1   37.73   20.98
  -5  -6  -2  165.81   33.34
   5  -6   2  249.05   29.53
   5  -6   2  180.61   26.99
  -5  -6  -3  133.59   38.86
   5  -6   3  123.98   22.98
   5  -6   3  126.85   24.35
  -5  -6  -4  403.28   56.84
   5  -6   4  571.63   45.22
   5  -6   4  449.62   42.48
   5  -6   5  265.39   34.00
  -5  -6  -5  217.54   48.29
   5  -6   5  214.42   29.51
   5  -6   6  123.04   26.29
   5  -6   6   79.84   23.09
  -5  -6  -6  148.24   48.92
  -5  -5   9  113.62   23.09
  -5  -5   8  180.93   26.06
   5  -5  -8  142.21   22.45
  -5  -5   7  260.49   28.30
   5  -5  -7  230.15   26.58
  -5  -5   6  123.44   19.84
   5  -5  -6  107.65   19.60
  -5  -5   5 1684.85   57.67
   5  -5  -5 1612.82   65.33
  -5  -5   4 2256.27   61.80
   5  -5  -4 2348.23   77.88
  -5  -5   3  430.28   26.23
   5  -5  -3  395.77   32.68
  -5  -5   2  729.61   31.61
   5  -5  -2  741.87   44.21
  -5  -5   1   77.29   12.63
   5  -5  -1   50.19   15.14
  -5  -5   0  290.54   28.08
   5  -5   0  214.19   26.26
  -5  -5  -1  294.21   38.63
   5  -5   1  287.79   28.25
   5  -5   1  343.61   31.90
  -5  -5  -2  152.65   34.47
   5  -5   2  119.28   19.88
   5  -5   2  121.93   21.05
  -5  -5  -3  380.08   50.21
   5  -5   3  432.16   34.12
   5  -5   3  350.84   33.42
  -5  -5  -4  356.75   55.13
   5  -5   4  366.89   33.50
   5  -5   4  370.94   34.86
   5  -5   5  210.86   26.54
   5  -5   5  193.18   27.44
   5  -5   6  188.88   27.78
   5  -5   6  225.48   29.36
  -5  -5  -7  -18.37   38.99
   5  -5   7   47.18   19.96
  -5  -4  10   34.88   20.84
  -5  -4   9  252.12   32.67
  -5  -4   8  616.37   46.34
   5  -4  -8  543.38   36.70
  -5  -4   7  348.95   33.97
   5  -4  -7  278.55   26.23
  -5  -4   6  198.77   24.73
   5  -4  -6  188.60   22.00
   5  -4  -5   66.15   14.48
  -5  -4   5   70.51   15.78
   5  -4  -4  107.78   17.87
  -5  -4   4   81.32   15.27
  -5  -4   3  102.16   15.50
   5  -4  -3  121.67   18.91
  -5  -4   2  195.01   18.64
   5  -4  -2  151.14   20.27
  -5  -4   1  590.60   32.96
   5  -4  -1  567.27   36.19
  -5  -4   0  476.80   38.45
   5  -4   0  441.94   32.42
   5  -4   0  442.81   29.83
   5  -4   1   13.89   11.93
   5  -4   1   26.52   10.70
   5  -4   2  638.02   38.28
  -5  -4  -2  662.39   61.06
   5  -4   2  645.22   40.42
  -5  -4  -3  348.37   51.20
   5  -4   3  313.65   27.33
   5  -4   3  319.86   29.87
  -5  -4  -4  940.06   80.40
   5  -4   4  870.33   45.85
   5  -4   4  932.00   49.73
  -5  -4  -5   17.82   29.92
   5  -4   5   11.32   10.65
   5  -4   5   39.62   15.43
   5  -4   6   38.05   16.82
   5  -4   6   42.93   14.09
  -5  -4  -7   13.94   39.05
   5  -4   7    0.12   12.84
  -5  -3  10  151.32   29.36
  -5  -3   9   76.19   22.07
  -5  -3   8  302.74   34.64
   5  -3  -8  326.63   27.05
  -5  -3   7 1474.15   68.84
   5  -3  -7 1484.16   55.13
  -5  -3   6  558.46   41.26
   5  -3  -6  533.84   33.38
  -5  -3   5 1290.09   57.63
   5  -3  -5 1302.70   50.34
  -5  -3   4  764.66   42.12
   5  -3  -4  748.54   37.80
  -5  -3   3  249.87   22.91
   5  -3  -3  271.54   23.37
  -5  -3   3  286.09   14.42
  -5  -3   2 2392.65   63.17
   5  -3  -2 2535.34   68.46
  -5  -3   1  376.98   29.05
   5  -3  -1  388.31   27.62
   5  -3  -1  344.15   23.50
  -5  -3   0 1464.07   65.33
   5  -3   0 1348.02   50.72
   5  -3   0 1453.79   48.12
  -5  -3  -1  512.55   48.64
   5  -3   1  496.47   31.54
   5  -3   1  551.30   30.60
   5  -3   2  299.16   24.36
   5  -3   2  278.67   24.80
  -5  -3  -3  299.97   50.79
   5  -3   3  270.18   25.33
   5  -3   3  270.00   23.75
   5  -3   4  175.66   21.18
   5  -3   4  216.86   24.37
  -5  -3  -5  635.02   72.50
   5  -3   5  571.22   37.31
   5  -3   5  630.62   40.25
   5  -3   6  304.97   29.19
   5  -3   6  277.01   28.32
  -5  -3  -7   89.88   49.90
   5  -3   7   90.82   20.03
  -5  -2  10   52.89   23.09
  -5  -2   9  374.53   41.13
   5  -2  -8  980.89   43.05
  -5  -2   8  916.72   60.70
   5  -2  -7  122.02   16.69
  -5  -2   7   95.51   21.53
   5  -2  -6  457.50   28.31
  -5  -2   6  460.41   39.92
   5  -2  -5  212.53   19.97
  -5  -2   5  168.87   24.74
   5  -2  -4  215.57   19.71
  -5  -2   4  216.97   23.41
   5  -2  -3 1180.98   43.49
  -5  -2   3 1191.82   48.83
  -5  -2   2 1131.88   45.56
   5  -2  -2 1165.95   43.56
  -5  -2   2 1116.68   30.45
  -5  -2   1  867.63   45.05
   5  -2  -1  832.36   36.70
   5  -2  -1  805.51   31.31
  -5  -2   0  949.37   56.23
   5  -2   0  890.04   38.40
   5  -2   0  916.25   34.30
   5  -2   1   81.94   12.93
  -5  -2  -1  111.70   32.81
   5  -2   1   99.73   13.41
  -5  -2  -2 1713.14   95.01
   5  -2   2 1669.30   50.42
   5  -2   2 1606.48   53.03
   5  -2   3  378.99   27.29
   5  -2   3  314.00   24.10
   5  -2   4  910.48   41.91
   5  -2   4  947.89   43.77
   5  -2   5  132.62   18.89
  -5  -2  -5   90.63   42.22
   5  -2   5  155.50   21.11
   5  -2   6  365.86   30.74
  -5  -2  -6  308.42   62.16
   5  -2   6  375.54   29.67
  -5  -2  -7  323.00   59.54
   5  -2   7  370.61   33.11
  -5  -2  -8  102.30   51.38
   5  -2   8  181.10   26.41
  -5  -1  10  105.59   26.96
  -5  -1   9  314.56   41.69
   5  -1  -8   53.56   12.05
  -5  -1   8   69.00   22.51
   5  -1  -7  832.50   36.80
  -5  -1   7  835.42   56.61
  -5  -1   6    3.83   14.36
   5  -1  -6   10.52    6.55
  -5  -1   5   48.75   15.37
   5  -1  -5   40.36    9.90
   5  -1  -4   70.60   10.94
  -5  -1   4   58.38   14.39
   5  -1  -3  293.04   20.68
  -5  -1   3  301.75   26.74
   5  -1  -2  904.37   35.40
   5  -1  -2  892.30   27.30
  -5  -1   2  900.00   42.83
  -5  -1   2  862.39   22.88
   5  -1  -1 1665.97   48.28
  -5  -1   1 1697.69   64.73
   5  -1  -1 1622.24   38.55
   5  -1   0 1407.84   45.06
   5  -1   0 1459.82   39.80
   5  -1   1  184.61   17.17
  -5  -1  -1  174.20   31.75
   5  -1   1  203.06   16.21
  -5  -1  -2 1001.37   73.80
   5  -1   2  942.12   37.75
   5  -1   2  895.32   35.32
  -5  -1  -3 1256.22   89.97
   5  -1   3 1215.17   43.65
   5  -1   3 1206.23   44.91
  -5  -1  -4  105.83   47.90
   5  -1   4   94.34   14.89
   5  -1   4   98.27   15.49
   5  -1   5  215.15   22.01
   5  -1   5  240.54   22.88
  -5  -1  -6  180.21   52.38
   5  -1   6  218.37   23.63
   5  -1   6  279.06   25.52
  -5  -1  -7   95.63   47.76
   5  -1   7   74.99   16.57
  -5  -1  -8  -77.97   50.50
   5  -1   8    3.56   14.16
  -5   0  10   60.98   24.86
  -5   0   9  221.45   35.79
   5   0  -8  234.20   20.30
  -5   0   8  271.62   38.48
  -5   0   7   45.65   18.54
   5   0  -7   51.61   10.08
   5   0  -6  681.75   30.90
  -5   0   6  663.95   49.24
  -5   0   5   -5.64   12.44
   5   0  -5   -1.89    4.71
   5   0  -4  220.51   17.74
  -5   0   4  161.81   23.09
   5   0  -3  926.39   34.51
  -5   0   3  930.10   45.91
  -5   0   3  978.70   22.08
   5   0  -2  195.09   16.29
  -5   0   2  220.68   11.56
  -5   0   2  207.53   22.23
   5   0  -2  245.47   12.20
   5   0  -1  749.33   31.12
  -5   0   1  733.23   43.75
   5   0  -1  720.90   23.48
   5   0   0 1249.48   40.50
   5   0   0 1239.63   34.16
  -5   0   0 1304.92   68.02
   5   0   1   88.15   11.75
   5   0   1   72.06   10.06
  -5   0  -1   96.24   29.53
  -5   0  -2 2165.00  108.01
   5   0   2 2158.20   53.63
   5   0   2 2046.19   52.83
   5   0   3   66.36   12.21
  -5   0  -3  100.69   40.55
   5   0   3   52.27    9.63
  -5   0  -4  998.61   86.00
   5   0   4  989.22   42.79
   5   0   4  993.89   39.06
   5   0   5   22.99    9.14
  -5   0  -5   21.68   36.15
   5   0   5   18.50   11.27
  -5   0  -6  686.78   81.97
   5   0   6  603.43   38.83
  -5   0  -7  547.46   80.67
   5   0   7  714.66   44.86
  -5   0  -8   63.39   57.72
   5   0   8  -12.56   13.31
  -5   1  10   93.75   28.46
   5   1  -9  232.09   20.11
  -5   1   9  259.21   39.60
   5   1  -8   63.73   11.95
  -5   1   8   58.56   23.37
   5   1  -7  782.91   33.96
  -5   1   7  703.94   17.42
  -5   1   6   11.30    2.80
   5   1  -6    0.46    5.83
  -5   1   6   -2.10   14.46
   5   1  -5   49.63    9.57
  -5   1   5   61.16   19.05
  -5   1   5   54.06    4.93
  -5   1   4   52.82    4.96
  -5   1   4   70.22   16.79
  -5   1   4   67.17    6.73
   5   1  -4   68.68   10.37
  -5   1   3  295.45   12.53
  -5   1   3  278.26   26.80
   5   1  -3  297.85    9.49
  -5   1   3  350.98   16.66
   5   1  -3  307.22   20.72
   5   1  -2  884.95   20.95
   5   1  -2  963.64   35.82
  -5   1   1 1777.03   70.00
   5   1  -1 1675.26   34.85
   5   1  -1 1735.09   48.18
   5   1   0 1544.96   38.47
  -5   1   0 1436.10   72.16
   5   1   0 1410.12   43.16
   5   1   1  219.63   17.21
   5   1   1  207.10   16.00
  -5   1  -1  164.20   35.66
   5   1   2  906.86   33.97
  -5   1  -2  903.20   73.48
   5   1   2  905.84   35.49
   5   1   3 1326.68   41.91
  -5   1  -3 1270.28   95.59
   5   1   3 1319.94   46.81
   5   1   4   94.80   12.43
   5   1   4  103.01   15.17
   5   1   5  202.90   22.88
   5   1   5  215.48   19.02
  -5   1  -5  154.74   49.96
   5   1   6  226.77   25.42
  -5   1  -6  201.29   56.52
  -5   1  -7   79.87   50.58
   5   1   7   79.17   18.24
  -5   1  -8  -25.27   45.37
   5   1   8   34.65   16.40
  -5   2  10   35.93   25.31
   5   2  -9  355.13   24.07
  -5   2   9  288.13   42.02
  -5   2   8 1135.24   73.86
   5   2  -8 1004.88   39.56
  -5   2   7  116.32   10.31
  -5   2   7  108.45   25.26
   5   2  -7  125.50   15.65
  -5   2   6  462.72   43.26
   5   2  -6  492.20   27.74
  -5   2   6  508.51   20.43
  -5   2   5  227.06   30.94
  -5   2   5  225.68   14.61
  -5   2   5  269.84   15.94
   5   2  -5  234.02   19.07
  -5   2   4  191.44   24.79
  -5   2   4  188.23   13.69
   5   2  -4  222.32   18.99
   5   2  -3 1125.47   18.45
  -5   2   3 1246.24   56.55
  -5   2   3 1193.06   35.04
   5   2  -3 1233.95   42.88
  -5   2   2 1170.68   54.39
   5   2  -2 1156.13   41.01
   5   2  -2 1128.62   25.09
   5   2  -1  913.65   26.77
  -5   2   1  963.30   52.80
   5   2  -1  874.54   35.26
   5   2   0  853.21   29.77
  -5   2   0  902.07   56.77
   5   2   0  855.66   34.92
   5   2   1   66.64   10.55
  -5   2  -1   53.82   26.68
   5   2   1   63.31   10.34
  -5   2  -2 1745.89   97.07
   5   2   2 1769.59   50.79
   5   2   2 1669.38   47.84
   5   2   3  347.14   21.57
  -5   2  -3  368.85   58.19
   5   2   3  330.35   24.55
   5   2   4  879.52   34.16
  -5   2  -4  840.47   83.50
   5   2   4  904.78   42.88
   5   2   5  153.67   15.31
   5   2   5  172.75   21.51
  -5   2  -5  160.13   47.76
   5   2   6  382.61   32.83
  -5   2  -6  311.21   61.57
  -5   2  -7  306.16   70.07
   5   2   7  352.50   33.63
   5   2   8  248.28   30.64
  -5   2  -8  273.53   73.91
  -5   3  10  149.04   34.71
   5   3  -9   59.44   13.36
  -5   3   9   48.88   24.80
  -5   3   8  296.86   20.08
  -5   3   8  266.59   38.92
   5   3  -8  298.34   23.64
   5   3  -7 1419.37   49.32
  -5   3   7 1348.00   40.81
   5   3  -6  614.43   32.88
  -5   3   6  583.60   27.44
  -5   3   5 1219.55   66.30
  -5   3   5 1268.46   40.41
   5   3  -5 1385.13   48.36
  -5   3   4  715.48   47.03
   5   3  -4  609.54   11.90
  -5   3   4  804.94   32.06
   5   3  -4  843.02   37.42
   5   3  -3  314.06   12.43
  -5   3   3  274.77   20.33
   5   3  -3  324.42   23.62
   5   3  -2 2351.11   41.41
  -5   3   2 2303.57   77.61
  -5   3   2 2202.02   58.33
   5   3  -2 2325.91   60.93
   5   3  -1  388.09   19.68
  -5   3   1  401.40   34.72
   5   3  -1  336.23   23.46
   5   3   0 1443.61   41.35
   5   3   0 1423.23   46.88
   5   3   1  515.12   27.38
  -5   3  -1  518.00   50.41
   5   3   1  490.05   28.14
   5   3   2  227.28   20.29
   5   3   2  284.36   21.46
   5   3   3  361.94   27.96
  -5   3  -3  339.53   58.50
   5   3   3  330.97   22.80
  -5   3  -4  163.73   48.34
   5   3   4  140.25   18.74
   5   3   4  165.64   16.31
   5   3   5  522.85   27.31
  -5   3  -5  430.36   69.88
   5   3   5  538.07   36.48
   5   3   6  273.11   28.44
  -5   3  -6  255.64   62.59
  -5   3  -7   27.57   42.61
   5   3   7   75.29   19.08
  -5   4  10  -26.62   27.39
  -5   4   9  218.14   38.91
   5   4  -9  244.90   22.92
  -5   4   8  568.00   31.62
  -5   4   8  577.94   56.50
   5   4  -8  570.75   34.32
  -5   4   7  341.73   43.25
   5   4  -7  350.91   26.63
  -5   4   7  401.25   26.76
  -5   4   6  197.01   33.25
   5   4  -6  199.13   20.14
  -5   4   6  214.90   20.64
  -5   4   5   62.51   12.46
   5   4  -5   77.90   14.14
  -5   4   5   62.75   19.06
   5   4  -5   62.06    5.72
   5   4  -4   72.96    8.98
  -5   4   4   75.17   19.00
  -5   4   4   86.85   13.76
   5   4  -4   88.51   14.51
   5   4  -4   82.84    7.72
  -5   4   3  124.31   21.71
  -5   4   3  119.62   16.14
   5   4  -3  113.96   15.98
   5   4  -3  107.22    9.82
   5   4  -2  140.93   12.61
  -5   4   2  151.86   23.04
  -5   4   2  170.62   19.00
   5   4  -2  145.74   17.04
  -5   4   1  569.20   42.23
   5   4  -1  635.06   27.86
  -5   4   1  619.21   35.23
   5   4  -1  608.23   34.06
   5   4   0  444.41   25.17
  -5   4   0  420.49   40.46
   5   4   0  471.22   29.39
   5   4   1   21.43    9.03
   5   4   1    9.76    8.15
  -5   4  -1   12.29   23.30
   5   4   2  680.21   35.12
  -5   4  -2  697.28   64.67
   5   4   2  674.74   34.10
   5   4   3  254.02   23.32
  -5   4  -3  223.85   47.54
   5   4   3  336.94   23.92
   5   4   4 1011.48   48.12
  -5   4  -4 1045.07   94.83
   5   4   4  888.04   37.61
  -5   4  -5   41.59   46.20
   5   4   5   21.38   11.39
   5   4   5   27.22    8.91
  -5   4  -6  130.83   53.37
   5   4   6   60.72   18.12
  -5   4  -7   40.91   49.19
   5   4   7   18.19   13.72
   5   5  -9   49.15   13.77
  -5   5   9   50.38   27.44
  -5   5   8  167.35   32.25
   5   5  -8  152.85   20.52
  -5   5   8  150.06   20.29
  -5   5   7  222.65   36.67
   5   5  -7  280.05   26.30
  -5   5   7  239.90   23.52
  -5   5   6  112.72   26.64
   5   5  -6  117.40   17.94
  -5   5   6  139.44   18.15
  -5   5   5 1518.19   76.78
   5   5  -5 1656.06   62.23
  -5   5   5 1593.53   55.57
   5   5  -5 1674.09   38.25
  -5   5   4 2145.57   85.48
  -5   5   4 2278.46   67.95
   5   5  -4 2271.04   70.00
   5   5  -4 2302.00   47.60
  -5   5   3  401.87   36.52
   5   5  -3  366.67   28.99
   5   5  -3  413.96   21.75
  -5   5   2  717.56   47.19
  -5   5   2  739.88   40.50
   5   5  -2  700.18   39.11
   5   5  -2  689.70   30.22
   5   5  -1   54.82   13.33
   5   5  -1   39.00    9.87
  -5   5   1   40.67   16.25
  -5   5   1   54.24   14.98
   5   5   0  306.99   23.08
  -5   5   0  240.87   30.83
  -5   5   0  268.52   26.18
   5   5   1  342.43   25.36
  -5   5  -1  356.19   41.01
   5   5   1  332.52   26.38
   5   5   2  110.80   16.75
   5   5   2  100.15   15.58
   5   5   3  336.19   28.98
  -5   5  -3  381.84   57.83
   5   5   3  360.22   26.30
   5   5   4  342.74   29.95
  -5   5  -4  375.43   61.29
   5   5   4  366.21   26.25
   5   5   5  222.05   26.39
  -5   5  -5  179.18   57.72
   5   5   5  194.27   19.12
   5   5   6  190.46   26.72
  -5   5  -6  263.36   65.21
   5   5   7   22.27   15.02
  -5   5  -7   73.47   52.14
   5   6  -9   32.05   14.17
  -5   6   9   49.71   25.95
  -5   6   8  492.11   53.80
   5   6  -8  517.97   38.00
  -5   6   8  471.93   34.84
  -5   6   7  258.90   39.62
   5   6  -7  335.42   30.67
  -5   6   7  262.78   27.25
  -5   6   6  150.86   31.23
   5   6  -6  154.53   21.29
  -5   6   6  137.44   21.15
  -5   6   5  217.88   32.95
   5   6  -5  219.92   24.86
  -5   6   5  216.89   23.92
   5   6  -5  236.51   18.61
  -5   6   4   91.29   16.27
   5   6  -4   67.90   15.35
  -5   6   4   87.88   23.10
   5   6  -4  101.23   13.98
  -5   6   3  171.42   28.18
  -5   6   3  225.90   25.15
   5   6  -3  193.46   22.98
   5   6  -3  236.76   20.11
   5   6  -2   86.36   16.23
  -5   6   2   78.65   20.81
  -5   6   2  101.44   18.38
   5   6  -2  105.65   15.34
  -5   6   1 1852.61   75.95
  -5   6   1 1795.03   68.24
   5   6  -1 1800.52   64.88
   5   6  -1 1816.63   56.08
  -5   6   0  402.19   38.84
  -5   6   0  327.28   30.62
   5   6   0  314.15   27.73
   5   6   0  351.03   26.47
   5   6   1   22.96   11.49
   5   6   1   23.81   11.28
  -5   6  -1   11.35   16.82
  -5   6  -1    0.61   10.94
   5   6   2  214.25   23.46
  -5   6  -2  172.49   33.08
   5   6   2  194.01   21.95
   5   6   3  109.67   20.11
  -5   6  -3  168.55   44.24
   5   6   3  130.99   18.05
   5   6   4  489.12   36.70
  -5   6  -4  459.78   67.57
   5   6   4  552.46   33.71
   5   6   5  212.07   26.91
  -5   6  -5  265.26   63.55
   5   6   5  207.40   21.17
  -5   6  -6  119.37   57.00
   5   6   6  129.03   23.37
   5   7  -8   51.56   16.83
  -5   7   8   44.47   17.77
  -5   7   8   29.57   25.36
  -5   7   7   82.40   30.04
   5   7  -7  135.98   22.95
  -5   7   7  131.44   22.74
  -5   7   6   40.76   15.69
   5   7  -6   37.91   15.37
  -5   7   6   33.08   21.56
  -5   7   5  326.07   39.76
   5   7  -5  362.79   32.89
  -5   7   5  322.03   31.58
   5   7  -5  404.26   27.62
  -5   7   4  892.38   60.64
   5   7  -4 1024.57   53.90
  -5   7   4  970.50   52.33
   5   7  -4 1004.46   42.97
  -5   7   3  138.14   25.49
   5   7  -3  124.99   20.75
   5   7  -3  125.83   17.81
  -5   7   3   82.25   19.37
  -5   7   2  276.17   32.74
   5   7  -2  249.66   27.24
  -5   7   2  236.81   28.62
   5   7  -2  268.97   24.23
  -5   7   1   84.94   19.59
  -5   7   1  137.87   22.79
   5   7  -1  119.00   20.30
   5   7  -1  120.13   17.86
  -5   7   0   78.04   20.22
   5   7   0  128.35   20.04
  -5   7   0   84.66   19.53
   5   7   0  126.80   18.14
  -5   7  -1  216.53   32.96
  -5   7  -1  204.75   26.58
   5   7   1  254.34   26.64
   5   7   1  225.01   24.37
   5   7   2  103.61   18.36
   5   7   2  102.72   18.40
  -5   7  -2  117.52   29.55
  -5   7  -2   63.67   17.74
   5   7   3  596.43   41.13
  -5   7  -3  644.06   65.94
   5   7   3  589.77   38.88
   5   7   4  121.35   21.88
  -5   7  -4  108.03   44.16
   5   7   4  137.36   20.31
   5   7   5   12.08   10.81
   5   7   5    4.67   11.88
   5   8  -7   27.45   14.78
  -5   8   7   17.08   16.88
  -5   8   7    7.06   20.87
  -5   8   6  231.85   39.38
   5   8  -6  196.44   26.85
  -5   8   6  206.32   28.93
  -5   8   5   54.16   18.19
   5   8  -5   40.42   14.85
  -5   8   5   61.79   24.46
  -5   8   4  197.79   33.30
   5   8  -4  151.52   24.54
  -5   8   4  152.95   25.24
   5   8  -4  157.98   21.57
   5   8  -3  102.44   20.24
   5   8  -3   79.20   16.45
  -5   8   3   79.50   22.89
  -5   8   3   92.78   21.84
   5   8  -2   99.97   21.49
  -5   8   2  117.87   24.79
   5   8  -2  120.65   19.14
  -5   8   2  110.68   23.29
  -5   8   1  853.07   55.15
   5   8  -1  964.01   55.50
  -5   8   1  861.67   54.68
   5   8  -1  980.46   49.27
   5   8   0    1.52   12.40
  -5   8   0   24.19   15.95
   5   8   0   27.47   12.51
  -5   8   0   15.48   12.34
   5   8   1   50.34   16.84
   5   8   1   27.38   13.75
  -5   8  -1   29.20   19.09
  -5   8  -1   27.26   16.45
   5   8   2  115.36   20.14
   5   8   2  103.46   19.42
  -5   8  -2   90.76   25.40
  -5   8  -2   58.95   18.98
   5   8   3  104.08   21.38
   5   8   3   89.59   18.39
  -5   8  -3   91.94   34.28
  -5   8  -3   69.71   20.49
  -5   8  -4  136.46   44.40
   5   8   4   73.64   19.29
  -5   8  -4  102.73   23.69
   5   8   4  106.21   19.69
   5   8   5  134.20   24.96
  -5   8  -5  130.45   51.43
   5   9  -6    3.00   12.17
  -5   9   6   23.24   16.59
  -5   9   6   12.23   22.31
  -5   9   5   32.93   17.47
   5   9  -5   56.54   18.25
  -5   9   5   48.04   22.00
  -5   9   4   34.26   19.17
   5   9  -4   20.52   13.42
   5   9  -4   24.48   14.57
  -5   9   4   20.24   19.23
   5   9  -3    9.02   13.43
   5   9  -3   20.64   16.06
  -5   9   3   15.83   17.24
  -5   9   3   15.81   17.26
  -5   9   2  314.11   36.91
   5   9  -2  381.08   38.95
  -5   9   2  397.72   40.46
   5   9  -2  338.46   32.62
   5   9  -1   63.94   18.01
   5   9  -1   64.28   16.99
  -5   9   1   64.64   20.25
  -5   9   1   63.30   20.98
   5   9   0  127.32   22.37
  -5   9   0  170.18   29.79
   5   9   0  131.37   23.84
  -5   9   0  172.27   27.75
   5   9   1   33.84   16.94
   5   9   1   20.30   13.88
  -5   9  -1   41.82   18.64
  -5   9  -1   45.77   21.52
  -5   9  -2  228.42   34.84
  -5   9  -2  175.30   29.80
   5   9   2  277.05   31.99
   5   9   2  212.51   27.78
   5   9   3  305.79   34.22
  -5   9  -3  318.52   44.19
  -5   9  -3  276.24   35.53
   5   9   3  306.89   33.15
  -5  10   5   54.94   22.29
   5  10  -5   26.89   15.18
  -5  10   5   34.92   24.45
  -5  10   4   21.67   18.84
   5  10  -4   54.25   20.37
   5  10  -4   74.21   20.83
  -5  10   4   37.84   22.99
  -5  10   3  269.65   38.92
   5  10  -3  301.96   37.10
  -5  10   3  301.23   39.45
   5  10  -3  280.13   32.98
  -5  10   2  400.42   42.96
   5  10  -2  440.84   44.15
  -5  10   2  393.32   43.21
   5  10  -2  372.93   37.69
   5  10  -1   11.85   14.98
   5  10  -1   27.80   15.64
  -5  10   1   30.46   21.03
  -5  10   1   15.23   17.23
   5  10   0   58.63   20.28
   5  10   0   33.67   16.50
  -5  10   0   45.60   19.53
  -5  10   0   74.62   22.51
   5  10   1  140.94   26.34
  -5  10  -1  104.50   25.83
  -5  10  -1   73.40   22.12
   5  10   1  153.81   26.00
  -5  10  -2  223.30   34.24
   5  10   2  285.85   34.41
   5  10   2  211.70   30.86
   6 -10  -3   56.60   28.56
   6 -10  -2  108.03   31.98
   6 -10  -1   40.64   22.62
   6  -9  -5   14.45   18.22
   6  -9  -4   23.83   20.15
   6  -9  -3  311.80   42.58
   6  -9  -2   -3.78   17.04
   6  -9  -1  121.74   30.43
   6  -9   0   71.31   22.98
   6  -9   1   32.58   20.86
   6  -9   2   80.28   26.32
   6  -8  -7  199.85   34.04
   6  -8  -6    7.20   18.43
   6  -8  -5   80.78   25.16
   6  -8  -4  310.65   38.78
   6  -8  -3  115.21   26.00
   6  -8  -2  683.27   54.96
   6  -8  -1   27.36   17.67
   6  -8   0   59.45   23.44
   6  -8   1  148.94   30.29
   6  -8   2   57.94   22.24
   6  -8   3  165.00   33.83
   6  -7  -8  249.52   34.02
   6  -7  -7   24.77   16.68
   6  -7  -6  186.58   29.76
   6  -7  -5   -0.28   13.78
   6  -7  -4  144.84   25.16
   6  -7  -3   36.43   16.66
   6  -7  -2  383.42   39.49
   6  -7  -1  456.35   43.38
   6  -7   0  138.43   25.31
   6  -7   1  166.65   29.47
  -6  -7  -2  330.04   44.40
   6  -7   2  354.71   39.26
  -6  -7  -3  142.57   39.61
   6  -7   3  128.36   26.66
  -6  -7  -4   87.72   38.87
   6  -7   4   81.75   24.98
   6  -7   4   82.79   24.93
   6  -6  -8  323.28   35.62
   6  -6  -7   82.57   21.35
   6  -6  -6   77.92   20.04
  -6  -6   5  108.32   18.55
   6  -6  -5   82.44   20.93
  -6  -6   4   33.28   12.25
   6  -6  -4   57.05   17.56
  -6  -6   3  292.62   23.92
   6  -6  -3  386.91   37.89
  -6  -6   2 1383.82   47.23
   6  -6  -2 1579.51   72.66
  -6  -6   1  384.93   26.73
   6  -6  -1  355.70   36.95
  -6  -6   0  541.00   38.44
   6  -6   0  493.20   41.63
  -6  -6  -1  383.17   41.62
   6  -6   1  396.54   37.93
   6  -6   2   61.03   21.20
  -6  -6  -2   48.09   30.71
   6  -6   2   66.88   19.68
  -6  -6  -3  385.97   54.30
   6  -6   3  392.00   39.00
   6  -6   3  366.63   38.62
  -6  -6  -4   74.87   38.75
   6  -6   4  110.32   25.00
   6  -6   4   61.51   20.16
  -6  -6  -5   54.97   41.82
   6  -6   5  124.45   26.72
   6  -6   5   98.72   24.33
  -6  -5   9   88.87   22.91
  -6  -5   8  729.72   50.91
   6  -5  -8  637.58   45.54
  -6  -5   7   45.08   18.44
   6  -5  -7   51.42   17.52
  -6  -5   6  280.73   29.89
   6  -5  -6  357.93   34.52
  -6  -5   5   38.32   14.89
   6  -5  -5   92.60   19.78
  -6  -5   4  246.30   25.45
   6  -5  -4  279.63   29.59
  -6  -5   3  699.72   36.98
   6  -5  -3  658.42   44.62
  -6  -5   2  673.60   35.85
   6  -5  -2  685.74   45.61
   6  -5  -1  476.50   38.24
  -6  -5   1  498.86   32.74
  -6  -5   0  773.26   48.80
   6  -5   0  783.05   48.32
  -6  -5  -1  307.52   38.11
   6  -5   1  305.14   32.42
   6  -5   1  305.28   31.44
  -6  -5  -2  545.29   57.78
   6  -5   2  468.01   37.83
   6  -5   2  409.98   37.52
   6  -5   3   26.88   15.45
  -6  -5  -3    4.53   35.17
   6  -5   3   64.16   17.93
  -6  -5  -4  328.99   59.59
   6  -5   4  352.22   34.81
   6  -5   4  376.93   38.62
  -6  -5  -5  151.12   51.38
   6  -5   5  185.29   26.65
   6  -5   5  191.36   30.06
  -6  -5  -6  108.38   49.91
   6  -5   6   46.11   18.29
  -6  -4   9    6.61   17.50
  -6  -4   8    2.25   17.17
   6  -4  -8    7.99   13.28
  -6  -4   7  241.11   30.98
   6  -4  -7  242.25   28.47
   6  -4  -6   84.42   17.08
  -6  -4   6   61.63   18.81
   6  -4  -5   14.05   11.76
  -6  -4   5   22.29   13.44
  -6  -4   4  302.37   28.33
   6  -4  -4  326.90   29.94
  -6  -4   3  488.53   32.61
   6  -4  -3  504.88   36.44
  -6  -4   2 1160.40   48.99
   6  -4  -2 1155.95   54.13
  -6  -4   1  527.81   36.61
   6  -4  -1  503.54   36.67
  -6  -4   0 1597.63   70.83
   6  -4   0 1514.19   62.66
   6  -4   0 1724.34   61.08
  -6  -4  -1  323.99   41.67
   6  -4   1  308.55   27.58
   6  -4   1  306.78   30.18
  -6  -4  -2  289.16   45.33
   6  -4   2  217.11   24.34
   6  -4   2  217.33   26.21
  -6  -4  -3  331.28   54.27
   6  -4   3  267.04   27.52
   6  -4   3  268.84   29.47
  -6  -4  -4   45.61   39.73
   6  -4   4   40.05   15.09
   6  -4   4    2.11   13.22
   6  -4   5   48.42   18.16
  -6  -4  -5   94.21   42.88
   6  -4   5   54.67   15.55
  -6  -4  -6   31.30   44.50
   6  -4   6    6.45   12.92
  -6  -3  10  266.00   38.97
  -6  -3   9   56.74   22.35
  -6  -3   8  640.83   51.51
   6  -3  -8  622.44   40.57
   6  -3  -7   34.63   13.11
  -6  -3   7   25.42   16.87
  -6  -3   6 1139.31   62.42
   6  -3  -6 1208.48   53.02
  -6  -3   5  339.24   33.38
   6  -3  -5  296.80   26.63
  -6  -3   4 1194.19   55.50
   6  -3  -4 1264.68   52.66
  -6  -3   3 2034.80   67.09
   6  -3  -3 1965.75   65.15
  -6  -3   3 2038.08   42.54
  -6  -3   2  334.27   28.12
   6  -3  -2  294.33   26.37
   6  -3  -1   15.37    8.67
  -6  -3   1   22.08   15.04
   6  -3  -1   18.89    9.07
  -6  -3   0  558.95   46.52
   6  -3   0  598.24   37.07
   6  -3   0  548.79   32.70
  -6  -3  -1   58.00   28.96
   6  -3   1   44.81   12.69
   6  -3   1   60.03   12.85
  -6  -3  -2  705.62   67.12
   6  -3   2  793.02   40.64
   6  -3   2  791.56   43.40
  -6  -3  -3   55.97   34.11
   6  -3   3   30.60   13.36
   6  -3   3   48.62   13.29
  -6  -3  -4  941.81   90.27
   6  -3   4 1062.03   50.86
   6  -3   4 1120.81   56.74
  -6  -3  -5  139.71   51.24
   6  -3   5  106.59   19.62
   6  -3   5  113.63   21.97
  -6  -3  -6  177.37   58.22
   6  -3   6   64.84   17.10
  -6  -2  10   99.01   29.13
   6  -2  -9  111.69   18.62
  -6  -2   9   88.35   25.87
   6  -2  -8  167.36   21.47
  -6  -2   8  206.59   33.20
   6  -2  -7  607.15   36.53
  -6  -2   7  613.23   50.05
   6  -2  -6  513.09   33.06
  -6  -2   6  468.75   41.76
   6  -2  -5   92.07   15.46
  -6  -2   5   44.71   16.81
   6  -2  -4  225.14   22.28
  -6  -2   4  213.96   25.94
   6  -2  -3  361.27   26.52
  -6  -2   3  367.43   30.71
  -6  -2   3  363.02   16.42
  -6  -2   2 1980.44   68.69
   6  -2  -2 1891.73   60.26
   6  -2  -2 1900.67   50.07
  -6  -2   1  299.80   31.67
   6  -2  -1  254.27   23.37
   6  -2  -1  265.28   19.88
  -6  -2   0  551.68   47.67
   6  -2   0  582.84   34.27
   6  -2   0  665.08   31.62
   6  -2   1   44.27   11.26
  -6  -2  -1   28.77   24.47
   6  -2   1   20.19    8.19
  -6  -2  -2  311.00   51.14
   6  -2   2  300.64   25.97
   6  -2   2  335.51   26.17
  -6  -2  -3   94.49   40.95
   6  -2   3   32.02   11.87
   6  -2   3   65.19   12.65
   6  -2   4  222.30   23.69
   6  -2   4  274.03   26.42
  -6  -2  -5  -16.44   37.33
   6  -2   5   10.74   10.13
   6  -2   5    7.35   10.92
  -6  -2  -6   62.07   45.83
   6  -2   6   11.88   11.82
  -6  -2  -7   33.54   56.01
   6  -2   7   44.33   16.37
  -6  -1  10  146.35   33.41
   6  -1  -9   51.13   13.97
  -6  -1   9   60.80   23.41
   6  -1  -8  520.90   33.65
  -6  -1   8  457.40   48.94
  -6  -1   7   33.85   17.51
   6  -1  -7   33.51   10.73
   6  -1  -6 1796.34   57.35
  -6  -1   6 1746.21   78.96
   6  -1  -5  152.70   17.41
  -6  -1   5  126.62   22.47
   6  -1  -4  746.16   36.04
  -6  -1   4  795.89   48.34
   6  -1  -3  634.60   32.95
  -6  -1   3  582.02   39.60
  -6  -1   3  561.78   18.57
   6  -1  -2  712.40   35.05
  -6  -1   2  736.88   44.82
   6  -1  -2  701.13   27.32
  -6  -1   1  503.93   40.21
   6  -1  -1  434.77   27.73
   6  -1  -1  449.02   22.74
  -6  -1   0  355.99   40.96
   6  -1   0  279.80   20.55
   6  -1   0  304.40   23.94
  -6  -1  -1  269.25   43.74
   6  -1   1  345.66   25.66
   6  -1   1  307.94   21.80
  -6  -1  -2  830.75   71.83
   6  -1   2  813.02   39.34
   6  -1   2  853.50   37.29
   6  -1   3   32.13   10.98
  -6  -1  -3   47.36   38.99
   6  -1   3   26.88    9.58
  -6  -1  -4 1265.82  104.79
   6  -1   4 1197.43   49.65
   6  -1   4 1219.36   50.76
  -6  -1  -5  200.75   61.54
   6  -1   5  154.06   20.82
   6  -1   5  153.19   20.73
  -6  -1  -6  -16.57   49.03
   6  -1   6   72.13   16.57
  -6  -1  -7  359.42   75.49
   6  -1   7  331.39   33.07
  -6   0  10  105.33   30.17
  -6   0   9    1.06   18.80
   6   0  -9   22.85   10.20
  -6   0   8   77.93   23.34
   6   0  -8   30.76   10.42
   6   0  -7  734.57   36.89
  -6   0   7  751.55   58.50
  -6   0   6    4.85   13.48
   6   0  -6    5.90    7.74
   6   0  -5  481.72   28.16
  -6   0   5  531.70   42.10
   6   0  -4  460.50   27.40
  -6   0   4  498.43   38.79
  -6   0   3  133.23    9.00
   6   0  -3  130.10   14.97
  -6   0   3  130.06   20.87
   6   0  -2 3916.77   77.98
  -6   0   2 3886.23  102.10
   6   0  -2 3709.95   53.58
   6   0  -1  724.53   34.47
  -6   0   1  783.06   51.28
   6   0  -1  770.35   27.71
  -6   0   0    3.53   19.86
   6   0   0   15.89    7.10
   6   0   0    3.67    6.58
   6   0   1   13.33    6.89
   6   0   1    6.75    6.65
   6   0   2   49.43   11.05
   6   0   2   53.42   10.95
   6   0   3   12.50    8.60
   6   0   3   19.90    9.41
   6   0   4  173.57   20.36
  -6   0  -4  190.99   52.68
   6   0   4  167.02   19.65
   6   0   5    7.44    8.74
   6   0   5   22.96   11.13
  -6   0  -6  -36.32   47.34
   6   0   6   16.47   11.08
  -6   0  -7   47.72   51.23
   6   0   7   93.17   20.22
  -6   1  10  144.15   34.04
  -6   1   9   70.65   25.40
   6   1  -9   47.27   12.66
   6   1  -8  520.40   31.10
  -6   1   8  666.95   59.68
  -6   1   7   28.04   14.59
   6   1  -7   23.59    9.93
   6   1  -6 1838.10   55.52
  -6   1   6 1750.58   84.03
  -6   1   5   70.65    5.06
  -6   1   5  103.11    6.52
   6   1  -4  843.13   36.84
  -6   1   4  707.67   18.81
  -6   1   4  757.43   49.31
  -6   1   4  834.46   23.70
   6   1  -3  565.11   29.96
  -6   1   3  608.32   42.46
   6   1  -3  633.36   17.35
  -6   1   3  598.90   25.14
   6   1  -2  725.19   34.19
  -6   1   2  768.46   47.87
   6   1  -2  685.35   21.70
   6   1  -1  413.30   26.49
  -6   1   1  463.69   41.05
   6   1  -1  512.69   22.15
   6   1   0  269.21   21.89
  -6   1   0  324.44   40.08
   6   1   0  275.52   18.21
   6   1   1  334.52   23.65
  -6   1  -1  332.72   46.01
   6   1   1  307.52   21.63
   6   1   2  888.27   38.17
   6   1   2  798.86   36.52
  -6   1  -3   38.83   36.53
   6   1   3   28.13   10.93
   6   1   3   18.76    8.48
  -6   1  -4 1123.42  100.43
   6   1   4 1183.86   45.41
   6   1   4 1260.60   52.35
   6   1   5  174.36   22.84
   6   1   5  137.07   17.22
   6   1   6  121.61   20.94
  -6   1  -6   73.02   51.50
   6   1   7  301.64   32.69
  -6   1  -7  254.84   70.00
  -6   2  10  162.18   38.33
   6   2  -9  101.86   16.16
  -6   2   9  143.29   32.55
   6   2  -8  139.87   17.79
  -6   2   8  191.11   34.89
  -6   2   7  636.55   54.97
   6   2  -7  534.55   32.04
  -6   2   6  486.19   45.31
  -6   2   6  509.93   19.25
   6   2  -6  441.71   28.74
   6   2  -5   63.81   12.15
  -6   2   5   67.33   19.32
  -6   2   5   74.35    9.58
  -6   2   4  264.97   31.56
  -6   2   4  232.75   16.18
   6   2  -4  271.08   22.66
  -6   2   3  351.26   34.14
   6   2  -3  349.85   12.49
  -6   2   3  357.50   22.54
   6   2  -3  388.88   26.24
  -6   2   2 1986.19   76.45
   6   2  -2 1981.57   38.11
   6   2  -2 1991.11   58.32
  -6   2   1  302.64   34.72
   6   2  -1  287.34   17.24
   6   2  -1  302.01   23.38
  -6   2   0  611.46   52.14
   6   2   0  584.46   26.51
   6   2   0  576.55   31.57
  -6   2  -1   16.96   23.24
   6   2   1   17.32    8.31
   6   2   1   34.12    9.80
   6   2   2  335.61   23.64
  -6   2  -2  393.98   51.97
   6   2   2  312.30   23.44
   6   2   3   39.48   11.14
   6   2   3   39.32    9.51
  -6   2  -4  268.01   61.79
   6   2   4  272.87   22.09
   6   2   4  293.56   27.20
   6   2   5    1.28   10.92
   6   2   5   17.83    9.10
  -6   2  -6    9.38   43.49
   6   2   6    8.24   12.59
  -6   2  -7   97.37   51.89
   6   2   7   33.43   16.46
  -6   3  10  218.37   40.54
   6   3  -9   55.37   13.15
  -6   3   9   35.32   21.65
  -6   3   8  601.99   58.35
   6   3  -8  691.75   37.68
   6   3  -7   62.43   14.08
  -6   3   7   35.27   19.04
  -6   3   6 1322.77   40.17
   6   3  -6 1300.24   50.40
  -6   3   5  291.28   20.09
   6   3  -5  249.59   22.72
  -6   3   4 1187.38   41.37
   6   3  -4 1266.72   49.11
   6   3  -3 2109.49   34.39
  -6   3   3 1992.08   80.28
  -6   3   3 2000.99   55.88
   6   3  -3 2016.20   61.37
   6   3  -2  318.97   16.62
  -6   3   2  290.87   32.79
  -6   3   2  288.82   23.76
   6   3  -2  350.76   26.35
   6   3  -1   37.13   10.55
   6   3  -1   23.96    7.37
  -6   3   1    5.83   14.71
   6   3   0  474.27   25.75
  -6   3   0  585.87   51.27
   6   3   0  571.46   32.72
  -6   3  -1   51.92   27.32
   6   3   1   46.82   10.73
   6   3   1   39.59   10.75
  -6   3  -2  779.00   72.92
   6   3   2  830.32   39.28
   6   3   2  748.71   36.81
  -6   3  -3   53.76   37.15
   6   3   3   65.31   14.24
   6   3   3   48.12   11.38
   6   3   4 1034.77   42.18
  -6   3  -4 1095.18   98.33
   6   3   4 1100.33   51.39
  -6   3  -5   70.45   41.83
   6   3   5  108.80   20.64
   6   3   5   59.46   12.45
  -6   3  -6  -12.45   45.46
   6   3   6   12.75   13.37
   6   4  -9    9.18    9.59
  -6   4   9   34.46   25.19
   6   4  -8    7.08    9.96
  -6   4   8    7.79   21.63
  -6   4   7  217.04   36.54
   6   4  -7  233.93   23.80
  -6   4   7  232.86   20.38
  -6   4   6   60.65   12.98
   6   4  -6   75.48   14.92
  -6   4   6   55.48   20.37
  -6   4   5   17.24    8.64
   6   4  -5    3.17    8.63
  -6   4   5   11.74   16.34
   6   4  -4  294.22   12.18
  -6   4   4  350.49   37.85
  -6   4   4  311.70   24.33
   6   4  -4  272.82   25.10
   6   4  -3  490.15   19.66
  -6   4   3  469.09   42.01
  -6   4   3  536.72   32.05
   6   4  -3  563.21   34.51
   6   4  -2 1158.60   34.03
  -6   4   2 1200.39   62.61
  -6   4   2 1163.08   49.12
   6   4  -2 1135.92   48.35
   6   4  -1  454.22   24.16
  -6   4   1  514.85   43.60
   6   4  -1  543.49   34.12
   6   4   0 1668.97   49.47
  -6   4   0 1468.20   77.43
   6   4   0 1567.01   56.40
   6   4   1  359.66   26.04
  -6   4  -1  307.62   44.11
   6   4   1  318.22   26.10
   6   4   2  195.99   20.76
  -6   4  -2  251.52   46.58
   6   4   2  201.75   20.81
   6   4   3  280.08   26.12
   6   4   3  242.55   22.43
  -6   4  -4   44.64   40.73
   6   4   4   11.52   10.90
   6   4   4    5.36    7.57
   6   4   5   90.85   18.85
   6   4   5   38.13   10.56
  -6   4  -6  -43.99   47.22
   6   4   6   18.44   15.14
   6   5  -9   84.83   17.73
  -6   5   9   70.89   25.17
  -6   5   8  705.46   65.75
   6   5  -8  769.48   44.80
  -6   5   7   57.31   15.33
   6   5  -7   72.88   16.24
  -6   5   7   17.54   21.03
  -6   5   6  271.81   38.77
   6   5  -6  370.78   31.37
  -6   5   6  332.64   27.37
  -6   5   5   61.72   13.54
   6   5  -5   62.63   15.15
  -6   5   5   62.91   21.05
   6   5  -4  257.18   14.82
  -6   5   4  285.88   25.48
   6   5  -4  302.74   27.31
   6   5  -3  617.59   25.66
  -6   5   3  599.28   48.10
  -6   5   3  581.41   36.72
   6   5  -3  571.67   36.65
   6   5  -2  730.81   30.56
  -6   5   2  727.73   51.54
  -6   5   2  689.21   41.05
   6   5  -2  689.54   40.56
   6   5  -1  450.08   26.45
  -6   5   1  463.70   42.30
  -6   5   1  430.50   34.32
   6   5  -1  400.84   31.10
   6   5   0  715.01   35.36
  -6   5   0  711.34   54.87
   6   5   0  698.82   39.46
   6   5   1  325.85   25.63
  -6   5  -1  319.51   42.17
   6   5   1  315.63   26.87
   6   5   2  522.86   34.19
  -6   5  -2  475.01   56.19
   6   5   2  530.45   33.92
  -6   5  -3   52.04   30.94
   6   5   3   15.43    9.65
   6   5   3   43.84   15.08
   6   5   4  395.35   33.89
   6   5   4  339.86   26.53
   6   5   5  151.41   22.98
  -6   5  -5  219.90   60.13
   6   5   5  157.02   18.66
  -6   5  -6   74.76   53.24
   6   5   6   93.48   21.35
  -6   6   8  341.82   50.08
   6   6  -8  338.42   32.14
  -6   6   7   75.67   17.76
   6   6  -7   69.08   18.07
  -6   6   7   61.79   24.35
  -6   6   6   70.33   16.80
   6   6  -6   76.74   16.46
  -6   6   6  111.60   28.86
  -6   6   5   80.25   17.50
  -6   6   5  135.84   31.03
   6   6  -5  107.75   19.88
   6   6  -4   40.57   13.50
   6   6  -4   28.46    8.22
  -6   6   4   19.01   15.85
  -6   6   4   47.91   17.26
  -6   6   3  364.81   39.63
  -6   6   3  418.54   33.66
   6   6  -3  389.56   33.02
   6   6  -3  405.21   24.17
   6   6  -2 1428.63   47.33
  -6   6   2 1543.34   75.77
  -6   6   2 1553.18   65.28
   6   6  -2 1477.09   61.47
   6   6  -1  365.12   26.06
  -6   6   1  424.84   42.60
  -6   6   1  379.74   34.02
   6   6  -1  436.38   34.57
   6   6   0  480.09   31.48
  -6   6   0  544.06   48.17
  -6   6   0  591.85   42.10
   6   6   0  593.65   39.35
   6   6   1  454.35   32.03
  -6   6  -1  395.96   45.43
   6   6   1  411.87   32.75
   6   6   2   45.23   13.60
   6   6   2   45.92   13.66
  -6   6  -2   30.09   24.66
   6   6   3  351.31   31.91
  -6   6  -3  284.89   54.64
   6   6   3  381.91   31.03
   6   6   4  101.13   17.20
   6   6   4   84.92   19.04
  -6   6  -5  -29.48   47.10
   6   6   5   51.09   17.18
  -6   7   8  258.56   45.76
   6   7  -8  279.03   31.50
  -6   7   7   43.89   16.73
   6   7  -7   50.00   17.72
  -6   7   7   31.33   25.80
  -6   7   6  198.52   36.57
   6   7  -6  249.51   28.36
  -6   7   6  180.86   25.11
  -6   7   5   22.95   16.18
   6   7  -5   13.48   11.36
  -6   7   5   12.71   17.16
  -6   7   4  140.83   28.63
  -6   7   4  141.57   23.04
   6   7  -4  184.70   24.96
   6   7  -3   22.21   14.04
   6   7  -3   26.89    9.55
  -6   7   3   14.07   16.00
  -6   7   3   44.67   15.55
  -6   7   2  354.19   39.71
  -6   7   2  468.43   39.87
   6   7  -2  433.10   36.59
   6   7  -2  448.23   29.75
   6   7  -1  305.85   25.92
  -6   7   1  327.36   37.10
  -6   7   1  348.35   34.42
   6   7  -1  378.62   33.76
   6   7   0  193.20   22.37
  -6   7   0  182.08   31.51
  -6   7   0  177.49   27.41
   6   7   0  131.72   20.85
   6   7   1  160.50   21.11
  -6   7  -1  191.32   34.43
  -6   7  -1  151.27   24.81
   6   7   1  161.69   22.76
   6   7   2  328.51   31.21
  -6   7  -2  339.01   47.27
  -6   7  -2  299.60   33.55
   6   7   2  335.99   31.34
   6   7   3  139.80   22.90
  -6   7  -3  118.26   41.53
   6   7   3  124.67   20.11
   6   7   4  118.39   19.50
   6   7   4   84.04   20.49
  -6   7  -4  106.26   48.84
  -6   8   7  182.94   40.58
   6   8  -7  231.22   29.79
  -6   8   7  222.49   30.90
  -6   8   6    2.32   13.11
   6   8  -6   11.37   14.65
  -6   8   6   17.93   23.71
  -6   8   5  103.15   30.49
   6   8  -5  142.28   23.65
  -6   8   5  154.57   25.75
  -6   8   4  327.23   41.47
   6   8  -4  258.76   29.88
  -6   8   4  275.69   33.22
  -6   8   3  138.76   29.46
   6   8  -3  125.94   24.46
   6   8  -3  146.97   20.06
  -6   8   3  102.92   23.05
  -6   8   2  579.89   51.16
  -6   8   2  650.46   49.37
   6   8  -2  600.70   45.49
   6   8  -2  539.79   35.26
   6   8  -1   -3.02   12.49
   6   8  -1   15.23   12.71
  -6   8   1   30.99   17.20
  -6   8   1    1.84   14.67
   6   8   0   50.53   16.25
   6   8   0   70.29   16.86
  -6   8   0   82.47   25.00
  -6   8   0   96.49   22.53
   6   8   1  160.17   23.70
   6   8   1   80.62   18.19
  -6   8  -1   97.99   28.29
  -6   8  -1  111.93   24.46
   6   8   2   37.32   15.54
   6   8   2   58.09   17.18
  -6   8  -2   67.35   27.14
  -6   8  -2   64.16   19.14
   6   8   3  145.30   24.08
  -6   8  -3  191.97   45.98
  -6   8  -3  204.27   31.10
   6   8   3  195.13   25.99
  -6   9   5   11.66   15.82
   6   9  -5    6.62   13.62
  -6   9   5    2.46   20.75
  -6   9   4   51.08   19.10
   6   9  -4   70.08   20.58
  -6   9   4   85.27   27.54
  -6   9   3  264.13   38.36
   6   9  -3  356.12   37.43
  -6   9   3  326.48   38.37
   6   9  -3  314.35   30.92
   6   9  -2   10.62   14.25
   6   9  -2   18.47   12.45
  -6   9   2    3.09   16.06
  -6   9   2    8.77   16.69
   6   9  -1  133.98   21.96
  -6   9   1  123.33   28.07
   6   9  -1  186.76   28.30
  -6   9   1  144.25   28.38
   6   9   0   97.73   23.47
   6   9   0  101.59   19.91
  -6   9   0   78.37   24.90
  -6   9   0   87.04   22.45
   6   9   1   51.58   17.48
   6   9   1   76.26   19.40
  -6   9  -1   64.07   23.93
  -6   9  -1   40.30   16.80
   6   9   2  105.56   21.59
   6   9   2   66.72   21.05
  -6   9  -2   43.07   24.82
  -6   9  -2   70.23   22.06
   6  10  -3   37.58   18.09
  -6  10   3   32.64   24.02
  -6  10   3   45.48   24.71
   6  10  -2  131.02   26.59
   6  10  -2  106.42   22.60
  -6  10   2   80.78   26.05
  -6  10   2  123.45   29.93
   6  10  -1   40.34   18.01
   6  10  -1   68.62   19.65
  -6  10   1   35.41   20.58
  -6  10   1   42.75   21.70
   7  -9  -3  256.29   42.30
   7  -9  -2  104.17   28.43
   7  -9  -1   -4.20   17.93
   7  -9   0  156.85   34.75
   7  -8  -6   95.46   28.49
   7  -8  -5   43.30   21.33
   7  -8  -4   56.57   22.10
   7  -8  -3   66.24   24.77
   7  -8  -2  139.91   32.11
   7  -8  -1  188.85   33.34
   7  -8   0   37.56   21.88
   7  -8   1   26.47   18.55
   7  -8   2  134.02   30.53
   7  -7  -7   74.39   23.88
   7  -7  -6   25.06   18.54
   7  -7  -5   17.90   17.36
   7  -7  -4  235.68   35.01
   7  -7  -3  137.49   29.31
   7  -7  -2  555.68   49.86
   7  -7  -1  163.94   29.17
   7  -7   0   63.05   22.06
   7  -7   1   31.49   18.45
   7  -7   2   61.35   22.63
   7  -7   3  458.31   48.39
   7  -6  -8  209.95   31.84
   7  -6  -7   18.14   15.86
   7  -6  -6  442.50   43.31
   7  -6  -5  227.77   32.70
   7  -6  -4  351.28   37.08
   7  -6  -3  320.30   36.28
  -7  -6   2   74.29   17.56
   7  -6  -2  106.92   23.67
  -7  -6   1  273.39   27.93
   7  -6  -1  284.58   35.67
  -7  -6   0  219.86   28.57
   7  -6   0  183.43   29.62
  -7  -6  -1  132.55   30.73
   7  -6   1   91.37   23.01
  -7  -6  -2  426.24   50.49
   7  -6   2  389.14   39.83
   7  -6   2  387.67   41.34
   7  -6   3   38.39   17.85
   7  -6   3   35.20   17.40
   7  -6   4   76.00   24.65
  -7  -6  -4   62.77   40.00
   7  -6   4   86.37   23.78
  -7  -5   8  269.24   37.10
   7  -5  -8  171.42   28.93
  -7  -5   7  235.74   32.04
   7  -5  -7  236.51   31.28
   7  -5  -6   36.31   17.11
  -7  -5   6   18.61   14.93
   7  -5  -5   18.88   12.91
  -7  -5   5   46.79   18.23
  -7  -5   4  323.71   31.79
   7  -5  -4  314.16   34.69
  -7  -5   3  171.41   22.58
   7  -5  -3  113.08   21.63
  -7  -5   2  407.16   33.08
   7  -5  -2  387.01   37.30
  -7  -5   1  131.01   21.81
   7  -5  -1  165.06   25.19
  -7  -5   0  239.09   31.95
   7  -5   0  224.19   28.95
  -7  -5  -1   -1.52   22.15
   7  -5   1   26.19   16.48
   7  -5   1   24.09   13.69
  -7  -5  -2  595.27   60.06
   7  -5   2  716.69   49.35
   7  -5   2  658.04   49.27
  -7  -5  -3  256.68   53.80
   7  -5   3  225.23   29.72
   7  -5   3  272.28   34.94
   7  -5   4   40.43   19.46
  -7  -5  -4   69.28   39.71
   7  -5   4   30.80   17.97
   7  -5   5  186.10   31.26
  -7  -5  -5  118.24   53.90
   7  -5   5  176.46   28.94
  -7  -4   9  105.27   28.87
   7  -4  -9  101.36   24.41
  -7  -4   8  300.86   39.19
   7  -4  -8  359.50   36.59
   7  -4  -7   17.85   14.15
  -7  -4   7   11.41   17.43
  -7  -4   6  217.76   31.59
   7  -4  -6  236.42   29.17
   7  -4  -5   74.20   18.92
  -7  -4   5   68.16   19.94
  -7  -4   4  167.21   24.96
   7  -4  -4  165.01   24.70
  -7  -4   3  360.08   31.79
   7  -4  -3  349.84   33.14
  -7  -4   2 1132.58   54.17
   7  -4  -2 1076.11   56.67
  -7  -4   1 1134.43   58.52
   7  -4  -1 1036.02   55.02
  -7  -4   0  386.43   39.17
   7  -4   0  360.16   33.60
   7  -4   0  268.74   26.97
  -7  -4  -1  185.65   34.22
   7  -4   1  129.45   21.59
   7  -4   1  164.61   23.58
  -7  -4  -2  649.20   66.77
   7  -4   2  684.99   44.29
   7  -4   2  700.02   47.29
  -7  -4  -3   12.45   32.30
   7  -4   3    5.68   13.01
   7  -4   3    8.40   12.95
  -7  -4  -4   71.04   44.69
   7  -4   4   97.26   21.08
   7  -4   4  130.96   25.28
   7  -4   5   10.03   17.29
  -7  -4  -5   35.68   47.15
   7  -4   5   -2.91   12.21
   7  -3  -9    4.04   12.70
  -7  -3   9   -7.12   17.59
   7  -3  -8  400.28   36.18
  -7  -3   8  346.97   42.72
   7  -3  -7  277.91   29.45
  -7  -3   7  270.78   36.50
   7  -3  -6   62.61   16.22
  -7  -3   6   51.61   20.72
  -7  -3   5  141.05   24.50
   7  -3  -5  135.91   21.35
  -7  -3   4 1122.43   58.61
   7  -3  -4 1045.05   51.34
  -7  -3   3  282.12   30.02
   7  -3  -3  236.72   26.13
  -7  -3   2 1229.65   59.37
   7  -3  -2 1276.90   56.82
  -7  -3   1  705.37   48.37
   7  -3  -1  654.69   41.16
   7  -3  -1  670.85   36.40
   7  -3   0   78.12   17.69
  -7  -3   0   78.04   25.10
   7  -3   0   78.28   15.42
   7  -3   1   68.35   15.71
  -7  -3  -1   56.17   25.49
   7  -3   1   58.56   14.68
  -7  -3  -2  619.47   67.37
   7  -3   2  621.44   38.55
   7  -3   2  539.34   40.10
  -7  -3  -3  240.23   52.81
   7  -3   3  309.34   29.24
   7  -3   3  320.88   32.40
  -7  -3  -4   33.00   43.69
   7  -3   4   21.41   13.43
   7  -3   4   60.66   17.86
  -7  -3  -5   94.68   55.47
   7  -3   5  107.16   22.01
   7  -3   5  179.80   28.30
   7  -2  -9   23.77   14.20
  -7  -2   9   72.03   27.02
   7  -2  -8  513.43   38.02
  -7  -2   8  529.55   52.08
   7  -2  -7  173.37   23.17
  -7  -2   7  210.72   33.94
   7  -2  -6  242.62   25.15
  -7  -2   6  181.78   29.78
   7  -2  -5   58.24   14.60
  -7  -2   5   62.01   20.47
   7  -2  -4    8.41    9.54
  -7  -2   4   33.01   15.80
   7  -2  -3 1150.52   50.51
  -7  -2   3 1118.48   58.31
  -7  -2   2 1191.89   60.31
   7  -2  -2 1233.73   53.09
   7  -2  -2 1156.36   42.07
  -7  -2   1 1337.10   67.86
   7  -2  -1 1230.67   53.21
   7  -2  -1 1225.54   44.70
   7  -2   0  162.39   21.31
  -7  -2   0  152.70   29.51
   7  -2   0  217.74   20.27
   7  -2   1   81.73   17.35
  -7  -2  -1   75.64   32.15
   7  -2   1  105.66   15.33
  -7  -2  -2  637.34   65.95
   7  -2   2  645.06   41.00
   7  -2   2  634.25   36.63
   7  -2   3   51.08   15.05
  -7  -2  -3   39.94   35.58
   7  -2   3   30.75   12.70
  -7  -2  -4  539.24   78.97
   7  -2   4  490.78   36.31
   7  -2   4  514.17   39.21
  -7  -2  -5  135.42   53.67
   7  -2   5  110.76   19.78
   7  -2   5  108.89   22.38
  -7  -2  -6   62.69   57.18
   7  -2   6   25.98   15.73
  -7  -1  10   88.14   29.58
   7  -1  -9   40.14   15.35
  -7  -1   9   60.06   26.12
   7  -1  -8  173.04   21.99
  -7  -1   8  113.87   28.75
  -7  -1   7    1.61   15.38
   7  -1  -7   24.54   11.95
   7  -1  -6  219.78   23.29
  -7  -1   6  186.51   30.16
   7  -1  -5  113.88   17.09
  -7  -1   5   75.53   20.29
   7  -1  -4  687.37   38.26
  -7  -1   4  777.23   51.20
  -7  -1   3   29.19   14.95
   7  -1  -3   35.09   10.71
   7  -1  -2  748.61   39.61
  -7  -1   2  877.31   53.91
   7  -1  -2  801.94   31.84
   7  -1  -1   87.92   15.14
  -7  -1   1   48.99   18.35
   7  -1  -1   86.53   12.21
  -7  -1   0  515.43   48.98
   7  -1   0  441.36   31.12
   7  -1   0  511.34   28.56
  -7  -1  -1  896.81   73.08
   7  -1   1  936.64   44.84
   7  -1   1 1023.07   42.08
   7  -1   2  193.43   22.67
  -7  -1  -2  192.58   43.69
   7  -1   2  213.02   21.00
  -7  -1  -3 1092.76   93.50
   7  -1   3 1247.71   55.00
   7  -1   3 1108.08   48.77
   7  -1   4   20.20   13.57
  -7  -1  -4    1.54   44.70
   7  -1   4   31.59   12.08
   7  -1   5   18.94   13.65
   7  -1   5   33.06   14.71
  -7  -1  -6  145.00   60.14
   7  -1   6  142.68   24.36
  -7   0  10   86.49   29.33
  -7   0   9    5.88   19.21
   7   0  -9   15.55   11.83
   7   0  -8  527.50   34.83
  -7   0   8  492.96   52.55
  -7   0   7   -5.74   17.04
   7   0  -7   26.95   10.37
   7   0  -6  209.77   21.89
  -7   0   6  124.29   28.06
   7   0  -5  219.31   21.43
  -7   0   5  176.07   29.03
  -7   0   4   -3.53   14.07
   7   0  -4   16.37    8.47
  -7   0   4    3.36    3.59
  -7   0   3   51.36   17.59
   7   0  -3   41.58    8.13
   7   0  -3   27.97   10.08
   7   0  -2  329.37   26.29
  -7   0   2  293.55   33.39
   7   0  -2  317.17   18.39
   7   0  -1  992.59   44.04
  -7   0   1  956.20   59.85
   7   0  -1 1017.24   34.98
   7   0   0  130.44   14.97
  -7   0   0  161.11   33.23
   7   0   0   90.61   14.22
  -7   0  -1   23.88   27.86
   7   0   1    4.29    7.66
   7   0   1    3.00    7.06
  -7   0  -2    7.99   29.53
   7   0   2   25.69    9.85
   7   0   2   29.84    9.96
   7   0   3  251.10   25.86
   7   0   3  265.87   24.53
  -7   0  -3  245.26   58.12
   7   0   4  216.38   23.58
   7   0   4  204.87   24.05
  -7   0  -4  238.70   58.75
  -7   0  -5  123.05   53.47
   7   0   5  159.23   22.72
   7   0   5  139.91   22.31
  -7   0  -6   40.81   51.83
   7   0   6   52.98   16.76
  -7   1  10  116.48   34.31
  -7   1   9   30.75   23.76
   7   1  -9   29.29   11.26
   7   1  -8  126.15   18.57
  -7   1   8  116.16   32.28
  -7   1   7   22.11   20.34
   7   1  -7   12.29    9.32
   7   1  -6  233.09   22.85
  -7   1   6  185.93   31.27
   7   1  -5  126.43   16.67
  -7   1   5  129.56   25.16
   7   1  -4  791.72   39.47
  -7   1   4  717.48   52.07
  -7   1   4  756.53   25.64
  -7   1   3   16.89   13.94
   7   1  -3   27.16    9.60
   7   1  -3   25.55    5.89
   7   1  -2  830.54   39.89
  -7   1   2  900.80   56.71
   7   1  -2  881.63   28.02
   7   1  -1   77.43   13.83
   7   1  -1   84.10   10.88
  -7   1   1   59.87   21.61
   7   1   0  461.57   30.61
   7   1   0  526.83   26.53
   7   1   1  931.44   42.84
  -7   1  -1  913.81   73.14
   7   1   1 1010.95   40.18
   7   1   2  192.11   22.19
   7   1   2  179.77   20.08
  -7   1  -2  152.31   42.30
  -7   1  -3 1116.08   99.52
   7   1   3 1211.08   50.22
   7   1   3 1307.05   52.64
   7   1   4   29.32   12.57
   7   1   4   20.93   11.74
   7   1   5   30.04   13.99
  -7   1  -5   46.69   48.14
   7   1   5   37.83   14.21
   7   1   6  155.37   24.79
  -7   1  -6  182.97   60.81
  -7   2   9   11.79   22.38
   7   2  -9   47.65   13.41
   7   2  -8  475.00   33.06
  -7   2   8  576.05   58.23
   7   2  -7  189.76   21.46
  -7   2   7  186.89   33.08
  -7   2   6  206.38   32.09
   7   2  -6  176.51   20.23
   7   2  -5   64.44   14.19
  -7   2   5   70.55   21.35
  -7   2   5   64.49    9.32
  -7   2   4   37.99   17.68
   7   2  -4   19.18    9.47
  -7   2   4   14.01    7.57
  -7   2   3 1013.70   61.49
   7   2  -3 1080.27   25.52
  -7   2   3 1046.71   40.37
   7   2  -3 1068.69   46.57
   7   2  -2 1285.70   33.95
   7   2  -2 1272.05   50.25
   7   2  -1 1363.64   40.26
   7   2  -1 1311.59   51.47
   7   2   0  243.90   19.35
  -7   2   0  195.23   35.36
   7   2   1   78.06   14.47
   7   2   1   94.10   15.07
  -7   2  -1   71.80   28.80
   7   2   2  660.67   36.42
  -7   2  -2  669.77   68.89
   7   2   2  726.62   38.42
   7   2   3   35.46   13.03
   7   2   3   22.68    9.78
  -7   2  -4  514.02   75.15
   7   2   4  504.25   32.74
   7   2   4  478.59   36.20
   7   2   5   96.53   17.77
   7   2   5  119.79   21.04
  -7   2  -5  104.77   52.39
  -7   2  -6   34.69   50.73
   7   2   6   29.13   17.48
   7   3  -9    1.08   10.23
  -7   3   9   17.22   25.19
  -7   3   8  398.72   49.69
   7   3  -8  367.88   30.46
  -7   3   7  286.00   39.90
   7   3  -7  288.59   26.76
   7   3  -6   40.45   13.39
  -7   3   6   39.85   21.29
  -7   3   5  126.32   26.09
  -7   3   5  121.49   15.10
   7   3  -5  185.70   21.70
  -7   3   4 1071.69   64.93
  -7   3   4 1089.54   41.29
   7   3  -4 1128.11   49.79
   7   3  -3  263.40   13.72
  -7   3   3  270.87   35.11
  -7   3   3  272.81   23.93
   7   3  -3  240.33   24.22
   7   3  -2 1391.54   37.27
  -7   3   2 1359.35   72.35
  -7   3   2 1346.91   52.96
   7   3  -2 1321.57   53.32
   7   3  -1  732.51   30.44
  -7   3   1  783.95   57.88
   7   3  -1  706.80   39.36
  -7   3   0   71.99   24.24
   7   3   0   69.24   13.84
   7   3   0   62.46   11.66
  -7   3  -1   32.80   22.45
   7   3   1   53.62   11.82
   7   3   1   36.25   11.29
   7   3   2  623.93   36.04
  -7   3  -2  571.98   65.99
   7   3   2  631.31   37.51
   7   3   3  335.82   26.80
  -7   3  -3  407.91   64.59
   7   3   3  355.52   29.97
   7   3   4   76.93   17.01
   7   3   4   28.99   10.96
   7   3   5  160.89   24.74
  -7   3  -5  150.51   59.45
   7   4  -9   64.16   16.55
  -7   4   9   50.87   29.77
  -7   4   8  268.36   44.46
   7   4  -8  361.50   31.21
   7   4  -7    6.13    9.20
  -7   4   7   27.88   22.29
  -7   4   6  218.68   36.60
  -7   4   6  240.13   21.11
   7   4  -6  284.66   27.67
  -7   4   5   71.05   13.01
   7   4  -5   91.09   16.77
  -7   4   5   62.44   24.26
  -7   4   4  194.29   20.97
   7   4  -4  193.85   22.65
   7   4  -3  388.90   18.58
  -7   4   3  358.40   39.32
  -7   4   3  361.73   29.38
   7   4  -3  329.98   28.83
   7   4  -2 1050.43   34.38
  -7   4   2 1135.85   67.32
  -7   4   2 1141.55   51.95
   7   4  -2 1067.37   50.16
   7   4  -1 1111.66   38.93
  -7   4   1 1038.95   66.00
   7   4  -1 1067.70   49.71
   7   4   0  309.44   22.98
  -7   4   0  321.10   41.76
   7   4   0  281.08   27.11
   7   4   1  134.13   17.49
  -7   4  -1  110.87   28.58
   7   4   1  153.96   20.30
  -7   4  -2  700.46   71.21
   7   4   2  776.28   41.20
   7   4   2  726.95   40.69
  -7   4  -3  -20.68   32.56
   7   4   3   -5.87   10.57
   7   4   3    4.78    8.61
   7   4   4   93.51   20.47
   7   4   4   87.36   15.61
  -7   4  -5  101.04   57.39
   7   4   5    5.37   13.84
  -7   5   8  186.57   40.99
   7   5  -8  257.52   28.57
  -7   5   7  171.54   34.70
   7   5  -7  211.42   26.14
  -7   5   6   40.97   13.68
   7   5  -6   38.45   13.96
  -7   5   6   36.24   23.47
  -7   5   5   32.80   12.24
   7   5  -5   40.41   13.27
  -7   5   5   43.07   21.53
  -7   5   4  291.63   39.27
  -7   5   4  324.94   29.50
   7   5  -4  291.66   27.86
   7   5  -3  179.76   14.66
  -7   5   3  194.96   32.50
  -7   5   3  170.81   22.92
   7   5  -3  162.15   22.00
   7   5  -2  371.87   22.89
  -7   5   2  359.32   41.89
  -7   5   2  429.23   35.19
   7   5  -2  407.17   32.75
   7   5  -1  140.76   16.69
  -7   5   1  170.81   30.94
  -7   5   1  115.42   20.78
   7   5  -1  184.27   23.13
   7   5   0  221.32   20.82
  -7   5   0  187.01   32.83
   7   5   0  217.12   24.40
   7   5   1   19.02   10.78
   7   5   1   40.20   13.89
   7   5   2  682.04   41.29
  -7   5  -2  667.43   69.12
   7   5   2  664.49   40.36
   7   5   3  243.74   27.80
   7   5   3  243.41   25.36
  -7   5  -4   38.42   45.30
   7   5   4   36.15   16.71
   7   5   4   27.07   12.32
  -7   5  -5  141.48   58.20
   7   5   5  155.40   24.24
  -7   6   8  186.13   41.38
   7   6  -8  179.55   26.41
   7   6  -7   52.08   15.91
  -7   6   7   27.33   22.54
  -7   6   6  429.81   34.52
   7   6  -6  445.80   37.21
  -7   6   5  251.17   38.57
  -7   6   5  255.10   27.84
   7   6  -5  212.11   25.66
  -7   6   4  276.11   39.06
  -7   6   4  338.24   32.53
   7   6  -4  333.66   31.35
   7   6  -3  307.22   20.95
  -7   6   3  262.05   37.48
  -7   6   3  265.45   29.96
   7   6  -3  309.50   30.10
   7   6  -2  101.81   19.82
   7   6  -2   78.81   13.68
  -7   6   2   51.57   22.23
  -7   6   2   98.11   20.43
   7   6  -1  256.18   22.35
  -7   6   1  225.90   34.96
  -7   6   1  299.19   31.32
   7   6  -1  292.67   29.52
   7   6   0  214.25   22.62
  -7   6   0  190.23   34.00
  -7   6   0  211.48   28.51
   7   6   0  227.05   26.12
   7   6   1  103.40   18.73
   7   6   1   90.05   16.94
  -7   6  -1  115.86   32.70
   7   6   2  351.17   31.44
  -7   6  -2  425.43   56.94
   7   6   2  366.53   32.11
  -7   6  -3   41.69   34.79
   7   6   3   66.07   17.85
   7   6   3   28.11   13.57
   7   6   4   67.05   18.51
   7   6   4   67.28   16.34
   7   7  -7   96.88   21.46
  -7   7   7   73.87   29.58
  -7   7   6   22.76   16.24
   7   7  -6   14.87   12.83
  -7   7   6   23.60   23.14
  -7   7   5   28.92   16.74
   7   7  -5   16.04   12.66
  -7   7   5   28.41   23.12
  -7   7   4  202.01   37.37
  -7   7   4  213.54   28.36
   7   7  -4  195.55   28.06
   7   7  -3  102.95   21.24
  -7   7   3   91.24   26.32
  -7   7   3  101.27   22.21
   7   7  -2  549.45   33.39
  -7   7   2  583.02   53.71
  -7   7   2  656.75   47.89
   7   7  -2  579.72   42.56
   7   7  -1  159.79   20.91
  -7   7   1  135.39   29.84
  -7   7   1  209.85   29.71
   7   7  -1  215.69   26.69
   7   7   0   55.74   16.75
   7   7   0   64.50   15.37
  -7   7   0  114.70   28.70
  -7   7   0   57.90   20.31
   7   7   1   68.22   18.03
   7   7   1   81.04   17.36
  -7   7  -1   10.29   21.06
  -7   7  -1   75.74   21.95
   7   7   2   79.88   17.74
  -7   7  -2  151.63   38.42
  -7   7  -2  124.45   25.08
   7   7   2  143.42   22.82
   7   7   3  416.77   37.10
   7   7   3  486.76   37.61
  -7   8   6  116.18   24.45
   7   8  -6   93.16   22.02
  -7   8   6   62.67   28.83
  -7   8   5   73.72   21.10
   7   8  -5   79.76   20.86
  -7   8   5   30.02   24.17
   7   8  -4   90.61   20.26
  -7   8   4   59.80   26.45
  -7   8   4   72.46   21.24
   7   8  -3  105.77   22.12
  -7   8   3   76.20   27.56
  -7   8   3  116.52   24.20
   7   8  -2  174.59   21.28
  -7   8   2  191.32   34.37
   7   8  -2  195.57   27.64
  -7   8   2  160.77   28.89
   7   8  -1  231.13   25.19
  -7   8   1  195.62   35.85
  -7   8   1  188.92   32.58
   7   8  -1  186.44   27.19
   7   8   0   18.02   14.23
   7   8   0   40.26   14.97
  -7   8   0   33.13   24.16
  -7   8   0   41.28   18.10
   7   8   1   16.62   14.56
   7   8   1    7.66   12.11
  -7   8  -1  -17.11   21.68
  -7   8  -1   30.07   18.37
   7   8   2  109.62   21.91
   7   8   2   84.30   20.77
  -7   8  -2   49.44   30.87
  -7   8  -2   27.71   17.28
  -7   9   3  232.96   39.77
  -7   9   3  245.50   36.26
   7   9  -3  240.33   34.01
   7   9  -2   83.96   22.55
  -7   9   2  120.36   29.89
  -7   9   2   90.22   24.67
   7   9  -1   -2.03   13.05
   7   9  -1   25.58   15.83
  -7   9   1   -9.41   19.59
  -7   9   1   22.22   18.03
   7   9   0  207.61   27.18
  -7   9   0  176.95   31.99
   7   9   0  239.48   32.00
   8  -8  -3  -24.96   21.32
   8  -8  -2   92.94   27.87
   8  -8  -1   21.36   19.60
   8  -7  -5  166.89   32.54
   8  -7  -4  187.63   32.86
   8  -7  -3  197.72   33.99
   8  -7  -2   37.99   21.58
   8  -7  -1  125.60   29.34
   8  -7   0  108.30   27.28
   8  -7   1   56.80   22.67
   8  -6  -7  172.65   31.55
   8  -6  -6  124.33   27.28
   8  -6  -5   47.45   19.37
   8  -6  -4   15.80   15.44
   8  -6  -3   33.37   18.98
   8  -6  -2  777.36   58.42
   8  -6  -1   -4.04   17.39
   8  -6   0   63.21   22.23
  -8  -6  -1  201.78   34.60
   8  -6   1  193.13   32.33
  -8  -6  -2  -43.79   29.60
   8  -6   2   -4.31   17.16
   8  -6   2   19.39   20.38
   8  -5  -7   40.30   18.20
  -8  -5   6  196.36   30.90
   8  -5  -6  187.81   29.75
   8  -5  -5   31.55   17.87
  -8  -5   5   43.84   19.10
   8  -5  -4    9.78   12.84
  -8  -5   4   42.86   18.02
  -8  -5   3  409.18   37.76
   8  -5  -3  379.83   39.61
  -8  -5   2  300.92   32.34
   8  -5  -2  335.88   37.79
  -8  -5   1  131.14   24.80
   8  -5  -1   96.76   22.26
  -8  -5   0  -12.04   20.25
   8  -5   0   49.75   19.28
  -8  -5  -1  134.78   31.41
   8  -5   1   76.72   21.67
   8  -5   1   83.21   20.92
  -8  -5  -2  105.99   34.04
   8  -5   2  110.56   23.95
   8  -5   2  120.42   24.48
  -8  -5  -3  228.15   51.64
   8  -5   3  266.06   34.22
   8  -5   3  303.00   38.75
   8  -4  -8   -1.16   14.29
  -8  -4   8   13.31   21.99
  -8  -4   7  279.73   39.84
   8  -4  -7  248.53   32.27
   8  -4  -6   44.44   16.61
  -8  -4   6   45.54   21.70
  -8  -4   5  187.24   30.08
   8  -4  -5  156.26   25.69
   8  -4  -4   59.08   17.02
  -8  -4   4   54.75   20.24
   8  -4  -3  142.41   24.11
  -8  -4   3   99.85   20.84
  -8  -4   2  716.86   48.28
   8  -4  -2  628.65   47.32
   8  -4  -1  118.22   23.41
  -8  -4   1  120.41   25.15
  -8  -4   0  332.97   40.14
   8  -4   0  361.29   37.46
   8  -4   0  300.52   30.79
  -8  -4  -1 1347.10   82.45
   8  -4   1 1440.11   64.96
   8  -4   1 1509.97   71.71
  -8  -4  -2  136.30   38.49
   8  -4   2  170.85   25.62
   8  -4   2  151.91   28.00
  -8  -4  -3   85.21   40.05
   8  -4   3   76.51   20.71
   8  -4   3   86.55   22.18
  -8  -4  -4   46.55   45.16
   8  -4   4  104.47   23.76
   8  -4   4  134.20   28.37
   8  -3  -8  177.25   27.47
  -8  -3   8  176.21   36.76
   8  -3  -7   42.21   18.27
  -8  -3   7   51.84   23.41
   8  -3  -6  177.66   25.15
  -8  -3   6  184.68   32.55
  -8  -3   5  187.24   30.59
   8  -3  -5  169.57   24.61
   8  -3  -4   18.05   12.54
  -8  -3   4   31.30   16.72
  -8  -3   3  798.38   52.81
   8  -3  -3  754.95   47.17
   8  -3  -2   62.21   16.19
  -8  -3   2   54.14   18.44
   8  -3  -1   25.74   13.55
  -8  -3   1   35.88   20.87
   8  -3  -1   36.60   13.82
  -8  -3   0  215.94   34.23
   8  -3   0  222.77   28.47
   8  -3   0  204.44   23.22
  -8  -3  -1  323.13   48.09
   8  -3   1  223.89   28.45
   8  -3   1  278.65   27.93
  -8  -3  -2    3.64   30.78
   8  -3   2   -4.16   11.68
   8  -3   2    9.57   11.20
  -8  -3  -3   21.36   40.09
   8  -3   3   30.99   17.14
   8  -3   3   13.52   12.94
  -8  -3  -4  227.44   60.75
   8  -3   4  225.91   28.90
   8  -3   4  199.23   31.09
   8  -2  -9  314.59   33.77
  -8  -2   9  261.95   42.82
   8  -2  -8   51.03   17.38
  -8  -2   8   55.65   26.77
   8  -2  -7  549.09   41.20
  -8  -2   7  505.64   51.53
   8  -2  -6   26.64   13.06
  -8  -2   6   46.39   21.60
   8  -2  -5   73.46   17.24
  -8  -2   5   68.89   21.56
   8  -2  -4  404.96   33.61
  -8  -2   4  460.20   42.84
   8  -2  -3  165.76   23.40
  -8  -2   3  146.13   25.76
   8  -2  -2   39.86   13.50
  -8  -2   2   84.30   23.14
   8  -2  -2  101.54   15.52
  -8  -2   1  219.05   31.59
   8  -2  -1  246.72   27.42
   8  -2  -1  208.99   21.71
   8  -2   0  159.72   23.69
  -8  -2   0  177.06   34.94
   8  -2   0  150.36   18.85
  -8  -2  -1  683.71   65.64
   8  -2   1  639.75   43.26
   8  -2   1  698.01   39.75
   8  -2   2   54.24   17.04
  -8  -2  -2   16.15   33.58
   8  -2   2   28.10   11.90
   8  -2   3  338.42   31.43
   8  -2   3  286.43   32.42
   8  -2   4   39.85   17.03
   8  -2   4   25.83   14.87
   8  -1  -9   16.18   14.35
  -8  -1   9   19.79   22.65
   8  -1  -8  490.12   38.36
  -8  -1   8  433.79   53.02
  -8  -1   7   25.55   21.35
   8  -1  -7   11.94   10.92
   8  -1  -6  154.27   21.27
  -8  -1   6  161.17   29.99
   8  -1  -5  102.04   18.33
  -8  -1   5   97.91   25.00
   8  -1  -4  751.45   42.99
  -8  -1   4  769.10   55.56
   8  -1  -3  802.45   44.64
  -8  -1   3  860.31   57.00
  -8  -1   2   44.94   17.04
   8  -1  -2   32.39   10.21
   8  -1  -2   42.36   14.68
  -8  -1   1  276.85   37.81
   8  -1  -1  276.44   27.15
   8  -1  -1  322.47   23.54
  -8  -1   0   -8.77   21.51
   8  -1   0   13.19    8.74
   8  -1   0   11.12   11.37
   8  -1   1   70.60   16.73
  -8  -1  -1  120.29   34.06
   8  -1   1   93.90   15.87
   8  -1   2  180.75   24.20
  -8  -1  -2  236.02   49.83
   8  -1   2  248.65   24.93
   8  -1   3   95.78   21.16
  -8  -1  -3  143.30   49.59
   8  -1   3   95.54   17.72
   8  -1   4   45.18   17.01
  -8  -1  -4   28.79   47.50
   8  -1   4   78.65   17.54
  -8  -1  -5  188.45   64.41
   8  -1   5   25.82   14.58
   8   0  -9  327.79   32.44
  -8   0   9  312.98   47.44
   8   0  -8  113.56   20.11
  -8   0   8   72.45   28.42
   8   0  -7  519.77   36.80
  -8   0   7  502.34   51.85
  -8   0   6   48.95   20.81
   8   0  -6   60.17   15.10
  -8   0   5    7.49   17.02
   8   0  -5   13.78    9.46
   8   0  -4  343.64   29.24
  -8   0   4  378.58   41.21
   8   0  -3  108.86   17.94
  -8   0   3  143.12   26.80
   8   0  -3  120.03   13.76
  -8   0   2    0.89   14.63
   8   0  -2    3.51    6.47
   8   0  -2   -0.80    8.16
   8   0  -1  181.71   22.11
  -8   0   1  183.20   32.39
   8   0  -1  181.86   17.93
  -8   0   0    7.30   19.83
   8   0   0   12.20    7.53
   8   0   0   -4.37    7.40
  -8   0  -1   78.95   31.81
   8   0   1   47.72   13.48
   8   0   1   71.10   15.20
   8   0   2   20.43   11.84
   8   0   2    3.89    8.97
   8   0   3  392.78   33.40
   8   0   3  432.61   33.69
  -8   0  -3  396.76   64.64
   8   0   4  310.11   30.56
  -8   0  -4  251.32   64.87
   8   0   4  328.96   32.56
  -8   0  -5  567.93   90.47
   8   0   5  626.64   44.75
  -8   1   9   14.92   23.27
   8   1  -9    7.22   11.37
   8   1  -8  444.45   35.26
  -8   1   8  492.79   55.52
  -8   1   7    8.64   18.18
   8   1  -7   20.21   10.51
   8   1  -6  192.11   22.37
  -8   1   6  270.30   38.24
   8   1  -5  114.29   17.52
  -8   1   5   74.82   24.33
   8   1  -4  724.83   41.05
  -8   1   4  815.16   58.78
   8   1  -3  938.56   46.61
  -8   1   3  920.51   61.93
   8   1  -3  931.74   29.47
  -8   1   2   32.03   19.89
   8   1  -2   36.51    8.48
   8   1  -2   38.00   11.74
   8   1  -1  288.96   26.88
  -8   1   1  290.08   38.15
   8   1  -1  303.74   21.55
   8   1   0   10.28    8.42
   8   1   0    1.24    8.07
   8   1   1   77.32   15.28
  -8   1  -1   89.33   33.43
   8   1   1   61.21   15.09
   8   1   2  195.56   23.61
   8   1   2  184.36   21.44
  -8   1  -2  193.27   47.12
   8   1   3   97.93   18.67
   8   1   3   73.79   16.11
   8   1   4   57.03   16.80
   8   1   4   73.00   17.27
  -8   1  -5  182.96   69.19
   8   1   5   81.12   19.41
   8   2  -9  322.81   30.06
  -8   2   9  276.31   49.86
  -8   2   8   85.51   31.24
   8   2  -8   58.83   15.32
   8   2  -7  400.83   32.42
  -8   2   7  469.72   53.12
  -8   2   6   18.60   19.64
   8   2  -6   36.57   12.40
   8   2  -5   95.10   17.15
  -8   2   5   71.26   23.82
   8   2  -4  384.68   30.97
  -8   2   4  428.59   44.65
  -8   2   4  448.12   26.24
   8   2  -3  115.38   18.69
  -8   2   3  101.58   24.79
  -8   2   3  125.66   16.31
   8   2  -2   94.36   17.07
   8   2  -2   89.42   11.38
  -8   2   2  121.25   26.45
   8   2  -1  157.81   20.91
  -8   2   1  219.48   36.19
   8   2  -1  186.67   17.49
   8   2   0  141.40   19.89
   8   2   0  119.97   15.70
  -8   2   0  123.12   29.66
   8   2   1  581.69   37.40
  -8   2  -1  602.03   64.21
   8   2   1  679.19   36.55
  -8   2  -2   23.39   36.73
   8   2   2   42.87   12.50
   8   2   2   45.90   13.07
   8   2   3  271.32   27.39
   8   2   3  251.53   26.74
  -8   2  -3  237.34   58.26
   8   2   4   11.36   14.25
   8   2   4   30.94   13.82
   8   3  -8  203.13   25.47
  -8   3   8  166.25   38.96
   8   3  -7   54.53   17.18
  -8   3   7   22.91   22.74
  -8   3   6  158.75   36.00
   8   3  -6  193.92   23.31
  -8   3   5  225.49   36.07
   8   3  -5  157.95   21.36
   8   3  -4   60.61   15.35
  -8   3   4   28.92   19.66
  -8   3   4   41.74   13.39
  -8   3   3  748.92   57.73
  -8   3   3  769.59   40.13
   8   3  -3  780.23   44.02
   8   3  -2   67.97   11.22
  -8   3   2   35.76   18.59
   8   3  -2   38.55   13.39
  -8   3   1   13.49   19.20
   8   3  -1   22.48   12.60
   8   3  -1   29.36    9.63
   8   3   0  155.99   21.03
  -8   3   0  176.68   38.27
   8   3   0  179.85   19.01
   8   3   1  217.45   24.50
  -8   3  -1  300.12   46.72
   8   3   1  254.06   23.85
  -8   3  -2   14.25   32.62
   8   3   2   16.09   11.93
   8   3   2    1.99    9.33
  -8   3  -3    5.19   36.99
   8   3   3    3.41   11.98
   8   3   3   19.80   11.05
   8   3   4  201.14   23.90
   8   3   4  206.10   26.42
  -8   3  -4  124.33   51.04
   8   4  -8   20.53   13.55
  -8   4   8    8.89   23.34
  -8   4   7  147.88   36.00
   8   4  -7  231.69   27.07
   8   4  -6   64.60   16.87
  -8   4   6   68.92   25.62
  -8   4   5  158.14   32.71
   8   4  -5  124.38   20.71
   8   4  -4   95.93   17.89
  -8   4   4   99.67   27.41
  -8   4   4   74.62   15.57
  -8   4   3  128.81   27.93
  -8   4   3  140.57   21.31
   8   4  -3  150.25   22.10
   8   4  -2  677.92   29.82
  -8   4   2  634.47   55.95
  -8   4   2  599.85   40.91
   8   4  -2  749.18   44.72
   8   4  -1  151.20   16.31
  -8   4   1  133.60   31.58
   8   4  -1  147.98   21.87
  -8   4   0  330.33   45.87
   8   4   0  322.44   25.56
   8   4   0  342.18   30.94
  -8   4  -1 1327.21   91.24
   8   4   1 1438.92   56.18
   8   4   1 1364.00   60.06
   8   4   2  168.79   22.03
   8   4   2  172.63   23.57
  -8   4  -2  163.73   43.57
  -8   4  -3  122.42   48.29
   8   4   3  101.17   20.17
   8   4   3   84.66   16.68
   8   4   4  115.56   22.41
   8   4   4   68.11   16.08
   8   5  -7   51.22   16.65
  -8   5   7    2.54   20.48
  -8   5   6  165.26   36.38
   8   5  -6  191.04   25.71
   8   5  -5   31.23   14.64
  -8   5   5   45.06   20.89
  -8   5   5   37.28   14.82
   8   5  -4   50.51   15.00
  -8   5   4   28.17   19.33
  -8   5   4   51.20   15.92
  -8   5   3  469.05   49.91
  -8   5   3  496.43   37.92
   8   5  -3  473.62   37.55
   8   5  -2  349.27   23.22
  -8   5   2  340.08   43.06
  -8   5   2  365.45   34.59
   8   5  -2  321.97   31.32
   8   5  -1  170.96   18.31
  -8   5   1  120.07   30.53
  -8   5   1  145.59   25.46
   8   5  -1  116.86   20.01
   8   5   0   41.68   14.12
  -8   5   0   20.81   24.82
   8   5   0   40.38   12.17
  -8   5  -1   96.84   34.53
   8   5   1   98.11   17.42
   8   5   1  104.14   19.10
  -8   5  -2  136.61   40.28
   8   5   2  106.58   19.78
   8   5   2   88.02   18.36
   8   5   3  296.49   30.72
  -8   5  -3  223.06   51.78
   8   5   3  297.99   29.33
   8   6  -7  133.29   24.38
  -8   6   7  152.88   38.40
   8   6  -6  128.64   22.92
  -8   6   6  176.70   38.03
  -8   6   5  110.68   21.15
   8   6  -5  106.17   20.58
  -8   6   5   83.89   29.78
   8   6  -4   23.25   13.49
  -8   6   4   69.88   28.02
  -8   6   4   63.87   18.37
   8   6  -3   40.51   16.29
  -8   6   3   43.97   21.10
  -8   6   3   47.29   18.64
  -8   6   2  643.41   58.45
  -8   6   2  772.63   51.43
   8   6  -2  688.23   46.34
   8   6  -1   18.82   12.99
   8   6  -1    8.94    9.33
  -8   6   1    0.38   18.84
  -8   6   1   20.33   15.86
   8   6   0    9.53   11.73
   8   6   0   43.61   13.14
  -8   6   0   43.78   24.76
  -8   6   0   56.68   20.64
   8   6   1  233.20   25.36
  -8   6  -1  191.94   41.75
   8   6   1  255.91   29.39
  -8   6  -2  -21.34   30.91
   8   6   2    4.35   11.89
   8   6   2   27.46   14.84
  -8   7   5  113.56   22.98
   8   7  -5  161.42   25.41
  -8   7   5  116.03   35.13
   8   7  -4  127.86   22.96
  -8   7   4  127.27   32.43
  -8   7   4  195.50   28.83
  -8   7   3  137.01   33.70
   8   7  -3  158.68   24.82
   8   7  -2   16.88   13.31
  -8   7   2   48.34   26.41
  -8   7   2   40.41   19.41
   8   7  -1  141.34   19.97
  -8   7   1  164.36   33.53
  -8   7   1  169.63   29.22
   8   7  -1  151.95   24.22
   8   7   0   62.93   18.36
   8   7   0   56.58   16.43
  -8   7   0   95.84   29.87
  -8   7   0   96.57   25.59
   8   7   1   16.53   14.40
   8   7   1   35.54   15.42
  -8   7  -1   10.43   23.49
  -8   7  -1   -1.12   16.42
   8   8  -3   40.87   16.91
  -8   8   3   45.94   23.55
  -8   8   3   21.43   18.59
   8   8  -2  120.41   24.13
  -8   8   2  133.46   34.30
  -8   8   2  164.56   30.34
   8   8  -1   35.06   15.89
  -8   8   1    1.90   20.93
  -8   8   1    3.88   17.64
   9  -6  -5   60.99   23.88
   9  -6  -4    1.41   17.58
   9  -6  -3  340.54   43.44
   9  -6  -2  132.78   28.32
   9  -6  -1   24.06   19.87
   9  -6   0   74.80   24.69
   9  -5  -6   46.54   21.11
   9  -5  -5  219.89   33.18
  -9  -5   4  245.93   34.21
   9  -5  -4  187.24   30.42
   9  -5  -3   71.42   22.36
  -9  -5   3   31.94   19.61
  -9  -5   2   74.62   22.82
   9  -5  -2   73.39   22.96
  -9  -5   1   12.61   18.73
   9  -5  -1   17.02   16.72
  -9  -5   0   81.86   28.69
   9  -5   0   79.74   23.68
  -9  -5  -1   85.02   29.53
   9  -5   1  109.61   27.83
   9  -5   1   41.25   18.57
   9  -4  -7   10.19   15.81
  -9  -4   7   14.75   21.49
   9  -4  -6   -1.97   14.19
  -9  -4   6   25.81   22.48
   9  -4  -5   55.39   18.67
  -9  -4   5   40.51   21.23
   9  -4  -4    8.42   12.18
  -9  -4   4    6.63   15.88
  -9  -4   3  813.84   56.54
   9  -4  -3  895.23   58.94
   9  -4  -2   29.09   17.05
  -9  -4   2   31.89   18.92
  -9  -4   1  208.64   34.28
   9  -4  -1  232.47   32.28
  -9  -4   0  383.62   45.63
   9  -4   0  361.05   40.15
   9  -4   0  401.45   37.90
  -9  -4  -1   56.52   27.42
   9  -4   1   74.32   22.60
   9  -4   1   67.63   18.39
  -9  -4  -2   19.86   32.43
   9  -4   2  -20.07   18.35
   9  -4   2    8.21   14.61
  -9  -3   7  290.12   44.08
   9  -3  -7  414.73   40.79
   9  -3  -6   52.45   18.95
  -9  -3   6   45.47   22.44
   9  -3  -5   18.68   15.86
  -9  -3   5   27.25   20.56
  -9  -3   4  219.48   34.68
   9  -3  -4  231.14   29.59
  -9  -3   3  189.64   31.96
   9  -3  -3  135.47   24.15
   9  -3  -2    9.94   14.51
  -9  -3   2   44.70   19.73
   9  -3  -1   16.51   14.06
  -9  -3   1   15.40   18.51
   9  -3  -1   21.41   13.49
   9  -3   0   36.48   16.24
  -9  -3   0   59.76   24.21
   9  -3   0   40.12   15.40
   9  -3   1   86.74   21.55
  -9  -3  -1   61.35   32.82
   9  -3   1   73.62   18.14
  -9  -3  -2  500.93   61.45
   9  -3   2  528.09   42.22
   9  -3   2  529.78   46.61
   9  -2  -8   41.74   19.55
  -9  -2   8   93.70   32.81
   9  -2  -7   46.72   19.27
  -9  -2   7  -11.76   19.76
   9  -2  -6   -8.54   12.91
  -9  -2   6   -1.78   18.92
   9  -2  -5  102.56   21.49
  -9  -2   5   88.41   25.78
   9  -2  -4   61.85   18.00
  -9  -2   4   60.31   22.60
  -9  -2   3  586.39   50.68
   9  -2  -3  572.32   42.95
   9  -2  -2   91.30   20.14
  -9  -2   2  122.63   26.75
   9  -2  -2   75.36   15.28
  -9  -2   1  349.02   41.61
   9  -2  -1  326.13   33.74
   9  -2  -1  349.73   29.08
  -9  -2   0  269.36   40.85
   9  -2   0  341.16   35.39
   9  -2   0  324.97   29.08
   9  -2   1   48.98   18.21
  -9  -2  -1   43.96   30.53
   9  -2   1   47.23   15.32
   9  -2   2  120.51   24.67
  -9  -2  -2  165.02   45.41
   9  -2   2  139.72   21.59
   9  -2   3   77.00   22.16
  -9  -2  -3   54.67   42.71
   9  -2   3   52.24   17.68
   9  -1  -8  231.26   29.86
  -9  -1   8  193.21   40.55
   9  -1  -7  395.66   36.33
  -9  -1   7  264.15   43.87
  -9  -1   6   45.91   22.24
   9  -1  -6   66.12   17.29
  -9  -1   5   17.55   17.12
   9  -1  -5   16.81   12.25
  -9  -1   4  123.02   28.56
   9  -1  -4   79.57   17.99
   9  -1  -3  191.79   25.14
  -9  -1   3  213.72   34.10
   9  -1  -2  814.37   48.91
   9  -1  -2  864.58   40.38
  -9  -1   1   54.69   24.46
   9  -1  -1   69.85   14.46
   9  -1  -1   65.02   17.50
   9  -1   0   11.64   11.82
  -9  -1   0    9.71   22.27
   9  -1   0   19.57   10.40
   9  -1   1  155.82   25.08
  -9  -1  -1   91.49   34.95
   9  -1   1  129.59   20.08
   9  -1   2    9.48   12.47
   9  -1   2   39.62   15.24
  -9  -1  -3  332.69   64.59
   9  -1   3  451.08   41.26
   9  -1   3  376.55   34.83
  -9   0   8   -2.57   22.69
   9   0  -8    5.45   10.94
  -9   0   7    3.07   19.72
   9   0  -7   12.48   12.03
  -9   0   6  -19.58   19.74
   9   0  -6    1.98    8.61
   9   0  -5  169.97   23.26
  -9   0   5  148.08   31.29
   9   0  -4  131.63   21.00
  -9   0   4  211.56   34.16
  -9   0   3  136.05   29.21
   9   0  -3   98.85   19.45
  -9   0   2   -6.54   17.06
   9   0  -2   15.01    9.43
   9   0  -2   -3.01    9.67
   9   0  -1  283.73   29.54
  -9   0   1  317.18   43.07
   9   0  -1  347.54   25.76
  -9   0   0  121.83   32.25
   9   0   0   76.17   15.04
   9   0   0   88.23   18.77
  -9   0  -1  254.23   49.95
   9   0   1  198.05   26.66
   9   0   1  257.74   25.16
  -9   0  -2  477.00   64.03
   9   0   2  510.72   41.97
   9   0   2  566.19   38.60
   9   0   3  227.69   30.61
   9   0   3  216.78   26.76
  -9   0  -3  221.47   54.99
   9   1  -8  225.01   27.81
  -9   1   8  266.32   44.13
   9   1  -7  307.57   31.13
  -9   1   7  482.39   55.98
  -9   1   6   89.89   26.59
   9   1  -6   87.77   18.98
  -9   1   5   12.10   19.86
   9   1  -5   35.54   13.48
   9   1  -4  133.89   21.56
  -9   1   4   73.21   24.54
   9   1  -3  234.17   26.66
  -9   1   3  210.90   36.09
   9   1  -2  693.77   44.37
  -9   1   2  730.08   59.94
   9   1  -2  769.28   33.16
   9   1  -1   93.37   14.09
  -9   1   1  113.42   30.38
   9   1  -1   64.85   16.12
  -9   1   0   11.55   26.67
   9   1   0    4.99    9.07
   9   1   0    6.03   10.53
   9   1   1   94.67   19.58
   9   1   1  118.51   18.96
  -9   1  -1   69.12   31.93
  -9   1  -2   19.00   28.47
   9   1   2   31.75   14.08
   9   1   2   23.35   14.00
   9   1   3  431.28   37.79
   9   1   3  472.35   37.23
  -9   1  -3  371.37   66.58
  -9   2   8   53.94   30.20
   9   2  -8   20.55   13.00
  -9   2   7   19.62   21.25
   9   2  -7   30.84   14.46
  -9   2   6  -18.13   19.20
   9   2  -6    8.71   10.40
  -9   2   5  162.43   33.99
   9   2  -5   75.63   16.66
  -9   2   4   31.39   20.70
   9   2  -4   57.54   15.46
   9   2  -3  533.59   38.84
  -9   2   3  590.70   55.30
  -9   2   3  638.59   38.56
  -9   2   2  110.18   30.05
   9   2  -2   77.12   16.75
   9   2  -1  345.34   31.94
  -9   2   1  300.06   43.20
   9   2  -1  371.19   25.12
   9   2   0  256.67   28.80
  -9   2   0  319.49   46.42
   9   2   0  307.06   25.18
  -9   2  -1   75.47   36.14
   9   2   1   51.63   14.39
   9   2   1   37.66   15.51
   9   2   2  144.40   22.78
  -9   2  -2  151.99   43.34
   9   2   2  114.35   19.47
  -9   2  -3   62.49   38.69
   9   2   3   37.80   13.97
   9   2   3   30.08   14.84
   9   3  -7  319.73   32.41
  -9   3   7  293.97   47.55
  -9   3   6   74.69   28.84
   9   3  -6   65.69   16.51
  -9   3   5   21.27   25.20
   9   3  -5   17.19   12.05
   9   3  -4  232.59   26.90
  -9   3   4  204.68   36.87
   9   3  -3  166.79   23.10
  -9   3   3  180.40   23.76
  -9   3   2   38.16   22.62
   9   3  -2   13.71   11.55
  -9   3   1  -16.65   22.03
   9   3  -1    6.98    8.48
   9   3  -1    7.68   12.02
  -9   3   0   53.63   29.46
   9   3   0   57.06   13.41
   9   3   0   19.45   12.55
  -9   3  -1  113.57   32.66
   9   3   1   88.81   17.11
   9   3   1   73.23   17.52
   9   3   2  457.17   36.76
  -9   3  -2  428.08   62.25
   9   3   2  475.89   35.66
   9   4  -7   38.33   16.27
  -9   4   7   30.97   25.66
   9   4  -6  -13.00   13.48
  -9   4   6    7.62   20.61
   9   4  -5   49.90   16.85
  -9   4   5   63.99   23.56
   9   4  -4    8.38   12.97
  -9   4   4   17.54   21.85
  -9   4   3  940.05   70.97
  -9   4   3 1001.52   51.90
   9   4  -3  895.58   52.12
  -9   4   2   70.44   27.77
   9   4  -2   39.14   15.23
  -9   4   2   46.34   16.86
   9   4  -1  225.38   21.42
  -9   4   1  190.38   36.53
   9   4  -1  163.57   24.99
   9   4   0  355.34   33.67
   9   4   0  436.73   30.51
  -9   4  -1   20.16   27.87
   9   4   1   32.62   11.97
  -9   4  -2    9.84   30.50
   9   4   2   -5.36   11.53
   9   4   2    7.34   12.91
   9   5  -6   24.06   15.43
  -9   5   6    6.65   21.42
  -9   5   5  157.24   37.97
   9   5  -5  152.51   25.37
  -9   5   4  202.34   39.56
   9   5  -4  195.93   26.52
   9   5  -3   60.89   19.36
  -9   5   3   90.32   23.27
  -9   5   2   94.99   29.79
   9   5  -2   85.09   19.72
  -9   5   2   88.40   22.62
  -9   5   1    8.36   22.12
   9   5  -1    5.14   11.88
  -9   5   1   20.75   19.68
  -9   5   0   36.16   26.85
   9   5   0   54.72   17.86
   9   5   0   78.13   16.57
  -9   5  -1  152.54   39.08
   9   5   1   89.43   19.26
   9   5   1   98.40   21.59
   9   6  -5  119.80   23.45
  -9   6   5   64.21   30.61
   9   6  -4   -2.17   12.41
  -9   6   4   -8.80   23.06
  -9   6   3  270.69   43.27
  -9   6   3  312.09   35.55
   9   6  -3  359.18   36.79
  -9   6   2   97.99   31.10
  -9   6   2  155.83   27.05
   9   6  -2  147.29   25.29
   9   6  -1   51.12   17.79
  -9   6   1   56.99   28.58
  -9   6   1   65.05   22.57
   9   6   0   73.05   19.65
  -9   6   0   36.36   25.91
   9   6   0   66.84   15.87
  -9   6   0   72.43   24.57
  10  -4  -4  128.17   27.70
 -10  -4   4  109.87   30.35
 -10  -4   3  413.21   45.70
  10  -4  -3  452.47   46.52
  10  -4  -2  101.68   26.88
 -10  -4   2   32.21   20.53
  10  -4  -1   60.38   24.45
 -10  -4   1   62.30   26.75
  10  -3  -5   92.48   24.18
 -10  -3   5  112.69   29.86
  10  -3  -4   52.78   20.18
 -10  -3   4   42.84   23.94
  10  -3  -3  117.69   28.11
 -10  -3   3  109.28   28.36
  10  -3  -2   27.09   16.80
 -10  -3   2   22.54   20.40
  10  -3  -1  114.23   26.37
 -10  -3   1  100.31   29.22
  10  -3  -1  128.52   22.57
 -10  -3   0  136.26   35.45
  10  -3   0  186.37   31.62
  10  -3   0  202.42   29.26
  10  -2  -6   29.90   16.44
 -10  -2   6   42.45   24.23
  10  -2  -5   39.32   17.03
 -10  -2   5  106.66   31.65
  10  -2  -4   77.81   21.08
 -10  -2   4   57.53   25.49
  10  -2  -3  158.97   26.72
 -10  -2   3  101.16   27.01
  10  -2  -2   86.59   22.15
 -10  -2   2  124.57   32.02
  10  -2  -1   48.34   17.01
 -10  -2   1   19.70   21.57
  10  -2  -1   23.06   15.42
  10  -2   0   49.00   18.35
 -10  -2   0   38.33   26.88
  10  -2   0   59.27   17.25
 -10  -1   6  131.29   34.12
  10  -1  -6  144.93   25.11
  10  -1  -5  530.04   43.96
 -10  -1   5  455.17   51.08
 -10  -1   4   44.63   24.32
  10  -1  -4   38.19   15.24
 -10  -1   3   13.44   20.31
  10  -1  -3   31.93   16.17
 -10  -1   2   72.44   26.37
  10  -1  -2   22.19   13.21
  10  -1  -1   27.36   16.78
 -10  -1   1   59.44   25.84
  10  -1  -1   29.55   13.87
  10  -1   0   90.99   21.52
 -10  -1   0  145.21   37.31
  10  -1   0  120.50   21.12
  10  -1   1   49.53   19.46
 -10  -1  -1   49.44   30.83
  10  -1   1   39.54   15.39
 -10   0   6    1.01   22.64
  10   0  -6   25.68   14.09
  10   0  -5  162.88   25.39
 -10   0   5  136.74   33.68
 -10   0   4   23.79   21.08
  10   0  -4   18.52   12.71
 -10   0   3    8.94   19.82
  10   0  -3   19.07   12.06
  10   0  -2  220.77   29.19
 -10   0   2  197.26   36.45
  10   0  -1  146.30   25.05
 -10   0   1  112.12   31.40
  10   0   0  130.00   23.85
 -10   0   0  187.91   39.26
  10   0   0  151.39   21.88
  10   0   1  153.82   22.65
 -10   0  -1  145.22   38.52
  10   0   1   79.11   20.70
 -10   1   6  128.77   35.16
  10   1  -6  107.62   22.01
  10   1  -5  415.70   37.54
 -10   1   5  458.06   55.40
 -10   1   4   78.60   28.22
  10   1  -4   18.15   11.10
 -10   1   3   26.00   23.30
  10   1  -3   32.14   15.10
 -10   1   2   27.60   23.22
  10   1  -2   15.81   10.79
 -10   1   1   68.10   28.86
  10   1  -1   32.12   14.92
  10   1   0  130.70   23.86
  10   1   0  113.26   17.98
 -10   1   0  186.64   40.41
  10   1   1   45.19   15.72
  10   1   1   30.93   16.47
 -10   2   6   69.81   30.11
  10   2  -6   56.05   17.62
 -10   2   5   85.21   30.88
  10   2  -5   83.13   19.72
 -10   2   4   71.59   27.37
  10   2  -4   86.17   19.33
  10   2  -3  127.51   22.67
 -10   2   3   82.16   28.61
 -10   2   2   75.77   28.74
  10   2  -2   71.72   18.07
 -10   2   1   52.98   28.50
  10   2  -1   18.81   12.14
  10   2   0    9.37   10.80
  10   2   0   26.18   14.10
 -10   3   5   54.43   29.24
  10   3  -5   86.31   19.38
 -10   3   4  -26.13   25.24
  10   3  -4   29.11   15.49
  10   3  -3  168.26   25.18
 -10   3   3  150.02   35.06
 -10   3   2    8.15   21.00
  10   3  -2    4.93   11.75
 -10   3   1   32.18   25.61
  10   3  -1  109.55   21.23
  10   3   0  182.03   26.79
 -10   3   0  130.57   35.68
 -10   4   4   68.57   30.87
  10   4  -4  119.59   22.31
  10   4  -3  484.63   41.89
 -10   4   3  373.40   51.47
 -10   4   2   60.99   31.68
  10   4  -2   61.63   17.94
 -10   4   2   82.25   22.16
 -10   4   1   49.07   27.45
  10   4  -1   -1.24   11.01
   0   0   0    0.00    0.00


TITL r20200710d in P2(1)
REM P2(1) (#4 in standard setting)
CELL 0.71073   8.610993   9.777603   8.959930  90.0000 105.1209  90.0000
ZERR    3.00   0.000632   0.000604   0.000646   0.0000   0.0076   0.0000
LATT -1
SYMM -x, y+1/2,-z
SFAC C H N O
UNIT 33.00 30.00 3.00 3.00
TREF
HKLF 4
END
_computing_structure_solution     'SHELXT 2018/2 (Sheldrick, 2018)'
;
_shelx_hkl_checksum              96696
_olex2_submission_special_instructions 'No special instructions were received'
_oxdiff_exptl_absorpt_empirical_details
;
Empirical correction (ABSPACK) includes:
- Absorption correction using spherical harmonics
- Frame scaling
- Detector area scaling
;
_oxdiff_exptl_absorpt_empirical_full_max 2.438
_oxdiff_exptl_absorpt_empirical_full_min 0.569
loop_
_space_group_symop_operation_xyz
'x, y, z'
'-x, y+1/2, -z'
loop_
_atom_site_label
_atom_site_type_symbol
_atom_site_fract_x
_atom_site_fract_y
_atom_site_fract_z
_atom_site_U_iso_or_equiv
_atom_site_adp_type
_atom_site_occupancy
_atom_site_site_symmetry_order
_atom_site_calc_flag
_atom_site_refinement_flags_posn
_atom_site_refinement_flags_adp
_atom_site_refinement_flags_occupancy
_atom_site_disorder_assembly
_atom_site_disorder_group
Cl1 Cl 0.23851(8) 0.50557(7) -0.29885(7) 0.03151(19) Uani 1 1 d . . . . .
N1 N 0.5226(3) 0.4177(2) 0.4819(3) 0.0265(5) Uani 1 1 d D . . . .
C1 C 0.7745(5) 0.5130(5) 0.9007(4) 0.0531(10) Uani 1 1 d D . . . .
C2 C 0.7984(4) 0.5427(3) 0.7656(3) 0.0319(7) Uani 1 1 d . . . . .
H2 H 0.897976 0.516600 0.746989 0.038 Uiso 1 1 calc R . . . .
C3 C 0.6785(3) 0.6150(3) 0.6388(3) 0.0269(6) Uani 1 1 d . . . . .
H3A H 0.723413 0.704286 0.618733 0.032 Uiso 1 1 calc R . . . .
H3B H 0.579607 0.632780 0.672364 0.032 Uiso 1 1 calc R . . . .
C4 C 0.6358(3) 0.5314(3) 0.4898(3) 0.0219(6) Uani 1 1 d . . . . .
C5 C 0.7703(3) 0.5070(3) 0.4167(3) 0.0211(5) Uani 1 1 d . . . . .
C6 C 0.8289(3) 0.3758(3) 0.4069(3) 0.0255(6) Uani 1 1 d . . . . .
H6 H 0.779870 0.300345 0.443472 0.031 Uiso 1 1 calc R . . . .
C7 C 0.9583(3) 0.3538(3) 0.3442(3) 0.0321(7) Uani 1 1 d . . . . .
H7 H 0.997022 0.263632 0.337685 0.039 Uiso 1 1 calc R . . . .
C8 C 1.0302(3) 0.4623(3) 0.2917(3) 0.0353(8) Uani 1 1 d . . . . .
H8 H 1.119285 0.447453 0.249599 0.042 Uiso 1 1 calc R . . . .
C9 C 0.9731(4) 0.5927(3) 0.3000(4) 0.0352(8) Uani 1 1 d . . . . .
H9 H 1.022669 0.667593 0.263011 0.042 Uiso 1 1 calc R . . . .
C10 C 0.8436(3) 0.6157(3) 0.3620(3) 0.0285(7) Uani 1 1 d . . . . .
H10 H 0.804943 0.706086 0.367091 0.034 Uiso 1 1 calc R . . . .
C11 C 0.4652(3) 0.5435(3) 0.3925(3) 0.0234(6) Uani 1 1 d . . . . .
H11 H 0.394315 0.603005 0.437266 0.028 Uiso 1 1 calc R . . . .
C12 C 0.4164(3) 0.5324(3) 0.2213(3) 0.0224(6) Uani 1 1 d . . . . .
C13 C 0.3467(3) 0.6448(3) 0.1346(3) 0.0273(6) Uani 1 1 d . . . . .
H13 H 0.335347 0.727836 0.185838 0.033 Uiso 1 1 calc R . . . .
C14 C 0.2933(3) 0.6384(3) -0.0250(3) 0.0281(6) Uani 1 1 d . . . . .
H14 H 0.246277 0.715989 -0.083372 0.034 Uiso 1 1 calc R . . . .
C15 C 0.3099(3) 0.5168(3) -0.0975(3) 0.0235(6) Uani 1 1 d . . . . .
C16 C 0.3804(3) 0.4039(3) -0.0149(3) 0.0282(6) Uani 1 1 d . . . . .
H16 H 0.391657 0.321113 -0.066698 0.034 Uiso 1 1 calc R . . . .
C17 C 0.4347(3) 0.4128(3) 0.1447(3) 0.0257(6) Uani 1 1 d . . . . .
H17 H 0.485114 0.335905 0.202242 0.031 Uiso 1 1 calc R . . . .
H1 H 0.486(4) 0.416(4) 0.567(2) 0.043(10) Uiso 1 1 d D . . . .
H1A H 0.848(3) 0.464(4) 0.979(3) 0.064(13) Uiso 1 1 d D . . . .
H1B H 0.679(3) 0.534(4) 0.930(4) 0.068(13) Uiso 1 1 d D . . . .
loop_
_atom_site_aniso_label
_atom_site_aniso_U_11
_atom_site_aniso_U_22
_atom_site_aniso_U_33
_atom_site_aniso_U_23
_atom_site_aniso_U_13
_atom_site_aniso_U_12
Cl1 0.0366(4) 0.0350(4) 0.0219(3) 0.0001(3) 0.0057(3) 0.0037(3)
N1 0.0285(12) 0.0289(14) 0.0229(13) 0.0016(10) 0.0079(10) -0.0040(10)
C1 0.070(2) 0.057(2) 0.0267(16) -0.001(2) 0.0028(17) -0.016(3)
C2 0.0364(15) 0.0309(18) 0.0244(14) -0.0019(12) 0.0007(12) -0.0037(12)
C3 0.0285(14) 0.0282(16) 0.0238(14) -0.0043(12) 0.0066(12) 0.0005(12)
C4 0.0219(12) 0.0225(15) 0.0211(13) -0.0007(11) 0.0051(10) -0.0007(11)
C5 0.0184(11) 0.0235(13) 0.0185(11) 0.0006(13) -0.0007(9) -0.0004(12)
C6 0.0231(13) 0.0252(15) 0.0269(15) -0.0012(12) 0.0041(11) 0.0018(11)
C7 0.0219(14) 0.0391(18) 0.0322(16) -0.0064(14) 0.0013(12) 0.0059(13)
C8 0.0220(14) 0.057(2) 0.0263(16) -0.0088(14) 0.0046(12) -0.0021(13)
C9 0.0346(17) 0.045(2) 0.0275(17) 0.0005(14) 0.0106(13) -0.0146(15)
C10 0.0344(16) 0.0264(15) 0.0241(15) 0.0008(12) 0.0064(12) -0.0024(12)
C11 0.0211(12) 0.0248(15) 0.0251(13) -0.0013(11) 0.0077(11) 0.0005(10)
C12 0.0168(11) 0.0246(16) 0.0261(13) -0.0009(11) 0.0063(10) -0.0033(10)
C13 0.0269(14) 0.0237(15) 0.0293(16) -0.0045(12) 0.0036(12) -0.0002(11)
C14 0.0296(15) 0.0246(15) 0.0278(16) 0.0025(12) 0.0033(12) 0.0011(12)
C15 0.0210(11) 0.0288(16) 0.0211(12) 0.0006(14) 0.0065(10) -0.0031(13)
C16 0.0315(15) 0.0261(16) 0.0291(15) -0.0027(12) 0.0114(12) 0.0028(13)
C17 0.0258(14) 0.0249(15) 0.0260(14) 0.0024(12) 0.0060(12) 0.0024(11)
loop_
_atom_type_symbol
_atom_type_description
_atom_type_scat_dispersion_real
_atom_type_scat_dispersion_imag
_atom_type_scat_source
C C 0.0033 0.0016 'International Tables Vol C Tables 4.2.6.8 and 6.1.1.4'
H H 0.0000 0.0000 'International Tables Vol C Tables 4.2.6.8 and 6.1.1.4'
Cl Cl 0.1484 0.1585 'International Tables Vol C Tables 4.2.6.8 and 6.1.1.4'
N N 0.0061 0.0033 'International Tables Vol C Tables 4.2.6.8 and 6.1.1.4'
loop_
_geom_angle_atom_site_label_1
_geom_angle_atom_site_label_2
_geom_angle_atom_site_label_3
_geom_angle
_geom_angle_site_symmetry_1
_geom_angle_site_symmetry_3
_geom_angle_publ_flag
C4 N1 C11 61.36(16) . . ?
C4 N1 H1 110(2) . . ?
C11 N1 H1 109(2) . . ?
C2 C1 H1A 124(2) . . ?
C2 C1 H1B 124(2) . . ?
H1A C1 H1B 111.7(19) . . ?
C1 C2 H2 117.9 . . ?
C1 C2 C3 124.1(3) . . ?
C3 C2 H2 117.9 . . ?
C2 C3 H3A 109.3 . . ?
C2 C3 H3B 109.3 . . ?
C2 C3 C4 111.8(2) . . ?
H3A C3 H3B 107.9 . . ?
C4 C3 H3A 109.3 . . ?
C4 C3 H3B 109.3 . . ?
N1 C4 C3 116.9(2) . . ?
N1 C4 C5 116.1(2) . . ?
N1 C4 C11 59.72(17) . . ?
C5 C4 C3 115.7(2) . . ?
C5 C4 C11 120.7(2) . . ?
C11 C4 C3 116.2(2) . . ?
C6 C5 C4 120.8(3) . . ?
C10 C5 C4 120.6(3) . . ?
C10 C5 C6 118.6(2) . . ?
C5 C6 H6 119.6 . . ?
C5 C6 C7 120.8(3) . . ?
C7 C6 H6 119.6 . . ?
C6 C7 H7 120.0 . . ?
C8 C7 C6 120.0(3) . . ?
C8 C7 H7 120.0 . . ?
C7 C8 H8 120.1 . . ?
C7 C8 C9 119.9(3) . . ?
C9 C8 H8 120.1 . . ?
C8 C9 H9 119.7 . . ?
C8 C9 C10 120.5(3) . . ?
C10 C9 H9 119.7 . . ?
C5 C10 H10 119.9 . . ?
C9 C10 C5 120.3(3) . . ?
C9 C10 H10 119.9 . . ?
N1 C11 C4 58.93(16) . . ?
N1 C11 H11 114.8 . . ?
N1 C11 C12 117.6(2) . . ?
C4 C11 H11 114.8 . . ?
C12 C11 C4 124.3(2) . . ?
C12 C11 H11 114.8 . . ?
C13 C12 C11 119.0(2) . . ?
C17 C12 C11 122.4(2) . . ?
C17 C12 C13 118.7(2) . . ?
C12 C13 H13 119.3 . . ?
C14 C13 C12 121.3(3) . . ?
C14 C13 H13 119.3 . . ?
C13 C14 H14 120.7 . . ?
C15 C14 C13 118.5(3) . . ?
C15 C14 H14 120.7 . . ?
C14 C15 Cl1 119.1(2) . . ?
C16 C15 Cl1 119.3(2) . . ?
C16 C15 C14 121.5(2) . . ?
C15 C16 H16 120.5 . . ?
C15 C16 C17 119.1(3) . . ?
C17 C16 H16 120.5 . . ?
C12 C17 C16 120.8(3) . . ?
C12 C17 H17 119.6 . . ?
C16 C17 H17 119.6 . . ?
loop_
_geom_bond_atom_site_label_1
_geom_bond_atom_site_label_2
_geom_bond_distance
_geom_bond_site_symmetry_2
_geom_bond_publ_flag
Cl1 C15 1.751(2) . ?
N1 C4 1.469(3) . ?
N1 C11 1.481(3) . ?
N1 H1 0.899(13) . ?
C1 C2 1.312(4) . ?
C1 H1A 0.943(13) . ?
C1 H1B 0.948(13) . ?
C2 H2 0.9500 . ?
C2 C3 1.498(4) . ?
C3 H3A 0.9900 . ?
C3 H3B 0.9900 . ?
C3 C4 1.526(4) . ?
C4 C5 1.491(3) . ?
C4 C11 1.505(3) . ?
C5 C6 1.389(4) . ?
C5 C10 1.389(4) . ?
C6 H6 0.9500 . ?
C6 C7 1.390(4) . ?
C7 H7 0.9500 . ?
C7 C8 1.372(4) . ?
C8 H8 0.9500 . ?
C8 C9 1.375(4) . ?
C9 H9 0.9500 . ?
C9 C10 1.388(4) . ?
C10 H10 0.9500 . ?
C11 H11 1.0000 . ?
C11 C12 1.485(4) . ?
C12 C13 1.389(4) . ?
C12 C17 1.385(4) . ?
C13 H13 0.9500 . ?
C13 C14 1.385(4) . ?
C14 H14 0.9500 . ?
C14 C15 1.380(4) . ?
C15 C16 1.379(4) . ?
C16 H16 0.9500 . ?
C16 C17 1.387(4) . ?
C17 H17 0.9500 . ?
loop_
_geom_torsion_atom_site_label_1
_geom_torsion_atom_site_label_2
_geom_torsion_atom_site_label_3
_geom_torsion_atom_site_label_4
_geom_torsion
_geom_torsion_site_symmetry_1
_geom_torsion_site_symmetry_2
_geom_torsion_site_symmetry_3
_geom_torsion_site_symmetry_4
_geom_torsion_publ_flag
Cl1 C15 C16 C17 -179.1(2) . . . . ?
N1 C4 C5 C6 -28.2(3) . . . . ?
N1 C4 C5 C10 154.2(2) . . . . ?
N1 C4 C11 C12 -104.1(3) . . . . ?
N1 C11 C12 C13 173.5(2) . . . . ?
N1 C11 C12 C17 -5.1(3) . . . . ?
C1 C2 C3 C4 -123.2(4) . . . . ?
C2 C3 C4 N1 78.0(3) . . . . ?
C2 C3 C4 C5 -64.2(3) . . . . ?
C2 C3 C4 C11 145.6(2) . . . . ?
C3 C4 C5 C6 114.3(3) . . . . ?
C3 C4 C5 C10 -63.2(3) . . . . ?
C3 C4 C11 N1 -107.3(3) . . . . ?
C3 C4 C11 C12 148.6(3) . . . . ?
C4 N1 C11 C12 115.3(2) . . . . ?
C4 C5 C6 C7 -177.4(2) . . . . ?
C4 C5 C10 C9 177.3(2) . . . . ?
C4 C11 C12 C13 -116.9(3) . . . . ?
C4 C11 C12 C17 64.5(3) . . . . ?
C5 C4 C11 N1 104.2(3) . . . . ?
C5 C4 C11 C12 0.1(4) . . . . ?
C5 C6 C7 C8 0.3(4) . . . . ?
C6 C5 C10 C9 -0.4(4) . . . . ?
C6 C7 C8 C9 -0.5(4) . . . . ?
C7 C8 C9 C10 0.4(5) . . . . ?
C8 C9 C10 C5 0.1(5) . . . . ?
C10 C5 C6 C7 0.2(4) . . . . ?
C11 N1 C4 C3 106.0(2) . . . . ?
C11 N1 C4 C5 -111.9(2) . . . . ?
C11 C4 C5 C6 -97.0(3) . . . . ?
C11 C4 C5 C10 85.4(3) . . . . ?
C11 C12 C13 C14 -177.5(2) . . . . ?
C11 C12 C17 C16 176.7(2) . . . . ?
C12 C13 C14 C15 0.3(4) . . . . ?
C13 C12 C17 C16 -1.9(4) . . . . ?
C13 C14 C15 Cl1 178.4(2) . . . . ?
C13 C14 C15 C16 -1.2(4) . . . . ?
C14 C15 C16 C17 0.5(4) . . . . ?
C15 C16 C17 C12 1.1(4) . . . . ?
C17 C12 C13 C14 1.2(4) . . . . ?
