#------------------------------------------------------------------------------
#$Date: 2022-02-03 22:44:44 +0200 (Thu, 03 Feb 2022) $
#$Revision: 272475 $
#$URL: file:///home/coder/svn-repositories/cod/cif/4/51/93/4519304.cif $
#------------------------------------------------------------------------------
#
# This file is available in the Crystallography Open Database (COD),
# http://www.crystallography.net/
#
# All data on this site have been placed in the public domain by the
# contributors.
#
data_4519304
loop_
_publ_author_name
'Leclair, Alexandre'
'Wang, Qian'
'Zhu, Jieping'
_publ_section_title
;
 Two-Carbon Ring Expansion of Cyclobutanols to Cyclohexenones Enabled by
 Indole Radical Cation Intermediate: Development and Application to a
 Total Synthesis of Uleine
;
_journal_issue                   2
_journal_name_full               'ACS Catalysis'
_journal_page_first              1209
_journal_page_last               1215
_journal_paper_doi               10.1021/acscatal.1c05621
_journal_volume                  12
_journal_year                    2022
_chemical_formula_moiety         'C16 H15 N O'
_chemical_formula_sum            'C16 H15 N O'
_chemical_formula_weight         237.29
_space_group_crystal_system      triclinic
_space_group_IT_number           2
_space_group_name_Hall           '-P 1'
_space_group_name_H-M_alt        'P -1'
_atom_sites_solution_hydrogens   geom
_atom_sites_solution_primary     dual
_atom_sites_solution_secondary   difmap
_audit_creation_date             2020-12-09
_audit_creation_method
;
Olex2 1.3
(compiled 2020.11.12 svn.r5f609507 for OlexSys, GUI svn.r6226)
;
_cell_angle_alpha                75.423(2)
_cell_angle_beta                 85.496(2)
_cell_angle_gamma                84.466(2)
_cell_formula_units_Z            2
_cell_length_a                   4.86815(14)
_cell_length_b                   8.4796(3)
_cell_length_c                   15.0305(4)
_cell_measurement_reflns_used    9883
_cell_measurement_temperature    140.01(10)
_cell_measurement_theta_max      76.3770
_cell_measurement_theta_min      5.4460
_cell_volume                     596.74(3)
_computing_cell_refinement       'CrysAlisPro 1.171.41.89a (Rigaku OD, 2020)'
_computing_data_collection       'CrysAlisPro 1.171.41.89a (Rigaku OD, 2020)'
_computing_data_reduction        'CrysAlisPro 1.171.41.89a (Rigaku OD, 2020)'
_computing_molecular_graphics    'Olex2 1.3 (Dolomanov et al., 2009)'
_computing_publication_material  'Olex2 1.3 (Dolomanov et al., 2009)'
_computing_structure_refinement  'ShelXL 2018/3 (Sheldrick, 2015)'
_computing_structure_solution    'ShelXT 2018/2 (Sheldrick, 2015)'
_diffrn_ambient_environment      N~2~
_diffrn_ambient_temperature      140.01(10)
_diffrn_detector                 'CCD plate'
_diffrn_detector_area_resol_mean 10.2665
_diffrn_detector_type            Atlas
_diffrn_measured_fraction_theta_full 0.997
_diffrn_measured_fraction_theta_max 0.982
_diffrn_measurement_details
;
List of Runs (angles in degrees, time in seconds):

  # Type    Start    End  Width  t~exp~   \w     \q     \k     \f   Frames
--------------------------------------------------------------------------
  1  \w    -70.00 -45.00   1.00    1.00    --  -43.01 159.00 -94.00   25
  2  \w    -79.00 -54.00   1.00    1.00    --  -43.01-159.00-126.00   25
  3  \w    -82.00   0.00   1.00    1.00    --  -43.01 118.00 112.00   82
  4  \w     23.00  88.00   1.00    1.00    --   43.01-118.00  25.00   65
  5  \w     54.00 109.00   1.00    4.00    --  112.00-118.00  25.00   55
  6  \w     93.00 120.00   1.00    4.00    --  112.00 159.00 -94.00   27
  7  \w    115.00 140.00   1.00    4.00    --  112.00 118.00 112.00   25
  8  \w     90.00 127.00   1.00    4.00    --  112.00-159.00-126.00   37
  9  \w      1.00  26.00   1.00    1.00    --   38.00  90.00  94.44   25
 10  \w      3.00  28.00   1.00    1.00    --   38.00  88.00  12.66   25
 11  \w      9.00  34.00   1.00    1.00    --   42.00  77.00 151.65   25
 12  \w      9.00  34.00   1.00    1.00    --   42.00  78.00 -54.74   25
 13  \w      9.00  34.00   1.00    1.00    --   42.00  83.00 170.97   25
 14  \w     16.00  42.00   1.00    1.00    --   42.00  82.00  30.22   26
 15  \w   -115.00 -89.00   1.00    1.00    --  -43.01 -19.00-150.00   26
 16  \w    -61.00  -4.00   1.00    1.00    --  -43.01 -19.00-150.00   57
 17  \w   -116.00 -55.00   1.00    1.00    --  -43.01 -37.00  60.00   61
 18  \w    -49.00 -21.00   1.00    1.00    --  -43.01 -37.00  60.00   28
 19  \w     13.00  38.00   1.00    1.00    --   46.00  82.00 -94.15   25
 20  \w     16.00  41.00   1.00    1.00    --   50.00  81.00 115.32   25
 21  \w     16.00  41.00   1.00    1.00    --   50.00  82.00-169.38   25
 22  \w     16.00  41.00   1.00    1.00    --   50.00  81.00 -21.80   25
 23  \w     16.00  41.00   1.00    1.00    --   50.00  81.00 -55.15   25
 24  \w    108.00 133.00   1.00    1.00    --   58.00  73.00-140.81   25
 25  \w     31.00  61.00   1.00    1.00    --   58.00  73.00-140.81   30
 26  \w     34.00  96.00   1.00    1.00    --   58.00  50.00  47.93   62
 27  \w     30.00  73.00   1.00    1.00    --   62.00  74.00 -63.79   43
 28  \w     84.00 110.00   1.00    1.00    --   62.00  74.00 -63.79   26
 29  \w    110.00 135.00   1.00    1.00    --   62.00  45.00  24.72   25
 30  \w     31.00  59.00   1.00    1.00    --   62.00  72.00-109.84   28
 31  \w     37.00  68.00   1.00    1.00    --   62.00  45.00  24.72   31
 32  \w     99.00 124.00   1.00    1.00    --   62.00  72.00-109.84   25
 33  \w     36.00  72.00   1.00    1.00    --   66.00  71.00 162.93   36
 34  \w     39.00  67.00   1.00    1.00    --   70.00  69.00-166.75   28
 35  \w    118.00 143.00   1.00    1.00    --   70.00  69.00  94.19   25
 36  \w     40.00  73.00   1.00    1.00    --   70.00  69.00  94.19   33
 37  \w     49.00  75.00   1.00    1.00    --   74.00  61.00 132.78   26
 38  \w     89.00 114.00   1.00    1.00    --   74.00  61.00 132.78   25
 39  \w    116.00 151.00   1.00    4.00    --   78.00  74.00  26.64   35
 40  \w     47.00  82.00   1.00    4.00    --   78.00  74.00  26.64   35
 41  \w    109.00 139.00   1.00    4.00    --   78.00  51.00-117.29   30
 42  \w     53.00 105.00   1.00    4.00    --   78.00  51.00-117.29   52
 43  \w     70.00  97.00   1.00    4.00    --   82.00  56.00 -41.39   27
 44  \w     50.00  78.00   1.00    4.00    --   82.00  74.00 -93.75   28
 45  \w     58.00  84.00   1.00    4.00    --   86.00  59.00  61.41   26
 46  \w     60.00 100.00   1.00    4.00    --   90.00  71.00 -10.36   40
 47  \w     69.00 100.00   1.00    4.00    --   98.00  68.00 -73.01   31
 48  \w     72.00  98.00   1.00    4.00    --   98.00  59.00  61.82   26
 49  \w    119.00 145.00   1.00    4.00    --   98.00  59.00  61.82   26
 50  \w     40.00 109.00   1.00    4.00    --  112.00-111.00  60.00   69
 51  \w    118.00 177.00   1.00    4.00    --  112.00  61.00-150.00   59
 52  \w     87.00 112.00   1.00    4.00    --  112.00  61.00 -30.00   25
 53  \w     85.00 111.00   1.00    4.00    --  112.00  61.00-150.00   26
 54  \w     84.00 169.00   1.00    4.00    --  112.00  61.00 150.00   85
 55  \w     88.00 120.00   1.00    4.00    --  112.00  45.00  90.00   32
 56  \w    127.00 173.00   1.00    4.00    --  112.00  61.00-120.00   46
 57  \w     71.00 131.00   1.00    4.00    --  112.00 178.00  60.00   60
 58  \w    119.00 163.00   1.00    4.00    --  112.00  61.00  60.00   44
 59  \w     84.00 112.00   1.00    4.00    --  112.00  61.00-120.00   28
 60  \w     83.00 111.00   1.00    4.00    --  112.00  61.00  60.00   28
 61  \w     83.00 168.00   1.00    4.00    --  112.00  61.00-180.00   85
 62  \w     96.00 138.00   1.00    4.00    --  112.00  45.00 -90.00   42
 63  \w     40.00 123.00   1.00    4.00    --  112.00 -45.00-180.00   83
 64  \w     93.00 120.00   1.00    4.00    --  112.00  45.00 -30.00   27
 65  \w     50.00 127.00   1.00    4.00    --  112.00 -61.00  30.00   77
 66  \w     58.00 144.00   1.00    4.00    --  112.00 -77.00-180.00   86
 67  \w    122.00 173.00   1.00    4.00    --  112.00  61.00  30.00   51
 68  \w     84.00 112.00   1.00    4.00    --  112.00  61.00  30.00   28
 69  \w     84.00 167.00   1.00    4.00    --  112.00  61.00   0.00   83
 70  \w     41.00 102.00   1.00    4.00    --  112.00-111.00-150.00   61
 71  \w    116.00 163.00   1.00    4.00    --  112.00  61.00 -60.00   47
 72  \w     83.00 178.00   1.00    4.00    --  112.00  61.00  90.00   95
 73  \w     84.00 111.00   1.00    4.00    --  112.00  61.00 -60.00   27
 74  \w    130.00 178.00   1.00    4.00    --  112.00  61.00 -90.00   48
 75  \w     84.00 114.00   1.00    4.00    --  112.00  56.00 142.67   30
 76  \w     85.00 112.00   1.00    4.00    --  112.00  61.00 -90.00   27
 77  \w     83.00 132.00   1.00    4.00    --  112.00  61.00 120.00   49
 78  \w    118.00 175.00   1.00    4.00    --  112.00  61.00 -30.00   57
;
_diffrn_measurement_device       'four-circle diffractometer'
_diffrn_measurement_device_type  'SuperNova, Dual, Cu at home/near, Atlas'
_diffrn_measurement_method       '\w scans'
_diffrn_orient_matrix_type
'CrysAlisPro convention (1999,Acta A55,543-557)'
_diffrn_orient_matrix_UB_11      0.0263486000
_diffrn_orient_matrix_UB_12      0.1509712000
_diffrn_orient_matrix_UB_13      0.0372811000
_diffrn_orient_matrix_UB_21      0.0187166000
_diffrn_orient_matrix_UB_22      -0.1105780000
_diffrn_orient_matrix_UB_23      0.0981805000
_diffrn_orient_matrix_UB_31      0.3168001000
_diffrn_orient_matrix_UB_32      -0.0210657000
_diffrn_orient_matrix_UB_33      -0.0149060000
_diffrn_radiation_monochromator  mirror
_diffrn_radiation_probe          x-ray
_diffrn_radiation_type           'Cu K\a'
_diffrn_radiation_wavelength     1.54184
_diffrn_reflns_av_R_equivalents  0.0104
_diffrn_reflns_av_unetI/netI     0.0061
_diffrn_reflns_Laue_measured_fraction_full 0.997
_diffrn_reflns_Laue_measured_fraction_max 0.982
_diffrn_reflns_limit_h_max       6
_diffrn_reflns_limit_h_min       -5
_diffrn_reflns_limit_k_max       10
_diffrn_reflns_limit_k_min       -10
_diffrn_reflns_limit_l_max       18
_diffrn_reflns_limit_l_min       -18
_diffrn_reflns_number            11736
_diffrn_reflns_point_group_measured_fraction_full 0.997
_diffrn_reflns_point_group_measured_fraction_max 0.982
_diffrn_reflns_theta_full        67.684
_diffrn_reflns_theta_max         76.505
_diffrn_reflns_theta_min         3.043
_diffrn_source                   'micro-focus sealed X-ray tube'
_diffrn_source_type              'SuperNova (Cu) X-ray Source'
_exptl_absorpt_coefficient_mu    0.645
_exptl_absorpt_correction_T_max  1.000
_exptl_absorpt_correction_T_min  0.654
_exptl_absorpt_correction_type   gaussian
_exptl_absorpt_process_details
;
CrysAlisPro 1.171.41.89a (Rigaku Oxford Diffraction, 2020)
Numerical absorption correction based on Gaussian integration over
a multifaceted crystal model.
Empirical absorption correction using spherical harmonics
as implemented in SCALE3 ABSPACK scaling algorithm
;
_exptl_crystal_colour            colourless
_exptl_crystal_colour_primary    colourless
_exptl_crystal_density_diffrn    1.321
_exptl_crystal_description       prism
_exptl_crystal_F_000             252
_exptl_crystal_size_max          0.99
_exptl_crystal_size_mid          0.21
_exptl_crystal_size_min          0.13
_refine_diff_density_max         0.266
_refine_diff_density_min         -0.164
_refine_diff_density_rms         0.033
_refine_ls_extinction_coef       0.012(3)
_refine_ls_extinction_expression Fc^*^=kFc[1+0.001xFc^2^\l^3^/sin(2\q)]^-1/4^
_refine_ls_extinction_method     'SHELXL-2018/3 (Sheldrick 2018)'
_refine_ls_goodness_of_fit_ref   1.032
_refine_ls_hydrogen_treatment    constr
_refine_ls_matrix_type           full
_refine_ls_number_parameters     166
_refine_ls_number_reflns         2458
_refine_ls_number_restraints     0
_refine_ls_restrained_S_all      1.032
_refine_ls_R_factor_all          0.0355
_refine_ls_R_factor_gt           0.0346
_refine_ls_shift/su_max          0.000
_refine_ls_shift/su_mean         0.000
_refine_ls_structure_factor_coef Fsqd
_refine_ls_weighting_details
'w=1/[\s^2^(Fo^2^)+(0.0452P)^2^+0.1944P] where P=(Fo^2^+2Fc^2^)/3'
_refine_ls_weighting_scheme      calc
_refine_ls_wR_factor_gt          0.0879
_refine_ls_wR_factor_ref         0.0887
_reflns_Friedel_coverage         0.000
_reflns_number_gt                2377
_reflns_number_total             2458
_reflns_threshold_expression     'I > 2\s(I)'
_cod_data_source_file            cs1c05621_si_002.cif
_cod_data_source_block           al-07-082
_cod_depositor_comments
;
The following automatic conversions were performed:

data item '_exptl_absorpt_correction_type' value 'Gaussian' was
changed to 'gaussian' in accordance with the
/home/data/users/saulius/crontab/automatic-downloads/current/ACS/lib/dictionaries/cif_core.dic
dictionary named 'cif_core.dic' version 2.4.2 last updated on
2011-04-26.

Automatic conversion script
Id: cif_fix_values 7556 2019-12-06 15:28:31Z antanas 
;
_cod_database_code               4519304
_shelx_shelxl_version_number     2018/3
_audit_contact_author            'Farzaneh Fadaei Tirani'
_chemical_oxdiff_formula         'C16 H15 N O'
_shelx_space_group_comment
;
The symmetry employed for this shelxl refinement is uniquely defined
by the following loop, which should always be used as a source of
symmetry information in preference to the above space-group names.
They are only intended as comments.
;
_shelx_estimated_absorpt_t_max   0.921
_shelx_estimated_absorpt_t_min   0.568
_reflns_odcompleteness_completeness 99.34
_reflns_odcompleteness_iscentric 1
_reflns_odcompleteness_theta     74.33
_olex2_refinement_description
;
1. Fixed Uiso
 At 1.2 times of:
  All C(H) groups, All C(H,H) groups, All C(H,H,H,H,H,H) groups
2. Others
 Sof(H16A)=Sof(H16B)=Sof(H16C)=1-FVAR(1)
 Sof(H16D)=Sof(H16E)=Sof(H16F)=FVAR(1)
3.a Ternary CH refined with riding coordinates:
 C4(H4), C8(H8)
3.b Secondary CH2 refined with riding coordinates:
 C3(H3A,H3B), C7(H7A,H7B)
3.c Aromatic/amide H refined with riding coordinates:
 C5(H5), C6(H6), C11(H11), C12(H12), C13(H13), C14(H14)
3.d Disordered Me refined as rotating group:
 C16(H16A,H16B,H16C,H16D,H16E,H16F)
;
_shelx_res_file
;
TITL al-07-082.res in P-1
    al-07-082.res
    created by SHELXL-2018/3 at 17:33:15 on 09-Dec-2020
CELL 1.54184 4.868151 8.479565 15.030529 75.4229 85.4965 84.4663
ZERR 2 0.00014 0.000253 0.000372 0.0023 0.0022 0.0024
LATT 1
SFAC C H N O
UNIT 32 30 2 2

L.S. 20
PLAN  10
SIZE 0.13 0.21 0.99
TEMP -133.15
CONF
BOND $H
fmap 2
acta
MORE -1
REM <olex2.extras>
REM <HklSrc "%.\\AL-07-082.hkl">
REM </olex2.extras>

WGHT    0.045200    0.194400
EXTI    0.012127
FVAR       1.72018   0.65489
O1    4    0.623417    0.698247    0.511879    11.00000    0.02859    0.03848 =
         0.02193   -0.00360    0.00439    0.00125
N1    3    0.672430    0.452224    0.691040    11.00000    0.02202    0.01995 =
         0.02180   -0.00650    0.00039    0.00093
C1    1    0.482202    0.587231    0.668185    11.00000    0.01785    0.02042 =
         0.02147   -0.00628   -0.00142   -0.00075
C2    1    0.460088    0.700249    0.578104    11.00000    0.02046    0.02601 =
         0.02023   -0.00560   -0.00114   -0.00265
C3    1    0.207801    0.820373    0.570119    11.00000    0.02379    0.03446 =
         0.02127   -0.00169   -0.00310    0.00441
AFIX  23
H3A   2    0.053794    0.770216    0.551170    11.00000   -1.20000
H3B   2    0.247523    0.918372    0.520528    11.00000   -1.20000
AFIX   0
C4    1    0.111868    0.875235    0.657805    11.00000    0.01935    0.02657 =
         0.02520   -0.00257   -0.00071    0.00572
AFIX  13
H4    2   -0.075321    0.934635    0.648383    11.00000   -1.20000
AFIX   0
C5    1    0.298109    0.987176    0.683702    11.00000    0.02490    0.02041 =
         0.03947   -0.00466    0.00551    0.00224
AFIX  43
H5    2    0.392897    1.068737    0.640412    11.00000   -1.20000
AFIX   0
C6    1    0.313222    0.957925    0.773843    11.00000    0.02506    0.02472 =
         0.04266   -0.01447   -0.00141    0.00181
AFIX  43
H6    2    0.420075    1.015671    0.803392    11.00000   -1.20000
AFIX   0
C7    1    0.139921    0.821675    0.823769    11.00000    0.03009    0.02559 =
         0.02623   -0.00940   -0.00019    0.00348
AFIX  23
H7A   2   -0.037075    0.864870    0.849161    11.00000   -1.20000
H7B   2    0.239611    0.745827    0.874419    11.00000   -1.20000
AFIX   0
C8    1    0.091542    0.736268    0.747142    11.00000    0.01707    0.02401 =
         0.02292   -0.00566    0.00076    0.00003
AFIX  13
H8    2   -0.096108    0.694063    0.756354    11.00000   -1.20000
AFIX   0
C9    1    0.311467    0.600313    0.744475    11.00000    0.01792    0.02060 =
         0.02064   -0.00553   -0.00086   -0.00300
C10   1    0.396537    0.466241    0.817995    11.00000    0.02121    0.01994 =
         0.02157   -0.00567   -0.00074   -0.00373
C11   1    0.303611    0.409812    0.910629    11.00000    0.02871    0.02770 =
         0.02273   -0.00477    0.00224   -0.00470
AFIX  43
H11   2    0.150441    0.465586    0.935946    11.00000   -1.20000
AFIX   0
C12   1    0.438307    0.272480    0.963943    11.00000    0.03773    0.03040 =
         0.02287   -0.00014   -0.00079   -0.00831
AFIX  43
H12   2    0.376239    0.233177    1.026459    11.00000   -1.20000
AFIX   0
C13   1    0.666208    0.189352    0.927467    11.00000    0.03605    0.02150 =
         0.03097    0.00133   -0.00897   -0.00348
AFIX  43
H13   2    0.757187    0.096179    0.966336    11.00000   -1.20000
AFIX   0
C14   1    0.760891    0.239461    0.836922    11.00000    0.02774    0.01889 =
         0.03230   -0.00614   -0.00497   -0.00024
AFIX  43
H14   2    0.914062    0.182327    0.812486    11.00000   -1.20000
AFIX   0
C15   1    0.621910    0.378426    0.782154    11.00000    0.02274    0.01829 =
         0.02269   -0.00590   -0.00198   -0.00354
C16   1    0.872971    0.385703    0.630096    11.00000    0.02786    0.02711 =
         0.02814   -0.01122    0.00321    0.00320
AFIX 127
H16A  2    0.776210    0.356092    0.582601   -21.00000   -1.20000
H16B  2    0.975715    0.288302    0.665866   -21.00000   -1.20000
H16C  2    1.001846    0.467981    0.600840   -21.00000   -1.20000
H16D  2    1.059637    0.385491    0.650270    21.00000   -1.20000
H16E  2    0.860132    0.453281    0.567005    21.00000   -1.20000
H16F  2    0.834001    0.273603    0.632031    21.00000   -1.20000
AFIX   0
HKLF 4




REM  al-07-082.res in P-1
REM wR2 = 0.0887, GooF = S = 1.032, Restrained GooF = 1.032 for all data
REM R1 = 0.0346 for 2377 Fo > 4sig(Fo) and 0.0355 for all 2458 data
REM 166 parameters refined using 0 restraints

END

WGHT      0.0452      0.1944

REM Highest difference peak  0.266,  deepest hole -0.164,  1-sigma level  0.033
Q1    1   0.1010  0.8048  0.7016  11.00000  0.05    0.27
Q2    1   0.4997  0.4200  0.8011  11.00000  0.05    0.26
Q3    1   0.4704  0.6341  0.6246  11.00000  0.05    0.25
Q4    1   0.3811  0.5958  0.7025  11.00000  0.05    0.25
Q5    1   0.3497  0.7746  0.5794  11.00000  0.05    0.25
Q6    1   0.2059  0.6699  0.7475  11.00000  0.05    0.24
Q7    1   0.1742  0.8400  0.6175  11.00000  0.05    0.24
Q8    1   0.3116  0.5296  0.7855  11.00000  0.05    0.24
Q9    1   0.6900  0.3133  0.8046  11.00000  0.05    0.24
Q10   1   0.3618  0.4509  0.8613  11.00000  0.05    0.23
;
_shelx_res_checksum              95979
_shelx_hkl_file
;
   0   0  -1  720.20    2.68
   0   0   3    4.39    0.46
   0   0  -3    5.25    0.22
   0   0  -3    4.84    0.46
   0   0  -4  143.53    1.21
   0   0   4  135.32    2.54
   0   0  -4  137.88    2.39
   0   0   4  139.07    2.22
   0   0  -5    3.25    0.53
   0   0   5    3.61    0.58
   0   0  -5    3.56    0.50
   0   0  -6  403.63    5.17
   0   0   6  405.91    4.19
   0   0   6  403.26    5.56
   0   0   6  403.28    2.63
   0   0  -6  395.69    3.35
   0   0  -6  409.00    5.18
   0   0   7 1166.40   10.47
   0   0  -7 1150.95    9.55
   0   0   7 1183.47    7.67
   0   0   7 1182.53    4.32
   0   0  -7 1139.54    6.14
   0   0   7 1164.45    5.01
   0   0  -7 1161.36    9.64
   0   0   8  831.54    7.26
   0   0  -8  820.66    8.84
   0   0   8  839.92    6.55
   0   0   8  847.75    6.86
   0   0  -8  800.92    8.99
   0   0   8  813.30    4.66
   0   0   8  813.59    3.99
   0   0   9    2.49    0.54
   0   0  -9    2.49    0.76
   0   0   9    2.24    0.37
   0   0  -9    3.55    0.31
   0   0   9    3.15    0.32
   0   0  -9    2.25    0.71
   0   0 -10   42.49    2.44
   0   0  10   42.42    1.33
   0   0  10   44.39    1.11
   0   0  11   82.85    1.93
   0   0 -11   91.79    1.71
   0   0  11   86.00    1.63
   0   0 -11   76.97    3.52
   0   0 -11   84.98    1.71
   0   0  11   84.80    1.88
   0   0 -11   84.68    1.55
   0   0  12  997.59    6.99
   0   0  12  999.68    5.74
   0   0 -12  998.77    5.91
   0   0 -12  973.89   12.82
   0   0 -12  999.97    6.21
   0   0 -12 1002.04    6.20
   0   0 -12  988.49    6.20
   0   0  12  982.50    6.85
   0   0 -12  991.42    5.42
   0   0 -12  996.94    5.69
   0   0  12 1000.97    6.89
   0   0 -13   53.58    1.46
   0   0  13   52.00    1.69
   0   0 -13   53.91    1.48
   0   0 -13   50.97    1.51
   0   0 -13   54.13    1.31
   0   0 -13   54.94    1.49
   0   0  13   51.00    1.64
   0   0  13   53.20    1.70
   0   0 -14   28.47    1.09
   0   0  14   29.76    2.59
   0   0 -14   29.47    1.17
   0   0 -14   28.42    1.05
   0   0  14   27.71    1.23
   0   0 -14   29.09    0.95
   0   0  14   27.40    1.26
   0   0  15  208.85    3.21
   0   0 -15  205.41    2.75
   0   0 -15  209.93    2.66
   0   0  15  206.08    2.76
   0   0 -15  206.69    2.85
   0   0 -15  209.11    2.65
   0   0  15  203.65    3.00
   0   0  15  203.84    3.17
   0   0  16   60.39    1.62
   0   0 -16   59.37    1.40
   0   0 -16   59.17    1.33
   0   0  16   58.64    1.32
   0   0 -16   58.47    1.42
   0   0 -16   59.79    1.34
   0   0  16   58.55    1.44
   0   0  16   58.83    1.53
   0   0 -17   36.05    0.89
   0   0 -17   34.78    0.96
   0   0 -17   35.44    0.89
   0   0  17   34.66    1.02
   0   0  17   34.86    0.90
   0   0 -18   27.40    0.65
   0   0  18   27.35    0.75
   0  -1  17  264.69    2.53
   0   1 -17  271.43    2.29
   0  -1  17  268.51    2.64
   0   1 -16  118.57    1.83
   0   1 -16  118.48    1.83
   0  -1  16  117.12    1.80
   0   1 -16  119.91    1.82
   0  -1  16  120.02    2.05
   0  -1  15    2.60    0.45
   0   1 -15    1.55    0.31
   0   1 -15    2.49    0.40
   0   1 -15    1.29    0.38
   0  -1  15    1.17    0.33
   0   1 -15    1.42    0.29
   0  -1  15    1.66    0.37
   0   1 -15    2.03    0.41
   0  -1  15    1.37    0.45
   0  -1  14  157.21    5.51
   0   1 -14  152.27    2.41
   0   1 -14  158.10    2.43
   0  -1  14  154.52    2.83
   0   1 -14  157.06    2.51
   0  -1  14  150.53    2.57
   0  -1  14  155.61    2.82
   0   1 -14  158.20    2.27
   0   1 -14  157.15    2.43
   0  -1  14  153.74    2.59
   0   1 -13  273.07    3.25
   0  -1  13  274.21    3.85
   0  -1  13  271.70    7.60
   0   1 -13  275.36    3.38
   0  -1  13  273.66    3.55
   0  -1  13  272.99    3.82
   0  -1  13  276.36    3.61
   0   1 -13  277.68    3.07
   0   1 -12   26.02    1.02
   0  -1  12   25.00    2.37
   0   1 -12   25.32    2.06
   0   1 -12   25.61    0.85
   0   1 -12   24.50    1.05
   0  -1  12   26.09    1.17
   0  -1  12   26.98    1.24
   0   1 -12   26.70    0.99
   0   1 -11  446.11    3.85
   0   1 -11  430.03    8.22
   0   1 -11  443.69    3.31
   0   1 -11  434.40    4.04
   0   1 -11  436.14    3.67
   0   1 -11  444.11    3.80
   0  -1  11  442.78    4.53
   0  -1  11  433.18    4.37
   0   1 -10    1.29    0.63
   0   1 -10    1.32    0.34
   0  -1  10    1.64    0.47
   0  -1  10    2.04    0.38
   0  -1   9  274.18    6.40
   0   1  -9  262.28    5.67
   0  -1   9  272.61    2.77
   0   1  -9  266.67    2.59
   0  -1   9  271.98    3.17
   0  -1   9  275.74    4.72
   0  -1   8   40.57    2.35
   0  -1   8   41.83    1.77
   0   1  -8   40.66    2.12
   0  -1   8   41.01    1.16
   0  -1   8   39.89    1.01
   0   1  -7    3.17    0.72
   0  -1   7    4.99    0.64
   0  -1   7    4.21    0.86
   0  -1   7    5.37    0.56
   0  -1   7    3.26    0.36
   0  -1   7    3.68    0.32
   0   1  -6  978.09    8.47
   0  -1   6  954.75    9.17
   0  -1   6  973.70    6.49
   0   1  -6  972.54    4.48
   0  -1   6  962.88    7.32
   0  -1   6  966.31    4.53
   0   1  -6  955.32    6.20
   0  -1   6  972.73    4.00
   0  -1   5  982.16    8.29
   0   1  -5  978.00    7.70
   0  -1   5  996.78    6.16
   0  -1   5  976.18    6.82
   0  -1   5  996.54    4.11
   0   1  -5 1008.34    5.69
   0   1  -4 1972.50    9.80
   0  -1   4 1982.39    7.95
   0  -1   4 1982.76    8.78
   0  -1   4 1989.20    4.93
   0   1  -3  666.94    3.23
   0   1  -3  658.84    5.12
   0  -1   3  655.94    5.36
   0  -1   3  659.92    4.11
   0  -1   2 2695.92    9.48
   0   1  -2 2705.87    5.99
   0   1  -1  741.91    2.86
   0   1   1  388.46    2.09
   0  -1  -1  390.52    1.64
   0  -1  -3  450.61    3.35
   0  -1  -3  455.48    1.40
   0  -1  -3  448.67    3.82
   0  -1  -4 1760.68    7.62
   0  -1  -4 1759.26    8.63
   0   1   4 1752.03    7.05
   0   1   4 1762.46    7.39
   0   1   5   85.68    1.75
   0  -1  -5   89.35    1.96
   0  -1  -5   90.84    2.23
   0   1   5   90.08    1.92
   0  -1  -6 2205.74   12.00
   0  -1  -6 2190.85   10.66
   0   1   6 2203.18    9.52
   0   1   6 2194.98    5.83
   0  -1  -7  195.57    3.95
   0  -1  -7  198.23    3.60
   0  -1  -7  193.21    3.85
   0   1   7  198.36    3.59
   0   1   7  197.17    1.96
   0  -1  -8    3.42    0.74
   0  -1  -8    2.24    0.71
   0   1   8    2.42    0.33
   0  -1  -9   12.19    1.32
   0   1   9   12.44    0.64
   0   1   9   12.02    0.51
   0  -1  -9   11.21    1.23
   0  -1 -10  560.47    8.59
   0  -1 -10  569.00    8.57
   0   1  10  567.82    4.40
   0   1  10  563.17    3.59
   0  -1 -10  568.89    3.52
   0  -1 -11  156.00    4.91
   0   1  11  157.75    2.53
   0   1  11  157.33    2.04
   0  -1 -11  153.60    4.91
   0   1  11  157.82    2.54
   0   1  12  111.54    2.30
   0   1  12  108.43    1.78
   0  -1 -12  110.48    4.36
   0  -1 -12  108.81    2.10
   0  -1 -12  110.53    2.13
   0  -1 -12  107.48    1.79
   0   1  12  110.79    2.29
   0   1  12  109.70    2.21
   0  -1 -13  271.27    3.17
   0   1  13  272.62    3.71
   0  -1 -13  265.00    6.92
   0  -1 -13  270.54    3.33
   0  -1 -13  270.96    3.42
   0  -1 -13  271.68    3.37
   0  -1 -13  271.99    2.97
   0   1  13  273.01    3.65
   0   1  14  735.51    6.16
   0  -1 -14  735.58    5.32
   0  -1 -14  728.44    5.55
   0  -1 -14  730.56    5.52
   0   1  14  731.68    6.05
   0  -1 -14  735.63    5.40
   0   1  14  718.49    6.09
   0  -1 -15    8.55    0.64
   0  -1 -15    8.83    0.65
   0  -1 -15    8.81    0.71
   0   1  15    8.83    0.78
   0  -1 -15    8.79    0.61
   0   1  15    8.48    0.75
   0  -1 -16    0.83    0.25
   0   1  16    0.99    0.37
   0  -1 -16    0.65    0.30
   0  -1 -16    0.54    0.35
   0  -1 -16    0.80    0.28
   0   1  16    0.97    0.43
   0   1  16    0.11    0.34
   0  -1 -17   24.87    0.73
   0  -1 -17   24.30    0.88
   0  -1 -17   25.55    0.74
   0   1  17   24.25    0.90
   0   1  17   24.93    0.91
   0  -1 -18   89.33    1.34
   0   1  18   88.16    1.29
   0   1  18   85.23    1.19
   0   2 -17   33.97    0.69
   0  -2  17   33.36    0.76
   0   2 -16   18.29    0.68
   0   2 -16   18.02    0.60
   0  -2  16   17.32    0.77
   0   2 -16   18.05    0.69
   0  -2  16   18.39    0.77
   0   2 -15   92.33    1.72
   0   2 -15   91.64    1.61
   0  -2  15   90.67    1.76
   0   2 -15   93.39    1.71
   0  -2  15   95.32    1.94
   0   2 -14   52.47    1.42
   0  -2  14   53.06    1.63
   0   2 -14   54.14    1.36
   0   2 -14   52.52    1.17
   0   2 -14   52.72    1.37
   0  -2  14   49.84    1.48
   0   2 -14   51.19    1.32
   0   2 -14   52.74    1.43
   0  -2  14   53.85    1.64
   0   2 -13   14.75    0.77
   0  -2  13   16.15    1.87
   0  -2  13   14.73    0.96
   0   2 -13   15.38    0.86
   0   2 -13   15.44    0.84
   0   2 -13   15.19    0.71
   0  -2  13   15.71    0.94
   0   2 -13   14.84    0.85
   0  -2  13   16.47    1.02
   0   2 -13   15.37    0.80
   0   2 -12    5.13    0.50
   0   2 -12    5.15    0.59
   0  -2  12    5.18    0.67
   0  -2  12    4.08    1.19
   0   2 -12    4.56    0.45
   0   2 -12    4.98    0.55
   0  -2  12    5.67    0.65
   0   2 -12    5.11    0.58
   0  -2  12    5.39    0.68
   0   2 -12    4.81    0.52
   0  -2  11   61.46    1.49
   0   2 -11   61.14    1.48
   0  -2  11   61.46    1.83
   0  -2  11   59.36    3.49
   0   2 -11   59.76    3.14
   0   2 -11   60.15    1.56
   0  -2  11   60.06    1.71
   0   2 -11   61.28    1.37
   0  -2  11   62.45    1.83
   0   2 -11   60.21    1.49
   0  -2  11   64.57    1.87
   0   2 -10  407.87    3.65
   0  -2  10  412.94    4.46
   0  -2  10  410.99    3.71
   0   2 -10  405.12    7.87
   0  -2  10  411.00    8.57
   0  -2  10  417.67    8.89
   0  -2  10  411.10    4.16
   0   2 -10  413.21    3.36
   0   2 -10  410.31    3.80
   0  -2  10  417.37    4.42
   0   2 -10  412.05    3.66
   0  -2   9   88.72    3.84
   0  -2   9   93.83    4.04
   0   2  -9   90.29    3.54
   0  -2   9   89.90    1.67
   0   2  -9   91.16    1.64
   0  -2   9   92.59    3.01
   0  -2   9   91.53    2.01
   0  -2   8  536.79    8.59
   0  -2   8  522.02    8.77
   0   2  -8  533.86    8.01
   0  -2   8  534.02    6.91
   0  -2   8  529.93    3.76
   0   2  -8  517.89    3.62
   0   2  -7    2.96    0.72
   0  -2   7    2.71    0.79
   0  -2   7    0.80    0.59
   0  -2   7    1.43    0.48
   0   2  -7    1.50    0.35
   0   2  -7    1.49    0.26
   0   2  -6 1252.90   10.36
   0  -2   6 1227.16   11.26
   0   2  -6 1249.99    7.52
   0  -2   6 1193.89    5.17
   0   2  -6 1209.09    4.58
   0  -2   6 1224.65    9.45
   0  -2   5 1596.72    6.71
   0  -2   5 1533.99   11.49
   0  -2   5 1523.99   11.44
   0  -2   5 1614.89    5.44
   0   2  -5 1592.71    4.77
   0   2  -5 1569.77    8.10
   0  -2   5 1587.25   10.16
   0  -2   4  615.71    4.45
   0  -2   4  610.05    6.67
   0  -2   4  602.64    6.39
   0   2  -4  589.65    6.28
   0   2  -4  630.92    4.84
   0  -2   4  618.17    3.38
   0  -2   4  591.21    5.77
   0  -2   3 2699.04   11.91
   0  -2   3 2708.98   12.88
   0  -2   3 2702.95    8.64
   0  -2   3 2684.06   11.20
   0   2  -2 4233.66    8.83
   0   2  -2 4244.34   14.28
   0  -2   2 4255.67   13.23
   0  -2   2 4184.88   10.31
   0  -2   2 4208.22   12.92
   0   2  -1 1771.07    5.65
   0  -2   1 1794.60    8.34
   0  -2   0  771.38    2.85
   0   2   0  781.39    3.79
   0  -2   0  781.27    5.16
   0   2   1 2946.08    7.69
   0   2   3 1308.89    7.88
   0  -2  -3 1316.29    6.33
   0   2   4    1.96    0.49
   0   2   4    1.88    0.35
   0  -2  -4    2.23    0.37
   0   2   4    2.25    0.36
   0   2   5  101.30    2.12
   0  -2  -5  100.12    2.14
   0   2   5  100.68    2.60
   0  -2  -6   72.49    1.36
   0  -2  -6   68.43    1.94
   0  -2  -6   71.89    2.33
   0   2   6   72.03    1.78
   0   2   6   66.63    1.93
   0   2   6   69.23    1.90
   0   2   7  748.95    6.05
   0  -2  -7  761.85    8.11
   0  -2  -7  745.93    6.91
   0   2   7  765.72    3.88
   0   2   7  760.71    6.91
   0  -2  -8    4.87    0.73
   0  -2  -8    4.47    0.86
   0   2   8    6.27    0.61
   0  -2  -8    5.21    0.30
   0   2   8    4.83    0.39
   0   2   9 1820.91    7.15
   0  -2  -9 1827.64   14.22
   0  -2 -10  179.64    4.99
   0  -2 -10  180.97    1.88
   0   2  10  176.96    2.43
   0  -2 -10  178.66    4.83
   0   2  11  106.92    4.40
   0   2  11  108.03    2.04
   0  -2 -11  105.10    1.56
   0  -2 -11  104.99    3.99
   0   2  11  104.14    2.03
   0  -2 -12  408.04    8.29
   0   2  12  410.21    4.20
   0   2  12  401.82    9.00
   0  -2 -12  401.22    4.09
   0  -2 -12  407.94    3.23
   0   2  12  409.43    4.29
   0   2  13  813.94    6.23
   0  -2 -13  799.89   12.03
   0   2  13  834.79   13.23
   0  -2 -13  793.36    5.97
   0   2  13  809.87    6.03
   0   2  13  814.34    6.38
   0  -2 -13  818.52    4.78
   0   2  14  628.26    5.60
   0  -2 -14  638.51    4.89
   0  -2 -14  625.98    5.08
   0  -2 -14  627.77    5.32
   0  -2 -14  620.12    5.20
   0   2  14  621.12    5.43
   0  -2 -15   22.61    0.97
   0   2  15   22.33    1.11
   0  -2 -15   19.67    0.97
   0  -2 -15   20.81    1.00
   0   2  15   20.97    1.07
   0  -2 -15   21.97    0.97
   0  -2 -16   86.26    1.75
   0  -2 -16   88.85    1.81
   0  -2 -16   87.57    1.78
   0  -2 -16   88.72    1.65
   0   2  16   86.53    1.95
   0   2  16   86.60    1.97
   0  -2 -16   87.82    1.47
   0  -2 -17   27.70    0.95
   0   2  17   27.59    1.03
   0   2  17   27.94    1.02
   0  -2 -18    0.00    0.23
   0   2  18    0.17    0.18
   0   2  18    0.15    0.22
   0  -3  16    4.83    0.34
   0   3 -16    4.86    0.32
   0  -3  16    4.98    0.34
   0   3 -15   16.39    0.68
   0   3 -15   16.27    0.69
   0  -3  15   16.20    0.76
   0  -3  15   15.63    0.74
   0  -3  14   22.62    1.00
   0   3 -14   21.97    0.89
   0   3 -14   21.61    0.75
   0  -3  14   22.04    0.95
   0   3 -14   22.38    0.77
   0  -3  14   22.65    1.02
   0   3 -14   22.08    0.90
   0  -3  14   23.86    1.03
   0   3 -13   12.11    0.75
   0  -3  13   13.65    0.87
   0  -3  13   11.84    0.82
   0   3 -13   12.15    0.66
   0   3 -13   12.10    0.66
   0  -3  13   12.74    0.90
   0   3 -13   13.16    0.81
   0  -3  12   50.91    1.68
   0  -3  12   52.50    1.39
   0  -3  12   50.30    3.28
   0   3 -12   54.42    1.52
   0  -3  12   51.88    1.64
   0   3 -12   53.03    1.41
   0   3 -12   52.57    1.36
   0   3 -12   51.37    1.49
   0   3 -12   56.00    1.50
   0  -3  12   57.79    1.82
   0  -3  11  847.35    6.81
   0   3 -11  859.55    5.94
   0  -3  11  873.52   13.47
   0  -3  11  862.07    5.76
   0  -3  11  844.52   12.81
   0  -3  11  860.19    6.59
   0   3 -11  858.25    5.45
   0   3 -11  862.46    5.70
   0   3 -11  857.76    5.90
   0  -3  11  864.90    6.88
   0   3 -11  857.72    5.84
   0  -3  10  125.53    2.59
   0   3 -10  134.66    2.30
   0   3 -10  131.03    2.10
   0  -3  10  131.41    5.16
   0  -3  10  130.30    2.27
   0   3 -10  124.00    4.49
   0  -3  10  133.42    5.27
   0  -3  10  133.71    4.99
   0   3 -10  129.77    2.10
   0  -3  10  127.59    2.53
   0   3 -10  132.15    2.21
   0   3 -10  130.05    2.26
   0   3 -10  129.76    2.27
   0  -3  10  131.41    2.67
   0   3  -9  445.74    3.70
   0  -3   9  436.95    4.04
   0  -3   9  440.41    9.06
   0  -3   9  431.04    4.61
   0   3  -9  442.22    3.97
   0  -3   9  437.17    8.58
   0   3  -9  434.72    8.11
   0  -3   9  450.92    9.31
   0  -3   9  439.98    4.42
   0   3  -9  438.04    3.67
   0   3  -9  437.80    3.92
   0   3  -9  438.57    3.95
   0  -3   9  435.42    4.61
   0   3  -8 1088.03   12.40
   0  -3   8 1122.74   12.94
   0  -3   8 1145.45   14.09
   0  -3   8 1099.33    6.99
   0   3  -8 1123.50    5.53
   0  -3   8 1103.06    6.20
   0  -3   8 1125.59    6.97
   0  -3   7    0.17    0.66
   0   3  -7    0.61    0.60
   0  -3   7    0.27    0.55
   0   3  -7    1.68    0.27
   0  -3   7    1.67    0.32
   0   3  -7    0.99    0.41
   0  -3   7    1.38    0.42
   0   3  -6    3.01    0.74
   0  -3   6    2.81    0.66
   0  -3   6    4.28    0.84
   0  -3   6    2.70    0.79
   0   3  -6    4.01    0.32
   0  -3   6    3.85    0.47
   0   3  -6    3.05    0.53
   0  -3   6    3.74    0.38
   0  -3   5  345.63    5.81
   0  -3   5  348.03    6.25
   0  -3   5  356.38    5.56
   0  -3   5  346.22    3.22
   0   3  -5  343.25    4.57
   0  -3   4 2500.35   15.51
   0  -3   4 2424.21   14.25
   0   3  -4 2404.82   14.49
   0  -3   4 2385.91   15.09
   0  -3   4 2469.32    7.76
   0   3  -4 2444.99    9.33
   0  -3   4 2426.08   13.77
   0   3  -4 2421.27   11.65
   0  -3   3   41.33    1.92
   0   3  -3   39.76    0.95
   0   3  -3   40.71    1.84
   0  -3   3   40.11    0.94
   0   3  -3   40.58    1.21
   0   3  -3   39.87    1.45
   0  -3   3   39.29    1.84
   0   3  -2   25.53    0.79
   0   3  -2   23.90    1.36
   0  -3   2   24.99    0.70
   0  -3   2   24.02    1.37
   0   3  -2   25.24    0.96
   0   3  -2   24.15    1.09
   0  -3   1 1276.22    3.92
   0  -3   1 1280.06    8.98
   0   3  -1 1285.93    7.57
   0   3  -1 1292.67    6.66
   0   3   0   72.18    1.43
   0   3   0   71.25    1.59
   0  -3   0   74.98    2.03
   0   3   1  558.29    4.05
   0  -3  -1  558.84    2.66
   0  -3  -1  559.30    5.46
   0   3   1  552.08    4.55
   0   3   2   22.39    0.87
   0   3   2   23.40    0.98
   0  -3  -2   22.61    1.05
   0   3   2   24.21    1.00
   0  -3  -2   24.12    1.20
   0  -3  -3  509.86    4.56
   0   3   3  523.92    4.76
   0   3   3  514.11    4.97
   0  -3  -3  518.76    5.06
   0   3   3  513.58    4.73
   0  -3  -4  227.19    3.24
   0   3   4  228.48    3.19
   0   3   4  231.51    3.46
   0   3   4  235.76    3.39
   0   3   5  116.77    2.47
   0   3   5  125.62    3.25
   0  -3  -5  121.62    2.52
   0   3   5  126.11    2.70
   0   3   6  477.17    5.32
   0  -3  -6  480.35    5.41
   0   3   6  482.51    6.71
   0  -3  -7 1366.49    7.70
   0  -3  -7 1357.57    9.69
   0   3   7 1349.38   12.17
   0   3   7 1340.50    9.67
   0   3   7 1347.47    9.35
   0   3   8 1262.02    8.44
   0   3   8 1248.21   12.39
   0  -3  -8 1211.39    9.86
   0   3   8 1231.26    5.64
   0   3   8 1224.89    9.46
   0  -3  -9  109.16    3.19
   0   3   9  115.35    4.07
   0   3   9  112.09    1.82
   0   3   9  113.36    3.13
   0   3  10   35.28    2.47
   0   3  10   35.47    1.92
   0  -3 -10   35.64    2.24
   0  -3 -11   17.39    1.74
   0   3  11   18.28    0.89
   0   3  11   19.25    1.99
   0  -3 -11   19.04    0.81
   0  -3 -11   18.43    0.88
   0  -3 -11   17.59    0.87
   0   3  11   16.61    0.85
   0   3  11   17.28    0.87
   0  -3 -12   21.45    1.99
   0   3  12   23.37    1.05
   0   3  12   23.81    2.30
   0  -3 -12   22.16    0.99
   0  -3 -12   23.36    1.07
   0   3  12   22.57    1.06
   0   3  12   22.19    1.02
   0   3  13   22.43    1.07
   0  -3 -13   19.80    1.98
   0   3  13   21.45    2.21
   0  -3 -13   22.91    1.09
   0  -3 -13   22.09    0.98
   0   3  13   21.88    1.11
   0   3  13   22.05    1.04
   0  -3 -14  159.49    2.43
   0  -3 -14  169.45    5.63
   0   3  14  162.88    2.82
   0  -3 -14  159.13    2.71
   0   3  14  161.43    2.61
   0   3  14  159.27    2.72
   0   3  14  160.26    2.90
   0  -3 -15    4.13    0.48
   0   3  15    4.51    0.54
   0  -3 -15    4.15    0.57
   0  -3 -15    3.27    0.50
   0   3  15    3.32    0.52
   0  -3 -15    3.61    0.48
   0   3  16  208.91    3.03
   0  -3 -16  201.63    2.60
   0  -3 -16  204.77    2.77
   0  -3 -16  202.83    2.64
   0  -3 -16  206.64    2.58
   0   3  16  199.72    2.84
   0  -3 -17   69.33    1.44
   0  -3 -17   72.02    1.43
   0   3  17   69.94    1.53
   0  -3 -17   71.82    1.27
   0   3  17   71.58    1.61
   0  -3 -18   49.62    1.02
   0   3  18   49.09    0.94
   0   3  18   48.83    1.12
   0   4 -15    0.24    0.16
   0  -4  15   -0.02    0.17
   0   4 -14   30.75    0.78
   0  -4  14   30.65    0.96
   0  -4  14   32.88    1.04
   0   4 -14   32.07    0.91
   0   4 -13   12.50    0.68
   0   4 -13   11.88    0.62
   0   4 -13   11.68    0.68
   0  -4  13   12.37    0.75
   0  -4  13   11.91    0.80
   0   4 -12  154.79    2.41
   0   4 -12  153.81    2.25
   0  -4  12  153.99    2.66
   0  -4  12  155.57    2.77
   0   4 -12  154.85    2.41
   0  -4  11   13.98    0.79
   0  -4  11   14.92    0.94
   0  -4  11   14.83    1.87
   0   4 -11   14.12    0.83
   0   4 -11   15.46    0.81
   0  -4  11   14.87    0.97
   0  -4  11   15.78    1.03
   0   4 -11   13.82    0.84
   0  -4  11   14.33    0.96
   0  -4  10   41.79    1.37
   0  -4  10   42.57    1.56
   0  -4  10   39.17    3.00
   0   4 -10   43.91    1.40
   0  -4  10   43.43    1.58
   0  -4  10   44.78    1.35
   0   4 -10   42.29    1.29
   0   4 -10   43.49    1.39
   0  -4  10   42.84    1.62
   0   4 -10   42.94    1.39
   0  -4  10   43.41    1.58
   0  -4   9  568.14    5.49
   0   4  -9  568.43    4.79
   0  -4   9  556.12    4.96
   0  -4   9  562.31   10.92
   0   4  -9  574.96    9.47
   0  -4   9  568.26   10.85
   0  -4   9  553.41    5.41
   0   4  -9  559.48    4.55
   0  -4   9  570.50    4.82
   0  -4   9  553.66    5.43
   0   4  -9  553.24    4.79
   0   4  -9  567.86    4.84
   0  -4   9  563.99    5.63
   0  -4   8  566.69    8.89
   0  -4   8  559.28    4.43
   0  -4   8  545.00   10.45
   0  -4   8  544.67    4.82
   0  -4   8  544.10    5.20
   0   4  -8  554.95    4.57
   0  -4   8  544.16   10.37
   0   4  -8  541.21    9.12
   0  -4   8  555.34    5.20
   0   4  -8  552.09    4.35
   0   4  -8  548.82    3.84
   0   4  -8  545.27    4.61
   0  -4   8  552.18    5.37
   0   4  -8  552.14    4.55
   0  -4   7  251.73    6.76
   0  -4   7  247.72    3.17
   0  -4   7  257.65    3.44
   0   4  -7  252.93    2.96
   0  -4   7  249.81    2.92
   0   4  -7  242.30    5.99
   0  -4   7  244.57    6.68
   0   4  -7  256.41    2.83
   0   4  -7  250.12    2.52
   0  -4   7  257.07    3.38
   0   4  -7  254.86    3.01
   0  -4   7  259.78    3.51
   0   4  -7  251.40    2.92
   0  -4   6    7.30    1.28
   0   4  -6    7.06    1.15
   0  -4   6    6.65    0.50
   0  -4   6    7.80    0.65
   0   4  -6    6.86    0.52
   0  -4   6    6.62    0.56
   0  -4   6    7.16    1.30
   0  -4   5   57.81    2.92
   0  -4   5   58.24    2.95
   0  -4   5   54.95    1.48
   0  -4   5   55.63    1.30
   0  -4   5   57.37    1.38
   0   4  -5   54.85    2.18
   0   4  -5   57.28    1.26
   0  -4   4  440.16    5.46
   0  -4   4  447.28    7.57
   0   4  -4  452.31    7.20
   0  -4   4  427.92    3.43
   0  -4   4  452.19    3.61
   0  -4   4  428.68    3.85
   0  -4   4  434.84    7.41
   0   4  -4  435.48    5.83
   0   4  -3   74.26    2.83
   0  -4   3   69.22    2.89
   0   4  -3   76.67    1.92
   0   4  -3   70.07    2.30
   0  -4   3   75.12    1.38
   0  -4   3   72.98    2.89
   0   4  -2  115.76    3.42
   0   4  -2  119.65    2.43
   0  -4   2  121.23    3.35
   0  -4   2  115.23    1.64
   0  -4   2  113.24    3.42
   0  -4   1 1441.06    5.53
   0  -4   1 1438.44   11.11
   0   4   0   85.13    1.71
   0   4   0   83.27    2.11
   0  -4   0   84.94    1.33
   0  -4   0   88.30    2.72
   0   4   1  169.96    2.50
   0  -4  -1  167.82    1.85
   0  -4  -1  163.18    3.64
   0   4   1  165.27    2.97
   0   4   2   11.01    0.82
   0  -4  -2   10.86    0.89
   0   4   2   11.25    0.85
   0  -4  -2   12.21    1.08
   0  -4  -3  484.08    5.12
   0   4   3  473.99    5.27
   0   4   3  481.77    5.42
   0   4   3  486.77    5.86
   0   4   3  491.70    5.29
   0   4   4  189.34    3.24
   0  -4  -4  184.47    3.22
   0   4   4  186.08    3.71
   0   4   4  186.49    3.49
   0   4   5  229.06    3.76
   0  -4  -5  238.59    3.79
   0   4   5  232.83    4.28
   0   4   5  233.96    4.11
   0   4   6  255.06    4.19
   0  -4  -6  257.23    4.16
   0  -4  -6  263.42    2.41
   0   4   6  248.66    4.52
   0  -4  -7  915.07    8.22
   0  -4  -7  894.18    7.47
   0   4   7  903.05    8.33
   0  -4  -8    3.71    0.59
   0   4   8    3.93    0.71
   0  -4  -8    3.65    0.62
   0   4   8    4.44    1.08
   0   4   8    4.10    0.64
   0   4   9    1.14    0.83
   0  -4  -9    0.08    0.45
   0   4   9    0.68    0.30
   0   4   9    1.00    0.40
   0   4  10  184.89    2.56
   0   4  10  181.73    4.22
   0  -4 -10  185.97    4.42
   0   4  10  181.22    5.78
   0  -4 -10  184.34    2.59
   0   4  10  185.59    2.63
   0  -4 -11  447.18    8.44
   0   4  11  445.40    4.18
   0   4  11  435.63    9.40
   0  -4 -11  452.20    4.44
   0  -4 -11  448.68    3.78
   0  -4 -11  439.74    4.26
   0   4  11  443.65    4.30
   0   4  11  455.64    4.32
   0   4  12  445.14    4.32
   0  -4 -12  439.09    8.69
   0   4  12  455.55    9.80
   0  -4 -12  444.47    4.50
   0  -4 -12  437.63    4.46
   0  -4 -12  445.87    4.02
   0   4  12  440.26    4.49
   0   4  12  448.82    4.50
   0   4  13    0.01    0.36
   0  -4 -13   -0.76    0.62
   0  -4 -13    0.30    0.44
   0  -4 -13   -0.08    0.34
   0   4  13    0.30    0.40
   0   4  13   -0.27    0.38
   0  -4 -14  310.68    3.27
   0   4  14  316.81    3.82
   0  -4 -14  312.95    7.57
   0  -4 -14  313.64    3.60
   0  -4 -14  313.47    3.78
   0   4  14  308.42    3.74
   0   4  14  317.44    3.99
   0   4  15  279.00    3.56
   0  -4 -15  267.13    3.01
   0  -4 -15  272.65    3.42
   0  -4 -15  277.03    3.13
   0   4  15  278.96    3.67
   0   4  15  278.12    3.30
   0   4  15  274.72    3.31
   0   4  16  182.48    2.71
   0  -4 -16  180.36    2.33
   0  -4 -16  180.83    2.58
   0  -4 -16  179.06    2.36
   0   4  16  174.40    2.50
   0  -4 -16  180.37    2.44
   0  -4 -17   64.64    1.38
   0  -4 -17   64.86    1.29
   0   4  17   66.07    1.53
   0   4  17   62.87    1.35
   0  -4 -17   63.06    1.21
   0  -4 -18    7.57    0.40
   0   4  18    7.26    0.48
   0   5 -13   49.09    1.01
   0   5 -13   50.26    1.04
   0  -5  13   49.39    1.05
   0   5 -12   15.06    0.69
   0   5 -12   15.51    0.71
   0  -5  12   14.84    0.74
   0  -5  12   16.68    0.85
   0   5 -11   78.47    1.63
   0  -5  11   74.07    1.77
   0   5 -11   76.81    1.63
   0  -5  11   80.21    1.97
   0   5 -10   16.87    0.86
   0  -5  10   17.97    0.85
   0   5 -10   18.61    0.90
   0   5 -10   17.26    0.88
   0  -5  10   17.17    0.97
   0  -5  10   18.93    1.11
   0  -5   9  242.95    7.32
   0   5  -9  232.39    3.09
   0   5  -9  239.52    2.67
   0  -5   9  239.36    3.17
   0   5  -9  240.85    3.07
   0  -5   9  240.40    3.47
   0  -5   9  241.84    3.70
   0   5  -9  236.00    3.10
   0  -5   8  631.94   10.00
   0  -5   8  617.30   11.57
   0   5  -8  618.82    5.01
   0   5  -8  625.89    4.45
   0   5  -8  626.96    4.99
   0  -5   8  620.61    5.26
   0  -5   8  624.56    5.62
   0  -5   8  626.17    5.97
   0   5  -8  611.89    4.99
   0   5  -7  783.15    5.53
   0  -5   7  777.66   11.31
   0  -5   7  782.68   12.77
   0  -5   7  775.52    6.05
   0  -5   7  793.81    5.49
   0  -5   7  791.54   12.53
   0   5  -7  769.62   11.02
   0   5  -7  772.21    5.00
   0   5  -7  776.66    5.48
   0  -5   7  755.77    5.89
   0   5  -7  781.99    5.30
   0  -5   7  784.17    6.19
   0  -5   7  772.51    6.55
   0   5  -7  777.81    5.50
   0  -5   6   34.05    1.17
   0   5  -6   34.36    1.16
   0  -5   6   33.78    2.65
   0  -5   6   34.48    2.41
   0  -5   6   34.62    1.31
   0  -5   6   31.93    2.54
   0   5  -6   33.92    2.34
   0  -5   6   33.57    1.27
   0   5  -6   35.41    1.18
   0   5  -6   34.44    1.06
   0   5  -6   33.75    1.12
   0  -5   6   33.81    1.28
   0   5  -6   34.67    1.14
   0  -5   6   34.41    1.38
   0  -5   5  168.93    2.51
   0  -5   5  167.49    5.11
   0  -5   5  176.01    2.76
   0  -5   5  171.67    5.57
   0   5  -5  181.50    2.47
   0  -5   5  170.05    5.52
   0   5  -5  174.67    2.27
   0  -5   5  176.17    2.71
   0   5  -5  176.88    2.45
   0  -5   5  173.40    2.73
   0   5  -5  171.90    2.45
   0  -5   5  176.78    2.93
   0  -5   4  103.69    4.15
   0   5  -4  110.46    4.04
   0  -5   4  106.06    2.08
   0   5  -4  106.73    1.81
   0  -5   4  106.40    1.95
   0  -5   4  108.28    4.04
   0  -5   4  103.95    4.21
   0   5  -3   37.91    2.37
   0  -5   3   38.61    1.96
   0  -5   3   38.93    2.48
   0  -5   3   38.56    2.32
   0  -5   3   39.55    1.18
   0   5  -2 1018.27   11.53
   0  -5   2 1033.73   12.00
   0   5  -2 1014.53    8.11
   0  -5   2  999.99    5.66
   0  -5   2 1025.27   11.39
   0   5  -1   65.83    2.12
   0  -5   1   61.26    2.76
   0  -5   1   64.59    1.42
   0  -5   0  639.06    7.57
   0   5   0  630.55    6.68
   0  -5   0  617.46    4.37
   0  -5   0  643.79    8.62
   0  -5  -1  561.02    7.96
   0   5   1  557.15    6.02
   0  -5  -1  547.98    6.88
   0   5   1  559.82    6.39
   0  -5  -2  491.88    7.52
   0   5   2  499.98    5.88
   0   5   2  497.66    6.53
   0   5   2  495.36    6.96
   0   5   2  496.64    6.14
   0  -5  -2  508.38    3.09
   0  -5  -2  491.98    6.41
   0  -5  -3  767.85    7.22
   0   5   3  780.24    7.95
   0  -5  -3  777.06    8.15
   0   5   3  764.36    8.73
   0   5   3  754.92    7.54
   0   5   3  783.93    7.97
   0  -5  -3  770.76    3.95
   0   5   4  351.17    4.82
   0   5   4  346.41    5.98
   0   5   4  356.25    5.39
   0  -5  -4  349.75    2.82
   0   5   5  482.90    5.83
   0   5   5  467.99    6.47
   0   5   5  467.63    7.07
   0  -5  -5  471.80    3.44
   0   5   6  473.49    6.09
   0  -5  -6  460.66    3.58
   0   5   6  466.03    6.76
   0  -5  -7  556.10    6.99
   0   5   7  579.99    7.09
   0   5   8   85.69    2.89
   0  -5  -8   84.06    2.78
   0  -5  -9   12.68    0.79
   0   5   9   12.73    0.75
   0   5  10  167.23    2.54
   0  -5 -10  163.42    2.59
   0  -5 -10  169.30    2.76
   0   5  10  166.77    2.67
   0  -5 -11   84.48    3.79
   0   5  11   88.15    1.91
   0  -5 -11   89.71    2.10
   0  -5 -11   85.76    1.98
   0  -5 -11   90.32    1.68
   0   5  11   88.06    2.04
   0   5  12  169.13    2.71
   0  -5 -12  173.66    5.51
   0  -5 -12  172.31    2.93
   0  -5 -12  173.98    2.83
   0   5  12  171.78    2.90
   0   5  12  171.59    2.84
   0   5  13  697.33    5.54
   0  -5 -13  700.49   11.09
   0  -5 -13  707.84    5.76
   0  -5 -13  711.40    5.71
   0   5  13  715.42    5.83
   0   5  13  713.63    5.86
   0  -5 -14    2.12    0.66
   0  -5 -14    1.21    0.31
   0   5  14    1.00    0.37
   0  -5 -14    1.02    0.43
   0  -5 -14    1.14    0.54
   0   5  14    1.01    0.46
   0   5  14    1.18    0.50
   0   5  15   13.85    0.79
   0  -5 -15   14.92    0.68
   0  -5 -15   14.99    0.89
   0  -5 -15   14.82    0.76
   0  -5 -15   14.61    0.71
   0   5  15   14.09    0.81
   0   5  15   14.88    0.74
   0   5  15   14.32    0.92
   0  -5 -16   34.82    1.13
   0  -5 -16   35.55    0.96
   0   5  16   36.19    1.03
   0   5  16   35.22    1.06
   0  -5 -17   37.38    0.85
   0  -5 -17   36.66    1.01
   0   5  17   36.61    0.85
   0  -5 -17   38.14    0.90
   0  -5 -18   28.72    0.71
   0   5  18   29.04    0.78
   0  -6  12    0.03    0.21
   0   6 -12    0.04    0.16
   0   6 -11   10.11    0.55
   0  -6  11    9.43    0.49
   0   6 -11   10.99    0.50
   0   6 -10  214.21    2.57
   0  -6  10  210.63    2.58
   0   6 -10  215.91    2.42
   0   6  -9   54.14    1.23
   0   6  -9   52.56    1.41
   0  -6   9   53.25    1.39
   0  -6   9   54.35    1.47
   0  -6   9   53.86    1.66
   0   6  -9   55.06    1.34
   0   6  -8    0.76    0.44
   0   6  -8    1.01    0.34
   0  -6   8    1.16    0.40
   0  -6   8    1.12    0.39
   0   6  -8    0.34    0.30
   0  -6   8    0.58    0.52
   0  -6   7  182.51    5.64
   0   6  -7  197.53    2.85
   0  -6   7  186.61    2.98
   0   6  -7  188.29    2.62
   0   6  -7  191.33    2.67
   0  -6   7  194.24    3.33
   0  -6   7  192.07    2.99
   0   6  -6    2.10    0.62
   0  -6   6    3.24    0.46
   0  -6   6    1.63    0.70
   0   6  -6    3.33    0.48
   0   6  -6    4.03    0.44
   0  -6   6    2.69    0.55
   0   6  -6    2.42    0.51
   0  -6   6    2.82    0.62
   0   6  -6    2.61    0.41
   0  -6   6    2.69    0.45
   0  -6   5   19.92    2.02
   0  -6   5   23.21    1.03
   0   6  -5   22.86    1.82
   0  -6   5   24.27    2.26
   0   6  -5   22.14    0.88
   0  -6   5   23.38    1.13
   0   6  -5   23.17    1.04
   0  -6   5   22.99    1.21
   0   6  -5   22.82    0.98
   0  -6   5   24.20    1.09
   0  -6   4    4.18    0.51
   0  -6   4    3.81    1.08
   0   6  -4    2.94    0.86
   0  -6   4    4.15    0.97
   0   6  -4    4.91    1.08
   0   6  -4    4.55    0.52
   0  -6   4    3.72    0.54
   0   6  -4    4.29    0.54
   0   6  -4    4.37    0.46
   0  -6   4    4.05    0.60
   0   6  -4    3.95    0.47
   0  -6   3  634.67    5.14
   0  -6   3  634.55   10.53
   0   6  -3  650.32    9.27
   0  -6   3  611.84   10.61
   0   6  -3  620.48   10.08
   0  -6   3  606.66    8.71
   0   6  -3  622.76    4.56
   0   6  -3  628.82    4.66
   0  -6   3  626.41    5.35
   0   6  -3  629.97    4.86
   0   6  -3  619.76    4.85
   0  -6   2  210.63    5.96
   0  -6   2  218.34    3.00
   0   6  -2  206.98    5.22
   0  -6   2  202.51    5.09
   0   6  -2  206.76    5.88
   0  -6   2  210.69    6.14
   0   6  -2  212.65    2.63
   0   6  -2  208.28    2.72
   0  -6   2  213.18    3.04
   0   6  -2  212.64    2.66
   0   6  -2  204.93    2.77
   0   6  -1   29.55    2.10
   0  -6   1   32.55    2.37
   0   6  -1   29.02    1.63
   0   6  -1   28.83    2.25
   0  -6   1   29.36    2.30
   0  -6   1   29.08    2.02
   0  -6   1   30.63    1.16
   0  -6   1   30.65    1.19
   0   6  -1   31.20    1.05
   0   6  -1   29.82    1.01
   0   6  -1   32.09    1.03
   0  -6   1   31.01    1.17
   0   6   0  148.24    4.42
   0  -6   0  147.40    4.87
   0   6   0  156.25    3.80
   0   6   0  154.11    2.21
   0  -6   0  152.41    4.40
   0   6   1  148.76    4.46
   0   6   1  160.32    4.42
   0  -6  -1  151.17    4.90
   0   6   2   37.66    2.12
   0   6   2   40.91    1.86
   0  -6  -2   37.21    1.98
   0   6   2   36.46    2.33
   0   6   3   20.72    1.79
   0  -6  -3   22.35    0.79
   0   6   3   19.20    1.37
   0  -6  -4   62.17    1.34
   0   6   4   58.48    2.43
   0   6   4   57.92    2.88
   0  -6  -5   23.05    1.73
   0   6   5   20.73    1.79
   0   6   5   20.76    1.53
   0  -6  -5   20.33    0.84
   0  -6  -6  104.47    3.53
   0  -6  -6  106.74    2.15
   0   6   6  104.01    1.97
   0   6   6  107.45    1.98
   0  -6  -7  112.66    3.68
   0  -6  -7  112.55    1.98
   0  -6  -7  111.28    2.18
   0  -6  -7  115.07    2.25
   0   6   7  115.06    2.12
   0   6   7  114.14    2.09
   0  -6  -8 1071.26   11.26
   0  -6  -8 1063.02    6.34
   0  -6  -8 1067.86    6.95
   0  -6  -8 1072.61    6.94
   0   6   8 1086.38    6.59
   0   6   8 1073.90    6.59
   0  -6  -9   44.05    1.49
   0  -6  -9   41.72    1.42
   0  -6  -9   43.67    1.37
   0   6   9   42.77    1.36
   0   6   9   43.37    1.44
   0   6  10   24.87    1.03
   0  -6 -10   23.84    1.06
   0  -6 -10   24.73    1.16
   0   6  10   25.66    1.16
   0   6  10   24.70    1.04
   0  -6 -11   58.82    3.09
   0   6  11   60.62    1.58
   0  -6 -11   61.36    1.68
   0  -6 -11   59.48    1.78
   0   6  11   59.22    1.74
   0   6  12   15.49    0.85
   0  -6 -12   14.10    1.55
   0  -6 -12   15.72    0.97
   0  -6 -12   15.88    0.92
   0   6  12   14.92    0.94
   0   6  12   15.08    0.91
   0  -6 -13   55.44    2.98
   0   6  13   53.85    1.48
   0  -6 -13   54.41    1.64
   0  -6 -13   53.41    1.57
   0   6  13   54.17    1.65
   0   6  13   53.60    1.61
   0   6  14    2.52    0.39
   0  -6 -14    3.28    0.56
   0  -6 -14    2.48    0.46
   0   6  14    2.88    0.54
   0   6  14    2.86    0.54
   0  -6 -15  281.89    3.15
   0  -6 -15  285.39    3.02
   0   6  15  281.72    3.22
   0   6  15  281.82    3.29
   0  -6 -16   58.20    1.31
   0   6  16   58.53    1.28
   0  -6 -17   72.39    1.23
   0  -6 -17   69.44    1.04
   0   6  17   70.17    1.31
   0  -7  10   20.56    0.74
   0   7 -10   19.29    0.64
   0   7  -9    7.56    0.40
   0   7  -9    8.10    0.53
   0  -7   9    7.92    0.45
   0  -7   9    8.11    0.58
   0  -7   8    0.85    0.29
   0   7  -8    1.13    0.36
   0   7  -8    1.12    0.28
   0  -7   8    1.42    0.44
   0   7  -7    7.49    0.62
   0  -7   7    7.73    0.72
   0   7  -7    7.38    0.55
   0   7  -6  118.05    4.38
   0   7  -6  111.34    3.77
   0  -7   6  114.96    2.45
   0   7  -6  115.54    2.15
   0   7  -6  113.15    1.80
   0   7  -6  116.49    2.05
   0  -7   6  116.31    2.08
   0   7  -5  121.82    4.55
   0   7  -5  118.39    4.12
   0   7  -5  124.13    2.28
   0   7  -5  124.87    2.21
   0  -7   5  125.12    2.61
   0   7  -5  123.75    2.02
   0  -7   5  125.24    2.30
   0  -7   4  265.32    7.29
   0   7  -4  268.42    6.40
   0   7  -4  257.53    6.68
   0   7  -4  272.41    3.12
   0  -7   4  267.47    3.83
   0   7  -4  271.93    3.30
   0   7  -4  267.64    3.35
   0   7  -4  269.58    2.84
   0  -7   4  272.33    3.52
   0  -7   3  547.33   10.57
   0   7  -3  552.59    9.34
   0   7  -3  557.58    9.79
   0   7  -3  559.59    4.58
   0  -7   3  561.53    5.54
   0   7  -3  559.96    4.78
   0   7  -3  547.45    4.82
   0  -7   3  559.51    5.18
   0   7  -3  560.12    4.28
   0   7  -2   25.48    2.12
   0  -7   2   20.15    2.12
   0   7  -2   25.94    2.17
   0   7  -2   23.64    1.05
   0   7  -2   23.75    1.02
   0  -7   2   24.43    1.21
   0   7  -2   23.42    1.03
   0   7  -2   23.98    0.96
   0  -7   2   24.38    1.15
   0  -7   2   25.91    1.02
   0   7  -1   70.65    3.39
   0   7  -1   69.37    3.37
   0  -7   1   69.91    3.31
   0   7  -1   73.85    3.70
   0  -7   1   72.01    3.79
   0   7  -1   72.80    1.71
   0  -7   1   70.08    1.96
   0   7  -1   73.81    1.77
   0   7  -1   74.68    1.75
   0  -7   1   73.68    1.70
   0   7  -1   72.84    1.66
   0  -7   1   74.11    1.92
   0   7   0  452.66    8.50
   0   7   0  459.38    8.39
   0  -7   0  437.71    9.13
   0  -7   0  441.27    8.26
   0   7   0  432.47    8.88
   0  -7   0  454.32    3.92
   0   7   0  442.33    4.25
   0   7   0  456.78    4.22
   0  -7   0  454.71    4.85
   0  -7   0  449.96    4.73
   0  -7   0  450.90    4.68
   0   7   0  450.65    4.08
   0  -7   0  450.33    4.23
   0   7   1  147.04    4.93
   0   7   1  147.90    4.73
   0  -7  -1  142.77    4.75
   0  -7  -1  149.01    2.70
   0  -7  -1  147.61    2.29
   0   7   1  147.28    2.46
   0   7   1  157.33    2.50
   0  -7  -1  148.29    2.76
   0  -7  -1  150.70    2.70
   0   7   1  149.65    2.40
   0  -7  -1  150.15    2.49
   0   7   2    5.96    1.22
   0  -7  -2    5.68    0.53
   0  -7  -2    7.00    0.65
   0   7   2    6.35    0.61
   0   7   2    6.41    0.61
   0  -7  -2    6.94    0.67
   0  -7  -2    6.99    0.61
   0   7   2    7.44    0.62
   0   7   3    1.94    0.86
   0  -7  -3    1.62    0.87
   0  -7  -3    2.45    0.48
   0  -7  -3    1.48    0.35
   0   7   3    2.79    0.47
   0   7   3    1.96    0.40
   0  -7  -3    2.43    0.50
   0   7   3    2.28    0.47
   0  -7  -3    2.15    0.44
   0   7   4  659.36   10.39
   0  -7  -4  666.83   10.07
   0   7   4  667.67    5.27
   0   7   4  658.73    5.11
   0  -7  -4  664.62    5.75
   0  -7  -4  672.07    5.11
   0  -7  -4  662.93    5.37
   0  -7  -4  674.02    5.73
   0   7   4  665.20    5.22
   0  -7  -5  287.93    6.59
   0   7   5  295.42    3.57
   0  -7  -5  297.97    3.87
   0   7   5  295.54    3.37
   0   7   5  297.66    3.54
   0  -7  -6   12.57    1.51
   0  -7  -6   11.66    0.83
   0  -7  -6   12.60    0.88
   0  -7  -6   12.61    0.71
   0   7   6   12.09    0.81
   0  -7  -7   11.53    1.46
   0  -7  -7   12.89    0.88
   0  -7  -7   10.69    0.81
   0  -7  -7   12.09    0.72
   0   7   7   11.69    0.78
   0   7   7   11.86    0.82
   0  -7  -8   18.11    0.89
   0  -7  -8   17.27    1.00
   0  -7  -8   16.62    0.97
   0   7   8   16.81    0.93
   0   7   8   16.43    0.94
   0  -7  -9   22.19    1.01
   0  -7  -9   21.09    1.08
   0  -7  -9   23.58    1.16
   0   7   9   21.74    1.08
   0   7   9   22.71    1.06
   0   7  10    9.61    0.65
   0  -7 -10   10.87    0.85
   0  -7 -10    9.60    0.72
   0   7  10    8.20    0.76
   0   7  10    7.88    0.68
   0   7  11  280.93    3.19
   0  -7 -11  275.23    3.39
   0  -7 -11  279.48    3.70
   0   7  11  281.06    3.30
   0   7  11  276.35    3.60
   0   7  11  274.08    3.36
   0  -7 -12  229.94    3.26
   0  -7 -12  224.87    3.02
   0   7  12  234.92    3.26
   0   7  12  225.09    2.98
   0  -7 -13    0.96    0.40
   0  -7 -13    0.57    0.40
   0   7  13    0.54    0.43
   0   7  13    0.69    0.40
   0  -7 -14  487.00    4.12
   0  -7 -14  496.69    4.00
   0   7  14  502.33    4.26
   0   7  14  482.36    4.04
   0  -7 -15  181.87    2.17
   0  -7 -15  184.22    2.25
   0   7  15  186.83    2.35
   0   7  15  183.70    2.29
   0  -7 -16  259.96    2.29
   0   7  16  256.47    2.27
   0   8  -8  148.97    1.59
   0  -8   8  148.53    1.79
   0  -8   7   11.62    0.55
   0   8  -7   11.75    0.53
   0   8  -7   12.16    0.57
   0  -8   7   11.64    0.64
   0   8  -6    1.03    0.32
   0  -8   6    0.92    0.31
   0  -8   6    1.11    0.37
   0   8  -6    0.90    0.31
   0   8  -5   10.21    0.65
   0   8  -5   11.19    0.57
   0  -8   5   10.97    0.75
   0  -8   5   10.51    0.70
   0   8  -5   10.01    0.62
   0   8  -4   41.50    2.37
   0  -8   4   42.85    1.40
   0  -8   4   41.85    1.41
   0   8  -4   42.36    1.14
   0   8  -4   43.42    1.27
   0   8  -4   42.32    1.24
   0  -8   4   41.76    1.22
   0   8  -3   26.97    2.03
   0   8  -3   28.73    2.20
   0   8  -3   28.20    1.03
   0   8  -3   28.34    1.11
   0  -8   3   27.04    1.21
   0   8  -3   26.66    1.01
   0  -8   3   27.17    1.21
   0  -8   3   25.09    1.03
   0   8  -3   27.74    0.92
   0   8  -2  355.14    7.57
   0   8  -2  365.30    7.56
   0   8  -2  353.21    3.59
   0   8  -2  362.15    3.69
   0  -8   2  353.81    4.22
   0  -8   2  354.28    4.17
   0   8  -2  362.92    3.83
   0   8  -2  355.48    3.44
   0  -8   2  355.76    3.94
   0   8  -1  612.82    9.91
   0   8  -1  610.10   10.00
   0   8  -1  610.05    4.70
   0  -8   1  608.82    5.62
   0   8  -1  613.04    4.95
   0   8  -1  614.62    5.06
   0  -8   1  607.54    5.48
   0   8  -1  603.78    4.70
   0  -8   1  613.62    4.71
   0  -8   1  603.83    5.30
   0   8   0    1.67    0.77
   0  -8   0    2.06    0.50
   0   8   0    2.82    0.56
   0   8   0    2.05    0.52
   0  -8   0    1.79    0.58
   0   8   0    3.76    0.51
   0  -8   0    2.00    0.48
   0  -8   0    2.56    0.44
   0   8   1  353.12    7.79
   0  -8  -1  349.51    4.32
   0   8   1  354.34    3.89
   0   8   1  352.09    3.90
   0  -8  -1  354.60    4.14
   0  -8  -1  340.37    3.85
   0   8   1  351.63    3.78
   0  -8  -1  344.84    4.16
   0   8   2   73.61    3.69
   0  -8  -2   74.56    2.04
   0  -8  -2   74.52    1.90
   0   8   2   72.82    1.83
   0   8   2   71.92    1.83
   0  -8  -2   66.31    1.90
   0   8   2   72.96    1.79
   0   8   3  532.48    9.71
   0   8   3  552.76    4.96
   0  -8  -3  547.44    5.37
   0   8   3  535.52    4.82
   0  -8  -3  543.79    4.98
   0   8   3  548.02    4.82
   0   8   4   46.81    1.54
   0  -8  -4   43.72    1.58
   0   8   4   44.26    1.42
   0  -8  -4   43.32    1.42
   0   8   4   46.31    1.49
   0   8   4   44.26    1.33
   0  -8  -5   43.00    1.50
   0  -8  -5   41.09    1.51
   0   8   5   40.13    1.30
   0   8   5   39.34    1.40
   0  -8  -6  123.69    2.54
   0  -8  -6  127.60    2.51
   0   8   6  126.71    2.43
   0   8   6  127.84    2.30
   0  -8  -7  163.45    2.85
   0  -8  -7  165.63    2.87
   0   8   7  164.28    2.72
   0   8   7  166.08    2.65
   0  -8  -8  138.16    2.19
   0  -8  -8  135.46    2.55
   0  -8  -8  135.73    2.58
   0   8   8  137.57    2.45
   0   8   8  135.65    2.45
   0  -8  -9   55.14    1.41
   0  -8  -9   55.23    1.67
   0   8   9   55.26    1.58
   0   8   9   53.32    1.52
   0  -8 -10  252.59    3.38
   0  -8 -10  249.68    2.95
   0   8  10  254.48    3.28
   0   8  10  252.50    2.86
   0  -8 -11  204.39    2.94
   0  -8 -11  204.14    2.63
   0   8  11  210.86    2.55
   0   8  11  202.28    2.58
   0   8  11  211.53    2.92
   0  -8 -12    9.88    0.61
   0  -8 -12   11.01    0.73
   0   8  12    9.88    0.72
   0   8  12   10.03    0.59
   0   8  12    9.70    0.55
   0  -8 -13  114.01    1.78
   0  -8 -13  119.59    1.97
   0   8  13  115.07    1.74
   0   8  13  120.03    2.00
   0  -8 -14    0.30    0.23
   0  -8 -14    0.57    0.27
   0   8  14    0.12    0.28
   0   8  14    0.24    0.22
   0  -8 -15  123.18    1.40
   0  -8 -15  125.28    1.39
   0   8  15  125.50    1.57
   0  -9   5   24.99    0.69
   0   9  -5   25.47    0.69
   0  -9   5   26.44    0.73
   0   9  -4   47.63    1.07
   0  -9   4   48.13    1.13
   0   9  -4   46.53    0.88
   0  -9   4   47.25    1.13
   0  -9   3   32.09    1.04
   0  -9   3   30.34    0.98
   0   9  -3   33.39    0.99
   0  -9   2    4.67    0.53
   0  -9   2    4.71    0.47
   0   9  -2    5.33    0.40
   0   9  -1   87.69    1.73
   0   9  -1   88.40    1.68
   0  -9   1   86.88    1.88
   0  -9   1   87.88    1.78
   0   9  -1   86.39    1.55
   0  -9   0  170.49    2.70
   0  -9   0  168.48    2.50
   0   9   0  171.35    2.43
   0   9   0  169.82    2.45
   0   9   0  165.81    2.28
   0   9   1   24.39    1.02
   0  -9  -1   23.39    0.96
   0   9   1   24.77    1.00
   0  -9  -1   24.97    0.93
   0  -9  -1   24.61    1.12
   0   9   1   24.64    0.97
   0  -9  -2    9.03    0.63
   0  -9  -2   10.82    0.67
   0  -9  -2    9.94    0.79
   0   9   2   10.51    0.69
   0   9   2   10.11    0.70
   0  -9  -3   20.47    0.88
   0  -9  -3   19.49    1.03
   0  -9  -3   20.26    0.94
   0   9   3   19.70    0.94
   0   9   3   20.71    0.77
   0  -9  -4  615.41    4.94
   0  -9  -4  614.73    5.28
   0   9   4  619.36    4.89
   0   9   4  624.10    4.27
   0  -9  -5  324.09    3.78
   0  -9  -5  321.54    3.62
   0   9   5  321.68    3.54
   0   9   5  317.79    3.19
   0  -9  -6  246.09    3.24
   0  -9  -6  248.68    3.21
   0   9   6  247.18    3.09
   0   9   6  244.65    2.89
   0  -9  -7  482.41    4.38
   0  -9  -7  480.91    4.41
   0   9   7  486.34    4.24
   0   9   7  489.06    4.08
   0  -9  -8    1.36    0.38
   0  -9  -8    1.64    0.46
   0   9   8    0.92    0.37
   0   9   8    1.38    0.40
   0  -9  -9    3.39    0.50
   0   9   9    3.85    0.48
   0   9   9    4.01    0.47
   0  -9 -10   50.84    1.35
   0   9  10   47.48    1.17
   0   9  10   49.03    1.27
   0  -9 -11   15.16    0.73
   0   9  11   15.70    0.62
   0   9  11   15.83    0.74
   0  -9 -12   13.30    0.63
   0  -9 -12   12.70    0.49
   0   9  12   13.70    0.64
   0  -9 -13   98.22    1.38
   0   9  13   94.31    1.40
   0 -10   1    6.22    0.39
   0  10  -1    5.88    0.34
   0 -10   0   52.44    0.89
   0 -10   0   55.66    1.16
   0  10   0   54.47    0.88
   0 -10  -1  181.83    1.94
   0 -10  -1  186.02    2.21
   0  10   1  182.93    1.85
   0 -10  -2  185.80    2.31
   0  10   2  180.50    2.00
   0 -10  -3   28.92    0.96
   0 -10  -3   29.60    0.78
   0  10   3   30.41    0.89
   0 -10  -4  135.92    2.00
   0 -10  -4  134.47    1.75
   0  10   4  134.50    1.84
   0 -10  -5    4.14    0.44
   0 -10  -5    4.00    0.39
   0  10   5    4.00    0.42
   0 -10  -6  254.80    2.62
   0 -10  -6  249.62    2.51
   0  10   6  254.24    2.51
   0  10   6  248.38    2.05
   0 -10  -7  145.69    1.81
   0 -10  -7  145.35    1.90
   0  10   7  147.18    1.87
   0  10   7  144.98    1.63
   0 -10  -8  144.53    1.67
   0 -10  -8  145.65    1.85
   0  10   8  144.27    1.63
   0  10   8  146.33    1.76
   0 -10  -9    0.26    0.21
   0  10   9    0.14    0.18
   0  10   9    0.20    0.18
   0 -10 -10   60.33    1.04
   0  10  10   59.81    0.95
   1 -10  -8   17.89    0.56
  -1  10   8   18.37    0.54
   1 -10  -7    0.79    0.20
   1 -10  -7    0.23    0.17
  -1  10   7    0.49    0.17
  -1  10   7    0.47    0.17
   1 -10  -6   54.70    1.06
   1 -10  -6   52.73    1.02
  -1  10   6   52.60    0.96
  -1  10   6   53.32    0.93
   1 -10  -5  175.12    1.95
   1 -10  -5  175.66    1.80
  -1  10   5  178.17    1.62
  -1  10   5  178.52    1.82
   1 -10  -4   85.27    1.38
   1 -10  -4   80.52    1.14
  -1  10   4   86.24    1.29
  -1  10   4   80.93    1.03
   1 -10  -3   39.21    0.94
   1 -10  -3   38.81    0.96
  -1  10   3   38.64    0.86
   1 -10  -2   67.78    1.15
   1 -10  -2   68.14    1.22
  -1  10   2   66.48    1.09
   1 -10  -1   39.23    0.77
   1 -10  -1   40.17    0.87
  -1  10   1   39.39    0.79
   1  -9 -12    0.19    0.18
  -1   9  12    1.63    0.25
   1  -9 -11    4.23    0.35
   1  -9 -11    4.27    0.38
  -1   9  11    4.23    0.30
  -1   9  11    4.41    0.39
   1  -9 -10   90.48    1.52
   1  -9 -10   91.21    1.60
  -1   9  10   95.23    1.57
  -1   9  10   92.69    1.32
   1  -9  -9    3.05    0.33
   1  -9  -9    2.89    0.39
  -1   9   9    2.91    0.32
  -1   9   9    3.05    0.42
   1  -9  -8   22.58    0.84
   1  -9  -8   22.83    0.90
  -1   9   8   22.34    0.87
  -1   9   8   20.91    0.78
   1  -9  -7   16.49    0.79
   1  -9  -7   16.83    0.80
  -1   9   7   18.44    0.81
  -1   9   7   16.09    0.74
   1  -9  -6  171.22    2.47
   1  -9  -6  169.83    2.61
   1  -9  -6  168.84    2.38
  -1   9   6  169.13    2.28
  -1   9   6  171.40    2.33
   1  -9  -5  208.43    2.81
   1  -9  -5  206.51    2.92
   1  -9  -5  204.13    2.55
  -1   9   5  206.80    2.60
  -1   9   5  205.08    2.49
   1  -9  -4    0.90    0.42
   1  -9  -4    0.99    0.29
   1  -9  -4    1.19    0.46
  -1   9   4    0.43    0.31
  -1   9   4    0.59    0.38
   1  -9  -3    2.20    0.50
   1  -9  -3    1.78    0.48
   1  -9  -3    1.41    0.41
  -1   9   3    1.75    0.44
  -1   9   3    2.52    0.49
   1  -9  -2  383.52    3.79
  -1   9   2  395.10    3.58
   1  -9  -2  388.97    3.98
  -1   9   2  389.41    3.27
   1  -9  -2  390.88    3.82
  -1   9   2  389.87    3.45
   1  -9  -1    3.21    0.48
   1  -9  -1    4.03    0.52
  -1   9   1    3.32    0.38
  -1   9   1    3.64    0.47
   1  -9  -1    4.20    0.53
  -1   9   1    3.99    0.47
   1  -9   0   20.59    0.85
   1  -9   0   21.17    0.93
  -1   9   0   21.19    0.82
   1  -9   0   19.60    0.91
  -1   9   0   21.13    0.85
  -1   9   0   20.28    0.80
   1  -9   1   51.65    1.18
   1  -9   1   54.27    1.36
   1  -9   1   54.01    1.39
  -1   9  -1   55.28    1.25
  -1   9  -1   53.55    1.21
  -1   9  -1   54.27    1.18
   1  -9   2    5.56    0.51
   1  -9   2    5.30    0.45
  -1   9  -2    5.84    0.45
  -1   9  -2    5.66    0.45
  -1   9  -2    5.60    0.41
  -1   9  -3    0.48    0.24
   1  -9   3    0.29    0.18
  -1   9  -3    0.71    0.25
   1  -9   3    0.34    0.26
  -1   9  -3    0.47    0.20
  -1   9  -4   13.39    0.53
   1  -9   4   13.60    0.60
  -1   9  -4   13.87    0.50
  -1   9  -5    0.15    0.13
   1  -9   5    0.09    0.15
   1  -8 -14   92.28    1.36
  -1   8  14   89.38    1.23
  -1   8  14   94.08    1.30
   1  -8 -13    4.09    0.42
  -1   8  13    4.04    0.39
  -1   8  13    4.38    0.40
   1  -8 -12   81.94    1.43
   1  -8 -12   84.75    1.69
  -1   8  12   85.28    1.60
  -1   8  12   85.22    1.52
   1  -8 -11   18.59    0.90
   1  -8 -11   17.93    0.80
  -1   8  11   18.73    0.85
  -1   8  10   22.70    0.89
   1  -8 -10   21.71    1.01
  -1   8  10   21.23    0.95
   1  -8  -9   58.38    1.40
   1  -8  -9   57.75    1.62
  -1   8   9   59.86    1.55
  -1   8   9   59.00    1.38
   1  -8  -8    0.16    0.34
   1  -8  -8    0.42    0.39
  -1   8   8   -0.06    0.35
  -1   8   8    0.32    0.40
   1  -8  -7    0.08    0.47
   1  -8  -7    0.07    0.41
  -1   8   7    0.41    0.36
  -1   8   7    0.46    0.42
   1  -8  -6  135.76    2.68
   1  -8  -6  134.26    2.51
  -1   8   6  136.43    2.33
   1  -8  -5  725.46    5.83
   1  -8  -5  728.56    6.16
  -1   8   5  717.99    5.33
   1  -8  -5  713.57    5.73
  -1   8   5  726.23    5.35
  -1   8   4 1012.03   10.77
  -1   8   4  977.77   12.35
   1  -8  -4  993.09    6.61
  -1   8   4  979.02    6.31
   1  -8  -4 1002.69    7.25
   1  -8  -4  992.19    6.23
   1  -8  -4  994.17    6.94
  -1   8   4  996.19    6.29
  -1   8   3   48.18    2.83
   1  -8  -3   54.20    1.77
   1  -8  -3   51.67    1.46
  -1   8   3   52.18    1.52
   1  -8  -3   51.31    1.68
  -1   8   3   52.79    1.40
   1  -8  -3   52.87    1.52
  -1   8   3   56.30    1.55
  -1   8   2  158.89    5.05
  -1   8   2  162.58    2.44
   1  -8  -2  162.48    2.94
  -1   8   2  157.72    2.54
   1  -8  -2  162.01    2.92
   1  -8  -2  161.76    2.47
  -1   8   2  162.10    2.51
  -1   8   1   21.92    1.91
   1  -8  -1   20.46    1.13
  -1   8   1   21.48    0.99
  -1   8   1   20.72    0.94
   1  -8  -1   21.62    0.93
   1  -8  -1   22.40    1.15
  -1   8   1   21.60    0.97
  -1   8   0    9.41    1.29
   1  -8   0   11.83    0.90
  -1   8   0   11.02    0.72
   1  -8   0   10.03    0.82
  -1   8   0   10.75    0.75
   1  -8   0   11.64    0.70
  -1   8   0   11.33    0.73
  -1   8  -1  159.16    4.90
  -1   8  -1  159.16    2.44
   1  -8   1  152.48    2.76
  -1   8  -1  157.50    2.41
   1  -8   1  157.26    2.23
   1  -8   1  156.86    2.85
  -1   8  -1  161.15    2.34
  -1   8  -2  223.84    5.61
   1  -8   2  211.82    2.76
   1  -8   2  218.92    2.47
  -1   8  -2  217.12    2.75
  -1   8  -2  221.61    2.79
   1  -8   2  211.64    3.14
   1  -8   2  218.50    3.30
  -1   8  -2  219.95    2.63
  -1   8  -3   22.84    1.79
  -1   8  -3   23.76    0.95
   1  -8   3   23.82    1.03
  -1   8  -3   24.72    0.94
   1  -8   3   23.97    1.13
  -1   8  -3   23.24    0.86
  -1   8  -4  150.25    2.08
   1  -8   4  146.05    2.27
   1  -8   4  148.92    2.56
  -1   8  -4  149.17    2.15
  -1   8  -4  148.26    1.92
  -1   8  -5   27.58    0.85
   1  -8   5   26.63    1.06
  -1   8  -5   26.39    0.78
  -1   8  -5   26.82    0.90
   1  -8   5   25.56    0.85
  -1   8  -5   25.82    0.73
  -1   8  -6    0.11    0.26
   1  -8   6    0.14    0.30
  -1   8  -6    0.20    0.18
  -1   8  -7   21.24    0.57
  -1   8  -7   22.40    0.66
   1  -8   7   21.53    0.79
   1  -8   8    0.44    0.16
   1  -7 -16   25.40    0.63
   1  -7 -15  323.14    2.46
  -1   7  15  321.68    2.75
   1  -7 -14   37.42    1.10
   1  -7 -14   37.14    0.99
  -1   7  14   35.31    0.99
  -1   7  14   36.70    1.08
   1  -7 -13   58.86    1.53
   1  -7 -13   59.04    1.35
  -1   7  13   57.87    1.41
  -1   7  13   59.35    1.43
  -1   7  12   89.77    1.81
   1  -7 -12   86.77    1.97
   1  -7 -12   88.62    1.74
   1  -7 -12   87.42    1.68
  -1   7  12   88.35    1.83
  -1   7  11  456.15    4.26
   1  -7 -11  462.22    4.67
   1  -7 -11  467.95    4.08
  -1   7  11  462.75    4.32
   1  -7 -10   19.19    1.08
   1  -7 -10   18.89    0.87
  -1   7  10   19.95    1.00
   1  -7  -9    1.70    0.39
   1  -7  -9    0.94    0.50
  -1   7   9    0.90    0.48
  -1   7   9    0.84    0.36
   1  -7  -8  475.11    5.01
   1  -7  -8  475.77    4.94
  -1   7   8  476.18    4.26
  -1   7   8  485.44    4.47
   1  -7  -7  216.64    3.43
   1  -7  -7  218.46    3.36
  -1   7   7  211.91    2.91
  -1   7   6    2.54    0.74
   1  -7  -6    2.99    0.59
  -1   7   6    3.24    0.46
   1  -7  -6    3.32    0.56
  -1   7   6    3.11    0.49
   1  -7  -6    2.52    0.47
  -1   7   5  625.91    9.02
  -1   7   5  629.70    9.55
   1  -7  -5  640.96   10.86
   1  -7  -5  623.92    4.99
   1  -7  -5  625.81    5.66
   1  -7  -5  618.66    5.49
  -1   7   5  618.28    4.91
   1  -7  -5  629.24    5.81
  -1   7   5  614.21    4.95
  -1   7   4    8.76    1.16
  -1   7   4    9.95    1.42
   1  -7  -4   10.01    1.60
  -1   7   4   10.45    0.74
   1  -7  -4    9.51    0.74
   1  -7  -4   10.87    0.87
   1  -7  -4    9.52    0.81
   1  -7  -4   10.52    0.76
  -1   7   4    9.76    0.73
  -1   7   3  226.32    5.24
  -1   7   3  234.67    5.98
   1  -7  -3  233.82    6.78
  -1   7   3  229.71    2.83
  -1   7   3  230.22    3.02
   1  -7  -3  233.78    3.56
   1  -7  -3  237.71    3.22
   1  -7  -3  235.02    3.05
   1  -7  -3  229.65    3.51
  -1   7   3  231.01    2.98
  -1   7   2  319.51    6.05
  -1   7   2  319.05    6.98
  -1   7   2  310.24    6.23
   1  -7  -2  319.87    4.14
   1  -7  -2  316.47    3.63
  -1   7   2  312.99    3.34
   1  -7  -2  312.74    4.12
  -1   7   2  311.79    3.48
   1  -7  -2  315.90    3.51
   1  -7  -2  326.38    8.10
  -1   7   1  141.59    4.15
  -1   7   1  142.35    4.69
  -1   7   1  140.02    3.96
  -1   7   1  140.09    2.30
   1  -7  -1  146.05    2.84
   1  -7  -1  141.66    2.79
   1  -7  -1  142.80    2.36
  -1   7   1  143.36    2.37
  -1   7   1  140.28    5.37
   1  -7  -1  156.57    5.65
  -1   7   0  100.56    3.94
  -1   7   0   98.88    3.42
   1  -7   0   96.68    2.35
  -1   7   0  101.41    2.00
  -1   7   0   98.18    1.93
   1  -7   0  101.43    2.39
   1  -7   0   98.42    1.96
  -1   7  -1  246.75    5.28
  -1   7  -1  248.59    6.08
   1  -7   1  247.43    3.72
   1  -7   1  250.04    3.01
  -1   7  -1  251.29    3.05
   1  -7   1  246.57    3.77
  -1   7  -1  248.39    3.08
  -1   7  -2  124.52    3.59
  -1   7  -2  118.74    4.21
   1  -7   2  119.80    2.64
  -1   7  -2  120.25    2.13
  -1   7  -2  121.53    2.14
   1  -7   2  116.92    2.54
   1  -7   2  117.59    2.05
  -1   7  -3   28.29    2.10
   1  -7   3   27.62    1.07
  -1   7  -3   28.49    1.02
  -1   7  -3   29.10    1.09
   1  -7   3   28.17    1.27
  -1   7  -3   28.59    1.08
   1  -7   3   28.61    1.35
   1  -7   3   28.73    0.99
   1  -7   3   27.68    1.22
  -1   7  -4  106.32    3.89
   1  -7   4  100.56    2.24
  -1   7  -4  101.64    1.90
  -1   7  -4  105.39    1.94
   1  -7   4  105.62    2.46
  -1   7  -4  103.14    1.94
   1  -7   4  101.91    2.23
  -1   7  -5    4.11    0.80
   1  -7   5    4.55    0.53
  -1   7  -5    4.29    0.49
   1  -7   5    3.64    0.64
  -1   7  -5    4.69    0.54
  -1   7  -5    4.50    0.50
   1  -7   5    4.12    0.57
  -1   7  -6   30.14    1.94
  -1   7  -6   29.61    1.02
  -1   7  -6   29.23    1.00
   1  -7   6   29.42    1.07
  -1   7  -6   29.93    0.96
   1  -7   6   29.96    1.29
   1  -7   6   28.69    1.16
  -1   7  -7    0.96    0.27
  -1   7  -7    1.57    0.36
  -1   7  -7    2.08    0.39
   1  -7   7    1.57    0.48
   1  -7   7    0.95    0.38
  -1   7  -8  411.14    2.75
  -1   7  -8  412.41    3.26
  -1   7  -8  413.59    3.15
   1  -7   8  417.72    3.92
   1  -7   8  404.59    3.55
  -1   7  -9  140.42    1.60
  -1   7  -9  141.38    1.71
   1  -7   9  142.82    2.03
  -1   7 -10  300.84    2.08
   1  -7  10  303.72    2.36
   1  -6 -16    6.70    0.44
  -1   6  16    6.69    0.38
   1  -6 -16    6.32    0.45
  -1   6  16    6.00    0.46
   1  -6 -15    7.96    0.56
  -1   6  15    7.44    0.57
  -1   6  14  104.16    1.95
   1  -6 -14  101.68    2.00
   1  -6 -14   99.51    1.89
  -1   6  14  101.16    1.95
  -1   6  14   99.23    1.79
  -1   6  13    8.21    0.62
   1  -6 -13    7.96    0.75
   1  -6 -13    9.89    0.72
  -1   6  13    7.16    0.62
  -1   6  13    8.16    0.70
  -1   6  12   38.32    1.29
   1  -6 -12   38.10    1.32
   1  -6 -12   39.24    1.45
   1  -6 -12   37.67    1.18
  -1   6  12   40.27    1.34
  -1   6  11    7.15    0.63
   1  -6 -11    6.28    0.61
   1  -6 -11    6.73    0.74
  -1   6  11    6.83    0.65
   1  -6 -10   27.71    1.28
   1  -6 -10   28.18    1.15
  -1   6  10   29.58    1.18
   1  -6  -9  843.76    6.58
   1  -6  -9  837.03    5.83
  -1   6   9  843.60    5.95
   1  -6  -8  447.48    8.15
  -1   6   8  447.49    7.55
   1  -6  -8  441.14    4.71
   1  -6  -8  445.41    4.10
   1  -6  -8  439.78    4.77
  -1   6   7    0.12    0.67
  -1   6   7   -0.29    0.63
   1  -6  -7    0.50    0.58
   1  -6  -7    0.12    0.37
   1  -6  -7    0.17    0.37
  -1   6   7    0.91    0.35
  -1   6   6  242.21    5.54
   1  -6  -6  237.77    6.14
  -1   6   6  247.00    5.40
   1  -6  -6  241.40    3.43
   1  -6  -6  245.71    3.36
   1  -6  -6  245.58    3.33
   1  -6  -6  241.79    2.93
  -1   6   6  238.04    2.86
  -1   6   5   27.43    1.88
  -1   6   5   27.95    1.88
  -1   6   5   28.67    1.84
   1  -6  -5   28.03    2.18
  -1   6   5   28.09    0.98
   1  -6  -5   28.65    1.20
   1  -6  -5   27.35    1.00
   1  -6  -5   28.23    1.17
   1  -6  -5   28.81    1.15
  -1   6   5   27.92    0.99
  -1   6   4  215.89    5.16
  -1   6   4  208.52    4.86
  -1   6   4  219.78    5.03
   1  -6  -4  220.68    2.71
  -1   6   4  217.18    2.62
   1  -6  -4  219.68    3.17
   1  -6  -4  218.04    2.96
   1  -6  -4  217.60    3.17
   1  -6  -4  213.15    5.94
  -1   6   3  194.24    4.89
  -1   6   3  195.33    4.64
  -1   6   3  194.00    4.57
  -1   6   3  193.19    2.47
   1  -6  -3  198.04    3.01
   1  -6  -3  196.82    2.55
   1  -6  -3  199.89    3.03
   1  -6  -3  196.85    5.85
  -1   6   2   13.64    1.29
  -1   6   2   13.62    1.30
   1  -6  -2   15.76    0.90
   1  -6  -2   14.02    0.74
  -1   6   2   15.16    0.70
  -1   6   2   14.74    0.72
   1  -6  -2   13.95    1.70
  -1   6   2   15.58    1.16
  -1   6   1   46.80    2.22
   1  -6  -1   45.44    2.97
   1  -6  -1   46.75    1.27
   1  -6  -1   45.61    1.50
  -1   6   1   46.40    1.19
   1  -6  -1   43.99    1.45
  -1   6   0  352.98    5.99
   1  -6   0  354.81    4.06
  -1   6   0  350.99    3.24
   1  -6   0  354.37    4.12
   1  -6   0  349.06    3.42
   1  -6   0  349.53    3.92
  -1   6  -1   14.17    1.27
   1  -6   1   14.05    1.75
  -1   6  -1   12.08    1.56
   1  -6   1   13.71    0.72
   1  -6   1   13.60    0.89
   1  -6   1   12.31    0.84
   1  -6   1   14.11    0.86
  -1   6  -2    4.75    0.80
   1  -6   2    4.17    0.98
  -1   6  -2    6.55    1.22
   1  -6   2    5.85    0.52
  -1   6  -2    6.32    0.51
   1  -6   2    5.69    0.63
   1  -6   2    5.95    0.66
   1  -6   2    6.14    0.64
  -1   6  -3  839.99    8.86
   1  -6   3  797.98   11.35
  -1   6  -3  811.96   12.36
  -1   6  -3  811.52    5.15
   1  -6   3  812.81    6.31
  -1   6  -3  819.54    5.15
   1  -6   3  814.97    6.68
   1  -6   3  810.26    5.20
   1  -6   3  822.90    6.48
  -1   6  -4 1092.47   14.31
  -1   6  -4 1092.96    6.13
  -1   6  -4 1100.39    6.10
   1  -6   4 1092.74    7.89
   1  -6   4 1096.27    5.95
   1  -6   4 1099.14    7.33
   1  -6   4 1083.48    7.68
  -1   6  -5  183.13    2.52
   1  -6   5  189.83    3.04
   1  -6   5  181.61    3.29
  -1   6  -5  182.40    2.60
   1  -6   5  182.85    3.19
  -1   6  -6    3.14    0.48
   1  -6   6    3.46    0.50
  -1   6  -6    3.30    0.48
   1  -6   6    2.69    0.61
   1  -6   6    2.89    0.58
  -1   6  -7  357.81    3.59
  -1   6  -7  359.66    3.42
   1  -6   7  359.70    4.45
   1  -6   7  356.41    4.33
  -1   6  -8    0.20    0.31
  -1   6  -8    0.04    0.36
   1  -6   8    0.79    0.49
   1  -6   8    0.08    0.43
  -1   6  -9   19.48    0.84
  -1   6  -9   18.83    0.75
  -1   6  -9   20.00    0.67
   1  -6   9   19.13    1.01
   1  -6   9   18.70    0.97
  -1   6 -10   29.90    0.93
  -1   6 -10   28.07    0.80
   1  -6  10   28.67    1.07
   1  -6  10   28.36    1.06
  -1   6 -11    2.90    0.33
  -1   6 -11    2.55    0.23
   1  -6  11    2.53    0.34
  -1   6 -12   31.82    0.69
  -1   5  17   62.44    1.10
   1  -5 -17   65.40    1.16
   1  -5 -16   57.22    1.31
  -1   5  16   55.17    1.25
  -1   5  16   56.89    1.35
   1  -5 -16   56.87    1.34
  -1   5  15    1.27    0.34
   1  -5 -15    1.06    0.40
  -1   5  15    1.35    0.39
  -1   5  14   21.12    0.97
   1  -5 -14   21.81    1.03
   1  -5 -14   21.62    1.05
  -1   5  14   21.40    1.04
  -1   5  13 1342.64    7.58
   1  -5 -13 1336.87    8.12
   1  -5 -13 1366.67    7.86
  -1   5  13 1338.29    7.21
  -1   5  13 1350.84    7.65
  -1   5  12   94.01    2.05
   1  -5 -12   96.46    2.27
   1  -5 -12   94.00    2.13
  -1   5  12   90.86    1.97
  -1   5  11  122.26    4.08
  -1   5  11  120.59    2.31
   1  -5 -11  117.80    2.51
   1  -5 -11  121.37    2.40
  -1   5  11  119.00    2.25
  -1   5  10  152.82    4.53
  -1   5  10  149.27    4.55
   1  -5 -10  155.10    2.84
   1  -5 -10  154.95    2.63
  -1   5  10  154.51    2.51
  -1   5   9  350.39    6.73
   1  -5  -9  345.41    4.09
   1  -5  -9  351.41    3.75
  -1   5   9  352.60    3.64
  -1   5   8  134.78    4.19
   1  -5  -8  146.69    2.59
   1  -5  -8  145.89    2.56
   1  -5  -8  144.48    2.31
  -1   5   8  145.77    4.20
   1  -5  -8  142.92    4.21
  -1   5   7    3.22    0.77
   1  -5  -7    2.32    0.63
  -1   5   7    3.41    0.87
  -1   5   6  496.85    7.31
   1  -5  -6  490.16    7.87
  -1   5   6  501.94    7.36
   1  -5  -5  158.71    4.40
  -1   5   5  157.75    4.01
  -1   5   5  159.00    3.87
  -1   5   5  155.50    3.86
  -1   5   4  199.30    4.01
   1  -5  -4  206.48    5.06
  -1   5   4  202.76    4.33
  -1   5   4  203.05    4.21
  -1   5   4  207.26    4.51
  -1   5   3  179.64    3.75
   1  -5  -3  185.17    4.93
  -1   5   3  181.82    3.92
  -1   5   2 1722.89   11.45
   1  -5  -2 1708.47   15.31
  -1   5   1  245.00    4.30
   1  -5  -1  237.83    5.84
  -1   5   1  239.30    4.40
  -1   5   0    8.29    0.83
   1  -5   0    8.80    1.33
  -1   5   0    7.39    0.90
   1  -5   1   -0.01    0.52
   1  -5   1   -0.36    0.81
  -1   5  -1   -0.23    0.48
  -1   5  -1   -0.24    0.62
   1  -5   2 1121.93   11.72
   1  -5   2 1138.10   12.87
  -1   5  -2 1103.71    9.63
  -1   5  -2 1123.28   10.38
  -1   5  -3  490.34    8.97
   1  -5   3  483.75    8.17
   1  -5   3  494.37    8.07
  -1   5  -3  487.67    7.05
  -1   5  -3  488.11    6.40
  -1   5  -4   18.52    1.27
  -1   5  -4   17.73    1.52
  -1   5  -4   18.99    1.91
   1  -5   4   17.96    1.67
  -1   5  -4   19.94    0.79
   1  -5   4   18.29    0.79
   1  -5   4   19.35    1.03
   1  -5   4   19.18    0.99
  -1   5  -4   18.77    0.82
  -1   5  -5 1029.02   10.61
   1  -5   5 1017.28   12.45
  -1   5  -5  992.38   13.21
  -1   5  -5  998.60    5.55
   1  -5   5 1007.16    6.53
  -1   5  -5 1001.67    5.93
   1  -5   5 1009.86    7.09
   1  -5   5 1003.87    7.29
  -1   5  -6  209.34    4.88
  -1   5  -6  206.02    2.64
  -1   5  -6  208.50    2.85
   1  -5   6  207.48    3.45
   1  -5   6  209.41    3.38
  -1   5  -7    0.70    0.37
   1  -5   7    1.13    0.49
  -1   5  -7    1.51    0.40
   1  -5   7    1.29    0.51
  -1   5  -8   31.33    1.06
  -1   5  -8   31.54    1.11
  -1   5  -8   29.95    1.02
   1  -5   8   30.52    1.40
   1  -5   8   31.59    1.42
  -1   5  -8   30.66    1.17
  -1   5  -9  152.08    2.28
  -1   5  -9  153.37    2.34
  -1   5  -9  148.79    2.14
   1  -5   9  155.17    2.98
  -1   5  -9  152.49    2.25
   1  -5   9  154.99    2.92
  -1   5 -10    5.70    0.47
  -1   5 -10    5.42    0.57
  -1   5 -10    5.83    0.47
   1  -5  10    5.57    0.71
   1  -5  10    4.74    0.63
  -1   5 -10    5.16    0.48
  -1   5 -11  179.87    2.22
  -1   5 -11  178.03    2.30
  -1   5 -11  175.35    1.95
   1  -5  11  175.84    2.74
  -1   5 -11  177.43    2.15
   1  -5  11  178.26    2.77
  -1   5 -12    0.73    0.29
   1  -5  12    0.82    0.31
  -1   5 -12    1.01    0.24
   1  -5  12    1.09    0.38
  -1   5 -13   13.18    0.51
   1  -5  13   12.03    0.50
   1  -5  13   13.60    0.61
  -1   4  18   11.73    0.44
   1  -4 -17    4.69    0.31
  -1   4  17    5.41    0.45
   1  -4 -17    4.86    0.40
  -1   4  17    4.94    0.43
   1  -4 -16    1.74    0.40
   1  -4 -16    1.59    0.29
  -1   4  16    1.39    0.37
   1  -4 -16    1.42    0.37
  -1   4  15  166.55    2.63
   1  -4 -15  167.15    2.24
   1  -4 -15  167.26    2.63
  -1   4  15  167.16    2.60
  -1   4  14    1.17    0.37
   1  -4 -14    1.74    0.32
   1  -4 -14    1.79    0.52
   1  -4 -14    1.77    0.49
   1  -4 -14    1.51    0.35
  -1   4  14    0.71    0.43
  -1   4  13  243.08    3.32
   1  -4 -13  248.13    2.95
   1  -4 -13  250.18    3.47
   1  -4 -13  249.95    3.52
   1  -4 -13  249.31    2.97
  -1   4  13  241.72    3.31
  -1   4  12  121.81    2.35
  -1   4  12  120.37    4.13
   1  -4 -12  123.50    2.07
   1  -4 -12  122.23    2.53
   1  -4 -12  123.48    2.47
   1  -4 -12  121.64    2.07
   1  -4 -11  149.35    2.19
  -1   4  11  150.45    2.54
   1  -4 -11  148.58    4.85
  -1   4  11  148.53    4.54
  -1   4  11  143.41    5.17
   1  -4 -11  145.85    2.62
   1  -4 -11  147.26    2.74
  -1   4  11  146.64    2.35
  -1   4  10  421.90    7.41
   1  -4 -10  439.13    7.83
   1  -4 -10  431.95    3.53
  -1   4  10  428.82    4.14
  -1   4  10  431.08    8.58
  -1   4  10  417.65    7.32
   1  -4 -10  422.74    4.25
   1  -4 -10  427.47    4.46
  -1   4  10  417.74    3.84
   1  -4  -9  542.86    8.27
  -1   4   9  541.11    8.11
   1  -4  -9  557.94    4.86
  -1   4   9  545.55    7.97
  -1   4   8   38.20    2.07
   1  -4  -8   39.95    2.12
  -1   4   8   36.78    2.09
  -1   4   7  302.19    5.45
   1  -4  -7  307.75    5.50
  -1   4   7  303.17    5.49
   1  -4  -7  302.80    5.35
  -1   4   6 1178.24   10.46
   1  -4  -6 1171.71   10.59
  -1   4   6 1144.85    9.58
  -1   4   6 1174.45   10.31
   1  -4  -5  293.56    5.22
  -1   4   5  283.36    4.53
  -1   4   5  282.40    4.91
  -1   4   5  291.53    4.41
   1  -4  -4    0.15    0.53
  -1   4   4    0.16    0.38
  -1   4   4    0.15    0.46
  -1   4   4    0.14    0.41
  -1   4   3  133.84    2.95
   1  -4  -3  133.27    3.62
  -1   4   3  127.13    2.91
  -1   4   2   29.96    1.43
   1  -4  -2   31.71    1.88
  -1   4   2   31.26    1.44
   1  -4  -1   26.24    1.80
  -1   4   1   24.82    1.35
  -1   4   1   24.85    1.24
  -1   4   1   25.57    1.33
  -1   4   1   25.79    1.30
  -1   4   0  214.34    3.52
  -1   4   0  214.28    3.70
  -1   4  -1  322.32    4.38
   1  -4   1  331.49    6.07
  -1   4  -1  329.30    4.65
  -1   4  -1  313.77    4.71
   1  -4   2  338.43    5.67
  -1   4  -2  344.19    4.54
   1  -4   2  343.39    6.15
  -1   4  -2  340.94    6.42
   1  -4   2  326.53    5.96
  -1   4  -2  332.37    4.89
  -1   4  -3  616.23    8.99
  -1   4  -3  631.15    6.23
   1  -4   3  628.14    8.10
   1  -4   3  633.21    8.29
   1  -4   3  612.93    8.44
  -1   4  -3  623.09    6.92
  -1   4  -4  827.63    7.12
  -1   4  -4  804.79   10.58
   1  -4   4  804.77    9.18
   1  -4   4  818.87    9.77
  -1   4  -4  819.74    8.20
   1  -4   5  132.69    4.19
  -1   4  -5  137.31    4.54
   1  -4   5  132.98    4.83
   1  -4   5  139.27    4.33
  -1   4  -5  132.25    3.45
  -1   4  -6   74.48    2.68
   1  -4   6   81.03    3.37
  -1   4  -6   75.58    1.43
   1  -4   6   72.56    3.80
   1  -4   6   73.15    3.32
  -1   4  -6   74.89    1.41
   1  -4   6   77.09    1.91
   1  -4   6   74.92    1.90
  -1   4  -6   73.25    1.54
   1  -4   7    3.03    1.00
  -1   4  -7    4.44    0.44
  -1   4  -7    2.81    0.68
   1  -4   7    1.83    0.54
  -1   4  -7    4.22    1.05
  -1   4  -7    6.49    0.49
  -1   4  -7    3.80    0.40
  -1   4  -7    4.24    0.47
   1  -4   7    4.79    0.58
   1  -4   7    4.97    0.58
   1  -4   7    4.75    0.62
  -1   4  -8   14.56    0.74
  -1   4  -8   13.28    1.23
   1  -4   8   15.10    1.90
   1  -4   8   15.87    1.71
  -1   4  -8   14.36    1.74
  -1   4  -8   14.42    0.73
  -1   4  -8   14.31    0.80
   1  -4   8   14.56    0.88
   1  -4   8   13.98    1.00
  -1   4  -8   14.93    0.74
   1  -4   8   13.63    0.94
  -1   4  -9  125.95    2.12
  -1   4  -9  122.74    3.54
   1  -4   9  118.97    5.24
  -1   4  -9  123.36    2.05
  -1   4  -9  120.77    2.21
  -1   4  -9  119.63    2.06
   1  -4   9  122.96    2.41
   1  -4   9  124.46    2.70
   1  -4   9  132.17    2.77
  -1   4 -10  120.19    2.11
   1  -4  10  123.24    5.36
  -1   4 -10  121.05    2.04
  -1   4 -10  119.93    2.20
   1  -4  10  122.17    2.66
   1  -4  10  121.29    2.34
   1  -4  10  121.49    2.64
  -1   4 -10  119.00    2.08
  -1   4 -11   37.89    1.19
  -1   4 -11   38.02    1.17
  -1   4 -11   39.33    1.01
   1  -4  11   39.47    1.29
  -1   4 -11   38.11    1.18
   1  -4  11   38.45    1.49
   1  -4  11   39.39    1.52
  -1   4 -11   39.24    1.29
  -1   4 -12   41.50    1.18
  -1   4 -12   40.10    1.13
  -1   4 -12   42.61    1.26
   1  -4  12   41.96    1.42
   1  -4  12   42.12    1.46
  -1   4 -12   40.66    1.16
  -1   4 -13   15.88    0.69
  -1   4 -13   15.88    0.68
   1  -4  13   16.91    0.84
   1  -4  13   15.12    0.83
  -1   4 -13   15.94    0.69
  -1   4 -14    6.75    0.40
  -1   4 -14    6.38    0.39
   1  -4  14    6.14    0.38
   1  -4  14    6.25    0.49
  -1   4 -14    6.82    0.40
  -1   3  18   29.67    0.77
   1  -3 -18   28.03    0.61
   1  -3 -17    1.04    0.27
  -1   3  17    1.16    0.32
   1  -3 -17    0.98    0.27
  -1   3  17    0.91    0.27
  -1   3  16    4.24    0.47
   1  -3 -16    4.01    0.44
   1  -3 -16    3.80    0.49
   1  -3 -16    3.64    0.46
  -1   3  16    4.00    0.50
   1  -3 -15   11.80    0.69
  -1   3  15    7.88    0.64
   1  -3 -15    7.81    0.71
   1  -3 -15    7.77    0.61
  -1   3  15    8.80    0.71
   1  -3 -15    7.71    0.69
  -1   3  15   12.62    0.81
  -1   3  14  141.04    2.55
   1  -3 -14  137.43    2.32
   1  -3 -14  140.61    2.36
   1  -3 -14  137.47    2.56
  -1   3  14  136.49    2.51
  -1   3  13  126.09    2.42
  -1   3  13  129.90    2.03
   1  -3 -13  124.82    2.21
   1  -3 -13  123.10    2.46
   1  -3 -13  127.64    2.27
   1  -3 -13  123.69    2.47
  -1   3  13  119.24    2.37
   1  -3 -12  484.96    4.22
  -1   3  12  473.77    8.29
  -1   3  12  482.90    4.58
   1  -3 -12  481.89    4.85
   1  -3 -12  477.45    4.29
   1  -3 -12  481.71    4.81
  -1   3  12  478.44    4.52
   1  -3 -11  536.44    9.41
  -1   3  11  533.69    4.66
  -1   3  11  536.37    8.55
   1  -3 -11  526.94    4.23
   1  -3 -11  530.58    4.27
   1  -3 -11  530.28    5.00
   1  -3 -11  531.74    4.83
   1  -3 -10  133.50    4.39
  -1   3  10  137.34    2.27
  -1   3  10  139.92    4.17
   1  -3 -10  134.49    2.02
   1  -3 -10  134.85    2.40
   1  -3 -10  138.71    2.35
  -1   3  10  127.52    4.66
  -1   3  10  142.09    3.93
  -1   3   9  111.30    3.46
  -1   3   9  108.82    3.93
  -1   3   9  111.79    3.42
   1  -3  -9  110.87    3.70
  -1   3   9  110.38    1.95
  -1   3   9  108.45    3.51
   1  -3  -9  110.90    1.72
  -1   3   8   38.57    2.23
  -1   3   8   37.70    1.93
   1  -3  -8   38.20    2.05
   1  -3  -7  139.41    3.21
  -1   3   7  141.19    3.88
  -1   3   7  138.29    3.45
  -1   3   7  133.11    3.38
   1  -3  -7  141.03    3.56
   1  -3  -6    1.90    0.49
  -1   3   6    2.64    0.65
  -1   3   6    3.05    0.62
   1  -3  -6    3.20    0.60
  -1   3   6    1.76    0.58
  -1   3   5    1.05    0.45
   1  -3  -5    0.35    0.37
  -1   3   5    0.24    0.40
  -1   3   5    0.22    0.33
  -1   3   5    1.40    0.45
  -1   3   4 3932.50   14.70
   1  -3  -4 3899.46   16.23
  -1   3   4 3904.02   15.82
  -1   3   4 3889.39   14.16
   1  -3  -3   61.53    2.07
  -1   3   3   61.30    1.85
  -1   3   3   63.39    1.76
  -1   3   2   11.40    0.81
  -1   3   2   12.02    0.88
  -1   3   2   11.74    0.72
  -1   3   2   13.99    0.85
   1  -3  -1 2128.89   12.70
  -1   3   1 2141.64   10.14
  -1   3   1 2155.80    9.64
  -1   3   0 2239.91   10.64
  -1   3   0 2261.34   10.18
  -1   3  -1 1852.34    9.91
  -1   3  -1 1858.05    9.47
   1  -3   1 1852.19   11.97
  -1   3  -1 1846.61    9.71
   1  -3   1 1825.30   11.89
  -1   3  -2  173.95    2.96
   1  -3   2  174.92    3.71
  -1   3  -2  159.68    3.89
   1  -3   2  176.44    3.49
  -1   3  -2  166.76    3.09
   1  -3   2  166.30    3.61
  -1   3  -2  170.72    2.76
   1  -3   3  351.04    5.26
  -1   3  -3  360.64    6.07
   1  -3   3  361.57    5.33
  -1   3  -3  352.77    4.36
  -1   3  -3  348.84    4.24
   1  -3   3  362.31    6.25
   1  -3   3  355.21    5.37
   1  -3   4  297.14    4.80
   1  -3   4  310.33    5.25
  -1   3  -4  297.89    5.72
  -1   3  -4  304.35    4.15
   1  -3   4  289.11    5.05
  -1   3  -4  302.09    4.12
   1  -3   4  287.95    3.05
   1  -3   4  294.23    5.95
   1  -3   5   18.95    1.46
  -1   3  -5   21.05    1.13
  -1   3  -5   16.72    1.51
   1  -3   5   19.62    1.25
   1  -3   5   18.62    1.38
  -1   3  -5   19.86    1.18
   1  -3   5   18.86    0.87
   1  -3   5   19.98    1.72
  -1   3  -5   19.07    1.25
   1  -3   6  707.16    9.40
  -1   3  -6  715.88    6.52
   1  -3   6  694.99    8.54
  -1   3  -6  713.51    7.51
   1  -3   6  706.37   10.42
   1  -3   6  712.68    5.24
   1  -3   7  127.34    4.34
  -1   3  -7  123.01    4.25
  -1   3  -7  126.48    3.29
   1  -3   7  130.83    2.12
   1  -3   7  128.58    4.76
   1  -3   7  126.86    2.37
  -1   3  -8  131.94    3.44
   1  -3   8  135.08    2.60
   1  -3   8  136.57    5.19
  -1   3  -8  138.33    4.76
   1  -3   8  137.69    4.81
  -1   3  -8  140.11    1.89
   1  -3   8  138.32    2.50
  -1   3  -8  142.47    2.12
  -1   3  -8  138.09    1.97
   1  -3   8  139.13    2.48
   1  -3   8  137.59    2.55
   1  -3   9 1027.40    7.41
  -1   3  -9 1049.26    9.71
   1  -3   9 1046.14   14.82
  -1   3  -9 1073.66   13.63
   1  -3   9 1029.62   13.59
   1  -3   9 1039.51    7.11
  -1   3  -9 1051.62    5.45
  -1   3  -9 1037.54    6.02
   1  -3   9 1037.27    7.01
   1  -3   9 1041.78    7.28
   1  -3  10    6.23    0.73
   1  -3  10    6.67    1.33
  -1   3 -10    6.71    0.86
  -1   3 -10    6.87    1.27
  -1   3 -10    6.65    0.55
   1  -3  10    6.74    0.71
  -1   3 -10    6.02    0.60
   1  -3  10    6.37    0.71
   1  -3  10    5.45    0.70
   1  -3  11  786.40    6.72
  -1   3 -11  784.64    4.98
   1  -3  11  782.91    6.69
   1  -3  11  780.97    6.15
  -1   3 -11  786.63    5.45
   1  -3  11  768.96    6.50
   1  -3  12   56.68    1.80
   1  -3  12   61.17    3.68
  -1   3 -12   56.02    1.46
  -1   3 -12   57.30    1.36
  -1   3 -12   56.78    1.50
  -1   3 -12   57.35    1.48
   1  -3  12   57.22    1.77
   1  -3  12   55.54    1.80
   1  -3  12   58.47    1.66
  -1   3 -13   65.66    1.51
  -1   3 -13   65.54    1.39
  -1   3 -13   66.39    1.54
  -1   3 -13   63.63    1.50
   1  -3  13   67.62    1.88
   1  -3  13   65.62    1.58
   1  -3  13   68.73    1.77
  -1   3 -14    3.46    0.40
  -1   3 -14    3.24    0.37
  -1   3 -14    4.22    0.46
  -1   3 -14    3.12    0.41
   1  -3  14    3.26    0.38
   1  -3  14    3.30    0.51
   1  -3  14    3.20    0.44
  -1   3 -15   61.78    1.18
  -1   3 -15   56.50    1.01
   1  -3  15   59.01    1.21
  -1   3 -15   60.14    1.14
   1  -3  15   59.20    1.35
  -1   3 -16   28.42    0.61
   1  -3  16   29.39    0.72
   1  -2 -18   27.07    0.66
  -1   2  18   26.95    0.72
  -1   2  17   19.93    0.67
   1  -2 -17   20.31    0.75
  -1   2  17   19.78    0.70
   1  -2 -17   20.89    0.74
  -1   2  17   19.33    0.81
  -1   2  16    6.66    0.57
   1  -2 -16    5.35    0.48
   1  -2 -16    6.20    0.53
  -1   2  16    6.45    0.61
  -1   2  16    5.27    0.49
   1  -2 -16    5.62    0.53
   1  -2 -15   81.46    1.80
  -1   2  15   83.05    1.97
   1  -2 -15   80.28    1.79
   1  -2 -15   84.28    1.92
  -1   2  15   83.39    1.92
   1  -2 -15   82.15    1.90
   1  -2 -14  306.45    3.56
  -1   2  14  319.17    3.92
  -1   2  14  315.21    3.17
   1  -2 -14  311.73    3.63
   1  -2 -14  317.99    3.86
   1  -2 -14  315.81    3.90
  -1   2  14  314.08    3.77
   1  -2 -13  250.13    3.21
  -1   2  13  254.93    3.47
  -1   2  13  253.96    2.91
   1  -2 -13  251.74    3.49
   1  -2 -13  254.71    3.31
  -1   2  13  246.09    3.36
  -1   2  12  243.40    3.29
   1  -2 -12  243.50    3.07
  -1   2  12  239.58    6.87
   1  -2 -12  241.03    3.14
   1  -2 -12  243.89    3.38
  -1   2  12  241.70    3.19
  -1   2  11    1.73    0.48
   1  -2 -11    1.74    0.39
  -1   2  11    1.15    0.66
  -1   2  11    0.53    0.67
   1  -2 -11    1.55    0.40
   1  -2 -11    1.52    0.38
   1  -2 -11    1.58    0.36
  -1   2  11    1.71    0.39
  -1   2  10  285.60    5.40
   1  -2 -10  284.74    6.43
  -1   2  10  280.58    3.15
   1  -2 -10  280.67    2.95
  -1   2  10  279.71    5.87
  -1   2   9  340.84    5.77
  -1   2   9  335.44    3.23
   1  -2  -9  333.47    3.01
  -1   2   9  335.57    6.02
   1  -2  -9  337.08    6.49
  -1   2   8 2230.69   13.87
  -1   2   8 2220.63   14.15
   1  -2  -8 2216.16   15.28
   1  -2  -8 2192.00    7.22
  -1   2   8 2185.21    7.82
  -1   2   8 2243.47   14.44
  -1   2   7   54.39    2.08
   1  -2  -7   56.65    1.71
   1  -2  -7   53.57    2.23
  -1   2   6  487.96    6.23
  -1   2   6  480.07    5.64
   1  -2  -6  482.12    5.11
   1  -2  -6  478.87    5.95
  -1   2   6  470.21    5.39
  -1   2   5 1460.71    9.66
   1  -2  -5 1443.40    8.80
  -1   2   5 1434.78    9.11
  -1   2   5 1431.62    8.67
  -1   2   5 1428.73    7.47
   1  -2  -4   15.95    0.95
  -1   2   4   16.61    0.90
  -1   2   4   16.83    0.97
   1  -2  -4   15.89    0.88
  -1   2   4   16.20    0.78
  -1   2   4   17.32    0.94
   1  -2  -3   32.65    1.32
  -1   2   3   33.07    1.19
  -1   2   3   33.11    1.12
  -1   2   3   30.50    1.21
  -1   2   3   35.00    1.11
  -1   2   2 2001.41    8.66
   1  -2  -2 1973.57    9.94
  -1   2   1 3705.06   11.30
  -1   2   1 3739.75   12.15
  -1   2   0 2047.26    8.78
  -1   2   0 2039.89    7.86
   1  -2   0 2049.45   10.31
   1  -2   1  670.07    4.99
  -1   2  -1  672.69    5.30
  -1   2  -1  681.68    4.74
   1  -2   1  681.16    5.98
  -1   2  -1  688.43    4.50
   1  -2   2  357.13    4.41
  -1   2  -2  370.19    4.06
   1  -2   2  362.33    4.03
  -1   2  -2  368.66    3.65
  -1   2  -2  371.17    3.58
   1  -2   2  367.06    4.28
   1  -2   2  362.85    5.08
  -1   2  -3 2584.57   11.18
   1  -2   3 2565.06   11.93
  -1   2  -3 2607.18   10.24
   1  -2   3 2591.64   12.05
  -1   2  -3 2575.99   10.19
   1  -2   3 2602.48   11.45
   1  -2   3 2615.67    7.20
   1  -2   3 2581.46   14.31
   1  -2   4  281.90    4.42
   1  -2   4  288.37    4.06
   1  -2   4  274.80    5.14
  -1   2  -4  287.61    4.95
  -1   2  -4  289.44    3.53
  -1   2  -4  276.41    3.82
   1  -2   4  278.93    2.56
   1  -2   4  285.98    3.97
  -1   2  -4  278.97    3.60
   1  -2   4  282.57    5.09
   1  -2   5  342.08    5.38
   1  -2   5  336.73    6.04
  -1   2  -5  344.84    4.38
   1  -2   5  352.24    4.42
   1  -2   5  325.11    3.04
   1  -2   5  337.81    4.62
   1  -2   5  338.46    5.92
  -1   2  -5  333.95    4.21
   1  -2   6   59.45    2.51
  -1   2  -6   63.33    1.93
   1  -2   6   60.48    2.78
   1  -2   6   63.56    2.80
  -1   2  -6   65.67    1.97
   1  -2   6   67.23    1.51
   1  -2   7  321.21    6.78
   1  -2   7  330.08    6.42
  -1   2  -7  334.18    4.54
  -1   2  -7  331.39    6.33
   1  -2   7  341.88    3.53
  -1   2  -7  331.06    2.59
   1  -2   7  328.30    6.80
  -1   2  -7  336.97    4.65
   1  -2   8   15.33    1.61
   1  -2   8   16.08    1.76
  -1   2  -8   15.66    1.54
   1  -2   8   13.91    1.61
  -1   2  -8   13.57    1.11
   1  -2   8   18.12    0.93
  -1   2  -9    0.32    0.86
   1  -2   9    0.48    0.81
   1  -2   9    1.08    0.86
   1  -2   9    0.18    0.45
   1  -2   9    0.32    0.41
  -1   2  -9    0.69    0.28
  -1   2  -9    1.22    0.30
   1  -2  10  353.23    4.29
   1  -2  10  351.13    8.40
  -1   2 -10  359.05    5.46
  -1   2 -10  357.48    7.80
   1  -2  10  350.82    8.41
  -1   2 -10  345.55    3.02
   1  -2  10  351.71    3.94
  -1   2 -10  349.88    3.39
  -1   2 -10  349.14    3.27
   1  -2  10  346.23    4.07
   1  -2  10  350.60    4.17
   1  -2  11  741.62    6.39
   1  -2  11  744.62   12.67
   1  -2  11  736.07   12.64
  -1   2 -11  750.40   11.57
   1  -2  11  761.28    5.96
  -1   2 -11  753.42    4.67
   1  -2  11  742.97    6.26
  -1   2 -11  747.09    5.19
  -1   2 -11  755.60    5.08
   1  -2  11  749.18    6.22
   1  -2  12  495.33    5.28
   1  -2  12  501.25   10.49
   1  -2  12  506.80   10.68
  -1   2 -12  500.06    3.85
   1  -2  12  505.80    4.85
   1  -2  12  506.87    5.12
  -1   2 -12  507.30    4.33
   1  -2  12  491.73    5.07
   1  -2  13   87.30    2.19
   1  -2  13   81.98    4.19
  -1   2 -13   89.36    1.64
   1  -2  13   89.52    1.96
  -1   2 -13   90.40    1.82
   1  -2  13   87.30    2.10
   1  -2  13   87.98    2.09
  -1   2 -14    1.14    0.38
   1  -2  14    1.27    0.41
  -1   2 -14    1.20    0.29
   1  -2  14    1.13    0.38
  -1   2 -14    1.25    0.36
   1  -2  14    1.88    0.53
   1  -2  14    1.19    0.39
  -1   2 -14    1.83    0.44
  -1   2 -15   39.68    1.09
  -1   2 -15   39.54    0.93
  -1   2 -15   40.45    1.07
   1  -2  15   38.81    1.15
  -1   2 -15   38.73    1.08
   1  -2  15   38.36    1.11
   1  -2  15   39.99    1.31
  -1   2 -16    1.97    0.27
   1  -2  16    1.84    0.34
   1  -2  16    1.47    0.23
   1  -2  16    1.59    0.25
  -1   2 -16    1.70    0.29
   1  -1 -18    0.69    0.18
  -1   1  18    0.77    0.20
   1  -1 -17    3.07    0.37
  -1   1  17    2.14    0.28
  -1   1  17    2.36    0.37
   1  -1 -17    2.45    0.29
   1  -1 -16   20.47    0.87
   1  -1 -16   21.18    0.90
  -1   1  16   19.44    0.93
   1  -1 -16   20.00    0.85
  -1   1  15  104.26    2.21
   1  -1 -15   96.84    1.98
  -1   1  15  101.96    1.77
   1  -1 -15  103.31    2.05
  -1   1  15  100.58    1.95
   1  -1 -15  100.91    2.03
  -1   1  15  102.43    2.15
   1  -1 -14  297.65    3.55
  -1   1  14  300.34    3.84
  -1   1  14  298.97    3.21
   1  -1 -14  306.20    3.65
   1  -1 -14  310.62    3.77
  -1   1  14  295.27    3.72
   1  -1 -14  301.10    3.74
  -1   1  13   13.17    0.89
  -1   1  13   14.25    0.75
   1  -1 -13   13.12    0.82
   1  -1 -13   14.09    0.86
   1  -1 -13   13.33    0.88
  -1   1  13   15.99    0.96
   1  -1 -13   14.01    0.91
   1  -1 -12  123.96    2.24
   1  -1 -12  124.89    1.98
  -1   1  12  122.29    2.38
  -1   1  12  125.15    2.08
  -1   1  12  124.24    4.03
   1  -1 -12  117.67    2.38
   1  -1 -12  120.30    2.28
   1  -1 -12  122.20    2.44
  -1   1  12  120.82    2.26
  -1   1  11  161.27    2.58
  -1   1  11  166.03    2.31
   1  -1 -11  163.89    2.45
   1  -1 -11  159.99    2.47
   1  -1 -11  163.85    2.64
  -1   1  11  160.04    2.45
  -1   1  10    0.73    0.36
  -1   1  10    0.73    0.58
   1  -1 -10    0.85    0.36
  -1   1   9   29.52    1.70
  -1   1   9   30.98    1.01
  -1   1   9   31.61    1.90
   1  -1  -8   36.84    0.97
  -1   1   8   36.61    1.01
  -1   1   8   38.29    1.93
  -1   1   7 1546.17   10.40
  -1   1   7 1577.51   11.02
   1  -1  -7 1551.05    5.64
  -1   1   7 1557.39    5.83
  -1   1   7 1568.07   11.14
  -1   1   6  528.26    5.59
  -1   1   6  522.29    6.10
   1  -1  -6  547.23    4.43
   1  -1  -6  522.21    6.38
   1  -1  -6  548.57    3.12
  -1   1   6  520.15    6.03
   1  -1  -5  893.44    5.94
  -1   1   5  883.41    6.69
  -1   1   5  892.10    6.14
  -1   1   4   56.56    1.39
   1  -1  -4   55.27    1.52
  -1   1   4   55.38    1.59
   1  -1  -4   57.08    1.68
  -1   1   4   56.03    1.44
  -1   1   3 1047.30    5.89
   1  -1  -3 1048.79    6.50
  -1   1   3 1053.81    5.28
  -1   1   3 1068.02    3.58
   1  -1  -3 1070.79    6.20
   1  -1  -2 1981.76    7.53
  -1   1   2 1975.27    6.58
  -1   1   2 1944.44    6.68
  -1   1   2 1990.89    5.98
   1  -1  -2 1960.75    8.76
  -1   1   1 4179.78   10.55
  -1   1   1 4157.28   10.29
   1  -1  -1 4169.53   12.67
   1  -1   0  789.49    5.51
  -1   1   0  772.48    4.70
  -1   1  -1 3067.07    7.67
   1  -1   1 3052.19   10.86
  -1   1  -1 3068.09    7.73
   1  -1   1 3038.15    9.31
   1  -1   2  232.53    2.48
  -1   1  -2  229.52    2.23
   1  -1   2  227.43    3.48
   1  -1   2  223.53    3.01
  -1   1  -2  222.99    3.26
   1  -1   2  237.23    3.34
   1  -1   3 1230.57    7.05
  -1   1  -3 1231.24    6.69
   1  -1   3 1243.78    8.60
  -1   1  -3 1216.68    8.24
   1  -1   3 1240.05    7.12
  -1   1  -3 1236.59    6.19
   1  -1   3 1253.38    8.18
   1  -1   4  779.47    6.54
   1  -1   4  777.23    7.55
   1  -1   4  777.49    5.69
  -1   1  -4  786.11    5.57
   1  -1   4  769.32    6.99
  -1   1  -4  790.01    5.45
  -1   1  -4  792.24    5.83
   1  -1   5  970.30    9.26
   1  -1   5  969.43    8.26
  -1   1  -5  978.10    6.35
   1  -1   5  975.60    6.28
   1  -1   5  990.38    4.53
  -1   1  -5  960.66    7.05
  -1   1  -5  964.78    6.88
   1  -1   6 2065.81   14.65
  -1   1  -6 2039.76   13.34
   1  -1   6 2031.28   13.29
  -1   1  -6 2042.09    9.31
  -1   1  -6 2085.04   11.68
  -1   1  -6 2006.66   10.42
  -1   1  -6 2038.66    5.40
   1  -1   6 2020.34    7.20
  -1   1  -7  130.51    3.68
   1  -1   7  126.25    4.02
   1  -1   7  123.67    3.66
  -1   1  -7  128.93    2.40
  -1   1  -7  122.82    2.71
   1  -1   7  120.83    1.97
   1  -1   8   60.21    2.99
  -1   1  -8   63.61    2.80
   1  -1   8   69.32    1.59
  -1   1  -8   65.13    1.14
  -1   1  -8   63.57    2.04
  -1   1  -9   -0.46    0.71
   1  -1   9    0.33    0.81
  -1   1  -9    0.19    0.42
  -1   1  -9    0.09    0.24
   1  -1   9    0.27    0.36
   1  -1  10 1375.23   16.07
  -1   1 -10 1356.88   14.70
   1  -1  10 1409.73   15.65
   1  -1  10 1339.43    7.90
  -1   1 -10 1381.19    6.12
  -1   1 -10 1344.73   10.21
   1  -1  10 1377.34    7.99
  -1   1 -10 1382.00    6.00
   1  -1  10 1379.05    7.92
   1  -1  11    4.68    1.11
   1  -1  11    4.67    0.63
  -1   1 -11    3.52    1.01
   1  -1  11    5.02    1.29
  -1   1 -11    4.38    0.46
   1  -1  11    4.11    0.62
   1  -1  11    4.50    0.55
  -1   1 -11    4.62    0.47
   1  -1  12   49.95    3.25
   1  -1  12   54.88    1.77
  -1   1 -12   54.07    1.33
  -1   1 -12   58.95    3.29
   1  -1  12   54.21    3.59
  -1   1 -12   56.54    1.26
  -1   1 -12   56.77    1.45
   1  -1  12   55.33    1.78
  -1   1 -12   54.72    1.38
  -1   1 -12   54.61    1.42
   1  -1  12   56.03    1.69
   1  -1  13  369.34    4.52
   1  -1  13  366.54    8.69
  -1   1 -13  374.12    3.52
   1  -1  13  367.58    9.07
  -1   1 -13  364.99    3.65
  -1   1 -13  370.48    3.19
  -1   1 -13  362.98    3.61
  -1   1 -13  364.47    3.59
   1  -1  13  366.89    4.47
   1  -1  13  367.74    4.22
   1  -1  14    5.41    0.63
  -1   1 -14    6.45    0.50
  -1   1 -14    5.52    0.44
  -1   1 -14    5.09    0.51
   1  -1  14    5.13    0.68
   1  -1  14    5.64    0.60
  -1   1 -14    5.60    0.53
   1  -1  15    1.59    0.38
  -1   1 -15    1.80    0.33
  -1   1 -15    1.66    0.26
  -1   1 -15    2.09    0.36
   1  -1  15    2.19    0.41
  -1   1 -16  104.46    1.66
  -1   1 -16  104.08    1.48
  -1   1 -16  104.19    1.56
   1  -1  16  101.96    1.68
   1  -1  16  102.00    1.93
  -1   1 -16  106.89    1.67
   1  -1  16  101.88    1.79
  -1   1 -17   63.73    1.10
  -1   1 -17   59.61    1.07
   1  -1  17   61.39    1.24
   1  -1  17   60.04    1.03
  -1   0  17   21.99    0.69
   1   0 -17   22.08    0.73
   1   0 -17   22.25    0.60
  -1   0  17   23.55    0.81
  -1   0  16    1.80    0.36
   1   0 -16    1.53    0.38
   1   0 -16    2.74    0.32
  -1   0  16    1.49    0.42
  -1   0  16    1.58    0.42
   1   0 -16    1.63    0.31
  -1   0  15   93.13    2.05
   1   0 -15   92.18    1.90
   1   0 -15   94.25    1.71
   1   0 -15   92.25    1.92
  -1   0  15   92.29    2.02
   1   0 -15   94.82    1.72
   1   0 -15   92.12    1.85
   1   0 -14   21.51    1.00
   1   0 -14   19.26    0.87
  -1   0  14   19.85    0.88
   1   0 -14   19.57    1.00
  -1   0  14   19.60    1.05
   1   0 -14   20.32    1.00
   1   0 -14   20.40    0.91
   1   0 -13  102.58    2.12
   1   0 -13  102.56    1.97
  -1   0  13  101.08    1.98
  -1   0  13  100.46    2.26
   1   0 -13  101.17    2.15
   1   0 -13  103.16    1.98
  -1   0  13   99.61    2.23
   1   0 -13  102.61    2.21
  -1   0  12  556.30    4.48
  -1   0  12  558.52    5.14
   1   0 -12  564.99    4.83
   1   0 -12  560.53    4.48
   1   0 -12  558.20    4.95
   1   0 -12  553.63    5.08
   1   0 -12  557.36    4.49
   1   0 -12  561.04    5.14
  -1   0  12  553.17    5.04
  -1   0  11 1734.89    8.71
   1   0 -11 1772.99    8.23
   1   0 -11 1749.54    7.58
  -1   0  11 1760.22    7.69
  -1   0  11 1754.69   14.96
   1   0 -11 1745.33   15.65
   1   0 -11 1761.82    8.37
   1   0 -11 1742.38    8.60
   1   0 -11 1750.22    7.58
   1   0 -11 1751.23    8.81
  -1   0  10 1049.26   10.92
  -1   0  10 1043.41   11.29
  -1   0  10 1079.93   10.77
   1   0 -10 1038.20   11.45
  -1   0  10 1046.05    6.29
   1   0 -10 1048.68    5.95
  -1   0  10 1045.48    5.61
  -1   0   9    3.83    0.72
   1   0  -9    3.58    0.81
  -1   0   9    3.87    0.44
   1   0  -9    3.87    0.43
   1   0  -8  528.34    7.15
  -1   0   8  533.95    7.27
  -1   0   8  540.23    3.83
  -1   0   8  536.28    7.18
   1   0  -8  522.63    3.74
   1   0  -7  496.23    6.34
  -1   0   7  491.02    6.15
  -1   0   7  503.07    3.34
  -1   0   7  490.67    6.36
   1   0  -7  492.72    3.33
   1   0  -6   17.85    1.13
  -1   0   6   19.82    1.33
  -1   0   6   18.84    1.17
  -1   0   6   18.44    0.59
  -1   0   6   18.65    1.19
   1   0  -6   18.31    0.61
   1   0  -5   57.31    1.77
  -1   0   5   70.35    2.09
  -1   0   5   63.91    2.08
  -1   0   5   57.87    1.66
   1   0  -5   61.36    1.20
   1   0  -5   65.33    1.02
  -1   0   5   69.60    2.01
   1   0  -4  500.80    4.51
  -1   0   4  500.60    5.11
  -1   0   4  497.95    4.36
   1   0  -4  494.01    3.80
  -1   0   4  488.84    5.11
   1   0  -4  497.93    3.93
   1   0  -3  296.58    3.12
   1   0  -3  301.42    3.05
  -1   0   3  300.67    2.55
  -1   0   3  296.16    3.40
   1   0  -3  291.23    2.92
  -1   0   3  302.27    3.02
   1   0  -2  318.00    3.19
  -1   0   2  320.61    2.66
  -1   0   2  313.85    2.43
  -1   0   2  320.09    2.92
   1   0  -2  320.42    3.25
   1   0  -1 2710.13    9.40
   1   0  -1 2698.72    9.26
   1   0   0 3774.79   11.08
   1   0   1 1258.71    6.39
   1   0   1 1249.00    6.27
  -1   0  -1 1258.67    5.34
  -1   0  -2  547.60    2.89
  -1   0  -2  528.52    3.75
  -1   0  -2  522.97    3.91
   1   0   2  534.61    4.12
   1   0   2  538.45    4.20
   1   0   2  543.53    4.44
   1   0   3   61.84    1.46
  -1   0  -3   62.78    1.62
   1   0   3   68.56    1.79
   1   0   3   62.07    1.41
  -1   0  -3   64.17    1.50
  -1   0  -3   65.27    1.48
   1   0   3   71.11    1.56
  -1   0  -4 1699.32    9.39
   1   0   4 1683.18    7.36
  -1   0  -4 1691.41    7.89
  -1   0  -4 1699.64    8.42
  -1   0  -5 1277.45    6.84
   1   0   5 1271.36    5.46
  -1   0  -5 1257.88    8.97
  -1   0  -6   57.80    2.14
  -1   0  -6   61.76    1.92
   1   0   6   57.96    1.10
  -1   0  -6   52.48    1.87
  -1   0  -6   56.14    0.83
  -1   0  -7    3.73    0.63
  -1   0  -7    3.79    0.75
  -1   0  -7    4.11    0.47
  -1   0  -7    3.62    0.64
  -1   0  -7    4.26    0.30
   1   0   7    3.84    0.37
  -1   0  -7    3.73    0.57
  -1   0  -8  379.83    3.97
  -1   0  -8  370.09    6.29
  -1   0  -8  375.57    5.63
   1   0   8  361.73    3.33
  -1   0  -8  363.61    5.90
  -1   0  -8  376.29    4.75
  -1   0  -8  355.85    2.58
  -1   0  -9   67.77    2.95
   1   0   9   70.38    1.61
  -1   0  -9   69.99    2.11
  -1   0  -9   68.09    1.25
  -1   0  -9   72.76    2.81
  -1   0  -9   72.12    1.22
  -1   0 -10   25.50    1.98
  -1   0 -10   23.29    1.28
  -1   0 -10   25.50    1.87
  -1   0 -10   24.20    0.79
   1   0  10   24.35    1.08
   1   0  11   10.22    1.61
  -1   0 -11    9.44    1.38
  -1   0 -11    9.92    0.59
  -1   0 -11   10.02    0.91
  -1   0 -11   10.47    0.57
   1   0  11   10.37    0.76
   1   0  11   10.03    0.79
   1   0  11   10.39    0.72
   1   0  12  357.21    8.72
  -1   0 -12  352.60    7.84
  -1   0 -12  355.07    3.36
   1   0  12  356.90    4.29
   1   0  12  346.11    3.84
   1   0  12  348.95    4.35
  -1   0 -12  347.31    3.31
   1   0  13  265.83    7.10
   1   0  13  258.15    3.75
   1   0  13  262.42    7.68
  -1   0 -13  267.59    2.58
  -1   0 -13  258.63    3.17
   1   0  13  263.99    3.81
  -1   0 -13  261.04    2.97
   1   0  13  261.29    3.84
   1   0  14   42.74    1.53
  -1   0 -14   40.66    1.21
   1   0  14   44.05    3.18
  -1   0 -14   42.20    1.02
  -1   0 -14   41.18    1.31
  -1   0 -14   40.73    1.22
   1   0  14   43.04    1.59
   1   0  14   41.53    1.39
  -1   0 -14   40.65    1.21
  -1   0 -15   42.66    1.20
   1   0  15   42.02    1.47
  -1   0 -15   42.63    1.25
   1   0  15   42.83    1.51
  -1   0 -15   39.99    1.15
   1   0  15   39.64    1.27
   1   0  16   21.88    1.00
  -1   0 -16   22.41    0.84
  -1   0 -16   22.61    0.78
   1   0  16   22.27    0.86
   1   0  16   22.93    1.01
  -1   0 -17   32.82    0.87
  -1   0 -17   30.29    0.81
  -1   0 -17   32.46    0.75
  -1   0 -17   31.54    0.86
   1   0  17   31.33    0.96
   1   0  17   31.23    1.01
   1   0  18    1.86    0.23
  -1   0 -18    1.97    0.20
  -1  -1  17    4.06    0.29
   1   1 -17    3.70    0.31
  -1  -1  17    4.39    0.35
   1   1 -16  170.81    2.15
  -1  -1  16  167.31    2.17
   1   1 -16  172.00    1.99
   1   1 -16  172.44    1.88
  -1  -1  16  170.15    2.34
   1   1 -15   41.18    1.16
  -1  -1  15   42.02    1.33
  -1  -1  15   41.12    1.26
   1   1 -15   39.94    1.22
  -1  -1  15   40.43    1.35
   1   1 -15   39.42    1.12
   1   1 -15   40.60    1.16
   1   1 -14   11.53    0.71
  -1  -1  14   12.47    0.67
  -1  -1  14   11.79    0.80
   1   1 -14   11.98    0.76
  -1  -1  14   12.26    0.82
   1   1 -14   11.57    0.79
  -1  -1  14   11.89    0.83
   1   1 -14   11.62    0.73
   1   1 -14   11.82    0.74
   1   1 -13    2.57    0.46
   1   1 -13    2.66    0.47
   1   1 -13    2.82    0.55
   1   1 -13    2.85    0.50
  -1  -1  13    2.73    0.55
   1   1 -13    2.91    0.47
   1   1 -12 1356.71    7.49
  -1  -1  12 1372.51    7.39
   1   1 -12 1370.27    7.87
  -1  -1  12 1372.30    8.20
   1   1 -12 1379.82    7.55
   1   1 -12 1381.24    7.95
  -1  -1  11  127.19    2.44
   1   1 -11  123.15    2.25
   1   1 -11  122.74    2.20
  -1  -1  11  125.59    2.18
  -1  -1  11  120.15    3.96
   1   1 -11  123.54    2.32
   1   1 -11  122.13    2.18
   1   1 -11  124.21    2.38
  -1  -1  11  122.09    2.36
  -1  -1  10  862.84    5.94
   1   1 -10  865.15    5.61
   1   1 -10  841.96    5.47
  -1  -1  10  868.34    5.41
  -1  -1  10  839.82   10.27
   1   1 -10  857.99    5.76
  -1  -1  10  865.99    5.82
   1   1 -10  864.44    5.45
   1   1 -10  869.29    5.98
  -1  -1   9  199.73    4.53
  -1  -1   9  199.04    5.63
   1   1  -9  205.88    4.71
  -1  -1   9  198.91    4.82
  -1  -1   9  199.29    4.65
  -1  -1   9  201.97    2.70
   1   1  -9  199.17    2.47
   1   1  -9  201.75    2.57
  -1  -1   9  201.87    2.46
  -1  -1   8  274.40    6.13
  -1  -1   8  265.15    5.29
  -1  -1   8  268.74    5.00
  -1  -1   8  262.93    5.11
   1   1  -8  264.56    4.98
  -1  -1   8  261.29    2.85
   1   1  -8  260.60    2.73
  -1  -1   8  260.67    2.63
  -1  -1   7   27.30    1.60
  -1  -1   7   27.57    1.66
  -1  -1   7   25.87    1.55
  -1  -1   7   24.64    1.79
   1   1  -7   24.75    1.43
  -1  -1   7   25.05    0.83
   1   1  -7   27.12    0.86
  -1  -1   7   24.36    0.77
   1   1  -6  643.31    6.46
  -1  -1   6  652.34    7.86
  -1  -1   6  624.47    7.14
  -1  -1   6  657.54    7.14
  -1  -1   6  649.93    3.65
   1   1  -6  630.22    3.66
   1   1  -5 2253.20    8.57
   1   1  -5 2178.05   10.67
  -1  -1   5 2227.38   13.19
  -1  -1   5 2200.01   12.43
  -1  -1   5 2234.28   12.54
  -1  -1   5 2228.20    6.02
  -1  -1   5 2239.11   11.81
   1   1  -5 2233.59    6.30
   1   1  -4    3.08    0.40
  -1  -1   4    3.19    0.58
  -1  -1   4    3.78    0.53
  -1  -1   4    4.85    0.64
  -1  -1   4    4.04    0.52
   1   1  -4    4.29    0.29
   1   1  -3    6.93    0.47
  -1  -1   3    6.53    0.65
   1   1  -3    6.19    0.51
   1   1  -3    5.80    0.52
  -1  -1   3    5.65    0.63
  -1  -1   3    8.50    0.66
  -1  -1   3    9.70    0.66
  -1  -1   2  601.01    5.02
   1   1  -2  606.20    4.75
  -1  -1   2  605.74    2.00
   1   1  -2  597.42    4.64
  -1  -1   2  613.21    3.34
   1   1  -2  612.55    3.07
  -1  -1   2  599.12    4.71
   1   1  -1  382.50    3.75
   1   1  -1  393.93    3.77
   1   1   1   33.99    1.17
  -1  -1  -1   33.97    1.03
  -1  -1  -1   32.85    0.87
  -1  -1  -1   31.54    0.85
  -1  -1  -1   34.36    0.70
  -1  -1  -3  237.81    3.10
  -1  -1  -3  239.63    2.91
   1   1   3  236.08    2.99
   1   1   3  241.55    3.04
  -1  -1  -4 1199.64    7.48
   1   1   4 1202.23    6.75
  -1  -1  -4 1213.43    7.51
   1   1   5   70.42    1.61
   1   1   5   74.82    1.68
  -1  -1  -5   71.87    1.68
  -1  -1  -5   69.37    1.98
  -1  -1  -5   71.16    2.07
   1   1   6   66.81    1.45
  -1  -1  -6   68.14    1.62
  -1  -1  -6   61.04    2.00
  -1  -1  -6   63.09    2.15
  -1  -1  -6   65.78    0.93
  -1  -1  -7  733.18    7.87
  -1  -1  -7  732.29    7.19
   1   1   7  732.69    4.00
  -1  -1  -7  728.82    3.31
  -1  -1  -7  744.44    3.43
  -1  -1  -8 2245.14   15.03
  -1  -1  -8 2253.64   13.62
   1   1   8 2219.70    7.75
  -1  -1  -8 2203.27    6.37
  -1  -1  -9    7.78    1.01
  -1  -1  -9    9.68    1.21
  -1  -1  -9    9.79    0.86
  -1  -1  -9    9.69    0.50
  -1  -1  -9    9.00    1.09
  -1  -1  -9    9.95    0.48
   1   1   9    9.56    0.62
  -1  -1 -10   44.41    2.53
  -1  -1 -10   48.48    1.74
  -1  -1 -10   45.27    2.44
  -1  -1 -10   47.07    1.06
  -1  -1 -10   46.71    1.07
   1   1  10   46.25    1.35
   1   1  11  340.35    3.84
  -1  -1 -11  340.89    6.99
  -1  -1 -11  340.15    2.98
  -1  -1 -11  328.05    7.23
  -1  -1 -11  344.49    3.28
  -1  -1 -11  332.15    2.91
   1   1  11  338.85    3.79
   1   1  11  337.93    3.80
  -1  -1 -12   12.38    1.56
   1   1  12    9.20    1.51
  -1  -1 -12   11.85    1.51
   1   1  12   10.46    0.79
  -1  -1 -12   11.88    0.65
   1   1  12   11.14    0.88
   1   1  12   11.83    0.81
  -1  -1 -12   11.37    0.63
   1   1  12    9.45    0.74
   1   1  13  172.81    6.10
  -1  -1 -13  178.29    5.70
   1   1  13  172.53    6.26
  -1  -1 -13  181.06    2.40
  -1  -1 -13  172.61    2.36
   1   1  13  179.04    3.04
   1   1  13  170.25    3.10
   1   1  13  173.43    2.84
   1   1  14    4.15    1.03
   1   1  14    5.91    0.67
   1   1  14    5.82    0.66
   1   1  14    5.32    0.73
   1   1  14    5.15    0.54
  -1  -1 -14    5.18    0.51
   1   1  15   62.32    1.78
  -1  -1 -15   60.50    1.46
  -1  -1 -15   64.02    1.57
  -1  -1 -15   63.46    1.43
   1   1  15   60.78    1.83
   1   1  15   61.26    1.56
  -1  -1 -15   63.39    1.39
  -1  -1 -16   36.48    1.09
   1   1  16   35.38    1.28
  -1  -1 -16   36.63    1.12
  -1  -1 -16   35.46    0.94
   1   1  16   36.92    1.34
  -1  -1 -17   57.87    1.17
  -1  -1 -17   56.48    1.21
  -1  -1 -17   57.10    0.99
  -1  -1 -17   57.64    1.16
   1   1  17   58.86    1.44
  -1  -1 -18   32.66    0.75
  -1  -1 -18   33.63    0.72
   1   1  18   30.68    0.79
   1   1  18   32.48    0.87
  -1  -2  16  185.86    2.04
   1   2 -16  184.39    1.88
  -1  -2  16  189.13    2.17
  -1  -2  16  180.94    1.99
  -1  -2  15   83.46    1.67
   1   2 -15   86.73    1.59
   1   2 -15   85.05    1.58
  -1  -2  15   86.34    1.77
   1   2 -15   84.47    1.41
  -1  -2  14   21.67    0.84
  -1  -2  14   21.23    0.97
   1   2 -14   22.80    0.95
  -1  -2  14   23.48    1.03
   1   2 -14   24.65    0.99
   1   2 -14   22.73    0.89
   1   2 -14   23.33    0.97
  -1  -2  14   23.01    1.08
  -1  -2  13  124.95    2.43
   1   2 -13  126.04    2.28
  -1  -2  13  125.53    2.16
  -1  -2  13  135.38    2.51
   1   2 -13  129.84    2.34
   1   2 -13  128.27    2.25
   1   2 -13  128.56    2.31
  -1  -2  13  128.90    2.56
  -1  -2  12  341.75    4.09
  -1  -2  12  348.42    3.70
   1   2 -12  357.29    3.90
   1   2 -12  351.35    3.91
  -1  -2  12  345.28    4.08
   1   2 -12  347.06    3.94
  -1  -2  12  347.07    4.14
   1   2 -12  355.45    3.93
   1   2 -12  357.23    3.93
  -1  -2  11  289.48    6.26
  -1  -2  11  293.09    3.76
   1   2 -11  291.18    3.50
   1   2 -11  284.91    3.53
  -1  -2  11  280.00    3.40
   1   2 -11  287.03    3.61
  -1  -2  11  284.87    3.72
   1   2 -11  296.61    3.65
   1   2 -11  287.20    3.54
  -1  -2  10  163.19    4.72
   1   2 -10  167.25    2.59
   1   2 -10  168.84    2.64
  -1  -2  10  171.23    2.60
  -1  -2  10  171.71    5.81
   1   2 -10  165.93    2.67
  -1  -2  10  171.17    2.75
   1   2 -10  171.03    2.62
   1   2 -10  171.55    2.43
   1   2 -10  165.75    2.71
  -1  -2   9   10.45    1.25
   1   2  -9    9.42    0.67
   1   2  -9    9.89    0.68
  -1  -2   9    9.98    0.67
  -1  -2   9   10.88    1.49
   1   2  -9   10.24    0.68
  -1  -2   9    9.63    0.67
   1   2  -9    9.87    0.64
   1   2  -9   11.96    0.73
   1   2  -8    0.03    0.51
  -1  -2   8    0.65    0.82
  -1  -2   8    0.41    0.53
  -1  -2   8   -0.30    0.32
   1   2  -8    1.18    0.33
   1   2  -8    0.05    0.29
  -1  -2   8    0.57    0.31
  -1  -2   7  142.73    3.60
  -1  -2   7  136.59    4.28
   1   2  -7  139.34    3.42
  -1  -2   7  140.77    3.83
  -1  -2   7  136.89    2.05
   1   2  -7  141.30    1.98
   1   2  -7  131.23    1.97
  -1  -2   7  132.57    1.92
   1   2  -6   81.78    2.43
  -1  -2   6   79.43    3.05
  -1  -2   6   84.67    2.67
  -1  -2   6   85.80    2.83
  -1  -2   6   79.48    1.44
   1   2  -6   77.76    1.43
  -1  -2   6   77.47    1.36
   1   2  -5  567.00    5.79
  -1  -2   5  576.33    6.80
  -1  -2   5  574.79    6.56
   1   2  -5  564.11    4.97
  -1  -2   5  563.77    7.38
   1   2  -5  583.85    5.29
  -1  -2   5  563.19    3.38
  -1  -2   5  560.89    3.31
   1   2  -5  554.04    3.47
  -1  -2   4    2.35    0.54
   1   2  -4    3.32    0.44
   1   2  -4    3.06    0.43
  -1  -2   4    1.72    0.54
  -1  -2   4    0.92    0.45
  -1  -2   4    2.07    0.23
   1   2  -4    2.30    0.26
   1   2  -3  135.80    2.26
   1   2  -3  136.06    2.51
  -1  -2   3  132.43    2.83
  -1  -2   3  136.33    3.13
  -1  -2   3  131.05    2.90
   1   2  -3  137.99    1.50
   1   2  -2 1086.34    7.08
  -1  -2   2 1098.86    7.53
  -1  -2   2 1093.63    7.61
  -1  -2   1   88.99    2.00
   1   2  -1   88.29    2.04
  -1  -2   1   91.43    2.03
   1   2  -1   89.50    1.46
  -1  -2   0   85.13    1.79
   1   2   0   92.10    2.08
  -1  -2   0   88.98    2.00
   1   2   0   88.22    2.08
   1   2   1  205.70    3.15
  -1  -2  -1  201.91    2.86
  -1  -2  -1  199.34    2.89
  -1  -2  -1  199.15    2.51
  -1  -2  -3 3261.73   11.74
  -1  -2  -3 3241.62   12.71
  -1  -2  -4  317.65    3.98
   1   2   4  309.13    4.40
   1   2   4  330.06    4.03
  -1  -2  -4  303.13    3.56
  -1  -2  -4  321.95    4.23
  -1  -2  -4  316.68    4.17
  -1  -2  -5   10.01    0.88
   1   2   5   12.30    1.01
   1   2   5   11.76    0.81
  -1  -2  -5   10.29    0.84
  -1  -2  -5   12.14    0.40
   1   2   6  143.68    2.71
  -1  -2  -6  139.62    3.22
   1   2   6  148.74    2.69
   1   2   6  138.88    3.47
  -1  -2  -6  140.24    3.09
  -1  -2  -6  140.91    1.40
   1   2   7  249.44    3.38
   1   2   7  237.85    4.95
   1   2   7  255.44    3.53
  -1  -2  -7  246.99    4.38
  -1  -2  -7  248.71    4.69
   1   2   7  250.02    2.21
  -1  -2  -7  248.96    2.01
  -1  -2  -8  546.25    7.51
   1   2   8  546.34    7.94
  -1  -2  -8  526.33    6.80
   1   2   8  520.93    3.57
  -1  -2  -8  535.75    3.13
  -1  -2  -8  541.31    3.22
  -1  -2  -9  405.09    6.98
   1   2   9  404.88    7.43
  -1  -2  -9  394.83    6.24
   1   2   9  389.24    3.39
  -1  -2  -9  378.30    2.87
  -1  -2 -10   17.14    1.67
   1   2  10   18.96    1.81
   1   2  10   19.51    0.87
  -1  -2 -10   18.24    1.67
  -1  -2 -10   19.61    0.70
  -1  -2 -10   18.41    0.71
   1   2  11   69.63    1.72
  -1  -2 -11   70.11    1.37
  -1  -2 -11   73.47    3.34
  -1  -2 -11   70.33    1.36
  -1  -2 -11   71.20    3.44
   1   2  11   75.08    3.75
  -1  -2 -11   69.24    3.02
  -1  -2 -11   74.18    1.51
   1   2  11   71.61    1.81
   1   2  11   72.89    1.80
   1   2  12   64.52    1.75
  -1  -2 -12   68.95    3.38
  -1  -2 -12   64.49    1.37
  -1  -2 -12   62.60    3.36
   1   2  12   60.46    3.55
  -1  -2 -12   64.19    1.52
  -1  -2 -12   66.06    1.58
   1   2  12   64.12    1.68
  -1  -2 -12   62.91    1.34
   1   2  12   64.82    1.79
   1   2  13  107.08    2.32
  -1  -2 -13  109.32    1.84
  -1  -2 -13  110.44    4.43
  -1  -2 -13  117.51    4.72
   1   2  13  115.56    5.03
  -1  -2 -13  112.72    2.13
  -1  -2 -13  109.30    2.08
  -1  -2 -13  109.21    1.82
   1   2  13  110.25    2.31
   1   2  13  112.02    2.39
   1   2  14  701.65    5.94
  -1  -2 -14  710.29    4.71
  -1  -2 -14  714.61    5.18
  -1  -2 -14  697.26    4.66
   1   2  14  701.30    5.79
   1   2  14  717.51    5.86
   1   2  14  722.81    6.28
   1   2  15    8.42    0.84
  -1  -2 -15    7.89    0.56
   1   2  15    8.28    0.72
   1   2  15    8.74    0.69
   1   2  16   75.70    1.82
  -1  -2 -16   79.59    1.61
  -1  -2 -16   77.18    1.64
   1   2  16   79.15    1.96
  -1  -2 -16   78.41    1.33
  -1  -2 -17   45.60    1.16
   1   2  17   45.92    1.35
  -1  -2 -18   15.93    0.59
   1   2  18   15.84    0.69
  -1  -2 -18   15.44    0.47
   1   2  18   14.59    0.54
  -1  -3  15  308.16    2.79
   1   3 -15  305.90    2.63
  -1  -3  15  301.88    2.49
  -1  -3  14   89.71    1.54
  -1  -3  14   92.71    1.83
  -1  -3  14   96.64    1.49
   1   3 -14   96.10    1.52
   1   3 -14   97.04    1.75
  -1  -3  14   93.80    1.74
  -1  -3  14   96.50    1.90
  -1  -3  13    5.42    0.49
  -1  -3  13    5.81    0.54
   1   3 -13    5.33    0.56
   1   3 -13    5.24    0.54
  -1  -3  13    4.79    0.61
   1   3 -13    4.55    0.56
  -1  -3  13    5.14    0.64
   1   3 -13    7.32    0.56
  -1  -3  12   22.28    2.15
  -1  -3  12   23.82    1.08
   1   3 -12   23.94    1.08
  -1  -3  12   24.03    1.02
   1   3 -12   25.09    0.93
   1   3 -12   24.36    1.06
  -1  -3  12   24.77    1.16
  -1  -3  12   22.87    1.16
   1   3 -12   24.05    1.09
   1   3 -12   23.63    1.00
  -1  -3  11    9.65    0.73
  -1  -3  11   10.49    0.76
   1   3 -11    6.38    0.66
  -1  -3  11    6.42    0.73
   1   3 -11   10.48    0.76
   1   3 -11    6.83    0.56
   1   3 -11   10.49    0.76
   1   3 -11    6.33    0.67
  -1  -3  11    6.84    0.75
  -1  -3  10   75.00    1.90
  -1  -3  10   71.69    3.24
  -1  -3  10   74.68    1.80
   1   3 -10   75.98    1.84
  -1  -3  10   72.38    3.98
   1   3 -10   72.17    1.65
   1   3 -10   70.31    1.79
  -1  -3  10   72.12    1.92
  -1  -3  10   73.24    1.99
   1   3 -10   76.16    1.85
   1   3 -10   75.07    1.84
  -1  -3   9   36.73    1.31
  -1  -3   9   38.11    1.28
  -1  -3   9   34.18    2.28
   1   3  -9   38.08    1.29
  -1  -3   9   38.98    2.84
   1   3  -9   37.55    1.18
  -1  -3   9   37.87    1.35
   1   3  -9   40.45    1.34
   1   3  -9   38.10    1.29
   1   3  -9   36.98    1.29
  -1  -3   9   38.08    1.31
  -1  -3   9   38.30    1.40
  -1  -3   8   26.30    1.95
  -1  -3   8   23.59    1.02
   1   3  -8   22.02    0.94
   1   3  -8   20.91    0.93
  -1  -3   8   19.92    1.94
   1   3  -8   24.19    0.92
   1   3  -8   21.66    0.96
   1   3  -8   21.12    0.94
   1   3  -8   21.97    0.97
  -1  -3   8   23.54    1.04
  -1  -3   7    0.50    0.72
  -1  -3   7    0.46    0.54
  -1  -3   7    0.67    0.32
   1   3  -7    0.73    0.34
   1   3  -7    0.46    0.30
  -1  -3   7    0.55    0.35
   1   3  -6   27.47    1.54
  -1  -3   6   27.55    2.03
  -1  -3   6   22.92    1.47
   1   3  -6   27.39    0.94
   1   3  -6   28.71    0.96
  -1  -3   6   29.76    1.88
  -1  -3   6   27.87    0.94
   1   3  -5  715.94    7.23
  -1  -3   5  725.40    7.85
  -1  -3   5  723.25    9.39
  -1  -3   5  709.10    4.27
  -1  -3   5  723.49    8.35
  -1  -3   4 1116.99    9.34
  -1  -3   4 1102.59   10.92
   1   3  -4 1134.82    8.40
   1   3  -4 1128.58    8.36
  -1  -3   4 1100.47    4.86
  -1  -3   4 1127.26    9.88
  -1  -3   4 1094.90    4.92
   1   3  -3 2943.63   12.76
  -1  -3   3 2953.89   16.80
   1   3  -3 2981.26   13.26
  -1  -3   3 2897.95   14.48
   1   3  -3 2873.22   14.42
  -1  -3   3 2956.77    7.29
  -1  -3   3 2935.25   14.88
   1   3  -2  494.31    5.45
  -1  -3   2  482.28    5.61
   1   3  -2  479.56    4.89
  -1  -3   2  491.24    5.75
   1   3  -2  500.21    5.93
   1   3  -1  667.06    6.36
  -1  -3   1  654.10    6.28
  -1  -3   1  688.05    6.42
   1   3  -1  678.47    6.80
  -1  -3   0  278.02    3.94
   1   3   0  293.63    4.28
  -1  -3   0  279.92    3.87
   1   3   0  291.13    4.46
   1   3   0  295.62    4.47
  -1  -3   0  286.66    3.25
   1   3   1    5.49    0.74
  -1  -3  -1    4.39    0.53
   1   3   1    6.28    0.75
   1   3   1    6.09    0.72
   1   3   2  701.79    6.75
  -1  -3  -2  693.27    6.81
   1   3   2  707.91    6.82
  -1  -3  -3  648.81    5.59
   1   3   3  637.95    6.78
  -1  -3  -3  645.42    6.61
  -1  -3  -3  640.49    5.45
  -1  -3  -4 7739.41   18.59
  -1  -3  -4 7735.46   23.21
  -1  -3  -4 7745.91   18.96
  -1  -3  -5  148.80    3.31
   1   3   5  154.43    3.35
  -1  -3  -5  153.48    1.43
   1   3   6   13.30    1.00
   1   3   6   12.42    1.22
  -1  -3  -6   12.18    1.05
   1   3   7  663.72    8.72
   1   3   7  657.24    6.65
   1   3   7  658.16    3.56
  -1  -3  -7  646.95    3.41
  -1  -3  -7  654.55    3.61
   1   3   8  559.86    8.53
  -1  -3  -8  557.28    7.29
   1   3   8  546.96    3.57
  -1  -3  -8  547.80    3.52
   1   3   9  340.22    7.11
  -1  -3  -9  339.16    5.97
   1   3   9  334.58    3.06
  -1  -3  -9  330.13    2.70
  -1  -3  -9  331.23    2.72
   1   3  10  112.98    4.43
  -1  -3 -10  113.18    3.66
   1   3  10  115.84    1.96
  -1  -3 -10  115.25    1.67
   1   3  11  267.97    3.19
  -1  -3 -11  269.27    2.62
  -1  -3 -11  275.12    2.63
   1   3  11  273.54    7.31
  -1  -3 -11  273.20    5.95
  -1  -3 -11  277.61    3.16
  -1  -3 -11  278.27    2.94
   1   3  11  282.57    3.53
   1   3  11  274.82    3.51
   1   3  12  990.25    6.53
  -1  -3 -12 1021.33   13.12
  -1  -3 -12  999.26    5.20
  -1  -3 -12  999.01    5.15
   1   3  12 1033.67   14.68
  -1  -3 -12 1007.02   11.97
  -1  -3 -12 1006.53    6.32
  -1  -3 -12 1011.69    5.91
   1   3  12 1023.23    6.35
   1   3  12  992.60    7.06
   1   3  12 1015.59    7.05
   1   3  13  161.63    2.74
  -1  -3 -13  167.34    5.48
  -1  -3 -13  163.58    2.14
   1   3  13  162.93    6.03
  -1  -3 -13  160.81    2.52
  -1  -3 -13  163.83    2.65
   1   3  13  163.86    2.66
  -1  -3 -13  163.02    2.12
   1   3  13  164.18    2.95
   1   3  14    4.34    0.55
  -1  -3 -14    4.29    1.10
  -1  -3 -14    4.25    0.42
  -1  -3 -14    3.88    0.51
   1   3  14    4.76    0.55
   1   3  14    4.88    0.66
  -1  -3 -14    4.77    0.44
   1   3  15  108.11    2.24
  -1  -3 -15  107.85    2.02
   1   3  15  107.91    2.10
   1   3  15  106.54    2.23
  -1  -3 -15  105.80    1.66
   1   3  15  106.03    2.38
  -1  -3 -16  587.20    4.27
   1   3  16  583.07    4.83
  -1  -3 -16  593.66    4.45
  -1  -3 -16  595.32    4.27
  -1  -3 -16  591.32    3.67
   1   3  16  589.44    4.52
   1   3  16  599.68    5.25
   1   3  16  596.18    4.66
  -1  -3 -17    2.08    0.28
  -1  -3 -17    2.34    0.39
   1   3  17    2.23    0.47
   1   3  17    2.18    0.32
  -1  -3 -18   41.78    0.93
   1   3  18   40.08    1.07
   1   4 -14   15.28    0.63
  -1  -4  14   14.82    0.67
  -1  -4  13  169.43    2.19
  -1  -4  13  173.75    2.48
   1   4 -13  175.08    1.94
  -1  -4  13  173.41    2.07
  -1  -4  13  178.01    2.54
   1   4 -13  178.21    2.34
   1   4 -13  176.31    1.99
  -1  -4  13  175.53    2.18
  -1  -4  12   36.21    1.17
  -1  -4  12   35.24    1.12
   1   4 -12   36.00    1.06
  -1  -4  12   34.74    1.28
   1   4 -12   35.61    1.09
   1   4 -12   35.04    1.21
  -1  -4  12   34.55    1.29
  -1  -4  12   35.51    1.15
  -1  -4  11   65.10    1.57
   1   4 -11   63.15    1.68
  -1  -4  11   60.68    1.61
  -1  -4  11   64.36    1.81
   1   4 -11   62.54    1.54
   1   4 -11   64.38    1.58
   1   4 -11   64.17    1.71
  -1  -4  11   61.96    1.81
  -1  -4  11   62.87    1.64
  -1  -4  10    2.01    0.83
   1   4 -10    2.79    0.81
  -1  -4  10    1.16    0.34
   1   4 -10    1.55    0.49
  -1  -4  10    2.04    0.49
   1   4 -10    1.44    0.41
  -1  -4  10    1.53    0.53
   1   4 -10    1.28    0.40
   1   4 -10    1.37    0.48
  -1  -4  10    1.48    0.50
   1   4 -10    2.09    0.46
  -1  -4   9  886.59   13.11
  -1  -4   9  916.49    6.44
  -1  -4   9  902.02    6.32
   1   4  -9  908.72    6.39
  -1  -4   9  896.17    6.75
   1   4  -9  905.87    6.09
   1   4  -9  902.39    6.19
   1   4  -9  899.78    6.39
  -1  -4   9  890.61    6.92
   1   4  -9  901.62    6.25
  -1  -4   8  211.97    6.25
  -1  -4   8  207.67    5.65
  -1  -4   8  215.14    3.04
   1   4  -8  213.66    3.05
  -1  -4   8  215.86    3.05
  -1  -4   8  215.33    6.58
  -1  -4   8  214.24    3.19
   1   4  -8  209.72    2.92
   1   4  -8  210.17    2.36
   1   4  -8  210.84    2.95
  -1  -4   8  215.48    3.31
   1   4  -8  210.76    3.02
   1   4  -8  208.88    3.05
  -1  -4   7   43.36    2.78
  -1  -4   7   46.87    1.39
   1   4  -7   45.82    1.41
  -1  -4   7   44.63    2.58
  -1  -4   7   45.69    1.40
  -1  -4   7   42.26    2.86
   1   4  -7   44.79    1.11
   1   4  -7   45.03    1.35
  -1  -4   7   47.39    1.47
   1   4  -7   45.21    1.35
  -1  -4   7   44.29    1.47
   1   4  -7   44.40    1.38
   1   4  -7   43.28    1.36
  -1  -4   6  821.27    5.55
  -1  -4   6  853.84   10.60
  -1  -4   6  833.11    5.48
   1   4  -6  823.02    5.58
  -1  -4   6  837.33   11.77
   1   4  -6  840.24    5.44
  -1  -4   6  847.51    5.75
   1   4  -6  841.92    5.58
   1   4  -6  838.96    5.57
  -1  -4   5   71.98    2.48
  -1  -4   5   73.70    3.44
  -1  -4   5   69.56    3.03
  -1  -4   5   72.92    1.54
  -1  -4   5   72.59    3.03
   1   4  -5   73.94    2.67
   1   4  -5   72.24    1.57
  -1  -4   5   71.81    1.58
  -1  -4   4  772.41   10.35
   1   4  -4  782.75    8.04
  -1  -4   4  772.42    7.95
   1   4  -4  780.53    8.68
  -1  -4   4  787.37    9.37
  -1  -4   4  780.99    4.64
  -1  -4   4  788.44    9.35
  -1  -4   4  790.66    4.81
   1   4  -4  781.39    4.90
   1   4  -3   64.15    2.23
  -1  -4   3   63.72    2.93
   1   4  -3   68.11    2.41
  -1  -4   3   61.66    2.23
  -1  -4   3   63.89    2.52
  -1  -4   3   70.26    1.37
  -1  -4   3   64.09    2.57
   1   4  -3   62.73    2.55
   1   4  -2  542.87    6.63
   1   4  -2  543.13    6.27
  -1  -4   2  542.51    6.13
  -1  -4   2  531.42    6.62
  -1  -4   2  546.76    7.02
   1   4  -2  523.13    7.23
  -1  -4   1   12.23    0.91
   1   4  -1   11.53    1.08
   1   4  -1   16.11    1.09
   1   4  -1   16.25    1.34
  -1  -4   1   12.59    0.98
  -1  -4   0 1669.48    9.63
  -1  -4   0 1696.88    6.08
   1   4   0 1684.97   12.75
   1   4   0 1676.84   12.76
  -1  -4  -1 1029.13    4.69
   1   4   1 1033.78    9.72
   1   4   1 1034.56    9.92
  -1  -4  -2  451.74    4.98
   1   4   2  442.19    6.37
   1   4   2  431.83    6.23
  -1  -4  -2  434.49    6.25
  -1  -4  -2  442.57    3.03
  -1  -4  -3   41.16    1.48
  -1  -4  -3   41.08    0.94
   1   4   3   41.44    1.94
  -1  -4  -3   38.65    1.74
  -1  -4  -3   37.61    1.91
  -1  -4  -4  227.59    3.32
   1   4   4  229.85    4.75
  -1  -4  -4  222.76    4.54
  -1  -4  -4  230.76    2.00
  -1  -4  -5  331.39    5.41
   1   4   5  330.10    5.75
  -1  -4  -5  323.10    5.56
  -1  -4  -5  330.82    2.51
  -1  -4  -6  661.07    7.85
  -1  -4  -6  668.25    3.39
  -1  -4  -6  672.33    3.76
   1   4   7   -0.12    0.45
  -1  -4  -7    0.34    0.53
  -1  -4  -7    0.22    0.26
   1   4   7    0.24    0.15
  -1  -4  -7    0.10    0.25
   1   4   8  206.18    4.32
  -1  -4  -8  201.89    4.62
   1   4   8  201.12    2.23
  -1  -4  -8  203.99    2.36
  -1  -4  -8  202.41    2.11
  -1  -4  -9    0.37    0.52
   1   4   9    0.38    0.23
  -1  -4  -9    0.35    0.29
  -1  -4  -9    0.14    0.22
   1   4  10   14.72    0.71
  -1  -4 -10   15.33    0.63
  -1  -4 -10   12.80    1.36
  -1  -4 -10   15.14    0.71
  -1  -4 -10   15.03    0.77
   1   4  10   16.25    0.89
   1   4  10   14.22    0.79
   1   4  11  269.00    3.13
  -1  -4 -11  263.29    2.52
  -1  -4 -11  266.73    2.54
  -1  -4 -11  253.28    5.85
  -1  -4 -11  271.87    3.26
  -1  -4 -11  266.20    2.96
   1   4  11  263.50    3.45
   1   4  11  267.36    3.27
   1   4  11  258.67    3.51
   1   4  12   59.87    1.56
  -1  -4 -12   60.19    3.24
  -1  -4 -12   60.82    1.24
  -1  -4 -12   62.04    1.26
  -1  -4 -12   56.08    2.89
  -1  -4 -12   61.07    1.65
  -1  -4 -12   59.26    1.48
   1   4  12   57.24    1.72
   1   4  12   59.17    1.80
   1   4  13    1.24    0.35
  -1  -4 -13    0.68    0.24
  -1  -4 -13    0.73    0.80
  -1  -4 -13    0.82    0.39
  -1  -4 -13    0.91    0.37
   1   4  13    0.67    0.49
   1   4  13    1.40    0.51
  -1  -4 -14    1.28    0.73
   1   4  14    1.48    0.38
  -1  -4 -14    1.32    0.27
  -1  -4 -14    1.72    0.44
  -1  -4 -14    1.74    0.44
   1   4  14    1.48    0.52
   1   4  15  169.12    2.63
  -1  -4 -15  174.13    2.61
   1   4  15  171.89    2.86
  -1  -4 -16  514.25    3.86
  -1  -4 -16  509.56    4.07
   1   4  16  513.95    4.73
   1   4  16  514.91    4.42
  -1  -4 -17   53.04    1.20
  -1  -4 -17   52.15    1.13
   1   4  17   54.58    1.43
   1   4  17   51.71    1.20
  -1  -4 -18   18.11    0.62
   1   4  18   19.31    0.74
   1   5 -13   22.52    0.70
  -1  -5  13   23.78    0.76
  -1  -5  12    0.40    0.23
   1   5 -12    0.22    0.22
   1   5 -12    0.72    0.21
   1   5 -12    0.25    0.30
  -1  -5  12    0.48    0.32
   1   5 -11   12.36    0.69
  -1  -5  11   12.91    0.71
   1   5 -11   14.33    0.79
   1   5 -11   12.36    0.64
  -1  -5  11   12.10    0.79
  -1  -5  10    0.12    0.26
  -1  -5  10    0.13    0.34
  -1  -5  10    0.09    0.36
   1   5 -10    0.17    0.36
  -1  -5  10    0.17    0.44
  -1  -5  10    0.15    0.44
   1   5 -10    0.34    0.32
   1   5 -10    0.68    0.41
  -1  -5   9   29.53    1.14
   1   5  -9   27.23    2.16
  -1  -5   9   28.43    2.14
  -1  -5   9   26.19    2.36
  -1  -5   9   29.43    1.20
   1   5  -9   28.99    1.16
  -1  -5   9   27.97    1.29
   1   5  -9   28.58    1.21
   1   5  -9   29.46    1.13
  -1  -5   9   27.64    1.27
  -1  -5   8  136.02    2.54
  -1  -5   8  133.61    2.43
   1   5  -8  132.12    4.82
  -1  -5   8  127.72    5.04
  -1  -5   8  132.04    2.65
   1   5  -8  134.67    2.45
  -1  -5   8  136.01    2.54
   1   5  -8  137.58    1.91
   1   5  -8  134.27    2.41
   1   5  -8  130.60    2.48
  -1  -5   8  131.94    2.70
  -1  -5   7  259.10    3.45
  -1  -5   7  263.18    3.42
  -1  -5   7  255.95    6.92
  -1  -5   7  257.69    7.18
   1   5  -7  263.75    3.42
   1   5  -7  262.35    2.72
  -1  -5   7  259.66    3.63
  -1  -5   7  254.34    3.71
   1   5  -7  258.04    3.46
   1   5  -7  261.48    3.39
  -1  -5   6  540.52    4.89
  -1  -5   6  552.01    4.93
  -1  -5   6  556.44    9.84
  -1  -5   6  518.57   10.03
   1   5  -6  540.21    4.81
   1   5  -6  542.07    3.95
  -1  -5   6  539.50    5.07
   1   5  -6  540.45    4.27
   1   5  -6  542.73    4.88
   1   5  -6  533.98    4.79
  -1  -5   6  538.86    5.18
  -1  -5   5    0.73    0.39
  -1  -5   5   -0.16    0.71
   1   5  -5    0.11    0.61
  -1  -5   5    0.18    0.38
  -1  -5   5    1.29    0.89
   1   5  -5    0.12    0.27
   1   5  -5    0.25    0.33
   1   5  -5    0.03    0.23
  -1  -5   5    0.48    0.34
   1   5  -5    0.40    0.35
   1   5  -5    0.40    0.33
  -1  -5   5   -0.21    0.39
   1   5  -4  103.13    3.58
  -1  -5   4  102.01    2.01
  -1  -5   4   96.95    1.98
  -1  -5   4   98.59    3.78
  -1  -5   4   95.99    4.12
   1   5  -4   99.11    1.66
   1   5  -4   99.44    1.95
  -1  -5   4  102.73    2.02
   1   5  -4   97.82    1.94
   1   5  -4  102.05    1.97
  -1  -5   4   98.39    2.07
   1   5  -3   81.89    2.98
  -1  -5   3   81.83    3.68
  -1  -5   3   83.08    1.75
  -1  -5   3   80.53    1.73
   1   5  -3   83.52    3.26
  -1  -5   3   81.14    3.24
  -1  -5   2  150.00    4.78
   1   5  -2  152.56    4.01
  -1  -5   2  149.74    2.24
  -1  -5   2  146.41    2.22
   1   5  -2  154.48    4.39
  -1  -5   2  141.88    4.00
   1   5  -1  349.35    5.80
   1   5  -1  355.29    6.08
  -1  -5   1  339.81    3.26
   1   5  -1  343.22    6.73
  -1  -5   1  338.23    3.23
   1   5  -1  351.52    6.62
   1   5   0   17.12    1.45
  -1  -5   0   20.30    0.83
   1   5   0   14.54    1.51
  -1  -5   0   16.12    0.72
   1   5   0   19.22    1.63
  -1  -5   0   16.35    1.45
   1   5   1  114.04    3.48
   1   5   1  108.22    3.65
  -1  -5  -1  110.56    3.64
  -1  -5  -1  109.85    3.44
   1   5   1  110.48    3.73
   1   5   2    5.45    0.95
  -1  -5  -2    3.60    0.43
   1   5   2    3.99    0.88
   1   5   2    3.15    0.93
  -1  -5  -2    4.05    0.35
  -1  -5  -2    4.14    0.89
  -1  -5  -2    4.35    0.83
   1   5   3  418.20    6.96
  -1  -5  -3  401.99    6.40
   1   5   3  414.62    6.85
  -1  -5  -3  412.50    6.84
  -1  -5  -3  408.65    3.02
   1   5   3  401.22    7.04
   1   5   4   26.32    1.87
  -1  -5  -4   28.23    1.86
  -1  -5  -4   27.23    1.73
  -1  -5  -4   28.13    0.82
  -1  -5  -4   27.62    0.68
  -1  -5  -5   16.01    1.42
  -1  -5  -5   15.40    1.46
  -1  -5  -5   15.73    0.54
  -1  -5  -5   14.80    0.64
   1   5   6   67.47    3.02
  -1  -5  -6   62.41    2.61
  -1  -5  -6   64.61    1.13
  -1  -5  -6   63.00    1.32
   1   5   7  444.04    7.47
  -1  -5  -7  430.32    7.01
  -1  -5  -7  433.56    3.03
  -1  -5  -7  439.86    3.57
   1   5   8   63.46    2.80
  -1  -5  -8   63.78    2.81
  -1  -5  -8   65.31    1.24
  -1  -5  -8   63.20    1.47
  -1  -5  -9  537.22    3.59
  -1  -5  -9  540.73    8.24
  -1  -5  -9  535.14    4.34
  -1  -5  -9  537.32    4.51
   1   5   9  537.34    4.78
   1   5   9  530.94    4.66
  -1  -5 -10  287.83    6.18
  -1  -5 -10  300.11    3.41
  -1  -5 -10  288.80    3.41
  -1  -5 -10  293.04    3.04
   1   5  10  291.92    3.72
   1   5  10  295.83    3.50
   1   5  10  288.27    3.56
  -1  -5 -11  284.02    6.22
  -1  -5 -11  279.94    3.48
  -1  -5 -11  283.16    3.09
  -1  -5 -11  284.17    3.42
   1   5  11  277.20    3.81
   1   5  11  281.30    3.62
   1   5  11  279.68    3.53
  -1  -5 -12   64.77    3.03
  -1  -5 -12   67.59    1.69
  -1  -5 -12   66.53    1.74
  -1  -5 -12   65.72    1.56
   1   5  12   67.03    1.73
   1   5  12   64.26    1.83
   1   5  12   66.47    1.91
  -1  -5 -13  202.03    6.00
  -1  -5 -13  198.10    2.65
  -1  -5 -13  202.24    2.99
   1   5  13  197.28    3.15
   1   5  13  199.41    3.27
  -1  -5 -14    8.18    1.27
  -1  -5 -14    9.90    0.67
  -1  -5 -14    9.76    0.74
   1   5  14    8.72    0.76
  -1  -5 -15  118.92    2.13
   1   5  15  119.82    2.35
  -1  -5 -16   60.92    1.41
   1   5  16   65.97    1.63
   1   5  16   63.13    1.56
  -1  -5 -17    1.35    0.27
  -1  -5 -17    2.14    0.31
   1   5  17    1.91    0.34
   1   5  17    1.62    0.37
  -1  -5 -18   91.32    1.13
   1   5  18   93.87    1.38
  -1  -6  12   15.08    0.55
  -1  -6  11    0.67    0.21
   1   6 -11    0.86    0.26
   1   6 -10   34.93    1.06
  -1  -6  10   33.03    1.05
   1   6 -10   34.98    1.06
   1   6 -10   34.54    0.93
  -1  -6  10   34.19    1.14
  -1  -6   9    7.68    0.54
  -1  -6   9    7.78    0.61
   1   6  -9    9.33    0.68
   1   6  -9    8.61    0.64
   1   6  -9    8.07    0.55
  -1  -6   9    7.90    0.68
  -1  -6   8  195.27    2.81
   1   6  -8  198.99    5.75
   1   6  -8  200.22    2.88
  -1  -6   8  198.95    2.94
   1   6  -8  194.82    2.70
   1   6  -8  195.86    2.85
  -1  -6   8  192.85    3.07
  -1  -6   7  799.37    5.98
   1   6  -7  809.58   12.01
  -1  -6   7  819.29   11.96
  -1  -6   7  804.26    6.23
   1   6  -7  815.69    6.01
   1   6  -7  813.42    5.26
   1   6  -7  808.51    4.70
  -1  -6   7  815.49    6.20
   1   6  -7  808.50    5.93
   1   6  -7  808.74    5.71
  -1  -6   7  811.88    6.44
  -1  -6   6    2.33    0.48
  -1  -6   6    0.16    0.52
  -1  -6   6    0.19    0.54
   1   6  -6    0.18    0.28
   1   6  -6   -0.12    0.47
   1   6  -6    0.80    0.38
   1   6  -6    0.32    0.41
   1   6  -6    0.59    0.36
   1   6  -6    0.06    0.40
  -1  -6   6    2.58    0.58
  -1  -6   5 1071.42    7.11
   1   6  -5 1110.52   14.27
  -1  -6   5 1085.77   14.03
  -1  -6   5 1115.80    7.32
   1   6  -5 1076.70    5.89
   1   6  -5 1089.05    7.10
   1   6  -5 1076.28    6.60
  -1  -6   5 1092.15    7.32
  -1  -6   5 1066.35    7.46
   1   6  -5 1090.78    6.88
   1   6  -5 1076.15    6.88
  -1  -6   4   46.68    1.51
   1   6  -4   49.07    3.09
  -1  -6   4   50.92    3.05
   1   6  -4   46.02    2.60
  -1  -6   4   46.03    1.54
  -1  -6   4   45.79    3.05
   1   6  -4   47.40    1.26
   1   6  -4   47.55    1.51
   1   6  -4   45.74    1.41
  -1  -6   4   48.46    1.56
   1   6  -4   46.71    1.45
  -1  -6   4   45.18    1.54
   1   6  -4   46.77    1.44
  -1  -6   3    3.33    0.53
   1   6  -3    3.04    1.11
  -1  -6   3    3.65    0.57
  -1  -6   3    4.69    1.15
   1   6  -3    3.49    0.85
  -1  -6   3    3.16    1.03
   1   6  -3    3.15    0.40
   1   6  -3    2.93    0.50
   1   6  -3    2.50    0.38
   1   6  -3    2.95    0.46
  -1  -6   3    4.19    0.54
   1   6  -3    4.06    0.50
   1   6  -3    3.35    0.47
  -1  -6   3    2.59    0.46
  -1  -6   2   39.03    1.35
   1   6  -2   35.06    2.53
  -1  -6   2   39.56    2.63
   1   6  -2   35.13    2.35
  -1  -6   2   42.74    2.92
   1   6  -2   39.02    2.30
   1   6  -2   38.55    1.12
   1   6  -2   38.17    1.32
   1   6  -2   42.33    1.25
   1   6  -2   39.93    1.31
  -1  -6   2   41.49    1.36
   1   6  -2   38.56    1.29
  -1  -6   1   48.34    1.45
   1   6  -1   44.01    2.79
  -1  -6   1   44.24    2.68
   1   6  -1   47.68    2.74
  -1  -6   1   49.19    1.15
   1   6  -1   49.43    2.60
   1   6  -1   47.58    1.21
   1   6  -1   47.94    1.41
   1   6  -1   45.15    1.37
  -1  -6   1   50.54    1.45
   1   6  -1   47.12    1.33
   1   6  -1   48.21    1.40
  -1  -6   0  797.85    5.63
   1   6   0  796.38   11.14
  -1  -6   0  780.25   10.77
  -1  -6   0  775.21   10.81
   1   6   0  809.19   11.03
  -1  -6   0  798.40    4.59
   1   6   0  836.10   10.55
   1   6   0  791.54    5.55
   1   6   0  809.20    5.53
   1   6   0  795.95    5.34
  -1  -6   0  805.78    5.62
   1   6   0  807.90    4.87
   1   6   0  808.61    5.55
  -1  -6  -1  706.48    5.21
  -1  -6  -1  698.25   10.00
   1   6   1  688.26   10.29
  -1  -6  -1  697.00   10.03
   1   6   1  717.12   10.42
  -1  -6  -1  697.51    4.31
   1   6   1  709.20    5.11
   1   6   2  232.35    5.67
  -1  -6  -2  212.10    5.48
   1   6   2  219.07    5.74
  -1  -6  -2  220.35    5.57
   1   6   2  217.94    5.85
  -1  -6  -2  215.28    2.45
   1   6   3  580.50    9.09
   1   6   3  572.91    9.01
  -1  -6  -3  560.73    8.78
  -1  -6  -3  547.87    3.96
  -1  -6  -3  563.56    8.79
   1   6   4   44.36    2.60
  -1  -6  -4   41.41    2.30
  -1  -6  -4   45.04    2.54
  -1  -6  -4   42.07    1.15
  -1  -6  -5  321.33    6.23
  -1  -6  -5  317.30    3.13
  -1  -6  -5  325.47    3.44
   1   6   5  321.02    3.57
  -1  -6  -5  318.37    3.65
  -1  -6  -6  104.47    1.86
   1   6   6  106.11    4.13
  -1  -6  -6  107.16    3.61
  -1  -6  -6  108.38    1.91
   1   6   6  107.34    2.06
  -1  -6  -6  107.64    2.04
   1   6   6  107.97    2.12
  -1  -6  -6  107.98    2.15
  -1  -6  -7  155.57    2.35
   1   6   7  152.68    4.90
  -1  -6  -7  153.31    4.35
  -1  -6  -7  158.08    2.38
   1   6   7  155.78    2.60
   1   6   7  155.43    2.57
  -1  -6  -8  132.35    2.24
   1   6   8  135.17    4.49
  -1  -6  -8  138.12    4.19
  -1  -6  -8  132.83    2.25
   1   6   8  133.65    2.47
   1   6   8  131.34    2.45
  -1  -6  -9    1.09    0.56
  -1  -6  -9    0.16    0.35
  -1  -6  -9    0.01    0.36
   1   6   9   -0.03    0.39
   1   6   9   -0.27    0.44
  -1  -6 -10    0.20    0.47
  -1  -6 -10    0.52    0.36
  -1  -6 -10    0.60    0.32
  -1  -6 -10    0.66    0.38
   1   6  10    0.52    0.46
   1   6  10    0.94    0.33
   1   6  10    2.12    0.50
  -1  -6 -11    7.77    1.06
  -1  -6 -11   10.93    0.79
  -1  -6 -11   10.02    0.74
  -1  -6 -11    9.01    0.59
   1   6  11    9.55    0.72
   1   6  11    9.52    0.83
   1   6  11    9.90    0.77
  -1  -6 -12   61.73    1.67
  -1  -6 -12   58.91    1.39
  -1  -6 -12   61.13    1.65
   1   6  12   60.86    1.67
   1   6  12   61.35    1.84
   1   6  12   60.97    1.68
  -1  -6 -13    1.07    0.67
  -1  -6 -13    0.54    0.44
  -1  -6 -13    0.23    0.28
   1   6  13    0.37    0.48
   1   6  13    0.07    0.36
   1   6  13    0.45    0.35
  -1  -6 -14   57.62    1.56
   1   6  14   58.89    1.74
  -1  -6 -15  394.19    3.68
   1   6  15  404.68    4.05
  -1  -6 -16  109.10    1.74
  -1  -6 -16  104.57    1.49
   1   6  16  111.00    1.86
   1   6  16  109.94    1.92
  -1  -6 -17   21.96    0.58
  -1  -6 -17   22.29    0.69
   1   6  17   21.92    0.74
   1   6  17   21.92    0.72
  -1  -7  10   15.72    0.58
   1   7 -10   15.02    0.54
   1   7  -9    5.99    0.47
  -1  -7   9    5.78    0.48
  -1  -7   9    5.92    0.39
   1   7  -8   36.35    1.11
  -1  -7   8   35.99    1.13
  -1  -7   8   36.90    1.09
   1   7  -7   37.52    1.24
   1   7  -7   36.26    1.03
  -1  -7   7   35.43    1.23
   1   7  -7   34.96    1.09
  -1  -7   6  229.68    3.09
   1   7  -6  236.29    6.38
   1   7  -6  234.32    3.15
   1   7  -6  228.72    2.84
  -1  -7   6  233.26    3.23
   1   7  -6  229.87    2.78
  -1  -7   6  232.86    2.65
   1   7  -6  233.66    2.91
  -1  -7   5  182.31    2.90
  -1  -7   5  192.09    5.91
   1   7  -5  188.56    5.87
   1   7  -5  191.09    2.93
   1   7  -5  182.55    2.71
  -1  -7   5  190.53    3.03
   1   7  -5  185.36    2.74
  -1  -7   4   57.08    1.69
  -1  -7   4   56.95    3.31
   1   7  -4   60.69    3.46
   1   7  -4   53.67    2.88
   1   7  -4   61.76    1.73
   1   7  -4   58.38    1.62
  -1  -7   4   58.60    1.74
   1   7  -4   57.29    1.61
  -1  -7   3    0.69    0.41
   1   7  -3   -0.77    0.85
   1   7  -3    0.41    0.57
  -1  -7   3    0.95    0.61
  -1  -7   3    0.45    0.46
   1   7  -3    0.78    0.41
   1   7  -3    0.23    0.42
   1   7  -3    0.38    0.29
   1   7  -3    0.40    0.40
  -1  -7   2    9.75    0.77
  -1  -7   2   10.73    1.61
   1   7  -2    8.05    1.37
   1   7  -2   11.16    1.46
  -1  -7   2    7.27    1.14
   1   7  -2    9.91    0.69
   1   7  -2    8.99    0.75
   1   7  -2   10.65    0.78
  -1  -7   2   13.34    0.90
  -1  -7   2   10.01    0.73
   1   7  -2   10.27    0.78
   1   7  -1    2.38    0.88
  -1  -7   1    2.76    0.71
   1   7  -1    1.82    0.85
  -1  -7   1    3.13    1.06
  -1  -7   1    3.03    1.04
   1   7  -1    1.24    0.46
  -1  -7   1    2.58    0.55
   1   7  -1    2.34    0.51
   1   7  -1    3.61    0.50
   1   7  -1    2.33    0.50
  -1  -7   1    2.76    0.44
   1   7  -1    3.29    0.43
  -1  -7   1    2.30    0.51
   1   7   0   82.69    3.97
  -1  -7   0   82.16    3.68
   1   7   0   83.56    3.88
  -1  -7   0   84.73    3.97
  -1  -7   0   83.56    4.17
   1   7   0   81.49    3.64
   1   7   0   82.40    1.97
   1   7   0   80.58    1.91
   1   7   0   80.51    1.97
  -1  -7   0   84.05    2.06
   1   7   0   83.97    1.84
  -1  -7   0   83.13    1.91
  -1  -7   0   87.04    2.13
   1   7   1  299.55    7.36
  -1  -7  -1  298.66    6.87
   1   7   1  303.15    7.42
  -1  -7  -1  299.14    7.32
  -1  -7  -1  305.07    3.02
   1   7   1  300.72    6.92
   1   7   1  298.17    3.65
   1   7   1  299.45    3.74
   1   7   1  297.54    3.65
  -1  -7  -1  314.50    3.63
   1   7   1  301.54    3.52
  -1  -7  -1  313.33    3.95
  -1  -7  -2    1.89    0.36
   1   7   2    1.30    0.88
  -1  -7  -2    1.71    0.54
   1   7   2    1.46    0.72
   1   7   2    1.47    0.38
   1   7   2    3.11    0.55
   1   7   2    1.35    0.46
  -1  -7  -2    2.34    0.46
   1   7   2    1.79    0.44
  -1  -7  -2    2.13    0.49
  -1  -7  -3   24.20    1.96
  -1  -7  -3   22.80    0.92
   1   7   3   26.61    2.12
  -1  -7  -3   22.79    1.10
   1   7   3   24.18    1.12
  -1  -7  -3   24.69    1.07
   1   7   3   22.94    1.07
  -1  -7  -3   24.10    1.13
  -1  -7  -4    4.70    1.01
  -1  -7  -4    4.88    0.53
   1   7   4    6.14    1.13
   1   7   4    4.62    0.60
  -1  -7  -4    4.29    0.56
  -1  -7  -4    5.61    0.57
  -1  -7  -4    4.83    0.59
   1   7   4    4.48    0.56
  -1  -7  -5  139.05    2.24
   1   7   5  137.57    4.88
  -1  -7  -5  135.82    2.24
  -1  -7  -5  135.92    2.49
   1   7   5  139.04    2.34
  -1  -7  -5  139.43    2.60
  -1  -7  -5  136.66    2.45
   1   7   5  135.84    2.55
  -1  -7  -6  100.79    1.96
   1   7   6   98.94    4.16
  -1  -7  -6   97.67    1.95
  -1  -7  -6  100.64    2.10
   1   7   6  100.16    2.09
  -1  -7  -6   99.83    2.17
   1   7   6  101.27    2.23
  -1  -7  -7   88.87    1.88
   1   7   7   88.54    3.91
  -1  -7  -7   87.27    1.87
   1   7   7   87.21    2.01
   1   7   7   87.09    2.10
  -1  -7  -8  400.62    4.05
  -1  -7  -8  399.01    4.39
   1   7   8  404.69    4.40
   1   7   8  403.91    4.47
  -1  -7  -9  220.69    3.04
  -1  -7  -9  224.35    3.29
   1   7   9  228.86    3.37
   1   7   9  223.33    3.34
  -1  -7 -10  386.96    4.03
  -1  -7 -10  389.51    4.30
   1   7  10  387.49    4.42
   1   7  10  389.44    4.33
  -1  -7 -11   33.79    1.24
  -1  -7 -11   34.62    1.30
  -1  -7 -11   35.06    0.99
   1   7  11   34.48    1.40
   1   7  11   34.94    1.32
  -1  -7 -12   30.80    1.19
  -1  -7 -12   32.25    0.94
  -1  -7 -12   30.29    1.17
   1   7  12   31.66    1.31
   1   7  12   32.00    1.20
   1   7  12   30.30    1.09
  -1  -7 -13  172.99    2.06
  -1  -7 -13  172.27    2.52
  -1  -7 -13  178.01    2.59
   1   7  13  175.47    2.84
   1   7  13  174.18    2.46
   1   7  13  175.47    2.47
  -1  -7 -14   24.95    0.87
  -1  -7 -14   23.37    0.95
   1   7  14   24.31    1.07
  -1  -7 -15   82.78    1.16
  -1  -7 -15   88.08    1.58
   1   7  15   87.04    1.72
  -1  -7 -16    5.94    0.42
   1   7  16    5.41    0.35
   1   7  16    6.21    0.48
   1   8  -8  112.89    1.38
  -1  -8   8  112.91    1.35
   1   8  -7   59.57    1.20
  -1  -8   7   56.72    1.23
  -1  -8   7   57.09    1.15
  -1  -8   7   58.13    1.08
   1   8  -6   18.78    0.79
  -1  -8   6   18.34    0.83
  -1  -8   6   18.07    0.75
  -1  -8   6   19.34    0.77
   1   8  -5   34.60    1.12
   1   8  -5   33.19    1.04
  -1  -8   5   33.75    1.10
  -1  -8   5   34.91    1.14
   1   8  -5   33.51    1.00
   1   8  -4  246.14    3.04
   1   8  -4  239.40    2.94
  -1  -8   4  243.73    3.00
  -1  -8   4  240.57    2.65
  -1  -8   4  240.65    3.14
   1   8  -4  235.20    2.87
   1   8  -3   53.43    3.10
   1   8  -3   54.63    1.53
   1   8  -3   53.68    1.50
  -1  -8   3   54.79    1.48
  -1  -8   3   54.55    1.39
  -1  -8   3   55.23    1.61
   1   8  -2   21.05    2.05
   1   8  -2   21.77    1.03
   1   8  -2   21.25    1.04
  -1  -8   2   20.94    0.97
  -1  -8   2   21.97    0.96
  -1  -8   2   20.93    1.08
   1   8  -1  360.37    8.19
   1   8  -1  365.52    3.98
   1   8  -1  376.97    4.12
  -1  -8   1  372.84    3.90
  -1  -8   1  372.89    4.28
   1   8  -1  367.13    3.52
   1   8   0  259.60    6.95
   1   8   0  258.92    3.36
  -1  -8   0  258.33    3.64
   1   8   0  264.02    3.51
  -1  -8   0  262.61    3.35
  -1  -8   0  268.25    3.68
   1   8   0  258.43    3.15
   1   8   1   39.18    1.33
  -1  -8  -1   37.30    1.43
   1   8   1   39.53    1.45
  -1  -8  -1   36.40    1.34
  -1  -8  -1   39.39    1.49
   1   8   1   39.42    1.32
   1   8   2  682.14    5.19
  -1  -8  -2  661.85    5.78
   1   8   2  671.55    5.65
  -1  -8  -2  669.80    5.52
   1   8   2  665.31    5.42
  -1  -8  -2  676.63    5.92
  -1  -8  -3    2.50    0.41
  -1  -8  -3    2.63    0.41
  -1  -8  -3    2.47    0.55
  -1  -8  -3    3.00    0.57
  -1  -8  -3    3.02    0.64
   1   8   3    2.67    0.58
  -1  -8  -4  470.47    4.07
  -1  -8  -4  479.03    4.05
  -1  -8  -4  482.09    4.82
  -1  -8  -4  484.29    5.00
  -1  -8  -4  475.53    4.74
   1   8   4  478.50    4.72
  -1  -8  -5   -0.01    0.33
  -1  -8  -5    0.06    0.34
  -1  -8  -5    0.21    0.39
   1   8   5    0.08    0.35
  -1  -8  -5    0.98    0.49
   1   8   5    0.28    0.51
  -1  -8  -6  253.16    3.39
  -1  -8  -6  251.64    3.05
   1   8   6  254.42    3.21
   1   8   6  253.44    3.52
  -1  -8  -7   13.74    0.78
  -1  -8  -7   14.17    0.82
  -1  -8  -7   13.43    0.90
   1   8   7   14.33    0.85
   1   8   7   13.80    0.93
  -1  -8  -8    2.86    0.47
  -1  -8  -8    2.67    0.56
   1   8   8    2.17    0.45
   1   8   8    2.68    0.58
  -1  -8  -9    7.43    0.71
  -1  -8  -9    9.15    0.67
   1   8   9    7.84    0.69
   1   8   9    7.15    0.72
  -1  -8 -10   50.36    1.40
  -1  -8 -10   48.66    1.49
   1   8  10   50.83    1.56
   1   8  10   51.23    1.54
  -1  -8 -11    0.09    0.34
  -1  -8 -11    0.27    0.37
   1   8  11    0.70    0.42
   1   8  11    0.10    0.34
  -1  -8 -12    4.02    0.47
  -1  -8 -12    3.66    0.46
   1   8  12    3.63    0.54
   1   8  12    3.40    0.44
  -1  -8 -13    4.07    0.42
   1   8  13    4.44    0.42
   1   8  13    4.48    0.52
  -1  -8 -14  110.07    1.50
  -1  -8 -14  110.96    1.66
   1   8  14  112.48    1.84
  -1  -8 -15    5.47    0.37
   1   8  15    4.91    0.41
   1   9  -5    1.42    0.21
  -1  -9   5    1.25    0.24
   1   9  -4    0.25    0.22
  -1  -9   4    0.61    0.28
   1   9  -4    0.48    0.21
   1   9  -3   17.66    0.69
  -1  -9   3   17.23    0.78
   1   9  -3   17.26    0.71
  -1  -9   3   17.42    0.74
   1   9  -2   10.83    0.51
   1   9  -2   11.31    0.60
  -1  -9   2   11.31    0.71
  -1  -9   2   10.90    0.56
  -1  -9   2   11.42    0.68
   1   9  -2   11.91    0.67
   1   9  -1  211.28    2.47
  -1  -9   1  214.40    2.87
  -1  -9   1  214.52    2.52
  -1  -9   1  211.95    2.79
   1   9   0   71.37    1.46
  -1  -9   0   73.25    1.76
  -1  -9   0   68.65    1.55
   1   9   0   72.79    1.41
  -1  -9   0   70.54    1.71
   1   9   1  198.36    2.39
  -1  -9  -1  196.90    2.89
   1   9   1  189.21    2.46
  -1  -9  -1  195.82    2.69
  -1  -9  -1  199.04    2.90
  -1  -9  -2    0.80    0.40
  -1  -9  -2    1.14    0.48
   1   9   2    0.82    0.37
  -1  -9  -3   57.96    1.59
   1   9   3   58.17    1.51
  -1  -9  -4  112.20    2.16
   1   9   4  112.25    2.12
  -1  -9  -5  131.41    2.30
   1   9   5  136.10    2.35
  -1  -9  -6   44.58    1.13
  -1  -9  -6   43.69    1.29
  -1  -9  -6   45.25    1.42
   1   9   6   43.06    1.37
  -1  -9  -7  164.34    2.17
  -1  -9  -7  163.24    2.36
  -1  -9  -7  166.12    2.60
   1   9   7  165.83    2.29
   1   9   7  166.13    2.59
  -1  -9  -8    1.69    0.46
  -1  -9  -8    2.00    0.34
   1   9   8    2.97    0.40
   1   9   8    2.56    0.51
  -1  -9  -9   92.24    1.62
  -1  -9  -9   94.33    1.88
   1   9   9   94.17    1.77
   1   9   9   93.59    1.85
  -1  -9 -10   29.75    1.04
  -1  -9 -10   29.95    0.92
   1   9  10   30.14    1.01
   1   9  10   29.85    1.02
  -1  -9 -11   15.71    0.65
  -1  -9 -11   15.51    0.72
   1   9  11   15.80    0.71
   1   9  11   15.83    0.72
  -1  -9 -12   15.87    0.65
  -1  -9 -12   16.26    0.62
   1   9  12   16.75    0.63
   1   9  12   16.23    0.70
  -1  -9 -13   74.59    1.11
  -1  -9 -13   74.90    1.12
   1   9  13   76.03    1.29
  -1 -10   1  107.59    1.44
   1  10  -1  111.58    1.36
   1  10   0   71.01    1.00
  -1 -10   0   72.08    1.28
   1  10   0   71.01    1.22
   1  10   1  274.69    2.31
  -1 -10  -1  273.56    2.61
  -1 -10  -1  273.34    2.28
   1  10   1  270.58    2.51
  -1 -10  -2    1.86    0.30
   1  10   2    1.99    0.27
  -1 -10  -3    9.39    0.54
  -1 -10  -3    9.50    0.55
   1  10   3    9.20    0.50
  -1 -10  -4    0.53    0.29
  -1 -10  -4    0.75    0.24
   1  10   4    0.53    0.29
  -1 -10  -5    9.08    0.51
  -1 -10  -5    8.72    0.56
   1  10   5    8.77    0.54
  -1 -10  -6   67.50    1.21
  -1 -10  -6   69.52    1.40
  -1 -10  -7  151.45    2.01
   1  10   7  150.27    1.95
   1  10   8   20.83    0.67
  -1 -10  -8   20.78    0.76
   1  10   8   21.59    0.75
  -1 -10  -9   85.66    1.39
   1  10   9   87.33    1.36
  -1 -10 -10   25.33    0.70
   1  10  10   25.34    0.67
   2  -9  -9   57.91    1.06
  -2   9   9   59.32    1.02
   2  -9  -8    3.85    0.36
  -2   9   8    3.61    0.34
   2  -9  -7    1.80    0.29
   2  -9  -7    1.95    0.31
  -2   9   7    2.74    0.33
   2  -9  -6   14.27    0.65
   2  -9  -6   13.42    0.64
  -2   9   6   14.63    0.61
  -2   9   6   12.79    0.50
   2  -9  -5   11.67    0.64
   2  -9  -5   10.99    0.58
  -2   9   5   12.43    0.57
  -2   9   5   11.46    0.53
   2  -9  -4    2.46    0.40
   2  -9  -4    2.50    0.33
  -2   9   4    3.07    0.36
  -2   9   4    2.42    0.33
   2  -9  -3   72.58    1.50
   2  -9  -3   72.64    1.23
  -2   9   3   73.57    1.30
   2  -9  -2   79.40    1.53
  -2   9   2   79.70    1.31
  -2   9   2   81.86    1.35
   2  -9  -1    1.24    0.31
  -2   9   1    1.33    0.27
  -2   9   1    1.29    0.28
   2  -9   0   16.39    0.62
  -2   9   0   17.12    0.61
  -2   9   0   16.77    0.60
  -2   9  -1   21.14    0.65
   2  -9   1   20.79    0.74
  -2   9  -1   20.35    0.61
  -2   9  -2    7.90    0.38
   2  -9   2    7.61    0.43
  -2   9  -2    7.79    0.36
   2  -8 -12   56.99    0.91
  -2   8  12   60.19    1.05
   2  -8 -11   39.23    0.98
   2  -8 -11   38.67    0.94
  -2   8  11   37.89    0.91
   2  -8 -10  131.59    1.94
   2  -8 -10  130.88    1.91
  -2   8  10  131.49    1.82
   2  -8  -9   38.24    0.97
   2  -8  -9   38.89    1.11
   2  -8  -9   40.00    1.19
  -2   8   9   39.95    1.09
   2  -8  -8  108.30    1.81
   2  -8  -8  107.09    1.86
   2  -8  -8  107.67    2.01
  -2   8   8  107.60    1.82
   2  -8  -7   56.19    1.44
   2  -8  -7   58.97    1.41
   2  -8  -7   56.78    1.54
  -2   8   7   59.32    1.40
  -2   8   7   57.64    1.22
   2  -8  -6  124.88    2.24
   2  -8  -6  124.38    2.29
  -2   8   6  120.71    1.87
   2  -8  -5   34.25    1.28
  -2   8   5   35.52    1.08
   2  -8  -4   77.39    1.93
   2  -8  -4   80.44    1.93
   2  -8  -4   77.79    1.63
  -2   8   4   78.17    1.54
  -2   8   4   76.66    1.58
   2  -8  -3    0.19    0.47
   2  -8  -3    0.17    0.36
  -2   8   3    0.15    0.28
   2  -8  -3    0.37    0.33
   2  -8  -3   -0.06    0.43
   2  -8  -3    0.64    0.40
  -2   8   3   -0.15    0.33
   2  -8  -2   17.36    0.99
   2  -8  -2   16.56    0.96
   2  -8  -2   18.81    0.97
   2  -8  -2   16.91    0.82
   2  -8  -2   17.64    0.85
  -2   8   2   18.43    0.81
  -2   8   2   18.40    0.82
  -2   8   1   36.78    2.24
   2  -8  -1   39.32    1.39
   2  -8  -1   39.98    1.34
  -2   8   1   38.52    1.14
   2  -8  -1   40.35    1.42
   2  -8  -1   39.75    1.16
  -2   8   1   40.35    1.14
   2  -8   0    1.21    0.42
  -2   8   0    1.11    0.28
   2  -8   0    0.48    0.31
  -2   8   0    1.45    0.37
   2  -8   0    0.88    0.35
  -2   8   0    1.30    0.38
   2  -8   1    1.09    0.35
  -2   8  -1    1.29    0.30
   2  -8   1    1.59    0.34
  -2   8  -1    1.54    0.36
   2  -8   1    1.59    0.47
   2  -8   1    1.27    0.35
  -2   8  -1    1.47    0.38
   2  -8   2   47.18    1.20
  -2   8  -2   47.47    1.13
  -2   8  -2   48.25    1.18
   2  -8   2   48.07    1.45
   2  -8   2   46.70    1.12
  -2   8  -2   49.46    1.15
  -2   8  -3   22.13    0.79
  -2   8  -3   23.21    0.78
   2  -8   3   22.86    0.98
   2  -8   3   21.75    0.72
  -2   8  -3   23.32    0.77
  -2   8  -4    2.20    0.32
  -2   8  -4    2.21    0.31
   2  -8   4    2.34    0.40
   2  -8   4    1.92    0.25
  -2   8  -4    2.35    0.31
  -2   8  -5    7.67    0.43
  -2   8  -5    7.53    0.42
   2  -8   5    7.77    0.52
  -2   8  -5    7.58    0.38
  -2   8  -6    4.62    0.30
  -2   8  -6    4.56    0.29
   2  -8   6    4.68    0.34
   2  -7 -14  114.29    1.40
  -2   7  14  112.87    1.43
   2  -7 -13   25.80    0.78
  -2   7  13   25.32    0.80
   2  -7 -12    1.40    0.36
   2  -7 -12    1.88    0.30
  -2   7  12    1.67    0.29
  -2   7  11  177.15    2.43
   2  -7 -11  170.77    2.52
   2  -7 -11  170.83    2.37
  -2   7  11  168.60    2.22
  -2   7  10   13.18    0.74
   2  -7 -10   12.45    0.77
   2  -7 -10   13.15    0.80
  -2   7  10   12.31    0.70
   2  -7  -9    7.39    0.56
   2  -7  -9    8.29    0.69
   2  -7  -9    9.09    0.74
  -2   7   9    9.28    0.66
   2  -7  -8    1.07    0.38
   2  -7  -8    1.44    0.42
   2  -7  -8    0.98    0.49
  -2   7   8    1.00    0.41
  -2   7   7    1.13    0.55
   2  -7  -7    0.93    0.41
   2  -7  -7    1.27    0.41
  -2   7   6   13.68    1.43
   2  -7  -6   10.52    0.79
   2  -7  -6   13.29    0.78
   2  -7  -6   12.17    0.80
  -2   7   6   11.56    0.67
  -2   7   5    9.79    1.21
   2  -7  -5   11.41    0.87
  -2   7   5    9.39    1.23
   2  -7  -5   10.65    0.86
   2  -7  -5   10.13    0.71
  -2   7   5   10.75    0.68
  -2   7   4  184.09    4.99
  -2   7   4  182.80    4.88
   2  -7  -4  176.76    3.12
  -2   7   4  183.74    5.03
   2  -7  -4  185.67    3.18
  -2   7   4  181.03    2.48
   2  -7  -4  181.29    3.14
   2  -7  -4  183.94    2.65
  -2   7   4  182.62    2.54
  -2   7   3  570.69    8.70
  -2   7   3  567.17    8.43
  -2   7   3  572.43    8.71
   2  -7  -3  570.02    4.66
   2  -7  -3  558.53    5.48
  -2   7   3  559.44    4.41
   2  -7  -3  561.24    5.51
   2  -7  -3  571.55    5.71
  -2   7   2  137.21    4.25
  -2   7   2  136.11    4.10
  -2   7   2  128.96    4.25
   2  -7  -2  140.21    2.32
   2  -7  -2  133.76    2.69
   2  -7  -2  137.48    2.78
  -2   7   2  133.33    2.19
   2  -7  -2  132.59    2.85
  -2   7   1   58.49    2.79
  -2   7   1   60.75    2.72
  -2   7   1   59.91    2.96
   2  -7  -1   63.35    1.59
   2  -7  -1   60.72    1.80
  -2   7   1   62.27    1.41
  -2   7   1   61.56    1.52
   2  -7  -1   62.10    1.90
   2  -7  -1   59.56    1.91
  -2   7   0  111.84    3.63
  -2   7   0  105.86    3.65
  -2   7   0  108.24    1.85
   2  -7   0  107.20    2.35
   2  -7   0  111.17    2.05
  -2   7   0  108.44    1.99
   2  -7   0  110.38    2.51
   2  -7   0  107.71    2.50
  -2   7  -1   59.52    2.60
  -2   7  -1   59.76    2.67
   2  -7   1   60.63    1.75
   2  -7   1   63.91    1.56
  -2   7  -1   62.91    1.44
   2  -7   1   62.64    1.92
   2  -7   1   63.67    1.85
  -2   7  -2   17.32    1.36
   2  -7   2   15.53    0.90
   2  -7   2   17.03    0.94
   2  -7   2   17.13    0.84
  -2   7  -2   16.08    0.78
   2  -7   2   15.81    1.03
   2  -7   3  204.08    2.79
  -2   7  -3  212.22    2.58
   2  -7   3  212.06    2.63
   2  -7   3  213.72    3.37
  -2   7  -4    3.16    0.44
   2  -7   4    2.73    0.55
   2  -7   4    2.58    0.39
  -2   7  -5    1.23    0.35
   2  -7   5    1.17    0.45
   2  -7   5    1.12    0.29
   2  -7   6   51.82    1.01
  -2   7  -6   53.50    1.19
  -2   7  -6   53.18    1.17
   2  -7   6   51.16    1.46
  -2   7  -7   35.60    0.80
  -2   7  -7   38.18    0.93
  -2   7  -7   38.18    0.90
   2  -7   7   36.04    1.11
  -2   7  -8    3.82    0.33
  -2   7  -8    3.85    0.29
   2  -7   8    3.68    0.35
  -2   7  -9  110.85    1.14
  -2   6  15    0.86    0.23
   2  -6 -15    1.00    0.24
   2  -6 -14    0.43    0.22
  -2   6  14   -0.16    0.27
   2  -6 -14    0.49    0.29
   2  -6 -13   19.29    0.73
  -2   6  13   17.85    0.79
  -2   6  12    0.25    0.26
   2  -6 -12    0.67    0.27
   2  -6 -12    0.29    0.40
   2  -6 -12    0.46    0.26
  -2   6  11    0.27    0.30
   2  -6 -11    0.24    0.44
   2  -6 -11    0.13    0.35
  -2   6  11    0.24    0.29
  -2   6  10  289.22    6.37
   2  -6 -10  291.96    3.85
   2  -6 -10  297.09    3.64
  -2   6  10  287.78    3.21
  -2   6   9   81.90    3.41
   2  -6  -9   78.99    2.04
   2  -6  -9   77.52    1.95
  -2   6   9   76.33    1.72
  -2   6   8  162.80    4.82
   2  -6  -8  167.74    2.96
   2  -6  -8  175.37    2.70
  -2   6   8  169.37    4.92
  -2   6   7  441.59    7.84
   2  -6  -7  435.64    4.68
   2  -6  -7  439.52    4.00
   2  -6  -7  433.90    4.41
  -2   6   7  446.01    7.98
  -2   6   6  119.57    4.07
   2  -6  -6  120.15    2.42
  -2   6   6  121.44    4.20
   2  -6  -6  120.75    2.62
   2  -6  -6  119.02    2.41
   2  -6  -6  118.46    2.12
  -2   6   5   48.36    2.61
  -2   6   5   52.55    2.58
   2  -6  -5   54.10    1.70
   2  -6  -5   55.08    3.35
   2  -6  -5   50.41    1.41
   2  -6  -5   52.95    1.75
   2  -6  -5   52.05    1.57
   2  -6  -5   50.64    1.68
  -2   6   5   52.08    1.31
  -2   6   4  181.64    4.97
  -2   6   4  176.93    4.62
   2  -6  -4  174.84    3.08
   2  -6  -4  178.67    2.57
   2  -6  -4  180.01    3.15
   2  -6  -4  178.92    3.11
   2  -6  -4  178.68    6.10
  -2   6   3 1665.74   13.80
  -2   6   3 1638.56   13.96
  -2   6   3 1626.56   14.74
   2  -6  -3 1614.52    9.23
   2  -6  -3 1620.73    7.70
  -2   6   3 1617.64    7.13
   2  -6  -3 1614.08    9.29
   2  -6  -3 1600.48    9.45
   2  -6  -3 1608.30   18.92
  -2   6   3 1622.99   13.51
  -2   6   2  468.96    7.33
   2  -6  -2  455.21    4.85
   2  -6  -2  462.94    4.17
   2  -6  -2  468.89    5.07
   2  -6  -2  452.46    5.19
   2  -6  -2  464.54   10.46
  -2   6   2  453.57    7.14
  -2   6   1  296.84    5.87
   2  -6  -1  290.95    3.86
   2  -6  -1  290.63    4.04
   2  -6  -1  295.14    3.36
   2  -6  -1  291.36    8.39
   2  -6  -1  303.51    4.30
  -2   6   1  308.40    7.88
  -2   6   1  301.12    5.81
  -2   6   0  188.90    4.68
  -2   6   0  185.51    2.34
   2  -6   0  185.05    2.67
   2  -6   0  182.44    3.02
   2  -6   0  183.87    3.26
   2  -6   0  188.36    6.73
   2  -6   0  187.37    3.41
  -2   6   0  188.12    4.56
  -2   6   0  191.56    6.28
  -2   6  -1   21.49    1.61
   2  -6   1   24.91    1.28
   2  -6   1   21.18    2.14
  -2   6  -1   20.43    2.11
   2  -6   1   22.26    1.08
   2  -6   1   23.01    1.00
  -2   6  -1   22.08    0.87
   2  -6   1   22.07    1.21
  -2   6  -2   97.35    3.35
   2  -6   2   96.00    2.28
   2  -6   2  103.40    2.25
  -2   6  -2   98.53    1.77
   2  -6   2   99.13    1.97
   2  -6   2  100.76    2.46
   2  -6   2  103.52    2.40
  -2   6  -3   10.41    1.12
   2  -6   3   11.50    0.79
  -2   6  -3   10.80    0.66
   2  -6   3   11.12    0.74
   2  -6   3   11.08    0.90
   2  -6   3   11.98    0.90
  -2   6  -4  230.29    4.93
  -2   6  -4  235.23    2.76
   2  -6   4  233.76    2.94
   2  -6   4  228.09    3.68
   2  -6   4  235.19    3.63
  -2   6  -5    8.47    0.92
  -2   6  -5    9.00    0.56
  -2   6  -5    9.77    0.65
   2  -6   5    9.79    0.66
   2  -6   5    8.87    0.84
   2  -6   5   10.01    0.88
  -2   6  -6   44.94    1.21
  -2   6  -6   46.27    1.19
   2  -6   6   45.05    1.22
   2  -6   6   44.30    1.58
   2  -6   6   45.01    1.60
   2  -6   7   68.06    1.34
  -2   6  -7   66.22    1.39
  -2   6  -7   68.30    1.42
   2  -6   7   67.58    1.85
   2  -6   7   66.58    1.85
  -2   6  -8  103.21    1.65
  -2   6  -8  105.23    1.65
   2  -6   8  102.07    2.08
   2  -6   8  105.50    2.16
  -2   6  -9    3.69    0.36
  -2   6  -9    3.82    0.38
   2  -6   9    3.43    0.42
   2  -6   9    4.64    0.54
  -2   6 -10  234.26    2.06
  -2   6 -10  234.17    1.99
   2  -6  10  225.44    2.13
  -2   6 -10  230.94    1.72
   2  -6  10  241.37    2.56
  -2   5  16    0.39    0.21
   2  -5 -16    0.53    0.21
   2  -5 -15   15.21    0.69
  -2   5  15   14.80    0.64
   2  -5 -14    5.55    0.44
   2  -5 -14    5.95    0.51
  -2   5  14    6.03    0.51
   2  -5 -14    5.43    0.54
  -2   5  13   94.37    1.91
   2  -5 -13   93.90    1.85
   2  -5 -13   92.14    1.87
  -2   5  13   91.85    1.81
  -2   5  12  228.26    3.07
   2  -5 -12  233.11    3.34
   2  -5 -12  225.92    2.77
   2  -5 -12  225.05    3.01
  -2   5  11    8.86    0.68
  -2   5  11    8.09    1.12
   2  -5 -11    9.36    0.84
   2  -5 -11    9.62    0.72
   2  -5 -11    9.30    0.68
  -2   5  10    2.67    0.75
  -2   5  10    2.19    0.62
   2  -5 -10    2.27    0.40
   2  -5 -10    2.02    0.53
   2  -5 -10    1.81    0.46
  -2   5   9  713.26   10.11
   2  -5  -9  719.80    6.18
   2  -5  -9  728.00    5.89
  -2   5   9  714.12    5.03
  -2   5   8  268.14    6.01
   2  -5  -8  267.33    3.72
  -2   5   8  270.37    6.18
  -2   5   7  257.18    5.82
   2  -5  -7  255.90    3.57
   2  -5  -7  262.15    2.91
   2  -5  -7  263.09    3.27
   2  -5  -7  250.50    6.40
  -2   5   7  263.63    6.05
  -2   5   6  726.04    9.57
  -2   5   6  729.15    8.84
   2  -5  -6  695.86    5.66
   2  -5  -6  713.38    4.75
   2  -5  -6  725.85    5.43
  -2   5   6  732.34    9.97
   2  -5  -6  708.82   10.97
  -2   5   5   77.98    3.17
  -2   5   5   77.73    2.86
   2  -5  -5   76.91    1.57
   2  -5  -5   78.01    1.96
   2  -5  -5   78.16    1.83
   2  -5  -5   77.87    1.95
   2  -5  -5   76.86    1.83
  -2   5   5   80.20    2.94
   2  -5  -5   74.59    3.63
  -2   5   4   56.73    2.43
  -2   5   4   55.56    2.68
   2  -5  -4   58.90    1.71
   2  -5  -4   55.91    1.35
   2  -5  -4   59.82    1.68
  -2   5   4   55.42    2.49
   2  -5  -4   64.68    1.71
   2  -5  -4   53.92    3.16
  -2   5   3   80.60    2.90
   2  -5  -3   82.00    1.95
   2  -5  -3   81.60    1.97
   2  -5  -3   80.71    1.62
   2  -5  -3   78.67    3.98
   2  -5  -3   85.20    2.03
  -2   5   3   80.43    2.97
  -2   5   2  364.64    6.06
   2  -5  -2  368.61    3.42
   2  -5  -2  365.16    3.98
   2  -5  -2  367.55    4.15
   2  -5  -2  379.37    4.40
  -2   5   2  357.82    6.33
   2  -5  -2  369.53    8.85
  -2   5   1  245.09    4.91
  -2   5   1  254.45    5.07
   2  -5  -1  246.73    3.60
   2  -5  -1  234.75    7.15
  -2   5   1  239.72    5.27
   2  -5  -1  250.83    2.86
   2  -5  -1  237.35    3.21
   2  -5  -1  252.21    3.44
  -2   5   0  386.70    6.33
  -2   5   0  378.67    6.24
   2  -5   0  385.09    4.49
   2  -5   0  372.62    8.99
  -2   5   0  369.36    6.00
  -2   5   0  381.50    6.73
  -2   5   0  371.83    8.25
   2  -5   0  395.25    4.11
   2  -5   0  388.23    4.29
   2  -5   0  384.73    3.60
   2  -5   0  387.35    4.23
  -2   5  -1  171.03    4.28
  -2   5  -1  171.47    4.24
   2  -5   1  173.78    2.99
   2  -5   1  175.54    6.08
  -2   5  -1  169.79    4.10
  -2   5  -1  174.68    5.68
   2  -5   1  173.64    2.48
   2  -5   1  177.16    2.96
   2  -5   1  171.20    2.90
  -2   5  -2   54.64    2.46
  -2   5  -2   53.78    2.47
   2  -5   2   54.44    1.67
  -2   5  -2   52.11    3.24
  -2   5  -2   53.00    2.31
   2  -5   2   54.62    3.36
   2  -5   2   50.80    1.38
   2  -5   2   52.91    1.67
   2  -5   2   53.90    1.69
  -2   5  -3  347.00    6.18
  -2   5  -3  364.16    6.44
  -2   5  -3  372.14    8.34
  -2   5  -3  373.11    6.02
   2  -5   3  360.62    4.03
   2  -5   3  335.69    7.91
   2  -5   3  363.76    4.39
   2  -5   3  353.81    3.65
   2  -5   3  353.94    4.37
  -2   5  -4  523.91    7.56
  -2   5  -4  530.43    7.88
  -2   5  -4  537.00   10.15
  -2   5  -4  516.78    3.73
   2  -5   4  509.70    5.36
   2  -5   4  508.96    4.49
   2  -5   4  519.05    5.45
  -2   5  -5   35.63    2.00
  -2   5  -5   35.51    2.13
  -2   5  -5   35.45    1.04
   2  -5   5   33.14    1.46
   2  -5   5   33.77    1.22
   2  -5   5   35.61    1.51
  -2   5  -6  449.09    6.74
  -2   5  -6  442.93    7.27
  -2   5  -6  428.04    3.63
   2  -5   6  433.79    5.05
  -2   5  -6  435.51    3.82
   2  -5   6  430.69    3.99
   2  -5   6  434.98    5.04
  -2   5  -7    4.10    0.83
  -2   5  -7    5.21    0.50
   2  -5   7    4.52    0.48
   2  -5   7    4.63    0.66
  -2   5  -7    5.62    0.52
   2  -5   7    5.53    0.75
  -2   5  -8  181.60    4.54
  -2   5  -8  182.05    2.38
   2  -5   8  185.11    2.36
   2  -5   8  188.15    3.17
   2  -5   8  180.84    3.20
  -2   5  -8  186.45    2.53
  -2   5  -9   80.62    1.56
  -2   5  -9   82.06    1.50
   2  -5   9   79.76    1.94
   2  -5   9   82.08    2.09
  -2   5 -10   29.86    0.88
  -2   5 -10   30.09    0.92
   2  -5  10   31.17    1.09
   2  -5  10   28.72    1.20
  -2   5 -11  134.97    1.75
  -2   5 -11  135.28    1.61
   2  -5  11  137.09    2.23
  -2   5 -12   29.10    0.73
  -2   5 -12   29.41    0.61
   2  -5  12   29.97    0.90
  -2   4  17  207.04    1.74
   2  -4 -17  205.96    1.68
   2  -4 -16   10.33    0.55
  -2   4  16   10.80    0.54
  -2   4  15    0.58    0.26
   2  -4 -15    0.29    0.32
  -2   4  14   -0.04    0.23
  -2   4  14    0.38    0.21
   2  -4 -14    0.38    0.35
   2  -4 -14   -0.03    0.24
  -2   4  14    0.11    0.30
   2  -4 -14   -0.01    0.40
  -2   4  13  117.92    2.21
   2  -4 -13  118.69    2.16
   2  -4 -13  115.30    2.25
  -2   4  13  117.04    2.10
  -2   4  12  120.56    2.30
  -2   4  12  122.69    4.30
   2  -4 -12  122.06    2.51
   2  -4 -12  118.21    2.35
  -2   4  11  697.68    5.51
  -2   4  11  701.38   10.41
   2  -4 -11  700.53    6.09
   2  -4 -11  705.12    5.24
   2  -4 -11  691.99    5.70
  -2   4  10  190.65    2.88
  -2   4  10  184.50    5.32
   2  -4 -10  190.30    2.88
   2  -4 -10  193.23    3.22
   2  -4 -10  188.93    2.94
  -2   4  10  186.21    5.14
  -2   4  10  188.21    5.36
   2  -4  -9  122.98    2.52
   2  -4  -9  123.35    2.35
   2  -4  -9  118.48    2.30
  -2   4   9  115.01    4.36
  -2   4   9  118.98    4.05
  -2   4   8  438.69    7.28
   2  -4  -8  444.09    4.63
   2  -4  -8  453.12    4.42
  -2   4   8  451.15    7.68
  -2   4   7 1398.92   12.59
   2  -4  -7 1411.82    7.86
  -2   4   7 1379.10   13.17
   2  -4  -7 1405.48   13.95
   2  -4  -6  191.04    5.25
  -2   4   6  187.53    4.78
  -2   4   6  195.42    4.63
  -2   4   6  191.12    4.07
  -2   4   5  349.30    5.72
   2  -4  -5  345.72    7.07
  -2   4   5  348.44    6.07
  -2   4   5  343.04    5.35
   2  -4  -4  113.28    4.06
  -2   4   4  114.25    3.29
  -2   4   4  111.45    3.06
   2  -4  -3  609.70    9.45
  -2   4   3  595.05    7.57
  -2   4   3  590.25    7.01
  -2   4   2  204.13    4.17
   2  -4  -2  213.75    5.79
  -2   4   2  198.88    4.48
  -2   4   2  205.23    4.15
  -2   4   2  206.21    3.80
  -2   4   1  564.01    7.06
   2  -4  -1  590.19    9.91
  -2   4   1  571.58    7.02
  -2   4   1  574.19    6.62
   2  -4   0   33.30    2.49
  -2   4   0   32.68    1.76
  -2   4   0   33.15    1.68
   2  -4   1   17.59    1.76
  -2   4  -1   18.29    1.35
  -2   4  -1   17.98    1.77
  -2   4  -1   16.83    1.32
  -2   4  -2  112.90    3.37
   2  -4   2  110.77    4.29
  -2   4  -2  106.80    4.15
  -2   4  -2  115.91    3.22
  -2   4  -3   62.09    3.27
  -2   4  -3   62.20    2.40
   2  -4   3   61.69    3.17
  -2   4  -3   58.04    2.49
  -2   4  -3   61.32    2.46
  -2   4  -4  358.26    6.02
  -2   4  -4  358.92    7.76
  -2   4  -4  345.28    5.99
   2  -4   4  353.48    7.29
   2  -4   4  357.81    4.05
   2  -4   4  358.75    3.58
   2  -4   4  365.76    4.00
   2  -4   4  363.83    4.19
  -2   4  -5 1881.68   14.14
  -2   4  -5 1900.00   14.02
  -2   4  -5 1909.45    6.83
   2  -4   5 1898.27    9.59
   2  -4   5 1919.69    9.48
   2  -4   5 1925.83    8.45
   2  -4   5 1930.84    9.96
  -2   4  -6  939.35   10.19
  -2   4  -6  932.25    5.04
   2  -4   6  941.81    7.05
  -2   4  -6  946.22    5.40
   2  -4   6  926.90    6.05
   2  -4   6  919.51    6.91
   2  -4   6  928.10    7.28
  -2   4  -7  277.68    5.60
  -2   4  -7  281.83    7.23
  -2   4  -7  272.46    2.84
   2  -4   7  275.58    3.91
  -2   4  -7  268.71    3.03
   2  -4   7  273.05    3.28
   2  -4   7  279.72    3.86
   2  -4   7  270.93    4.04
  -2   4  -8  145.97    4.08
  -2   4  -8  147.02    2.13
   2  -4   8  149.92    2.90
  -2   4  -8  145.69    2.31
   2  -4   8  148.02    2.83
   2  -4   8  146.95    2.36
   2  -4   8  149.37    3.00
  -2   4  -9  102.89    3.42
  -2   4  -9  107.13    1.82
   2  -4   9  106.83    2.39
  -2   4  -9  103.29    1.96
   2  -4   9  106.39    1.90
   2  -4   9  103.79    2.36
   2  -4   9  103.96    2.49
  -2   4 -10  138.53    3.74
  -2   4 -10  139.04    2.05
   2  -4  10  140.03    2.57
  -2   4 -10  139.67    2.21
   2  -4  10  140.53    2.59
   2  -4  10  140.81    2.81
  -2   4 -11   76.76    1.48
  -2   4 -11   75.04    1.57
   2  -4  11   77.78    1.81
   2  -4  11   77.41    1.97
  -2   4 -12   71.35    1.33
  -2   4 -12   69.21    1.16
  -2   4 -12   72.11    1.43
   2  -4  12   71.21    1.73
  -2   4 -13  130.78    1.59
   2  -4  13  131.05    2.00
  -2   4 -14   17.86    0.50
   2  -4  14   18.84    0.61
  -2   3  17    7.92    0.41
   2  -3 -17    8.68    0.41
  -2   3  16    0.54    0.30
   2  -3 -16    0.50    0.29
  -2   3  15  140.89    2.16
   2  -3 -15  143.55    2.26
  -2   3  14   48.66    1.43
  -2   3  14   49.05    1.23
   2  -3 -14   49.47    1.23
   2  -3 -14   49.83    1.50
  -2   3  14   47.08    1.30
  -2   3  13   31.22    1.19
   2  -3 -13   32.64    1.14
   2  -3 -13   31.17    1.15
   2  -3 -13   32.18    1.29
  -2   3  13   31.66    1.14
   2  -3 -13   33.47    1.33
  -2   3  12   21.65    1.02
   2  -3 -12   21.73    0.95
  -2   3  12   21.48    1.86
   2  -3 -12   21.59    1.05
   2  -3 -12   20.46    1.08
  -2   3  12   21.10    0.96
  -2   3  11 1380.57    7.71
   2  -3 -11 1387.42    7.47
  -2   3  11 1382.99   14.62
   2  -3 -11 1371.81    8.39
   2  -3 -11 1376.93    8.18
  -2   3  11 1366.19   13.87
  -2   3  10   22.65    1.02
   2  -3 -10   21.76    0.96
  -2   3  10   21.41    1.88
   2  -3 -10   22.56    1.12
   2  -3 -10   21.82    0.95
   2  -3 -10   21.47    1.05
  -2   3  10   21.01    1.77
  -2   3  10   21.10    1.82
  -2   3   9   13.38    0.82
   2  -3  -9   12.79    0.86
   2  -3  -9   13.03    0.81
  -2   3   9   13.02    1.43
  -2   3   9   10.31    1.28
  -2   3   8  101.00    3.26
   2  -3  -8  105.00    2.18
   2  -3  -8  106.99    2.03
  -2   3   8   99.99    3.45
   2  -3  -7   35.07    2.03
  -2   3   7   34.84    2.01
  -2   3   7   36.94    1.94
   2  -3  -6   31.21    1.95
  -2   3   6   29.17    1.83
  -2   3   6   29.51    1.71
  -2   3   6   30.27    1.47
   2  -3  -5   11.53    1.28
  -2   3   5   11.75    0.95
  -2   3   5   11.61    1.12
   2  -3  -4  743.28    9.28
  -2   3   4  749.40    7.79
  -2   3   4  744.50    6.95
  -2   3   3  100.81    2.94
  -2   3   3   97.15    2.62
  -2   3   3   99.08    2.58
  -2   3   2   59.28    2.11
   2  -3  -2   60.25    2.73
  -2   3   2   59.86    1.78
  -2   3   1  541.80    6.50
  -2   3   1  524.79    5.90
   2  -3  -1  545.76    8.15
  -2   3   1  518.45    5.56
  -2   3   0 1127.14    8.87
  -2   3   0 1115.39    9.49
  -2   3   0 1114.88    7.93
   2  -3   0 1136.87   11.84
  -2   3   0 1109.00    6.90
  -2   3  -1 1312.57    8.84
  -2   3  -1 1296.50    9.90
   2  -3   1 1285.12   12.71
  -2   3  -1 1296.56   12.24
  -2   3  -1 1296.93    8.01
  -2   3  -2   30.12    1.58
  -2   3  -2   31.44    1.45
   2  -3   2   28.85    1.97
  -2   3  -2   31.31    2.03
  -2   3  -2   30.64    1.36
  -2   3  -3   20.41    1.74
  -2   3  -3   19.58    1.34
  -2   3  -3   18.34    1.15
  -2   3  -4 1424.11   13.99
  -2   3  -4 1416.85   11.20
   2  -3   4 1367.69   13.05
  -2   3  -4 1389.02    9.82
   2  -3   5   11.37    1.23
  -2   3  -5    9.64    1.03
  -2   3  -5   11.06    1.03
  -2   3  -6  151.95    3.93
  -2   3  -6  154.23    3.59
   2  -3   6  156.98    2.43
   2  -3   6  155.00    2.65
   2  -3   6  157.40    2.76
  -2   3  -7  333.87    7.53
  -2   3  -7  335.14    5.77
  -2   3  -7  337.93    5.54
  -2   3  -7  335.69    3.19
   2  -3   7  334.43    3.64
   2  -3   7  338.49    4.10
   2  -3   7  347.14    3.99
   2  -3   7  341.73    4.24
  -2   3  -8  143.65    5.11
  -2   3  -8  143.75    4.04
  -2   3  -8  141.87    2.20
   2  -3   8  140.51    2.78
   2  -3   8  141.15    2.41
   2  -3   8  144.77    2.69
   2  -3   8  140.34    2.90
  -2   3  -9    2.18    0.64
  -2   3  -9    3.45    0.43
  -2   3  -9    3.36    0.39
  -2   3  -9    3.11    0.45
   2  -3   9    3.33    0.62
   2  -3   9    3.48    0.50
   2  -3   9    2.97    0.49
   2  -3   9    3.01    0.59
  -2   3 -10    1.27    0.54
  -2   3 -10    0.00    0.31
  -2   3 -10    0.84    0.37
   2  -3  10    1.07    0.36
   2  -3  10    0.43    0.35
   2  -3  10   -0.22    0.50
   2  -3  10    0.47    0.48
  -2   3 -11    5.34    0.79
  -2   3 -11    5.83    0.51
  -2   3 -11    6.05    0.57
   2  -3  11    6.09    0.50
   2  -3  11    6.71    0.73
   2  -3  11    7.07    0.65
   2  -3  11    5.71    0.75
  -2   3 -12    5.25    0.46
  -2   3 -12    5.44    0.49
  -2   3 -12    6.41    0.58
  -2   3 -12    5.39    0.45
   2  -3  12    5.92    0.66
   2  -3  12    4.85    0.52
   2  -3  12    5.63    0.69
  -2   3 -13    2.32    0.33
  -2   3 -13    2.65    0.37
  -2   3 -13    2.84    0.42
  -2   3 -13    1.89    0.31
   2  -3  13    2.75    0.45
   2  -3  13    2.40    0.50
  -2   3 -14   25.39    0.73
  -2   3 -14   26.05    0.74
  -2   3 -14   26.26    0.80
  -2   3 -14   24.86    0.71
   2  -3  14   26.26    0.86
   2  -3  14   25.88    0.94
  -2   3 -15   15.71    0.47
   2  -3  15   16.68    0.60
  -2   2  17   48.51    0.87
  -2   2  17   49.20    0.96
   2  -2 -17   49.12    0.92
   2  -2 -16    0.39    0.22
  -2   2  16    0.38    0.29
   2  -2 -16   -0.07    0.28
  -2   2  15   -0.16    0.24
   2  -2 -15    0.03    0.26
  -2   2  15    0.03    0.35
   2  -2 -15    0.04    0.37
  -2   2  14   27.69    1.11
  -2   2  14   26.33    0.95
   2  -2 -14   27.34    1.01
   2  -2 -14   26.81    0.88
   2  -2 -14   27.99    1.17
  -2   2  13  317.47    3.73
   2  -2 -13  309.19    3.63
  -2   2  13  313.44    3.32
  -2   2  13  309.46    6.89
   2  -2 -13  306.86    3.48
   2  -2 -13  320.73    3.96
   2  -2 -13  312.49    3.40
   2  -2 -13  315.47    3.89
  -2   2  12    0.07    0.34
   2  -2 -12    0.73    0.35
  -2   2  12    1.01    0.62
   2  -2 -12   -0.07    0.46
   2  -2 -12   -0.10    0.36
   2  -2 -12   -0.11    0.33
  -2   2  12    1.11    0.36
   2  -2 -12   -0.08    0.41
  -2   2  11   75.42    1.81
   2  -2 -11   77.47    1.88
  -2   2  11   72.42    3.37
  -2   2  11   75.25    3.27
   2  -2 -11   77.03    1.89
   2  -2 -11   75.42    1.79
   2  -2 -11   72.52    1.93
  -2   2  11   74.89    1.67
  -2   2  10    6.36    0.61
   2  -2 -10    6.56    0.62
  -2   2  10    6.11    1.14
   2  -2 -10    6.82    0.62
   2  -2 -10    6.24    0.67
  -2   2  10    3.99    0.88
  -2   2   9 1204.25    6.56
   2  -2  -9 1216.74    7.14
  -2   2   9 1209.06   12.74
   2  -2  -9 1207.70    7.32
   2  -2  -9 1201.34    7.12
  -2   2   9 1182.15   11.82
  -2   2   9 1183.11   12.74
  -2   2   8   60.15    2.57
  -2   2   8   56.69    2.75
   2  -2  -8   56.02    1.48
  -2   2   8   55.50    2.68
  -2   2   7   72.53    2.71
  -2   2   7   69.82    2.42
   2  -2  -7   72.05    1.55
   2  -2  -6   18.34    1.37
  -2   2   6   18.54    1.37
  -2   2   6   21.89    1.37
   2  -2  -6   18.82    0.74
   2  -2  -5    7.45    0.95
  -2   2   5    6.75    0.76
  -2   2   5    5.81    0.74
   2  -2  -5    6.52    0.41
  -2   2   5    8.75    0.68
   2  -2  -4 1886.07   13.45
  -2   2   4 1884.52   10.27
  -2   2   4 1869.28   11.25
  -2   2   4 1874.70    9.57
  -2   2   3  585.54    5.01
  -2   2   3  589.21    5.91
  -2   2   3  582.15    6.42
  -2   2   3  592.51    4.66
   2  -2  -3  587.92    7.50
  -2   2   2 1188.14    7.54
  -2   2   2 1209.91    8.77
  -2   2   2 1199.32    7.96
   2  -2  -2 1196.55   10.56
  -2   2   2 1199.91    7.11
  -2   2   1 2798.66   13.89
  -2   2   1 2835.56   12.94
  -2   2   1 2813.38   12.08
  -2   2   1 2814.63   11.66
   2  -2  -1 2820.57   16.29
  -2   2   0  644.02    5.96
  -2   2   0  680.09    4.80
  -2   2   0  654.29    6.53
  -2   2   0  658.05    5.30
  -2   2   0  642.15    5.89
   2  -2   0  655.96    7.91
  -2   2   0  668.03    5.37
   2  -2   1  937.64    9.50
  -2   2  -1  922.83    8.01
  -2   2  -1  920.32    7.27
  -2   2  -1  925.60    7.36
  -2   2  -1  926.09    8.98
  -2   2  -1  923.64    6.84
  -2   2  -2 1531.15   10.60
  -2   2  -2 1531.40    9.70
   2  -2   2 1559.96   12.29
  -2   2  -2 1560.40   12.08
   2  -2   3  972.41    9.83
  -2   2  -3  975.52    9.83
  -2   2  -3  950.93    7.83
  -2   2  -3  957.24    7.78
  -2   2  -4   25.74    1.74
  -2   2  -4   24.65    1.34
  -2   2  -4   26.83    1.40
   2  -2   5   77.69    2.78
  -2   2  -5   70.97    2.27
  -2   2  -5   79.42    2.44
  -2   2  -6  131.82    4.22
  -2   2  -6  131.43    3.61
  -2   2  -6  138.87    3.23
  -2   2  -6  137.00    3.27
   2  -2   6  137.73    2.37
  -2   2  -6  135.18    1.59
  -2   2  -7  192.55    5.35
  -2   2  -7  205.55    4.63
  -2   2  -7  197.99    3.88
  -2   2  -7  199.25    4.08
   2  -2   7  195.52    2.99
  -2   2  -7  195.83    2.06
  -2   2  -8  737.47   11.01
  -2   2  -8  750.52    8.83
  -2   2  -8  744.24    8.07
   2  -2   8  770.40    6.18
  -2   2  -8  739.93    4.32
  -2   2  -8  747.22    4.24
   2  -2   8  754.19    6.10
   2  -2   8  766.27    6.21
  -2   2  -9   78.45    3.73
  -2   2  -9   80.86    2.78
   2  -2   9   81.09    2.14
  -2   2  -9   82.08    1.54
  -2   2  -9   82.00    1.50
   2  -2   9   80.80    2.18
   2  -2   9   77.98    2.11
  -2   2 -10   16.09    1.75
   2  -2  10   14.58    1.00
  -2   2 -10   16.69    1.36
  -2   2 -10   14.87    0.80
  -2   2 -10   15.97    0.74
   2  -2  10   15.49    0.87
   2  -2  10   15.09    1.03
   2  -2  10   15.88    1.08
   2  -2  11  601.21    5.99
  -2   2 -11  597.88    7.89
  -2   2 -11  604.34    4.60
  -2   2 -11  596.83    4.32
   2  -2  11  598.83    4.81
   2  -2  11  600.22    5.79
   2  -2  11  602.97    6.07
  -2   2 -12    0.91    0.35
  -2   2 -12    2.30    0.48
  -2   2 -12    0.72    0.37
   2  -2  12    0.72    0.31
   2  -2  12    0.86    0.52
   2  -2  12    0.38    0.49
  -2   2 -13   22.28    0.81
  -2   2 -13   22.33    0.92
   2  -2  13   22.26    1.10
   2  -2  13   22.33    1.15
  -2   2 -14   45.57    1.05
  -2   2 -14   44.73    1.15
   2  -2  14   46.16    1.37
   2  -2  14   44.35    1.40
  -2   2 -15    2.35    0.28
  -2   2 -15    2.39    0.28
  -2   2 -15    2.85    0.34
  -2   2 -15    2.42    0.31
   2  -2  15    2.76    0.40
   2  -2  15    2.68    0.37
  -2   2 -16   22.42    0.55
   2  -2  16   22.58    0.61
   2  -2  16   23.75    0.65
  -2   1  17    2.85    0.25
   2  -1 -17    2.80    0.25
  -2   1  17    3.05    0.28
   2  -1 -16   23.34    0.78
  -2   1  16   21.82    0.81
   2  -1 -16   24.56    0.83
  -2   1  15   35.66    1.02
   2  -1 -15   36.10    1.11
  -2   1  15   34.99    1.13
   2  -1 -15   35.40    1.15
  -2   1  14  108.67    2.15
  -2   1  14  108.89    1.92
   2  -1 -14  109.63    2.07
  -2   1  14  110.60    2.11
   2  -1 -14  111.41    2.19
  -2   1  13    9.70    0.72
   2  -1 -13    8.89    0.71
  -2   1  13    9.77    0.67
  -2   1  13   10.78    1.27
   2  -1 -13    9.54    0.72
   2  -1 -13   11.04    0.65
   2  -1 -13    9.45    0.79
  -2   1  12  658.04    5.42
   2  -1 -12  650.40    5.46
  -2   1  12  659.87    4.97
  -2   1  12  649.21   10.27
   2  -1 -12  651.58    5.42
   2  -1 -12  657.10    5.05
   2  -1 -12  657.93    5.68
  -2   1  11  598.20    4.99
   2  -1 -11  593.13    5.22
  -2   1  11  584.78    9.98
   2  -1 -11  579.75    5.45
   2  -1 -11  592.24    5.11
   2  -1 -11  592.10    4.96
   2  -1 -11  590.03    5.40
  -2   1  10  795.53    5.53
   2  -1 -10  799.46    5.98
  -2   1  10  791.89   10.72
  -2   1  10  786.45   11.55
   2  -1 -10  796.14    5.79
   2  -1 -10  805.66    5.82
   2  -1 -10  807.21    6.13
   2  -1 -10  784.92    6.13
  -2   1   9   74.25    1.62
   2  -1  -9   74.31    1.82
  -2   1   9   73.24    3.17
   2  -1  -9   73.69    1.74
   2  -1  -9   74.72    1.80
  -2   1   9   69.79    3.01
  -2   1   8   22.31    1.55
  -2   1   8   24.77    0.90
   2  -1  -8   23.52    1.03
  -2   1   8   22.70    1.74
  -2   1   7  225.76    5.09
  -2   1   7  227.31    4.43
  -2   1   7  226.43    2.48
   2  -1  -7  230.51    2.88
  -2   1   7  225.92    4.93
  -2   1   6 1630.58   13.03
   2  -1  -6 1633.63   10.96
  -2   1   6 1587.50   11.19
  -2   1   6 1597.80    9.78
   2  -1  -6 1562.54    6.98
   2  -1  -5  160.36    3.60
  -2   1   5  160.76    3.41
  -2   1   5  167.34    3.00
  -2   1   5  165.60    3.03
   2  -1  -5  162.68    2.04
   2  -1  -4    2.21    0.54
   2  -1  -4    0.99    0.37
  -2   1   4    2.13    0.38
  -2   1   4    1.17    0.40
   2  -1  -3  590.61    6.93
  -2   1   3  587.65    4.77
  -2   1   3  595.02    5.39
   2  -1  -3  595.73    5.95
  -2   1   3  594.56    5.85
   2  -1  -2  488.54    6.29
  -2   1   2  477.93    4.76
  -2   1   2  488.54    5.11
   2  -1  -2  490.73    5.44
   2  -1  -1   76.18    2.51
  -2   1   1   73.20    2.07
   2  -1  -1   75.42    2.17
   2  -1   0 3117.10   15.88
  -2   1   0 3129.99   13.64
   2  -1   0 3158.74   13.81
  -2   1   0 3149.12   13.28
   2  -1   1 2112.27   13.03
  -2   1  -1 2087.45   11.36
  -2   1  -1 2112.48   10.03
   2  -1   1 2106.68   11.23
  -2   1  -1 2098.92   11.37
  -2   1  -2   46.61    1.80
   2  -1   2   45.58    1.97
  -2   1  -2   47.56    1.46
  -2   1  -2   47.71    1.47
  -2   1  -2   46.22    1.75
   2  -1   2   45.48    1.69
  -2   1  -3 1522.96   10.80
   2  -1   3 1510.48   11.28
  -2   1  -3 1555.03    7.75
  -2   1  -3 1551.96   10.12
   2  -1   3 1522.38    9.43
   2  -1   4   28.12    1.57
  -2   1  -4   29.41    1.45
  -2   1  -4   31.14    1.24
  -2   1  -5 1001.06    9.88
   2  -1   5 1015.85    9.11
  -2   1  -5 1015.44    7.73
  -2   1  -5  971.57    8.43
   2  -1   5  983.38    5.27
  -2   1  -5 1010.87    4.01
  -2   1  -6  979.26   10.47
   2  -1   6 1003.86    8.68
  -2   1  -6  925.98    8.47
   2  -1   6  984.50   11.90
  -2   1  -6  976.43    8.85
   2  -1   6  948.03    5.54
  -2   1  -6  957.43    4.23
  -2   1  -7   17.61    1.57
   2  -1   7   18.71    1.90
  -2   1  -7   19.69    1.29
  -2   1  -7   18.09    1.36
   2  -1   7   17.86    0.86
  -2   1  -7   19.28    0.65
  -2   1  -7   18.12    0.66
   2  -1   7   19.31    1.72
  -2   1  -8    2.06    0.75
   2  -1   8    1.65    0.83
  -2   1  -8    2.04    0.49
   2  -1   8    0.98    0.68
  -2   1  -8    1.12    0.60
   2  -1   8    3.41    0.49
  -2   1  -8    1.75    0.29
  -2   1  -8    1.53    0.31
  -2   1  -9    0.23    0.57
  -2   1  -9    0.37    0.36
   2  -1   9    0.58    0.68
   2  -1   9    0.13    0.78
  -2   1  -9    0.25    0.58
   2  -1   9    0.10    0.36
  -2   1  -9    2.65    0.37
   2  -1   9    0.44    0.39
   2  -1   9    0.43    0.38
  -2   1 -10  228.70    6.28
   2  -1  10  221.88    7.27
  -2   1 -10  226.57    4.61
   2  -1  10  229.68    3.50
  -2   1 -10  225.38    2.57
   2  -1  10  228.58    6.98
   2  -1  10  217.36    3.50
  -2   1 -10  227.31    2.54
  -2   1 -11  471.83    9.17
   2  -1  11  461.32   10.68
   2  -1  11  464.17    5.13
  -2   1 -11  464.71    3.79
   2  -1  11  463.04   10.19
  -2   1 -11  458.33    6.63
   2  -1  11  464.68    5.18
  -2   1 -11  460.54    3.76
   2  -1  12   38.73    1.53
   2  -1  12   39.25    1.57
  -2   1 -12   39.37    1.16
   2  -1  12   40.47    1.59
   2  -1  13  747.87    6.38
   2  -1  13  744.01    6.31
  -2   1 -13  745.27    4.81
  -2   1 -13  745.12    5.03
   2  -1  13  749.21    5.05
   2  -1  13  748.50    6.41
   2  -1  14   16.38    0.94
  -2   1 -14   16.80    0.68
  -2   1 -14   17.08    0.80
  -2   1 -14   15.71    0.74
   2  -1  14   16.49    0.99
   2  -1  14   17.00    0.98
  -2   1 -15   79.60    1.28
  -2   1 -15   83.58    1.48
   2  -1  15   81.21    1.77
   2  -1  15   79.43    1.74
  -2   1 -16   -0.06    0.18
  -2   1 -16    0.26    0.16
  -2   1 -16    0.11    0.21
  -2   1 -16    0.00    0.21
   2  -1  16    0.20    0.26
   2  -1  16    0.01    0.23
  -2   1 -17    2.04    0.20
   2   0 -16   10.40    0.54
  -2   0  16   10.19    0.54
   2   0 -16   10.27    0.52
  -2   0  16   10.48    0.56
   2   0 -15    0.04    0.32
   2   0 -15    0.57    0.34
  -2   0  15    0.01    0.29
  -2   0  14   24.36    0.94
   2   0 -14   23.90    1.01
  -2   0  14   24.56    1.02
   2   0 -14   25.31    1.06
  -2   0  13  312.80    3.70
  -2   0  13  320.81    3.45
   2   0 -13  320.91    3.74
   2   0 -13  319.14    3.01
  -2   0  13  313.18    3.64
   2   0 -13  317.91    3.79
  -2   0  12   53.19    1.56
   2   0 -12   56.80    1.67
  -2   0  12   54.73    1.49
  -2   0  12   54.07    2.94
   2   0 -12   53.98    1.62
   2   0 -12   56.05    1.41
  -2   0  12   54.52    1.57
   2   0 -12   55.49    1.67
  -2   0  11    4.66    0.54
   2   0 -11    3.17    0.54
  -2   0  11    2.51    0.70
  -2   0  11    3.80    0.91
   2   0 -11    2.91    0.44
   2   0 -11    3.47    0.54
   2   0 -11    3.25    0.54
  -2   0  10   27.49    1.07
   2   0 -10   26.51    1.15
  -2   0  10   24.71    2.00
  -2   0  10   27.77    2.15
  -2   0  10   28.68    2.22
   2   0 -10   27.12    1.16
   2   0 -10   27.30    1.08
   2   0 -10   26.80    1.17
  -2   0   9   15.47    0.77
  -2   0   9   15.65    1.54
  -2   0   9   14.62    1.53
   2   0  -9   16.45    0.87
   2   0  -9   16.60    0.84
   2   0  -9   15.11    0.86
  -2   0   8  298.40    6.52
  -2   0   8  298.27    5.89
  -2   0   8  307.14    3.02
   2   0  -8  318.42    3.60
  -2   0   8  310.87    6.07
  -2   0   7  295.39    6.18
  -2   0   7  304.27    5.72
  -2   0   7  300.44    2.77
   2   0  -7  291.91    3.30
   2   0  -6  668.67    5.91
  -2   0   6  662.63    6.76
  -2   0   6  669.62    8.13
  -2   0   6  640.71    3.75
   2   0  -6  648.26    4.59
  -2   0   6  645.03    7.78
  -2   0   5   36.31    1.55
   2   0  -5   36.56    1.50
  -2   0   5   35.94    1.86
   2   0  -5   36.62    1.04
  -2   0   5   36.76    0.83
  -2   0   5   35.40    1.74
  -2   0   4   31.14    1.34
   2   0  -4   28.10    1.43
  -2   0   4   28.57    1.28
  -2   0   4   29.30    1.10
   2   0  -4   27.15    1.35
  -2   0   4   24.92    1.49
  -2   0   3  444.69    4.32
   2   0  -3  434.69    5.53
  -2   0   3  441.73    3.66
  -2   0   3  444.12    4.07
  -2   0   3  434.64    4.36
   2   0  -3  431.57    5.35
  -2   0   2  227.35    2.48
   2   0  -2  222.60    3.99
   2   0  -2  222.24    3.88
   2   0  -1  202.76    3.81
   2   0  -1  203.65    3.70
   2   0   0  901.04    7.80
  -2   0   0  908.86    4.97
  -2   0  -1  115.55    2.66
   2   0   1  109.43    2.81
   2   0   1  106.17    2.71
   2   0   2  164.83    3.43
  -2   0  -2  151.94    2.99
  -2   0  -2  162.53    2.72
  -2   0  -2  164.12    2.38
  -2   0  -2  157.37    2.97
  -2   0  -2  161.21    2.61
   2   0   2  160.71    3.28
  -2   0  -3   68.35    2.02
   2   0   3   70.26    2.28
  -2   0  -3   70.16    1.99
  -2   0  -3   68.35    1.90
  -2   0  -3   68.65    2.18
   2   0   3   73.38    2.23
  -2   0  -4   11.11    0.93
   2   0   4   10.95    0.69
  -2   0  -4   10.51    0.83
  -2   0  -4   10.57    0.82
   2   0   4   11.14    0.96
   2   0   4   10.69    0.87
  -2   0  -4   11.32    0.39
  -2   0  -5  688.56    7.50
   2   0   5  707.17    6.37
  -2   0  -5  675.36    6.66
   2   0   5  688.57    8.53
  -2   0  -5  691.02    7.04
   2   0   5  686.17    6.90
   2   0   5  665.56    6.41
   2   0   5  684.77    3.74
  -2   0  -5  684.54    3.10
  -2   0  -6   33.33    1.86
   2   0   6   35.68    1.64
  -2   0  -6   36.19    1.66
  -2   0  -6   32.79    1.59
   2   0   6   34.75    1.39
   2   0   6   30.71    2.05
   2   0   6   33.55    0.94
  -2   0  -6   34.29    0.77
  -2   0  -6   34.48    0.84
  -2   0  -7   90.86    3.24
   2   0   7   99.09    3.05
   2   0   7   91.51    3.70
  -2   0  -7   93.87    2.83
   2   0   7   96.33    1.73
  -2   0  -7   92.65    1.31
  -2   0  -7   94.76    2.69
  -2   0  -7   92.35    1.43
   2   0   7   99.69    3.29
  -2   0  -8   55.66    2.72
   2   0   8   57.49    2.61
  -2   0  -8   55.02    2.31
   2   0   8   56.62    3.15
  -2   0  -8   58.97    2.21
  -2   0  -8   62.86    2.42
  -2   0  -8   58.16    2.31
   2   0   8   57.48    1.48
  -2   0  -8   58.47    1.19
   2   0   8   64.58    2.95
  -2   0  -9    2.15    0.80
   2   0   9    1.01    0.54
   2   0   9    0.84    0.87
  -2   0  -9    0.48    0.38
   2   0   9    1.76    0.88
  -2   0  -9    0.08    0.53
   2   0   9    0.06    0.30
  -2   0  -9    0.38    0.28
  -2   0  -9    0.25    0.26
  -2   0 -10   35.59    2.48
   2   0  10   32.73    2.75
  -2   0 -10   33.07    1.82
   2   0  10   34.47    1.33
  -2   0 -10   34.24    1.01
  -2   0 -10   33.02    1.01
   2   0  10   32.58    1.37
   2   0  10   34.19    1.31
  -2   0 -11   48.60    2.99
   2   0  11   50.80    3.60
  -2   0 -11   48.65    2.20
   2   0  11   50.01    1.66
  -2   0 -11   50.38    1.27
  -2   0 -11   51.50    1.27
   2   0  11   50.69    1.73
   2   0  11   48.33    1.61
   2   0  12  290.40    8.54
  -2   0 -12  287.55    5.14
   2   0  12  286.26    3.99
  -2   0 -12  289.81    3.03
  -2   0 -12  285.29    2.99
   2   0  12  284.07    4.10
   2   0  12  287.11    3.83
   2   0  13  245.96    3.67
  -2   0 -13  243.17    2.83
  -2   0 -13  243.73    4.61
   2   0  13  252.59    7.91
  -2   0 -13  247.69    2.81
  -2   0 -13  243.33    2.81
   2   0  13  251.56    3.80
   2   0  14   81.69    2.03
  -2   0 -14   82.58    1.53
  -2   0 -14   86.22    1.60
   2   0  14   87.86    2.20
  -2   0 -14   85.29    1.65
   2   0  14   82.26    2.04
   2   0  15  216.15    3.02
  -2   0 -15  204.97    2.08
  -2   0 -15  211.27    2.27
   2   0  15  209.67    3.07
  -2   0 -15  213.87    2.45
  -2   0 -15  212.67    2.41
   2   0  15  208.79    2.90
  -2   0 -16   28.79    0.68
  -2   0 -16   28.84    0.82
   2   0  16   29.05    1.05
   2   0  16   28.29    0.93
  -2   0 -17   18.08    0.54
  -2   0 -17   17.79    0.56
   2   0  17   16.96    0.67
  -2  -1  16   10.80    0.49
   2   1 -16   10.78    0.45
  -2  -1  16   10.82    0.50
  -2  -1  15    4.20    0.35
   2   1 -15    3.69    0.42
  -2  -1  15    3.48    0.42
   2   1 -15    3.91    0.41
  -2  -1  15    3.69    0.43
  -2  -1  14    3.92    0.44
   2   1 -14    3.77    0.51
  -2  -1  14    3.78    0.44
   2   1 -14    3.43    0.38
   2   1 -14    4.12    0.49
  -2  -1  14    3.75    0.51
  -2  -1  13   79.59    1.75
   2   1 -13   80.16    1.89
   2   1 -13   79.80    1.86
  -2  -1  13   79.91    1.79
   2   1 -13   79.75    1.69
  -2  -1  12  370.78    3.83
  -2  -1  12  368.71    7.40
   2   1 -12  372.99    3.35
   2   1 -12  380.44    4.20
   2   1 -12  377.79    4.21
  -2  -1  12  376.91    3.98
   2   1 -12  371.47    3.85
  -2  -1  11  436.32    4.33
  -2  -1  11  432.63    4.13
  -2  -1  11  433.98    8.26
   2   1 -11  431.58    4.53
   2   1 -11  436.21    3.86
  -2  -1  11  434.93    4.23
   2   1 -11  433.47    4.28
   2   1 -11  434.36    4.56
  -2  -1  10   71.39    1.70
   2   1 -10   76.85    1.92
   2   1 -10   71.38    1.76
  -2  -1  10   70.15    1.66
  -2  -1  10   67.81    3.31
  -2  -1  10   69.50    3.31
  -2  -1  10   68.96    3.22
   2   1 -10   72.06    1.65
   2   1 -10   75.88    1.91
  -2  -1  10   71.30    1.69
   2   1 -10   69.09    1.75
   2   1 -10   71.19    1.86
  -2  -1   9  915.09    5.72
   2   1  -9  913.11    6.31
   2   1  -9  911.94    6.19
  -2  -1   9  901.82    5.59
  -2  -1   9  897.33   11.61
  -2  -1   9  897.48   11.47
   2   1  -9  908.90    6.29
   2   1  -9  920.86    5.77
   2   1  -9  911.75    6.22
   2   1  -9  909.10    6.36
  -2  -1   8  170.71    4.87
  -2  -1   8  178.62    5.15
  -2  -1   8  162.98    4.78
  -2  -1   8  173.52    4.97
  -2  -1   8  175.68    2.36
   2   1  -8  177.74    2.70
   2   1  -8  174.86    2.72
  -2  -1   8  180.00    2.39
   2   1  -8  175.49    2.66
  -2  -1   7    0.66    0.52
  -2  -1   7    0.74    0.61
  -2  -1   7    0.92    0.26
   2   1  -7    0.80    0.35
  -2  -1   7    1.44    0.59
  -2  -1   6    0.00    0.43
  -2  -1   6    0.42    0.47
  -2  -1   6    0.18    0.44
   2   1  -6    0.22    0.30
  -2  -1   5  203.41    4.32
  -2  -1   5  205.37    4.64
  -2  -1   5  196.18    4.16
   2   1  -5  199.50    3.74
   2   1  -5  192.87    4.06
  -2  -1   5  207.20    4.11
   2   1  -4  164.40    3.50
  -2  -1   4  172.54    3.59
  -2  -1   4  165.93    3.98
  -2  -1   4  174.70    2.79
  -2  -1   4  172.16    3.69
  -2  -1   4  168.88    3.44
   2   1  -3  862.04    7.99
  -2  -1   3  885.96    7.34
  -2  -1   3  874.84    5.72
  -2  -1   3  858.66    8.55
  -2  -1   3  861.51    4.78
  -2  -1   3  855.54    7.79
  -2  -1   3  873.47    7.10
   2   1  -2  221.57    4.09
  -2  -1   2  225.80    3.34
  -2  -1   2  222.03    2.70
  -2  -1   2  223.45    2.64
  -2  -1   2  215.13    4.04
  -2  -1   2  226.13    3.72
  -2  -1   2  217.00    3.25
   2   1  -1   45.01    1.87
  -2  -1   1   47.42    1.41
  -2  -1   1   45.71    1.77
  -2  -1   1   48.73    1.65
   2   1   0  460.87    5.87
  -2  -1   0  456.28    5.09
  -2  -1   0  473.63    4.67
   2   1   1  259.90    4.43
  -2  -1  -1  263.21    3.50
  -2  -1  -1  263.61    4.31
  -2  -1  -1  257.10    3.55
  -2  -1  -1  260.73    3.93
   2   1   2  575.28    6.56
  -2  -1  -2  593.30    4.11
  -2  -1  -2  581.64    4.68
  -2  -1  -2  588.55    5.51
  -2  -1  -2  575.88    4.57
  -2  -1  -2  568.97    6.05
  -2  -1  -2  583.90    5.44
  -2  -1  -3   12.22    0.76
   2   1   3    9.92    0.93
  -2  -1  -3   10.48    0.90
  -2  -1  -3    9.55    0.84
  -2  -1  -3    9.93    0.83
  -2  -1  -3   11.03    0.74
  -2  -1  -3   10.11    0.75
   2   1   4   47.70    1.89
  -2  -1  -4   49.04    1.68
  -2  -1  -4   48.68    1.78
  -2  -1  -4   46.99    1.81
   2   1   4   46.20    1.91
   2   1   5   67.67    2.24
  -2  -1  -5   66.70    2.19
   2   1   5   70.34    2.18
  -2  -1  -5   70.47    2.30
   2   1   5   64.55    2.40
  -2  -1  -5   70.51    1.06
  -2  -1  -6 1111.68    9.62
   2   1   6 1112.59    9.51
  -2  -1  -6 1097.56    9.37
   2   1   6 1073.11   10.57
  -2  -1  -6 1102.96    9.10
   2   1   6 1086.92    8.73
  -2  -1  -6 1090.71    4.33
  -2  -1  -7   70.13    2.70
   2   1   7   73.04    2.71
  -2  -1  -7   70.78    2.58
  -2  -1  -7   71.19    2.37
   2   1   7   68.79    3.06
  -2  -1  -7   71.61    1.22
  -2  -1  -8  990.41   10.78
   2   1   8 1002.18   10.84
  -2  -1  -8  993.23    9.89
  -2  -1  -8  968.80    8.42
   2   1   8  946.32   12.31
   2   1   8  971.80    5.53
  -2  -1  -8  962.80    4.60
  -2  -1  -8  943.66    4.91
  -2  -1  -9  118.41    4.05
   2   1   9  110.80    3.97
  -2  -1  -9  123.58    3.72
   2   1   9  114.19    4.72
   2   1   9  117.94    2.13
  -2  -1  -9  123.35    1.70
  -2  -1  -9  121.91    3.64
  -2  -1  -9  121.22    1.80
  -2  -1 -10  208.68    4.57
   2   1  10  219.57    3.12
  -2  -1 -10  219.08    5.26
  -2  -1 -10  224.40    2.50
  -2  -1 -10  218.59    2.50
  -2  -1 -10  215.64    5.81
   2   1  10  214.27    5.86
  -2  -1 -10  218.94    5.22
   2   1  10  217.43    6.80
  -2  -1 -10  221.53    2.49
   2   1  10  224.41    3.41
   2   1  10  215.63    3.23
  -2  -1 -11  178.04    4.13
  -2  -1 -11  179.17    2.33
  -2  -1 -11  177.57    4.96
   2   1  11  180.18    2.97
  -2  -1 -11  175.70    2.30
  -2  -1 -11  175.47    5.47
   2   1  11  175.90    5.63
   2   1  11  165.37    6.36
  -2  -1 -11  176.76    2.35
   2   1  11  177.01    3.19
   2   1  11  173.91    3.02
  -2  -1 -12  955.00    9.11
  -2  -1 -12  948.83   11.90
   2   1  12  955.35    7.05
  -2  -1 -12  943.89    5.38
  -2  -1 -12  949.95   13.01
   2   1  12  941.04   15.29
  -2  -1 -12  928.05    5.66
  -2  -1 -12  937.28    5.34
   2   1  12  939.89    7.49
   2   1  12  929.88    7.00
   2   1  13   89.14    4.72
   2   1  13   89.44    2.18
  -2  -1 -13   90.28    1.72
  -2  -1 -13   89.21    1.70
   2   1  13   89.78    2.35
   2   1  13   87.83    2.17
   2   1  14  291.20    3.76
  -2  -1 -14  287.24    3.00
  -2  -1 -14  287.59    2.95
   2   1  14  289.47    4.02
   2   1  14  286.09    3.68
  -2  -1 -15  341.67    2.61
  -2  -1 -15  343.01    3.17
  -2  -1 -15  349.72    3.11
   2   1  15  352.35    4.14
   2   1  15  346.34    3.67
  -2  -1 -16    4.32    0.29
  -2  -1 -16    5.35    0.43
   2   1  16    5.33    0.61
  -2  -1 -16    4.70    0.41
  -2  -1 -16    4.84    0.44
   2   1  16    4.45    0.41
  -2  -1 -17    2.42    0.25
  -2  -1 -17    2.41    0.26
   2   1  17    2.46    0.38
   2   1  18   13.00    0.49
  -2  -2  15    0.32    0.25
   2   2 -15    0.68    0.23
  -2  -2  15    0.68    0.25
  -2  -2  14   11.91    0.62
  -2  -2  14   13.31    0.73
   2   2 -14   12.48    0.66
   2   2 -14   12.51    0.62
  -2  -2  14   11.92    0.69
  -2  -2  13    6.22    0.54
   2   2 -13    5.79    0.62
  -2  -2  13    5.35    0.58
   2   2 -13    6.19    0.55
   2   2 -13    5.73    0.57
  -2  -2  13    5.03    0.55
   2   2 -12   64.17    1.26
   2   2 -12   65.45    1.76
  -2  -2  12   63.95    1.59
   2   2 -12   63.91    1.66
   2   2 -12   65.03    1.71
  -2  -2  12   61.89    1.73
  -2  -2  11    0.58    0.40
  -2  -2  11   -0.15    0.55
   2   2 -11    0.78    0.31
   2   2 -11    1.09    0.47
  -2  -2  11    0.01    0.35
   2   2 -11    0.71    0.45
  -2  -2  10 1052.45    6.47
  -2  -2  10 1030.75   12.77
   2   2 -10 1031.88    5.92
   2   2 -10 1053.63    7.09
   2   2 -10 1034.70    7.01
   2   2 -10 1055.67    7.06
   2   2  -9  555.91    5.13
  -2  -2   9  561.17    4.60
  -2  -2   9  546.44   10.02
  -2  -2   9  573.10    9.37
  -2  -2   9  551.54    8.86
   2   2  -9  556.05    5.09
   2   2  -9  556.63    4.40
   2   2  -9  560.75    5.12
   2   2  -9  553.52    5.08
   2   2  -8  299.34    3.74
  -2  -2   8  306.08    3.25
  -2  -2   8  298.31    6.45
  -2  -2   8  311.58    6.74
   2   2  -8  306.30    3.64
   2   2  -8  300.61    3.22
   2   2  -8  306.04    3.74
   2   2  -8  304.21    3.61
  -2  -2   7   44.82    2.45
  -2  -2   7   44.80    2.66
  -2  -2   7   43.60    2.49
   2   2  -7   43.81    1.40
  -2  -2   7   43.52    1.20
  -2  -2   6  523.65    8.27
  -2  -2   6  520.09    8.00
  -2  -2   6  526.79    8.04
  -2  -2   6  526.70    7.97
   2   2  -6  509.34    7.99
   2   2  -6  526.44    4.47
  -2  -2   6  521.83    3.80
   2   2  -5  768.46    7.86
  -2  -2   5  741.49    9.20
  -2  -2   5  758.04    9.15
  -2  -2   5  763.33    9.18
  -2  -2   5  752.64    9.14
   2   2  -5  736.71    9.51
  -2  -2   5  738.99    4.28
   2   2  -4  840.32    8.50
  -2  -2   4  816.91    9.00
  -2  -2   4  850.83    9.15
  -2  -2   4  847.41    9.21
  -2  -2   4  832.53    9.16
   2   2  -4  820.05    9.88
  -2  -2   4  822.60    4.17
   2   2  -3 1026.26    9.51
  -2  -2   3 1017.00    9.38
  -2  -2   3 1046.60    9.50
  -2  -2   3 1036.19    9.67
   2   2  -3 1024.35    9.28
  -2  -2   3 1023.08    9.64
   2   2  -3 1028.75   10.70
  -2  -2   2    1.85    0.51
   2   2  -2    1.08    0.48
  -2  -2   2    1.39    0.55
   2   2  -2    0.98    0.48
  -2  -2   2    0.74    0.48
   2   2  -2    0.17    0.57
  -2  -2   1  266.76    4.29
   2   2  -1  268.26    4.84
   2   2  -1  265.77    4.75
  -2  -2   1  271.42    4.26
  -2  -2   1  266.79    4.36
  -2  -2   1  265.57    4.38
   2   2   0   52.68    2.15
  -2  -2   0   56.36    1.91
  -2  -2   0   52.28    1.80
  -2  -2   0   55.04    2.07
   2   2   1  360.48    5.61
  -2  -2  -1  362.30    4.98
  -2  -2  -1  354.66    4.14
  -2  -2  -1  355.37    5.27
  -2  -2  -1  354.31    4.46
   2   2   1  366.04    5.61
   2   2   2 3470.91   17.42
  -2  -2  -2 3528.26   15.98
  -2  -2  -2 3513.24   15.07
   2   2   2 3460.95   17.35
  -2  -2  -2 3507.98   11.41
  -2  -2  -2 3564.05   15.87
   2   2   3   54.82    2.26
   2   2   3   56.22    2.26
  -2  -2  -3   58.12    2.10
  -2  -2  -3   57.10    2.05
  -2  -2  -3   56.33    2.01
  -2  -2  -4    8.33    0.72
   2   2   4    8.74    0.96
   2   2   4    8.03    0.95
  -2  -2  -4    8.94    0.88
  -2  -2  -4    9.27    0.95
  -2  -2  -4    9.52    0.90
  -2  -2  -5  133.61    3.03
   2   2   5  134.29    3.39
  -2  -2  -5  142.76    3.17
  -2  -2  -5  131.38    3.31
   2   2   5  139.62    3.07
   2   2   5  134.11    3.45
  -2  -2  -6   50.53    2.06
   2   2   6   53.54    2.17
   2   2   6   54.13    2.21
  -2  -2  -6   53.30    2.22
  -2  -2  -6   51.35    1.00
   2   2   7  405.09    5.73
  -2  -2  -7  414.36    6.30
  -2  -2  -7  401.50    5.66
   2   2   7  396.90    6.73
  -2  -2  -7  412.76    6.33
   2   2   7  413.73    6.87
  -2  -2  -7  400.13    2.90
  -2  -2  -8  104.14    3.50
   2   2   8  106.70    3.75
  -2  -2  -8  105.01    3.40
   2   2   8  104.24    3.93
  -2  -2  -8  107.59    2.91
  -2  -2  -8  108.14    1.62
   2   2   9  131.13    4.88
  -2  -2  -9  124.80    4.09
   2   2   9  118.57    4.29
  -2  -2  -9  121.05    3.82
  -2  -2  -9  123.31    1.79
  -2  -2  -9  122.22    1.87
  -2  -2 -10  321.68    2.95
  -2  -2 -10  322.53    3.07
  -2  -2 -10  321.93    7.08
   2   2  10  313.03    7.36
   2   2  10  312.86    8.04
  -2  -2 -10  319.48    6.43
  -2  -2 -10  328.15    3.13
   2   2  10  321.44    3.63
   2   2  10  329.56    4.15
   2   2  10  326.93    4.01
  -2  -2 -11  104.10    3.18
  -2  -2 -11  100.69    3.89
  -2  -2 -11  100.90    1.77
  -2  -2 -11   97.68    4.11
   2   2  11   90.97    4.18
  -2  -2 -11  101.32    3.77
   2   2  11   91.15    4.64
  -2  -2 -11   99.68    1.81
   2   2  11   98.49    2.40
   2   2  11   97.34    2.30
  -2  -2 -12   49.48    2.09
  -2  -2 -12   43.81    2.70
  -2  -2 -12   48.83    1.26
  -2  -2 -12   47.74    1.26
  -2  -2 -12   46.79    2.99
   2   2  12   44.51    2.99
  -2  -2 -12   47.04    2.69
   2   2  12   46.21    3.43
  -2  -2 -12   45.25    1.29
   2   2  12   46.95    1.74
   2   2  12   44.99    1.62
  -2  -2 -13  198.36    2.47
  -2  -2 -13  191.81    5.60
   2   2  13  195.40    6.89
  -2  -2 -13  189.36    2.67
  -2  -2 -13  191.84    2.45
   2   2  13  195.67    3.44
   2   2  13  191.40    3.25
  -2  -2 -14   65.14    3.28
  -2  -2 -14   69.69    1.47
  -2  -2 -14   70.18    1.46
   2   2  14   71.26    2.05
   2   2  14   69.21    1.92
  -2  -2 -15  182.97    2.26
  -2  -2 -15  183.54    2.24
   2   2  15  181.06    3.03
   2   2  15  176.99    2.81
  -2  -2 -16   42.31    1.10
  -2  -2 -16   45.47    1.05
  -2  -2 -16   44.34    1.04
   2   2  16   42.96    1.39
   2   2  16   43.67    1.27
  -2  -2 -17    3.24    0.34
   2   2  17    3.39    0.45
  -2  -2 -17    3.04    0.28
  -2  -2 -18   34.25    0.63
   2   2  18   34.17    0.84
  -2  -3  14  293.16    2.52
  -2  -3  14  281.11    2.45
  -2  -3  14  283.68    2.70
   2   3 -14  289.70    2.48
  -2  -3  14  281.96    2.61
  -2  -3  13   43.90    1.17
  -2  -3  13   44.17    1.27
   2   3 -13   43.61    1.21
   2   3 -13   44.59    1.18
  -2  -3  13   42.92    1.23
  -2  -3  12   37.67    1.20
  -2  -3  12   35.25    1.23
   2   3 -12   36.55    1.25
   2   3 -12   36.30    1.19
  -2  -3  12   34.65    1.22
  -2  -3  11   91.09    1.94
   2   3 -11   90.43    1.52
   2   3 -11   90.31    2.05
  -2  -3  11   88.20    2.03
   2   3 -11   94.02    2.02
   2   3 -11   90.97    2.05
  -2  -3  11   88.74    2.02
  -2  -3  10  154.60    2.58
  -2  -3  10  146.23    4.85
   2   3 -10  153.35    2.14
   2   3 -10  155.02    2.76
  -2  -3  10  152.61    2.69
   2   3 -10  153.30    2.75
   2   3 -10  153.63    2.67
  -2  -3  10  151.53    2.71
  -2  -3   9  202.31    5.72
  -2  -3   9  207.39    2.92
   2   3  -9  210.62    2.63
   2   3  -9  210.73    3.23
   2   3  -9  207.65    3.24
   2   3  -9  210.54    3.14
  -2  -3   9  207.97    3.14
  -2  -3   8  317.11    7.01
  -2  -3   8  325.86    3.55
  -2  -3   8  310.86    7.69
  -2  -3   8  320.00    6.95
   2   3  -8  314.87    3.56
   2   3  -8  320.92    3.91
   2   3  -8  312.84    3.25
   2   3  -8  317.36    3.93
   2   3  -8  312.88    3.79
  -2  -3   8  316.82    3.73
   2   3  -7  296.62    6.83
  -2  -3   7  292.11    6.52
  -2  -3   7  289.81    3.21
  -2  -3   7  290.62    7.18
  -2  -3   7  285.45    6.54
   2   3  -7  297.72    3.55
   2   3  -7  289.73    3.09
   2   3  -7  290.61    3.59
   2   3  -7  295.63    3.69
   2   3  -7  288.22    3.50
  -2  -3   7  289.49    3.42
   2   3  -6   25.42    2.16
  -2  -3   6   28.11    0.99
  -2  -3   6   28.14    2.19
  -2  -3   6   28.40    2.04
  -2  -3   6   25.47    1.95
   2   3  -6   27.18    0.94
   2   3  -6   27.51    1.10
   2   3  -6   27.08    1.11
   2   3  -6   28.39    1.08
  -2  -3   5    0.38    0.61
  -2  -3   5   -0.20    0.67
  -2  -3   5   -0.25    0.64
   2   3  -5   -0.09    0.74
  -2  -3   5    0.34    0.28
   2   3  -4   14.76    1.29
  -2  -3   4   12.83    1.41
  -2  -3   4   13.36    1.35
  -2  -3   4   13.47    1.34
   2   3  -4   15.66    1.28
   2   3  -4   13.15    1.59
  -2  -3   4   14.04    0.63
   2   3  -3 1018.17    9.98
  -2  -3   3  996.25   10.72
   2   3  -3 1025.49   10.36
  -2  -3   3 1013.95   10.05
  -2  -3   3 1005.75   10.66
   2   3  -3  995.86   12.14
  -2  -3   3  997.29    4.63
  -2  -3   2  146.76    3.94
   2   3  -2  145.53    3.92
  -2  -3   2  147.55    3.65
  -2  -3   2  145.13    3.90
   2   3  -2  144.11    3.85
   2   3  -2  141.79    4.40
  -2  -3   2  143.88    1.61
   2   3  -1  195.47    4.52
   2   3  -1  193.24    4.47
  -2  -3   1  187.11    4.25
   2   3  -1  194.62    4.91
  -2  -3   1  192.11    3.93
   2   3   0  212.90    4.72
   2   3   0  201.31    4.61
  -2  -3   0  213.15    4.45
  -2  -3   0  211.03    4.35
  -2  -3   0  208.76    3.87
   2   3   1  403.13    6.65
   2   3   1  400.80    6.56
  -2  -3  -1  397.32    5.82
  -2  -3  -1  398.80    5.75
  -2  -3  -1  384.04    4.98
   2   3   2 3324.80   19.08
  -2  -3  -2 3420.61   16.63
  -2  -3  -2 3365.52    7.50
  -2  -3  -2 3331.31   13.63
  -2  -3  -2 3385.08   17.75
   2   3   3  782.88    9.41
   2   3   3  790.82    9.34
  -2  -3  -3  770.94    8.13
  -2  -3  -3  809.97    7.91
  -2  -3  -3  784.36    8.47
   2   3   4 9882.55   32.68
   2   3   4 9969.63   33.31
  -2  -3  -4 9999.00   30.73
  -2  -3  -4 9976.04   30.14
   2   3   5  675.16    8.51
  -2  -3  -5  651.89    7.15
   2   3   5  688.40    8.73
  -2  -3  -5  651.09    8.04
  -2  -3  -5  666.16    7.97
  -2  -3  -5  683.75    3.58
   2   3   6  136.16    3.83
  -2  -3  -6  126.78    3.67
   2   3   6  131.69    3.78
  -2  -3  -6  134.93    1.70
  -2  -3  -6  134.27    1.63
   2   3   7  119.84    3.54
   2   3   7  123.70    3.62
  -2  -3  -7  122.88    3.71
  -2  -3  -7  122.28    1.67
  -2  -3  -7  120.62    1.64
  -2  -3  -8  166.67    4.46
  -2  -3  -8  175.71    3.81
   2   3   8  179.33    4.86
  -2  -3  -8  172.62    2.09
  -2  -3  -8  168.35    2.03
  -2  -3  -9  150.55    4.40
  -2  -3  -9  154.60    2.07
  -2  -3  -9  149.00    1.99
  -2  -3 -10  223.29    5.56
   2   3  10  217.70    6.44
  -2  -3 -10  222.62    2.56
  -2  -3 -10  228.31    2.63
   2   3  10  218.34    3.10
   2   3  10  224.06    3.40
  -2  -3 -11  505.61    3.95
  -2  -3 -11  491.99    8.41
   2   3  11  488.31   10.07
  -2  -3 -11  489.22    4.07
  -2  -3 -11  492.87    4.11
   2   3  11  495.63    4.76
   2   3  11  489.49    5.32
   2   3  11  490.06    5.21
  -2  -3 -12    0.39    0.53
  -2  -3 -12    0.51    0.38
  -2  -3 -12    0.45    0.32
  -2  -3 -12   -0.02    0.73
  -2  -3 -12    0.66    0.39
   2   3  12    0.61    0.50
   2   3  12    1.19    0.54
   2   3  12    0.32    0.40
  -2  -3 -13   25.11    2.16
  -2  -3 -13   28.57    0.97
  -2  -3 -13   27.26    0.96
  -2  -3 -13   25.82    2.06
  -2  -3 -13   27.83    1.05
   2   3  13   27.25    1.33
   2   3  13   27.33    1.32
  -2  -3 -14   50.70    2.93
  -2  -3 -14   53.68    1.28
  -2  -3 -14   53.08    1.42
  -2  -3 -14   52.38    1.25
   2   3  14   55.75    1.79
   2   3  14   52.85    1.71
  -2  -3 -15   -0.08    0.26
   2   3  15    0.17    0.43
   2   3  15    0.41    0.46
  -2  -3 -15    0.11    0.27
  -2  -3 -16   15.73    0.65
   2   3  16   17.27    0.91
   2   3  16   16.86    0.84
  -2  -3 -17   39.78    0.95
  -2  -3 -17   39.57    0.78
  -2  -3 -17   37.71    0.83
   2   3  17   39.41    1.15
   2   3  17   39.35    1.04
  -2  -3 -18    7.66    0.35
   2   3  18    8.02    0.44
  -2  -4  13   99.75    1.52
  -2  -4  13   92.65    1.45
  -2  -4  13   99.19    1.58
   2   4 -13   98.02    1.42
  -2  -4  13   92.91    1.43
  -2  -4  12   58.55    1.35
  -2  -4  12   57.42    1.41
   2   4 -12   58.37    1.32
   2   4 -12   58.66    1.41
  -2  -4  12   56.57    1.35
  -2  -4  11   47.49    1.35
   2   4 -11   47.66    0.98
  -2  -4  11   47.55    1.42
   2   4 -11   49.06    1.44
   2   4 -11   48.10    1.35
  -2  -4  11   48.45    1.39
  -2  -4  10   86.45    1.92
   2   4 -10   86.61    1.75
   2   4 -10   86.08    1.49
  -2  -4  10   88.26    2.01
   2   4 -10   86.66    2.03
   2   4 -10   87.94    1.93
  -2  -4  10   87.58    1.96
  -2  -4   9  261.09    6.48
  -2  -4   9  256.67    3.37
   2   4  -9  259.43    3.23
   2   4  -9  253.76    2.76
  -2  -4   9  256.43    3.44
   2   4  -9  251.14    3.52
   2   4  -9  260.09    3.43
  -2  -4   9  252.85    3.42
   2   4  -8  553.71    9.66
  -2  -4   8  544.02    9.44
  -2  -4   8  553.51    4.92
   2   4  -8  542.60    4.89
   2   4  -8  544.96    4.20
  -2  -4   8  544.80    5.00
   2   4  -8  555.23    5.04
   2   4  -8  550.32    5.25
  -2  -4   8  555.11    5.02
   2   4  -7    0.47    0.43
  -2  -4   7    0.62    0.42
  -2  -4   7    2.25    1.17
  -2  -4   7    0.50    0.69
   2   4  -7    0.26    0.33
  -2  -4   7    0.54    0.36
   2   4  -7    0.39    0.42
   2   4  -7    0.30    0.28
   2   4  -7    0.14    0.37
  -2  -4   7    1.19    0.35
   2   4  -6   45.13    3.00
  -2  -4   6   46.49    1.39
  -2  -4   6   45.19    2.67
  -2  -4   6   42.12    2.85
  -2  -4   6   47.43    2.60
   2   4  -6   50.28    1.59
   2   4  -6   46.06    1.24
  -2  -4   6   46.12    1.38
   2   4  -6   45.46    1.51
   2   4  -6   45.36    1.45
   2   4  -6   44.42    1.38
   2   4  -5  358.35    8.37
  -2  -4   5  353.73    3.66
  -2  -4   5  355.35    7.12
  -2  -4   5  348.64    7.79
  -2  -4   5  352.91    6.97
   2   4  -5  357.90    4.09
   2   4  -5  356.56    3.32
   2   4  -5  354.42    3.97
   2   4  -5  354.83    3.82
   2   4  -5  356.26    3.82
  -2  -4   4   48.71    2.85
   2   4  -4   52.61    2.59
  -2  -4   4   48.77    2.58
  -2  -4   4   52.47    2.66
   2   4  -4   50.65    3.17
  -2  -4   4   51.59    1.37
  -2  -4   3  108.51    4.06
   2   4  -3  107.26    3.68
   2   4  -3  109.15    3.62
  -2  -4   3  110.51    3.73
   2   4  -3  113.87    4.59
  -2  -4   3  107.46    1.82
  -2  -4   3  112.44    3.69
  -2  -4   2  480.06    8.17
   2   4  -2  472.68    7.74
   2   4  -2  491.28    7.71
  -2  -4   2  494.04    7.70
  -2  -4   2  486.99    7.47
   2   4  -2  489.01    9.06
  -2  -4   2  486.93    7.29
  -2  -4   2  484.43    3.61
  -2  -4   1   10.98    1.13
  -2  -4   1    8.88    1.10
   2   4  -1   10.69    1.51
  -2  -4   1    9.46    1.10
   2   4   0    1.29    0.59
  -2  -4   0   -0.12    0.44
  -2  -4   0    0.03    0.43
  -2  -4   0   -0.19    0.47
  -2  -4   0    0.16    0.25
   2   4   0   -0.10    0.74
  -2  -4  -1    2.16    0.60
   2   4   1    0.31    0.67
   2   4   1    1.18    0.73
  -2  -4  -1    1.84    0.32
   2   4   2  783.45   10.36
  -2  -4  -2  786.01    8.42
  -2  -4  -2  781.46    4.33
  -2  -4  -2  780.07    9.60
  -2  -4  -3  148.37    3.77
   2   4   3  140.27    4.56
   2   4   3  148.98    4.79
  -2  -4  -3  148.34    1.85
  -2  -4  -3  146.60    4.17
  -2  -4  -3  151.46    3.31
   2   4   4 5091.82   27.62
  -2  -4  -4 5115.75   24.32
  -2  -4  -5  708.25    7.74
  -2  -4  -5  713.49    9.18
   2   4   5  732.64   10.42
  -2  -4  -5  708.11    9.14
  -2  -4  -5  712.37    4.12
   2   4   6 1124.63   12.59
   2   4   6 1114.26   12.24
  -2  -4  -6 1070.30   11.36
  -2  -4  -6 1099.30    5.05
  -2  -4  -6 1071.67    5.14
   2   4   7  406.14    7.28
   2   4   7  403.31    7.39
  -2  -4  -7  408.37    7.18
  -2  -4  -7  408.23    3.18
  -2  -4  -7  406.77    3.32
  -2  -4  -8   71.79    3.10
   2   4   8   70.54    3.04
  -2  -4  -8   75.06    1.46
  -2  -4  -8   73.97    1.49
  -2  -4  -9    0.67    0.41
  -2  -4  -9    0.84    0.35
  -2  -4  -9    0.80    0.60
  -2  -4  -9    0.62    0.33
   2   4   9    0.67    0.37
   2   4   9    0.86    0.40
  -2  -4 -10  259.43    2.81
  -2  -4 -10  254.87    6.13
  -2  -4 -10  253.33    3.00
   2   4  10  250.91    3.47
   2   4  10  252.59    3.77
  -2  -4 -11    5.71    0.53
  -2  -4 -11    5.55    0.53
  -2  -4 -11    5.48    1.02
  -2  -4 -11    6.26    0.57
  -2  -4 -11    4.94    0.57
   2   4  11    5.80    0.68
   2   4  11    5.22    0.72
  -2  -4 -12  217.83    2.61
  -2  -4 -12  219.91    5.80
  -2  -4 -12  213.43    2.87
  -2  -4 -12  209.90    2.83
   2   4  12  218.40    3.25
   2   4  12  220.36    3.54
   2   4  12  223.53    3.57
  -2  -4 -13    1.36    0.34
  -2  -4 -13    1.87    0.75
  -2  -4 -13    1.84    0.35
  -2  -4 -13    1.68    0.53
  -2  -4 -13    1.46    0.38
  -2  -4 -13    1.47    0.44
   2   4  13    1.27    0.57
   2   4  13    1.62    0.53
   2   4  13    1.58    0.47
  -2  -4 -14   93.29    3.95
  -2  -4 -14   89.10    1.55
  -2  -4 -14   91.71    1.81
  -2  -4 -14   90.07    1.77
  -2  -4 -14   90.25    1.56
   2   4  14   89.94    2.20
   2   4  14   91.53    2.23
  -2  -4 -15    0.92    0.26
  -2  -4 -15    0.60    0.25
  -2  -4 -15    0.53    0.39
   2   4  15    0.39    0.42
   2   4  15    1.15    0.43
  -2  -4 -15    0.45    0.25
  -2  -4 -16  229.02    2.08
   2   4  16  228.73    2.96
  -2  -4 -17   13.20    0.57
   2   4  17   14.23    0.68
   2   4  17   13.03    0.64
  -2  -4 -18  240.34    1.79
  -2  -5  12   78.13    1.28
   2   5 -12   80.26    1.21
  -2  -5  11    8.05    0.55
   2   5 -11    7.57    0.43
  -2  -5  11    7.93    0.56
   2   5 -11    8.20    0.53
  -2  -5  11    8.04    0.51
  -2  -5  10   51.08    1.36
  -2  -5  10   52.49    1.41
  -2  -5  10   51.94    1.40
   2   5 -10   53.00    1.02
   2   5 -10   52.49    1.28
  -2  -5  10   51.77    1.41
   2   5 -10   51.91    1.45
   2   5 -10   52.71    1.34
  -2  -5  10   51.44    1.34
  -2  -5   9   42.29    1.36
  -2  -5   9   42.47    1.35
   2   5  -9   43.46    1.32
   2   5  -9   42.00    1.04
  -2  -5   9   41.32    1.35
   2   5  -9   42.70    1.34
  -2  -5   9   42.50    1.33
  -2  -5   8    1.48    0.43
   2   5  -8    0.82    0.65
  -2  -5   8    1.22    0.47
   2   5  -8    1.08    0.43
   2   5  -8    1.21    0.34
  -2  -5   8    2.04    0.47
   2   5  -8    0.99    0.49
   2   5  -8    0.72    0.45
  -2  -5   8    1.15    0.39
   2   5  -7  123.81    4.87
  -2  -5   7  127.11    2.41
   2   5  -7  127.71    2.51
   2   5  -7  128.30    2.02
  -2  -5   7  127.71    2.43
   2   5  -7  128.32    2.57
   2   5  -7  127.13    2.28
   2   5  -7  130.37    2.46
   2   5  -6  120.76    4.93
  -2  -5   6  119.92    2.33
   2   5  -6  122.63    2.51
   2   5  -6  119.77    2.00
  -2  -5   6  121.90    2.32
   2   5  -6  118.60    2.47
   2   5  -6  120.60    2.35
   2   5  -6  120.52    2.37
   2   5  -5   25.68    2.36
  -2  -5   5   26.63    1.13
  -2  -5   5   25.10    2.28
   2   5  -5   26.40    1.23
   2   5  -5   26.78    0.97
  -2  -5   5   27.56    1.10
   2   5  -5   25.87    1.15
   2   5  -5   25.28    1.18
   2   5  -5   26.31    1.15
  -2  -5   4  332.31    7.18
   2   5  -4  339.18    8.41
  -2  -5   4  326.74    3.67
  -2  -5   4  317.91    7.73
   2   5  -4  327.48    4.06
   2   5  -4  329.03    3.25
   2   5  -4  331.48    3.96
   2   5  -4  322.20    3.79
   2   5  -4  333.91    3.93
  -2  -5   3  148.91    2.53
   2   5  -3  155.45    5.61
  -2  -5   3  141.97    2.36
  -2  -5   3  144.37    5.16
   2   5  -3  143.78    4.68
   2   5  -3  149.23    4.60
   2   5  -3  153.78    2.73
   2   5  -3  149.72    2.14
   2   5  -3  152.63    2.61
   2   5  -3  149.30    2.61
   2   5  -3  152.87    2.52
  -2  -5   2  302.05    3.45
   2   5  -2  307.57    7.76
  -2  -5   2  294.75    3.24
  -2  -5   2  291.66    7.16
   2   5  -2  299.92    6.60
   2   5  -2  295.21    6.74
   2   5  -2  305.95    3.72
   2   5  -2  307.22    2.99
   2   5  -2  298.73    3.70
   2   5  -2  307.64    3.47
  -2  -5   1  491.93    7.31
   2   5  -1  483.41    8.53
  -2  -5   1  484.16    4.18
   2   5  -1  483.10    9.49
  -2  -5   1  478.59    3.90
   2   5   0  734.81   10.43
  -2  -5   0  756.14    8.76
   2   5   0  737.18   10.77
  -2  -5   0  744.95    5.05
   2   5   0  738.70   11.39
  -2  -5   0  725.21    4.63
   2   5   1    2.71    0.91
  -2  -5  -1    1.86    0.38
  -2  -5  -1    1.77    0.92
  -2  -5  -2  493.54    7.21
   2   5   2  501.43    9.15
  -2  -5  -2  494.28    3.95
  -2  -5  -2  477.89    8.35
  -2  -5  -2  502.88    7.27
   2   5   3   23.20    2.15
  -2  -5  -3   23.76    0.89
  -2  -5  -3   22.29    1.87
  -2  -5  -3   23.79    1.60
  -2  -5  -4   38.28    1.90
   2   5   4   35.55    2.64
  -2  -5  -4   35.30    2.29
  -2  -5  -4   38.28    1.08
  -2  -5  -5  399.70    5.95
  -2  -5  -5  398.67    7.46
   2   5   5  386.16    8.37
  -2  -5  -5  401.45    7.55
  -2  -5  -5  401.61    3.36
  -2  -5  -6  863.16   10.97
   2   5   6  885.04   12.70
  -2  -5  -6  860.84    4.69
  -2  -5  -6  879.08    5.11
   2   5   7   24.98    2.17
  -2  -5  -7   25.16    0.88
  -2  -5  -7   24.93    0.95
   2   5   7   24.76    1.12
  -2  -5  -8  310.15    3.00
  -2  -5  -8  302.59    3.20
   2   5   8  296.36    6.79
   2   5   8  297.19    6.85
  -2  -5  -8  306.74    6.71
  -2  -5  -8  313.92    3.35
   2   5   8  304.89    4.04
   2   5   8  306.84    3.81
  -2  -5  -9  234.42    2.68
  -2  -5  -9  235.58    2.91
  -2  -5  -9  233.63    5.98
  -2  -5  -9  228.12    2.96
   2   5   9  232.73    3.39
   2   5   9  236.69    3.65
  -2  -5 -10   59.27    1.38
  -2  -5 -10   54.22    2.95
  -2  -5 -10   56.14    1.54
   2   5  10   58.53    1.75
   2   5  10   55.58    1.84
  -2  -5 -11  105.45    1.83
  -2  -5 -11   99.20    1.78
  -2  -5 -11  103.67    4.03
  -2  -5 -11  100.90    2.06
  -2  -5 -11   99.57    1.96
   2   5  11  102.43    2.30
   2   5  11   99.70    2.46
  -2  -5 -12   57.17    1.31
  -2  -5 -12   59.06    3.05
  -2  -5 -12   56.13    1.55
  -2  -5 -12   56.31    1.46
   2   5  12   54.57    1.68
   2   5  12   56.62    1.85
  -2  -5 -13  267.10    6.70
  -2  -5 -13  255.87    2.57
  -2  -5 -13  255.70    2.58
  -2  -5 -13  250.39    3.13
  -2  -5 -13  261.13    2.99
   2   5  13  255.04    3.37
   2   5  13  256.62    3.53
   2   5  13  255.89    3.75
  -2  -5 -14   32.22    0.87
  -2  -5 -14   31.56    1.07
  -2  -5 -14   31.57    1.10
  -2  -5 -14   31.89    0.85
   2   5  14   29.20    1.17
   2   5  14   34.46    1.41
  -2  -5 -15  193.58    1.90
  -2  -5 -15  192.73    2.39
  -2  -5 -15  186.60    2.36
  -2  -5 -15  193.34    1.86
   2   5  15  187.20    2.67
   2   5  15  195.06    2.91
  -2  -5 -16   52.05    1.07
   2   5  16   51.26    1.27
   2   5  16   54.05    1.40
  -2  -5 -17   46.84    0.93
   2   5  17   46.05    0.98
   2   5  17   46.84    1.10
  -2  -6  11  223.28    1.92
   2   6 -11  225.59    1.74
   2   6 -10   11.83    0.52
  -2  -6  10   11.91    0.62
   2   6 -10   11.74    0.55
   2   6  -9   18.45    0.79
   2   6  -9   19.52    0.61
  -2  -6   9   19.79    0.85
   2   6  -9   19.65    0.80
  -2  -6   8   11.28    0.69
  -2  -6   8   11.21    0.73
   2   6  -8   11.03    0.54
   2   6  -8   10.74    0.71
  -2  -6   8   10.38    0.74
   2   6  -8   11.60    0.71
  -2  -6   7  340.81    3.83
   2   6  -7  344.55    7.78
  -2  -6   7  346.03    3.86
   2   6  -7  344.73    3.06
   2   6  -7  346.32    3.87
  -2  -6   7  348.21    3.89
   2   6  -7  351.32    3.72
   2   6  -7  350.89    3.43
  -2  -6   6   16.91    0.94
   2   6  -6   18.84    1.96
  -2  -6   6   16.13    0.93
  -2  -6   6   18.68    1.02
   2   6  -6   17.82    0.79
   2   6  -6   20.11    1.06
   2   6  -6   16.41    0.93
   2   6  -6   15.75    0.87
  -2  -6   5   26.17    1.17
   2   6  -5   24.33    2.26
  -2  -6   5   27.01    1.20
  -2  -6   5   25.51    1.18
   2   6  -5   25.13    0.95
   2   6  -5   26.60    1.22
   2   6  -5   25.66    1.14
   2   6  -5   25.08    1.14
  -2  -6   4  207.02    3.16
   2   6  -4  214.79    6.80
  -2  -6   4  212.85    3.14
  -2  -6   4  219.53    3.24
   2   6  -4  207.21    2.64
   2   6  -4  208.96    3.29
   2   6  -4  210.16    2.98
   2   6  -4  211.00    3.10
   2   6  -4  214.59    3.25
  -2  -6   3   79.22    1.96
   2   6  -3   83.70    4.29
  -2  -6   3   80.68    1.92
   2   6  -3   81.86    1.80
  -2  -6   3   82.72    4.10
  -2  -6   3   82.44    2.00
   2   6  -3   82.73    1.68
   2   6  -3   82.67    2.10
   2   6  -3   82.97    1.99
   2   6  -3   81.94    1.96
   2   6  -3   84.02    2.07
  -2  -6   2  111.12    2.28
   2   6  -2  105.34    4.80
  -2  -6   2  109.10    2.17
  -2  -6   2  105.51    4.62
   2   6  -2  110.25    4.40
   2   6  -2  107.48    4.17
   2   6  -2  108.20    1.91
   2   6  -2  104.75    2.37
   2   6  -2  110.95    2.39
  -2  -6   2  108.87    2.25
   2   6  -2  106.49    2.23
  -2  -6   1  119.72    2.34
   2   6  -1  122.98    5.14
  -2  -6   1  118.11    2.20
  -2  -6   1  118.63    4.39
   2   6  -1  117.49    4.47
  -2  -6   1  123.19    4.94
   2   6  -1  120.75    2.00
   2   6  -1  118.39    2.47
   2   6  -1  125.80    2.55
  -2  -6   1  120.27    2.30
   2   6  -1  121.74    2.34
  -2  -6   0  467.06    4.46
   2   6   0  468.55    9.75
  -2  -6   0  463.79    9.22
  -2  -6   0  474.77    8.46
   2   6   0  471.86    9.07
   2   6   0  467.83    3.88
   2   6   0  461.19    4.73
   2   6   0  463.18    4.89
  -2  -6   0  469.70    4.35
   2   6   0  464.31    4.46
  -2  -6  -1  275.45    3.37
  -2  -6  -1  273.32    6.96
  -2  -6  -1  280.90    6.38
   2   6   1  274.37    6.90
   2   6   1  277.23    2.95
   2   6   1  274.90    3.62
  -2  -6  -1  271.63    3.21
   2   6   1  280.08    3.38
  -2  -6  -2    9.38    0.71
  -2  -6  -2    8.62    1.21
  -2  -6  -2    9.97    1.45
  -2  -6  -2    9.60    0.64
   2   6   2    7.56    1.32
   2   6   2    8.94    0.73
   2   6   2   10.40    0.62
   2   6   2   11.87    0.81
  -2  -6  -2   10.77    0.75
  -2  -6  -3    4.94    1.13
  -2  -6  -3    4.96    0.51
   2   6   3    5.94    1.30
   2   6   3    4.94    0.56
   2   6   3    4.59    0.44
   2   6   3    4.88    0.58
  -2  -6  -3    5.16    0.56
  -2  -6  -4  514.59    9.18
  -2  -6  -4  530.86    4.14
   2   6   4  522.88   10.41
  -2  -6  -4  525.10    9.16
   2   6   4  520.45    4.74
  -2  -6  -4  531.31    4.47
  -2  -6  -4  527.85    4.67
   2   6   4  533.94    5.19
  -2  -6  -5   68.47    3.43
  -2  -6  -5   70.17    1.37
  -2  -6  -5   69.64    1.57
  -2  -6  -5   70.92    3.38
   2   6   5   70.38    3.92
   2   6   5   70.83    1.75
  -2  -6  -5   70.64    1.73
  -2  -6  -5   71.31    1.67
   2   6   5   71.15    1.93
  -2  -6  -6   49.14    2.81
   2   6   6   45.29    3.17
  -2  -6  -6   49.30    1.17
  -2  -6  -6   49.08    1.36
  -2  -6  -6   48.72    1.40
   2   6   6   48.01    1.63
  -2  -6  -6   48.46    1.44
   2   6   7  331.62    8.25
  -2  -6  -7  326.88    7.16
  -2  -6  -7  330.02    3.04
  -2  -6  -7  333.94    3.48
   2   6   7  335.08    4.16
  -2  -6  -7  328.23    3.62
   2   6   7  331.68    4.18
  -2  -6  -8    0.19    0.32
  -2  -6  -8   -0.28    0.46
   2   6   8   -1.65    0.80
  -2  -6  -8   -0.15    0.70
  -2  -6  -8    0.37    0.38
   2   6   8    0.00    0.42
   2   6   8    0.44    0.46
  -2  -6  -9  214.18    2.53
  -2  -6  -9  215.29    2.94
  -2  -6  -9  216.91    5.86
  -2  -6  -9  216.31    2.98
  -2  -6  -9  215.45    2.93
   2   6   9  213.03    3.52
   2   6   9  210.83    3.37
  -2  -6 -10   78.60    1.54
  -2  -6 -10   78.98    3.55
  -2  -6 -10   79.21    1.84
   2   6  10   76.56    2.04
   2   6  10   78.19    2.17
  -2  -6 -11   46.41    1.14
  -2  -6 -11   43.54    2.60
  -2  -6 -11   46.23    1.42
  -2  -6 -11   45.84    1.30
   2   6  11   45.98    1.58
   2   6  11   46.25    1.68
  -2  -6 -12   11.89    0.79
  -2  -6 -12   12.93    0.73
   2   6  12   11.65    0.85
   2   6  12   13.14    0.98
  -2  -6 -13  143.92    2.33
  -2  -6 -13  146.60    2.13
   2   6  13  142.82    2.47
   2   6  13  147.89    2.76
  -2  -6 -14    7.23    0.53
  -2  -6 -14    7.48    0.58
   2   6  14    6.96    0.57
   2   6  14    6.62    0.71
  -2  -6 -15   49.96    1.13
  -2  -6 -15   48.79    1.19
   2   6  15   50.66    1.42
  -2  -6 -16    7.36    0.41
   2   6  16    7.79    0.55
  -2  -6 -17   57.51    0.85
   2   6  17   56.99    1.03
   2   7  -9   52.21    0.93
  -2  -7   9   51.20    1.00
   2   7  -8   10.43    0.57
  -2  -7   8   10.53    0.59
  -2  -7   8    9.73    0.44
  -2  -7   7    0.11    0.34
   2   7  -7    0.11    0.33
  -2  -7   7    0.52    0.21
   2   7  -7    0.15    0.29
  -2  -7   6  106.64    2.03
   2   7  -6  108.05    2.05
  -2  -7   6  105.94    2.05
   2   7  -6  105.01    1.82
   2   7  -6  110.61    1.96
  -2  -7   5  779.03    5.75
   2   7  -5  782.89    5.79
   2   7  -5  779.61    4.69
  -2  -7   5  776.65    5.74
   2   7  -5  784.10    5.47
   2   7  -5  777.84    5.48
  -2  -7   4  168.31    2.79
   2   7  -4  165.24    5.72
   2   7  -4  175.69    2.91
  -2  -7   4  174.07    2.81
   2   7  -4  171.63    2.33
   2   7  -4  173.71    2.70
   2   7  -4  173.62    2.79
  -2  -7   3  272.32    3.61
   2   7  -3  272.92    7.51
  -2  -7   3  287.07    7.15
  -2  -7   3  264.76    7.15
  -2  -7   3  273.03    2.79
   2   7  -3  278.13    3.14
   2   7  -3  276.02    3.70
  -2  -7   3  282.69    3.61
   2   7  -3  276.76    3.03
   2   7  -3  279.43    3.49
   2   7  -3  272.43    3.60
  -2  -7   2   21.41    1.08
  -2  -7   2   20.31    1.98
  -2  -7   2   18.98    1.97
  -2  -7   2   21.35    0.85
   2   7  -2   20.18    1.11
  -2  -7   2   20.30    1.05
   2   7  -2   21.50    0.91
   2   7  -2   19.87    1.09
   2   7  -2   20.64    1.04
  -2  -7   1   71.73    1.89
  -2  -7   1   72.47    3.62
  -2  -7   1   73.54    3.81
  -2  -7   1   70.59    1.55
   2   7  -1   71.68    1.95
  -2  -7   1   73.59    1.88
   2   7  -1   71.94    1.62
   2   7  -1   73.42    1.86
  -2  -7   0    1.46    0.45
  -2  -7   0    1.94    0.86
  -2  -7   0    1.68    0.36
  -2  -7   0    1.90    0.74
  -2  -7   0    1.70    0.45
   2   7   0    1.99    0.42
   2   7   0    2.57    0.54
  -2  -7   0    1.78    0.51
  -2  -7  -1   39.84    2.68
  -2  -7  -1   39.71    2.74
  -2  -7  -1   40.27    1.21
   2   7   1   41.38    1.49
  -2  -7  -1   39.85    1.38
  -2  -7  -1   39.50    1.48
   2   7   1   41.07    1.33
  -2  -7  -2    6.94    1.26
  -2  -7  -2    9.26    0.65
  -2  -7  -2   10.56    1.46
   2   7   2    8.46    0.77
  -2  -7  -2    9.85    0.77
  -2  -7  -2    9.50    0.80
   2   7   2    9.70    0.73
  -2  -7  -3  773.48   11.85
  -2  -7  -3  807.21   11.32
  -2  -7  -3  815.28    5.33
  -2  -7  -3  791.23   11.78
   2   7   3  796.22    6.20
  -2  -7  -3  801.03    5.77
  -2  -7  -3  800.39    5.96
  -2  -7  -3  778.89    6.32
   2   7   3  791.77    6.31
  -2  -7  -4    2.10    0.74
  -2  -7  -4    2.53    0.51
  -2  -7  -4    3.01    0.89
   2   7   4    4.03    0.63
  -2  -7  -4    2.53    0.54
  -2  -7  -4    3.71    0.61
   2   7   4    3.24    0.67
  -2  -7  -5   13.79    0.81
  -2  -7  -5   13.51    1.59
   2   7   5   12.74    0.81
  -2  -7  -5   13.61    0.86
   2   7   5   13.52    0.95
  -2  -7  -5   13.70    0.89
  -2  -7  -6   45.77    2.74
  -2  -7  -6   46.01    1.37
  -2  -7  -6   46.64    1.48
   2   7   6   46.48    1.66
  -2  -7  -7  107.51    2.10
  -2  -7  -7  104.44    4.08
  -2  -7  -7  107.81    2.12
   2   7   7  108.73    2.27
  -2  -7  -7  109.43    2.23
   2   7   7  109.84    2.46
  -2  -7  -8  107.02    2.10
  -2  -7  -8  104.86    4.06
  -2  -7  -8  108.55    2.12
   2   7   8  110.38    2.36
   2   7   8  106.27    2.41
  -2  -7  -9    0.46    0.41
   2   7   9    0.09    0.35
  -2  -7  -9    1.27    0.52
  -2  -7  -9    0.69    0.44
  -2  -7  -9    0.60    0.35
   2   7   9    0.72    0.53
  -2  -7 -10   49.10    1.46
  -2  -7 -10   51.69    1.44
   2   7  10   50.91    1.66
   2   7  10   49.56    1.65
  -2  -7 -11   20.37    0.97
  -2  -7 -11   21.03    0.89
  -2  -7 -11   21.72    0.85
   2   7  11   20.43    1.07
   2   7  11   21.59    1.13
  -2  -7 -12   65.69    1.58
  -2  -7 -12   63.80    1.35
   2   7  12   64.63    1.68
   2   7  12   64.72    1.79
  -2  -7 -13   82.87    1.66
  -2  -7 -13   78.72    1.43
   2   7  13   85.11    1.78
   2   7  13   84.60    1.93
  -2  -7 -14    0.08    0.27
  -2  -7 -14    0.07    0.23
   2   7  14    0.56    0.39
   2   7  14    0.09    0.28
  -2  -7 -15    3.47    0.35
   2   7  15    3.41    0.42
  -2  -7 -16   39.60    0.75
   2   7  16   42.01    0.92
   2   8  -7    0.39    0.19
  -2  -8   7    0.48    0.18
  -2  -8   7    0.50    0.18
   2   8  -6  100.25    1.54
  -2  -8   6   96.21    1.24
  -2  -8   6   97.51    1.58
   2   8  -5  139.55    2.03
  -2  -8   5  141.88    2.11
  -2  -8   5  135.97    1.81
   2   8  -5  137.89    1.83
   2   8  -4   56.30    1.43
  -2  -8   4   55.58    1.30
  -2  -8   4   57.21    1.49
   2   8  -4   56.28    1.36
   2   8  -3  365.58    3.74
  -2  -8   3  361.23    3.49
  -2  -8   3  362.83    3.86
   2   8  -3  364.56    3.66
   2   8  -2   96.46    1.76
   2   8  -2   95.02    2.01
   2   8  -2   97.08    2.03
  -2  -8   2   93.85    1.89
  -2  -8   2   92.77    2.07
   2   8  -1    0.44    0.34
   2   8  -1    0.12    0.43
  -2  -8   1    0.64    0.41
  -2  -8   1    0.14    0.47
   2   8  -1    0.85    0.45
  -2  -8   0    2.31    0.35
   2   8   0    3.40    0.56
  -2  -8   0    2.26    0.51
  -2  -8   0    2.97    0.58
  -2  -8  -1   36.72    1.10
   2   8   1   35.79    1.32
  -2  -8  -1   39.80    1.35
  -2  -8  -1   35.97    1.30
  -2  -8  -1   38.79    1.44
  -2  -8  -2  181.35    5.59
  -2  -8  -2  174.19    2.43
   2   8   2  175.46    2.80
  -2  -8  -2  184.02    2.80
  -2  -8  -2  181.05    2.84
   2   8   2  180.66    2.68
  -2  -8  -2  183.22    3.00
  -2  -8  -3   76.44    3.65
  -2  -8  -3   81.21    1.70
   2   8   3   82.73    1.91
  -2  -8  -3   82.62    1.86
  -2  -8  -3   82.51    1.95
  -2  -8  -3   80.80    2.04
  -2  -8  -4   18.43    0.88
   2   8   4   19.72    0.95
  -2  -8  -4   18.65    1.01
   2   8   4   18.22    0.99
  -2  -8  -4   17.60    1.02
  -2  -8  -5    0.15    0.37
  -2  -8  -5    0.21    0.37
   2   8   5    0.10    0.44
  -2  -8  -6    0.07    0.36
  -2  -8  -6    0.30    0.41
  -2  -8  -6    0.16    0.41
   2   8   6    0.22    0.44
  -2  -8  -7  161.80    2.48
  -2  -8  -7  162.04    2.48
   2   8   7  163.03    2.82
  -2  -8  -8    1.92    0.45
  -2  -8  -8    1.56    0.46
  -2  -8  -8    2.30    0.48
   2   8   8    1.33    0.37
   2   8   8    2.04    0.56
   2   8   9   43.19    1.28
  -2  -8  -9   43.19    1.30
  -2  -8  -9   44.41    1.06
  -2  -8  -9   41.50    1.29
   2   8   9   44.36    1.49
   2   8   9   42.17    1.31
  -2  -8 -10  235.14    2.83
  -2  -8 -10  227.27    2.27
  -2  -8 -10  232.93    2.82
   2   8  10  233.00    3.16
   2   8  10  230.15    3.02
  -2  -8 -11    0.99    0.39
  -2  -8 -11    1.38    0.26
  -2  -8 -11    1.08    0.30
   2   8  11    1.09    0.37
   2   8  11    1.46    0.43
  -2  -8 -12   68.97    1.42
  -2  -8 -12   65.99    1.09
   2   8  12   66.51    1.50
   2   8  12   66.12    1.53
  -2  -8 -13    4.21    0.29
  -2  -8 -13    4.83    0.42
   2   8  13    4.50    0.43
   2   8  13    4.72    0.47
  -2  -8 -14    7.32    0.43
   2   8  14    7.23    0.40
   2   8  14    7.31    0.47
   2   9  -4  250.74    2.02
  -2  -9   4  248.71    2.12
  -2  -9   4  249.46    2.13
   2   9  -3   71.25    1.23
  -2  -9   3   72.04    1.31
  -2  -9   3   69.68    1.14
  -2  -9   3   69.47    1.33
   2   9  -3   71.38    1.23
   2   9  -2   57.28    1.21
  -2  -9   2   56.74    1.26
  -2  -9   2   56.65    1.17
  -2  -9   2   58.29    1.32
   2   9  -2   57.45    1.25
   2   9  -1    1.33    0.27
   2   9  -1    1.29    0.32
  -2  -9   1    1.22    0.32
  -2  -9   1    1.45    0.38
  -2  -9   1    1.13    0.32
   2   9  -1    1.54    0.37
   2   9   0    1.16    0.31
   2   9   0    1.41    0.32
  -2  -9   0    1.35    0.32
  -2  -9   0    1.35    0.35
  -2  -9   0    0.93    0.37
   2   9   0    1.36    0.40
   2   9   1   40.71    1.19
   2   9   1   42.90    1.15
  -2  -9  -1   40.83    0.93
  -2  -9  -1   42.52    1.20
  -2  -9  -1   40.68    1.20
  -2  -9  -1   41.20    1.29
   2   9   1   40.77    1.24
   2   9   2  136.29    2.20
   2   9   2  134.69    2.01
  -2  -9  -2  130.77    1.76
  -2  -9  -2  137.76    2.11
  -2  -9  -2  135.43    2.19
   2   9   2  135.43    1.86
  -2  -9  -2  135.85    2.31
   2   9   2  137.93    2.24
  -2  -9  -3   72.26    1.38
  -2  -9  -3   74.06    1.40
  -2  -9  -3   76.74    1.55
  -2  -9  -3   74.88    1.68
   2   9   3   76.37    1.53
   2   9   3   72.97    1.66
  -2  -9  -4  199.51    2.36
  -2  -9  -4  200.73    2.35
   2   9   4  205.17    2.62
  -2  -9  -5   27.64    0.93
  -2  -9  -5   27.44    0.92
   2   9   5   26.75    1.03
   2   9   5   29.06    1.02
   2   9   6   61.41    1.54
  -2  -9  -6   58.80    1.33
   2   9   6   60.18    1.52
   2   9   6   62.24    1.37
   2   9   7    4.33    0.50
  -2  -9  -7    4.75    0.45
  -2  -9  -7    5.14    0.51
   2   9   7    4.86    0.53
   2   9   8   15.37    0.75
  -2  -9  -8   16.71    0.72
  -2  -9  -8   16.17    0.77
   2   9   8   16.67    0.83
   2   9   9   13.74    0.64
  -2  -9  -9   14.52    0.66
  -2  -9  -9   13.24    0.68
   2   9   9   14.25    0.75
  -2  -9 -10    3.17    0.37
  -2  -9 -10    3.01    0.35
   2   9  10    3.03    0.43
  -2  -9 -11  171.63    1.93
  -2  -9 -11  172.36    1.82
   2   9  11  176.23    2.12
  -2  -9 -12   23.61    0.68
   2   9  12   24.07    0.72
  -2  -9 -13   65.24    0.94
   2  10   0    7.67    0.36
  -2 -10  -1  101.19    1.30
   2  10   1  101.18    1.34
   2  10   2   52.99    0.97
  -2 -10  -2   52.69    1.03
   2  10   2   52.10    1.01
   2  10   3    5.11    0.39
  -2 -10  -3    5.38    0.40
   2  10   3    4.77    0.37
   2  10   4   70.64    1.26
  -2 -10  -4   69.86    1.26
   2  10   5    3.23    0.35
  -2 -10  -5    3.16    0.34
   2  10   5    3.33    0.29
   2  10   5    2.53    0.26
   2  10   6   38.32    0.92
  -2 -10  -6   37.84    0.94
   2  10   6   37.49    0.85
   2  10   7    8.22    0.43
  -2 -10  -7    8.03    0.45
   2  10   7    8.10    0.44
   2  10   8   58.10    0.93
  -2 -10  -8   58.79    1.04
   2  10   8   58.04    1.03
   2  10   9   82.93    1.15
   3  -8  -9   21.92    0.61
   3  -8  -9   21.19    0.59
   3  -8  -8   21.52    0.68
  -3   8   8   20.64    0.56
   3  -8  -7   61.54    1.07
   3  -8  -7   62.42    1.22
  -3   8   7   60.77    1.06
   3  -8  -6    2.31    0.31
   3  -8  -6    2.78    0.35
  -3   8   6    2.84    0.30
   3  -8  -5    1.84    0.33
   3  -8  -5    1.91    0.32
   3  -8  -4   17.75    0.69
   3  -8  -3   44.90    0.97
   3  -8  -3   47.65    1.03
  -3   8   3   46.98    0.93
   3  -8  -2    5.56    0.41
  -3   8   2    5.91    0.38
   3  -8  -1   69.77    1.41
  -3   8   1   69.68    1.06
   3  -8  -1   71.73    1.24
  -3   8   1   70.80    1.16
   3  -8   0   52.68    1.16
  -3   8   0   54.09    0.95
   3  -8   0   53.79    1.05
  -3   8   0   54.09    1.00
   3  -8   1    2.66    0.27
  -3   8  -1    2.62    0.26
   3  -8   1    2.08    0.28
  -3   8  -1    2.29    0.27
  -3   8  -2    5.18    0.31
   3  -8   2    4.71    0.32
  -3   8  -2    5.17    0.32
   3  -8   3   38.89    0.68
  -3   8  -3   39.23    0.70
  -3   8  -3   39.14    0.71
   3  -7 -11    0.87    0.23
   3  -7 -11    1.12    0.22
  -3   7  11    1.63    0.23
   3  -7 -10   82.14    1.39
   3  -7  -9   27.25    0.92
  -3   7   9   28.18    0.76
   3  -7  -8  364.36    2.96
   3  -7  -8  374.79    3.50
  -3   7   8  368.63    2.92
   3  -7  -7   16.32    0.76
   3  -7  -7   16.50    0.86
  -3   7   7   16.56    0.71
   3  -7  -6   41.35    1.33
   3  -7  -5  145.69    2.44
   3  -7  -5  149.07    2.54
   3  -7  -4    0.40    0.45
   3  -7  -4    0.13    0.37
   3  -7  -4    0.27    0.29
  -3   7   4    0.60    0.24
   3  -7  -3   65.38    1.83
   3  -7  -3   66.32    1.70
   3  -7  -3   66.16    1.44
  -3   7   3   65.80    1.31
   3  -7  -2    3.28    0.63
   3  -7  -2    2.28    0.41
   3  -7  -2    3.02    0.44
  -3   7   2    2.55    0.35
   3  -7  -1   57.84    1.74
   3  -7  -1   58.46    1.37
  -3   7   1   58.43    1.23
   3  -7   0  147.26    2.60
   3  -7   0  146.96    2.11
  -3   7   0  147.46    1.94
   3  -7   0  146.66    2.51
   3  -7   1   80.98    1.56
  -3   7  -1   80.63    1.44
   3  -7   1   80.33    1.85
   3  -7   2   89.82    1.70
   3  -7   2   95.67    1.63
   3  -7   2   92.19    1.91
  -3   7  -2   93.22    1.38
  -3   7  -2   94.38    1.53
   3  -7   3   15.46    0.63
   3  -7   3   16.67    0.69
  -3   7  -3   15.88    0.60
  -3   7  -3   17.10    0.67
   3  -7   3   15.64    0.79
   3  -7   4   46.64    1.02
  -3   7  -4   45.57    0.94
  -3   7  -4   47.97    1.02
   3  -7   4   45.51    1.19
   3  -7   5   48.40    0.94
  -3   7  -5   47.09    0.91
  -3   7  -5   48.74    0.97
   3  -7   5   46.47    1.02
  -3   7  -6   67.81    0.98
  -3   7  -6   68.70    1.02
   3  -6 -13    8.96    0.40
   3  -6 -12   13.76    0.62
   3  -6 -12   14.37    0.52
  -3   6  12   14.43    0.57
   3  -6 -11  170.83    2.28
   3  -6 -11  171.32    2.10
   3  -6 -10   86.14    1.70
  -3   6   9  228.34    2.88
   3  -6  -9  223.08    2.92
   3  -6  -8    1.02    0.32
   3  -6  -8    0.16    0.43
  -3   6   8    0.11    0.23
  -3   6   7   68.55    2.96
   3  -6  -7   64.15    1.77
  -3   6   6    1.36    0.59
   3  -6  -6    0.98    0.42
   3  -6  -6    0.81    0.51
   3  -6  -6    1.18    0.31
  -3   6   5    1.76    0.61
  -3   6   5    1.98    0.74
   3  -6  -5    0.90    0.45
   3  -6  -5    0.79    0.50
   3  -6  -5    1.30    0.34
  -3   6   4   52.63    2.72
  -3   6   4   55.43    2.58
   3  -6  -4   54.73    1.40
   3  -6  -4   56.61    1.87
   3  -6  -4   58.44    1.81
  -3   6   3  452.02    7.18
  -3   6   3  451.53    7.83
   3  -6  -3  448.12    3.94
   3  -6  -3  445.06    5.07
   3  -6  -3  443.58    5.10
  -3   6   2   32.77    2.19
  -3   6   2   32.88    2.01
   3  -6  -2   31.84    1.13
   3  -6  -2   31.37    1.38
  -3   6   1  145.79    4.13
   3  -6  -1  149.14    2.70
   3  -6  -1  141.15    2.73
   3  -6  -1  142.69    2.29
   3  -6  -1  141.67    3.02
  -3   6   0    4.66    0.88
   3  -6   0    5.06    0.76
   3  -6   0    5.19    0.67
   3  -6   0    5.23    0.57
  -3   6  -1    0.27    0.40
   3  -6   1    0.09    0.45
  -3   6  -1    0.30    0.22
   3  -6   1   -0.16    0.44
   3  -6   1    0.19    0.38
   3  -6   2  120.24    2.09
  -3   6  -2  116.79    1.74
   3  -6   2  116.90    2.44
   3  -6   3   80.62    1.82
   3  -6   3   86.51    1.76
  -3   6  -3   85.84    1.51
   3  -6   3   85.61    2.07
   3  -6   4   18.83    0.80
   3  -6   4   20.75    0.88
  -3   6  -4   20.11    0.75
   3  -6   4   20.16    1.01
   3  -6   5  191.58    2.38
  -3   6  -5  192.09    2.15
   3  -6   5  189.13    2.78
   3  -6   6   17.19    0.72
  -3   6  -6   17.81    0.67
   3  -6   6   17.33    0.79
  -3   6  -7   21.25    0.68
   3  -6   7   20.04    0.67
   3  -6   8    8.29    0.37
  -3   6  -8    8.40    0.41
  -3   6  -9    6.92    0.32
  -3   6  -9    7.23    0.31
   3  -5 -14    7.98    0.36
   3  -5 -13   27.05    0.82
   3  -5 -13   29.51    0.80
  -3   5  13   29.33    0.74
   3  -5 -12   34.01    1.06
   3  -5 -12   33.84    0.90
  -3   5  12   34.41    0.93
   3  -5 -12   33.47    0.97
  -3   5  11   10.12    0.62
   3  -5 -11   11.01    0.73
   3  -5 -11   10.85    0.64
   3  -5 -11   11.17    0.64
  -3   5  10   13.74    0.75
   3  -5 -10   13.50    0.80
  -3   5   9    1.41    0.34
   3  -5  -9    1.28    0.47
  -3   5   8   37.54    2.26
   3  -5  -8   41.11    1.45
   3  -5  -8   39.37    1.22
  -3   5   7   87.47    3.40
   3  -5  -7   90.36    2.05
   3  -5  -7   87.81    2.14
  -3   5   7   90.71    3.67
  -3   5   6   27.07    1.98
  -3   5   6   28.80    1.80
   3  -5  -6   32.67    1.38
   3  -5  -6   27.89    1.20
  -3   5   6   27.08    2.07
  -3   5   5    7.17    1.16
  -3   5   5    6.92    0.97
   3  -5  -5    6.47    0.52
   3  -5  -5    6.93    0.78
   3  -5  -5    6.19    0.67
  -3   5   4  122.24    4.12
  -3   5   4  121.19    3.69
   3  -5  -4  117.79    2.00
   3  -5  -4  123.00    2.80
   3  -5  -4  117.90    2.56
  -3   5   4  126.64    3.98
  -3   5   3   38.08    2.13
   3  -5  -3   38.00    1.65
   3  -5  -3   37.24    1.18
   3  -5  -3   38.67    1.61
  -3   5   3   35.90    2.17
  -3   5   2  539.33    7.87
   3  -5  -2  536.62    4.41
   3  -5  -2  517.47    5.73
   3  -5  -2  525.01    5.32
   3  -5  -2  551.54    6.06
  -3   5   2  541.80    8.48
  -3   5   1  715.38    9.15
   3  -5  -1  714.06    5.19
   3  -5  -1  716.74    6.33
   3  -5  -1  719.09    6.20
   3  -5  -1  716.49    6.99
  -3   5   1  735.51   10.03
  -3   5   0  378.95    6.70
  -3   5   0  393.56    6.46
   3  -5   0  391.30    3.87
   3  -5   0  381.15    4.31
   3  -5   0  388.28    4.55
   3  -5   0  377.03    4.99
  -3   5   0  390.51    7.42
  -3   5  -1   31.83    2.01
  -3   5  -1   30.67    1.94
   3  -5   1   29.07    1.43
  -3   5  -1   30.64    2.15
   3  -5   1   32.53    1.18
   3  -5   1   33.54    1.38
  -3   5  -2    3.97    0.84
  -3   5  -2    4.44    0.85
   3  -5   2    3.25    0.61
   3  -5   2    4.52    0.61
   3  -5   2    4.18    0.53
  -3   5  -3    0.76    0.57
  -3   5  -3    1.08    0.55
   3  -5   3    0.88    0.38
   3  -5   3    0.56    0.41
  -3   5  -4  132.97    3.97
  -3   5  -4  136.67    3.99
   3  -5   4  137.64    2.42
   3  -5   4  140.06    2.36
   3  -5   4  140.09    2.70
   3  -5   4  138.53    2.78
  -3   5  -5    9.53    1.08
  -3   5  -5   11.17    1.22
   3  -5   5   10.42    0.79
   3  -5   5   11.14    0.75
   3  -5   5   10.54    0.89
  -3   5  -6    0.20    0.50
   3  -5   6    0.80    0.31
   3  -5   6    0.67    0.40
   3  -5   6    0.72    0.50
  -3   5  -7    5.71    0.84
  -3   5  -7    6.46    0.42
   3  -5   7    5.73    0.52
   3  -5   7    6.03    0.68
  -3   5  -8   77.41    1.28
   3  -5   8   76.50    1.44
   3  -5   8   77.29    1.84
  -3   5  -9   20.66    0.64
  -3   5  -9   21.78    0.69
   3  -5   9   20.55    0.68
   3  -5   9   21.92    0.93
  -3   5 -10   28.64    0.66
  -3   5 -10   29.10    0.70
   3  -5  10   26.80    0.59
  -3   5 -11    0.19    0.12
  -3   4  15    1.65    0.21
   3  -4 -14  157.39    1.72
   3  -4 -14  155.85    1.84
   3  -4 -13    4.36    0.44
   3  -4 -13    3.59    0.41
  -3   4  12    2.11    0.32
   3  -4 -12    2.66    0.44
   3  -4 -12    2.40    0.32
  -3   4  12    2.44    0.35
   3  -4 -12    2.86    0.42
  -3   4  11   31.41    1.10
   3  -4 -11   33.91    1.26
   3  -4 -11   34.33    1.10
   3  -4 -11   32.78    1.16
  -3   4  10  187.05    2.71
  -3   4  10  196.89    5.46
   3  -4 -10  192.84    2.83
   3  -4 -10  193.85    2.82
  -3   4   9   71.59    1.72
  -3   4   9   75.20    3.47
   3  -4  -9   72.57    1.85
  -3   4   9   70.72    3.20
  -3   4   8    1.53    0.65
   3  -4  -8    1.32    0.46
  -3   4   8    1.57    0.61
  -3   4   7  709.30    9.30
   3  -4  -7  719.86    5.82
   3  -4  -7  698.26    5.96
  -3   4   7  711.08   10.19
   3  -4  -7  732.59    5.36
  -3   4   6  475.98    7.67
   3  -4  -6  479.48    4.74
   3  -4  -6  477.25    4.92
   3  -4  -6  467.77    9.09
  -3   4   6  482.15    8.41
  -3   4   5  415.49    7.23
  -3   4   5  421.10    6.32
   3  -4  -5  422.23    4.68
   3  -4  -5  413.31    4.41
   3  -4  -5  428.18    8.91
  -3   4   5  415.57    6.98
  -3   4   4    3.18    0.85
  -3   4   4    3.12    0.67
   3  -4  -4    3.23    0.38
   3  -4  -4    2.61    0.52
   3  -4  -4    3.22    0.52
   3  -4  -4    4.41    1.04
  -3   4   4    2.24    0.64
  -3   4   3  160.22    4.07
   3  -4  -3  161.69    5.71
   3  -4  -3  160.44    2.87
  -3   4   3  157.05    4.47
   3  -4  -3  154.34    2.19
   3  -4  -3  163.07    3.05
  -3   4   2  247.34    5.17
   3  -4  -2  245.70    7.26
   3  -4  -2  249.16    3.68
  -3   4   2  242.02    5.25
  -3   4   2  242.90    5.73
   3  -4  -2  239.57    2.81
   3  -4  -2  245.78    3.73
   3  -4  -2  246.25    3.46
   3  -4  -2  240.35    2.33
  -3   4   1 1748.74   13.94
   3  -4  -1 1737.49   19.83
   3  -4  -1 1752.66    9.95
  -3   4   1 1775.03   14.37
  -3   4   1 1725.80   15.54
  -3   4   1 1765.56   16.91
   3  -4  -1 1724.56    9.47
   3  -4  -1 1743.10    7.72
   3  -4  -1 1754.09    9.13
   3  -4  -1 1732.68    6.30
  -3   4   0  154.97    4.25
  -3   4   0  156.07    3.84
  -3   4   0  152.39    5.09
   3  -4   0  155.04    6.00
   3  -4   0  159.17    3.07
  -3   4   0  156.96    4.36
   3  -4   0  154.82    2.39
   3  -4   0  160.28    2.75
   3  -4   0  154.90    2.73
   3  -4   0  154.40    1.88
  -3   4  -1  410.01    6.45
  -3   4  -1  403.33    8.37
   3  -4   1  405.44    9.60
   3  -4   1  411.63    4.88
  -3   4  -1  410.68    7.17
   3  -4   1  408.41    4.41
   3  -4   1  411.17    3.92
   3  -4   1  405.26    3.00
  -3   4  -2  279.81    5.50
  -3   4  -2  291.61    7.11
   3  -4   2  287.67    7.95
   3  -4   2  284.38    4.01
  -3   4  -2  293.26    6.14
   3  -4   2  284.90    3.71
   3  -4   2  286.48    3.37
   3  -4   2  291.83    2.50
  -3   4  -3  139.02    3.96
  -3   4  -3  143.75    5.08
   3  -4   3  141.63    5.37
  -3   4  -3  145.26    4.36
   3  -4   3  139.77    2.62
   3  -4   3  142.76    2.46
   3  -4   3  142.27    2.79
   3  -4   4   78.34    1.90
  -3   4  -4   72.13    2.91
   3  -4   4   69.98    1.77
   3  -4   4   75.03    2.09
  -3   4  -5   11.46    1.27
   3  -4   5   10.76    0.77
   3  -4   5   11.10    0.92
  -3   4  -6  852.62    9.94
  -3   4  -6  834.95    4.55
   3  -4   6  847.01    5.93
   3  -4   6  843.06    7.00
  -3   4  -7   53.74    2.49
  -3   4  -7   54.35    1.22
   3  -4   7   54.95    1.85
   3  -4   7   55.43    1.53
  -3   4  -8    0.78    0.51
  -3   4  -8    0.19    0.25
   3  -4   8    0.16    0.37
   3  -4   8    0.00    0.47
  -3   4  -9   22.26    1.50
  -3   4  -9   22.13    0.76
  -3   4  -9   22.60    0.76
   3  -4   9   22.15    0.88
   3  -4   9   22.72    1.14
  -3   4 -10    0.75    0.25
  -3   4 -10    1.12    0.25
   3  -4  10    0.59    0.27
   3  -4  10    0.59    0.40
  -3   4 -11   41.69    0.90
   3  -4  11   40.80    0.85
   3  -4  11   41.07    1.20
  -3   4 -12   39.33    0.77
  -3   4 -12   39.91    0.72
   3  -4  12   39.40    0.94
  -3   3  15   32.83    0.76
   3  -3 -15   32.88    0.77
   3  -3 -14   51.81    1.06
  -3   3  14   51.44    1.16
   3  -3 -14   53.94    1.22
  -3   3  13   47.74    1.18
   3  -3 -13   47.15    1.21
   3  -3 -13   46.60    1.27
  -3   3  12    2.09    0.35
   3  -3 -12    2.08    0.42
   3  -3 -12    2.33    0.44
  -3   3  11   81.20    1.75
   3  -3 -11   81.89    1.93
   3  -3 -11   81.37    1.67
   3  -3 -11   80.25    1.88
  -3   3  10   29.54    1.10
  -3   3  10   32.99    2.29
   3  -3 -10   31.35    1.30
   3  -3 -10   30.99    1.16
   3  -3 -10   30.78    1.20
  -3   3   9    1.94    0.37
  -3   3   9    0.19    0.62
  -3   3   9    1.05    0.54
   3  -3  -9    1.23    0.41
   3  -3  -9    0.50    0.34
  -3   3   8  280.05    3.31
  -3   3   8  261.92    6.53
   3  -3  -8  279.26    3.61
  -3   3   8  271.04    6.13
  -3   3   8  276.66    6.94
  -3   3   7  942.14   10.14
   3  -3  -7  935.26    6.63
  -3   3   7  920.02   11.22
  -3   3   6   51.86    2.42
   3  -3  -6   53.39    1.61
   3  -3  -6   49.42    2.81
  -3   3   6   50.36    2.68
   3  -3  -6   55.43    1.49
  -3   3   5  361.76    6.34
   3  -3  -5  365.29    7.85
  -3   3   5  357.93    6.18
   3  -3  -5  369.03    4.14
  -3   3   4 1256.24   10.17
   3  -3  -4 1214.78   14.49
  -3   3   4 1216.00   11.57
   3  -3  -4 1242.07    7.54
   3  -3  -4 1238.44    5.16
  -3   3   3  390.92    5.86
   3  -3  -3  398.43    8.37
   3  -3  -3  413.20    4.19
  -3   3   3  405.68    6.34
  -3   3   3  397.78    6.81
   3  -3  -3  412.60    4.37
   3  -3  -3  407.84    2.99
  -3   3   2  252.49    4.85
   3  -3  -2  252.22    6.71
   3  -3  -2  257.02    3.37
   3  -3  -2  256.01    2.18
  -3   3   2  257.86    5.23
  -3   3   2  249.50    5.58
   3  -3  -2  260.47    3.46
   3  -3  -2  262.39    2.42
   3  -3  -1   88.48    4.07
   3  -3  -1   87.03    2.02
   3  -3  -1   87.61    1.30
  -3   3   1   84.60    3.09
  -3   3   1   86.31    2.85
   3  -3  -1   87.51    1.43
   3  -3   0    3.57    0.53
   3  -3   0    3.26    0.32
  -3   3   0    3.50    0.80
  -3   3   0    1.77    0.61
   3  -3   0    3.45    1.03
  -3   3   0    3.53    0.67
  -3   3   0    2.72    0.60
   3  -3   0    4.32    0.40
   3  -3   1  702.32   11.52
   3  -3   1  703.54    5.75
  -3   3  -1  680.06    9.13
  -3   3  -1  699.33    8.59
  -3   3  -1  710.21    7.69
   3  -3   1  701.53    4.12
   3  -3   1  708.42    4.92
  -3   3  -2  372.49    7.36
   3  -3   2  364.00    4.13
   3  -3   2  364.67    8.29
  -3   3  -2  360.28    6.84
  -3   3  -2  357.67    6.35
  -3   3  -2  363.85    5.70
  -3   3  -2  376.27    5.19
   3  -3   2  369.40    3.69
   3  -3   2  374.76    4.10
   3  -3   2  371.09    3.01
  -3   3  -3   42.68    2.65
   3  -3   3   38.60    2.71
  -3   3  -3   42.56    2.27
  -3   3  -3   41.43    2.00
  -3   3  -3   39.11    1.80
   3  -3   3   43.21    1.05
   3  -3   3   40.91    1.30
   3  -3   3   44.72    1.48
   3  -3   4   22.77    2.02
  -3   3  -4   24.40    1.74
   3  -3   4   23.42    1.03
  -3   3  -4   24.24    1.51
   3  -3   4   24.05    1.04
   3  -3   4   20.54    1.08
  -3   3  -5  742.31   11.25
  -3   3  -5  769.29    9.77
  -3   3  -5  775.27    8.33
   3  -3   5  761.90    6.23
   3  -3   5  756.19    5.73
   3  -3   5  746.10    6.34
  -3   3  -6   44.57    2.86
  -3   3  -6   39.16    1.99
   3  -3   6   42.86    1.45
   3  -3   6   41.75    1.57
   3  -3   6   43.38    1.60
  -3   3  -7  366.95    5.99
   3  -3   7  367.59    4.52
   3  -3   7  372.45    4.63
   3  -3   7  368.00    4.08
  -3   3  -8  438.62    7.22
  -3   3  -8  438.30    6.62
  -3   3  -8  432.05    3.59
   3  -3   8  434.67    4.35
   3  -3   8  437.92    4.92
   3  -3   8  437.11    5.06
  -3   3  -9   66.20    2.75
  -3   3  -9   68.07    1.37
  -3   3  -9   67.09    1.44
   3  -3   9   67.25    1.68
   3  -3   9   67.30    1.95
   3  -3   9   67.90    2.02
  -3   3 -10    6.99    0.87
  -3   3 -10    7.24    0.52
  -3   3 -10    6.47    0.49
   3  -3  10    6.34    0.59
   3  -3  10    7.33    0.80
   3  -3  10    5.47    0.69
  -3   3 -11   82.30    1.39
  -3   3 -11   79.73    1.46
   3  -3  11   80.96    1.54
   3  -3  11   81.53    1.89
   3  -3  11   79.35    1.94
  -3   3 -12  148.48    1.72
  -3   3 -12  145.80    1.81
   3  -3  12  146.31    1.73
   3  -3  12  149.58    2.32
  -3   3 -13  202.44    1.79
  -3   3 -13  196.72    1.82
  -3   3 -14   30.40    0.57
  -3   2  15  366.89    2.46
   3  -2 -15  365.61    2.69
   3  -2 -14    5.55    0.40
  -3   2  14    5.65    0.44
   3  -2 -14    5.97    0.49
  -3   2  13  175.04    2.29
   3  -2 -13  169.54    2.25
   3  -2 -13  174.72    2.47
   3  -2 -12   11.05    0.73
   3  -2 -12   10.92    0.74
  -3   2  11  327.73    3.46
  -3   2  11  338.82    7.20
   3  -2 -11  331.38    3.79
   3  -2 -11  328.91    3.84
  -3   2  10   25.14    0.98
  -3   2  10   23.20    1.98
   3  -2 -10   27.29    1.22
   3  -2 -10   26.17    1.02
   3  -2 -10   24.94    1.13
  -3   2   9 1030.07    6.11
  -3   2   9 1047.54   12.78
  -3   2   9 1033.50   11.53
   3  -2  -9 1037.28    7.14
   3  -2  -9 1024.84    6.53
   3  -2  -9 1042.43    6.90
  -3   2   8    2.06    0.33
  -3   2   8    2.03    0.80
  -3   2   8    1.30    0.64
  -3   2   8    2.48    0.77
   3  -2  -8    1.97    0.49
   3  -2  -8    1.69    0.45
   3  -2  -8    2.26    0.43
  -3   2   7   39.74    1.17
  -3   2   7   37.46    2.44
   3  -2  -7   38.45    1.33
  -3   2   7   38.42    2.21
  -3   2   7   41.94    2.65
  -3   2   6  135.44    3.54
   3  -2  -6  139.56    4.34
  -3   2   6  146.99    4.20
   3  -2  -6  151.02    2.55
  -3   2   5  557.37    7.12
   3  -2  -5  555.47    9.01
  -3   2   5  551.82    8.02
  -3   2   5  554.60    7.14
   3  -2  -5  565.38    4.47
   3  -2  -5  565.94    4.84
   3  -2  -5  560.17    3.37
   3  -2  -4   41.76    2.55
  -3   2   4   39.83    1.82
  -3   2   4   40.26    2.00
   3  -2  -3   82.13    3.57
  -3   2   3   91.35    2.81
  -3   2   3   86.65    2.98
  -3   2   3   86.81    2.53
   3  -2  -2  446.12    8.21
  -3   2   2  462.88    6.58
  -3   2   2  451.95    5.93
  -3   2   2  457.22    5.97
  -3   2   2  464.68    5.50
   3  -2  -1   81.02    3.55
  -3   2   1   75.73    2.84
  -3   2   1   80.13    2.71
  -3   2   1   78.67    2.58
  -3   2   1   80.83    2.47
   3  -2   0  856.52   11.45
  -3   2   0  861.05    9.11
  -3   2   0  848.04    8.60
  -3   2   0  856.23    8.18
   3  -2   1  160.63    5.07
  -3   2  -1  161.36    4.12
  -3   2  -1  159.42    3.70
  -3   2  -1  170.25    3.54
  -3   2  -2  399.23    6.83
   3  -2   2  390.59    7.83
  -3   2  -2  384.03    6.45
  -3   2  -2  393.71    5.92
  -3   2  -2  395.02    5.64
   3  -2   3    0.61    0.59
  -3   2  -3    1.23    0.51
  -3   2  -3    1.28    0.54
  -3   2  -3    1.20    0.59
  -3   2  -4   25.05    1.97
   3  -2   4   23.27    1.94
  -3   2  -4   21.79    1.70
  -3   2  -4   23.13    1.58
  -3   2  -4   23.88    1.53
   3  -2   4   25.63    1.02
   3  -2   4   25.47    1.09
  -3   2  -5   42.43    2.58
   3  -2   5   42.86    2.55
  -3   2  -5   43.77    2.42
  -3   2  -5   42.79    2.12
  -3   2  -5   44.89    2.14
   3  -2   5   42.47    1.37
   3  -2   5   46.03    1.50
   3  -2   5   42.80    1.40
  -3   2  -6  456.99    8.46
  -3   2  -6  448.64    7.76
  -3   2  -6  454.97    6.79
  -3   2  -6  458.25    6.69
   3  -2   6  456.39    4.51
   3  -2   6  458.97    4.84
   3  -2   6  454.64    4.67
  -3   2  -7  399.57    8.17
  -3   2  -7  408.62    7.46
  -3   2  -7  423.95    6.58
  -3   2  -7  417.61    6.47
   3  -2   7  413.17    4.41
   3  -2   7  410.80    4.74
   3  -2   7  406.47    4.59
  -3   2  -8  688.81    8.31
   3  -2   8  678.84    6.29
   3  -2   8  671.78    6.14
   3  -2   8  674.97    5.69
  -3   2  -9   15.48    1.33
  -3   2  -9   15.75    0.76
   3  -2   9   16.99    0.99
   3  -2   9   16.98    1.10
   3  -2   9   15.33    1.03
  -3   2 -10  219.01    4.62
  -3   2 -10  215.60    2.62
   3  -2  10  216.72    3.09
   3  -2  10  219.70    3.51
   3  -2  10  221.65    3.58
  -3   2 -11   50.73    2.34
  -3   2 -11   52.24    1.30
  -3   2 -11   51.19    1.13
   3  -2  11   52.01    1.71
   3  -2  11   54.71    1.74
   3  -2  11   53.94    1.48
  -3   2 -12   57.97    1.19
  -3   2 -12   55.66    1.27
   3  -2  12   57.63    1.36
   3  -2  12   59.38    1.69
   3  -2  12   59.42    1.65
  -3   2 -13    4.70    0.38
  -3   2 -13    4.39    0.40
   3  -2  13    4.52    0.53
   3  -2  13    5.02    0.38
  -3   2 -14    0.53    0.20
  -3   2 -14    0.35    0.21
  -3   2 -14    0.65    0.16
   3  -2  14    0.64    0.30
   3  -1 -15   39.55    0.90
  -3   1  15   37.38    0.79
   3  -1 -14    2.47    0.29
  -3   1  14    2.43    0.32
   3  -1 -14    2.43    0.37
  -3   1  13   11.17    0.62
   3  -1 -13   11.32    0.62
  -3   1  13   11.42    0.62
   3  -1 -13   11.66    0.71
  -3   1  12    7.78    0.58
   3  -1 -12    7.08    0.60
   3  -1 -12    8.02    0.68
  -3   1  11  600.63   10.14
   3  -1 -11  610.21    5.01
   3  -1 -11  599.51    4.94
   3  -1 -11  599.17    5.19
  -3   1  10   70.19    3.32
   3  -1 -10   72.18    1.83
   3  -1 -10   69.94    1.81
   3  -1 -10   69.05    1.84
  -3   1   9 1193.61   13.51
  -3   1   9 1204.10   13.60
   3  -1  -9 1183.46    7.45
   3  -1  -9 1184.17    6.58
   3  -1  -9 1173.04    7.45
  -3   1   8   24.66    2.01
  -3   1   8   26.20    2.26
  -3   1   8   26.61    1.78
  -3   1   8   26.93    2.09
   3  -1  -8   25.48    1.18
   3  -1  -8   24.41    1.04
   3  -1  -8   26.02    1.12
  -3   1   7  181.49    5.05
  -3   1   7  185.42    4.50
  -3   1   7  180.38    5.27
   3  -1  -7  175.36    2.87
   3  -1  -7  181.49    2.72
   3  -1  -7  180.51    2.73
  -3   1   6   82.44    3.35
  -3   1   6   89.25    3.05
  -3   1   6   85.79    3.54
   3  -1  -6   90.07    2.01
   3  -1  -6   88.73    1.89
   3  -1  -6   89.53    1.27
  -3   1   5    1.27    0.47
   3  -1  -5    0.72    0.52
  -3   1   5    0.65    0.40
  -3   1   5    1.39    0.66
  -3   1   4    8.53    0.79
   3  -1  -4   10.07    1.26
  -3   1   4    8.89    0.89
  -3   1   3   32.82    1.57
  -3   1   3   32.56    1.71
   3  -1  -3   33.91    1.82
  -3   1   3   33.37    1.69
   3  -1  -3   34.63    2.18
   3  -1  -2  513.13    8.23
  -3   1   2  485.83    6.38
  -3   1   2  518.40    6.10
  -3   1   2  518.36    6.83
   3  -1  -2  492.44    6.92
  -3   1   2  496.60    5.99
   3  -1  -1  342.62    6.73
  -3   1   1  338.30    5.27
  -3   1   1  339.23    5.62
   3  -1  -1  334.55    5.73
   3  -1   0   23.59    1.90
  -3   1   0   22.15    1.43
  -3   1   0   23.75    1.50
  -3   1   0   24.80    1.56
  -3   1   0   21.84    1.49
   3  -1   0   23.79    1.57
   3  -1   1  251.82    5.83
  -3   1  -1  252.38    4.48
  -3   1  -1  257.33    4.62
  -3   1  -1  255.69    5.03
   3  -1   1  250.78    4.98
  -3   1  -2  540.73    6.22
   3  -1   2  532.36    8.45
  -3   1  -2  544.81    7.40
   3  -1   2  530.60    7.22
   3  -1   3  111.67    3.93
  -3   1  -3  115.57    3.44
  -3   1  -4   13.39    1.27
   3  -1   4   11.91    1.33
  -3   1  -4   11.65    1.22
  -3   1  -4   10.59    1.13
  -3   1  -5   11.24    1.20
   3  -1   5   12.10    1.25
  -3   1  -5   12.83    1.27
  -3   1  -6  337.08    6.75
  -3   1  -6  322.14    5.97
   3  -1   6  335.67    3.38
  -3   1  -6  338.01    5.99
  -3   1  -6  334.96    2.70
  -3   1  -6  335.10    2.73
   3  -1   6  338.22    3.93
  -3   1  -7  179.40    5.16
  -3   1  -7  178.50    4.39
  -3   1  -7  179.98    4.45
  -3   1  -7  178.31    2.06
  -3   1  -7  180.02    2.08
   3  -1   7  176.86    3.02
  -3   1  -8    7.90    1.28
  -3   1  -8    9.26    1.04
  -3   1  -8   10.46    1.19
  -3   1  -8    8.95    0.53
  -3   1  -8    9.78    0.55
   3  -1   8    8.59    0.80
  -3   1  -9  547.53    9.58
  -3   1  -9  554.07    7.37
  -3   1  -9  549.67    7.63
  -3   1  -9  547.11    3.83
  -3   1  -9  551.43    3.79
   3  -1   9  545.81    5.71
  -3   1 -10  205.51    4.61
  -3   1 -10  210.54    2.45
  -3   1 -10  215.43    2.41
   3  -1  10  214.75    3.59
   3  -1  10  212.83    3.47
  -3   1 -11    3.06    0.66
  -3   1 -11    3.69    0.40
  -3   1 -11    3.57    0.40
   3  -1  11    2.84    0.57
   3  -1  11    4.29    0.71
   3  -1  11    3.56    0.56
  -3   1 -12   67.07    2.47
  -3   1 -12   67.23    1.46
  -3   1 -12   70.57    1.37
   3  -1  12   68.19    1.68
   3  -1  12   69.03    1.95
   3  -1  12   65.24    1.79
  -3   1 -13   -0.05    0.30
  -3   1 -13    0.13    0.25
   3  -1  13    0.46    0.31
   3  -1  13   -0.03    0.45
   3  -1  13    0.37    0.33
  -3   1 -14    5.09    0.37
  -3   1 -14    4.83    0.41
   3  -1  14    4.75    0.53
   3  -1  14    4.52    0.38
  -3   1 -15    0.52    0.17
  -3   1 -15    0.37    0.20
   3  -1  15    0.74    0.27
  -3   0  15   58.13    1.02
   3   0 -15   55.80    0.99
   3   0 -14   31.56    0.70
   3   0 -14   31.22    0.92
  -3   0  14   30.36    0.84
  -3   0  13   34.13    1.04
   3   0 -13   34.42    0.93
   3   0 -13   33.92    1.10
  -3   0  12  141.23    2.20
   3   0 -12  140.53    2.11
   3   0 -12  140.58    2.37
  -3   0  11   29.79    1.09
  -3   0  11   30.65    2.26
   3   0 -11   30.86    1.21
   3   0 -11   29.61    1.11
   3   0 -11   29.61    1.20
  -3   0  10  262.26    3.18
  -3   0  10  256.99    6.70
   3   0 -10  265.29    3.62
   3   0 -10  261.85    3.31
   3   0 -10  258.03    3.48
  -3   0   9    2.58    0.82
  -3   0   9    2.80    0.92
   3   0  -9    3.10    0.51
   3   0  -9    3.44    0.59
   3   0  -9    2.88    0.50
  -3   0   8  217.38    5.57
  -3   0   8  205.28    6.13
  -3   0   8  209.64    6.10
   3   0  -8  205.92    3.29
   3   0  -8  212.11    2.72
   3   0  -8  207.61    3.05
   3   0  -8  207.52    2.62
   3   0  -8  204.86    3.05
  -3   0   7  774.78   11.56
  -3   0   7  764.15   10.41
   3   0  -7  755.51    6.01
   3   0  -7  754.51    5.25
   3   0  -7  753.90    5.74
   3   0  -7  755.86    5.13
   3   0  -7  748.21    5.62
  -3   0   6  199.42    4.93
  -3   0   6  202.13    5.82
  -3   0   6  200.97    5.26
   3   0  -6  208.08    2.95
   3   0  -6  208.96    2.76
   3   0  -6  205.70    2.69
  -3   0   5  216.26    5.80
   3   0  -5  227.50    4.66
  -3   0   5  215.11    5.29
  -3   0   5  221.49    4.95
  -3   0   4  770.38   10.45
  -3   0   4  773.55    7.78
   3   0  -4  757.15    8.79
  -3   0   4  768.30    9.60
  -3   0   4  778.12    8.81
  -3   0   3   46.32    2.50
  -3   0   3   47.56    1.91
  -3   0   3   46.73    1.79
   3   0  -3   45.40    2.23
  -3   0   3   46.54    2.34
  -3   0   2  463.02    5.72
  -3   0   2  466.75    7.35
   3   0  -2  458.36    7.29
  -3   0   2  451.71    5.48
   3   0  -2  456.33    6.99
  -3   0   1    8.13    0.99
   3   0  -1    7.91    1.10
   3   0  -1    6.69    0.96
  -3   0   0  349.99    5.58
   3   0   0  347.03    6.39
  -3   0   0  357.57    6.27
   3   0   0  344.04    6.11
  -3   0  -1  529.86    7.20
   3   0   1  519.16    7.82
  -3   0  -1  518.26    7.16
  -3   0  -1  535.97    6.67
  -3   0  -2   22.27    1.47
   3   0   2   20.62    1.67
  -3   0  -2   23.91    1.50
  -3   0  -2   24.28    1.64
   3   0   2   25.40    1.69
  -3   0  -3   74.77    2.54
   3   0   3   76.83    3.04
  -3   0  -3   75.80    2.90
   3   0   3   79.99    2.93
  -3   0  -4  653.56    7.27
  -3   0  -4  661.37    8.58
   3   0   4  654.82    8.27
  -3   0  -4  661.48    3.46
  -3   0  -5 1443.92   12.77
   3   0   5 1464.47   12.04
  -3   0  -5 1487.08    5.28
  -3   0  -6   11.59    1.22
   3   0   6   12.20    1.13
  -3   0  -6   12.53    0.56
  -3   0  -7    0.12    0.62
  -3   0  -7    0.88    0.48
  -3   0  -7    1.22    0.61
   3   0   7    1.29    0.41
  -3   0  -7    0.99    0.31
   3   0   7    1.33    0.41
   3   0   7    0.71    0.32
  -3   0  -8  488.53    8.34
  -3   0  -8  466.65    7.33
  -3   0  -8  458.34    7.40
  -3   0  -8  484.77    3.27
   3   0   8  466.87    4.33
  -3   0  -8  482.06    3.64
   3   0   8  478.58    4.96
   3   0   8  479.43    5.01
  -3   0  -9   -0.11    0.56
  -3   0  -9   -0.85    0.70
   3   0   9   -0.02    0.35
  -3   0  -9    0.65    0.34
  -3   0  -9    0.66    0.31
   3   0   9    0.88    0.50
   3   0   9    0.04    0.41
  -3   0 -10  153.40    3.87
  -3   0 -10  157.13    4.19
  -3   0 -10  157.76    2.17
  -3   0 -10  155.43    2.14
   3   0  10  160.19    3.17
  -3   0 -11  363.73    6.14
  -3   0 -11  366.47    3.29
  -3   0 -11  367.22    3.26
   3   0  11  379.38    4.85
  -3   0 -12   72.70    2.65
  -3   0 -12   75.12    1.49
  -3   0 -12   74.88    1.49
   3   0  12   77.95    2.17
  -3   0 -13  847.04    4.76
  -3   0 -13  845.58    8.25
  -3   0 -13  842.52    4.66
  -3   0 -14   19.11    0.75
  -3   0 -14   19.49    0.71
   3   0  14   19.76    0.83
   3   0  14   19.82    1.00
  -3   0 -15   31.12    0.72
  -3   0 -15   31.88    0.83
  -3   0 -15   30.78    0.79
   3   0  15   31.86    1.05
   3   0  15   29.80    0.79
  -3   0 -16    1.43    0.16
  -3   0 -16    1.69    0.22
   3   0  16    1.23    0.26
   3   1 -15    0.44    0.14
  -3  -1  14    2.70    0.30
  -3  -1  14    2.67    0.32
   3   1 -14    2.23    0.31
  -3  -1  13   29.34    0.93
   3   1 -13   29.20    0.77
   3   1 -13   29.73    0.98
  -3  -1  13   30.46    0.89
  -3  -1  12   17.81    0.81
   3   1 -12   19.00    0.76
   3   1 -12   17.62    0.86
  -3  -1  11   93.49    1.85
   3   1 -11   89.38    1.74
   3   1 -11   89.90    1.97
  -3  -1  10   68.06    1.62
  -3  -1  10   70.69    3.47
   3   1 -10   68.60    1.64
   3   1 -10   68.04    1.79
  -3  -1   9  673.12    5.02
  -3  -1   9  668.02   10.67
  -3  -1   9  684.42   10.81
   3   1  -9  668.92    5.96
   3   1  -9  676.43    5.27
   3   1  -9  686.38    4.58
   3   1  -9  659.66    5.60
  -3  -1   8  180.00    2.57
  -3  -1   8  170.05    5.39
  -3  -1   8  182.01    5.60
   3   1  -8  181.48    3.15
   3   1  -8  180.17    2.30
   3   1  -8  177.43    2.75
   3   1  -8  180.66    2.54
   3   1  -8  178.84    2.89
  -3  -1   7    9.76    1.44
  -3  -1   7   11.53    1.49
  -3  -1   7   11.33    1.49
   3   1  -7   12.49    0.88
   3   1  -7   11.95    0.67
   3   1  -7   10.35    0.74
   3   1  -7   12.13    0.74
   3   1  -7   12.81    0.80
  -3  -1   6  211.00    4.93
  -3  -1   6  204.19    5.63
  -3  -1   6  200.28    5.71
  -3  -1   6  198.95    5.61
   3   1  -6  201.56    2.58
   3   1  -6  204.28    2.87
   3   1  -6  205.74    2.83
   3   1  -6  200.60    2.84
  -3  -1   5  108.57    3.37
  -3  -1   5  100.24    3.94
  -3  -1   5   98.66    3.95
   3   1  -5  111.77    3.43
  -3  -1   5  105.64    3.56
   3   1  -5  105.91    1.87
   3   1  -5  106.58    2.02
   3   1  -5  106.24    2.02
  -3  -1   4  326.81    6.75
  -3  -1   4  333.09    6.81
  -3  -1   4  336.71    6.12
   3   1  -4  335.51    6.12
  -3  -1   4  355.35    5.72
  -3  -1   3   97.62    3.54
  -3  -1   3   98.62    3.55
  -3  -1   3   99.87    3.19
   3   1  -3   95.45    3.41
  -3  -1   3   99.47    2.85
  -3  -1   2  276.14    5.64
  -3  -1   2  284.29    5.72
  -3  -1   2  288.88    5.15
   3   1  -2  278.56    5.77
  -3  -1   1  432.46    6.65
  -3  -1   1  455.77    6.86
  -3  -1   1  441.33    6.10
   3   1  -1  453.80    7.42
   3   1   0  103.46    3.57
  -3  -1   0  107.12    3.07
  -3  -1   0  105.42    3.59
  -3  -1   0  103.92    3.09
  -3  -1   0  105.06    3.34
  -3  -1   0  101.04    2.76
   3   1   1   22.15    1.69
  -3  -1  -1   25.74    1.42
  -3  -1  -1   23.43    1.69
  -3  -1  -1   22.38    1.35
  -3  -1  -1   23.40    1.52
   3   1   2  190.56    4.86
  -3  -1  -2  196.88    4.62
  -3  -1  -2  200.62    4.22
  -3  -1  -2  193.28    4.51
  -3  -1  -2  199.98    4.12
  -3  -1  -3 1290.21   11.57
  -3  -1  -3 1318.46   10.80
  -3  -1  -3 1318.10   11.36
  -3  -1  -3 1314.69    9.70
   3   1   3 1313.88   12.56
  -3  -1  -4  104.13    3.20
  -3  -1  -4  104.46    3.10
   3   1   4  101.13    3.50
  -3  -1  -5   90.27    2.93
  -3  -1  -5   95.56    3.04
  -3  -1  -5   91.49    3.33
   3   1   5   93.20    3.32
  -3  -1  -5   93.41    1.45
  -3  -1  -6   70.03    2.72
  -3  -1  -6   72.56    2.97
   3   1   6   70.24    2.82
  -3  -1  -6   73.32    1.30
  -3  -1  -7  332.81    6.03
  -3  -1  -7  325.14    6.24
  -3  -1  -7  327.15    2.84
   3   1   7  334.82    3.80
   3   1   7  327.87    3.95
  -3  -1  -8   75.69    3.00
  -3  -1  -8   74.27    2.91
  -3  -1  -8   77.68    1.44
   3   1   8   79.85    1.91
  -3  -1  -8   76.05    1.56
   3   1   8   76.24    1.94
   3   1   8   77.41    2.04
  -3  -1  -9   13.96    1.40
  -3  -1  -9   13.69    0.65
   3   1   9   14.56    0.89
  -3  -1  -9   14.18    0.74
   3   1   9   13.95    0.96
   3   1   9   12.87    0.93
  -3  -1 -10   23.09    1.82
  -3  -1 -10   21.43    1.56
  -3  -1 -10   23.59    1.79
   3   1  10   26.27    1.12
  -3  -1 -10   23.79    0.91
   3   1  10   24.69    1.29
   3   1  10   24.85    1.28
  -3  -1 -11  148.31    4.10
   3   1  11  151.51    2.47
  -3  -1 -11  153.63    2.19
  -3  -1 -11  152.27    2.18
   3   1  11  154.03    3.15
   3   1  11  150.12    2.94
  -3  -1 -12    4.82    0.82
  -3  -1 -12    4.99    0.51
   3   1  12    5.75    0.78
   3   1  12    4.88    0.69
  -3  -1 -13    0.19    0.33
  -3  -1 -13    0.19    0.31
   3   1  13    0.43    0.55
  -3  -1 -13    0.62    0.37
  -3  -1 -14   29.20    0.89
  -3  -1 -14   29.70    0.91
   3   1  14   29.60    1.24
  -3  -1 -15  415.22    2.91
  -3  -1 -15  411.29    3.02
   3   1  15  404.10    3.31
   3   1  15  409.14    3.85
  -3  -1 -16    1.04    0.17
  -3  -1 -16    1.12    0.23
   3   1  16    0.86    0.20
   3   1  16    1.12    0.29
  -3  -2  14   10.73    0.44
   3   2 -14   10.58    0.45
  -3  -2  13    0.46    0.24
   3   2 -13    0.04    0.14
  -3  -2  13    0.10    0.22
   3   2 -13    0.12    0.24
  -3  -2  12    2.76    0.39
   3   2 -12    3.07    0.32
  -3  -2  12    2.69    0.39
   3   2 -12    3.41    0.45
  -3  -2  11   10.58    0.67
   3   2 -11   10.68    0.60
   3   2 -11   10.27    0.71
  -3  -2  10  353.19    7.43
  -3  -2  10  341.40    3.56
   3   2 -10  341.49    3.36
   3   2 -10  342.71    3.83
  -3  -2   9   93.99    1.90
  -3  -2   9   90.49    3.91
   3   2  -9   93.83    1.88
   3   2  -9   92.52    2.08
  -3  -2   8   68.21    1.60
  -3  -2   8   67.16    3.41
  -3  -2   8   66.29    3.33
   3   2  -8   67.17    1.66
   3   2  -8   67.92    1.60
   3   2  -8   66.69    1.80
  -3  -2   7   88.92    1.78
  -3  -2   7   84.53    3.78
  -3  -2   7   86.08    3.80
   3   2  -7   88.89    1.90
   3   2  -7   84.18    1.89
   3   2  -7   86.91    2.02
  -3  -2   6   91.13    1.73
  -3  -2   6   86.53    3.73
  -3  -2   6   88.73    3.78
   3   2  -6   87.95    1.88
   3   2  -6   87.47    1.96
   3   2  -6   88.58    1.95
  -3  -2   5   13.71    0.68
  -3  -2   5   11.08    1.39
  -3  -2   5   11.52    1.41
  -3  -2   5   10.38    1.35
   3   2  -5   11.87    0.63
   3   2  -5   11.45    0.70
   3   2  -5   11.68    0.75
   3   2  -5   12.67    0.75
  -3  -2   4  299.69    2.84
  -3  -2   4  292.39    6.26
  -3  -2   4  298.00    6.53
  -3  -2   4  299.74    6.49
   3   2  -4  305.08    6.23
   3   2  -4  301.22    2.99
   3   2  -4  302.43    3.23
   3   2  -4  310.84    3.55
   3   2  -3   56.73    2.78
  -3  -2   3   52.77    2.60
  -3  -2   3   57.91    2.79
  -3  -2   3   58.16    2.80
  -3  -2   3   56.70    1.17
   3   2  -2  273.43    6.09
  -3  -2   2  284.86    5.61
  -3  -2   2  275.09    5.76
  -3  -2   2  287.06    5.86
  -3  -2   2  275.49    6.24
   3   2  -1  352.76    6.91
  -3  -2   1  362.46    5.90
  -3  -2   1  352.98    6.18
  -3  -2   1  345.98    6.69
   3   2   0  380.25    7.18
  -3  -2   0  391.47    5.74
  -3  -2   0  398.03    7.21
  -3  -2   0  391.54    6.10
  -3  -2   0  386.93    6.73
   3   2   1  274.26    6.17
  -3  -2  -1  284.69    5.91
  -3  -2  -1  289.53    4.87
  -3  -2  -1  286.87    5.50
  -3  -2  -1  279.79    5.34
   3   2   2  647.17    9.40
  -3  -2  -2  646.73    8.65
  -3  -2  -2  666.07    8.00
  -3  -2  -2  655.52    7.99
   3   2   3  124.54    4.15
  -3  -2  -3  126.27    3.80
  -3  -2  -3  120.03    3.67
  -3  -2  -3  130.29    3.79
  -3  -2  -3  122.87    3.45
   3   2   4   16.64    1.58
  -3  -2  -4   17.46    1.43
  -3  -2  -4   16.08    1.40
   3   2   5    3.52    0.84
  -3  -2  -5    2.96    0.68
  -3  -2  -5    4.83    0.85
   3   2   6  191.37    5.02
  -3  -2  -6  201.74    4.88
  -3  -2  -6  190.78    2.20
  -3  -2  -7  185.57    4.82
  -3  -2  -7  187.66    4.88
   3   2   7  184.32    4.79
  -3  -2  -7  185.23    2.23
   3   2   7  182.74    2.85
   3   2   7  183.83    3.02
  -3  -2  -8  119.49    3.98
  -3  -2  -8  123.76    3.89
  -3  -2  -8  121.41    1.89
   3   2   8  116.73    2.53
  -3  -2  -9   11.18    1.37
  -3  -2  -9   10.40    0.65
  -3  -2  -9   12.36    0.74
   3   2   9   12.19    0.83
   3   2   9   13.15    0.97
  -3  -2 -10  488.89    3.78
  -3  -2 -10  487.03    4.01
  -3  -2 -10  470.93    8.21
  -3  -2 -10  480.62    3.90
   3   2  10  477.78    5.26
   3   2  10  492.80    5.42
  -3  -2 -11    0.22    0.52
   3   2  11    0.48    0.39
  -3  -2 -11    0.16    0.34
  -3  -2 -11    0.48    0.74
  -3  -2 -11    0.57    0.31
   3   2  11   -0.28    0.52
   3   2  11    0.49    0.52
  -3  -2 -12  204.41    4.63
   3   2  12  205.15    2.97
  -3  -2 -12  201.63    2.50
  -3  -2 -12  202.25    2.50
  -3  -2 -12  201.82    2.50
   3   2  12  201.84    3.55
   3   2  12  206.91    3.43
  -3  -2 -13   95.61    2.86
   3   2  13  101.26    1.90
  -3  -2 -13  100.28    1.70
  -3  -2 -13  102.05    1.74
   3   2  13  101.51    2.42
   3   2  13  102.20    2.34
  -3  -2 -14  590.74    3.86
   3   2  14  593.24    5.35
  -3  -2 -14  584.73    3.82
   3   2  14  591.33    5.10
  -3  -2 -15   72.75    1.27
  -3  -2 -15   76.39    1.29
   3   2  15   72.08    1.68
  -3  -2 -16    3.34    0.22
  -3  -2 -16    3.41    0.31
  -3  -2 -16    3.43    0.31
   3   2  16    3.18    0.38
  -3  -2 -17  242.23    1.61
  -3  -3  13    5.24    0.32
   3   3 -13    5.06    0.35
  -3  -3  12    0.09    0.23
   3   3 -12   -0.04    0.16
  -3  -3  12    0.30    0.23
   3   3 -12    0.28    0.28
  -3  -3  11   44.40    1.22
   3   3 -11   44.02    1.00
  -3  -3  11   42.95    1.19
   3   3 -11   41.54    1.21
  -3  -3  10  115.65    2.07
   3   3 -10  116.90    1.79
  -3  -3  10  115.51    2.04
   3   3 -10  117.75    2.15
  -3  -3   9  161.71    5.06
   3   3  -9  161.50    2.29
  -3  -3   9  162.51    2.50
   3   3  -9  161.14    2.65
  -3  -3   8    0.94    0.34
  -3  -3   8   -0.28    0.64
   3   3  -8    0.69    0.39
  -3  -3   8   -0.25    0.35
   3   3  -8    1.01    0.43
  -3  -3   7  364.64    7.75
  -3  -3   7  361.51    3.65
  -3  -3   7  362.95    8.11
   3   3  -7  356.99    3.67
   3   3  -7  362.75    3.91
   3   3  -7  353.02    4.06
  -3  -3   6  645.95   10.19
  -3  -3   6  651.97    4.76
  -3  -3   6  646.17   10.83
   3   3  -6  660.89    4.94
   3   3  -6  640.47    5.44
   3   3  -6  659.48    5.47
  -3  -3   5    3.52    0.42
  -3  -3   5    3.12    0.86
  -3  -3   5    3.49    0.87
   3   3  -5    2.65    0.43
   3   3  -5    2.46    0.47
   3   3  -5    2.94    0.46
  -3  -3   4  114.13    1.83
   3   3  -4  117.22    4.09
  -3  -3   4  115.07    4.08
  -3  -3   4  114.83    4.39
   3   3  -4  113.93    2.35
   3   3  -4  116.42    2.03
   3   3  -4  117.11    2.32
   3   3  -4  110.46    2.09
   3   3  -3  558.96    9.09
  -3  -3   3  575.13    8.65
  -3  -3   3  566.24    9.43
   3   3  -3  565.68    4.31
   3   3  -3  576.34    5.03
   3   3  -2   86.05    3.65
  -3  -3   2   81.45    3.16
  -3  -3   2   79.89    3.48
   3   3  -2   84.92    1.93
   3   3  -1   84.91    3.68
  -3  -3   1   82.18    3.58
  -3  -3   1   78.37    3.34
  -3  -3   1   79.40    2.90
   3   3   0  362.05    7.57
  -3  -3   0  375.59    7.24
  -3  -3   0  364.68    6.86
  -3  -3   0  378.70    5.95
   3   3   1  223.89    6.04
  -3  -3  -1  216.88    5.35
  -3  -3  -1  216.50    5.11
  -3  -3  -1  212.31    5.24
   3   3   2    0.19    0.58
  -3  -3  -2    0.70    0.48
  -3  -3  -2    0.28    0.54
   3   3   3   29.77    2.28
  -3  -3  -3   30.45    2.00
  -3  -3  -3   30.80    1.97
  -3  -3  -3   31.00    1.97
   3   3   4  199.35    5.73
  -3  -3  -4  209.73    5.00
  -3  -3  -4  203.81    5.20
  -3  -3  -4  206.40    4.93
   3   3   5    0.83    0.58
  -3  -3  -5    1.73    0.62
  -3  -3  -5    1.50    0.76
  -3  -3  -5    0.69    0.25
  -3  -3  -6  145.20    4.02
  -3  -3  -6  150.97    4.51
  -3  -3  -6  145.94    2.03
  -3  -3  -6  145.15    1.86
   3   3   6  143.51    2.59
   3   3   7   22.86    1.89
  -3  -3  -7   20.53    1.79
  -3  -3  -7   20.63    0.84
   3   3   7   21.14    1.07
   3   3   7   20.35    1.06
  -3  -3  -8   37.77    2.37
  -3  -3  -8   36.45    2.20
  -3  -3  -8   37.72    1.15
   3   3   8   38.87    1.45
   3   3   8   39.50    1.55
  -3  -3  -9   12.51    1.49
  -3  -3  -9   13.96    0.78
   3   3   9   13.84    0.94
   3   3   9   13.44    1.02
  -3  -3 -10  206.17    5.58
  -3  -3 -10  204.90    2.58
  -3  -3 -10  198.33    2.67
   3   3  10  202.01    3.26
   3   3  10  212.21    3.69
  -3  -3 -11   18.25    0.81
  -3  -3 -11   18.39    0.87
  -3  -3 -11   17.43    1.69
  -3  -3 -11   16.93    0.84
   3   3  11   18.63    1.08
   3   3  11   17.67    1.16
  -3  -3 -12    0.51    0.43
  -3  -3 -12    0.53    0.34
  -3  -3 -12   -0.21    0.83
  -3  -3 -12    0.09    0.32
   3   3  12    0.24    0.39
   3   3  12   -0.12    0.52
   3   3  13    0.35    0.39
  -3  -3 -13    0.30    0.32
  -3  -3 -13    0.13    0.28
  -3  -3 -13    0.13    0.32
   3   3  13    0.36    0.38
   3   3  13    0.23    0.52
   3   3  14   17.31    0.78
  -3  -3 -14   17.97    0.72
  -3  -3 -14   17.84    0.75
   3   3  14   17.47    0.93
  -3  -3 -14   17.95    0.71
   3   3  14   17.20    1.00
  -3  -3 -15   15.04    0.60
  -3  -3 -15   15.03    0.60
   3   3  15   15.04    0.82
   3   3  15   15.15    0.77
  -3  -3 -16  126.79    1.48
  -3  -3 -16  128.55    1.44
   3   3  16  123.57    1.73
  -3  -4  12   44.75    0.93
   3   4 -12   44.63    0.90
  -3  -4  11    5.08    0.42
   3   4 -11    4.65    0.31
  -3  -4  11    5.16    0.37
   3   4 -11    4.55    0.42
  -3  -4  10    8.69    0.58
   3   4 -10    8.57    0.49
  -3  -4  10    8.84    0.54
   3   4 -10    9.19    0.63
  -3  -4   9   88.35    1.82
   3   4  -9   86.32    1.52
  -3  -4   9   85.78    1.70
   3   4  -9   87.91    1.84
  -3  -4   8  746.86    5.41
   3   4  -8  747.17    4.76
  -3  -4   8  750.20    5.14
   3   4  -8  754.53    4.99
   3   4  -8  745.18    5.56
  -3  -4   7  785.57   11.29
  -3  -4   7  773.50    5.57
   3   4  -7  761.34    5.57
   3   4  -7  780.45    5.07
   3   4  -7  778.78    5.63
   3   4  -7  785.72    5.85
  -3  -4   6    3.33    0.52
  -3  -4   6    2.79    0.88
   3   4  -6    4.16    0.55
   3   4  -6    3.44    0.49
   3   4  -6    2.82    0.49
   3   4  -6    3.62    0.55
  -3  -4   5   31.88    1.16
  -3  -4   5   30.49    2.33
  -3  -4   5   30.46    2.26
   3   4  -5   34.08    1.42
   3   4  -5   31.30    1.09
   3   4  -5   32.00    1.30
   3   4  -5   30.02    1.22
  -3  -4   4   60.99    3.09
  -3  -4   4   65.46    1.57
  -3  -4   4   62.02    3.25
   3   4  -4   65.03    1.94
   3   4  -4   61.36    1.52
   3   4  -4   62.73    1.79
   3   4  -4   61.78    1.67
  -3  -4   3  208.00    2.68
  -3  -4   3  206.28    5.50
   3   4  -3  204.99    2.79
   3   4  -3  209.08    5.89
  -3  -4   3  203.91    6.12
  -3  -4   3  205.22    5.84
   3   4  -3  201.73    3.41
   3   4  -3  202.35    2.65
   3   4  -3  207.17    3.18
   3   4  -3  203.13    2.89
  -3  -4   2  270.59    6.01
   3   4  -2  270.86    3.31
   3   4  -2  262.65    6.80
  -3  -4   2  264.08    6.74
  -3  -4   2  267.20    6.49
   3   4  -2  268.55    3.84
   3   4  -2  269.39    2.94
   3   4  -2  260.61    3.17
   3   4  -2  273.93    3.64
  -3  -4   1  105.53    3.62
   3   4  -1  105.67    2.12
   3   4  -1  102.01    4.28
  -3  -4   1   98.84    4.04
  -3  -4   1  104.84    3.94
   3   4  -1  102.44    2.32
   3   4  -1  104.54    1.77
   3   4  -1  105.48    2.29
  -3  -4   0    2.39    0.36
   3   4   0    3.25    0.47
   3   4   0    2.02    0.84
   3   4   0    2.03    0.84
  -3  -4   0    2.35    0.66
  -3  -4   0    3.48    0.78
  -3  -4   0    1.67    0.73
   3   4   0    2.57    0.47
   3   4   0    2.41    0.32
   3   4   0    3.18    0.50
  -3  -4  -1  379.62    7.77
   3   4   1  377.85    8.35
   3   4   1  379.45    4.17
   3   4   1  375.53    8.44
  -3  -4  -1  376.14    7.29
   3   4   1  379.49    4.12
   3   4   1  369.44    4.31
  -3  -4  -2    0.01    0.65
   3   4   2    1.49    0.43
   3   4   2    1.09    0.44
   3   4   2    1.37    0.77
   3   4   2    0.82    0.84
  -3  -4  -2    1.46    0.70
  -3  -4  -2    1.10    0.56
  -3  -4  -3    9.48    1.35
   3   4   3    8.68    0.68
   3   4   3    8.85    0.74
   3   4   3    9.19    1.49
  -3  -4  -3    8.06    1.13
   3   4   3    7.82    1.44
   3   4   4 1494.43    8.55
   3   4   4 1500.88   17.42
   3   4   4 1482.17   17.36
  -3  -4  -4 1457.01   13.78
  -3  -4  -4 1494.85   15.16
  -3  -4  -4 1480.33   14.59
   3   4   5  342.07    4.05
   3   4   5  334.74    8.26
  -3  -4  -5  342.18    6.53
   3   4   5  333.70    8.27
  -3  -4  -5  336.24    7.19
  -3  -4  -5  327.53    6.89
  -3  -4  -5  338.27    3.13
   3   4   5  339.80    4.14
   3   4   6  328.74    3.85
   3   4   6  319.19    7.86
  -3  -4  -6  314.96    6.14
  -3  -4  -6  314.32    6.94
  -3  -4  -6  323.26    3.17
  -3  -4  -6  329.07    3.06
   3   4   6  327.66    4.16
   3   4   7   88.18    1.95
   3   4   7   89.20    4.00
  -3  -4  -7   92.31    3.81
  -3  -4  -7   94.79    1.68
  -3  -4  -7   92.52    1.72
   3   4   7   94.39    2.30
   3   4   7   91.91    2.26
  -3  -4  -8   48.51    1.31
  -3  -4  -8   48.88    1.25
  -3  -4  -8   46.97    2.76
  -3  -4  -8   46.94    1.27
   3   4   8   46.71    1.65
   3   4   8   45.73    1.69
  -3  -4  -9  437.48    3.84
  -3  -4  -9  425.76    3.64
  -3  -4  -9  440.36    8.33
  -3  -4  -9  435.09    3.78
   3   4   9  426.09    4.88
   3   4   9  437.74    5.31
  -3  -4 -10   55.29    2.99
  -3  -4 -10   56.44    1.42
   3   4  10   54.13    1.76
   3   4  10   54.34    1.94
  -3  -4 -11    3.38    0.45
  -3  -4 -11    2.83    0.45
  -3  -4 -11    4.03    0.91
  -3  -4 -11    2.91    0.50
   3   4  11    2.91    0.64
   3   4  11    2.99    0.62
  -3  -4 -12  253.29    2.82
  -3  -4 -12  254.61    2.91
   3   4  12  262.06    3.92
  -3  -4 -13   34.53    1.01
  -3  -4 -13   34.59    1.00
  -3  -4 -13   33.15    1.06
   3   4  13   33.36    1.40
   3   4  14    0.97    0.36
  -3  -4 -14    0.95    0.28
  -3  -4 -14    0.62    0.25
  -3  -4 -14    1.25    0.32
   3   4  14    0.81    0.46
   3   4  15    9.34    0.53
  -3  -4 -15    9.51    0.47
  -3  -4 -15    9.97    0.48
   3   4  15   10.02    0.69
  -3  -4 -16   53.41    0.89
   3   4  16   55.52    1.22
  -3  -5  11   59.17    1.00
   3   5 -11   61.06    0.97
  -3  -5  10   57.01    1.19
  -3  -5  10   55.27    1.19
   3   5 -10   53.83    0.90
   3   5 -10   54.57    1.15
  -3  -5   9   38.62    1.11
  -3  -5   9   39.04    1.13
   3   5  -9   40.41    0.92
   3   5  -9   40.85    1.12
  -3  -5   8   12.75    0.74
  -3  -5   8   11.54    0.69
  -3  -5   8   11.49    0.72
   3   5  -8   12.46    0.63
   3   5  -8   11.39    0.58
   3   5  -8   12.63    0.60
   3   5  -8   11.62    0.72
  -3  -5   7    1.38    0.39
  -3  -5   7    1.49    0.42
   3   5  -7    2.08    0.40
   3   5  -7    1.47    0.39
   3   5  -7    1.05    0.36
   3   5  -7    1.45    0.45
  -3  -5   6  361.31    4.00
  -3  -5   6  360.88    3.76
   3   5  -6  362.73    4.07
   3   5  -6  362.76    3.35
   3   5  -6  362.96    3.91
   3   5  -6  362.38    3.94
  -3  -5   5    3.49    0.53
  -3  -5   5    4.38    0.51
   3   5  -5    4.15    0.62
   3   5  -5    3.52    0.49
   3   5  -5    3.36    0.56
   3   5  -5    3.37    0.54
  -3  -5   4    9.59    0.74
  -3  -5   4    9.34    0.67
  -3  -5   4    7.56    1.21
   3   5  -4    9.23    0.85
   3   5  -4    9.16    0.64
   3   5  -4    8.61    0.71
   3   5  -4    9.08    0.78
  -3  -5   3  130.92    2.42
  -3  -5   3  133.29    2.25
   3   5  -3  134.54    2.33
   3   5  -3  135.25    2.87
   3   5  -3  133.61    2.15
   3   5  -3  131.51    2.43
   3   5  -3  136.04    2.67
  -3  -5   2    5.56    0.57
   3   5  -2    5.33    0.59
   3   5  -2    7.90    1.29
  -3  -5   2    6.16    0.57
   3   5  -2    5.61    0.54
   3   5  -2    4.94    0.70
   3   5  -2    5.34    0.57
   3   5  -2    5.59    0.67
  -3  -5   1  458.17    4.29
   3   5  -1  453.52    4.63
   3   5  -1  456.11    9.45
   3   5  -1  458.91    9.09
   3   5  -1  455.08    5.13
   3   5  -1  458.67    3.87
   3   5  -1  454.77    4.28
   3   5  -1  457.37    4.95
  -3  -5   0   46.87    1.36
  -3  -5   0   48.13    3.13
   3   5   0   45.85    1.55
   3   5   0   47.75    3.17
  -3  -5   0   44.72    2.58
   3   5   0   46.35    2.99
   3   5   0   45.93    1.64
   3   5   0   45.83    1.22
   3   5   0   45.98    1.35
   3   5   0   48.84    1.68
  -3  -5  -1  167.15    2.46
  -3  -5  -1  159.49    5.47
   3   5   1  165.49    2.94
   3   5   1  164.87    6.01
  -3  -5  -1  161.28    5.10
   3   5   1  162.92    5.78
   3   5   1  163.70    2.93
   3   5   1  161.66    2.17
   3   5   1  156.89    2.40
   3   5   1  163.40    3.08
  -3  -5  -2    0.14    0.26
  -3  -5  -2    0.58    0.69
   3   5   2    0.02    0.39
   3   5   2   -1.54    0.75
   3   5   2    0.47    0.81
  -3  -5  -2    0.04    0.34
   3   5   2    0.06    0.44
   3   5   2    0.28    0.23
   3   5   2    0.22    0.44
  -3  -5  -3   43.49    2.79
   3   5   3   45.05    1.67
   3   5   3   45.86    3.39
   3   5   3   49.83    3.49
  -3  -5  -3   45.81    2.59
   3   5   3   46.16    1.53
   3   5   3   47.57    1.57
   3   5   3   46.81    1.65
   3   5   4  350.79    4.54
   3   5   4  340.25    9.19
  -3  -5  -4  349.43    6.82
   3   5   4  345.78    9.12
  -3  -5  -4  348.33    7.80
  -3  -5  -4  349.51    7.72
  -3  -5  -4  351.33    3.46
   3   5   4  338.78    4.28
   3   5   4  353.13    4.21
   3   5   5  862.48    7.07
   3   5   5  879.81   14.53
  -3  -5  -5  846.69   10.32
  -3  -5  -5  886.97   12.34
   3   5   5  847.55   14.17
  -3  -5  -5  882.17   12.17
  -3  -5  -5  869.24    5.35
   3   5   5  857.20    7.03
   3   5   6 3284.85   13.50
   3   5   6 3328.18   27.37
   3   5   6 3298.01   27.15
  -3  -5  -6 3277.20   10.20
  -3  -5  -6 3335.70   10.42
   3   5   6 3279.38   14.04
   3   5   7  132.24    2.60
   3   5   7  132.51    5.27
  -3  -5  -7  132.38    4.75
   3   5   7  132.63    5.32
  -3  -5  -7  131.09    2.09
  -3  -5  -7  137.33    2.17
   3   5   7  132.97    2.87
  -3  -5  -8   72.39    1.59
  -3  -5  -8   75.15    1.63
   3   5   8   70.86    1.79
  -3  -5  -8   73.61    3.54
  -3  -5  -8   75.73    1.72
   3   5   8   74.49    2.14
   3   5   8   70.02    2.08
  -3  -5  -9   72.19    1.61
  -3  -5  -9   72.62    1.59
  -3  -5  -9   68.66    3.42
  -3  -5  -9   71.15    1.65
   3   5   9   72.72    2.08
   3   5   9   71.06    2.15
  -3  -5 -10  188.72    2.52
  -3  -5 -10  188.88    5.56
  -3  -5 -10  185.79    2.59
   3   5  10  188.82    3.23
   3   5  10  187.74    3.48
  -3  -5 -11   39.49    1.16
  -3  -5 -11   41.99    1.20
  -3  -5 -11   40.68    1.21
   3   5  11   40.04    1.51
   3   5  11   40.14    1.62
  -3  -5 -12    0.77    0.30
  -3  -5 -12    1.22    0.32
  -3  -5 -12    0.85    0.40
   3   5  12    1.80    0.59
   3   5  12    1.32    0.54
  -3  -5 -13   78.55    1.41
  -3  -5 -13   77.61    1.41
  -3  -5 -13   76.32    1.52
  -3  -5 -13   76.74    1.44
   3   5  13   80.82    2.01
  -3  -5 -14    9.70    0.48
  -3  -5 -14    9.59    0.48
  -3  -5 -14    9.08    0.56
   3   5  14    8.73    0.70
   3   5  15    5.40    0.44
  -3  -5 -15    5.63    0.34
  -3  -5 -15    6.10    0.43
  -3  -5 -15    6.19    0.35
   3   5  15    5.54    0.52
  -3  -5 -16   20.59    0.45
   3   5  16   22.22    0.74
  -3  -6   9    1.23    0.25
   3   6  -9    1.37    0.25
   3   6  -8   18.36    0.60
   3   6  -8   18.79    0.63
  -3  -6   8   18.02    0.74
   3   6  -8   19.69    0.74
  -3  -6   7   82.81    1.68
  -3  -6   7   76.60    1.57
   3   6  -7   79.47    1.53
   3   6  -7   81.03    1.34
  -3  -6   7   80.88    1.61
   3   6  -7   79.66    1.42
   3   6  -7   81.20    1.58
  -3  -6   6  151.58    2.42
  -3  -6   6  145.87    2.25
   3   6  -6  147.76    2.36
   3   6  -6  149.09    1.97
  -3  -6   6  149.90    2.32
   3   6  -6  147.41    2.26
   3   6  -6  149.50    2.30
  -3  -6   5   20.95    0.97
  -3  -6   5   20.18    0.90
   3   6  -5   20.03    1.00
   3   6  -5   20.23    0.84
  -3  -6   5   19.87    0.94
   3   6  -5   19.71    0.93
   3   6  -5   19.87    0.98
  -3  -6   4   32.96    1.23
  -3  -6   4   32.40    1.14
   3   6  -4   34.60    1.39
   3   6  -4   33.56    1.07
  -3  -6   4   33.12    1.20
   3   6  -4   32.28    1.20
   3   6  -4   32.33    1.30
  -3  -6   3   55.13    1.61
  -3  -6   3   55.23    3.45
  -3  -6   3   55.74    1.47
   3   6  -3   56.13    1.44
   3   6  -3   56.36    1.78
   3   6  -3   56.92    1.39
  -3  -6   3   55.15    1.56
   3   6  -3   63.01    1.66
   3   6  -3   56.59    1.72
  -3  -6   2  107.23    2.23
  -3  -6   2  100.72    4.59
   3   6  -2  104.76    2.13
   3   6  -2  108.47    2.49
   3   6  -2  107.16    1.90
  -3  -6   2  108.74    2.13
   3   6  -2  105.33    2.17
   3   6  -2  105.12    2.37
  -3  -6   1  366.67    4.05
  -3  -6   1  352.11    8.50
  -3  -6   1  366.27    7.61
   3   6  -1  366.71    4.14
   3   6  -1  369.57    4.55
   3   6  -1  367.15    3.46
  -3  -6   1  369.64    3.80
   3   6  -1  363.52    3.98
   3   6  -1  366.66    4.46
  -3  -6   0   19.02    0.94
  -3  -6   0   17.67    2.01
  -3  -6   0   17.13    1.69
   3   6   0   18.01    1.03
   3   6   0   17.99    1.10
   3   6   0   23.43    0.92
   3   6   0   17.71    0.92
   3   6   0   18.03    1.10
  -3  -6  -1  144.39    2.44
  -3  -6  -1  142.60    5.33
   3   6   1  145.49    2.82
   3   6   1  143.21    2.82
   3   6   1  144.13    2.18
  -3  -6  -1  145.07    2.57
   3   6   1  146.98    3.01
  -3  -6  -2  424.79    9.04
  -3  -6  -2  432.07    4.07
   3   6   2  440.38    5.12
   3   6   2  433.90    3.67
   3   6   2  434.13    4.78
  -3  -6  -2  438.01    4.33
   3   6   2  434.20    5.35
  -3  -6  -3  121.97    4.81
  -3  -6  -3  123.60    2.19
   3   6   3  129.75    2.96
  -3  -6  -3  121.21    4.84
   3   6   3  119.85    2.53
   3   6   3  121.17    1.91
   3   6   3  128.94    2.58
   3   6   3  124.02    2.83
   3   6   4    3.69    0.72
  -3  -6  -4    3.85    1.00
  -3  -6  -4    3.13    1.11
  -3  -6  -4    4.01    0.55
  -3  -6  -4    3.47    0.46
   3   6   4    4.78    0.65
   3   6   4    4.01    0.60
   3   6   5    0.06    0.54
  -3  -6  -5    0.31    0.40
  -3  -6  -5    0.11    0.73
  -3  -6  -5   -0.08    0.32
  -3  -6  -5    0.30    0.42
  -3  -6  -5    0.11    0.32
   3   6   5    0.04    0.43
   3   6   6  668.35    6.38
  -3  -6  -6  674.59   11.00
  -3  -6  -6  675.07    4.93
  -3  -6  -6  681.26    4.61
   3   6   6  692.17    6.55
   3   6   7  418.46    4.81
  -3  -6  -7  425.70    8.60
  -3  -6  -7  424.92    3.68
  -3  -6  -7  425.80    3.93
   3   6   7  430.14    5.14
  -3  -6  -8  114.72    1.96
  -3  -6  -8  115.51    2.08
   3   6   8  114.81    2.34
  -3  -6  -8  114.55    4.42
  -3  -6  -8  116.11    2.16
   3   6   8  119.74    2.68
  -3  -6  -9  109.49    1.92
  -3  -6  -9  114.75    2.05
  -3  -6  -9  118.18    4.39
  -3  -6  -9  108.98    2.07
   3   6   9  113.01    2.55
   3   6   9  114.88    2.50
  -3  -6 -10   21.64    0.87
  -3  -6 -10   21.54    0.95
   3   6  10   23.08    1.21
   3   6  10   22.22    1.17
  -3  -6 -11    3.43    0.40
  -3  -6 -11    3.16    0.39
  -3  -6 -11    3.00    0.46
   3   6  11    3.09    0.57
   3   6  11    3.15    0.60
  -3  -6 -12   76.07    1.37
  -3  -6 -12   75.79    1.54
  -3  -6 -12   76.53    1.51
   3   6  12   76.70    1.82
   3   6  12   73.59    1.91
  -3  -6 -13    1.69    0.27
  -3  -6 -13    1.20    0.22
  -3  -6 -13    1.58    0.29
  -3  -6 -13    2.09    0.37
   3   6  13    1.17    0.41
  -3  -6 -14   25.80    0.63
  -3  -6 -14   25.90    0.79
  -3  -6 -14   26.05    0.73
  -3  -6 -14   25.39    0.61
   3   6  14   25.09    0.96
   3   6  15   78.48    1.34
  -3  -6 -15   76.05    1.18
   3   6  15   78.75    1.41
   3   7  -7   79.66    1.12
  -3  -7   7   78.51    1.25
  -3  -7   7   81.70    1.35
   3   7  -6    4.89    0.42
  -3  -7   6    4.59    0.41
   3   7  -6    5.09    0.37
  -3  -7   6    4.82    0.46
   3   7  -5  138.53    2.09
  -3  -7   5  136.31    2.00
   3   7  -5  140.88    1.76
   3   7  -5  138.85    1.99
  -3  -7   4    1.40    0.34
  -3  -7   4    1.00    0.25
  -3  -7   4    1.38    0.35
   3   7  -4    1.58    0.44
   3   7  -4    2.31    0.37
   3   7  -4    1.44    0.41
   3   7  -4    1.20    0.36
  -3  -7   3   47.99    1.40
  -3  -7   3   46.11    1.17
   3   7  -3   48.69    1.48
  -3  -7   3   48.76    1.33
   3   7  -3   46.98    1.18
   3   7  -3   45.98    1.41
  -3  -7   2   97.91    2.04
  -3  -7   2   96.40    1.77
   3   7  -2   98.27    1.84
   3   7  -2  100.88    2.18
  -3  -7   2   98.35    1.90
   3   7  -2   98.22    1.72
  -3  -7   2   96.06    2.07
   3   7  -2  100.36    2.14
  -3  -7   1   11.43    0.75
  -3  -7   1   11.05    0.67
   3   7  -1   10.18    0.72
   3   7  -1   11.46    0.87
  -3  -7   1   10.68    0.68
   3   7  -1   10.82    0.65
  -3  -7   1   10.93    0.79
   3   7  -1   11.14    0.86
  -3  -7   0  172.64    5.73
  -3  -7   0  164.68    2.38
   3   7   0  166.43    2.74
   3   7   0  166.36    2.89
   3   7   0  166.57    2.30
  -3  -7   0  165.19    2.79
   3   7   0  171.89    2.94
  -3  -7  -1  203.44    6.21
  -3  -7  -1  203.04    2.68
   3   7   1  203.20    3.15
   3   7   1  206.59    3.22
  -3  -7  -1  203.95    3.04
   3   7   1  203.66    3.27
  -3  -7  -2    1.35    0.62
  -3  -7  -2    2.08    0.43
   3   7   2    1.35    0.53
   3   7   2    1.18    0.52
  -3  -7  -2    1.73    0.43
   3   7   2    1.71    0.54
  -3  -7  -3    3.82    1.02
  -3  -7  -3    4.45    0.54
   3   7   3    4.75    0.70
  -3  -7  -3    5.48    1.03
   3   7   3    3.80    0.63
  -3  -7  -3    4.04    0.55
  -3  -7  -3    4.61    0.53
   3   7   3    4.12    0.64
   3   7   4    8.02    0.85
  -3  -7  -4    6.67    1.26
  -3  -7  -4    7.79    0.51
  -3  -7  -4    7.70    0.63
   3   7   4    8.87    0.73
  -3  -7  -4    8.50    0.67
  -3  -7  -4    8.93    0.67
   3   7   4    8.94    0.77
   3   7   5    6.50    0.82
  -3  -7  -5    5.91    0.47
  -3  -7  -5    5.41    0.57
  -3  -7  -5    5.75    0.56
   3   7   5    5.56    0.68
   3   7   5    6.10    0.62
   3   7   6   89.84    2.29
  -3  -7  -6   88.97    1.62
  -3  -7  -6   90.52    1.85
  -3  -7  -6   90.85    1.84
   3   7   6   87.24    2.22
  -3  -7  -7  222.27    2.53
  -3  -7  -7  225.46    2.87
   3   7   7  221.24    3.37
  -3  -7  -7  221.78    2.91
   3   7   7  225.54    3.51
  -3  -7  -8  263.05    2.72
  -3  -7  -8  264.56    3.07
   3   7   8  263.97    3.40
  -3  -7  -8  264.73    3.11
   3   7   8  269.57    3.75
  -3  -7  -9  192.66    2.25
  -3  -7  -9  187.72    2.55
   3   7   9  187.13    2.60
  -3  -7  -9  187.56    2.57
   3   7   9  188.72    3.06
  -3  -7 -10    0.57    0.23
  -3  -7 -10    0.36    0.23
  -3  -7 -10    0.16    0.33
   3   7  10    0.09    0.30
   3   7  10    0.65    0.49
  -3  -7 -11   30.27    0.81
  -3  -7 -11   29.49    0.99
  -3  -7 -11   29.73    0.93
   3   7  11   30.19    1.17
   3   7  11   30.01    1.07
  -3  -7 -12   57.30    1.25
  -3  -7 -12   58.71    1.17
   3   7  12   55.98    1.42
   3   7  12   54.41    1.34
  -3  -7 -13   16.43    0.61
  -3  -7 -13   17.60    0.64
   3   7  13   15.84    0.70
   3   7  14   40.50    1.00
  -3  -7 -14   39.97    0.81
  -3  -7 -14   39.57    0.78
   3   7  14   39.96    0.92
   3   8  -5  120.35    1.37
  -3  -8   5  121.04    1.34
  -3  -8   5  121.01    1.45
   3   8  -4   22.69    0.73
  -3  -8   4   21.84    0.67
  -3  -8   4   19.95    0.68
  -3  -8   4   22.21    0.75
   3   8  -4   20.33    0.67
   3   8  -3  304.27    2.85
  -3  -8   3  296.24    2.60
  -3  -8   3  301.18    2.73
  -3  -8   3  307.77    2.89
   3   8  -3  302.08    2.80
   3   8  -2  142.65    2.11
  -3  -8   2  139.28    1.88
  -3  -8   2  137.66    2.00
  -3  -8   2  140.75    2.10
   3   8  -2  142.20    2.12
  -3  -8   1    8.60    0.48
   3   8  -1    8.09    0.51
   3   8  -1    9.13    0.65
  -3  -8   1    8.66    0.52
  -3  -8   1   10.19    0.65
  -3  -8   1    8.81    0.62
   3   8  -1    8.29    0.64
  -3  -8   0   13.41    0.63
   3   8   0   14.51    0.74
   3   8   0   14.22    0.79
  -3  -8   0   14.09    0.77
  -3  -8   0   13.64    0.75
   3   8   0   14.20    0.82
  -3  -8  -1   31.02    0.98
   3   8   1   31.66    1.12
   3   8   1   31.26    1.14
  -3  -8  -1   31.93    1.10
  -3  -8  -1   32.38    1.13
   3   8   1   31.92    1.19
   3   8   2   42.37    1.35
  -3  -8  -2   39.86    1.13
  -3  -8  -2   40.08    1.24
  -3  -8  -2   39.36    1.22
   3   8   2   41.17    1.35
   3   8   3    1.75    0.50
  -3  -8  -3    1.80    0.39
  -3  -8  -3    2.07    0.43
  -3  -8  -3    1.27    0.36
   3   8   3    1.60    0.44
   3   8   4   31.66    1.27
  -3  -8  -4   30.03    1.02
  -3  -8  -4   30.67    1.08
   3   8   4   30.64    1.03
   3   8   4   30.31    1.13
  -3  -8  -5   73.42    1.56
   3   8   5   74.22    1.87
  -3  -8  -5   73.93    1.59
  -3  -8  -5   71.08    1.59
   3   8   5   74.09    1.68
   3   8   5   70.29    1.60
  -3  -8  -6   14.81    0.74
   3   8   6   15.03    0.89
  -3  -8  -6   13.90    0.77
   3   8   6   14.88    0.83
  -3  -8  -7   88.11    1.69
   3   8   7   89.27    1.89
  -3  -8  -7   88.18    1.70
   3   8   7   87.38    1.90
  -3  -8  -8   62.08    1.39
   3   8   8   61.30    1.47
  -3  -8  -8   60.95    1.40
  -3  -8  -8   61.25    1.30
   3   8   8   60.13    1.58
   3   8   9   13.04    0.64
  -3  -8  -9   12.81    0.67
   3   8   9   13.41    0.79
  -3  -8 -10    0.44    0.30
  -3  -8 -10   -0.09    0.25
   3   8  10    0.27    0.34
  -3  -8 -11   21.58    0.75
  -3  -8 -11   21.35    0.64
   3   8  11   21.52    0.84
  -3  -8 -12  209.59    2.00
  -3  -8 -12  208.79    1.72
   3   8  12  213.36    2.22
   3   8  13    1.08    0.22
  -3  -8 -13    1.40    0.19
  -3  -9   2    9.06    0.37
  -3  -9   1   72.23    1.14
   3   9  -1   71.08    1.14
  -3  -9   0    2.77    0.24
  -3  -9   0    3.23    0.34
   3   9   0    3.36    0.35
   3   9   1   86.76    1.34
  -3  -9  -1   82.84    1.20
  -3  -9  -1   84.27    1.41
   3   9   1   85.45    1.44
   3   9   2    2.19    0.33
  -3  -9  -2    2.28    0.29
  -3  -9  -2    2.46    0.35
   3   9   2    2.61    0.36
   3   9   3   -0.10    0.27
  -3  -9  -3    0.10    0.23
  -3  -9  -3    0.18    0.27
   3   9   3    0.04    0.24
   3   9   4   51.47    1.22
  -3  -9  -4   50.45    1.07
   3   9   4   48.74    1.08
   3   9   5   72.32    1.44
  -3  -9  -5   70.92    1.27
   3   9   6   19.05    0.76
  -3  -9  -6   19.18    0.69
  -3  -9  -6   18.41    0.69
   3   9   6   18.17    0.64
   3   9   7    0.07    0.24
  -3  -9  -7   -0.02    0.23
  -3  -9  -7    0.12    0.18
   3   9   7    0.36    0.23
   3   9   8    0.70    0.22
  -3  -9  -8    0.45    0.23
  -3  -9  -8    0.24    0.14
   3   9   8    0.51    0.24
  -3  -9  -9   41.31    0.89
   3   9   9   40.57    0.93
  -3  -9 -10   18.66    0.56
   3   9  10   17.51    0.58
   4  -7  -5   64.06    1.01
   4  -7  -5   63.72    0.96
   4  -7  -4   12.11    0.52
   4  -7  -3    4.28    0.37
   4  -7  -2    4.70    0.39
   4  -7  -1   54.32    1.09
   4  -7  -1   55.68    0.88
   4  -7   0    1.97    0.25
   4  -7   0    2.54    0.23
   4  -7   1   -0.02    0.15
   4  -6  -9   66.42    1.06
   4  -6  -9   67.31    1.05
   4  -6  -8  200.84    2.02
   4  -6  -8  202.40    2.10
   4  -6  -7    2.22    0.32
   4  -6  -7    1.78    0.34
   4  -6  -7    1.98    0.25
   4  -6  -6   50.45    1.15
   4  -6  -6   48.20    1.24
   4  -6  -6   48.49    1.09
   4  -6  -5   42.01    1.06
   4  -6  -5   39.81    1.18
   4  -6  -5   41.16    1.11
   4  -6  -4  153.21    2.30
   4  -6  -4  157.93    2.28
   4  -6  -3  122.72    2.00
   4  -6  -3  122.82    1.56
   4  -6  -3  123.83    2.15
   4  -6  -2  207.90    2.13
   4  -6  -2  211.77    2.40
   4  -6  -2  209.40    2.90
   4  -6  -1    6.31    0.44
   4  -6  -1    6.76    0.64
   4  -6   0   10.62    0.54
   4  -6   0   11.09    0.72
   4  -6   1   27.65    0.84
   4  -6   1   27.92    1.01
   4  -6   2  149.85    1.83
  -4   6  -2  149.95    1.53
   4  -6   2  148.27    1.97
   4  -6   3   39.53    0.92
  -4   6  -3   38.30    0.78
   4  -6   3   37.44    0.82
   4  -6   4  189.53    1.84
  -4   6  -4  185.78    1.63
   4  -6   5   53.30    0.90
  -4   6  -5   52.41    0.80
   4  -5 -11    1.65    0.21
   4  -5 -10   24.89    0.70
   4  -5 -10   23.98    0.74
   4  -5  -9   54.05    1.22
   4  -5  -9   55.03    1.19
   4  -5  -8    9.92    0.62
   4  -5  -8    8.82    0.59
   4  -5  -7  130.61    2.14
   4  -5  -7  134.01    2.18
   4  -5  -7  133.20    1.81
   4  -5  -6  202.53    2.77
   4  -5  -6  206.80    2.88
   4  -5  -6  200.91    2.50
   4  -5  -5  126.16    2.25
   4  -5  -5  126.76    2.40
   4  -5  -5  129.62    2.17
   4  -5  -4  144.46    2.47
   4  -5  -4  148.97    2.71
   4  -5  -4  149.58    2.49
   4  -5  -3    6.64    0.45
   4  -5  -3    7.40    0.69
   4  -5  -3    7.84    0.75
  -4   5   2  155.03    4.37
   4  -5  -2  150.92    2.01
   4  -5  -2  152.96    2.62
   4  -5  -2  161.71    2.94
   4  -5  -1  115.57    2.54
   4  -5  -1  112.43    2.10
   4  -5  -1  115.80    1.83
   4  -5   0   74.89    2.03
   4  -5   0   75.21    1.52
   4  -5   1    3.44    0.58
   4  -5   1    3.09    0.43
   4  -5   2   32.27    1.23
   4  -5   2   34.24    1.06
   4  -5   3    4.48    0.47
   4  -5   3    4.69    0.48
   4  -5   4    0.01    0.22
  -4   5  -4    0.37    0.18
   4  -5   4    0.38    0.33
  -4   5  -5  271.35    2.16
   4  -5   5  274.75    2.63
   4  -5   6   75.51    1.30
  -4   5  -6   73.42    1.09
   4  -5   7    3.82    0.33
  -4   5  -7    3.70    0.27
  -4   5  -8   14.25    0.40
   4  -5   8   13.64    0.44
   4  -4 -12    8.54    0.38
   4  -4 -11    7.78    0.38
   4  -4 -11    8.20    0.48
   4  -4 -10   10.30    0.55
   4  -4 -10   10.28    0.59
   4  -4  -9    1.00    0.36
   4  -4  -9    1.13    0.33
   4  -4  -8   37.19    1.21
   4  -4  -8   37.08    1.20
   4  -4  -7    4.16    0.52
   4  -4  -7    3.36    0.52
   4  -4  -7    3.78    0.39
   4  -4  -6   29.46    1.18
   4  -4  -6   30.79    1.24
   4  -4  -6   28.75    1.04
  -4   4   5   55.23    2.53
   4  -4  -5   56.21    1.64
   4  -4  -5   56.29    1.72
   4  -4  -5   54.98    1.53
  -4   4   4    2.70    0.70
   4  -4  -4    3.25    0.51
   4  -4  -4    3.25    0.63
   4  -4  -4    3.58    0.58
  -4   4   3  128.18    4.06
   4  -4  -3  133.34    2.76
   4  -4  -3  132.22    2.57
  -4   4   2   52.06    2.36
   4  -4  -2   58.08    1.84
   4  -4  -2   57.37    1.82
   4  -4  -2   56.48    1.27
   4  -4  -1    0.52    0.52
   4  -4  -1    0.57    0.41
   4  -4  -1    1.12    0.32
  -4   4   0   28.70    1.84
   4  -4   0   27.56    1.36
   4  -4   0   30.44    1.17
   4  -4   0   28.10    1.00
   4  -4   0   27.96    0.83
  -4   4  -1   40.94    2.20
   4  -4   1   44.23    1.65
   4  -4   1   40.55    1.23
   4  -4   1   42.47    0.98
  -4   4  -2   14.57    1.36
   4  -4   2   14.68    0.98
   4  -4   2   14.16    0.78
   4  -4   2   14.00    0.57
   4  -4   3    0.22    0.38
   4  -4   3    0.16    0.20
  -4   4  -3   -0.10    0.54
  -4   4  -3   -0.31    0.58
   4  -4   3    0.13    0.37
  -4   4  -4  234.73    4.84
   4  -4   4  229.05    2.95
   4  -4   4  241.59    2.91
   4  -4   5    6.64    0.48
  -4   4  -5    7.62    0.92
   4  -4   5    7.47    0.60
   4  -4   6    6.93    0.59
   4  -4   7   16.80    0.74
   4  -4   8    4.36    0.41
   4  -4   9   27.86    0.73
   4  -4  10    2.21    0.20
  -4   4 -10    2.39    0.19
   4  -3 -12  171.68    1.79
   4  -3 -11   99.35    1.32
   4  -3 -11   98.19    1.60
   4  -3 -10    6.27    0.47
   4  -3 -10    7.06    0.57
   4  -3  -9    2.22    0.46
   4  -3  -9    2.48    0.42
   4  -3  -8   44.48    1.39
   4  -3  -8   43.94    1.36
   4  -3  -7  121.46    2.33
   4  -3  -7  122.18    2.31
   4  -3  -6    8.06    0.61
   4  -3  -6    8.15    0.71
   4  -3  -6    7.86    0.75
  -4   3   5   -0.26    0.61
   4  -3  -5    0.04    0.36
   4  -3  -5    0.55    0.45
  -4   3   4   82.73    3.46
   4  -3  -4   84.51    1.99
   4  -3  -4   85.21    2.04
   4  -3  -4   84.89    2.16
  -4   3   3  398.31    6.90
   4  -3  -3  389.16    4.39
   4  -3  -3  397.84    4.32
   4  -3  -3  391.52    4.65
   4  -3  -3  394.37    3.09
   4  -3  -2    4.78    0.66
   4  -3  -2    5.50    0.67
   4  -3  -2    5.24    0.48
  -4   3   1  229.49    5.01
   4  -3  -1  240.37    3.64
   4  -3  -1  238.65    3.51
   4  -3  -1  237.02    2.52
   4  -3   0    1.17    0.41
  -4   3   0    0.41    0.91
   4  -3   0    1.46    0.72
   4  -3   0    1.61    0.54
   4  -3   0    0.83    0.39
   4  -3   1 1907.24   10.41
   4  -3   1 1927.57    7.19
   4  -3   1 1933.61    8.26
   4  -3   2   40.36    1.54
  -4   3  -2   38.44    2.01
   4  -3   2   43.00    1.11
   4  -3   2   40.14    1.30
   4  -3   3   15.12    0.95
  -4   3  -3   14.18    1.29
   4  -3   3   14.01    0.66
   4  -3   3   13.70    0.81
   4  -3   4  176.85    2.81
  -4   3  -4  173.42    4.37
   4  -3   4  181.41    2.07
   4  -3   4  180.55    2.73
   4  -3   5   18.51    0.85
  -4   3  -5   17.62    1.44
  -4   3  -5   17.42    1.25
   4  -3   5   18.59    0.65
   4  -3   5   18.50    0.95
  -4   3  -6   10.79    1.13
  -4   3  -6    9.94    0.99
   4  -3   6   11.91    0.78
  -4   3  -7   18.49    1.41
  -4   3  -7   18.51    0.62
   4  -3   7   18.05    0.89
  -4   3  -8  157.84    1.70
   4  -3   8  152.21    2.24
  -4   3  -9   21.94    0.63
   4  -3   9   21.61    0.83
  -4   3 -10   41.06    0.77
   4  -3  10   41.69    0.99
  -4   3 -11   25.40    0.55
   4  -3  11   26.95    0.66
   4  -2 -13    9.68    0.37
   4  -2 -12   35.26    0.86
   4  -2 -11   14.59    0.51
   4  -2 -11   14.14    0.68
   4  -2 -10   65.54    1.30
   4  -2 -10   67.18    1.52
   4  -2  -9    6.14    0.52
   4  -2  -9    6.51    0.62
   4  -2  -8   39.43    1.28
   4  -2  -8   40.91    1.36
  -4   2   7   64.11    3.03
   4  -2  -7   64.90    1.72
   4  -2  -7   64.63    1.74
  -4   2   6   87.18    3.57
   4  -2  -6   90.17    2.10
   4  -2  -6   91.88    2.09
   4  -2  -6   93.31    1.77
  -4   2   5  993.30   11.95
   4  -2  -5 1002.06    6.21
   4  -2  -5  979.51    6.84
   4  -2  -5  996.17    6.90
   4  -2  -4  349.62    2.78
  -4   2   4  358.57    6.72
   4  -2  -4  361.72    3.95
   4  -2  -4  358.54    4.06
   4  -2  -4  351.95    4.19
   4  -2  -4  352.64    2.97
   4  -2  -3  161.32    1.98
  -4   2   3  164.38    4.39
   4  -2  -3  162.57    2.76
   4  -2  -3  168.63    2.75
   4  -2  -3  164.47    2.92
   4  -2  -3  161.94    2.09
   4  -2  -2  111.26    1.70
  -4   2   2  105.17    3.70
   4  -2  -2  108.17    2.31
   4  -2  -2  108.52    2.37
   4  -2  -2  109.05    1.75
   4  -2  -1   50.67    1.19
   4  -2  -1   49.65    3.09
  -4   2   1   48.41    2.64
   4  -2  -1   49.78    1.63
   4  -2  -1   49.39    1.59
   4  -2  -1   48.96    1.25
   4  -2   0    2.96    0.41
   4  -2   0    3.09    1.13
  -4   2   0    2.20    0.57
   4  -2   0    3.33    0.59
   4  -2   0    2.44    0.47
   4  -2   1  420.35    3.33
   4  -2   1  422.30    9.09
  -4   2  -1  434.73    6.58
   4  -2   1  431.71    4.71
   4  -2   1  419.10    4.15
   4  -2   1  434.86    3.70
   4  -2   1  429.34    3.82
   4  -2   2   36.77    1.01
  -4   2  -2   34.51    1.95
   4  -2   2   36.38    1.41
   4  -2   2   37.08    1.13
   4  -2   2   36.32    1.20
   4  -2   3  225.98    2.32
  -4   2  -3  237.40    5.11
   4  -2   3  232.35    3.36
  -4   2  -3  234.98    4.58
   4  -2   3  232.61    2.73
   4  -2   3  229.76    3.09
   4  -2   4  282.05    3.59
  -4   2  -4  297.79    5.74
  -4   2  -4  293.11    5.23
   4  -2   4  290.71    3.57
   4  -2   4  295.91    3.04
   4  -2   5  247.74    3.12
  -4   2  -5  252.94    4.94
   4  -2   5  255.04    3.38
   4  -2   5  252.52    2.76
   4  -2   6   21.23    0.86
  -4   2  -6   20.15    1.43
   4  -2   6   20.38    0.78
   4  -2   6   20.80    1.06
  -4   2  -7   42.03    2.02
   4  -2   7   42.58    1.42
  -4   2  -8  197.85    4.16
   4  -2   8  195.40    2.84
  -4   2  -9   78.16    2.81
   4  -2   9   72.98    1.67
  -4   2 -10    0.00    0.21
   4  -2  10    0.21    0.36
  -4   2 -11    1.78    0.26
   4  -2  11    1.72    0.34
  -4   2 -12    2.31    0.23
   4  -2  12    2.69    0.28
   4  -1 -13  190.63    1.49
   4  -1 -12   10.86    0.50
   4  -1 -11   36.50    1.00
  -4   1  10   64.10    1.38
   4  -1 -10   63.78    1.19
   4  -1 -10   63.40    1.47
   4  -1  -9  193.53    2.39
   4  -1  -9  193.83    2.72
   4  -1  -8   11.06    0.72
   4  -1  -8    8.12    0.70
  -4   1   7    7.24    1.08
   4  -1  -7    6.16    0.61
   4  -1  -7    6.65    0.64
  -4   1   6   21.30    1.76
   4  -1  -6   21.31    0.64
   4  -1  -6   19.63    1.01
   4  -1  -6   20.23    1.01
  -4   1   5  226.85    5.47
   4  -1  -5  231.18    2.25
   4  -1  -5  235.55    2.83
   4  -1  -5  232.18    3.27
   4  -1  -5  230.94    3.27
   4  -1  -5  225.12    2.24
   4  -1  -4  207.22    2.30
   4  -1  -4  197.25    2.79
  -4   1   4  204.51    5.71
   4  -1  -4  206.00    3.10
   4  -1  -4  204.94    3.03
   4  -1  -4  202.20    2.26
   4  -1  -3  170.02    2.18
   4  -1  -3  170.16    2.67
  -4   1   3  161.92    5.12
   4  -1  -3  169.16    2.83
   4  -1  -3  168.33    2.67
   4  -1  -3  163.89    2.11
   4  -1  -2  518.06    3.88
  -4   1   2  522.35    7.67
   4  -1  -2  524.44    4.74
  -4   1   2  525.07    9.09
   4  -1  -2  515.07    4.88
   4  -1  -2  513.76    3.85
   4  -1  -1  309.53    3.07
  -4   1   1  305.93    6.04
  -4   1   1  315.08    6.29
   4  -1  -1  314.24    3.75
   4  -1  -1  309.44    3.73
   4  -1  -1  306.58    3.08
   4  -1   0    8.90    0.58
  -4   1   0    7.43    1.06
  -4   1   0    8.95    1.10
   4  -1   0    8.86    0.72
  -4   1   0    8.91    1.05
   4  -1   0    8.59    0.68
   4  -1   0    9.10    0.61
   4  -1   1   10.62    0.64
  -4   1  -1   10.12    1.18
   4  -1   1   10.76    0.77
  -4   1  -1    9.84    1.16
   4  -1   1   11.48    0.73
   4  -1   1   11.70    0.70
  -4   1  -2  169.40    4.19
   4  -1   2  164.69    2.45
   4  -1   2  163.68    2.21
  -4   1  -2  163.17    4.71
   4  -1   2  162.78    2.72
  -4   1  -2  160.39    4.42
   4  -1   2  164.63    2.41
   4  -1   2  165.09    2.42
   4  -1   3  315.94    2.99
  -4   1  -3  319.87    6.73
   4  -1   3  313.02    3.71
  -4   1  -3  308.28    6.17
  -4   1  -3  323.99    5.93
   4  -1   3  311.00    3.42
   4  -1   3  310.92    3.53
   4  -1   4    0.83    0.30
  -4   1  -4   -0.20    0.50
   4  -1   4    0.34    0.35
  -4   1  -4    0.47    0.57
   4  -1   4    0.79    0.37
   4  -1   4    1.83    0.43
   4  -1   5   51.26    1.12
   4  -1   5   49.16    1.41
  -4   1  -5   47.72    2.46
  -4   1  -5   54.06    2.54
   4  -1   5   50.50    1.41
   4  -1   5   51.44    1.58
   4  -1   6   23.48    0.71
   4  -1   6   23.51    0.92
  -4   1  -6   22.47    1.63
   4  -1   6   22.69    0.96
   4  -1   6   23.08    1.13
  -4   1  -7  226.20    4.95
   4  -1   7  226.64    2.76
   4  -1   7  237.72    3.38
  -4   1  -8  103.05    3.26
   4  -1   8  103.97    1.74
   4  -1   8  106.80    2.27
   4  -1   8  106.25    2.33
  -4   1  -9  218.02    4.52
   4  -1   9  217.13    3.10
   4  -1   9  215.37    3.31
  -4   1 -10 1029.36    4.84
   4  -1  10 1040.55    6.35
   4  -1  10 1028.02    6.92
  -4   1 -11   69.13    1.20
   4  -1  11   69.12    1.55
  -4   1 -12  126.70    1.48
   4  -1  12  127.07    1.82
  -4   1 -13   97.82    1.15
  -4   1 -13   94.76    1.08
   4  -1  13   94.83    1.31
   4   0 -12   34.10    0.79
   4   0 -12   31.69    0.71
   4   0 -11    6.98    0.47
   4   0 -11    5.52    0.39
  -4   0  10    1.92    0.30
   4   0 -10    2.07    0.41
   4   0 -10    2.31    0.33
  -4   0   9   19.55    0.82
   4   0  -9   19.50    0.91
  -4   0   8   13.55    0.72
   4   0  -8   13.13    0.71
   4   0  -8   13.97    0.85
  -4   0   7 1340.92   15.32
   4   0  -7 1337.85    6.92
   4   0  -7 1334.73    7.47
  -4   0   6   35.61    2.63
   4   0  -6   37.55    1.29
   4   0  -6   37.83    1.32
   4   0  -5   28.27    0.85
  -4   0   5   26.49    2.22
  -4   0   5   30.15    2.44
   4   0  -5   26.28    1.12
   4   0  -5   27.27    1.14
   4   0  -5   27.49    0.76
   4   0  -4  204.53    2.41
   4   0  -4  205.14    2.63
  -4   0   4  205.13    5.46
   4   0  -4  207.98    2.99
   4   0  -4  202.42    2.96
   4   0  -4  207.05    2.92
   4   0  -4  201.12    2.14
   4   0  -3  639.96    4.45
  -4   0   3  629.77   10.36
   4   0  -3  636.16    4.80
  -4   0   3  628.93    9.42
   4   0  -3  637.86    5.23
   4   0  -3  631.06    5.02
   4   0  -3  630.13    5.07
   4   0  -3  636.64    4.05
  -4   0   2    8.75    1.26
  -4   0   2   11.96    1.50
   4   0  -2    9.68    0.69
   4   0  -2    9.31    0.70
   4   0  -2    8.63    0.56
   4   0  -2    9.74    0.71
   4   0  -1    4.89    0.86
   4   0  -1    5.00    0.52
  -4   0   1    6.47    1.13
  -4   0   1    5.71    1.02
   4   0  -1    5.39    0.57
   4   0  -1    4.61    0.55
   4   0  -1    4.38    0.46
   4   0  -1    5.25    0.55
   4   0   0  443.20    3.89
   4   0   0  430.03    4.14
   4   0   0  433.36    3.91
  -4   0   0  447.26    8.02
  -4   0   0  452.83    8.15
   4   0   0  440.39    8.08
   4   0   0  439.94    4.23
   4   0   1   47.39    1.36
   4   0   1   44.80    1.33
   4   0   1   48.31    1.34
  -4   0  -1   41.66    2.37
  -4   0  -1   47.28    2.72
   4   0   1   51.44    2.81
   4   0   1   44.10    1.38
   4   0   2  148.87    2.42
   4   0   2  143.75    2.26
  -4   0  -2  155.81    4.88
   4   0   2  149.19    4.70
   4   0   2  148.09    2.47
   4   0   2  144.01    2.23
   4   0   3  162.08    2.33
   4   0   3  171.96    4.96
   4   0   3  162.61    2.56
   4   0   3  165.24    2.62
   4   0   3  164.19    2.49
   4   0   4   43.45    1.19
   4   0   4   43.53    1.42
   4   0   4   41.56    1.35
   4   0   5   -0.03    0.27
   4   0   5    0.23    0.30
   4   0   5    0.12    0.40
   4   0   6   55.87    1.20
  -4   0  -6   54.95    2.73
   4   0   6   56.83    1.61
  -4   0  -7    3.64    0.81
   4   0   7    4.99    0.61
  -4   0  -7    4.97    0.43
  -4   0  -8  395.60    6.85
   4   0   8  386.84    3.93
  -4   0  -8  392.22    3.12
  -4   0  -8  402.03    3.15
   4   0   8  392.13    4.30
  -4   0  -9  455.57    7.08
   4   0   9  448.87    3.93
  -4   0  -9  455.61    3.31
  -4   0  -9  461.15    3.35
   4   0   9  458.47    4.77
  -4   0 -10   74.14    2.71
  -4   0 -10   73.99    1.32
   4   0  10   71.47    1.41
  -4   0 -10   72.51    1.28
   4   0  10   73.32    1.87
   4   0  10   68.63    1.87
  -4   0 -11   45.94    1.01
  -4   0 -11   47.66    1.00
   4   0  11   46.59    1.42
   4   0  11   45.48    1.47
  -4   0 -12    0.84    0.26
  -4   0 -12    0.93    0.23
   4   0  12    1.29    0.41
   4   0  12    0.80    0.38
  -4   0 -13   41.06    0.88
  -4   0 -13   41.59    0.79
   4   0  13   41.00    1.04
  -4   0 -14    3.78    0.25
  -4   0 -14    3.83    0.25
   4   0  14    3.38    0.29
   4   1 -12    4.72    0.30
   4   1 -12    4.72    0.28
   4   1 -11   24.50    0.73
   4   1 -11   23.89    0.73
  -4  -1  10    0.90    0.24
   4   1 -10    0.73    0.31
   4   1 -10    0.86    0.27
  -4  -1   9  137.07    2.04
   4   1  -9  142.38    2.15
   4   1  -9  137.57    2.05
  -4  -1   8   47.69    1.26
   4   1  -8   48.44    1.37
   4   1  -8   49.10    1.30
  -4  -1   7  750.28    4.95
  -4  -1   7  756.44   11.26
   4   1  -7  744.38    5.39
   4   1  -7  755.54    5.15
  -4  -1   6   30.88    1.02
   4   1  -6   28.54    1.04
   4   1  -6   30.53    1.17
   4   1  -6   28.01    1.11
  -4  -1   5  118.34    1.94
   4   1  -5  117.01    1.76
  -4  -1   5  112.08    4.38
  -4  -1   5  115.92    4.57
  -4  -1   5  118.37    5.11
   4   1  -5  115.40    2.11
   4   1  -5  119.66    2.25
   4   1  -5  116.27    2.27
  -4  -1   4  309.10    6.97
   4   1  -4  321.40    3.14
  -4  -1   4  301.20    7.22
  -4  -1   4  320.73    8.11
   4   1  -4  317.85    3.54
   4   1  -4  312.55    3.59
   4   1  -4  320.62    3.78
  -4  -1   3  196.23    5.36
   4   1  -3  199.09    2.65
  -4  -1   3  191.23    5.58
  -4  -1   3  196.96    6.17
   4   1  -3  200.50    5.40
   4   1  -3  197.58    2.79
   4   1  -3  192.82    2.73
   4   1  -3  193.77    2.96
   4   1  -3  193.04    2.16
   4   1  -2   68.06    1.63
  -4  -1   2   69.08    3.21
  -4  -1   2   64.08    3.40
   4   1  -2   69.76    3.34
   4   1  -2   69.62    1.67
   4   1  -2   67.05    1.55
   4   1  -2   68.20    1.77
   4   1  -2   67.86    1.38
   4   1  -1    6.65    0.52
   4   1  -1    6.00    1.07
   4   1  -1    7.27    0.60
  -4  -1   1    7.42    1.18
   4   1  -1    6.53    0.58
   4   1  -1    6.67    0.64
   4   1   0  138.27    2.22
  -4  -1   0  129.31    4.61
   4   1   0  138.84    2.37
  -4  -1   0  145.62    4.87
  -4  -1   0  141.34    4.47
   4   1   0  137.20    2.24
   4   1   0  141.42    4.85
   4   1   0  135.09    2.27
   4   1   0  131.59    2.35
   4   1   1  379.68    3.80
  -4  -1  -1  383.51    7.58
   4   1   1  369.70    3.92
  -4  -1  -1  388.53    7.61
  -4  -1  -1  391.82    8.05
   4   1   1  377.79    3.73
   4   1   1  372.21    7.93
   4   1   1  374.20    3.64
   4   1   1  374.63    3.79
   4   1   2  109.56    2.13
  -4  -1  -2  110.81    3.98
   4   1   2  109.86    2.13
  -4  -1  -2  115.92    4.36
   4   1   2  112.82    2.05
   4   1   2  109.97    4.29
   4   1   2  111.29    1.90
   4   1   2  107.19    1.96
  -4  -1  -3  234.49    5.55
   4   1   3  235.64    3.04
   4   1   3  235.05    6.20
   4   1   3  234.38    3.20
  -4  -1  -4  492.85    7.75
   4   1   4  499.77    4.33
   4   1   4  508.55    8.93
   4   1   4  501.80    4.79
  -4  -1  -4  509.77    3.72
   4   1   5  201.12    2.67
   4   1   5  200.16    5.45
  -4  -1  -5  212.45    2.37
   4   1   5  204.88    3.15
   4   1   6   40.25    1.15
  -4  -1  -6   42.26    1.09
   4   1   6   41.87    1.49
  -4  -1  -7  146.55    1.99
   4   1   7  144.41    2.70
  -4  -1  -7  145.82    2.12
   4   1   8  115.90    2.38
  -4  -1  -8  117.77    1.89
  -4  -1  -9   38.79    2.27
   4   1   9   38.94    1.37
  -4  -1  -9   39.32    1.08
  -4  -1  -9   39.49    1.09
  -4  -1 -10   -0.10    0.57
   4   1  10    0.39    0.38
  -4  -1 -10    0.33    0.28
  -4  -1 -10    0.08    0.24
  -4  -1 -11    3.84    0.70
   4   1  11    4.37    0.45
  -4  -1 -11    3.66    0.39
   4   1  11    3.55    0.53
  -4  -1 -12  342.54    2.73
  -4  -1 -12  350.73    2.70
   4   1  12  342.22    3.62
  -4  -1 -13  299.25    2.35
  -4  -1 -13  303.55    2.32
   4   1  13  303.67    3.01
   4   1  13  299.45    2.95
  -4  -1 -14   38.53    0.81
  -4  -1 -14   38.12    0.74
   4   1  14   38.90    0.94
  -4  -2  11    1.78    0.26
   4   2 -11    1.18    0.22
   4   2 -11    1.74    0.24
  -4  -2  10   57.83    1.25
   4   2 -10   60.28    1.16
   4   2 -10   58.89    1.19
   4   2  -9   81.40    1.51
   4   2  -9   82.18    1.55
  -4  -2   8  113.00    1.84
   4   2  -8  113.45    1.93
   4   2  -8  111.61    1.80
   4   2  -8  110.87    1.89
   4   2  -7  549.02    4.38
   4   2  -7  538.81    4.40
   4   2  -7  540.39    4.31
  -4  -2   6  260.75    6.49
   4   2  -6  277.05    3.22
   4   2  -6  267.00    3.32
  -4  -2   5  120.46    4.43
   4   2  -5  128.28    2.22
   4   2  -5  127.14    2.38
  -4  -2   4    0.48    0.63
   4   2  -4    0.24    0.27
  -4  -2   4    0.00    0.75
  -4  -2   4    0.90    0.50
   4   2  -4    0.45    0.35
   4   2  -4   -0.01    0.41
  -4  -2   3    2.04    0.77
   4   2  -3    1.81    0.37
  -4  -2   3    3.23    0.74
  -4  -2   3    3.34    0.93
   4   2  -3    2.07    0.41
   4   2  -3    2.01    0.51
   4   2  -2  222.96    3.03
  -4  -2   2  217.16    5.65
  -4  -2   2  225.24    6.39
   4   2  -2  223.50    6.15
   4   2  -2  216.96    2.72
   4   2  -2  226.26    3.33
   4   2  -1  522.29    4.73
  -4  -2   1  512.29    9.35
   4   2  -1  526.35    9.67
   4   2  -1  518.04    3.91
   4   2  -1  508.42    4.96
   4   2   0   11.60    0.81
  -4  -2   0   12.22    1.50
   4   2   0   11.21    1.51
   4   2   0   11.17    0.69
   4   2   0   12.06    0.84
  -4  -2  -1  485.73    9.05
   4   2   1  473.25    4.65
  -4  -2  -1  467.96    7.98
   4   2   1  469.11    9.39
   4   2   1  471.64    4.25
   4   2   1  457.24    4.50
   4   2   2    6.76    1.31
  -4  -2  -2    8.66    1.24
   4   2   2    9.11    0.77
   4   2   2    9.73    0.73
   4   2   2    8.04    0.64
  -4  -2  -3  149.53    4.76
   4   2   3  152.15    2.64
   4   2   3  153.30    5.41
   4   2   3  151.52    2.63
  -4  -2  -4    1.33    0.68
   4   2   4    1.11    0.44
   4   2   4    1.06    0.46
   4   2   5  298.93    3.53
   4   2   5  308.66    7.32
   4   2   5  306.70    3.97
  -4  -2  -5  299.51    3.03
   4   2   6  197.11    2.74
  -4  -2  -6  203.16    2.49
   4   2   7  263.87    2.93
  -4  -2  -7  268.07    2.87
   4   2   7  270.14    3.91
  -4  -2  -8    0.39    0.32
   4   2   8    0.51    0.55
  -4  -2  -9   10.89    0.61
   4   2   9    9.57    0.87
  -4  -2  -9    9.94    0.64
  -4  -2 -10  290.69    5.91
   4   2  10  276.74    3.65
  -4  -2 -10  284.06    2.89
  -4  -2 -11   79.18    2.90
   4   2  11   75.76    1.75
  -4  -2 -11   77.02    1.46
  -4  -2 -11   78.07    1.46
   4   2  12   69.51    1.45
  -4  -2 -12   67.28    1.27
  -4  -2 -12   68.63    1.29
   4   2  13    0.41    0.23
  -4  -2 -13    0.56    0.23
  -4  -2 -13    0.42    0.25
  -4  -2 -14   25.88    0.66
  -4  -2 -14   25.36    0.65
  -4  -2 -15  180.78    1.24
  -4  -2 -15  183.65    1.47
  -4  -2 -15  183.37    1.39
   4   2  15  183.13    1.66
  -4  -3  11   16.69    0.50
   4   3 -11   17.45    0.44
  -4  -3  10    5.52    0.37
   4   3 -10    4.96    0.33
   4   3 -10    5.13    0.35
  -4  -3   9  117.46    1.77
   4   3  -9  119.97    1.60
   4   3  -9  117.20    1.69
  -4  -3   8  155.64    2.18
   4   3  -8  159.38    2.04
   4   3  -8  156.56    2.01
   4   3  -8  157.18    2.13
  -4  -3   7  177.05    2.39
   4   3  -7  175.26    2.30
   4   3  -7  175.41    2.41
   4   3  -7  174.55    2.37
  -4  -3   6  147.07    2.22
   4   3  -6  147.16    2.21
   4   3  -6  146.83    2.43
   4   3  -6  148.35    2.24
  -4  -3   5    1.47    0.31
  -4  -3   5   -0.09    0.45
   4   3  -5    0.79    0.39
   4   3  -5    0.74    0.42
  -4  -3   4  166.12    5.02
   4   3  -4  175.43    2.41
   4   3  -4  172.35    2.48
   4   3  -4  173.61    2.86
  -4  -3   3    0.07    0.69
   4   3  -3    1.13    0.36
   4   3  -3    0.88    0.36
   4   3  -3    0.95    0.49
   4   3  -2  354.11    3.89
  -4  -3   2  357.65    7.98
   4   3  -2  345.63    3.39
   4   3  -2  341.63    4.24
   4   3  -1    0.23    0.38
  -4  -3   1    0.25    0.52
   4   3  -1    0.69    0.28
   4   3  -1    0.19    0.46
   4   3   0   46.91    1.55
   4   3   0   46.55    1.24
   4   3   0   44.87    1.61
   4   3   1   24.66    2.37
  -4  -3  -1   27.92    2.19
   4   3   1   26.53    1.25
   4   3   1   27.14    1.04
   4   3   1   27.09    1.25
   4   3   2  358.21    8.81
  -4  -3  -2  350.13    7.43
   4   3   2  343.74    4.26
   4   3   2  351.07    3.79
   4   3   2  343.60    4.07
   4   3   3   29.15    2.62
  -4  -3  -3   24.97    2.04
   4   3   3   25.00    1.21
   4   3   3   25.25    1.13
   4   3   3   26.25    1.09
  -4  -3  -4    7.05    1.12
   4   3   4    6.89    0.70
   4   3   4    5.88    0.64
  -4  -3  -5  188.52    5.37
   4   3   5  193.39    3.09
   4   3   5  191.69    3.18
  -4  -3  -6    0.70    0.49
   4   3   6    1.60    0.46
  -4  -3  -6    1.35    0.39
   4   3   6    1.43    0.52
  -4  -3  -7   65.75    3.18
   4   3   7   67.09    1.62
  -4  -3  -7   67.31    1.52
   4   3   7   66.85    2.03
  -4  -3  -8  356.56    7.21
  -4  -3  -8  356.12    3.41
   4   3   8  367.62    4.69
   4   3   8  361.39    4.32
  -4  -3  -9  141.49    2.11
   4   3   9  142.27    2.91
  -4  -3  -9  144.69    2.24
   4   3   9  135.81    2.78
  -4  -3 -10    9.27    0.58
   4   3  10   10.25    0.89
  -4  -3 -10    8.40    0.59
  -4  -3 -10    9.21    0.57
   4   3  11    2.84    0.53
  -4  -3 -11    3.12    0.39
  -4  -3 -11    3.59    0.37
   4   3  12   51.71    1.39
  -4  -3 -12   51.07    1.13
  -4  -3 -12   50.75    1.13
  -4  -3 -12   49.43    1.05
   4   3  13   23.60    0.81
  -4  -3 -13   23.81    0.71
  -4  -3 -13   23.93    0.67
  -4  -3 -13   25.21    0.73
   4   3  14    7.71    0.36
  -4  -3 -14    7.94    0.39
  -4  -3 -14    8.09    0.40
  -4  -3 -15    0.07    0.14
   4   3  15    0.41    0.19
   4   4 -10   26.60    0.53
  -4  -4   9   30.44    0.80
   4   4  -9   31.08    0.71
   4   4  -9   30.18    0.74
  -4  -4   8  106.75    1.61
   4   4  -8  109.99    1.49
   4   4  -8  105.90    1.43
   4   4  -8  106.69    1.58
  -4  -4   7  130.01    2.10
  -4  -4   7  129.97    1.90
   4   4  -7  128.68    1.78
   4   4  -7  130.02    1.91
   4   4  -7  127.75    1.88
  -4  -4   6   61.78    1.54
  -4  -4   6   63.40    1.38
   4   4  -6   64.13    1.36
   4   4  -6   62.75    1.51
   4   4  -6   63.08    1.41
  -4  -4   5  107.44    2.04
   4   4  -5  111.18    1.83
   4   4  -5  107.59    2.12
   4   4  -5  105.81    1.86
  -4  -4   4   75.50    1.70
   4   4  -4   74.45    1.50
   4   4  -4   74.76    1.55
   4   4  -4   73.09    1.85
  -4  -4   3   29.05    2.53
   4   4  -3   26.70    1.02
   4   4  -3   26.10    0.96
   4   4  -3   25.86    1.18
   4   4  -2   38.46    1.30
   4   4  -2   37.10    1.11
   4   4  -2   35.24    1.41
  -4  -4   1   12.00    1.57
   4   4  -1   12.19    0.83
   4   4  -1   12.48    0.65
   4   4  -1   12.85    0.94
  -4  -4   0   47.55    2.92
   4   4   0   44.46    1.54
   4   4   0   44.92    1.14
   4   4   0   44.14    1.65
  -4  -4  -1   45.89    2.95
   4   4   1   43.88    1.60
  -4  -4  -1   48.90    2.87
   4   4   1   44.50    1.68
  -4  -4  -2  109.83    4.51
   4   4   2  110.29    2.53
  -4  -4  -2  112.57    4.22
   4   4   2  114.43    2.08
   4   4   2  107.82    2.47
  -4  -4  -3   62.16    3.35
   4   4   3   63.77    1.98
   4   4   3   66.85    1.70
   4   4   3   66.21    1.84
  -4  -4  -4   27.56    2.24
   4   4   4   26.77    1.32
   4   4   4   28.49    1.19
  -4  -4  -4   26.99    0.96
  -4  -4  -5   86.00    3.83
   4   4   5   84.89    2.20
   4   4   5   87.70    2.11
  -4  -4  -5   86.65    1.63
  -4  -4  -6    2.67    0.89
   4   4   6    1.73    0.48
  -4  -4  -6    1.44    0.39
  -4  -4  -6    1.51    0.31
  -4  -4  -7   12.78    1.47
   4   4   7   12.59    0.80
  -4  -4  -7   13.10    0.74
   4   4   7   13.84    1.01
   4   4   8   27.06    1.00
  -4  -4  -8   27.09    1.02
   4   4   8   27.51    1.38
  -4  -4  -9  100.07    1.81
   4   4   9  103.43    2.50
   4   4   9  101.28    2.26
  -4  -4 -10    5.58    0.48
   4   4  10    6.51    0.81
  -4  -4 -10    4.43    0.47
  -4  -4 -11    5.44    0.44
   4   4  11    5.34    0.66
  -4  -4 -11    5.65    0.47
  -4  -4 -11    5.53    0.47
   4   4  11    5.96    0.63
   4   4  12  220.69    2.94
  -4  -4 -12  219.71    2.24
  -4  -4 -12  219.92    2.27
  -4  -4 -12  218.00    2.22
   4   4  13    9.06    0.57
  -4  -4 -13    8.46    0.44
  -4  -4 -13    8.18    0.43
   4   4  14   18.41    0.60
  -4  -4 -14   20.20    0.56
  -4  -4 -14   19.34    0.55
  -4  -4 -15   96.07    0.96
   4   5  -8   39.18    0.74
  -4  -5   8   37.63    0.78
   4   5  -8   38.88    0.75
   4   5  -7  151.24    1.63
  -4  -5   7  149.28    1.77
   4   5  -7  147.70    1.68
   4   5  -7  149.02    1.72
   4   5  -6   73.12    1.27
  -4  -5   6   71.79    1.35
   4   5  -6   75.54    1.44
   4   5  -6   70.99    1.33
  -4  -5   5  374.43    3.56
   4   5  -5  385.11    3.05
  -4  -5   5  379.50    3.22
   4   5  -5  382.86    3.56
   4   5  -5  376.79    3.21
  -4  -5   4  150.64    2.30
   4   5  -4  150.87    2.01
   4   5  -4  151.76    2.45
   4   5  -4  150.97    2.11
   4   5  -3   27.37    0.95
   4   5  -3   27.15    0.92
   4   5  -3   26.32    1.14
   4   5  -2  109.62    2.03
   4   5  -2  104.47    1.75
   4   5  -2  105.99    2.28
  -4  -5   1  215.38    6.37
   4   5  -1  213.82    2.99
   4   5  -1  207.38    2.44
   4   5  -1  209.81    3.32
   4   5   0  346.73    3.98
   4   5   0  341.03    3.07
   4   5   0  337.61    4.36
  -4  -5  -1    0.79    0.54
   4   5   1    0.26    0.45
   4   5   1    0.03    0.48
  -4  -5  -2   10.75    1.53
   4   5   2    9.50    0.87
  -4  -5  -2   10.80    1.43
   4   5   2   10.19    0.86
  -4  -5  -3    1.37    0.75
   4   5   3    0.74    0.53
  -4  -5  -3    1.25    0.69
   4   5   3    1.50    0.32
  -4  -5  -3    1.09    0.36
   4   5   3    0.92    0.44
  -4  -5  -4   65.41    3.47
   4   5   4   63.33    1.98
   4   5   4   68.23    1.64
  -4  -5  -4   62.72    1.46
   4   5   4   61.96    1.70
  -4  -5  -5   22.52    2.07
   4   5   5   22.05    1.20
   4   5   5   23.47    1.05
  -4  -5  -5   22.39    0.93
  -4  -5  -5   21.52    0.88
   4   5   5   24.65    1.14
   4   5   6  110.13    2.39
  -4  -5  -6  101.54    1.86
   4   5   6  107.06    2.26
  -4  -5  -6  106.48    1.83
   4   5   6   99.29    2.35
   4   5   7  113.71    2.41
  -4  -5  -7  109.63    1.92
  -4  -5  -7  112.11    1.85
   4   5   7  110.65    2.23
  -4  -5  -7  113.73    1.90
   4   5   7  107.93    2.48
  -4  -5  -8    3.48    0.47
   4   5   8    4.67    0.71
  -4  -5  -8    3.01    0.37
   4   5   8    3.31    0.46
  -4  -5  -9   90.08    1.68
   4   5   9   94.87    2.32
  -4  -5 -10    2.63    0.36
   4   5  10    3.29    0.62
  -4  -5 -10    2.70    0.38
  -4  -5 -11   64.23    1.25
   4   5  11   61.56    1.70
  -4  -5 -11   62.47    1.28
  -4  -5 -11   59.82    1.26
   4   5  12   27.17    1.04
  -4  -5 -12   28.39    0.79
  -4  -5 -12   27.52    0.78
  -4  -5 -12   25.94    0.78
   4   5  13   13.96    0.66
  -4  -5 -13   14.38    0.51
  -4  -5 -13   14.04    0.53
   4   5  14    7.00    0.38
  -4  -5 -14    7.34    0.31
   4   6  -7  128.58    1.15
   4   6  -6  199.51    1.70
   4   6  -6  200.98    1.77
   4   6  -5  176.90    1.79
   4   6  -5  175.69    2.03
  -4  -6   5  177.63    2.00
   4   6  -4   16.23    0.62
   4   6  -4   16.18    0.74
  -4  -6   4   16.54    0.69
   4   6  -3   14.16    0.58
   4   6  -3   14.63    0.63
   4   6  -3   14.43    0.79
   4   6  -2   -0.16    0.25
   4   6  -2    0.29    0.26
   4   6  -1   12.36    0.72
   4   6  -1   12.03    0.60
   4   6  -1   12.97    0.85
  -4  -6   0   55.78    1.39
   4   6   0   56.73    1.52
   4   6   0   55.87    1.20
   4   6   0   55.65    1.68
  -4  -6  -1  263.43    2.99
   4   6   1  269.66    3.43
   4   6   1  260.90    2.50
  -4  -6  -2   -0.13    0.35
  -4  -6  -2    0.23    0.27
   4   6   2   -0.20    0.45
  -4  -6  -3    1.02    0.34
   4   6   3    1.60    0.46
  -4  -6  -4   64.74    1.45
  -4  -6  -4   65.51    1.48
   4   6   4   64.26    1.66
   4   6   5   64.04    1.91
  -4  -6  -5   64.35    1.43
   4   6   5   65.42    1.47
  -4  -6  -5   66.12    1.48
   4   6   5   66.18    1.63
   4   6   6  715.32    5.81
  -4  -6  -6  705.36    4.60
   4   6   6  689.32    4.97
  -4  -6  -6  698.19    4.68
   4   6   6  707.26    5.67
  -4  -6  -7  281.27    2.89
   4   6   7  280.70    3.29
  -4  -6  -7  277.32    2.91
   4   6   7  284.44    3.43
  -4  -6  -7  281.03    2.94
   4   6   7  272.19    3.64
  -4  -6  -8  497.26    3.77
   4   6   8  493.19    4.46
  -4  -6  -8  503.81    3.76
   4   6   8  506.33    4.12
  -4  -6  -8  506.17    3.75
   4   6   8  499.18    4.84
  -4  -6  -9    2.31    0.35
   4   6   9    2.45    0.49
  -4  -6  -9    2.19    0.32
   4   6   9    2.44    0.34
  -4  -6 -10   15.16    0.66
  -4  -6 -10   14.62    0.59
   4   6  11   12.36    0.72
  -4  -6 -11   12.11    0.56
   4   6  12   31.25    0.96
  -4  -6 -12   31.80    0.72
  -4  -6 -12   29.35    0.76
   4   6  13    7.29    0.44
  -4  -6 -13    8.23    0.37
  -4  -7   4  101.31    1.34
   4   7  -4  103.03    1.30
  -4  -7   3   47.88    1.04
   4   7  -3   49.20    1.06
   4   7  -2   14.02    0.50
  -4  -7   2   13.28    0.62
   4   7  -2   14.32    0.67
   4   7  -1   47.61    1.08
  -4  -7   1   47.55    1.06
  -4  -7   1   47.41    1.13
   4   7  -1   48.66    1.24
   4   7   0   23.20    0.85
  -4  -7   0   24.18    0.81
  -4  -7   0   22.36    0.82
   4   7   0   23.78    0.94
   4   7   1   20.24    0.86
  -4  -7  -1   19.38    0.75
  -4  -7  -1   20.21    0.78
   4   7   1   19.56    0.91
   4   7   2   25.76    1.01
  -4  -7  -2   24.55    0.86
  -4  -7  -2   25.11    0.85
   4   7   2   25.36    1.03
   4   7   3    0.51    0.40
  -4  -7  -3    0.48    0.29
  -4  -7  -3    0.30    0.21
   4   7   3    0.16    0.30
   4   7   4   19.20    0.98
  -4  -7  -4   19.33    0.78
   4   7   4   18.58    0.80
  -4  -7  -5   20.33    0.80
   4   7   5   19.90    0.97
  -4  -7  -6   31.96    0.98
  -4  -7  -6   32.78    1.00
   4   7   6   32.21    1.14
   4   7   7  271.39    2.49
  -4  -7  -7  271.58    2.70
  -4  -7  -7  271.16    2.67
   4   7   7  264.63    2.95
   4   7   8  553.45    3.68
  -4  -7  -8  560.33    3.70
  -4  -7  -8  559.96    3.65
   4   7   8  547.07    3.80
   4   7   9  152.77    1.97
  -4  -7  -9  157.51    1.82
   4   7   9  152.61    1.66
   4   7  10   35.02    0.94
  -4  -7 -10   34.55    0.80
  -4  -7 -10   35.96    0.85
   4   7  11    1.42    0.27
  -4  -7 -11    1.29    0.23
   4   7  12   49.57    0.88
  -4  -7 -12   51.57    0.80
  -4  -8   1    8.02    0.36
   4   8  -1    8.49    0.39
   4   8   0    2.08    0.23
  -4  -8   0    2.14    0.25
   4   8   0    2.17    0.28
  -4  -8  -1  248.46    2.07
   4   8   1  248.69    2.23
   4   8   2    0.12    0.23
  -4  -8  -2    0.41    0.20
   4   8   2    0.05    0.21
   4   8   3   52.63    1.17
  -4  -8  -3   54.90    1.09
   4   8   3   52.98    1.01
   4   8   4   91.82    1.54
  -4  -8  -4   94.72    1.42
   4   8   5    2.48    0.37
  -4  -8  -5    1.41    0.29
   4   8   6    0.85    0.26
  -4  -8  -6    1.37    0.27
   4   8   7   30.27    0.80
  -4  -8  -7   31.03    0.78
   4   8   8   60.42    0.93
  -4  -8  -8   63.88    1.05
  -4  -8  -9  330.41    2.12
  -4  -8  -9  337.45    2.05
   5  -5  -3    0.77    0.17
   5  -5  -2   84.84    1.21
   5  -5  -1    3.92    0.33
   5  -5   0  160.90    1.65
   5  -5   1   78.57    1.03
   5  -4  -7  135.80    1.34
   5  -4  -6   93.71    1.31
   5  -4  -5   12.84    0.57
   5  -4  -4  122.35    1.51
   5  -4  -4  121.82    1.74
   5  -4  -3   74.40    1.31
   5  -4  -3   72.16    1.32
   5  -4  -2    2.84    0.38
   5  -4  -2    2.44    0.30
   5  -4  -1   87.49    1.64
   5  -4   0   19.99    0.82
   5  -4   1    1.54    0.33
   5  -4   2    9.01    0.51
   5  -4   2    8.39    0.36
   5  -4   3    0.87    0.18
   5  -4   4   35.00    0.70
   5  -3  -8    2.05    0.21
   5  -3  -7    7.40    0.41
   5  -3  -7    6.81    0.35
   5  -3  -6   18.42    0.69
   5  -3  -5   10.71    0.60
   5  -3  -4   53.98    1.34
   5  -3  -4   50.67    1.09
   5  -3  -3  118.99    2.02
   5  -3  -3  113.60    1.75
   5  -3  -2   18.62    0.81
   5  -3  -2   17.77    0.79
   5  -3  -1   13.16    0.65
   5  -3  -1   12.43    0.74
   5  -3   0   26.47    1.04
   5  -3   1   25.29    1.01
   5  -3   2   -0.03    0.20
   5  -3   2    0.19    0.33
   5  -3   3   16.30    0.59
   5  -3   3   16.74    0.72
   5  -3   4   11.28    0.51
   5  -3   5   25.36    0.73
   5  -3   6   24.34    0.69
   5  -3   7   56.34    0.93
   5  -2  -8   56.71    0.95
   5  -2  -7   10.40    0.51
   5  -2  -7    8.26    0.44
   5  -2  -6    1.85    0.28
   5  -2  -6    1.72    0.33
   5  -2  -5   92.25    1.64
   5  -2  -4   12.54    0.71
   5  -2  -3    0.94    0.38
   5  -2  -3    0.86    0.31
   5  -2  -2    0.16    0.26
   5  -2  -2    0.13    0.33
   5  -2  -2    0.67    0.37
   5  -2  -1    2.77    0.49
   5  -2  -1    3.16    0.44
   5  -2   0   41.22    1.29
   5  -2   0   41.06    1.12
   5  -2   0   41.84    0.99
   5  -2   1   87.30    1.83
   5  -2   1   90.10    1.43
   5  -2   2   19.88    0.92
   5  -2   2   19.15    0.70
   5  -2   3  329.88    3.26
   5  -2   3  329.57    2.70
   5  -2   4   91.37    1.49
   5  -2   4   92.88    1.34
   5  -2   5    1.64    0.26
   5  -2   5    1.27    0.27
   5  -2   6   26.62    0.84
   5  -2   6   27.22    0.61
   5  -2   7    4.74    0.40
   5  -2   8   15.04    0.57
   5  -2   9   90.85    1.14
   5  -1  -9   18.17    0.50
   5  -1  -8    0.34    0.17
   5  -1  -7    8.23    0.46
   5  -1  -6    1.88    0.30
   5  -1  -6    1.71    0.33
   5  -1  -5   68.53    1.42
   5  -1  -5   70.76    1.35
   5  -1  -4    6.02    0.54
   5  -1  -3    1.45    0.29
   5  -1  -3    1.03    0.38
   5  -1  -2   34.53    0.87
   5  -1  -2   34.65    1.16
   5  -1  -2   35.71    0.90
   5  -1  -1  709.22    3.90
   5  -1  -1  703.87    4.85
   5  -1  -1  700.73    4.95
   5  -1  -1  714.18    4.03
   5  -1   0    0.23    0.33
   5  -1   0    0.89    0.35
   5  -1   0    0.26    0.32
   5  -1   1  189.07    2.07
   5  -1   1  189.27    2.64
   5  -1   1  190.06    2.23
   5  -1   2   33.99    0.91
   5  -1   2   34.77    1.18
   5  -1   2   34.43    1.02
   5  -1   3  798.98    3.94
   5  -1   3  813.29    4.64
   5  -1   4   11.72    0.60
   5  -1   4   11.17    0.64
   5  -1   5    0.95    0.32
   5  -1   5    0.30    0.28
   5  -1   6  225.82    2.54
   5  -1   6  229.63    2.20
   5  -1   7   29.63    0.74
   5  -1   7   27.74    0.93
   5  -1   8   19.67    0.51
   5  -1   8   20.42    0.76
  -5   1  -9   41.33    0.63
   5  -1   9   45.00    1.00
   5  -1  10  120.70    1.39
   5   0  -9   35.38    0.68
   5   0  -8    0.34    0.19
   5   0  -7   14.70    0.59
   5   0  -6   25.31    0.80
   5   0  -5   14.30    0.63
   5   0  -4   16.81    0.56
   5   0  -4   16.40    0.68
   5   0  -3  827.88    4.11
   5   0  -3  836.35    5.13
   5   0  -3  827.46    3.84
   5   0  -2  814.38    4.37
   5   0  -2  811.04    5.13
   5   0  -2  798.65    4.13
   5   0  -1    7.89    0.56
   5   0  -1   10.61    0.58
   5   0   0  308.03    2.88
   5   0   0  305.73    2.83
   5   0   1   27.37    0.92
   5   0   1   27.51    0.94
   5   0   2   25.79    0.89
   5   0   2   28.14    0.98
   5   0   3  157.18    2.00
   5   0   3  159.16    2.25
   5   0   4  103.74    1.54
   5   0   4  100.25    1.83
   5   0   5  485.25    3.04
   5   0   5  485.95    3.67
   5   0   5  493.22    3.91
   5   0   6   34.93    0.74
   5   0   6   37.02    1.08
   5   0   6   35.12    1.06
   5   0   7   31.91    0.94
   5   0   7   31.97    1.02
   5   0   8   42.59    1.17
   5   0   8   43.02    0.97
   5   0   9  112.61    1.76
   5   0   9  112.11    1.30
   5   0  10  212.32    2.18
   5   0  11   14.98    0.50
   5   1  -9   56.52    0.78
   5   1  -8    1.87    0.24
   5   1  -7  255.54    2.21
   5   1  -6  118.78    1.62
   5   1  -5  146.55    1.35
   5   1  -5  143.47    1.84
   5   1  -4    8.42    0.43
   5   1  -4    8.52    0.50
   5   1  -3  138.42    1.75
   5   1  -3  141.74    1.47
   5   1  -2    6.43    0.50
   5   1  -2    6.95    0.41
   5   1  -1  168.87    2.21
   5   1  -1  164.35    1.95
   5   1   0    6.48    0.57
   5   1   0    6.63    0.51
   5   1   1   89.18    1.72
   5   1   1   89.29    1.63
   5   1   2  217.23    2.67
   5   1   2  218.01    2.62
   5   1   3  142.53    2.11
   5   1   3  140.88    2.19
   5   1   4   22.35    0.85
   5   1   4   23.11    0.97
   5   1   5   20.90    0.76
   5   1   5   29.99    1.11
   5   1   6   24.91    0.73
   5   1   6   24.80    1.00
   5   1   7   86.97    1.13
   5   1   7   84.71    1.70
   5   1   7   85.85    1.66
   5   1   8   63.50    1.37
   5   1   8   60.17    1.42
   5   1   9   59.80    1.19
   5   1   9   57.60    1.36
   5   1  10    5.11    0.34
   5   1  10    5.06    0.43
   5   1  11   62.11    1.12
   5   2  -8   99.52    1.10
   5   2  -7   17.52    0.56
   5   2  -6   13.54    0.55
   5   2  -5  907.07    4.33
   5   2  -4   28.45    0.71
   5   2  -4   27.99    0.80
   5   2  -3    6.06    0.43
   5   2  -3    5.31    0.39
   5   2  -2   41.92    1.08
   5   2  -1   57.82    1.35
   5   2  -1   56.37    1.06
   5   2   0  118.88    2.01
   5   2   0  119.31    1.69
   5   2   1   26.79    1.06
   5   2   1   25.55    0.88
   5   2   2   35.31    1.20
   5   2   2   33.84    1.06
   5   2   3   16.62    0.86
   5   2   3   14.58    0.76
   5   2   4   87.87    1.75
   5   2   4   86.31    1.78
   5   2   5  150.54    2.12
   5   2   5  150.44    2.39
   5   2   6  123.01    1.74
   5   2   6  125.42    2.22
   5   2   7   78.95    1.21
   5   2   7   80.00    1.78
   5   2   8   11.28    0.71
  -5  -2  -8   10.56    0.47
   5   2   8   11.69    0.65
  -5  -2  -9   44.50    0.85
   5   2   9   43.87    1.17
   5   2  10  130.59    1.72
  -5  -2 -10  127.59    1.29
  -5  -2 -11  207.97    1.42
   5   2  11  210.24    2.10
   5   2  11  211.09    1.73
   5   3  -7  226.09    1.62
   5   3  -6    0.66    0.19
   5   3  -5    7.23    0.40
   5   3  -4  117.31    1.49
   5   3  -4  115.51    1.78
   5   3  -3   71.67    1.20
   5   3  -3   69.66    1.15
   5   3  -3   70.11    1.51
   5   3  -2  242.19    2.46
   5   3  -2  242.38    2.92
   5   3  -1    2.51    0.41
   5   3  -1    2.03    0.46
   5   3   0  222.16    2.73
   5   3   0  221.52    2.95
   5   3   1  342.10    3.56
   5   3   1  342.35    3.54
   5   3   1  338.51    2.76
   5   3   2   51.67    1.50
   5   3   2   49.65    1.18
   5   3   2   50.44    1.32
   5   3   3    1.65    0.50
  -5  -3  -3    1.32    0.30
   5   3   4  132.45    2.25
   5   3   4  129.51    2.08
  -5  -3  -4  131.87    1.89
   5   3   5  170.25    2.40
  -5  -3  -5  166.54    2.08
   5   3   5  170.21    2.46
   5   3   6  200.82    2.38
  -5  -3  -6  194.24    2.21
   5   3   6  199.82    2.73
  -5  -3  -6  195.66    2.26
   5   3   7    0.09    0.22
   5   3   7    0.13    0.39
  -5  -3  -7    0.38    0.24
   5   3   8   28.83    1.08
  -5  -3  -8   29.90    0.81
   5   3   9    3.87    0.47
  -5  -3  -9    3.92    0.32
   5   3   9    3.00    0.35
   5   3  10   43.27    1.09
  -5  -3 -10   44.04    0.82
   5   3  11   10.29    0.47
  -5  -3 -11   10.64    0.37
   5   3  11    9.40    0.44
   5   4  -5  199.30    1.57
   5   4  -4  224.93    1.80
   5   4  -4  226.06    2.23
   5   4  -3   63.02    0.98
   5   4  -3   62.53    0.98
   5   4  -3   63.56    1.32
   5   4  -2   70.83    1.24
   5   4  -2   72.67    1.52
   5   4  -1    9.70    0.57
   5   4  -1    8.35    0.64
   5   4   0  156.81    2.19
  -5  -4   0  156.29    2.07
   5   4   1    6.94    0.61
  -5  -4  -1    7.20    0.47
   5   4   1    7.01    0.59
   5   4   2    3.46    0.52
   5   4   2    2.92    0.41
   5   4   2    2.86    0.30
   5   4   3   35.71    1.25
   5   4   3   35.81    0.93
  -5  -4  -3   37.73    1.05
   5   4   3   35.68    1.01
  -5  -4  -4    0.91    0.27
   5   4   4    0.52    0.29
   5   4   4    0.48    0.40
  -5  -4  -5  107.41    1.68
   5   4   5  103.27    1.77
   5   4   5  107.31    1.96
   5   4   6    2.32    0.41
   5   4   6    2.39    0.39
   5   4   7   64.36    1.51
  -5  -4  -7   63.57    1.26
   5   4   7   60.66    1.19
   5   4   8    0.02    0.38
  -5  -4  -8    0.03    0.20
   5   4   8    0.38    0.18
   5   4   9  224.19    2.60
   5   4  10   70.27    1.34
  -5  -4 -10   72.36    1.04
   5   4  11   57.86    1.03
   5   5  -4   21.42    0.57
   5   5  -3   20.92    0.66
   5   5  -2    2.89    0.25
   5   5  -2    2.95    0.35
   5   5  -1   43.41    0.94
   5   5  -1   44.21    1.13
   5   5   0   49.31    1.11
  -5  -5   0   50.31    1.10
   5   5   0   53.09    1.31
   5   5   1   24.51    0.88
  -5  -5  -1   23.73    0.75
   5   5   1   24.89    0.91
   5   5   2    1.55    0.40
  -5  -5  -2    1.41    0.25
   5   5   2    1.72    0.32
   5   5   3  113.85    2.02
   5   5   3  106.16    1.57
   5   5   4   12.63    0.49
   5   5   4   13.76    0.77
   5   5   5  127.95    1.60
   5   5   5  134.93    2.10
   5   5   6   23.68    0.76
   5   5   6   24.84    0.86
   5   5   7    4.27    0.39
   5   5   7    3.00    0.32
   5   5   8   28.02    0.86
   5   5   8   26.01    0.60
   5   5   9   12.03    0.56
  -5  -5  -9   12.27    0.42
   5   5  10   43.43    0.91
   5   6  -2   25.35    0.57
   5   6  -1   -0.03    0.18
   5   6   0    5.53    0.33
   5   6   0    5.76    0.37
   5   6   1    0.57    0.22
   5   6   1    0.62    0.21
   5   6   2    0.64    0.26
   5   6   2    0.64    0.19
   5   6   3    0.13    0.25
  -5  -6  -3   -0.18    0.19
   5   6   4    1.93    0.33
  -5  -6  -4    1.62    0.21
   5   6   5    1.10    0.29
   5   6   6   20.95    0.67
   5   6   7    0.03    0.16
  -5  -6  -8    0.20    0.15
   5   7   4    1.25    0.18
   6   0   2    6.48    0.28
   6   0   3  113.17    1.04
   6   0   4   16.58    0.41
   6   1   1   70.64    0.74
   6   1   2   12.21    0.36
   6   1   3   47.74    0.70
   6   1   4   36.28    0.63
   6   1   5  467.03    2.13
   6   2   0  130.39    1.03
   6   2   1   50.74    0.72
   6   2   2    3.87    0.25
   6   2   3   66.56    0.84
   6   2   3   65.90    0.74
   6   2   4    3.20    0.20
   6   2   5   12.80    0.36
   6   3   1  119.87    0.98
   6   3   2   38.04    0.61
   6   3   3    6.40    0.28
   0   0   0    0.00    0.00


TITL AL-07-082 in P-1
REM P-1 (#2 in standard setting)
CELL 1.54184   4.868151   8.479565  15.030529  75.4229  85.4965  84.4663
ZERR    2.00   0.000140   0.000253   0.000372   0.0023   0.0022   0.0024
LATT  1
SFAC C H N O
UNIT 32.00 30.00 2.00 2.00
REM  CrysAlisPro recorded range (K): Min=140.0; max=140.0; aver:140.0
TEMP -133
SIZE 0.13 0.21 0.99
TREF
HKLF 4
END
_computing_structure_solution     'SHELXT 2018/2 (Sheldrick, 2018)'
;
_shelx_hkl_checksum              21117
_olex2_date_sample_data_collection 2020-12-08
_olex2_submission_special_instructions 'No special instructions were received'
_oxdiff_exptl_absorpt_empirical_details
;
Empirical correction (ABSPACK) includes:
- Absorption correction using spherical harmonics
- Frame scaling
- Detector area scaling
- B-factor correction
;
_oxdiff_exptl_absorpt_empirical_full_max 1.422
_oxdiff_exptl_absorpt_empirical_full_min 0.823
loop_
_space_group_symop_operation_xyz
'x, y, z'
'-x, -y, -z'
loop_
_atom_site_label
_atom_site_type_symbol
_atom_site_fract_x
_atom_site_fract_y
_atom_site_fract_z
_atom_site_U_iso_or_equiv
_atom_site_adp_type
_atom_site_occupancy
_atom_site_site_symmetry_order
_atom_site_calc_flag
_atom_site_refinement_flags_posn
_atom_site_refinement_flags_adp
_atom_site_refinement_flags_occupancy
_atom_site_disorder_assembly
_atom_site_disorder_group
O1 O 0.62342(16) 0.69825(10) 0.51188(5) 0.0309(2) Uani 1 1 d . . . . .
N1 N 0.67243(17) 0.45222(10) 0.69104(6) 0.0213(2) Uani 1 1 d . . . . .
C1 C 0.48220(19) 0.58723(11) 0.66819(7) 0.0197(2) Uani 1 1 d . . . . .
C2 C 0.4601(2) 0.70025(12) 0.57810(7) 0.0222(2) Uani 1 1 d . . . . .
C3 C 0.2078(2) 0.82037(14) 0.57012(7) 0.0278(2) Uani 1 1 d . . . . .
H3A H 0.053794 0.770216 0.551170 0.033 Uiso 1 1 calc R U . . .
H3B H 0.247523 0.918372 0.520528 0.033 Uiso 1 1 calc R U . . .
C4 C 0.1119(2) 0.87523(13) 0.65781(7) 0.0249(2) Uani 1 1 d . . . . .
H4 H -0.075321 0.934635 0.648383 0.030 Uiso 1 1 calc R U . . .
C5 C 0.2981(2) 0.98718(13) 0.68370(8) 0.0294(3) Uani 1 1 d . . . . .
H5 H 0.392897 1.068737 0.640412 0.035 Uiso 1 1 calc R U . . .
C6 C 0.3132(2) 0.95793(13) 0.77384(8) 0.0300(3) Uani 1 1 d . . . . .
H6 H 0.420075 1.015671 0.803392 0.036 Uiso 1 1 calc R U . . .
C7 C 0.1399(2) 0.82168(13) 0.82377(7) 0.0272(2) Uani 1 1 d . . . . .
H7A H -0.037075 0.864870 0.849161 0.033 Uiso 1 1 calc R U . . .
H7B H 0.239611 0.745827 0.874419 0.033 Uiso 1 1 calc R U . . .
C8 C 0.0915(2) 0.73627(12) 0.74714(7) 0.0216(2) Uani 1 1 d . . . . .
H8 H -0.096108 0.694063 0.756354 0.026 Uiso 1 1 calc R U . . .
C9 C 0.31147(19) 0.60031(11) 0.74447(6) 0.0196(2) Uani 1 1 d . . . . .
C10 C 0.3965(2) 0.46624(12) 0.81800(7) 0.0207(2) Uani 1 1 d . . . . .
C11 C 0.3036(2) 0.40981(13) 0.91063(7) 0.0267(2) Uani 1 1 d . . . . .
H11 H 0.150441 0.465586 0.935946 0.032 Uiso 1 1 calc R U . . .
C12 C 0.4383(2) 0.27248(14) 0.96394(7) 0.0312(3) Uani 1 1 d . . . . .
H12 H 0.376239 0.233177 1.026459 0.037 Uiso 1 1 calc R U . . .
C13 C 0.6662(2) 0.18935(13) 0.92747(8) 0.0304(3) Uani 1 1 d . . . . .
H13 H 0.757187 0.096179 0.966336 0.037 Uiso 1 1 calc R U . . .
C14 C 0.7609(2) 0.23946(12) 0.83692(8) 0.0263(2) Uani 1 1 d . . . . .
H14 H 0.914062 0.182327 0.812486 0.032 Uiso 1 1 calc R U . . .
C15 C 0.6219(2) 0.37843(11) 0.78215(7) 0.0209(2) Uani 1 1 d . . . . .
C16 C 0.8730(2) 0.38570(13) 0.63010(7) 0.0275(2) Uani 1 1 d . . . . .
H16A H 0.776210 0.356092 0.582601 0.033 Uiso 0.345(14) 1 calc R U P . .
H16B H 0.975715 0.288302 0.665866 0.033 Uiso 0.345(14) 1 calc R U P . .
H16C H 1.001846 0.467981 0.600840 0.033 Uiso 0.345(14) 1 calc R U P . .
H16D H 1.059637 0.385491 0.650270 0.033 Uiso 0.655(14) 1 calc R U P . .
H16E H 0.860132 0.453281 0.567005 0.033 Uiso 0.655(14) 1 calc R U P . .
H16F H 0.834001 0.273603 0.632031 0.033 Uiso 0.655(14) 1 calc R U P . .
loop_
_atom_site_aniso_label
_atom_site_aniso_U_11
_atom_site_aniso_U_22
_atom_site_aniso_U_33
_atom_site_aniso_U_23
_atom_site_aniso_U_13
_atom_site_aniso_U_12
O1 0.0286(4) 0.0385(4) 0.0219(4) -0.0036(3) 0.0044(3) 0.0012(3)
N1 0.0220(4) 0.0200(4) 0.0218(4) -0.0065(3) 0.0004(3) 0.0009(3)
C1 0.0178(4) 0.0204(5) 0.0215(5) -0.0063(4) -0.0014(3) -0.0007(3)
C2 0.0205(5) 0.0260(5) 0.0202(5) -0.0056(4) -0.0011(4) -0.0026(4)
C3 0.0238(5) 0.0345(6) 0.0213(5) -0.0017(4) -0.0031(4) 0.0044(4)
C4 0.0193(5) 0.0266(5) 0.0252(5) -0.0026(4) -0.0007(4) 0.0057(4)
C5 0.0249(5) 0.0204(5) 0.0395(6) -0.0047(4) 0.0055(4) 0.0022(4)
C6 0.0251(5) 0.0247(5) 0.0427(6) -0.0145(5) -0.0014(4) 0.0018(4)
C7 0.0301(5) 0.0256(5) 0.0262(5) -0.0094(4) -0.0002(4) 0.0035(4)
C8 0.0171(4) 0.0240(5) 0.0229(5) -0.0057(4) 0.0008(3) 0.0000(4)
C9 0.0179(5) 0.0206(5) 0.0206(5) -0.0055(4) -0.0009(3) -0.0030(4)
C10 0.0212(5) 0.0199(5) 0.0216(5) -0.0057(4) -0.0007(4) -0.0037(4)
C11 0.0287(5) 0.0277(5) 0.0227(5) -0.0048(4) 0.0022(4) -0.0047(4)
C12 0.0377(6) 0.0304(6) 0.0229(5) -0.0001(4) -0.0008(4) -0.0083(5)
C13 0.0360(6) 0.0215(5) 0.0310(6) 0.0013(4) -0.0090(5) -0.0035(4)
C14 0.0277(5) 0.0189(5) 0.0323(6) -0.0061(4) -0.0050(4) -0.0002(4)
C15 0.0227(5) 0.0183(4) 0.0227(5) -0.0059(4) -0.0020(4) -0.0035(4)
C16 0.0279(5) 0.0271(5) 0.0281(5) -0.0112(4) 0.0032(4) 0.0032(4)
loop_
_atom_type_symbol
_atom_type_description
_atom_type_scat_dispersion_real
_atom_type_scat_dispersion_imag
_atom_type_scat_source
C C 0.0181 0.0091 'International Tables Vol C Tables 4.2.6.8 and 6.1.1.4'
H H 0.0000 0.0000 'International Tables Vol C Tables 4.2.6.8 and 6.1.1.4'
N N 0.0311 0.0180 'International Tables Vol C Tables 4.2.6.8 and 6.1.1.4'
O O 0.0492 0.0322 'International Tables Vol C Tables 4.2.6.8 and 6.1.1.4'
loop_
_exptl_crystal_face_index_h
_exptl_crystal_face_index_k
_exptl_crystal_face_index_l
_exptl_crystal_face_perp_dist
0 -1 0 0.0807
0 1 0 0.0907
0 0 -1 0.0413
0 0 1 0.0927
1 0 -1 0.4273
1 0 2 0.3881
-1 0 -2 0.3881
loop_
_geom_angle_atom_site_label_1
_geom_angle_atom_site_label_2
_geom_angle_atom_site_label_3
_geom_angle
_geom_angle_site_symmetry_1
_geom_angle_site_symmetry_3
_geom_angle_publ_flag
C1 N1 C16 128.15(8) . . ?
C15 N1 C1 107.57(8) . . ?
C15 N1 C16 123.98(8) . . ?
N1 C1 C2 126.16(9) . . ?
C9 C1 N1 110.09(9) . . ?
C9 C1 C2 123.74(9) . . ?
O1 C2 C1 124.46(9) . . ?
O1 C2 C3 121.23(9) . . ?
C1 C2 C3 114.27(8) . . ?
C2 C3 H3A 108.4 . . ?
C2 C3 H3B 108.4 . . ?
C2 C3 C4 115.35(8) . . ?
H3A C3 H3B 107.5 . . ?
C4 C3 H3A 108.4 . . ?
C4 C3 H3B 108.4 . . ?
C3 C4 H4 107.9 . . ?
C3 C4 C8 115.53(9) . . ?
C5 C4 C3 114.79(9) . . ?
C5 C4 H4 107.9 . . ?
C5 C4 C8 102.31(8) . . ?
C8 C4 H4 107.9 . . ?
C4 C5 H5 124.1 . . ?
C6 C5 C4 111.82(10) . . ?
C6 C5 H5 124.1 . . ?
C5 C6 H6 124.3 . . ?
C5 C6 C7 111.46(10) . . ?
C7 C6 H6 124.3 . . ?
C6 C7 H7A 111.2 . . ?
C6 C7 H7B 111.2 . . ?
C6 C7 C8 102.81(8) . . ?
H7A C7 H7B 109.1 . . ?
C8 C7 H7A 111.2 . . ?
C8 C7 H7B 111.2 . . ?
C4 C8 H8 110.6 . . ?
C7 C8 C4 103.35(8) . . ?
C7 C8 H8 110.6 . . ?
C9 C8 C4 110.70(8) . . ?
C9 C8 C7 110.78(8) . . ?
C9 C8 H8 110.6 . . ?
C1 C9 C8 125.09(9) . . ?
C1 C9 C10 106.50(8) . . ?
C10 C9 C8 128.35(9) . . ?
C11 C10 C9 134.26(10) . . ?
C11 C10 C15 119.02(9) . . ?
C15 C10 C9 106.72(8) . . ?
C10 C11 H11 120.6 . . ?
C12 C11 C10 118.89(10) . . ?
C12 C11 H11 120.6 . . ?
C11 C12 H12 119.4 . . ?
C11 C12 C13 121.12(10) . . ?
C13 C12 H12 119.4 . . ?
C12 C13 H13 119.1 . . ?
C14 C13 C12 121.70(10) . . ?
C14 C13 H13 119.1 . . ?
C13 C14 H14 121.4 . . ?
C13 C14 C15 117.27(10) . . ?
C15 C14 H14 121.4 . . ?
N1 C15 C10 109.11(8) . . ?
N1 C15 C14 128.92(9) . . ?
C14 C15 C10 121.97(9) . . ?
N1 C16 H16A 109.5 . . ?
N1 C16 H16B 109.5 . . ?
N1 C16 H16C 109.5 . . ?
N1 C16 H16D 109.5 . . ?
N1 C16 H16E 109.5 . . ?
N1 C16 H16F 109.5 . . ?
H16A C16 H16B 109.5 . . ?
H16A C16 H16C 109.5 . . ?
H16A C16 H16D 141.1 . . ?
H16A C16 H16E 56.3 . . ?
H16A C16 H16F 56.3 . . ?
H16B C16 H16C 109.5 . . ?
H16B C16 H16D 56.3 . . ?
H16B C16 H16E 141.1 . . ?
H16B C16 H16F 56.3 . . ?
H16C C16 H16D 56.3 . . ?
H16C C16 H16E 56.3 . . ?
H16C C16 H16F 141.1 . . ?
H16D C16 H16E 109.5 . . ?
H16D C16 H16F 109.5 . . ?
H16E C16 H16F 109.5 . . ?
loop_
_geom_bond_atom_site_label_1
_geom_bond_atom_site_label_2
_geom_bond_distance
_geom_bond_site_symmetry_2
_geom_bond_publ_flag
O1 C2 1.2268(12) . ?
N1 C1 1.3906(12) . ?
N1 C15 1.3686(13) . ?
N1 C16 1.4573(12) . ?
C1 C2 1.4536(14) . ?
C1 C9 1.3837(13) . ?
C2 C3 1.5102(14) . ?
C3 H3A 0.9900 . ?
C3 H3B 0.9900 . ?
C3 C4 1.5302(14) . ?
C4 H4 1.0000 . ?
C4 C5 1.5106(15) . ?
C4 C8 1.5513(14) . ?
C5 H5 0.9500 . ?
C5 C6 1.3212(17) . ?
C6 H6 0.9500 . ?
C6 C7 1.5039(16) . ?
C7 H7A 0.9900 . ?
C7 H7B 0.9900 . ?
C7 C8 1.5498(14) . ?
C8 H8 1.0000 . ?
C8 C9 1.5018(13) . ?
C9 C10 1.4261(13) . ?
C10 C11 1.4070(14) . ?
C10 C15 1.4142(14) . ?
C11 H11 0.9500 . ?
C11 C12 1.3761(16) . ?
C12 H12 0.9500 . ?
C12 C13 1.4059(17) . ?
C13 H13 0.9500 . ?
C13 C14 1.3760(16) . ?
C14 H14 0.9500 . ?
C14 C15 1.4033(14) . ?
C16 H16A 0.9800 . ?
C16 H16B 0.9800 . ?
C16 H16C 0.9800 . ?
C16 H16D 0.9800 . ?
C16 H16E 0.9800 . ?
C16 H16F 0.9800 . ?
loop_
_geom_torsion_atom_site_label_1
_geom_torsion_atom_site_label_2
_geom_torsion_atom_site_label_3
_geom_torsion_atom_site_label_4
_geom_torsion
_geom_torsion_site_symmetry_1
_geom_torsion_site_symmetry_2
_geom_torsion_site_symmetry_3
_geom_torsion_site_symmetry_4
_geom_torsion_publ_flag
O1 C2 C3 C4 -148.84(10) . . . . ?
N1 C1 C2 O1 -6.33(16) . . . . ?
N1 C1 C2 C3 171.34(9) . . . . ?
N1 C1 C9 C8 176.49(8) . . . . ?
N1 C1 C9 C10 -0.77(11) . . . . ?
C1 N1 C15 C10 0.30(11) . . . . ?
C1 N1 C15 C14 -179.16(10) . . . . ?
C1 C2 C3 C4 33.40(13) . . . . ?
C1 C9 C10 C11 -178.26(11) . . . . ?
C1 C9 C10 C15 0.92(11) . . . . ?
C2 C1 C9 C8 -3.59(15) . . . . ?
C2 C1 C9 C10 179.15(9) . . . . ?
C2 C3 C4 C5 71.27(12) . . . . ?
C2 C3 C4 C8 -47.48(13) . . . . ?
C3 C4 C5 C6 -143.49(9) . . . . ?
C3 C4 C8 C7 152.33(9) . . . . ?
C3 C4 C8 C9 33.68(12) . . . . ?
C4 C5 C6 C7 -0.03(12) . . . . ?
C4 C8 C9 C1 -9.21(13) . . . . ?
C4 C8 C9 C10 167.44(9) . . . . ?
C5 C4 C8 C7 26.89(9) . . . . ?
C5 C4 C8 C9 -91.76(9) . . . . ?
C5 C6 C7 C8 17.67(11) . . . . ?
C6 C7 C8 C4 -27.06(10) . . . . ?
C6 C7 C8 C9 91.53(9) . . . . ?
C7 C8 C9 C1 -123.25(10) . . . . ?
C7 C8 C9 C10 53.40(13) . . . . ?
C8 C4 C5 C6 -17.57(11) . . . . ?
C8 C9 C10 C11 4.60(18) . . . . ?
C8 C9 C10 C15 -176.22(9) . . . . ?
C9 C1 C2 O1 173.77(10) . . . . ?
C9 C1 C2 C3 -8.56(14) . . . . ?
C9 C10 C11 C12 -179.73(11) . . . . ?
C9 C10 C15 N1 -0.76(11) . . . . ?
C9 C10 C15 C14 178.74(9) . . . . ?
C10 C11 C12 C13 0.37(16) . . . . ?
C11 C10 C15 N1 178.57(9) . . . . ?
C11 C10 C15 C14 -1.93(15) . . . . ?
C11 C12 C13 C14 -1.25(17) . . . . ?
C12 C13 C14 C15 0.52(16) . . . . ?
C13 C14 C15 N1 -179.53(10) . . . . ?
C13 C14 C15 C10 1.07(15) . . . . ?
C15 N1 C1 C2 -179.61(9) . . . . ?
C15 N1 C1 C9 0.30(11) . . . . ?
C15 C10 C11 C12 1.17(15) . . . . ?
C16 N1 C1 C2 -5.74(16) . . . . ?
C16 N1 C1 C9 174.17(9) . . . . ?
C16 N1 C15 C10 -173.89(9) . . . . ?
C16 N1 C15 C14 6.65(16) . . . . ?
loop_
_exptl_oxdiff_crystal_face_indexfrac_h
_exptl_oxdiff_crystal_face_indexfrac_k
_exptl_oxdiff_crystal_face_indexfrac_l
_exptl_oxdiff_crystal_face_x
_exptl_oxdiff_crystal_face_y
_exptl_oxdiff_crystal_face_z
-0.0000 -1.0000 0.0000 -0.1510 0.1106 0.0211
0.0000 1.0000 -0.0000 0.1510 -0.1106 -0.0211
-0.0000 -0.0000 -1.0000 -0.0373 -0.0982 0.0149
0.0000 0.0000 1.0000 0.0373 0.0982 -0.0149
1.0000 -0.0000 -1.0000 -0.0109 -0.0795 0.3317
1.0000 0.0000 2.0000 0.1009 0.2151 0.2870
-1.0000 -0.0000 -2.0000 -0.1009 -0.2151 -0.2870
