#------------------------------------------------------------------------------
#$Date: 2022-03-03 22:31:42 +0200 (Thu, 03 Mar 2022) $
#$Revision: 273251 $
#$URL: file:///home/coder/svn-repositories/cod/cif/4/51/93/4519344.cif $
#------------------------------------------------------------------------------
#
# This file is available in the Crystallography Open Database (COD),
# http://www.crystallography.net/
#
# All data on this site have been placed in the public domain by the
# contributors.
#
data_4519344
loop_
_publ_author_name
'Highland, Jaclyn N.'
'Morris, Patrick J.'
'Konrath, Kylie M.'
'Riggs, Lace M.'
'Hagen, Natalie R.'
'Zanos, Panos'
'Powels, Chris F.'
'Moaddel, Ruin'
'Thomas, Craig J.'
'Wang, Amy Q.'
'Gould, Todd D.'
_publ_section_title
;
 Hydroxynorketamine Pharmacokinetics and Antidepressant Behavioral Effects
 of (2<i>,</i>6)- and
 (5<i>R</i>)-Methyl-(2<i>R,</i>6<i>R</i>)-hydroxynorketamines.
;
_journal_issue                   4
_journal_name_full               'ACS chemical neuroscience'
_journal_page_first              510
_journal_page_last               523
_journal_paper_doi               10.1021/acschemneuro.1c00761
_journal_volume                  13
_journal_year                    2022
_chemical_absolute_configuration ad
_chemical_formula_moiety         'C13 H16 Cl N O2'
_chemical_formula_sum            'C13 H16 Cl N O2'
_chemical_formula_weight         253.72
_space_group_crystal_system      monoclinic
_space_group_IT_number           4
_space_group_name_Hall           'P 2yb'
_space_group_name_H-M_alt        'P 1 21 1'
_atom_sites_solution_hydrogens   mixed
_atom_sites_solution_primary     dual
_atom_sites_solution_secondary   difmap
_audit_creation_date             2017-12-19
_audit_creation_method
;
Olex2 1.2-beta
(compiled 2017.08.10 svn.r3458 for OlexSys, GUI svn.r5381)
;
_cell_angle_alpha                90
_cell_angle_beta                 101.266(4)
_cell_angle_gamma                90
_cell_formula_units_Z            2
_cell_length_a                   6.5842(9)
_cell_length_b                   11.0230(14)
_cell_length_c                   8.6030(12)
_cell_measurement_reflns_used    7174
_cell_measurement_temperature    100.0
_cell_measurement_theta_max      25.678
_cell_measurement_theta_min      2.414
_cell_volume                     612.35(14)
_computing_cell_refinement       'SAINT v8.37A (Bruker, 2016)'
_computing_data_collection       'APEX3 v2016.1-0 (Bruker, 2016)'
_computing_data_reduction        'SAINT v8.37A (Bruker, 2016)'
_computing_molecular_graphics    'Olex2 (Dolomanov et al., 2009)'
_computing_publication_material  'Olex2 (Dolomanov et al., 2009)'
_computing_structure_refinement  'ShelXL (Sheldrick, 2015)'
_computing_structure_solution    'ShelXT (Sheldrick, 2015)'
_diffrn_ambient_temperature      100.0
_diffrn_detector                 'Bruker APEX-II CCD'
_diffrn_detector_area_resol_mean 8.258
_diffrn_detector_type            'CCD Area Detector'
_diffrn_measured_fraction_theta_full 1.000
_diffrn_measured_fraction_theta_max 0.998
_diffrn_measurement_device       'Kappa Four-Circle Diffractometer'
_diffrn_measurement_device_type  'Bruker APEX II Ultra'
_diffrn_measurement_method       '\w and \f scans'
_diffrn_radiation_monochromator  'Double Bounce Multilayer Mirrors'
_diffrn_radiation_probe          x-ray
_diffrn_radiation_type           MoK\a
_diffrn_radiation_wavelength     0.71073
_diffrn_reflns_av_R_equivalents  0.0540
_diffrn_reflns_av_unetI/netI     0.0321
_diffrn_reflns_Laue_measured_fraction_full 1.000
_diffrn_reflns_Laue_measured_fraction_max 0.998
_diffrn_reflns_limit_h_max       8
_diffrn_reflns_limit_h_min       -8
_diffrn_reflns_limit_k_max       13
_diffrn_reflns_limit_k_min       -13
_diffrn_reflns_limit_l_max       10
_diffrn_reflns_limit_l_min       -10
_diffrn_reflns_number            19959
_diffrn_reflns_point_group_measured_fraction_full 1.000
_diffrn_reflns_point_group_measured_fraction_max 0.997
_diffrn_reflns_theta_full        25.000
_diffrn_reflns_theta_max         26.401
_diffrn_reflns_theta_min         2.414
_diffrn_source                   'Micro Focus Rotating Anode'
_diffrn_source_type              'Bruker TXS'
_diffrn_standards_number         0
_exptl_absorpt_coefficient_mu    0.301
_exptl_absorpt_correction_T_max  0.2580
_exptl_absorpt_correction_T_min  0.2321
_exptl_absorpt_correction_type   multi-scan
_exptl_absorpt_process_details
'SADABS-2016/2 (Bruker,2016/2) was used for absorption correction. wR2(int) was 0.0725 before and 0.0639 after correction. The Ratio of minimum to maximum transmission is 0.8996. The \l/2 correction factor is Not present.'
_exptl_crystal_colour            Colorless
_exptl_crystal_colour_primary    Colorless
_exptl_crystal_density_diffrn    1.376
_exptl_crystal_description       Block
_exptl_crystal_F_000             268
_exptl_crystal_size_max          0.153
_exptl_crystal_size_mid          0.147
_exptl_crystal_size_min          0.144
_refine_diff_density_max         0.213
_refine_diff_density_min         -0.157
_refine_diff_density_rms         0.036
_refine_ls_abs_structure_details
;
 Flack x determined using 1075 quotients [(I+)-(I-)]/[(I+)+(I-)]
 (Parsons, Flack and Wagner, Acta Cryst. B69 (2013) 249-259).
;
_refine_ls_abs_structure_Flack   -0.03(3)
_refine_ls_extinction_method     none
_refine_ls_goodness_of_fit_ref   1.033
_refine_ls_hydrogen_treatment    mixed
_refine_ls_matrix_type           full
_refine_ls_number_parameters     167
_refine_ls_number_reflns         2512
_refine_ls_number_restraints     4
_refine_ls_restrained_S_all      1.035
_refine_ls_R_factor_all          0.0298
_refine_ls_R_factor_gt           0.0270
_refine_ls_shift/su_max          0.000
_refine_ls_shift/su_mean         0.000
_refine_ls_structure_factor_coef Fsqd
_refine_ls_weighting_details
'w=1/[\s^2^(Fo^2^)+(0.0283P)^2^+0.1408P] where P=(Fo^2^+2Fc^2^)/3'
_refine_ls_weighting_scheme      calc
_refine_ls_wR_factor_gt          0.0617
_refine_ls_wR_factor_ref         0.0638
_reflns_Friedel_coverage         0.894
_reflns_Friedel_fraction_full    1.000
_reflns_Friedel_fraction_max     0.996
_reflns_number_gt                2390
_reflns_number_total             2512
_reflns_threshold_expression     'I > 2\s(I)'
_cod_data_source_file            cn1c00761_si_002.cif
_cod_data_source_block           NIH35
_cod_depositor_comments
;
The following automatic conversions were performed:

data item '_diffrn_radiation_probe' value 'X-ray' was changed to
'x-ray' in accordance with the
/home/data/users/saulius/crontab/automatic-downloads/current/ACS/lib/dictionaries/cif_core.dic
dictionary named 'cif_core.dic' version 2.4.2 last updated on
2011-04-26.

Automatic conversion script
Id: cif_fix_values 7556 2019-12-06 15:28:31Z antanas 
;
_cod_database_code               4519344
_shelx_shelxl_version_number     2018/1
_shelx_space_group_comment
;
The symmetry employed for this shelxl refinement is uniquely defined
by the following loop, which should always be used as a source of
symmetry information in preference to the above space-group names.
They are only intended as comments.
;
_shelx_estimated_absorpt_t_max   0.958
_shelx_estimated_absorpt_t_min   0.955
_olex2_refinement_description
;
1. Fixed Uiso
 At 1.2 times of:
  All C(H) groups, All C(H,H) groups
 At 1.5 times of:
  All C(H,H,H) groups
2. Restrained distances
 N1-H1B = N1-H1A = O2-H2
 0.95 with sigma of 0.02
3.a Ternary CH refined with riding coordinates:
 C9(H9), C10(H10)
3.b Secondary CH2 refined with riding coordinates:
 C11(H11A,H11B), C12(H12A,H12B)
3.c Aromatic/amide H refined with riding coordinates:
 C2(H2A), C3(H3), C4(H4), C5(H5)
3.d Idealised Me refined as rotating group:
 C13(H13A,H13B,H13C)
;
_shelx_res_file
;
TITL nih35_a.res in P2(1)
    nih35.res
    created by SHELXL-2018/1 at 16:26:26 on 19-Dec-2017
REM Old TITL NIH35 in P2(1)
REM SHELXT solution in P2(1)
REM R1 0.081, Rweak 0.032, Alpha 0.002, Orientation as input
REM Flack x = -0.014 ( 0.025 ) from Parsons' quotients
REM Formula found by SHELXT: C13 N O2 Cl
CELL 0.71073 6.5842 11.023 8.603 90 101.266 90
ZERR 2 0.0009 0.0014 0.0012 0 0.004 0
LATT -1
SYMM -X,0.5+Y,-Z
SFAC C H Cl N O
UNIT 26 32 2 2 4
EQIV $1 2-X,0.5+Y,1-Z
DFIX 0.95 N1 H1b N1 H1a O2 H2

L.S. 10
PLAN  20
SIZE 0.153 0.147 0.144
TEMP -173.15
HTAB O2 N1_$1
BOND $H
list 4
fmap 2
ACTA 50
REM <olex2.extras>
REM <HklSrc "%.\\NIH35.hkl">
REM </olex2.extras>

WGHT    0.028300    0.140800
FVAR       1.41209
CL1   3    0.856876    0.676320    0.227378    11.00000    0.02570    0.02064 =
         0.02847    0.00578   -0.00062   -0.00963
O1    5    1.054358    0.539558    0.553125    11.00000    0.01637    0.02442 =
         0.02431   -0.00238    0.00001   -0.00447
O2    5    0.788372    0.666560    0.701887    11.00000    0.03400    0.01512 =
         0.02228   -0.00531    0.01082   -0.00658
H2    2    0.886278    0.711325    0.668679    11.00000    0.05026
N1    4    0.960904    0.376868    0.315057    11.00000    0.01490    0.02023 =
         0.02092   -0.00301    0.00538    0.00311
H1A   2    1.066209    0.430529    0.340371    11.00000    0.05317
H1B   2    0.927869    0.384585    0.205599    11.00000    0.07254
C1    1    0.637466    0.586117    0.171448    11.00000    0.01566    0.01704 =
         0.01605   -0.00253    0.00388   -0.00200
C2    1    0.487820    0.628350    0.045462    11.00000    0.02563    0.01712 =
         0.01820    0.00322    0.00652    0.00339
AFIX  43
H2A   2    0.505092    0.704502   -0.002009    11.00000   -1.20000
AFIX   0
C3    1    0.313984    0.558583   -0.009946    11.00000    0.01844    0.03048 =
         0.01452    0.00212    0.00164    0.00684
AFIX  43
H3    2    0.210285    0.586501   -0.095137    11.00000   -1.20000
AFIX   0
C4    1    0.293346    0.447490    0.060566    11.00000    0.01542    0.02628 =
         0.01624   -0.00459    0.00229   -0.00182
AFIX  43
H4    2    0.176304    0.398055    0.021520    11.00000   -1.20000
AFIX   0
C5    1    0.441777    0.407597    0.187639    11.00000    0.01761    0.01790 =
         0.01328   -0.00269    0.00469   -0.00109
AFIX  43
H5    2    0.422923    0.331574    0.234875    11.00000   -1.20000
AFIX   0
C6    1    0.618142    0.476042    0.248083    11.00000    0.01457    0.01578 =
         0.01285   -0.00217    0.00448    0.00205
C7    1    0.787019    0.425524    0.381459    11.00000    0.01359    0.01292 =
         0.01593   -0.00088    0.00279    0.00089
C8    1    0.871247    0.519856    0.510936    11.00000    0.01728    0.01180 =
         0.01540    0.00305    0.00219   -0.00164
C9    1    0.709146    0.574258    0.593675    11.00000    0.01911    0.01309 =
         0.01517   -0.00224    0.00150    0.00169
AFIX  13
H9    2    0.595242    0.608985    0.511666    11.00000   -1.20000
AFIX   0
C10   1    0.618449    0.472341    0.682978    11.00000    0.01402    0.01903 =
         0.01535   -0.00003    0.00432    0.00027
AFIX  13
H10   2    0.496716    0.506246    0.722006    11.00000   -1.20000
AFIX   0
C11   1    0.541156    0.368798    0.568214    11.00000    0.01675    0.01889 =
         0.01548    0.00004    0.00262   -0.00348
AFIX  23
H11A  2    0.418048    0.396768    0.491328    11.00000   -1.20000
H11B  2    0.497644    0.300284    0.628561    11.00000   -1.20000
AFIX   0
C12   1    0.704747    0.323642    0.477072    11.00000    0.01660    0.01413 =
         0.01624    0.00147    0.00123   -0.00092
AFIX  23
H12A  2    0.643789    0.258459    0.403355    11.00000   -1.20000
H12B  2    0.822287    0.288416    0.553142    11.00000   -1.20000
AFIX   0
C13   1    0.776905    0.429585    0.826891    11.00000    0.02271    0.02055 =
         0.01606    0.00205    0.00167   -0.00224
AFIX 137
H13A  2    0.898712    0.396822    0.791670    11.00000   -1.50000
H13B  2    0.715015    0.366311    0.882796    11.00000   -1.50000
H13C  2    0.818527    0.498223    0.898429    11.00000   -1.50000
AFIX   0
HKLF 4




REM  nih35_a.res in P2(1)
REM R1 =  0.0270 for    2390 Fo > 4sig(Fo)  and  0.0298 for all    2512 data
REM    167 parameters refined using      4 restraints

END

WGHT      0.0283      0.1408

REM Highest difference peak  0.213,  deepest hole -0.157,  1-sigma level  0.036
Q1    1   0.6726  0.5180  0.6473  11.00000  0.05    0.21
Q2    1   0.6892  0.4512  0.7436  11.00000  0.05    0.19
Q3    1   0.8249  0.4772  0.4364  11.00000  0.05    0.17
Q4    1   0.7317  0.3747  0.4204  11.00000  0.05    0.16
Q5    1   0.7906  0.5574  0.5244  11.00000  0.05    0.15
Q6    1   0.7045  0.4590  0.3133  11.00000  0.05    0.15
Q7    1   0.3515  0.4433  0.1414  11.00000  0.05    0.15
Q8    1   0.5666  0.4264  0.6294  11.00000  0.05    0.14
Q9    1   0.4218  0.5772  0.0184  11.00000  0.05    0.14
Q10   1   0.3868  0.6082  0.0524  11.00000  0.05    0.13
Q11   1   0.7483  0.6224  0.6387  11.00000  0.05    0.13
Q12   1   0.7163  0.2456  0.4195  11.00000  0.05    0.13
Q13   1   0.5412  0.6202  0.1214  11.00000  0.05    0.13
Q14   1   0.3966  0.3807  0.2365  11.00000  0.05    0.13
Q15   1   0.6643  0.5173  0.1983  11.00000  0.05    0.12
Q16   1   0.4957  0.4586  0.2538  11.00000  0.05    0.12
Q17   1   0.8538  0.3125  0.5458  11.00000  0.05    0.12
Q18   1   0.8128  0.7656  0.1884  11.00000  0.05    0.12
Q19   1   1.0510  0.3986  0.7698  11.00000  0.05    0.12
Q20   1   0.5744  0.5384  0.2527  11.00000  0.05    0.12
;
_shelx_res_checksum              18025
_shelx_hkl_file
;
  -1   0   0  106.09    8.50
  -1   0   0  121.49    8.20
  -1   0   0  127.79    8.90
   1   0   0  136.59    9.20
   1   0   0  125.19    8.50
   1   0   0  115.69    8.50
   1   0   0  120.49    8.60
   1   0   0  121.19    8.80
   1   0   0  109.29    8.20
   1   0   0  125.89    8.90
  -1   0   0  107.89    8.90
  -1   0   0  111.89    8.90
  -1   0   0  110.69    8.10
  -1   0   0  114.79    8.90
   2   0   0  502.45   30.60
   2   0   0  508.45   31.90
   2   0   0  471.05   30.20
   2   0   0  479.15   29.60
   2   0   0  485.05   30.10
  -2   0   0  493.45   30.00
  -2   0   0  503.95   30.20
  -2   0   0  453.65   30.40
  -2   0   0  475.05   29.20
  -2   0   0  457.95   29.80
   2   0   0  486.95   30.40
   2   0   0  475.15   29.30
   2   0   0  439.76   29.50
   2   0   0  461.85   29.40
  -2   0   0  440.26   30.00
  -2   0   0  556.94   29.90
   3   0   0  273.57   18.50
   3   0   0  216.28   19.50
   3   0   0  204.98   17.90
   3   0   0  205.38   17.80
   3   0   0  253.07   17.80
   3   0   0  219.58   18.90
  -3   0   0  214.78   18.00
  -3   0   0  221.08   16.90
  -3   0   0  227.48   18.80
  -3   0   0  241.28   19.10
  -3   0   0  255.27   19.70
  -3   0   0  214.18   16.90
  -3   0   0  232.68   17.90
   3   0   0  213.58   17.80
   3   0   0  213.28   17.30
   3   0   0  242.08   19.40
  -4   0   0   61.69    9.80
  -4   0   0   60.99    9.50
  -4   0   0   61.49   10.70
  -4   0   0   48.00    9.70
   4   0   0   66.19   10.10
   4   0   0   58.89    9.40
   4   0   0   85.89   12.00
   4   0   0   47.70   11.60
   4   0   0   62.39    9.60
   4   0   0   51.29    9.70
  -4   0   0   65.99   10.90
   5   0   0   27.40    7.80
   5   0   0   13.70    4.40
   5   0   0   19.20    9.30
  -5   0   0   12.50    6.50
   5   0   0   12.10    9.60
  -5   0   0   14.80    7.50
   5   0   0   17.10    4.30
   5   0   0    1.40    5.70
   5   0   0   18.50    6.90
  -5   0   0   17.90    8.70
   5   0   0   14.60    5.90
  -6   0   0   53.99   12.80
  -6   0   0   74.99   15.70
   6   0   0   78.79   12.90
   6   0   0   74.59   13.50
   6   0   0   77.09   15.70
   6   0   0   54.79   11.50
  -6   0   0   49.90   12.70
   6   0   0   63.19   16.50
  -7   0   0   30.20   10.70
   7   0   0   37.20    9.90
   7   0   0   54.49   14.90
  -7   0   0   44.30   14.40
   7   0   0   37.40   13.40
  -7   0   0   51.49   13.00
   7   0   0   36.00   12.60
   8   0   0   -4.70    7.80
  -8   0   0    1.20   11.60
  -8   0   0   -4.40    8.00
  -8   0   0   -4.00    8.40
   8   0   0   -3.40    7.50
   0  -1   0    0.20    0.50
   0  -1   0   -1.90    1.00
   0  -1   0    0.20    1.00
   0  -1   0    0.10    0.70
   0  -1   0    0.60    0.80
   0   1   0    1.90    1.00
   0   1   0   -2.20    1.30
   0   1   0   -1.30    1.00
   0   1   0    0.90    1.10
   0   1   0   -0.30    1.80
   0   1   0   -1.50    1.20
   0   1   0   -2.70    1.20
   1  -1   0 6323.57  359.36
   1  -1   0 6299.07  359.76
   1  -1   0 6619.34  358.76
   1  -1   0 6410.66  360.26
   1  -1   0 6540.85  358.96
  -1  -1   0 6703.83  359.46
   1  -1   0 7359.36  358.26
   1  -1   0 6817.32  359.46
  -1  -1   0 6778.62  358.66
  -1  -1   0 6501.05  359.06
  -1  -1   0 6467.25  358.86
  -1  -1   0 7073.79  359.46
  -1  -1   0 6497.35  358.96
   1  -1   0 7204.28  358.86
  -1  -1   0 6545.65  358.66
   1   1   0 6528.75  358.96
  -1   1   0 6550.15  359.36
   1   1   0 6476.65  358.76
  -1   1   0 6448.35  359.76
   1   1   0 6816.42  359.26
  -1   1   0 6543.54  360.26
  -1   1   0 7375.26  358.96
   1   1   0 6389.26  358.86
   1   1   0 7106.29  358.76
  -1   1   0 6876.81  358.46
   1   1   0 6614.64  359.36
   1   1   0 6997.80  359.46
  -1   1   0 6391.46  359.26
  -1   1   0 6191.78  358.66
   1   1   0 6324.87  359.06
  -2  -1   0 1119.19   54.89
  -2  -1   0  937.41   51.69
  -2  -1   0  884.91   53.59
   2  -1   0 1037.70   54.89
  -2  -1   0 1000.10   53.39
  -2  -1   0  928.61   54.29
   2  -1   0  879.31   52.29
   2  -1   0  901.71   53.79
   2  -1   0  899.01   52.59
  -2  -1   0  870.51   52.69
  -2  -1   0  859.21   53.29
   2  -1   0  862.21   55.29
   2  -1   0  875.81   53.29
   2  -1   0  901.01   53.59
  -2  -1   0  867.21   53.29
   2  -1   0  900.91   53.39
   2   1   0  926.81   53.59
   2   1   0  894.61   52.89
  -2   1   0 1049.09   54.79
   2   1   0  915.31   53.59
  -2   1   0  885.61   53.79
  -2   1   0  953.00   53.19
   2   1   0  891.11   53.69
   2   1   0  916.01   51.79
  -2   1   0  926.71   53.49
   2   1   0  879.71   53.79
   2   1   0  937.81   54.19
  -2   1   0  896.91   52.29
  -2   1   0  900.31   55.09
  -2   1   0  845.72   53.09
  -2   1   0 1002.90   53.99
   3  -1   0   22.40    5.40
   3  -1   0   32.00    7.40
  -3  -1   0   32.50    7.80
  -3  -1   0   32.90    6.80
  -3  -1   0   35.70    8.00
  -3  -1   0   29.30    7.00
  -3  -1   0   24.30    6.10
  -3  -1   0   23.40    5.70
  -3  -1   0   27.40    6.50
   3  -1   0   31.00    6.60
   3  -1   0   15.70    5.30
   3  -1   0   21.80    5.40
  -3  -1   0   26.90    5.30
   3  -1   0   26.30    6.30
   3  -1   0   28.90    3.10
   3  -1   0   16.00    6.50
   3  -1   0   22.50    6.80
   3  -1   0   25.90    7.30
  -3   1   0   32.20    5.70
  -3   1   0   33.00    6.40
  -3   1   0   37.20    7.60
  -3   1   0   11.30    5.80
  -3   1   0   27.60    6.50
  -3   1   0   30.60    6.50
   3   1   0   26.40    6.40
   3   1   0   29.00    5.20
   3   1   0   34.00    7.40
   3   1   0   16.50    7.00
   3   1   0   35.50    7.00
  -3   1   0   24.30    5.90
   3   1   0   25.40    6.30
   3   1   0   33.80    6.60
   4  -1   0  791.92   52.99
   4  -1   0  830.32   53.19
   4  -1   0  773.92   52.69
   4  -1   0  924.31   57.49
  -4  -1   0  789.02   53.29
  -4  -1   0  754.72   53.39
  -4  -1   0  863.41   50.49
  -4  -1   0  805.02   52.39
   4  -1   0  991.80   52.29
   4  -1   0  848.52   46.50
   4  -1   0  810.62   46.50
   4   1   0  831.22   50.69
  -4   1   0  776.02   52.09
   4   1   0  816.32   51.99
   4   1   0  811.42   53.59
   4   1   0  770.52   52.49
  -4   1   0  805.42   53.09
   4   1   0  857.71   51.99
  -4   1   0  988.70   54.99
  -4   1   0  908.41   53.49
  -4   1   0  810.62   53.39
   5  -1   0  768.32   54.29
   5  -1   0  973.20   61.39
   5  -1   0  796.42   55.59
  -5  -1   0  884.11   52.49
  -5  -1   0  746.23   55.29
   5  -1   0  803.82   52.69
  -5  -1   0  813.32   56.79
  -5  -1   0  856.71   55.49
   5  -1   0  856.41   46.60
   5  -1   0  848.92   46.70
   5  -1   0  917.01   56.99
   5   1   0  877.11   53.99
  -5   1   0  840.52   55.89
  -5   1   0  744.63   54.99
   5   1   0  834.72   58.89
   5   1   0  849.72   56.39
   5   1   0  780.82   55.19
   5   1   0  879.21   52.79
   5   1   0  782.92   53.59
  -5   1   0  938.51   56.09
   6  -1   0  184.08   23.50
  -6  -1   0  180.98   23.80
   6  -1   0  245.58   21.60
   6  -1   0  216.28   29.20
  -6  -1   0  163.08   22.60
   6  -1   0  218.88   24.10
  -6  -1   0  196.48   23.00
   6   1   0  243.58   24.30
   6   1   0  237.48   25.70
  -6   1   0  216.68   25.60
  -6   1   0  267.37   26.50
  -6   1   0  202.38   23.70
   6   1   0  229.08   18.30
   6   1   0  168.28   21.00
   6   1   0  229.68   28.00
   6   1   0  167.28   23.20
  -7  -1   0  130.29   20.00
  -7  -1   0  139.79   23.60
   7  -1   0  180.68   20.60
  -7  -1   0  135.09   22.20
   7  -1   0  171.18   24.20
   7  -1   0  164.78   28.10
   7   1   0  189.78   25.90
   7   1   0  190.58   25.20
  -7   1   0  168.28   23.30
   7   1   0  177.58   26.60
  -7   1   0  174.78   22.70
  -7   1   0  223.58   28.20
   7   1   0  152.58   20.20
   8  -1   0   41.10   18.00
   8  -1   0   24.80   12.00
  -8  -1   0   57.99   15.70
  -8  -1   0   38.10   13.20
  -8  -1   0   37.60   14.30
   8  -1   0   43.90   12.60
   8   1   0   46.40   12.60
  -8   1   0   32.50   14.80
  -8   1   0   61.99   14.70
   8   1   0   14.30   12.10
  -8   1   0   25.10   12.40
   8   1   0    3.90   11.90
   8   1   0   47.00   17.90
   0  -2   0 4975.20  277.07
   0  -2   0 5874.91  277.67
   0  -2   0 4845.62  275.57
   0  -2   0 5098.39  277.17
   0  -2   0 5159.18  278.17
   0   2   0 5171.38  278.07
   0   2   0 5230.58  277.37
   0   2   0 5144.29  277.17
   0   2   0 5100.39  278.07
   0   2   0 5216.98  276.37
   0   2   0 4938.21  276.97
   0   2   0 4972.80  277.07
   0   2   0 4972.70  276.37
   0   2   0 5090.59  276.27
   1  -2   0  713.73   43.90
  -1  -2   0  730.23   41.20
  -1  -2   0  730.13   42.20
   1  -2   0  831.72   43.50
   1  -2   0  687.73   43.30
  -1  -2   0  721.03   42.30
  -1  -2   0  733.13   40.90
  -1  -2   0  814.52   41.30
  -1  -2   0  713.03   41.70
   1  -2   0  692.83   42.10
   1  -2   0  719.43   40.50
  -1  -2   0  726.53   40.70
  -1  -2   0  674.83   41.40
  -1  -2   0  708.63   41.40
  -1   2   0  690.43   42.90
   1   2   0  688.03   41.00
  -1   2   0  718.43   42.60
  -1   2   0  719.13   40.50
  -1   2   0  743.23   39.60
   1   2   0  705.13   40.90
   1   2   0  726.83   42.10
   1   2   0  734.73   41.30
  -1   2   0  720.23   43.00
  -1   2   0  668.33   42.00
  -1   2   0  770.12   40.70
   1   2   0  708.73   41.90
   1   2   0  760.32   41.70
  -1   2   0  734.03   43.90
   1   2   0  684.03   41.60
  -1   2   0  740.73   39.60
  -2  -2   0  278.57   20.20
  -2  -2   0  289.97   19.90
   2  -2   0  288.77   21.40
   2  -2   0  295.27   21.00
   2  -2   0  292.87   20.90
   2  -2   0  288.87   22.20
  -2  -2   0  247.08   19.40
   2  -2   0  280.97   17.70
  -2  -2   0  275.47   19.10
  -2  -2   0  292.97   20.80
  -2  -2   0  288.17   20.80
  -2  -2   0  274.07   19.10
   2  -2   0  279.87   19.10
   2  -2   0  265.87   19.30
   2  -2   0  317.37   18.10
   2   2   0  292.87   19.20
  -2   2   0  265.47   18.40
   2   2   0  290.27   16.90
  -2   2   0  272.27   20.60
  -2   2   0  287.17   19.60
  -2   2   0  279.67   21.50
  -2   2   0  285.27   19.20
   2   2   0  312.37   20.00
   2   2   0  287.47   20.70
   2   2   0  287.47   19.60
   2   2   0  321.27   20.50
  -2   2   0  283.97   18.30
   2   2   0  334.77   21.30
  -2   2   0  260.67   19.50
  -2   2   0  304.17   22.70
   2   2   0  291.37   20.60
  -2   2   0  314.27   19.20
   3  -2   0 1599.14   94.19
  -3  -2   0 1495.35   91.19
  -3  -2   0 1560.54   92.69
   3  -2   0 1455.15   95.29
  -3  -2   0 1560.84   91.49
   3  -2   0 1468.25   91.79
  -3  -2   0 1530.65   93.09
   3  -2   0 1579.64   90.39
  -3  -2   0 1592.34   93.19
   3  -2   0 1809.72   94.79
  -3  -2   0 1520.65   92.09
   3  -2   0 1523.55   90.09
  -3   2   0 1770.12   92.19
  -3   2   0 1487.45   92.69
  -3   2   0 1610.44   93.99
   3   2   0 1580.24   93.49
   3   2   0 1750.62   94.19
  -3   2   0 1498.45   92.09
  -3   2   0 1610.24   90.79
   3   2   0 1553.34   92.69
   3   2   0 1558.44   91.89
  -3   2   0 1862.41   93.09
   3   2   0 1586.24   89.09
  -3   2   0 1948.91   95.79
   3   2   0 1826.92   93.29
   4  -2   0  434.06   36.50
   4  -2   0  496.75   31.70
   4  -2   0  534.85   36.10
   4  -2   0  492.55   35.70
  -4  -2   0  417.56   33.30
   4  -2   0  525.85   32.00
   4  -2   0  492.65   34.20
  -4  -2   0  430.16   34.50
  -4  -2   0  488.25   34.00
  -4  -2   0  493.15   33.10
  -4   2   0  443.96   33.00
   4   2   0  465.45   32.90
   4   2   0  469.05   30.10
   4   2   0  452.55   34.30
   4   2   0  550.44   36.30
  -4   2   0  509.05   34.70
  -4   2   0  449.76   34.00
  -4   2   0  529.25   34.60
  -5  -2   0  150.18   19.20
  -5  -2   0  127.19   18.80
  -5  -2   0  155.98   18.60
   5  -2   0  150.38   20.20
   5  -2   0  125.19   21.00
   5  -2   0  149.09   17.70
   5  -2   0  145.49   15.80
   5  -2   0  159.58   19.80
  -5   2   0  154.18   19.00
  -5   2   0  137.89   19.70
  -5   2   0  131.79   17.40
   5   2   0  149.69   13.20
   5   2   0  123.69   16.10
   5   2   0  152.98   19.60
   5   2   0  119.59   16.00
   5   2   0  146.29   18.60
  -5   2   0  135.49   17.20
   6  -2   0  245.78   29.50
  -6  -2   0  316.07   28.00
   6  -2   0  286.77   34.60
   6  -2   0  389.86   31.00
  -6  -2   0  250.47   29.20
   6  -2   0  284.07   28.20
   6  -2   0  250.67   23.90
  -6  -2   0  339.47   30.00
   6   2   0  316.77   26.90
  -6   2   0  284.17   28.20
   6   2   0  284.57   27.00
   6   2   0  346.27   33.00
   6   2   0  312.07   28.10
  -6   2   0  294.07   28.00
  -6   2   0  286.47   27.50
   6   2   0  309.97   28.90
   6   2   0  304.17   24.10
   7  -2   0   57.29   18.50
  -7  -2   0  120.79   21.30
  -7  -2   0   74.09   15.90
   7  -2   0   92.99   14.70
  -7  -2   0  113.19   20.70
   7  -2   0   77.59   16.50
  -7   2   0   92.39   18.10
   7   2   0  105.09   16.40
   7   2   0  125.99   19.80
  -7   2   0   79.49   16.20
   7   2   0   90.89   17.80
  -7   2   0  109.69   17.60
   7   2   0   98.99   15.80
   7   2   0   89.69   18.60
   0  -3   0   10.50    5.60
   0  -3   0   -0.10    3.30
   0  -3   0    1.80    3.60
   0  -3   0    0.50    0.90
   0  -3   0    2.70    3.60
   0  -3   0   -1.30    0.90
   0   3   0    0.50    1.30
   0   3   0    3.20    3.60
   0   3   0   -1.70    2.10
   0   3   0    0.80    1.10
   0   3   0    0.10    2.50
   0   3   0    3.10    3.70
   0   3   0   -0.50    3.20
   0   3   0    0.10    2.30
   0   3   0    3.50    4.40
   1  -3   0 2415.66  132.29
   1  -3   0 2280.87  136.29
   1  -3   0 2442.96  137.49
  -1  -3   0 2313.87  134.09
  -1  -3   0 2312.27  135.39
  -1  -3   0 2436.66  135.19
   1  -3   0 2418.96  132.29
  -1  -3   0 2421.66  133.99
   1  -3   0 2439.96  136.89
  -1  -3   0 2409.26  134.19
  -1  -3   0 2711.33  134.49
  -1  -3   0 2624.34  132.59
  -1  -3   0 2512.05  132.49
  -1   3   0 2352.66  135.09
   1   3   0 2504.65  134.39
   1   3   0 2443.96  133.39
   1   3   0 2379.36  134.99
   1   3   0 2464.75  135.49
   1   3   0 2748.63  133.79
  -1   3   0 2360.86  132.59
   1   3   0 2338.37  133.89
  -1   3   0 2397.86  136.59
   1   3   0 2557.64  133.39
   1   3   0 2453.15  134.39
  -1   3   0 2454.85  136.19
   1   3   0 2428.36  134.19
  -1   3   0 2409.86  134.99
  -1   3   0 2385.76  136.29
  -1   3   0 2457.25  132.59
   1   3   0 2468.95  134.19
  -2  -3   0 2976.60  153.28
   2  -3   0 2704.03  155.68
   2  -3   0 2604.04  156.38
  -2  -3   0 2635.34  152.48
   2  -3   0 2719.03  152.48
   2  -3   0 2675.93  154.88
  -2  -3   0 2648.44  154.98
  -2  -3   0 2909.31  154.88
  -2  -3   0 2773.92  153.18
  -2  -3   0 2651.53  154.28
  -2  -3   0 3135.29  154.98
   2  -3   0 2808.32  152.78
  -2  -3   0 3133.59  154.58
   2  -3   0 2730.23  157.48
  -2   3   0 2658.03  156.18
  -2   3   0 2670.33  154.58
  -2   3   0 2841.62  151.08
  -2   3   0 2776.42  151.78
  -2   3   0 2780.62  155.28
  -2   3   0 3040.40  157.88
  -2   3   0 2646.14  152.78
  -2   3   0 2778.82  151.98
   2   3   0 2970.70  154.08
   2   3   0 2959.40  153.18
   2   3   0 2718.03  153.28
  -2   3   0 2621.24  152.58
  -2   3   0 2770.72  156.38
   2   3   0 2790.92  154.58
   2   3   0 2742.23  153.78
   2   3   0 2848.31  154.88
   2   3   0 2597.44  154.18
   3  -3   0   30.60    8.40
  -3  -3   0   33.70    7.60
   3  -3   0   37.20    8.20
   3  -3   0   28.50    4.60
  -3  -3   0   27.40    6.10
   3  -3   0   25.20    4.20
   3  -3   0   34.20    8.50
   3  -3   0   28.20    6.10
  -3  -3   0   21.90    5.30
  -3  -3   0   33.70    6.60
  -3  -3   0   18.00    6.50
   3   3   0   32.10    7.70
  -3   3   0   28.90    6.20
   3   3   0   25.20    6.70
  -3   3   0   40.30    7.10
  -3   3   0   24.20    5.10
  -3   3   0   29.90    5.70
   3   3   0   31.60    7.30
   3   3   0   27.70    7.40
   3   3   0   25.10    7.60
   3   3   0   37.50    3.60
  -3   3   0   27.90    6.60
  -3   3   0   32.30    7.00
   4  -3   0   80.79   14.20
  -4  -3   0   90.79   13.00
   4  -3   0   88.39   14.00
   4  -3   0   86.79    9.80
  -4  -3   0   96.49   13.80
   4  -3   0   94.59   10.10
   4  -3   0   89.39   12.50
  -4  -3   0   90.09   12.70
   4  -3   0  117.19   18.10
  -4  -3   0  118.39   13.70
   4   3   0   92.99   14.30
   4   3   0   70.89   12.20
  -4   3   0  102.79   13.80
  -4   3   0   96.39   13.10
  -4   3   0  104.59   13.30
   4   3   0   92.59    7.80
  -4   3   0  115.79   13.40
   4   3   0   88.29   12.40
   5  -3   0   86.69   18.10
  -5  -3   0   79.29   15.20
   5  -3   0  102.89   15.10
   5  -3   0   89.59   11.60
   5  -3   0   81.19   15.50
  -5  -3   0  109.39   15.20
   5  -3   0  107.19   17.00
   5  -3   0  104.49   12.20
  -5  -3   0   99.39   15.60
   5   3   0   69.19   13.10
   5   3   0   85.09   14.70
  -5   3   0   69.39   13.20
   5   3   0   80.29   13.50
  -5   3   0   78.39   13.10
  -5   3   0   92.89   14.40
  -5   3   0   78.09   13.20
   5   3   0   75.49   13.00
   6  -3   0  490.75   43.20
  -6  -3   0  385.76   34.20
  -6  -3   0  504.65   38.00
   6  -3   0  445.76   30.80
   6  -3   0  425.66   35.20
   6  -3   0  403.86   36.70
   6  -3   0  417.86   37.10
  -6  -3   0  366.96   33.90
  -6   3   0  423.56   35.50
   6   3   0  420.26   32.60
   6   3   0  434.76   34.80
   6   3   0  415.26   35.80
  -6   3   0  403.86   33.50
  -6   3   0  456.55   37.10
   6   3   0  395.86   34.70
   6   3   0  429.06   34.20
   7  -3   0  201.78   28.20
  -7  -3   0  230.58   28.00
   7  -3   0  210.38   32.80
  -7  -3   0  305.67   32.50
  -7  -3   0  219.68   28.50
   7   3   0  238.28   29.50
  -7   3   0  270.47   29.90
   7   3   0  306.67   30.30
  -7   3   0  202.68   27.00
   7   3   0  297.27   29.70
   7   3   0  232.48   29.90
   7   3   0  229.48   31.50
  -7   3   0  318.37   31.90
   0  -4   0 3535.65  173.78
   0  -4   0 3551.64  175.98
   0  -4   0 2995.10  168.78
   0  -4   0 3151.18  168.78
   0  -4   0 3058.49  172.88
   0   4   0 2950.90  172.88
   0   4   0 2888.11  169.18
   0   4   0 3072.29  172.78
   0   4   0 3029.00  172.88
   0   4   0 3261.07  173.48
   0   4   0 3087.49  174.78
   0   4   0 3449.46  175.48
   0   4   0 2995.90  169.38
   0   4   0 3054.79  172.68
  -1  -4   0  196.48   16.30
  -1  -4   0  179.68   13.80
  -1  -4   0  191.98   14.80
  -1  -4   0  173.68   16.10
   1  -4   0  190.28   17.90
  -1  -4   0  218.68   14.40
   1  -4   0  180.48   17.30
  -1  -4   0  183.18   14.70
   1  -4   0  184.48   17.60
  -1   4   0  190.48   16.50
  -1   4   0  205.68   15.80
   1   4   0  220.48   13.60
  -1   4   0  247.08   19.40
  -1   4   0  218.68   17.40
   1   4   0  209.18   14.90
  -1   4   0  203.58   12.10
   1   4   0  195.68   13.20
   1   4   0  230.08   16.70
   1   4   0  213.38   14.70
   1   4   0  214.48   15.20
   1   4   0  203.18   16.30
  -1   4   0  220.68   16.40
   1   4   0  204.58   14.40
  -1   4   0  200.18   12.20
  -1   4   0  207.88   17.60
   1   4   0  227.58   15.10
   1   4   0  187.78   14.30
  -2  -4   0  519.35   31.10
  -2  -4   0  471.75   30.40
  -2  -4   0  474.95   28.30
  -2  -4   0  425.76   31.10
  -2  -4   0  524.75   32.70
   2  -4   0  431.66   27.90
   2  -4   0  445.36   33.00
  -2  -4   0  458.65   29.30
  -2  -4   0  459.55   29.50
   2  -4   0  431.06   31.30
  -2  -4   0  423.56   29.70
  -2  -4   0  435.86   28.40
   2  -4   0  431.66   32.60
   2  -4   0  398.06   33.10
   2  -4   0  448.76   28.00
  -2   4   0  492.25   28.60
  -2   4   0  447.56   33.20
   2   4   0  447.46   30.50
  -2   4   0  495.75   34.00
   2   4   0  460.75   30.90
  -2   4   0  460.85   34.10
   2   4   0  491.15   30.90
   2   4   0  463.35   29.50
   2   4   0  451.15   29.20
   2   4   0  535.05   31.00
   2   4   0  480.35   27.00
  -2   4   0  514.85   28.90
  -2   4   0  455.95   27.20
  -2   4   0  481.35   27.40
  -2   4   0  504.55   28.60
   2   4   0  466.95   30.00
  -2   4   0  547.95   32.40
  -2   4   0  441.76   32.00
   3  -4   0 2348.86  138.99
  -3  -4   0 2443.96  138.59
   3  -4   0 2404.36  134.79
  -3  -4   0 2381.16  137.39
  -3  -4   0 2343.67  134.59
   3  -4   0 2410.16  140.39
  -3  -4   0 2370.96  135.39
  -3  -4   0 2314.37  136.29
   3  -4   0 2391.66  141.79
  -3  -4   0 2294.37  134.79
   3   4   0 2680.83  136.69
   3   4   0 2436.56  137.59
  -3   4   0 2237.18  137.09
   3   4   0 2358.76  137.49
  -3   4   0 2590.74  134.29
  -3   4   0 2387.36  130.89
  -3   4   0 2412.36  134.39
   3   4   0 2410.86  134.99
   3   4   0 2767.72  138.59
  -3   4   0 2580.74  133.99
  -3   4   0 2363.46  135.19
  -3   4   0 2272.27  134.59
   4  -4   0  385.56   23.60
   4  -4   0  415.46   35.40
   4  -4   0  373.06   31.90
   4  -4   0  367.06   31.80
  -4  -4   0  413.86   30.40
   4  -4   0  385.96   28.40
   4  -4   0  368.26   23.60
  -4  -4   0  407.16   31.10
  -4  -4   0  417.96   28.50
  -4  -4   0  393.26   29.10
  -4   4   0  383.96   28.20
  -4   4   0  404.56   30.50
  -4   4   0  389.36   29.10
   4   4   0  414.86   31.30
   4   4   0  404.96   29.40
   4   4   0  409.96   31.10
  -4   4   0  409.06   28.50
   5  -4   0  461.85   31.10
  -5  -4   0  382.16   31.60
   5  -4   0  352.96   31.70
  -5  -4   0  375.96   29.90
   5  -4   0  418.26   34.90
   5  -4   0  367.56   35.10
   5  -4   0  399.16   24.80
  -5  -4   0  378.86   31.10
   5   4   0  362.96   29.60
   5   4   0  344.67   30.50
  -5   4   0  288.07   28.40
  -5   4   0  358.46   31.60
  -5   4   0  380.86   29.70
   5   4   0  384.76   31.00
  -5   4   0  345.57   28.90
   6  -4   0   12.10    9.20
  -6  -4   0   19.80   10.50
  -6  -4   0   21.10   10.40
   6  -4   0   11.90   11.20
   6  -4   0   29.30   11.60
   6  -4   0    9.50    4.80
  -6  -4   0   22.20   10.20
  -6   4   0   11.60    8.10
   6   4   0    0.40    6.90
  -6   4   0   22.60    9.40
   6   4   0   16.40    9.20
  -6   4   0    7.00    7.80
   6   4   0   19.60   11.10
   6   4   0    6.80    6.20
   6   4   0    7.40    7.70
   7  -4   0   17.40   11.10
   7  -4   0    8.70   12.20
  -7  -4   0   -6.50    6.30
  -7  -4   0   -2.60    7.20
  -7  -4   0    3.00    8.60
   7   4   0   -3.40    7.00
   7   4   0    2.20    9.50
   7   4   0   -8.80    5.10
  -7   4   0    2.50    5.20
  -7   4   0   -7.00    8.60
  -7   4   0   -5.40    5.70
   7   4   0    6.00    5.20
   7   4   0   14.60   11.60
   0  -5   0    7.00    4.70
   0  -5   0   -1.30    6.10
   0  -5   0    1.20    0.70
   0  -5   0    8.10    3.90
   0   5   0   -1.00    1.20
   0   5   0   -0.90    3.40
   0   5   0    2.80    4.50
   0   5   0    1.90    1.50
   0   5   0    1.40    4.60
   0   5   0   -4.90    3.10
   0   5   0    0.90    5.00
   0   5   0   -1.00    3.80
   0   5   0    0.60    2.90
   1  -5   0 1474.05   80.79
   1  -5   0 1310.77   82.29
  -1  -5   0 1558.74   80.19
   1  -5   0 1293.37   83.59
  -1  -5   0 1352.56   80.59
  -1  -5   0 1373.16   77.69
  -1  -5   0 1296.67   79.39
  -1  -5   0 1471.55   81.69
   1  -5   0 1323.57   82.79
   1   5   0 1480.85   76.89
  -1   5   0 1568.04   82.99
  -1   5   0 1369.36   83.49
  -1   5   0 1423.46   80.79
  -1   5   0 1456.35   82.89
  -1   5   0 1372.36   82.29
   1   5   0 1428.76   79.49
   1   5   0 1370.36   79.49
  -1   5   0 1399.86   75.29
  -1   5   0 1363.66   75.19
   1   5   0 1500.15   81.19
   1   5   0 1322.47   78.29
   1   5   0 1494.85   79.49
   1   5   0 1260.37   82.89
   1   5   0 1310.07   76.89
  -1   5   0 1325.77   79.99
   1   5   0 1316.67   77.89
   1   5   0 1312.37   80.29
   1   5   0 1341.87   78.09
  -2  -5   0  729.53   41.90
   2  -5   0  701.33   41.60
   2  -5   0  731.83   41.90
  -2  -5   0  670.73   46.80
   2  -5   0  727.73   49.10
   2  -5   0  847.02   49.90
   2  -5   0  768.52   41.90
  -2  -5   0  719.83   44.30
  -2  -5   0  726.03   44.90
  -2  -5   0  715.43   44.40
   2  -5   0  853.91   51.79
  -2   5   0  699.33   42.20
  -2   5   0  716.23   42.20
  -2   5   0  721.93   40.80
  -2   5   0  715.23   40.90
   2   5   0  716.23   44.70
  -2   5   0  698.83   46.10
   2   5   0  720.93   45.30
   2   5   0  804.22   44.60
   2   5   0  722.93   42.20
  -2   5   0  719.43   45.80
   2   5   0  856.11   45.10
   2   5   0  756.22   44.00
  -2   5   0  697.93   43.90
   2   5   0  674.53   45.70
   2   5   0  723.03   44.90
  -3  -5   0  129.19   12.70
   3  -5   0  155.08   19.90
  -3  -5   0  130.79   15.30
  -3  -5   0  134.89   12.00
  -3  -5   0  129.19   12.80
  -3  -5   0  131.09   16.00
  -3  -5   0  142.69   15.40
  -3  -5   0  120.69   12.10
   3  -5   0  151.48   18.60
   3  -5   0  118.89   19.00
   3   5   0  156.68   13.20
  -3   5   0  146.39   11.90
   3   5   0  138.19   15.80
  -3   5   0  147.99   16.40
  -3   5   0  135.79   12.50
  -3   5   0  140.09   10.60
  -3   5   0  147.59   12.10
   3   5   0  143.59   16.70
   3   5   0  123.69   13.70
  -3   5   0  132.79   12.20
   3   5   0  158.18   17.10
  -4  -5   0  502.05   32.50
   4  -5   0  470.15   32.10
   4  -5   0  511.65   41.30
   4  -5   0  415.16   36.10
  -4  -5   0  540.45   37.40
  -4  -5   0  453.25   35.20
   4  -5   0  393.56   36.00
  -4  -5   0  437.06   32.30
  -4  -5   0  426.96   33.90
   4   5   0  497.85   36.00
   4   5   0  439.26   37.20
  -4   5   0  466.85   32.20
   4   5   0  506.05   35.90
  -4   5   0  466.35   35.50
   4   5   0  540.45   34.70
  -4   5   0  425.26   31.60
  -4   5   0  508.75   33.40
  -5  -5   0  481.25   38.60
  -5  -5   0  456.45   35.20
  -5  -5   0  490.35   37.60
   5  -5   0  572.74   39.40
   5  -5   0  525.55   41.10
  -5  -5   0  461.15   39.30
   5  -5   0  620.44   47.10
   5  -5   0  464.55   40.70
   5   5   0  446.76   35.30
  -5   5   0  436.96   34.90
   5   5   0  500.85   39.00
  -5   5   0  488.55   35.50
  -5   5   0  474.35   37.60
   5   5   0  482.05   38.30
   6  -5   0  485.55   46.70
   6  -5   0  470.45   42.40
  -6  -5   0  499.95   41.00
  -6  -5   0  452.05   40.40
  -6  -5   0  485.75   39.90
  -6  -5   0  566.64   39.50
   6   5   0  516.75   40.90
   6   5   0  497.15   38.80
   6   5   0  481.85   39.30
   6   5   0  497.95   41.20
  -6   5   0  505.65   38.60
  -6   5   0  478.25   40.00
  -6   5   0  495.85   38.50
  -7  -5   0   49.40   15.20
   7  -5   0   98.29   24.20
  -7  -5   0   72.79   16.20
   7  -5   0   26.80   14.50
  -7  -5   0   43.90   13.50
  -7  -5   0   38.60   15.80
   7   5   0   73.09   14.70
  -7   5   0   47.20   12.40
  -7   5   0   60.79   13.60
  -7   5   0   59.79   16.50
   7   5   0   56.29   12.90
   7   5   0   20.80   13.30
   7   5   0   84.49   16.70
   0  -6   0  594.94   38.20
   0  -6   0  515.85   37.10
   0   6   0  612.54   38.20
   0   6   0  577.84   32.40
   0   6   0  602.74   38.00
   0   6   0  570.54   32.50
   0   6   0  575.04   38.00
   0   6   0  553.44   37.90
   0   6   0  560.74   37.90
  -1  -6   0 1466.05   87.99
   1  -6   0 1426.96   89.49
   1  -6   0 1443.86   90.99
   1  -6   0 1410.36   90.19
  -1  -6   0 1451.25   86.39
  -1  -6   0 1424.76   86.39
  -1  -6   0 1458.25   83.49
   1  -6   0 1401.56   86.99
  -1  -6   0 1434.06   83.59
  -1   6   0 1537.25   87.89
  -1   6   0 1400.76   86.59
   1   6   0 1498.75   86.59
   1   6   0 1394.26   83.89
   1   6   0 1426.26   85.99
   1   6   0 1558.34   83.19
  -1   6   0 1744.43   90.69
   1   6   0 1528.05   86.29
   1   6   0 1553.54   87.79
   1   6   0 1536.35   84.39
   1   6   0 1768.12   95.19
   1   6   0 1638.94   83.09
   1   6   0 1507.75   84.59
   2  -6   0  252.47   25.20
   2  -6   0  253.57   14.90
  -2  -6   0  300.77   23.30
  -2  -6   0  292.67   20.00
   2  -6   0  261.27   23.30
  -2  -6   0  272.87   19.60
  -2  -6   0  228.28   19.00
   2  -6   0  232.48   22.70
   2  -6   0  262.17   14.90
  -2   6   0  230.08   16.10
   2   6   0  230.88   18.70
  -2   6   0  278.67   19.80
   2   6   0  290.77   19.40
   2   6   0  234.88   17.40
  -2   6   0  260.57   14.40
   2   6   0  237.28   19.00
   2   6   0  266.77   21.80
  -2   6   0  229.48   20.60
   2   6   0  245.08   19.70
  -2   6   0  250.77   14.40
   2   6   0  246.68   18.30
   2   6   0  249.78   19.80
  -2   6   0  252.67   16.20
   2   6   0  251.27   20.30
  -3  -6   0  628.94   41.00
   3  -6   0  639.54   47.30
  -3  -6   0  574.74   38.40
  -3  -6   0  616.04   36.90
  -3  -6   0  626.74   36.70
  -3  -6   0  625.34   42.50
   3  -6   0  686.63   37.00
  -3  -6   0  559.34   38.20
   3  -6   0  604.94   43.80
   3  -6   0  599.24   45.00
  -3   6   0  534.25   36.90
  -3   6   0  620.64   36.70
  -3   6   0  590.84   36.20
   3   6   0  615.54   38.50
  -3   6   0  587.34   41.50
  -3   6   0  584.34   36.80
   3   6   0  570.94   39.10
   3   6   0  591.84   33.70
   3   6   0  649.14   41.30
   3   6   0  567.84   41.40
   3   6   0  605.34   41.30
  -3   6   0  613.24   37.30
   3   6   0  609.04   40.80
  -4  -6   0  446.86   30.70
  -4  -6   0  400.56   31.50
  -4  -6   0  503.05   31.30
   4  -6   0  415.26   35.30
  -4  -6   0  427.36   34.60
   4  -6   0  367.36   37.50
   4  -6   0  380.76   35.50
  -4  -6   0  438.86   33.90
  -4  -6   0  458.25   30.30
  -4   6   0  464.85   30.40
   4   6   0  467.65   30.50
   4   6   0  430.06   35.10
   4   6   0  438.86   34.30
  -4   6   0  390.66   29.90
   4   6   0  359.46   31.60
  -4   6   0  472.15   35.00
   4   6   0  472.05   32.60
  -4   6   0  437.66   24.70
   4   6   0  411.36   34.00
  -4   6   0  438.96   30.30
  -4   6   0  410.26   24.60
  -5  -6   0   65.69   12.10
   5  -6   0   53.59   13.60
   5  -6   0   35.60   12.10
  -5  -6   0   61.29   10.50
  -5  -6   0   36.10   10.10
  -5  -6   0   44.50   10.40
   5  -6   0   34.30   12.70
  -5  -6   0   74.09   15.10
   5   6   0   49.30   12.60
  -5   6   0   40.60   10.10
   5   6   0   56.29   11.30
   5   6   0   59.69   14.40
  -5   6   0   56.59   12.20
  -5   6   0   47.20    9.70
  -6  -6   0   73.29   14.20
   6  -6   0   33.20   14.20
  -6  -6   0   58.89   14.80
  -6  -6   0   41.30   10.00
  -6  -6   0   48.20   14.90
   6  -6   0   50.39   18.10
   6   6   0   60.19   15.70
   6   6   0   83.69   15.70
  -6   6   0   51.49   12.40
   6   6   0   52.29   13.50
   6   6   0   31.80   12.80
  -6   6   0   55.59   12.40
  -6   6   0   45.80   12.60
  -7  -6   0  168.48   21.70
  -7  -6   0  146.39   21.80
   7  -6   0  182.48   28.00
   7  -6   0  199.38   34.90
  -7  -6   0  186.28   26.40
   7   6   0  198.18   27.50
   7   6   0  155.18   23.10
   7   6   0  139.89   21.20
   7   6   0  178.88   23.90
  -7   6   0  154.78   22.50
   7   6   0  147.09   22.50
  -7   6   0  146.09   22.90
   0  -7   0    1.30    4.50
   0  -7   0    6.60    4.40
   0   7   0    4.10    3.90
   0   7   0    4.50    3.90
   0   7   0    4.50    1.90
   0   7   0    6.40    1.80
   1  -7   0  168.28   20.80
   1  -7   0  132.69   19.10
  -1  -7   0  154.78   12.20
  -1  -7   0  139.89   15.20
   1  -7   0  148.09   16.80
  -1  -7   0  206.18   20.20
   1   7   0  146.79   12.80
   1   7   0  179.58   18.30
   1   7   0  172.38   15.70
   1   7   0  167.08   13.30
   1   7   0  170.18   12.10
   1   7   0  195.38   16.40
   1   7   0  172.68   11.90
  -1   7   0  180.88   16.30
   1   7   0  173.68   15.70
  -1   7   0  187.38   20.20
  -2  -7   0 1633.04   92.59
  -2  -7   0 1746.63   94.09
   2  -7   0 1599.74   99.19
  -2  -7   0 1561.84   93.09
  -2  -7   0 1584.24   96.79
   2  -7   0 1485.55   98.39
   2  -7   0 1581.34  100.69
  -2   7   0 1597.54   95.39
   2   7   0 1742.43   96.29
  -2   7   0 1638.34   88.49
   2   7   0 1668.63   93.79
   2   7   0 1613.04   92.89
  -2   7   0 1542.65   88.29
  -2   7   0 1650.63   94.09
   2   7   0 1650.33   93.29
   2   7   0 1583.54   91.59
   2   7   0 1547.25   92.89
   2   7   0 1592.44   91.59
   3  -7   0  359.26   31.80
   3  -7   0  372.76   31.70
  -3  -7   0  364.96   25.60
  -3  -7   0  320.47   26.30
  -3  -7   0  354.66   25.40
  -3  -7   0  334.37   28.60
   3  -7   0  372.26   21.70
  -3  -7   0  315.47   20.70
   3  -7   0  334.57   32.30
   3   7   0  344.37   27.30
   3   7   0  340.57   27.70
  -3   7   0  347.07   22.50
  -3   7   0  363.56   28.70
   3   7   0  331.17   28.30
   3   7   0  348.77   27.00
   3   7   0  328.87   25.40
  -3   7   0  364.06   22.40
  -3   7   0  354.46   22.90
  -3   7   0  328.27   24.10
  -3   7   0  318.17   22.70
   3   7   0  330.37   24.80
   3   7   0  342.57   21.00
   4  -7   0  254.17   29.60
  -4  -7   0  255.47   21.10
   4  -7   0  249.97   28.20
   4  -7   0  226.38   29.70
  -4  -7   0  235.78   19.10
  -4  -7   0  253.67   28.00
  -4  -7   0  255.37   23.70
   4   7   0  208.18   24.90
  -4   7   0  260.97   20.00
   4   7   0  271.57   20.70
  -4   7   0  228.28   25.10
   4   7   0  223.38   21.80
  -4   7   0  249.48   16.60
  -4   7   0  233.58   19.40
   4   7   0  215.98   23.80
  -5  -7   0  135.69   20.50
   5  -7   0  109.79   23.00
   5  -7   0   91.39   18.00
  -5  -7   0   87.09   16.80
  -5   7   0  109.79   14.40
  -5   7   0   79.49   16.00
   5   7   0  120.49   17.50
  -5   7   0   93.69   14.10
   5   7   0  127.09   19.30
   5   7   0   91.69   16.30
  -6  -7   0  225.68   29.60
   6  -7   0  244.38   32.20
   6  -7   0  234.28   35.10
  -6  -7   0  276.07   28.40
  -6  -7   0  233.58   24.40
  -6   7   0  299.17   26.10
   6   7   0  277.57   29.90
   6   7   0  229.28   27.60
  -6   7   0  211.28   27.70
   6   7   0  262.07   30.60
   6   7   0  263.27   27.80
   0  -8   0 1095.99   72.69
   0  -8   0 1350.36   74.79
   0   8   0 1150.58   65.19
   0   8   0 1190.98   65.29
   0   8   0 1109.69   72.39
   0   8   0 1254.77   73.79
  -1  -8   0  936.11   52.99
  -1  -8   0 1024.80   61.19
  -1  -8   0  949.40   58.49
   1  -8   0  867.71   58.59
   1  -8   0  898.01   62.69
   1   8   0  944.01   53.09
  -1   8   0  897.11   58.89
   1   8   0  985.50   58.49
   1   8   0  903.21   53.29
   1   8   0  972.60   54.59
  -1   8   0  894.81   60.69
   1   8   0  915.31   54.09
   1   8   0  872.31   58.79
  -1   8   0  919.01   58.39
   2  -8   0 1324.67   86.99
  -2  -8   0 1321.47   84.09
  -2  -8   0 1317.77   80.69
  -2  -8   0 1356.86   80.79
   2  -8   0 1390.76   89.09
  -2   8   0 1400.16   82.79
  -2   8   0 1236.08   85.19
   2   8   0 1375.76   79.39
   2   8   0 1328.67   80.09
   2   8   0 1501.15   80.89
   2   8   0 1316.47   79.39
   2   8   0 1490.35   80.39
  -2   8   0 1278.37   73.29
   2   8   0 1436.16   78.69
  -2   8   0 1272.77   81.29
   2   8   0 1318.57   82.59
  -2   8   0 1406.26   73.39
  -3  -8   0  703.83   45.30
  -3  -8   0  693.43   49.99
  -3  -8   0  705.73   45.70
  -3  -8   0  716.53   45.40
   3  -8   0  791.82   57.09
   3  -8   0  724.63   52.29
  -3   8   0  675.13   41.10
  -3   8   0  700.83   41.10
   3   8   0  812.32   50.09
   3   8   0  717.53   44.80
   3   8   0  608.94   45.40
   3   8   0  659.03   44.90
  -3   8   0  662.13   47.40
  -3   8   0  719.63   41.20
  -3   8   0  639.84   44.00
  -3   8   0  688.03   40.90
  -4  -8   0   26.80   10.70
   4  -8   0   20.60   11.10
   4  -8   0   27.90   10.80
  -4  -8   0   15.80    5.50
   4   8   0   15.00    8.40
  -4   8   0   26.30    6.10
  -4   8   0   30.00    7.50
   4   8   0   22.10    7.40
   4   8   0   27.30    9.10
  -4   8   0   11.60    6.90
   4   8   0   18.60   10.10
   5  -8   0   -0.80    8.00
   5  -8   0   15.20   13.90
  -5  -8   0    6.80    7.70
  -5   8   0   24.90   11.10
   5   8   0    1.90    5.60
   5   8   0   14.20    7.40
  -5   8   0    8.80    5.30
   5   8   0   -3.90    8.30
  -5   8   0    3.30    5.70
  -6  -8   0    0.90    7.50
   6  -8   0    8.10   14.90
   6  -8   0   47.50   16.40
   6   8   0   13.70   12.00
   6   8   0   19.60   10.40
   6   8   0   27.70   10.90
   6   8   0    7.40   10.40
  -6   8   0   19.50    8.40
  -6   8   0   19.80   12.10
   0  -9   0   -4.30    5.60
   0  -9   0    1.10    6.50
   0   9   0   -4.10    5.10
   0   9   0    0.00    0.70
   0   9   0    0.70    0.90
   0   9   0   -2.90    3.80
   0   9   0    2.20    1.30
  -1  -9   0  402.26   31.40
   1  -9   0  409.46   37.00
   1  -9   0  403.76   32.00
  -1  -9   0  415.26   33.70
   1   9   0  444.06   27.10
  -1   9   0  422.16   33.80
   1   9   0  414.36   26.70
   1   9   0  413.56   31.50
   1   9   0  450.35   26.50
   1   9   0  397.36   32.00
  -1   9   0  423.26   31.80
  -1   9   0  388.06   31.70
   2  -9   0  349.77   32.70
  -2  -9   0  337.37   29.00
  -2  -9   0  336.77   26.20
   2  -9   0  316.47   32.10
   2   9   0  310.57   23.00
  -2   9   0  335.17   27.40
   2   9   0  331.77   27.60
  -2   9   0  287.17   26.00
   2   9   0  281.77   23.60
   2   9   0  334.17   25.40
   2   9   0  357.26   25.90
  -2   9   0  306.57   30.20
   3  -9   0  517.75   45.00
   3  -9   0  595.34   49.00
  -3  -9   0  519.45   41.70
  -3  -9   0  511.75   37.30
  -3   9   0  544.55   31.70
  -3   9   0  543.95   31.60
   3   9   0  544.25   38.30
  -3   9   0  537.05   40.50
  -3   9   0  525.05   37.40
  -3   9   0  538.05   45.20
   3   9   0  546.65   37.30
   3   9   0  560.04   40.80
  -4  -9   0  297.37   32.50
   4  -9   0  261.67   33.40
   4  -9   0  267.07   36.50
   4   9   0  275.27   25.70
   4   9   0  300.37   30.70
  -4   9   0  292.97   30.00
  -4   9   0  294.47   21.00
   4   9   0  314.47   26.10
   5  -9   0   32.70   18.00
   5  -9   0   23.60   14.00
  -5  -9   0   48.00   14.30
   5   9   0   45.30   14.40
  -5   9   0   40.80   13.70
  -5   9   0   59.19   10.00
   5   9   0   53.99   11.60
   5   9   0   39.90   10.70
   6  -9   0   40.20   14.70
  -6  -9   0   43.50   13.80
   6  -9   0   43.90   18.50
   6   9   0    7.00   13.00
  -6   9   0   40.10   10.40
  -6   9   0   23.60   12.60
   6   9   0   45.20   11.40
   6   9   0   44.60   15.50
   6   9   0   31.70   12.20
   0 -10   0  442.56   35.30
   0  10   0  423.36   34.20
   0  10   0  443.76   34.40
  -1 -10   0   21.20    7.60
  -1 -10   0   13.20    7.40
   1 -10   0   35.00   10.40
  -1  10   0    9.20    7.90
  -1  10   0   26.90    8.40
   1  10   0   13.30    7.70
  -1  10   0   24.30    9.40
   1  10   0   16.20    4.50
   1  10   0   27.60   10.50
  -1  10   0   13.30    7.10
   1  10   0   15.10    4.10
   1  10   0   12.00    5.00
   2 -10   0   13.60    9.90
  -2 -10   0   29.70    9.90
   2 -10   0   20.50   12.70
  -2 -10   0   26.80    8.70
   2  10   0   24.60    8.10
   2  10   0   29.00    6.60
   2  10   0   16.60    5.50
  -2  10   0   34.20    9.80
   2  10   0   20.90    8.30
  -2  10   0   20.10    8.60
  -2  10   0   19.40    8.40
  -2  10   0   15.50    6.70
  -3 -10   0   16.30   11.20
   3 -10   0   27.40   11.20
   3 -10   0    4.80    8.20
   3  10   0   37.40    9.00
  -3  10   0   57.59   16.10
  -3  10   0   25.90    9.90
   3  10   0   42.10    9.00
   3  10   0   29.40   10.00
  -3  10   0   34.30    9.30
   3  10   0   23.60    8.00
   4 -10   0  408.36   46.10
   4 -10   0  349.77   39.50
  -4  10   0  339.57   32.10
  -4  10   0  375.16   40.80
   4  10   0  314.77   33.80
   4  10   0  327.17   29.20
   4  10   0  388.76   31.20
   5 -10   0   44.20   18.10
   5 -10   0   69.89   18.60
  -5 -10   0   62.09   15.90
  -5  10   0   55.59   13.90
   5  10   0   53.99   12.30
   5  10   0   58.89   14.70
   5  10   0   57.19   12.20
  -5  10   0   59.59    9.00
   0 -11   0    0.00    6.50
   0  11   0   -5.70    6.00
   0  11   0    0.60    7.90
   0  11   0    2.50    5.90
  -1 -11   0  594.54   43.60
  -1 -11   0  610.24   45.90
  -1  11   0  519.15   41.90
   1  11   0  605.84   44.90
   1  11   0  569.84   42.50
  -1  11   0  539.25   45.00
  -1  11   0  636.54   46.80
  -1  11   0  693.13   46.50
   2 -11   0  170.78   26.00
  -2 -11   0  149.59   22.50
  -2 -11   0  145.79   19.10
  -2  11   0  143.79   23.60
  -2  11   0  164.18   21.00
   2  11   0  196.58   23.10
   2  11   0  215.08   19.70
  -2  11   0  172.78   21.70
   2  11   0  169.38   15.90
  -2  11   0  165.38   21.60
   3 -11   0  164.08   25.60
  -3 -11   0  145.29   23.10
   3 -11   0  141.09   26.30
   3  11   0  165.48   22.50
   3  11   0  163.38   18.00
   3  11   0  168.28   18.20
  -3  11   0  185.08   26.90
  -3  11   0  128.69   18.90
  -3  11   0  147.09   19.60
   4 -11   0   29.90   16.80
  -4 -11   0   40.50   12.90
   4 -11   0   70.49   19.60
  -4  11   0   45.60   16.40
   4  11   0   35.50   11.60
   4  11   0   42.60   10.90
   4  11   0   44.20   11.80
  -4  11   0   34.30   12.30
   0 -12   0  157.58   21.50
   0  12   0  163.48   24.70
   0  12   0  154.08   21.50
   0  12   0  158.68   19.90
   0  12   0  194.68   23.70
  -1 -12   0  220.68   26.70
   1  12   0  181.88   27.20
  -1  12   0  173.38   24.80
   1  12   0  200.08   13.90
  -1  12   0  194.88   24.50
  -1  12   0  226.88   26.50
   1  12   0  192.58   22.70
  -1  12   0  213.78   23.70
   1  12   0  203.28   24.40
  -2 -12   0  386.56   36.00
   2  12   0  412.56   28.80
  -2  12   0  372.86   34.90
   2  12   0  439.16   36.80
  -2  12   0  417.56   34.60
  -2  12   0  436.96   39.20
  -2  12   0  389.66   34.70
   3 -12   0  355.26   41.10
  -3 -12   0  366.76   38.60
   3 -12   0  349.17   43.10
  -3  12   0  353.66   36.60
  -3  12   0  396.86   34.50
  -3  12   0  366.46   33.30
   3  12   0  407.56   34.60
   3  12   0  346.77   28.90
   0 -13   0    8.60    8.60
   0  13   0   -0.40    8.30
   0  13   0   14.00   12.20
   0  13   0    4.70    8.00
  -1 -13   0  228.48   28.30
   1  13   0  215.28   30.30
  -1  13   0  179.68   26.70
  -1  13   0  211.18   26.30
  -1  13   0  178.08   26.00
   1  13   0  193.88   24.90
  -2 -13   0  239.68   30.00
  -2  13   0  240.18   32.30
   2  13   0  248.48   28.80
   2  13   0  245.78   32.80
  -2  13   0  276.97   28.70
  -2  13   0  272.07   31.40
  -2  13   0  273.97   31.10
  -8   0   1   61.99   15.80
   8   0  -1   69.99   19.40
   8   0  -1   53.69   12.50
  -8   0   1   53.19   17.20
  -8   0   1   72.99   16.80
  -7   0   1   -4.40    9.20
   7   0  -1    0.30    7.60
  -7   0   1   -3.10    6.10
   7   0  -1   -7.30    6.00
  -7   0   1   -6.50    5.00
   7   0  -1    0.40    6.20
   6   0  -1   20.10    9.70
   6   0  -1   24.80   12.50
  -6   0   1   27.00   10.10
   6   0  -1   30.50   11.10
  -6   0   1    5.30    6.30
   6   0  -1   42.60    9.50
  -6   0   1   36.20   10.80
  -5   0   1  379.86   31.30
   5   0  -1  398.96   25.10
   5   0  -1  382.56   33.20
   5   0  -1  406.96   29.90
   5   0  -1  387.96   30.60
   5   0  -1  393.26   31.80
  -5   0   1  443.06   31.50
  -5   0   1  352.26   30.50
  -5   0   1  383.46   28.70
  -4   0   1  203.18   16.90
   4   0  -1  208.48   18.50
   4   0  -1  173.68   20.40
   4   0  -1  193.28   17.70
  -4   0   1  221.98   19.90
   4   0  -1  211.48   17.80
  -4   0   1  182.88   19.80
  -4   0   1  168.68   16.70
   4   0  -1  193.48   14.20
  -4   0   1  217.48   19.40
   3   0  -1 1242.78   70.59
   3   0  -1 1231.48   66.79
   3   0  -1 1169.28   70.09
  -3   0   1 1158.88   70.49
  -3   0   1 1149.19   69.29
   3   0  -1 1301.57   70.59
  -3   0   1 1226.58   68.79
   3   0  -1 1142.59   68.89
   3   0  -1 1192.28   70.09
  -3   0   1 1187.68   70.09
   3   0  -1 1185.28   69.19
  -3   0   1 1144.39   69.99
   3   0  -1 1149.69   70.99
  -3   0   1 1121.79   68.39
  -3   0   1 1220.38   69.69
   2   0  -1 2183.28  123.49
   2   0  -1 2593.24  124.99
   2   0  -1 2260.87  123.89
  -2   0   1 2243.48  124.19
  -2   0   1 2258.37  124.39
  -2   0   1 2200.98  122.19
   2   0  -1 2208.48  122.09
  -2   0   1 2164.38  123.69
   2   0  -1 2220.78  123.89
  -2   0   1 2195.78  123.09
   2   0  -1 2204.38  123.39
  -2   0   1 2226.38  123.19
  -2   0   1 2303.47  124.29
  -2   0   1 2174.78  123.29
   2   0  -1 2185.88  124.39
  -2   0   1 2158.38  123.59
  -1   0   1 2064.99  105.69
   1   0  -1 1891.21  105.19
  -1   0   1 1905.11  105.29
   1   0  -1 2233.18  106.29
   1   0  -1 2181.48  106.29
  -1   0   1 1832.62  105.29
  -1   0   1 1910.51  105.39
  -1   0   1 1839.42  105.79
  -1   0   1 1854.71  105.59
   1   0  -1 1879.71  105.69
   1   0  -1 1878.81  105.49
  -1   0   1 1836.32  105.29
   1   0  -1 1930.81  105.49
  -1   0   1 1798.72  105.79
   1   0  -1 1924.81  105.49
   0   0  -1 1530.85   83.09
   0   0  -1 1528.35   83.49
   0   0  -1 1573.74   83.39
   0   0  -1 1438.06   83.39
   0   0   1 1550.94   83.49
   0   0   1 1456.25   83.39
   0   0  -1 1707.73   82.69
   0   0  -1 1449.85   83.49
   0   0   1 1547.35   83.39
   0   0   1 1518.85   83.09
   0   0   1 1523.85   83.19
   0   0   1 1460.15   83.39
   0   0  -1 1603.54   82.49
   0   0  -1 1491.55   83.39
   0   0  -1 1478.25   83.09
   1   0   1  939.91   52.99
   1   0   1  893.91   53.39
   1   0   1 1024.40   53.09
  -1   0  -1  998.50   52.89
  -1   0  -1 1065.09   53.09
   1   0   1  915.51   53.49
   1   0   1  925.11   53.69
  -1   0  -1  912.01   52.69
   1   0   1  926.01   52.59
  -1   0  -1  933.91   53.49
  -1   0  -1  950.70   53.39
  -1   0  -1  913.21   53.49
   1   0   1  928.41   52.69
   1   0   1  958.20   53.49
   1   0   1  926.91   52.89
  -1   0  -1  921.91   52.89
  -1   0  -1  892.61   53.59
  -1   0  -1  922.51   52.99
  -1   0  -1  935.71   53.19
  -1   0  -1  912.31   53.79
   1   0   1  916.91   53.09
  -2   0  -1  613.14   37.10
   2   0   1  603.64   37.10
   2   0   1  567.04   35.10
  -2   0  -1  592.74   36.60
   2   0   1  578.84   36.60
   2   0   1  603.64   36.50
   2   0   1  593.34   37.40
   2   0   1  606.04   36.80
  -2   0  -1  570.24   36.70
  -2   0  -1  593.64   35.90
   2   0   1  596.54   36.10
  -2   0  -1  623.44   37.70
  -2   0  -1  687.23   37.40
  -2   0  -1  598.54   37.30
   2   0   1  565.54   36.10
  -2   0  -1  619.24   37.00
   2   0   1  580.64   37.10
   3   0   1  578.64   34.30
  -3   0  -1  630.14   38.10
   3   0   1  510.25   35.80
  -3   0  -1  721.03   40.20
   3   0   1  550.24   37.20
  -3   0  -1  595.34   37.50
   3   0   1  573.34   40.40
   3   0   1  554.14   36.70
   3   0   1  576.84   39.40
  -3   0  -1  546.55   37.00
   3   0   1  581.14   37.20
  -3   0  -1  485.85   37.20
  -3   0  -1  564.04   36.70
   3   0   1  558.84   37.40
  -3   0  -1  588.64   37.90
   3   0   1  567.04   35.90
   4   0   1  112.39   10.10
  -4   0  -1  108.79   13.80
  -4   0  -1   92.59   13.90
   4   0   1  103.69   13.40
   4   0   1  102.99   12.60
  -4   0  -1  118.49   14.20
   4   0   1  136.99   15.90
   4   0   1  128.29   13.50
   4   0   1  122.29   17.90
   4   0   1  104.09   14.00
  -4   0  -1  109.79   14.40
   5   0   1  761.22   44.70
   5   0   1  668.13   47.40
   5   0   1  787.22   50.19
  -5   0  -1  723.93   51.49
   5   0   1  775.22   51.89
   5   0   1  866.91   57.19
   5   0   1  714.23   48.20
   5   0   1  729.23   50.89
  -5   0  -1  719.83   50.79
  -5   0  -1  711.33   49.60
   6   0   1   88.89   13.90
  -6   0  -1   84.99   16.20
  -6   0  -1  138.29   19.50
  -6   0  -1  119.89   18.80
   6   0   1  122.79   18.30
   6   0   1  101.49   16.80
   6   0   1  104.99   20.80
   6   0   1  136.79   17.90
   6   0   1  136.09   16.70
   7   0   1    0.00    9.90
  -7   0  -1    2.30    6.60
  -7   0  -1   -4.60    9.20
  -7   0  -1   -1.60    5.90
   7   0   1   -0.10    8.00
   7   0   1   -2.80    7.80
   7   0   1    6.80    7.70
   7   0   1    8.40   10.20
  -8  -1   1  149.49   24.80
  -8  -1   1  183.28   27.00
  -8  -1   1  199.78   26.00
   8  -1  -1  133.19   18.90
   8  -1  -1  153.88   25.90
   8  -1  -1  181.58   31.40
   8   1  -1  176.38   27.50
   8   1  -1  141.29   21.10
   8   1  -1  153.78   24.50
  -8   1   1  121.69   21.70
  -8   1   1  136.79   23.40
  -8   1   1  205.48   28.50
   7  -1  -1  166.48   25.40
  -7  -1   1  165.68   24.70
   7  -1  -1  137.39   22.50
  -7  -1   1  131.79   19.80
  -7  -1   1  145.69   23.20
   7  -1  -1  157.78   20.20
   7  -1  -1  149.19   25.40
  -7   1   1  255.97   28.30
   7   1  -1  134.49   21.50
   7   1  -1  153.78   20.50
   7   1  -1  155.08   23.50
  -7   1   1  161.18   21.60
   7   1  -1  177.28   25.10
  -7   1   1  138.39   21.60
   6  -1  -1  579.34   41.90
  -6  -1   1  645.64   47.30
  -6  -1   1  625.04   46.60
   6  -1  -1  582.04   45.30
   6  -1  -1  605.74   48.20
  -6  -1   1  541.35   43.60
  -6   1   1  689.43   47.40
   6   1  -1  657.83   44.10
   6   1  -1  569.44   46.50
   6   1  -1  588.94   38.60
   6   1  -1  569.24   44.70
   6   1  -1  645.64   45.40
  -6   1   1  541.45   45.00
  -6   1   1  654.73   45.10
   5  -1  -1   35.10    3.60
   5  -1  -1   27.10    7.90
   5  -1  -1   25.40   10.90
  -5  -1   1   20.30    9.50
  -5  -1   1   25.00   10.00
   5  -1  -1   32.30    8.00
  -5  -1   1   44.50    7.50
  -5  -1   1   37.10    9.10
   5  -1  -1   31.10    3.50
  -5   1   1   32.70    9.50
  -5   1   1   18.50    9.20
   5   1  -1   33.30    6.50
   5   1  -1   30.90   10.90
   5   1  -1   34.40    8.30
   5   1  -1   26.80    8.60
  -5   1   1   56.79   11.70
   5   1  -1   23.10    9.20
   5   1  -1   37.30    9.10
  -4  -1   1  657.53   45.20
   4  -1  -1  726.93   43.30
  -4  -1   1  694.23   43.30
   4  -1  -1  711.13   45.20
  -4  -1   1  681.83   41.50
   4  -1  -1  719.63   47.40
   4  -1  -1  676.33   38.20
  -4  -1   1  636.74   44.00
  -4  -1   1  653.93   45.10
   4   1  -1  635.24   44.70
  -4   1   1  607.04   43.50
   4   1  -1  711.93   43.50
   4   1  -1  677.03   43.60
  -4   1   1  673.63   44.40
  -4   1   1  664.33   45.00
  -4   1   1  717.93   44.50
   4   1  -1  740.03   45.30
   4   1  -1  645.24   45.80
  -4   1   1  649.04   44.70
   4   1  -1  697.93   41.90
  -3  -1   1  504.95   30.40
   3  -1  -1  448.16   33.90
   3  -1  -1  496.25   28.30
   3  -1  -1  524.05   31.90
   3  -1  -1  566.04   33.90
  -3  -1   1  494.35   32.50
  -3  -1   1  464.25   32.90
   3  -1  -1  464.15   32.40
  -3  -1   1  568.84   33.50
   3  -1  -1  493.85   33.10
  -3  -1   1  487.75   31.60
  -3  -1   1  490.85   33.40
  -3  -1   1  507.35   33.50
   3  -1  -1  464.75   31.70
  -3   1   1  531.75   32.50
  -3   1   1  452.25   32.50
  -3   1   1  514.15   32.70
   3   1  -1  478.95   32.00
  -3   1   1  520.65   32.00
   3   1  -1  556.74   33.30
   3   1  -1  503.95   33.80
  -3   1   1  487.85   33.20
   3   1  -1  478.65   31.10
  -3   1   1  453.25   32.30
   3   1  -1  635.54   34.50
  -3   1   1  506.65   33.00
   3   1  -1  482.55   33.20
  -3   1   1  464.55   31.40
   3   1  -1  478.35   31.70
  -3   1   1  461.55   33.70
   3   1  -1  521.85   33.20
   3   1  -1  474.75   33.40
   2  -1  -1 1628.94   93.79
  -2  -1   1 1681.63   91.79
  -2  -1   1 1562.44   93.89
   2  -1  -1 1607.14   92.79
  -2  -1   1 1617.24   93.09
   2  -1  -1 1632.94   90.99
  -2  -1   1 1548.84   93.89
   2  -1  -1 1605.14   93.69
   2  -1  -1 1794.22   93.29
  -2  -1   1 1625.64   93.49
  -2  -1   1 1579.74   93.49
  -2  -1   1 1554.04   94.09
   2  -1  -1 1974.20   94.69
   2  -1  -1 1549.64   94.89
  -2   1   1 1859.41   93.49
   2   1  -1 1643.54   93.29
   2   1  -1 1693.23   93.69
   2   1  -1 1897.91   94.19
  -2   1   1 1704.93   94.09
  -2   1   1 1626.54   94.29
  -2   1   1 1656.13   93.89
  -2   1   1 1617.34   93.69
   2   1  -1 1792.72   94.69
   2   1  -1 1664.13   93.59
  -2   1   1 1879.41   95.69
   2   1  -1 1637.24   94.19
   2   1  -1 1786.02   93.59
   2   1  -1 1738.63   94.59
  -2   1   1 1605.84   90.99
  -2   1   1 1567.24   93.89
  -2   1   1 1580.94   93.19
  -1  -1   1 3201.18  172.88
  -1  -1   1 3713.33  173.28
   1  -1  -1 3397.26  172.68
   1  -1  -1 3099.59  171.88
  -1  -1   1 3019.30  171.78
   1  -1  -1 2993.50  173.38
   1  -1  -1 3015.70  171.78
  -1  -1   1 3127.79  172.58
  -1  -1   1 3074.89  172.08
   1  -1  -1 3032.40  172.08
   1  -1  -1 3054.89  173.38
   1  -1  -1 3041.60  172.38
  -1  -1   1 3052.09  171.98
   1  -1  -1 3468.75  171.78
  -1  -1   1 3127.69  172.68
  -1  -1   1 3170.78  171.88
  -1  -1   1 3176.98  172.88
  -1   1   1 3079.69  173.18
  -1   1   1 3140.79  171.88
  -1   1   1 3087.59  172.38
   1   1  -1 3121.99  171.98
  -1   1   1 3427.26  172.18
  -1   1   1 3207.98  173.48
   1   1  -1 3442.96  173.08
  -1   1   1 3078.09  173.18
   1   1  -1 3096.99  172.68
   1   1  -1 3171.88  171.88
   1   1  -1 3200.38  172.78
  -1   1   1 3328.57  172.28
   1   1  -1 3154.08  172.18
   1   1  -1 3048.60  172.58
  -1   1   1 3262.57  171.68
  -1   1   1 3088.69  172.38
   1   1  -1 3189.38  172.18
   1   1  -1 3154.08  172.78
   0  -1   1  769.32   42.80
   0  -1   1  778.42   41.90
   0  -1   1  766.92   42.90
   0  -1   1  704.63   41.80
   0  -1   1  753.82   43.20
   0  -1  -1  783.22   42.50
   0  -1   1  818.12   42.00
   0  -1  -1  780.92   42.00
   0  -1   1  771.72   41.30
   0  -1  -1  777.52   43.00
   0  -1   1  749.92   42.60
   0  -1  -1  834.52   42.00
   0  -1  -1  786.42   42.90
   0  -1  -1  762.32   42.80
   0  -1   1  719.23   41.20
   0  -1  -1  789.12   42.40
   0   1  -1  751.52   42.70
   0   1  -1  713.03   43.00
   0   1  -1  755.22   41.90
   0   1   1  735.23   42.30
   0   1  -1  740.23   42.80
   0   1  -1  813.12   42.00
   0   1   1  722.73   42.80
   0   1   1  743.93   42.00
   0   1   1  685.93   41.80
   0   1  -1  785.62   41.50
   0   1  -1  705.33   41.40
   0   1  -1  710.03   41.90
   0   1  -1  727.13   41.90
   0   1   1  779.52   42.90
   0   1   1  731.43   42.30
   0   1   1  750.42   42.50
   0   1  -1  713.93   42.60
   0   1   1  702.73   42.70
  -1  -1  -1 2431.86  139.59
   1  -1   1 2487.05  139.09
  -1  -1  -1 2581.74  140.29
   1  -1   1 2819.82  139.39
   1  -1   1 2556.44  139.29
   1  -1   1 2555.64  141.19
   1  -1   1 2493.15  139.69
  -1  -1  -1 2534.45  140.59
   1  -1   1 2696.63  139.59
   1  -1   1 2714.33  140.89
  -1  -1  -1 2564.94  140.09
   1  -1   1 2538.85  138.99
  -1  -1  -1 2578.54  140.79
  -1  -1  -1 2516.45  139.39
   1  -1   1 2609.34  140.99
  -1  -1  -1 2525.35  140.79
   1  -1   1 2407.06  141.29
  -1  -1  -1 2726.23  138.59
   1  -1   1 2481.95  139.89
  -1  -1  -1 2808.92  140.79
  -1   1  -1 2487.35  139.89
   1   1   1 2370.46  140.29
   1   1   1 2678.03  140.29
  -1   1  -1 2487.25  139.39
   1   1   1 2453.55  140.09
  -1   1  -1 2584.34  139.19
   1   1   1 2576.14  139.89
  -1   1  -1 2424.56  140.79
   1   1   1 2572.04  140.79
  -1   1  -1 2448.56  140.59
  -1   1  -1 2502.95  140.09
   1   1   1 2604.64  139.49
   1   1   1 2767.72  140.59
  -1   1  -1 2535.85  139.79
  -1   1  -1 2449.95  140.99
   1   1   1 2474.65  140.59
  -1   1  -1 2680.73  139.59
  -1   1  -1 2549.34  139.19
  -2  -1  -1   28.10    5.50
  -2  -1  -1   17.80    5.50
   2  -1   1   34.10    6.00
   2  -1   1   29.80    5.90
  -2  -1  -1   18.90    5.20
   2  -1   1   29.60    5.50
   2  -1   1   34.70    7.00
   2  -1   1   23.70    4.10
  -2  -1  -1   37.20    6.90
   2  -1   1   30.90    7.80
   2  -1   1   23.70    5.90
  -2  -1  -1   22.40    5.20
  -2  -1  -1   28.40    5.50
   2  -1   1   32.90    5.60
   2  -1   1   24.70    3.70
   2  -1   1   25.90    5.20
  -2  -1  -1   25.50    6.40
   2   1   1   29.80    6.80
   2   1   1   23.60    5.20
  -2   1  -1   25.60    5.10
   2   1   1   17.10    5.00
  -2   1  -1   28.00    3.90
  -2   1  -1   27.10    5.10
   2   1   1   20.70    5.00
  -2   1  -1   25.10    5.70
   2   1   1   29.20    5.70
   2   1   1   28.10    5.00
  -2   1  -1   34.20    6.50
  -2   1  -1   28.90    5.30
  -2   1  -1   31.00    5.80
   2   1   1   23.60    5.90
  -2   1  -1   26.60    6.40
  -2   1  -1   17.00    5.90
   2   1   1   21.00    5.40
   2   1   1   26.70    5.60
   3  -1   1 1033.90   63.59
   3  -1   1 1032.20   66.09
  -3  -1  -1  973.20   63.39
  -3  -1  -1 1098.29   63.79
   3  -1   1 1091.79   58.89
  -3  -1  -1 1101.49   63.09
   3  -1   1 1066.19   62.99
   3  -1   1  997.80   60.79
   3  -1   1 1012.00   62.49
  -3  -1  -1 1082.79   63.49
  -3  -1  -1 1004.90   62.59
   3  -1   1 1000.00   61.09
   3  -1   1 1027.10   61.39
  -3   1  -1 1010.60   62.99
  -3   1  -1 1097.99   62.69
  -3   1  -1 1122.89   63.39
   3   1   1 1144.49   65.19
   3   1   1 1094.29   62.89
   3   1   1 1049.99   63.89
   3   1   1 1028.00   61.89
   3   1   1 1086.89   61.19
  -3   1  -1 1000.80   62.99
  -3   1  -1 1069.49   63.69
   3   1   1 1018.50   63.39
   3   1   1 1013.40   62.89
  -3   1  -1 1020.60   62.39
   3   1   1 1033.70   61.69
   4  -1   1  866.51   61.49
   4  -1   1  900.91   56.39
  -4  -1  -1  885.91   57.89
  -4  -1  -1  889.11   56.39
   4  -1   1 1010.40   59.89
   4  -1   1  878.11   58.19
   4  -1   1  922.41   56.19
   4  -1   1  822.52   57.69
   4  -1   1  922.21   52.79
  -4  -1  -1  875.71   59.09
  -4  -1  -1 1023.30   59.49
  -4   1  -1 1099.89   60.19
   4   1   1  911.41   55.39
   4   1   1  905.51   59.19
   4   1   1  898.61   58.29
  -4   1  -1 1004.10   59.99
  -4   1  -1  935.41   58.09
   4   1   1 1028.20   57.69
   4   1   1  897.01   56.89
  -4   1  -1  973.80   59.59
   5  -1   1   99.99    8.60
   5  -1   1  124.99   16.80
  -5  -1  -1   91.09   15.70
   5  -1   1   98.29   15.60
   5  -1   1   90.69   13.10
  -5  -1  -1  126.19   16.60
   5  -1   1   97.09   15.30
   5  -1   1  125.29   20.60
   5  -1   1  107.69   13.90
  -5  -1  -1  116.09   17.20
   5   1   1   94.89   13.60
  -5   1  -1  108.59   16.70
   5   1   1   84.29   11.00
   5   1   1  132.39   17.00
   5   1   1   78.39   17.10
   5   1   1  113.59   14.50
   5   1   1  129.29   15.90
  -5   1  -1   80.29   14.00
  -5   1  -1   94.19   14.60
   5   1   1   96.99   15.40
   6  -1   1  268.67   33.00
  -6  -1  -1  301.27   28.90
   6  -1   1  247.28   28.60
  -6  -1  -1  275.37   29.30
   6  -1   1  300.87   28.20
  -6  -1  -1  300.87   28.10
   6  -1   1  279.97   25.20
   6  -1   1  283.57   29.60
   6   1   1  274.27   24.90
   6   1   1  341.57   34.00
  -6   1  -1  310.47   29.30
   6   1   1  265.47   29.10
   6   1   1  299.17   26.10
   6   1   1  368.06   31.60
   6   1   1  298.67   26.60
  -6   1  -1  287.67   27.70
  -6   1  -1  332.37   28.90
   7  -1   1   78.89   20.40
   7  -1   1  108.59   16.30
  -7  -1  -1  111.89   18.50
  -7  -1  -1  113.09   20.60
  -7  -1  -1  128.79   20.80
   7  -1   1  135.79   19.00
   7  -1   1   89.09   18.50
   7  -1   1  136.49   20.00
   7   1   1  122.69   24.20
  -7   1  -1  108.29   19.50
   7   1   1  121.59   18.20
  -7   1  -1   84.49   16.90
   7   1   1  109.89   19.60
   7   1   1  115.99   18.20
   7   1   1  124.89   21.20
  -7   1  -1   76.09   16.40
  -8  -2   1    7.90   11.90
  -8  -2   1   10.40    7.50
   8  -2  -1    3.20   13.00
  -8  -2   1   -2.70    8.90
   8  -2  -1   -6.00   11.40
   8  -2  -1    1.60    6.90
   8   2  -1    3.60    9.40
   8   2  -1   -5.20   10.30
  -8   2   1   -2.40    6.80
  -8   2   1   -5.30    9.50
   8   2  -1   13.80    9.30
  -8   2   1    2.10    7.30
   8   2  -1   19.90   13.20
  -7  -2   1   32.70   12.70
   7  -2  -1   30.10   14.50
   7  -2  -1   23.60   11.10
  -7  -2   1   21.80   11.30
  -7  -2   1   30.30   11.00
   7  -2  -1    1.20   12.00
   7  -2  -1   23.30    8.80
   7   2  -1   17.80    8.60
  -7   2   1   14.10    8.50
   7   2  -1    7.20    8.40
   7   2  -1   20.40   10.00
  -7   2   1    1.60    8.50
   7   2  -1   12.80    9.30
  -7   2   1   24.40   11.30
  -6  -2   1  766.12   54.29
   6  -2  -1  853.51   59.69
  -6  -2   1  888.91   56.39
   6  -2  -1  684.83   54.69
  -6  -2   1  704.53   51.59
   6  -2  -1  692.73   51.79
   6  -2  -1  723.73   48.80
   6   2  -1  686.73   54.29
   6   2  -1  759.32   53.39
   6   2  -1  851.01   55.39
   6   2  -1  771.32   48.40
  -6   2   1  680.33   51.99
  -6   2   1  714.93   51.39
   6   2  -1  747.63   50.89
  -6   2   1  791.12   54.39
   6   2  -1  682.63   50.49
   5  -2  -1  315.17   27.00
  -5  -2   1  308.27   21.10
  -5  -2   1  300.17   27.40
   5  -2  -1  294.57   23.80
  -5  -2   1  309.67   28.20
  -5  -2   1  293.77   26.10
   5  -2  -1  274.57   27.90
   5  -2  -1  312.07   29.50
  -5   2   1  318.37   25.50
  -5   2   1  324.27   27.20
   5   2  -1  263.77   25.20
   5   2  -1  314.37   27.80
  -5   2   1  338.37   29.20
  -5   2   1  328.47   28.00
   5   2  -1  276.27   24.70
   5   2  -1  334.87   27.60
   5   2  -1  347.77   24.50
   5   2  -1  307.07   27.40
  -4  -2   1  232.68   20.00
   4  -2  -1  262.37   22.80
  -4  -2   1  263.27   22.20
   4  -2  -1  267.57   24.70
  -4  -2   1  262.77   16.80
   4  -2  -1  243.08   18.90
  -4  -2   1  261.47   19.50
   4  -2  -1  258.37   19.40
  -4  -2   1  258.97   21.90
   4  -2  -1  237.88   21.10
   4   2  -1  246.28   19.90
  -4   2   1  247.68   21.20
  -4   2   1  258.57   21.20
   4   2  -1  277.17   22.80
  -4   2   1  209.08   20.80
   4   2  -1  244.08   20.80
   4   2  -1  215.88   20.10
  -4   2   1  234.48   19.80
   4   2  -1  188.88   19.30
   3  -2  -1 1232.68   70.19
  -3  -2   1 1181.28   68.39
  -3  -2   1 1074.59   69.49
   3  -2  -1 1347.97   69.99
  -3  -2   1 1129.59   68.89
   3  -2  -1 1163.98   67.29
  -3  -2   1 1126.09   69.59
   3  -2  -1 1172.38   72.49
  -3  -2   1 1199.38   67.29
   3  -2  -1 1159.58   71.39
   3  -2  -1 1194.38   67.59
  -3  -2   1 1141.69   70.09
  -3  -2   1 1439.86   70.59
  -3  -2   1 1241.18   65.09
  -3   2   1 1098.99   68.19
  -3   2   1 1204.18   69.59
  -3   2   1 1100.29   69.39
   3   2  -1 1158.98   68.89
   3   2  -1 1132.09   68.79
   3   2  -1 1165.78   68.69
  -3   2   1 1312.07   72.89
  -3   2   1 1142.19   68.99
   3   2  -1 1078.59   68.79
   3   2  -1 1178.58   70.19
   3   2  -1 1131.39   69.49
  -3   2   1 1149.89   70.29
   3   2  -1 1098.79   69.89
  -3   2   1 1176.68   67.79
  -3   2   1 1206.88   68.29
  -2  -2   1  412.26   26.80
  -2  -2   1  452.65   28.60
   2  -2  -1  501.95   31.50
  -2  -2   1  452.85   28.10
  -2  -2   1  456.55   25.70
   2  -2  -1  415.66   27.30
  -2  -2   1  398.26   27.30
  -2  -2   1  415.36   28.20
   2  -2  -1  443.46   29.70
   2  -2  -1  426.26   26.30
  -2  -2   1  439.46   29.20
   2  -2  -1  439.86   26.20
  -2  -2   1  531.85   29.60
   2  -2  -1  393.76   27.60
   2  -2  -1  412.46   27.40
   2   2  -1  428.46   27.70
   2   2  -1  434.96   27.80
  -2   2   1  414.06   26.80
   2   2  -1  443.56   28.40
   2   2  -1  434.46   28.40
  -2   2   1  430.66   24.90
   2   2  -1  414.76   28.40
  -2   2   1  468.95   27.40
   2   2  -1  449.26   27.80
  -2   2   1  516.05   30.60
   2   2  -1  479.35   28.70
  -2   2   1  444.26   30.30
  -2   2   1  400.46   27.40
   2   2  -1  427.86   27.40
  -2   2   1  399.16   27.90
  -2   2   1  489.95   28.30
   1  -2  -1 2701.63  152.58
  -1  -2   1 3102.69  151.08
   1  -2  -1 2694.63  153.08
  -1  -2   1 2669.23  149.49
   1  -2  -1 2778.62  149.09
   1  -2  -1 2673.43  150.28
  -1  -2   1 3016.80  151.08
  -1  -2   1 2731.63  150.38
   1  -2  -1 2779.92  150.48
  -1  -2   1 2973.70  149.79
   1  -2  -1 2932.81  149.19
  -1  -2   1 2680.73  149.79
   1  -2  -1 2722.63  150.28
  -1  -2   1 2717.33  151.88
  -1  -2   1 2629.74  151.68
   1   2  -1 2658.83  150.08
  -1   2   1 2707.03  149.79
   1   2  -1 2666.13  149.99
  -1   2   1 2812.62  149.69
  -1   2   1 2993.30  150.48
   1   2  -1 2755.42  151.48
  -1   2   1 2605.64  150.28
  -1   2   1 2711.23  152.48
  -1   2   1 2704.53  152.48
   1   2  -1 2667.33  150.68
   1   2  -1 2634.84  151.48
  -1   2   1 3016.30  150.58
  -1   2   1 2770.62  150.38
   1   2  -1 2737.63  150.88
   1   2  -1 2691.23  150.28
  -1   2   1 2669.93  152.78
   1   2  -1 2716.23  152.08
   0  -2  -1  865.51   49.50
   0  -2   1  857.11   50.19
   0  -2  -1  879.31   48.60
   0  -2   1 1008.50   51.19
   0  -2   1  939.21   51.09
   0  -2  -1  876.21   49.70
   0  -2  -1  934.41   48.70
   0  -2  -1  833.02   50.79
   0  -2   1  844.52   51.29
   0  -2   1  906.61   48.80
   0  -2  -1  874.61   51.49
   0  -2  -1  832.32   49.00
   0  -2   1  862.11   50.89
   0   2   1  860.31   50.69
   0   2   1  864.71   49.00
   0   2  -1  819.02   50.09
   0   2  -1  944.01   48.90
   0   2  -1  859.31   50.59
   0   2  -1  925.11   50.29
   0   2   1  819.82   49.00
   0   2   1  924.71   49.70
   0   2  -1  873.61   50.79
   0   2   1  853.91   48.90
   0   2   1  879.51   49.80
   0   2  -1  880.71   51.19
   0   2  -1  926.41   48.90
   0   2  -1  889.61   48.90
   0   2   1  973.10   52.09
   0   2   1  873.01   51.19
   0   2  -1  859.41   50.69
   1  -2   1 1840.42  106.59
  -1  -2  -1 1946.81  107.89
   1  -2   1 1810.02  109.29
   1  -2   1 1743.63  109.09
  -1  -2  -1 1917.81  108.19
  -1  -2  -1 1845.72  106.79
   1  -2   1 2092.99  106.99
  -1  -2  -1 1858.51  108.09
   1  -2   1 1927.21  106.99
  -1  -2  -1 1902.51  106.49
   1  -2   1 1785.62  108.99
   1  -2   1 1969.90  107.59
  -1  -2  -1 1966.80  108.49
  -1  -2  -1 2108.59  108.39
  -1  -2  -1 1881.01  107.29
  -1  -2  -1 1927.01  104.89
   1   2   1 1948.31  108.19
  -1   2  -1 1917.11  109.19
  -1   2  -1 1902.71  105.89
  -1   2  -1 2071.39  108.99
   1   2   1 1920.11  106.39
   1   2   1 1918.11  107.19
  -1   2  -1 1956.10  106.69
   1   2   1 2278.67  108.09
  -1   2  -1 1893.71  106.79
  -1   2  -1 1933.91  106.99
  -1   2  -1 1967.90  107.39
  -1   2  -1 1892.71  106.89
  -1   2  -1 1890.51  109.19
   1   2   1 2300.17  108.69
   1   2   1 1927.91  108.29
  -1   2  -1 2046.10  109.49
   1   2   1 1838.62  107.99
  -1   2  -1 2117.99  105.99
   2  -2   1 1599.34   87.69
  -2  -2  -1 1507.25   90.49
  -2  -2  -1 1562.64   90.09
  -2  -2  -1 1537.05   90.59
   2  -2   1 1514.25   89.49
   2  -2   1 1577.84   91.39
   2  -2   1 1615.34   87.89
  -2  -2  -1 1549.34   90.69
  -2  -2  -1 1472.25   90.79
  -2  -2  -1 1624.14   89.69
   2  -2   1 1589.94   92.39
   2  -2   1 1695.03   89.99
   2  -2   1 1544.85   87.89
   2  -2   1 1775.52   90.49
  -2  -2  -1 1526.65   89.39
   2  -2   1 1682.43   88.19
   2  -2   1 1521.25   92.69
   2  -2   1 1496.35   89.89
  -2   2  -1 1576.74   89.99
  -2   2  -1 1554.64   89.49
   2   2   1 1665.63   91.39
  -2   2  -1 1589.64   89.19
  -2   2  -1 1548.84   91.79
   2   2   1 1588.54   90.29
   2   2   1 1651.03   91.79
   2   2   1 1549.45   90.89
   2   2   1 1565.54   88.79
  -2   2  -1 1580.74   92.79
   2   2   1 1733.13   90.29
   2   2   1 1541.45   90.49
   2   2   1 1722.83   91.09
  -2   2  -1 1602.34   89.79
  -2   2  -1 1523.45   90.99
   2   2   1 1527.25   89.39
  -2   2  -1 1752.42   88.99
  -2   2  -1 1624.14   87.59
  -2   2  -1 1618.34   92.09
   3  -2   1  303.47   26.10
   3  -2   1  289.97   25.10
   3  -2   1  338.67   22.00
   3  -2   1  301.57   21.30
   3  -2   1  342.57   23.80
  -3  -2  -1  309.27   24.50
   3  -2   1  323.47   24.20
   3  -2   1  325.87   21.40
  -3  -2  -1  363.36   24.90
  -3  -2  -1  341.67   24.20
   3  -2   1  324.77   19.40
  -3  -2  -1  291.27   23.00
  -3   2  -1  338.87   23.50
   3   2   1  319.47   23.70
   3   2   1  303.37   24.30
   3   2   1  295.97   22.70
   3   2   1  306.57   24.70
  -3   2  -1  295.17   23.20
  -3   2  -1  365.66   24.30
   3   2   1  277.67   23.00
  -3   2  -1  311.37   24.80
  -3   2  -1  369.46   23.00
  -3   2  -1  333.47   24.50
   3   2   1  323.77   25.10
  -3   2  -1  315.37   24.90
   3   2   1  327.57   21.90
   3   2   1  311.57   24.70
   4  -2   1  228.08   13.70
   4  -2   1  205.68   20.30
  -4  -2  -1  214.98   20.60
  -4  -2  -1  218.78   19.60
   4  -2   1  232.48   20.50
   4  -2   1  204.18   20.10
   4  -2   1  205.48   24.80
   4  -2   1  238.68   18.30
   4  -2   1  211.58   17.50
  -4  -2  -1  228.88   20.20
  -4   2  -1  211.48   19.50
   4   2   1  254.57   20.70
  -4   2  -1  256.47   20.90
  -4   2  -1  214.68   20.10
   4   2   1  220.98   17.90
   4   2   1  214.58   20.40
   4   2   1  177.38   18.40
  -4   2  -1  235.08   20.10
   5  -2   1  365.66   34.70
  -5  -2  -1  348.37   29.50
   5  -2   1  420.46   31.80
  -5  -2  -1  385.56   30.40
   5  -2   1  384.16   27.20
   5  -2   1  362.56   30.10
   5  -2   1  380.76   31.80
  -5  -2  -1  340.27   31.40
   5   2   1  345.27   31.30
   5   2   1  335.27   26.20
  -5   2  -1  358.26   29.60
  -5   2  -1  334.87   29.60
  -5   2  -1  355.66   30.60
   5   2   1  335.17   29.20
   5   2   1  401.26   29.20
   6  -2   1  307.37   30.50
  -6  -2  -1  253.87   30.60
   6  -2   1  307.97   36.70
  -6  -2  -1  346.47   31.30
   6  -2   1  305.47   32.60
   6  -2   1  318.07   26.00
   6  -2   1  351.66   29.90
  -6  -2  -1  287.27   28.70
   6   2   1  296.77   29.70
  -6   2  -1  332.37   29.60
  -6   2  -1  294.47   28.80
  -6   2  -1  364.36   30.00
   6   2   1  355.76   29.30
   6   2   1  281.27   33.90
   6   2   1  328.27   29.70
   6   2   1  367.76   30.20
   6   2   1  340.37   25.90
   7  -2   1   35.60   17.20
   7  -2   1   35.30    9.20
  -7  -2  -1   29.80   11.90
   7  -2   1   24.70   11.50
   7  -2   1   27.30   12.30
  -7  -2  -1   56.89   13.80
  -7  -2  -1   51.19   13.90
   7   2   1   24.00   11.10
   7   2   1   38.70   13.40
   7   2   1   60.19   16.30
   7   2   1   38.70   16.40
  -7   2  -1   53.09   15.00
  -7   2  -1   36.00   12.40
   7   2   1   32.90   11.20
  -7   2  -1   18.90   12.90
  -8  -3   1   62.49   14.10
   8   3  -1   98.39   17.90
  -8   3   1   62.19   16.40
   7  -3  -1   48.20   10.30
   7  -3  -1   53.09   18.70
  -7  -3   1   72.79   16.10
  -7  -3   1   36.00   14.10
   7  -3  -1   47.90   13.90
  -7  -3   1   91.89   18.60
   7   3  -1   68.19   13.20
   7   3  -1   38.20   14.40
  -7   3   1   67.89   14.30
  -7   3   1   53.09   13.80
   7   3  -1   58.69   13.70
   7   3  -1   56.99   14.70
  -7   3   1   37.30   12.10
   6  -3  -1  115.59   13.70
  -6  -3   1   98.99   16.70
   6  -3  -1  100.49   16.50
  -6  -3   1  114.59   18.60
   6  -3  -1  111.79   20.40
  -6  -3   1  120.29   16.70
   6  -3  -1  101.29   19.00
  -6   3   1   96.39   15.20
   6   3  -1   84.79   16.60
   6   3  -1  103.79   16.30
   6   3  -1   92.19   15.60
   6   3  -1   95.39   16.40
  -6   3   1   88.89   15.80
  -6   3   1  104.79   16.40
   6   3  -1   63.29   12.50
   6   3  -1  104.79   19.00
   5  -3  -1  714.03   53.49
   5  -3  -1  704.83   46.60
  -5  -3   1  775.92   51.79
   5  -3  -1  948.71   52.09
  -5  -3   1  755.22   52.89
   5  -3  -1  722.43   49.99
   5  -3  -1  677.93   54.49
  -5  -3   1  761.42   50.59
   5   3  -1  778.52   50.89
  -5   3   1  809.62   51.99
  -5   3   1  756.92   50.39
   5   3  -1  749.03   51.99
   5   3  -1  749.92   49.70
  -5   3   1  831.12   51.49
   5   3  -1  776.12   50.39
  -5   3   1  674.43   50.79
   5   3  -1  719.53   50.59
   4  -3  -1  414.96   34.50
  -4  -3   1  417.16   31.40
   4  -3  -1  427.76   28.00
   4  -3  -1  475.95   28.60
   4  -3  -1  492.65   31.90
  -4  -3   1  456.25   29.40
  -4  -3   1  402.86   30.50
  -4  -3   1  436.26   32.30
   4  -3  -1  421.66   34.00
  -4   3   1  472.75   32.00
   4   3  -1  391.86   30.70
  -4   3   1  468.45   31.60
   4   3  -1  428.46   31.30
  -4   3   1  397.46   31.50
   4   3  -1  439.86   30.50
   4   3  -1  415.46   30.50
  -4   3   1  392.86   30.00
   4   3  -1  391.46   31.40
  -3  -3   1  496.85   30.30
   3  -3  -1  451.65   27.40
  -3  -3   1  387.26   31.30
  -3  -3   1  467.65   31.50
   3  -3  -1  394.36   32.80
  -3  -3   1  454.45   27.90
  -3  -3   1  414.96   31.20
   3  -3  -1  444.86   29.70
  -3  -3   1  442.76   29.10
   3  -3  -1  475.45   33.80
   3  -3  -1  429.16   27.10
   3   3  -1  451.95   30.60
  -3   3   1  471.25   29.50
  -3   3   1  436.06   28.50
   3   3  -1  526.75   30.70
   3   3  -1  508.55   32.10
  -3   3   1  448.46   29.60
   3   3  -1  465.55   31.30
  -3   3   1  393.76   29.30
  -3   3   1  445.06   24.40
   3   3  -1  439.86   31.50
  -3   3   1  418.06   30.60
  -2  -3   1  288.47   20.70
  -2  -3   1  280.67   18.80
   2  -3  -1  280.07   23.90
  -2  -3   1  288.77   17.60
   2  -3  -1  298.17   16.90
  -2  -3   1  274.87   21.20
  -2  -3   1  281.87   20.50
   2  -3  -1  311.27   20.70
   2  -3  -1  268.27   19.30
  -2  -3   1  330.07   21.90
  -2  -3   1  290.77   19.50
   2  -3  -1  321.97   19.80
   2  -3  -1  288.67   22.50
  -2  -3   1  303.67   20.40
   2  -3  -1  284.97   16.80
  -2   3   1  293.37   18.10
   2   3  -1  306.47   20.10
   2   3  -1  326.57   21.80
  -2   3   1  267.27   18.70
   2   3  -1  268.47   19.70
  -2   3   1  282.77   20.20
  -2   3   1  312.07   23.40
  -2   3   1  280.17   22.40
   2   3  -1  269.07   20.30
   2   3  -1  285.67   20.70
   2   3  -1  297.57   21.10
  -2   3   1  289.87   18.70
  -2   3   1  316.67   20.10
  -2   3   1  295.07   19.70
  -2   3   1  307.07   23.30
  -1  -3   1 1278.47   66.89
  -1  -3   1 1223.68   66.89
  -1  -3   1 1169.18   68.69
  -1  -3   1 1236.28   71.09
   1  -3  -1 1211.58   68.19
  -1  -3   1 1212.58   70.69
   1  -3  -1 1246.78   72.39
  -1  -3   1 1242.68   68.99
  -1  -3   1 1152.28   69.19
   1  -3  -1 1172.58   72.49
   1  -3  -1 1178.48   68.89
  -1  -3   1 1210.28   68.49
   1   3  -1 1230.08   68.19
  -1   3   1 1312.37   68.59
  -1   3   1 1207.78   71.89
   1   3  -1 1195.98   68.99
   1   3  -1 1134.39   68.79
  -1   3   1 1433.56   73.59
  -1   3   1 1261.17   68.99
  -1   3   1 1322.27   67.49
  -1   3   1 1230.68   68.39
  -1   3   1 1265.07   72.09
   1   3  -1 1181.88   70.59
   1   3  -1 1250.57   68.49
  -1   3   1 1211.08   71.59
  -1   3   1 1207.48   67.39
   1   3  -1 1397.26   72.29
   1   3  -1 1301.27   70.79
   1   3  -1 1136.39   67.39
   1   3  -1 1182.58   67.99
  -1   3   1 1227.78   68.89
   1   3  -1 1246.08   69.29
   0  -3   1 1899.91  104.09
   0  -3   1 1781.92  107.19
   0  -3   1 1812.02  107.19
   0  -3   1 1871.31  107.99
   0  -3   1 1904.71  103.99
   0  -3  -1 1931.41  105.29
   0  -3  -1 1860.61  107.59
   0  -3   1 1821.22  107.19
   0  -3  -1 1833.72  108.49
   0  -3  -1 2097.69  105.99
   0   3  -1 1937.51  107.29
   0   3   1 1942.71  104.59
   0   3   1 2185.68  105.99
   0   3   1 1882.71  107.69
   0   3  -1 1849.71  104.29
   0   3   1 1875.31  107.29
   0   3  -1 2020.90  107.89
   0   3  -1 1849.52  107.39
   0   3  -1 1888.31  107.39
   0   3  -1 1879.31  105.49
   0   3   1 1892.21  105.29
   0   3   1 2051.49  105.99
   0   3  -1 1878.11  107.19
   0   3  -1 1979.30  104.29
   0   3   1 2007.60  104.49
   0   3   1 1929.41  105.49
   0   3   1 1959.90  108.79
   1  -3   1  826.72   47.20
   1  -3   1  826.32   51.69
   1  -3   1  814.22   49.00
   1  -3   1  823.02   47.30
  -1  -3  -1  830.02   50.39
  -1  -3  -1  884.31   49.40
   1  -3   1  814.82   51.39
  -1  -3  -1  877.21   47.90
   1  -3   1  863.31   51.99
  -1  -3  -1  816.82   48.00
  -1  -3  -1  824.02   47.80
  -1  -3  -1  794.22   46.70
  -1  -3  -1  808.32   49.30
  -1  -3  -1  819.62   49.40
   1  -3   1  829.32   50.09
  -1  -3  -1  801.22   49.60
  -1  -3  -1  916.21   50.49
  -1   3  -1  918.11   47.60
  -1   3  -1  963.50   52.49
   1   3   1  863.31   47.80
   1   3   1  817.82   48.70
   1   3   1  803.42   49.99
   1   3   1  895.61   48.70
  -1   3  -1  843.22   45.90
  -1   3  -1  857.71   45.90
  -1   3  -1  814.22   47.50
   1   3   1  865.61   49.80
  -1   3  -1  829.12   51.49
  -1   3  -1  857.81   49.90
  -1   3  -1  868.21   51.49
  -1   3  -1  892.91   50.79
   1   3   1  947.51   49.80
  -1   3  -1  860.71   49.10
  -1   3  -1  851.11   50.79
  -1   3  -1  809.82   47.60
   1   3   1  823.62   50.19
  -2  -3  -1  279.17   21.30
   2  -3   1  294.87   23.00
   2  -3   1  301.97   19.30
  -2  -3  -1  295.27   21.20
   2  -3   1  276.87   23.80
  -2  -3  -1  279.57   20.20
  -2  -3  -1  277.17   22.30
   2  -3   1  299.47   24.90
   2  -3   1  277.47   21.80
   2  -3   1  309.77   20.50
  -2  -3  -1  298.97   21.90
  -2  -3  -1  278.67   20.20
  -2  -3  -1  312.77   22.20
   2  -3   1  285.77   19.80
   2   3   1  316.07   23.30
   2   3   1  336.27   22.90
  -2   3  -1  329.07   19.30
   2   3   1  332.47   20.90
   2   3   1  304.57   21.80
  -2   3  -1  288.37   23.60
   2   3   1  280.97   21.80
  -2   3  -1  277.57   20.40
   2   3   1  316.57   22.30
  -2   3  -1  309.47   23.50
   2   3   1  298.17   20.80
  -2   3  -1  311.37   21.40
   2   3   1  339.07   22.70
  -2   3  -1  342.57   21.60
  -2   3  -1  306.97   23.50
  -2   3  -1  307.57   19.20
  -2   3  -1  307.37   20.30
  -2   3  -1  304.07   19.60
  -2   3  -1  332.77   23.50
   3  -3   1  198.58   17.40
  -3  -3  -1  175.28   15.40
  -3  -3  -1  160.38   17.60
   3  -3   1  190.68   20.20
  -3  -3  -1  169.28   15.70
  -3  -3  -1  165.28   16.70
   3  -3   1  165.98   12.10
   3  -3   1  184.98   21.40
   3  -3   1  178.98   14.60
   3  -3   1  182.68   11.40
   3  -3   1  173.78   12.30
   3   3   1  199.48   17.90
  -3   3  -1  187.58   14.20
   3   3   1  125.49   15.30
   3   3   1  157.48   14.70
   3   3   1  155.88   12.80
  -3   3  -1  143.59   14.80
   3   3   1  166.58   18.60
  -3   3  -1  181.28   14.80
   3   3   1  186.88   17.60
  -3   3  -1  149.59   17.40
   3   3   1  209.88   16.10
   3   3   1  144.19   16.60
  -3   3  -1  155.38   11.00
  -3   3  -1  155.48   14.10
   4  -3   1  257.27   25.10
  -4  -3  -1  275.37   22.80
   4  -3   1  243.58   23.20
   4  -3   1  261.07   26.00
   4  -3   1  256.87   18.90
   4  -3   1  259.87   18.80
   4  -3   1  280.37   22.50
  -4  -3  -1  291.97   24.70
  -4  -3  -1  285.77   23.30
   4   3   1  288.47   22.80
   4   3   1  253.97   22.80
  -4   3  -1  268.67   21.70
   4   3   1  284.17   19.40
  -4   3  -1  245.58   22.30
  -4   3  -1  254.57   21.20
   4   3   1  268.37   23.40
  -4   3  -1  229.38   22.30
   5  -3   1  164.78   20.90
  -5  -3  -1   88.19   14.90
  -5  -3  -1  129.19   17.90
   5  -3   1  136.39   17.80
   5  -3   1  130.49   21.00
   5  -3   1  111.29   13.20
   5  -3   1  132.09   13.90
  -5  -3  -1  115.79   16.90
   5  -3   1  134.99   20.20
  -5   3  -1  150.68   19.60
   5   3   1  133.79   18.20
   5   3   1  129.39   12.80
  -5   3  -1  134.09   17.60
  -5   3  -1  151.48   18.90
   5   3   1  130.09   18.90
  -5   3  -1  137.99   17.70
   5   3   1  122.39   16.60
   6  -3   1  281.87   30.80
  -6  -3  -1  239.28   26.50
  -6  -3  -1  227.68   27.80
   6  -3   1  222.08   30.80
   6  -3   1  275.07   21.60
   6  -3   1  225.68   27.60
  -6  -3  -1  299.87   25.80
  -6   3  -1  307.77   31.50
   6   3   1  198.78   25.80
  -6   3  -1  273.87   25.70
  -6   3  -1  282.47   26.30
   6   3   1  276.17   24.40
   6   3   1  244.68   28.10
   6   3   1  199.38   24.00
  -7  -3  -1  416.86   41.60
   7  -3   1  461.05   41.60
  -7  -3  -1  456.85   39.20
  -7  -3  -1  423.16   37.60
   7  -3   1  454.95   45.20
   7  -3   1  475.55   41.50
  -7   3  -1  453.55   39.00
   7   3   1  470.25   39.20
   7   3   1  481.35   42.20
   7   3   1  460.25   43.10
  -7   3  -1  466.25   39.10
   7   3   1  480.25   41.10
  -7   3  -1  430.26   40.30
   7   3   1  477.65   38.30
   7  -4  -1   92.79   22.90
  -7  -4   1  163.98   22.70
   7  -4  -1  117.59   22.90
  -7  -4   1   98.69   19.00
  -7  -4   1  124.39   19.00
  -7  -4   1  120.59   22.50
  -7   4   1   98.29   20.10
  -7   4   1  113.19   19.20
  -7   4   1  119.79   18.80
   7   4  -1  105.99   20.10
   7   4  -1  101.19   20.40
   7   4  -1  143.69   20.00
   7   4  -1   90.19   16.80
   7   4  -1  127.39   21.80
   6  -4  -1  138.29   23.40
  -6  -4   1  166.98   22.50
   6  -4  -1  175.18   25.40
  -6  -4   1  123.59   17.40
  -6  -4   1  138.49   21.80
  -6  -4   1  110.39   18.90
   6   4  -1  148.59   19.90
   6   4  -1  112.59   18.00
   6   4  -1  152.88   19.20
  -6   4   1  133.99   20.40
  -6   4   1  145.59   19.10
   6   4  -1  134.59   18.80
  -6   4   1  151.08   20.00
   6   4  -1  138.79   20.00
  -5  -4   1   46.90   10.70
   5  -4  -1   30.50    7.90
   5  -4  -1   34.90    6.70
  -5  -4   1   39.70    9.90
  -5  -4   1   52.19    9.40
   5  -4  -1   37.20   14.00
   5  -4  -1   38.70    6.10
  -5  -4   1   30.50    8.60
   5  -4  -1   27.20    9.90
  -5  -4   1   39.40   10.90
   5   4  -1   31.80    9.10
  -5   4   1   32.60    9.20
  -5   4   1   46.90    9.70
  -5   4   1   45.40   10.50
   5   4  -1   40.60   10.30
   5   4  -1   28.60    9.50
   5   4  -1   54.79   11.40
  -5   4   1   38.00    9.70
   5   4  -1   27.10    9.50
   4  -4  -1  558.64   44.40
   4  -4  -1  567.44   33.60
  -4  -4   1  633.54   41.40
  -4  -4   1  624.54   40.90
  -4  -4   1  535.05   37.30
  -4  -4   1  537.75   35.50
   4  -4  -1  553.94   42.30
   4  -4  -1  596.84   33.80
  -4  -4   1  494.75   39.60
   4  -4  -1  534.45   37.40
   4   4  -1  563.44   40.20
  -4   4   1  636.04   40.70
  -4   4   1  534.45   38.20
   4   4  -1  611.24   38.50
   4   4  -1  543.35   39.40
   4   4  -1  558.34   39.70
  -4   4   1  546.95   37.20
   4   4  -1  534.55   39.30
  -4   4   1  665.83   39.20
   3  -4  -1  254.07   17.20
  -3  -4   1  209.18   19.10
  -3  -4   1  181.18   17.60
  -3  -4   1  256.77   20.00
   3  -4  -1  224.88   20.50
  -3  -4   1  244.88   17.00
  -3  -4   1  205.38   16.40
   3  -4  -1  241.08   23.20
  -3  -4   1  219.88   15.30
   3   4  -1  216.18   18.90
  -3   4   1  210.38   17.30
  -3   4   1  200.38   16.50
  -3   4   1  196.28   18.30
  -3   4   1  224.68   16.70
  -3   4   1  229.08   16.40
  -3   4   1  213.88   13.60
   3   4  -1  201.58   17.90
   3   4  -1  215.88   19.30
   3   4  -1  184.68   16.60
   2  -4  -1  604.54   35.30
  -2  -4   1  513.95   36.00
   2  -4  -1  520.05   32.30
  -2  -4   1  526.65   31.30
  -2  -4   1  558.64   34.50
   2  -4  -1  515.85   37.90
  -2  -4   1  564.24   34.30
  -2  -4   1  546.25   31.80
  -2  -4   1  518.75   34.10
  -2  -4   1  528.85   35.10
   2  -4  -1  459.05   36.20
  -2  -4   1  538.95   32.20
  -2   4   1  535.15   37.10
  -2   4   1  605.84   38.30
   2   4  -1  535.45   31.20
  -2   4   1  561.04   32.80
  -2   4   1  534.75   31.60
   2   4  -1  544.35   34.50
  -2   4   1  527.05   34.00
  -2   4   1  536.15   37.70
  -2   4   1  556.24   32.90
   2   4  -1  541.05   34.30
  -2   4   1  526.05   31.80
   2   4  -1  544.05   34.40
   2   4  -1  520.95   34.50
   2   4  -1  541.45   33.60
   2   4  -1  552.24   33.30
  -1  -4   1  124.89   12.80
   1  -4  -1  113.29    9.10
  -1  -4   1  132.79   11.80
   1  -4  -1  141.99   16.10
   1  -4  -1  130.89   15.90
  -1  -4   1  122.99   10.60
  -1  -4   1  120.59   13.60
  -1  -4   1  124.99   10.00
   1  -4  -1  118.49    9.30
   1   4  -1  136.59   14.80
   1   4  -1  130.79   12.00
   1   4  -1  118.79   10.50
  -1   4   1  153.98    9.80
   1   4  -1  111.39    9.90
   1   4  -1  116.99   13.40
  -1   4   1  155.28   14.80
  -1   4   1  137.09    9.60
  -1   4   1  130.89   12.90
   1   4  -1  122.19   10.30
   1   4  -1  131.69    9.30
   1   4  -1  133.49    9.20
  -1   4   1  121.29   10.70
  -1   4   1  128.99    8.00
   1   4  -1  127.29   11.20
  -1   4   1  151.98   15.30
  -1   4   1  139.69   14.90
   1   4  -1  133.39    9.70
  -1   4   1  149.39   14.60
  -1   4   1  151.88   11.60
  -1   4   1  138.79    8.10
   0  -4  -1 1363.36   68.79
   0  -4  -1 1294.67   66.79
   0  -4  -1 1446.06   73.19
   0  -4   1 1224.78   69.99
   0  -4  -1 1259.37   70.39
   0  -4   1 1141.49   69.69
   0  -4   1 1242.08   64.99
   0  -4   1 1142.69   69.99
   0  -4   1 1126.09   70.39
   0  -4   1 1138.19   64.89
   0   4   1 1139.29   69.89
   0   4   1 1266.37   67.19
   0   4  -1 1170.78   65.49
   0   4  -1 1100.59   69.59
   0   4   1 1138.69   66.79
   0   4  -1 1156.58   69.39
   0   4  -1 1218.08   69.99
   0   4   1 1189.28   65.79
   0   4   1 1208.78   68.19
   0   4  -1 1334.77   71.09
   0   4   1 1239.78   65.79
   0   4   1 1141.39   71.29
   0   4   1 1167.68   67.99
   0   4  -1 1129.99   70.09
   0   4  -1 1193.08   65.59
   0   4  -1 1146.09   67.89
   0   4   1 1209.08   69.89
   0   4  -1 1142.39   69.69
   0   4   1 1113.19   71.29
   1  -4   1  107.09   13.30
   1  -4   1  114.59   13.50
  -1  -4  -1  127.89    8.40
  -1  -4  -1  119.89   10.40
  -1  -4  -1  124.49   11.80
  -1  -4  -1  117.49   12.70
  -1  -4  -1  125.19    8.50
   1  -4   1  122.69    7.70
  -1  -4  -1  125.99    9.10
   1  -4   1  120.29   12.90
   1  -4   1  152.88   14.60
  -1  -4  -1  105.99   12.30
   1  -4   1  123.39    7.80
  -1  -4  -1  118.69   10.60
   1   4   1  111.39   14.60
   1   4   1  103.89   10.80
  -1   4  -1  112.69   12.80
  -1   4  -1  103.89   12.40
  -1   4  -1  121.89    8.40
  -1   4  -1  123.09   14.20
   1   4   1  126.89   10.00
  -1   4  -1  135.29   13.60
   1   4   1  128.69   13.40
  -1   4  -1  103.59   12.30
   1   4   1  126.39   11.30
  -1   4  -1  107.79   10.50
   1   4   1  110.79   10.70
   1   4   1  120.39   10.30
  -1   4  -1  114.09    8.10
  -1   4  -1  108.79   13.40
   1   4   1  135.49    9.60
   1   4   1  108.49    8.90
  -2  -4  -1 1424.46   75.39
  -2  -4  -1 1272.27   75.49
  -2  -4  -1 1403.46   77.59
   2  -4   1 1306.87   80.79
  -2  -4  -1 1329.37   77.49
   2  -4   1 1345.37   78.39
   2  -4   1 1230.88   79.89
  -2  -4  -1 1452.75   75.99
   2  -4   1 1392.66   74.69
  -2  -4  -1 1277.77   77.69
  -2  -4  -1 1334.87   73.69
  -2   4  -1 1315.67   77.49
   2   4   1 1311.67   77.99
   2   4   1 1305.37   75.99
   2   4   1 1302.87   76.99
  -2   4  -1 1320.17   82.69
  -2   4  -1 1291.27   74.89
  -2   4  -1 1222.88   74.49
   2   4   1 1344.57   76.69
  -2   4  -1 1333.67   73.49
   2   4   1 1312.47   77.29
   2   4   1 1399.56   78.49
  -2   4  -1 1287.97   78.39
  -2   4  -1 1311.77   74.99
  -2   4  -1 1291.67   73.79
   2   4   1 1303.97   75.49
   2   4   1 1329.17   77.59
  -2   4  -1 1357.06   73.59
  -3  -4  -1  117.39   13.10
   3  -4   1   99.39   13.10
  -3  -4  -1   96.89   11.80
  -3  -4  -1  104.89   13.40
   3  -4   1   91.99   14.10
   3  -4   1   90.09   14.80
  -3  -4  -1  115.99   12.80
  -3  -4  -1   85.29   12.20
   3  -4   1   87.79   10.40
  -3   4  -1  101.49   10.30
   3   4   1  109.19   14.00
   3   4   1  109.29   12.30
  -3   4  -1   84.89   10.70
  -3   4  -1   98.49   13.00
   3   4   1   90.19   12.30
  -3   4  -1   97.99    7.70
  -3   4  -1   95.69   10.70
   3   4   1   91.49   12.50
   3   4   1   97.19    8.80
   3   4   1   91.69   12.80
   3   4   1   79.39   11.30
  -3   4  -1  107.59   11.40
   3   4   1   84.59   11.20
   4  -4   1   -3.00    3.70
  -4  -4  -1    4.90    4.90
  -4  -4  -1    3.50    5.40
   4  -4   1    6.30    5.30
   4  -4   1   -3.40    6.90
   4  -4   1    6.80    6.40
  -4  -4  -1   -1.10    5.10
   4  -4   1    1.40    2.20
   4  -4   1   -1.60    1.70
  -4   4  -1   -2.50    5.80
   4   4   1    1.80    2.70
  -4   4  -1   10.90    5.50
  -4   4  -1    2.90    4.40
   4   4   1    2.60    4.80
   4   4   1    0.80    5.20
   4   4   1    5.80    5.50
  -4   4  -1    1.30    4.40
   4   4   1    2.50    5.30
  -5  -4  -1 1223.68   69.89
   5  -4   1 1152.48   71.89
  -5  -4  -1 1082.39   68.99
   5  -4   1  965.50   73.89
   5  -4   1 1045.50   67.79
   5  -4   1 1079.39   73.19
  -5  -4  -1 1151.08   71.69
   5   4   1 1049.49   68.39
   5   4   1 1038.30   70.69
  -5   4  -1 1165.48   68.59
   5   4   1 1029.10   69.39
  -5   4  -1 1031.50   69.89
   5   4   1 1066.99   62.39
  -5   4  -1 1020.90   67.89
  -6  -4  -1  260.07   24.80
   6  -4   1  256.67   30.30
   6  -4   1  230.48   31.90
  -6  -4  -1  260.37   27.90
   6  -4   1  221.28   28.00
  -6  -4  -1  247.98   29.40
   6   4   1  249.18   26.70
   6   4   1  260.47   28.80
  -6   4  -1  294.07   26.30
  -6   4  -1  267.57   28.80
  -6   4  -1  261.87   24.80
   6   4   1  268.17   28.80
   7  -4   1  124.89   24.90
  -7  -4  -1  153.28   22.20
   7  -4   1  142.09   23.80
   7  -4   1  117.09   20.80
  -7  -4  -1  107.39   18.90
  -7  -4  -1  110.79   21.20
  -7   4  -1   91.39   17.10
   7   4   1  152.28   20.10
  -7   4  -1  107.29   18.00
   7   4   1   85.89   17.70
   7   4   1  109.49   18.10
   7   4   1  127.79   20.90
  -7   4  -1  108.99   19.00
  -7  -5   1  508.75   40.80
   7  -5  -1  461.75   49.40
  -7  -5   1  501.45   42.70
  -7  -5   1  468.25   43.80
   7  -5  -1  525.95   47.10
  -7  -5   1  526.45   46.20
  -7   5   1  547.55   45.20
   7   5  -1  518.45   42.80
  -7   5   1  529.25   42.10
   7   5  -1  577.84   46.70
   7   5  -1  438.96   41.10
   7   5  -1  564.14   46.80
   7   5  -1  605.64   44.50
   7   5  -1  581.04   43.40
  -7   5   1  447.16   41.20
  -6  -5   1  131.69   21.40
  -6  -5   1  111.19   18.90
  -6  -5   1  134.79   19.00
   6  -5  -1   94.39   22.70
   6  -5  -1  138.39   23.50
  -6  -5   1  113.99   15.90
   6   5  -1  127.19   17.70
   6   5  -1  110.49   17.60
  -6   5   1   95.59   16.80
   6   5  -1  128.19   18.50
  -6   5   1  101.39   18.10
   6   5  -1   84.99   15.80
  -6   5   1  105.59   16.90
   6   5  -1  119.09   19.10
   5  -5  -1  340.77   32.70
  -5  -5   1  376.66   31.80
  -5  -5   1  356.46   31.70
   5  -5  -1  338.77   33.90
  -5  -5   1  351.16   29.30
  -5  -5   1  295.97   26.70
   5  -5  -1  380.36   28.00
   5   5  -1  315.37   28.50
  -5   5   1  355.56   30.50
   5   5  -1  419.26   29.80
   5   5  -1  403.46   30.10
   5   5  -1  293.67   29.10
  -5   5   1  354.66   28.20
   5   5  -1  293.07   28.40
  -5   5   1  337.67   28.10
  -4  -5   1  399.56   30.30
  -4  -5   1  312.57   28.70
  -4  -5   1  354.56   24.60
  -4  -5   1  359.86   29.10
  -4  -5   1  397.46   27.10
   4  -5  -1  365.56   26.70
   4  -5  -1  348.87   31.00
   4  -5  -1  456.45   36.50
   4   5  -1  337.97   27.40
   4   5  -1  297.67   28.00
  -4   5   1  384.56   27.00
   4   5  -1  386.66   29.90
   4   5  -1  390.66   29.10
   4   5  -1  411.26   31.40
  -4   5   1  344.37   26.90
  -4   5   1  346.37   28.30
  -4   5   1  386.36   27.00
   3  -5  -1  357.36   30.20
  -3  -5   1  370.06   22.00
  -3  -5   1  313.47   22.00
  -3  -5   1  331.57   26.60
  -3  -5   1  309.47   24.90
  -3  -5   1  321.67   22.50
   3  -5  -1  332.47   22.70
  -3  -5   1  327.97   25.50
   3  -5  -1  330.47   28.00
  -3   5   1  326.37   22.10
   3   5  -1  329.97   21.30
   3   5  -1  379.96   26.50
  -3   5   1  289.17   24.70
   3   5  -1  344.37   26.10
   3   5  -1  292.57   24.40
  -3   5   1  352.16   23.50
  -3   5   1  323.97   20.90
  -3   5   1  357.26   23.40
   3   5  -1  318.67   24.00
  -3   5   1  324.37   22.40
  -2  -5   1  238.78   19.20
  -2  -5   1  250.97   14.30
   2  -5  -1  236.28   22.30
  -2  -5   1  233.88   20.60
  -2  -5   1  236.68   15.70
   2  -5  -1  272.37   24.10
   2  -5  -1  249.18   15.70
   2  -5  -1  246.68   19.00
  -2  -5   1  239.28   19.40
  -2  -5   1  209.38   14.10
   2  -5  -1  228.08   15.50
  -2  -5   1  232.18   17.60
  -2   5   1  222.58   14.90
  -2   5   1  177.78   21.40
   2   5  -1  235.38   16.90
   2   5  -1  232.88   17.30
   2   5  -1  208.28   17.80
   2   5  -1  227.28   14.90
   2   5  -1  215.68   17.70
  -2   5   1  223.28   15.90
   2   5  -1  247.38   15.50
  -2   5   1  224.58   15.90
   2   5  -1  222.58   19.10
   2   5  -1  226.88   18.10
  -2   5   1  242.58   15.20
  -2   5   1  213.48   17.90
  -2   5   1  269.17   18.90
  -1  -5   1  158.88   13.80
  -1  -5   1  174.88   13.90
  -1  -5   1  165.78   15.70
  -1  -5   1  159.48   12.00
   1  -5  -1  155.38   11.00
   1  -5  -1  159.18   10.90
   1  -5  -1  159.38   13.90
   1  -5  -1  158.58   18.70
   1  -5  -1  193.58   19.80
  -1  -5   1  164.08   12.00
  -1  -5   1  148.99   16.20
   1   5  -1  166.28   13.70
   1   5  -1  160.68   12.80
  -1   5   1  164.48   11.50
   1   5  -1  196.08   16.90
  -1   5   1  208.18   18.00
   1   5  -1  173.58   13.20
   1   5  -1  174.68   13.90
  -1   5   1  194.18   18.40
  -1   5   1  178.48   21.10
   1   5  -1  168.78   15.40
   1   5  -1  178.48   12.70
   1   5  -1  190.18   11.70
  -1   5   1  162.48   14.10
  -1   5   1  157.48   18.00
  -1   5   1  175.98   13.40
  -1   5   1  167.38   11.50
   1   5  -1  171.88   11.30
   1   5  -1  165.68   15.00
  -1   5   1  168.98   15.90
   0  -5   1  289.87   21.80
   0  -5  -1  242.68   20.80
   0  -5   1  302.67   22.40
   0  -5  -1  285.97   22.90
   0  -5  -1  286.77   17.10
   0  -5  -1  300.57   19.80
   0  -5   1  271.97   20.50
   0  -5  -1  269.77   16.90
   0  -5   1  258.87   21.00
   0  -5  -1  277.67   16.80
   0   5  -1  241.68   20.40
   0   5  -1  257.27   20.30
   0   5   1  279.27   19.50
   0   5   1  251.77   17.00
   0   5  -1  253.17   18.60
   0   5  -1  275.47   21.40
   0   5  -1  251.77   20.40
   0   5   1  258.27   17.30
   0   5   1  255.47   15.60
   0   5   1  245.58   20.30
   0   5   1  256.97   20.20
   0   5  -1  251.77   21.00
   0   5  -1  252.97   15.30
   0   5  -1  249.28   15.40
   0   5   1  262.37   18.80
   0   5  -1  242.48   20.70
   0   5   1  266.37   22.40
   0   5   1  254.17   22.20
   0   5   1  247.48   15.70
   0   5   1  268.97   20.70
   1  -5   1  127.89   15.90
  -1  -5  -1  149.09   11.40
  -1  -5  -1  125.29   11.60
  -1  -5  -1  135.79   12.00
   1  -5   1  142.59   16.70
   1  -5   1  115.69   15.90
   1  -5   1  140.19   15.60
  -1  -5  -1  134.79   13.70
  -1  -5  -1  141.49   13.10
   1   5   1  110.89   14.10
   1   5   1  132.69   11.00
   1   5   1  149.39   11.50
   1   5   1  145.59   11.20
  -1   5  -1  152.28   15.60
  -1   5  -1  147.49    9.10
  -1   5  -1  125.79   14.10
  -1   5  -1  151.68   16.20
  -1   5  -1  143.69   18.20
   1   5   1  164.48   12.50
  -1   5  -1  151.28    9.00
   1   5   1  150.38   12.10
   1   5   1  143.99   12.10
   1   5   1  143.29   13.90
  -1   5  -1  152.58   16.60
  -1   5  -1  146.09   15.60
  -1   5  -1  136.59   12.90
   2  -5   1  266.57   24.30
  -2  -5  -1  267.57   17.70
  -2  -5  -1  236.48   20.70
  -2  -5  -1  244.38   20.70
   2  -5   1  284.97   22.60
   2  -5   1  231.88   22.60
  -2  -5  -1  255.87   21.00
   2  -5   1  265.37   17.20
  -2  -5  -1  258.37   18.10
  -2  -5  -1  302.67   18.70
   2  -5   1  277.87   17.50
  -2   5  -1  284.47   19.70
   2   5   1  297.67   21.10
   2   5   1  272.97   19.20
   2   5   1  277.77   20.70
   2   5   1  281.57   22.60
  -2   5  -1  261.67   17.90
  -2   5  -1  261.07   21.80
   2   5   1  262.67   20.60
  -2   5  -1  276.17   18.20
  -2   5  -1  276.57   16.90
  -2   5  -1  274.17   16.60
   2   5   1  250.57   20.70
  -2   5  -1  301.67   23.30
   2   5   1  323.17   20.70
  -3  -5  -1  297.77   23.50
  -3  -5  -1  276.27   24.70
   3  -5   1  263.67   26.70
  -3  -5  -1  297.57   24.90
   3  -5   1  250.87   27.40
  -3  -5  -1  346.07   23.60
  -3  -5  -1  310.27   21.80
  -3  -5  -1  288.97   20.10
   3  -5   1  379.76   27.10
  -3  -5  -1  300.87   22.30
   3   5   1  332.17   25.20
  -3   5  -1  330.47   22.20
  -3   5  -1  315.87   20.10
  -3   5  -1  293.47   21.00
   3   5   1  265.57   23.00
   3   5   1  317.67   25.20
   3   5   1  294.47   24.30
   3   5   1  271.57   23.90
  -3   5  -1  308.17   20.60
   3   5   1  299.17   23.30
  -3   5  -1  291.07   21.40
  -3   5  -1  337.57   26.30
   3   5   1  333.77   25.00
  -4  -5  -1  213.28   20.70
   4  -5   1  217.68   24.10
   4  -5   1  201.38   25.20
  -4  -5  -1  190.78   18.80
  -4  -5  -1  209.68   19.70
   4  -5   1  188.88   17.70
   4  -5   1  200.68   26.50
  -4  -5  -1  188.58   22.70
   4   5   1  219.18   20.00
  -4   5  -1  214.28   12.50
   4   5   1  212.68   22.40
   4   5   1  204.68   14.50
  -4   5  -1  208.28   23.00
  -4   5  -1  223.18   18.10
   4   5   1  198.58   22.40
  -4   5  -1  207.28   18.30
   4   5   1  201.58   19.10
  -4   5  -1  241.08   19.70
  -5  -5  -1  322.37   27.90
   5  -5   1  348.07   30.70
  -5  -5  -1  290.47   26.10
   5  -5   1  295.37   33.60
  -5  -5  -1  346.57   29.80
   5  -5   1  344.77   35.50
   5   5   1  285.77   27.10
  -5   5  -1  335.67   27.50
   5   5   1  330.77   29.30
  -5   5  -1  309.77   26.50
   5   5   1  299.57   28.50
  -5   5  -1  325.97   29.00
  -6  -5  -1  363.76   33.00
  -6  -5  -1  335.27   30.50
   6  -5   1  448.06   37.50
  -6  -5  -1  354.76   33.60
   6  -5   1  488.95   40.30
   6  -5   1  477.25   44.30
  -6   5  -1  339.47   31.90
   6   5   1  398.46   35.80
  -6   5  -1  354.56   31.70
   6   5   1  351.76   33.70
   6   5   1  342.97   32.30
  -6   5  -1  367.76   33.90
  -7  -5  -1  135.09   19.40
  -7  -5  -1   90.09   18.20
   7  -5   1  104.89   22.50
   7  -5   1  123.39   25.20
  -7  -5  -1   94.79   17.30
   7  -5   1   88.29   19.40
  -7   5  -1  108.49   18.40
  -7   5  -1   84.89   18.00
   7   5   1   89.59   17.20
  -7   5  -1  100.69   18.50
   7   5   1  104.79   20.20
   7   5   1   90.99   17.10
   7   5   1   78.69   17.80
  -7  -6   1   27.50   12.40
  -7  -6   1    3.20    8.70
   7  -6  -1    8.60   14.20
   7  -6  -1    9.70    9.50
  -7  -6   1    8.60   10.10
   7   6  -1    5.40    9.40
   7   6  -1   10.20    9.80
   7   6  -1    5.80   10.40
   7   6  -1   26.00   13.30
   7   6  -1   20.90   11.40
  -7   6   1   43.80   14.20
  -7   6   1   13.30   10.60
  -7   6   1    8.20    6.60
  -6  -6   1  382.46   30.90
  -6  -6   1  398.36   34.80
  -6  -6   1  256.97   33.30
   6  -6  -1  506.95   45.40
   6  -6  -1  427.06   38.70
  -6  -6   1  352.26   33.40
  -6   6   1  387.46   34.40
   6   6  -1  384.46   34.70
   6   6  -1  363.26   31.70
   6   6  -1  396.16   34.80
   6   6  -1  430.06   35.70
  -6   6   1  357.86   31.40
   6   6  -1  337.47   30.70
  -6   6   1  405.66   32.80
  -5  -6   1  194.78   22.70
  -5  -6   1  187.48   23.90
  -5  -6   1  200.08   19.40
   5  -6  -1  239.68   28.60
  -5  -6   1  203.78   21.00
  -5  -6   1  233.98   25.60
   5  -6  -1  171.48   26.90
  -5   6   1  180.88   20.60
   5   6  -1  247.98   23.90
  -5   6   1  235.58   25.00
   5   6  -1  190.28   23.30
   5   6  -1  235.98   24.90
   5   6  -1  219.88   23.50
   5   6  -1  209.98   24.40
  -5   6   1  215.68   22.00
  -4  -6   1  172.68   14.70
   4  -6  -1  188.98   16.10
  -4  -6   1  157.88   15.50
  -4  -6   1  175.18   16.80
   4  -6  -1  166.48   23.40
  -4  -6   1  192.28   22.70
  -4  -6   1  178.78   20.50
   4  -6  -1  155.98   23.90
  -4  -6   1  176.88   18.00
  -4   6   1  179.68   16.90
  -4   6   1  207.88   17.20
   4   6  -1  191.68   21.60
  -4   6   1  201.68   21.40
  -4   6   1  175.88   11.90
   4   6  -1  199.78   23.30
  -4   6   1  182.08   11.80
   4   6  -1  196.08   21.60
  -4   6   1  176.08   16.50
   4   6  -1  170.28   19.70
   4   6  -1  213.98   19.00
  -3  -6   1  299.27   24.00
  -3  -6   1  302.87   20.10
   3  -6  -1  302.97   21.40
  -3  -6   1  344.97   21.20
  -3  -6   1  284.17   24.00
   3  -6  -1  348.67   29.50
   3  -6  -1  276.57   29.40
  -3  -6   1  273.87   26.30
  -3  -6   1  331.57   20.60
  -3   6   1  323.37   21.10
   3   6  -1  292.87   20.60
   3   6  -1  383.16   26.00
   3   6  -1  291.27   24.90
  -3   6   1  313.87   22.10
  -3   6   1  322.77   21.40
  -3   6   1  285.77   23.90
  -3   6   1  360.86   22.50
   3   6  -1  355.66   26.10
   3   6  -1  267.77   22.30
   2  -6  -1 1239.58   67.49
  -2  -6   1 1180.18   74.49
   2  -6  -1 1161.98   75.99
   2  -6  -1 1156.38   77.39
  -2  -6   1 1191.28   72.69
  -2  -6   1 1326.27   70.99
   2  -6  -1 1235.18   67.49
   2   6  -1 1274.57   68.79
   2   6  -1 1210.88   69.89
  -2   6   1 1191.98   67.09
  -2   6   1 1240.78   71.79
   2   6  -1 1211.58   70.89
   2   6  -1 1198.78   71.99
  -2   6   1 1201.88   66.99
   2   6  -1 1279.37   71.09
   2   6  -1 1229.18   68.79
  -2   6   1 1160.58   68.09
  -2   6   1 1181.88   75.59
  -2   6   1 1152.68   71.19
   2   6  -1 1160.88   69.29
  -2   6   1 1166.48   68.19
  -1  -6   1  270.97   22.30
   1  -6  -1  272.97   24.30
  -1  -6   1  302.27   20.90
   1  -6  -1  250.67   15.90
  -1  -6   1  254.47   17.40
  -1  -6   1  238.38   19.90
  -1  -6   1  270.17   22.30
  -1  -6   1  263.47   17.40
   1  -6  -1  260.07   16.00
   1  -6  -1  255.87   20.30
   1   6  -1  279.17   17.10
  -1   6   1  247.38   22.30
  -1   6   1  269.37   17.00
   1   6  -1  274.37   20.40
   1   6  -1  301.57   19.80
   1   6  -1  264.07   22.10
  -1   6   1  289.47   20.70
  -1   6   1  326.87   23.40
   1   6  -1  324.07   23.00
   1   6  -1  260.37   18.00
   1   6  -1  290.47   17.00
  -1   6   1  269.27   17.00
   1   6  -1  270.37   20.30
  -1   6   1  265.77   19.70
   1   6  -1  278.87   18.40
   0  -6  -1  880.51   54.89
   0  -6  -1  870.61   49.00
   0  -6   1  890.41   54.79
   0  -6   1  862.51   54.39
   0  -6  -1  844.42   52.69
   0  -6   1  831.82   54.89
   0  -6  -1  879.11   49.10
   0  -6  -1  875.11   57.09
   0   6   1  893.61   54.59
   0   6  -1  851.91   53.89
   0   6   1  883.41   52.89
   0   6  -1  834.62   47.60
   0   6  -1  891.11   55.49
   0   6  -1  943.81   53.69
   0   6   1  822.12   53.79
   0   6   1  829.82   49.40
   0   6   1  861.61   48.20
   0   6  -1  820.52   54.59
   0   6   1  924.91   52.99
   0   6   1  883.31   49.80
   0   6  -1  841.52   52.29
   0   6  -1  799.62   56.19
   0   6   1  838.72   54.39
   0   6   1  872.31   48.30
   0   6  -1  901.71   47.80
  -1  -6  -1  233.08   17.00
  -1  -6  -1  254.97   20.00
  -1  -6  -1  248.68   19.60
   1  -6   1  247.58   21.30
   1  -6   1  270.77   23.40
   1  -6   1  228.18   20.80
   1  -6   1  257.97   20.70
   1  -6   1  210.58   20.70
   1   6   1  209.88   16.20
  -1   6  -1  225.08   18.80
  -1   6  -1  223.58   19.20
   1   6   1  229.18   17.40
   1   6   1  237.38   17.10
   1   6   1  213.98   15.80
   1   6   1  210.18   19.10
   1   6   1  245.58   19.40
   1   6   1  187.38   17.80
   1   6   1  244.48   16.60
   1   6   1  255.97   17.50
   1   6   1  194.78   18.80
  -2  -6  -1  329.77   26.40
  -2  -6  -1  388.26   27.00
   2  -6   1  358.76   20.40
  -2  -6  -1  369.96   21.20
   2  -6   1  391.56   29.50
  -2  -6  -1  362.36   25.30
  -2  -6  -1  330.97   22.60
   2  -6   1  326.27   29.30
   2  -6   1  357.56   20.40
   2  -6   1  342.47   29.20
  -2  -6  -1  347.97   21.20
  -2   6  -1  351.76   21.70
   2   6   1  376.86   24.50
   2   6   1  345.57   27.50
  -2   6  -1  363.66   25.10
  -2   6  -1  340.67   20.10
  -2   6  -1  346.27   20.20
  -2   6  -1  333.37   26.90
   2   6   1  307.87   24.90
   2   6   1  391.16   26.30
   2   6   1  325.97   25.70
   2   6   1  361.46   26.30
  -2   6  -1  336.17   21.70
   2   6   1  330.77   24.00
   3  -6   1   97.19    9.60
   3  -6   1  111.29   18.10
   3  -6   1  104.49   17.80
  -3  -6  -1  106.29    9.80
   3  -6   1  100.89   15.90
  -3  -6  -1  100.69   14.50
  -3  -6  -1  104.39   13.90
  -3  -6  -1  111.89   10.60
  -3  -6  -1   89.79   10.70
   3   6   1  105.59   13.40
  -3   6  -1  120.39   10.80
   3   6   1  113.39   13.30
   3   6   1  126.29   16.50
   3   6   1  115.09   15.50
   3   6   1  125.59   15.40
  -3   6  -1  111.99   10.50
   3   6   1  111.29   14.80
  -3   6  -1  101.19   10.60
  -3   6  -1  129.39   16.70
  -3   6  -1  115.99   11.90
  -3   6  -1  108.49    9.80
  -3   6  -1  106.89    9.60
  -4  -6  -1   10.00    5.00
  -4  -6  -1   18.70    5.00
   4  -6   1    3.80    3.20
  -4  -6  -1    8.80    5.60
   4  -6   1   15.50   10.40
  -4  -6  -1   20.40    9.50
   4  -6   1   -2.60    5.50
  -4  -6  -1   13.90    6.60
   4  -6   1   19.90    7.40
  -4   6  -1    5.30    4.00
  -4   6  -1   26.10    6.80
   4   6   1   26.80    8.00
   4   6   1   39.40    9.60
   4   6   1   17.70    7.00
   4   6   1   28.10   10.60
  -4   6  -1   29.30    8.70
   4   6   1   19.50    3.50
  -4   6  -1   14.90    5.90
  -4   6  -1   14.90    3.30
  -5  -6  -1   69.59   13.00
   5  -6   1   62.29   17.40
   5  -6   1   40.30   13.80
  -5  -6  -1   55.09   13.70
  -5  -6  -1   54.09   10.50
  -5  -6  -1   47.30   11.40
   5  -6   1   42.10   12.20
  -5   6  -1   22.70    8.10
  -5   6  -1   35.10    9.10
   5   6   1   24.70   10.80
   5   6   1   15.50   10.60
  -5   6  -1   39.20   11.50
   5   6   1    9.50    8.50
  -6  -6  -1  311.87   34.30
   6  -6   1  356.76   39.10
   6  -6   1  333.67   40.40
  -6  -6  -1  383.06   34.30
  -6  -6  -1  361.06   29.90
  -6  -6  -1  358.56   31.50
  -6   6  -1  368.56   30.50
  -6   6  -1  269.47   32.70
   6   6   1  251.17   32.10
  -6   6  -1  364.96   29.80
   6   6   1  343.37   33.30
   6   6   1  303.67   29.10
   7  -6   1   33.90   15.70
   7  -6   1   13.90   13.20
  -7  -6  -1   11.90    8.90
  -7  -6  -1   20.40   12.00
   7  -6   1   29.40   14.80
  -7  -6  -1   18.00   11.70
   7   6   1   54.79   16.60
  -7   6  -1   52.99   13.20
   7   6   1   36.30   13.50
  -7   6  -1   28.50   14.30
  -7   6  -1   24.10   11.50
   7   6   1   35.20   15.00
   7   6   1   33.70   13.50
   7  -7  -1  189.58   30.00
  -7  -7   1  199.28   23.10
  -7  -7   1  186.08   28.00
   7  -7  -1  252.87   37.20
  -7   7   1  203.98   27.40
   7   7  -1  224.88   26.70
  -7   7   1  217.38   26.20
   7   7  -1  256.87   27.80
   7   7  -1  189.78   26.00
   7   7  -1  234.78   29.90
   7   7  -1  163.28   26.00
  -7   7   1  226.98   25.10
  -6  -7   1   42.60   13.10
   6  -7  -1   50.39   15.60
   6  -7  -1   71.89   20.80
  -6  -7   1   56.99   11.60
   6   7  -1   60.79   13.40
  -6   7   1   62.59   12.40
   6   7  -1   59.49   14.10
   6   7  -1   57.59   14.60
  -6   7   1   51.89   14.70
   6   7  -1   57.39   14.80
   6   7  -1   73.19   15.40
  -6   7   1   45.90   11.80
  -5  -7   1   61.39   10.50
   5  -7  -1   81.19   17.00
  -5  -7   1   86.59   17.10
  -5  -7   1   53.89   12.20
   5  -7  -1  134.19   24.40
  -5  -7   1   57.59   13.50
  -5   7   1   87.79   13.10
   5   7  -1   75.79   13.90
  -5   7   1   63.89   14.30
   5   7  -1   78.29   13.40
   5   7  -1   80.79   14.60
  -5   7   1   94.59   13.20
   5   7  -1   72.09   15.20
  -4  -7   1   80.39   15.80
  -4  -7   1   74.79   13.50
   4  -7  -1   61.79   16.80
  -4  -7   1   81.69   13.20
   4  -7  -1   97.59   18.40
   4   7  -1   71.79   15.50
   4   7  -1   88.09   13.70
  -4   7   1   77.19    8.40
  -4   7   1   84.39   11.20
   4   7  -1   79.99   13.60
   4   7  -1   69.89   12.00
  -4   7   1   86.79   14.50
  -4   7   1   69.69   10.30
   3  -7  -1  274.67   28.20
  -3  -7   1  265.57   19.00
  -3  -7   1  246.78   21.60
  -3  -7   1  253.87   26.90
   3  -7  -1  247.48   28.60
  -3  -7   1  318.97   23.90
  -3   7   1  251.97   19.00
   3   7  -1  281.07   22.80
   3   7  -1  237.88   18.40
  -3   7   1  275.47   19.10
  -3   7   1  259.67   22.80
  -3   7   1  259.87   18.70
   3   7  -1  268.77   20.70
   3   7  -1  260.87   22.20
  -3   7   1  286.57   18.50
  -3   7   1  292.07   28.20
   3   7  -1  219.98   21.80
   2  -7  -1   17.80    2.40
  -2  -7   1   24.70    8.50
   2  -7  -1   19.00    2.50
   2  -7  -1   18.30    8.40
  -2  -7   1   16.90    4.80
  -2  -7   1   13.40    6.60
   2  -7  -1   12.50    8.20
   2   7  -1   16.20    4.30
  -2   7   1   20.60    3.20
   2   7  -1    9.60    4.80
  -2   7   1   15.20    3.60
   2   7  -1   12.00    5.20
   2   7  -1   13.80    4.40
   2   7  -1   13.20    5.70
   2   7  -1    8.60    3.60
  -2   7   1    8.10    7.90
  -2   7   1   13.80    2.80
  -2   7   1   19.30    3.90
  -2   7   1   12.00    4.90
   2   7  -1   20.70    5.80
  -1  -7   1  730.13   45.50
   1  -7  -1  734.53   43.20
  -1  -7   1  614.44   44.70
   1  -7  -1  600.04   46.60
  -1  -7   1  694.53   38.40
   1   7  -1  684.63   38.00
   1   7  -1  635.44   42.60
   1   7  -1  639.24   42.30
   1   7  -1  640.24   39.30
   1   7  -1  641.64   39.10
  -1   7   1  659.03   37.80
  -1   7   1  656.63   37.80
  -1   7   1  661.63   41.80
   1   7  -1  642.04   41.50
  -1   7   1  620.54   43.70
   1   7  -1  681.13   38.20
  -1   7   1  665.43   46.00
   0  -7  -1  162.48   11.20
   0  -7  -1  163.18   11.20
   0  -7  -1  163.08   15.70
   0  -7   1  169.48   17.00
   0  -7   1  140.19   17.40
   0  -7   1  166.58   18.40
   0   7   1  156.78   10.90
   0   7   1  170.58   12.50
   0   7  -1  167.08    9.80
   0   7  -1  144.19   15.80
   0   7   1  156.28   10.90
   0   7   1  156.88   15.10
   0   7   1  176.68   18.60
   0   7  -1  184.88   16.50
   0   7   1  179.28   12.10
   0   7  -1  155.88    9.60
   0   7  -1  177.08   19.50
   0   7   1  157.88   18.30
   1  -7   1  115.09   15.90
   1  -7   1   95.89   13.70
   1  -7   1  107.99   16.50
  -1  -7  -1  110.59   10.10
  -1  -7  -1  126.89   14.90
  -1  -7  -1   90.49   11.20
   1  -7   1  119.29   16.20
   1  -7   1  103.19   15.30
   1   7   1   92.39    9.60
   1   7   1  102.99   10.90
   1   7   1  124.89   14.40
   1   7   1  112.99   10.00
   1   7   1   91.49   12.20
   1   7   1   83.59   10.90
  -1   7  -1   77.69   12.10
   1   7   1   83.29   13.00
   1   7   1   96.49   10.50
  -1   7  -1  121.79   14.90
   1   7   1   99.59   11.10
   2  -7   1  126.89   18.60
   2  -7   1   90.79   15.60
  -2  -7  -1  106.19   14.70
   2  -7   1   86.59   15.90
  -2  -7  -1   87.49   11.70
  -2  -7  -1   93.29   10.50
   2   7   1   96.69   11.70
   2   7   1  129.09   13.30
  -2   7  -1   99.99    7.70
  -2   7  -1  110.79   13.30
  -2   7  -1   99.99   14.40
   2   7   1  108.59   11.90
  -2   7  -1  106.79    7.80
   2   7   1   97.59   13.50
   2   7   1  102.39   12.50
   2   7   1   85.69   14.10
   2   7   1   97.19   12.80
   3  -7   1  429.66   38.70
   3  -7   1  463.25   41.40
   3  -7   1  471.15   29.70
  -3  -7  -1  420.46   36.00
   3  -7   1  469.35   38.50
  -3  -7  -1  453.85   30.40
  -3  -7  -1  469.55   30.30
  -3  -7  -1  506.15   31.30
  -3  -7  -1  473.75   35.50
  -3   7  -1  517.05   31.50
  -3   7  -1  527.25   31.40
  -3   7  -1  531.65   33.20
  -3   7  -1  489.95   37.20
  -3   7  -1  504.35   30.60
   3   7   1  530.65   35.60
   3   7   1  513.45   37.10
   3   7   1  532.55   34.90
   3   7   1  544.45   38.40
   3   7   1  514.95   36.00
   3   7   1  526.25   31.60
   3   7   1  506.95   35.90
  -3   7  -1  493.35   30.90
  -3   7  -1  508.85   30.40
   4  -7   1  558.44   47.20
   4  -7   1  506.15   44.50
  -4  -7  -1  552.44   40.40
  -4  -7  -1  538.65   41.30
   4  -7   1  535.45   42.30
  -4  -7  -1  545.55   35.40
  -4  -7  -1  540.55   33.60
   4   7   1  572.34   39.20
   4   7   1  480.15   37.10
   4   7   1  510.15   41.00
  -4   7  -1  514.15   35.50
   4   7   1  517.65   39.80
  -4   7  -1  516.55   35.40
  -4   7  -1  550.04   41.50
  -4   7  -1  547.65   32.70
   5  -7   1   53.99   17.90
  -5  -7  -1   35.50   10.90
   5  -7   1   29.20   10.70
  -5  -7  -1   40.10    9.30
  -5  -7  -1   40.20   11.10
   5  -7   1   50.49   14.40
  -5  -7  -1   43.10   10.20
  -5   7  -1   52.59   10.80
  -5   7  -1   35.90    9.40
   5   7   1   45.30   11.80
   5   7   1   42.60   10.70
   5   7   1   37.40   14.00
  -5   7  -1   36.40   11.60
  -6  -7  -1   43.00   12.30
   6  -7   1   40.10   13.70
   6  -7   1   35.00   15.10
  -6  -7  -1   26.90   13.70
  -6  -7  -1   41.80   11.20
   6  -7   1   38.30   16.60
   6   7   1   33.80   10.60
  -6   7  -1   52.79   11.30
   6   7   1   30.10   11.40
   6   7   1   44.70   13.40
  -6   7  -1   23.50    9.90
  -6   7  -1   38.60   14.00
   6  -8  -1  142.59   24.80
   6  -8  -1  188.88   33.30
  -6  -8   1  207.38   29.10
   6   8  -1  219.68   24.90
  -6   8   1  186.98   21.40
   6   8  -1  194.28   23.20
   6   8  -1  184.68   24.80
  -6   8   1  165.78   21.10
   6   8  -1  214.48   28.50
  -6   8   1  184.08   24.00
   6   8  -1  196.58   25.70
   5  -8  -1  237.68   33.90
   5  -8  -1  233.38   31.20
  -5  -8   1  269.47   24.10
  -5  -8   1  247.18   29.60
   5   8  -1  207.68   25.00
   5   8  -1  208.08   23.60
   5   8  -1  214.48   25.00
   5   8  -1  215.18   28.10
  -5   8   1  250.87   22.00
  -5   8   1  194.68   23.90
  -5   8   1  237.38   20.80
  -4  -8   1   35.50   11.90
   4  -8  -1   38.70   16.00
   4  -8  -1   38.90   14.30
  -4  -8   1   29.50    8.80
  -4   8   1   18.70    6.00
   4   8  -1   21.80   10.90
  -4   8   1   41.60   13.30
   4   8  -1   39.80   11.80
   4   8  -1   24.30    8.70
  -4   8   1   29.40    6.70
   4   8  -1   16.30    7.90
  -4   8   1   15.40    7.20
  -4   8   1   18.50    6.20
   3  -8  -1   44.70   14.20
  -3  -8   1   51.29    9.60
  -3  -8   1   68.49   12.10
   3  -8  -1   27.20   11.60
  -3  -8   1   44.60   12.00
   3   8  -1   57.69    7.80
  -3   8   1   78.09    8.00
   3   8  -1   67.99   11.30
   3   8  -1   69.89   10.60
  -3   8   1   74.89   15.50
  -3   8   1   51.69    7.50
  -3   8   1   52.89    7.40
  -3   8   1   65.69    7.90
   3   8  -1   62.79   11.70
  -3   8   1   45.10   10.10
   3   8  -1   41.80   13.50
  -2  -8   1  322.17   22.40
   2  -8  -1  284.17   31.60
  -2  -8   1  329.27   25.90
  -2  -8   1  305.37   27.10
   2  -8  -1  293.87   33.60
  -2   8   1  317.27   18.80
  -2   8   1  300.17   24.50
  -2   8   1  327.37   28.80
   2   8  -1  295.17   22.60
  -2   8   1  319.47   18.80
  -2   8   1  312.27   19.30
   2   8  -1  312.27   23.10
   2   8  -1  288.67   21.90
   2   8  -1  336.67   26.30
   2   8  -1  285.57   22.30
   2   8  -1  315.67   21.90
  -2   8   1  315.27   19.50
  -1  -8   1  177.38   11.30
   1  -8  -1  182.38   17.10
  -1  -8   1  177.38   17.80
   1  -8  -1  156.58   21.40
  -1  -8   1  157.68   19.10
  -1   8   1  163.28   10.90
   1   8  -1  167.18   17.90
  -1   8   1  158.08   18.60
   1   8  -1  154.58   12.50
   1   8  -1  156.88   20.70
   1   8  -1  155.98   16.00
   1   8  -1  167.88   11.70
   1   8  -1  160.78   11.90
  -1   8   1  169.78   15.60
  -1   8   1  168.88    9.50
  -1   8   1  157.88    9.40
  -1   8   1  167.08   20.50
   1   8  -1  159.48   13.00
  -1   8   1  159.98   11.00
   1   8  -1  175.88   12.90
   0  -8   1   63.49   12.60
   0  -8  -1   41.80    9.20
   0  -8   1   54.69   11.10
   0  -8  -1   43.00    4.20
   0  -8   1   42.20    9.40
   0   8   1   42.50   10.20
   0   8   1   48.80    9.90
   0   8   1   45.60    5.40
   0   8   1   40.10    5.60
   0   8  -1   30.50    8.30
   0   8   1   47.50    5.00
   0   8   1   48.20    6.00
   0   8  -1   45.40    8.90
   0   8  -1   47.10    9.40
   1  -8   1  172.18   22.90
  -1  -8  -1  193.68   18.80
   1  -8   1  213.48   22.60
   1  -8   1  185.28   22.60
   1  -8   1  180.18   22.00
   1  -8   1  186.08   24.10
  -1  -8  -1  196.68   17.40
  -1   8  -1  168.78   20.00
   1   8   1  159.78   19.30
  -1   8  -1  197.58   22.30
   1   8   1  219.48   16.30
   1   8   1  187.48   15.20
  -1   8  -1  207.38   20.30
  -1   8  -1  204.98   18.70
   1   8   1  211.08   16.40
   1   8   1  215.98   22.60
   1   8   1  231.68   16.50
   1   8   1  235.78   17.00
   1   8   1  228.08   18.10
   2  -8   1  270.77   32.00
  -2  -8  -1  285.27   25.20
   2  -8   1  282.07   27.90
   2  -8   1  283.97   31.20
  -2  -8  -1  274.97   22.20
  -2  -8  -1  292.07   21.60
   2   8   1  295.07   23.90
  -2   8  -1  324.87   25.00
   2   8   1  283.57   24.50
   2   8   1  313.37   22.20
   2   8   1  290.37   23.10
   2   8   1  305.27   23.00
  -2   8  -1  293.77   26.20
   2   8   1  266.77   27.80
   2   8   1  307.57   23.80
   3  -8   1  119.29   19.00
   3  -8   1  100.79   20.30
  -3  -8  -1   96.89   15.80
  -3  -8  -1   90.89   10.60
  -3  -8  -1  102.29   13.90
   3  -8   1  116.69   19.60
  -3   8  -1  101.19    9.90
   3   8   1   91.59   16.10
  -3   8  -1  105.29   13.20
  -3   8  -1  117.99    9.60
  -3   8  -1  107.19   16.90
   3   8   1  128.29   14.80
   3   8   1  125.09   15.90
   3   8   1   84.69   13.50
  -3   8  -1  116.19    9.80
  -4  -8  -1  336.77   25.20
   4  -8   1  404.96   37.00
   4  -8   1  481.35   41.10
  -4  -8  -1  360.86   33.60
   4  -8   1  384.56   35.30
   4   8   1  330.87   30.90
   4   8   1  445.76   35.70
   4   8   1  359.36   29.60
  -4   8  -1  381.36   32.90
  -4   8  -1  386.76   27.40
  -4   8  -1  389.16   27.20
   4   8   1  425.46   31.60
   5  -8   1  262.17   35.90
  -5  -8  -1  346.57   34.60
   5  -8   1  246.38   33.40
   5  -8   1  291.07   32.20
  -5  -8  -1  314.37   23.60
   5   8   1  330.87   33.90
   5   8   1  311.47   28.00
  -5   8  -1  247.68   29.90
   5   8   1  235.08   28.20
  -5   8  -1  306.47   27.70
   5   8   1  255.87   25.10
   6  -8   1  113.99   22.00
   6  -8   1  120.49   25.20
   6  -8   1  144.99   26.00
  -6  -8  -1   73.99   19.50
   6   8   1  118.39   18.40
  -6   8  -1  115.59   16.40
   6   8   1   86.39   18.70
  -6   8  -1  120.79   20.00
   6   8   1   97.09   20.60
  -6  -9   1  122.69   24.40
   6  -9  -1  146.19   27.40
   6  -9  -1  171.38   31.90
   6   9  -1   85.29   19.60
  -6   9   1  104.19   19.80
   6   9  -1  111.79   18.60
  -6   9   1   90.89   13.90
   6   9  -1   79.79   16.50
   6   9  -1   97.29   18.10
   6   9  -1  108.19   19.90
  -5  -9   1   69.79   15.40
   5  -9  -1   46.50   18.90
   5  -9  -1   57.39   16.10
   5   9  -1   63.89   14.10
   5   9  -1   56.79   16.40
  -5   9   1   49.20   13.90
  -5   9   1   61.09   18.30
  -5   9   1   64.99   10.90
   5   9  -1   65.69   12.70
   5   9  -1   54.39   13.20
  -4  -9   1  702.93   55.19
   4  -9  -1  709.83   57.69
   4  -9  -1  791.32   63.29
   4   9  -1  704.03   49.70
   4   9  -1  756.82   51.89
   4   9  -1  748.83   52.99
  -4   9   1  884.91   54.49
   4   9  -1  909.51   59.89
  -4   9   1  717.13   46.20
  -4   9   1  739.53   58.09
  -3  -9   1   16.40    8.70
   3  -9  -1   23.10   12.40
   3  -9  -1   37.10   12.80
  -3  -9   1   26.50    8.70
  -3   9   1   29.20    8.70
  -3   9   1   32.60    5.10
   3   9  -1   37.50   11.80
   3   9  -1   37.10    7.20
   3   9  -1   33.10    8.10
  -3   9   1   26.70    5.70
   3   9  -1   21.90    7.70
  -3   9   1   59.79   15.30
  -3   9   1   26.00    8.00
   3   9  -1   32.60   11.10
  -2  -9   1   96.59   16.30
   2  -9  -1  129.69   22.40
  -2  -9   1  110.49   15.30
   2  -9  -1  136.79   22.10
   2   9  -1   80.19   13.20
  -2   9   1   96.09   17.70
   2   9  -1  113.29   14.00
  -2   9   1   92.39    6.90
  -2   9   1  101.79    6.90
   2   9  -1   86.29   17.30
   2   9  -1   75.39   10.60
   2   9  -1   90.79   10.70
  -2   9   1   85.79   13.10
   2   9  -1   95.09   13.50
  -2   9   1   92.09    7.50
   2   9  -1   89.99   11.90
   2   9  -1   74.99   13.30
  -1  -9   1  179.18   21.70
   1  -9  -1  176.08   19.40
  -1  -9   1  173.48   22.20
   1  -9  -1  161.08   23.90
   1   9  -1  190.08   14.00
   1   9  -1  201.58   14.50
   1   9  -1  182.18   18.60
  -1   9   1  235.48   24.10
  -1   9   1  200.48   11.90
  -1   9   1  195.28   18.00
  -1   9   1  189.18   11.80
  -1   9   1  172.98   22.50
   1   9  -1  190.58   13.90
  -1   9   1  194.88   11.90
   1   9  -1  187.78   20.20
   1   9  -1  188.88   13.50
  -1   9   1  204.58   11.80
   1   9  -1  175.78   22.90
   1   9  -1  189.98   14.10
   0  -9   1  122.79   17.50
   0  -9  -1   92.39   14.20
   0  -9   1   82.29   14.70
   0   9   1   98.39    8.80
   0   9   1  104.79    8.80
   0   9   1  108.19    8.50
   0   9   1   86.89    8.50
   0   9   1  119.09   16.90
   0   9  -1   97.09   14.40
   0   9   1  104.19   12.90
   0   9  -1  119.29   18.30
   0   9   1   87.59   14.30
   0   9  -1  104.09   14.70
   1  -9   1  324.47   29.20
   1  -9   1  391.86   32.70
   1  -9   1  302.07   27.70
  -1  -9  -1  293.17   26.00
   1  -9   1  313.37   28.50
   1   9   1  327.07   28.30
   1   9   1  306.57   22.20
   1   9   1  321.27   22.90
   1   9   1  305.37   26.20
  -1   9  -1  341.57   29.00
   1   9   1  299.47   21.60
  -1   9  -1  322.17   27.50
  -1   9  -1  302.37   27.60
  -1   9  -1  304.77   26.10
  -2  -9  -1  192.88   22.80
  -2  -9  -1  232.28   18.10
   2  -9   1  202.48   26.10
   2  -9   1  188.58   26.40
   2  -9   1  193.08   26.00
   2   9   1  185.68   22.50
   2   9   1  207.48   20.70
  -2   9  -1  198.78   23.20
   2   9   1  176.78   17.90
  -2   9  -1  245.58   21.60
   2   9   1  211.78   17.70
   3  -9   1  661.43   50.19
   3  -9   1  660.73   48.60
  -3  -9  -1  606.54   46.10
   3  -9   1  574.84   51.09
  -3   9  -1  658.43   46.60
  -3   9  -1  625.04   35.50
   3   9   1  574.14   42.20
   3   9   1  562.74   42.20
   3   9   1  625.34   41.60
  -3   9  -1  596.74   35.30
   3   9   1  624.74   46.20
  -4  -9  -1   63.89   14.10
   4  -9   1   24.60   13.40
   4  -9   1   84.39   20.90
   4  -9   1   54.89   14.50
   4   9   1   69.79   13.10
   4   9   1   95.29   13.70
  -4   9  -1   51.69   13.70
   4   9   1   84.09   13.80
   4   9   1   43.50   14.50
  -4   9  -1   55.79    8.30
   5  -9   1  218.78   33.10
  -5  -9  -1  236.38   28.90
   5  -9   1  277.87   33.10
   5  -9   1  242.78   32.60
   5   9   1  195.58   25.00
  -5   9  -1  216.38   19.60
   5   9   1  212.98   25.40
  -5   9  -1  256.37   29.60
   5   9   1  257.07   29.30
  -5 -10   1  165.68   25.80
   5 -10  -1  193.08   32.30
   5 -10  -1  325.37   42.00
   5  10  -1  213.08   30.00
  -5  10   1  212.58   26.40
   5  10  -1  229.98   28.20
  -5  10   1  193.38   30.50
   5  10  -1  202.98   24.50
   5  10  -1  236.08   24.60
  -5  10   1  228.28   18.90
  -4 -10   1   26.20   11.60
   4 -10  -1   51.39   16.70
   4 -10  -1   54.79   18.50
  -4  10   1   35.00   11.10
   4  10  -1   54.39   15.00
   4  10  -1   66.39   15.20
   4  10  -1   62.99   12.50
   4  10  -1   55.49   10.60
  -4  10   1   58.29   16.50
  -4  10   1   47.60    7.20
  -3 -10   1  156.78   22.30
   3 -10  -1  122.59   23.60
   3 -10  -1  151.48   24.70
  -3 -10   1  189.98   21.20
  -3  10   1  125.79   17.20
   3  10  -1  174.98   18.40
   3  10  -1  134.19   19.00
  -3  10   1  172.38   24.60
  -3  10   1  134.19   18.20
   3  10  -1  185.98   26.30
  -3  10   1  147.29   10.50
   3  10  -1  181.98   18.00
   2 -10  -1  393.96   39.10
  -2 -10   1  346.17   34.90
  -2 -10   1  432.66   34.00
   2  10  -1  409.76   28.50
   2  10  -1  400.06   32.60
  -2  10   1  460.55   36.00
   2  10  -1  400.26   28.80
  -2  10   1  410.96   36.50
   2  10  -1  421.06   30.20
   2  10  -1  441.46   38.70
  -2  10   1  472.85   33.00
  -1 -10   1   46.10   11.80
   1 -10  -1   40.90   13.00
   1 -10  -1   36.10   10.00
  -1 -10   1   38.70   11.90
   1  10  -1   30.30   11.10
   1  10  -1   30.30    5.70
   1  10  -1   30.10    9.20
   1  10  -1   24.40    4.70
   1  10  -1   40.80    9.40
  -1  10   1   28.90    8.10
  -1  10   1   33.30   10.10
   1  10  -1   26.80    4.70
  -1  10   1   29.00    9.70
   0 -10  -1    5.00    5.50
   0 -10   1   -5.90    7.10
   0 -10   1    2.20    7.30
   0  10  -1    5.50    8.00
   0  10   1    4.20    2.60
   0  10   1    0.50    5.40
   0  10   1    6.90    3.10
   0  10  -1    3.10    5.50
   0  10   1    3.20    5.40
   0  10   1   -5.70    5.10
   0  10  -1    2.70    6.20
   0  10   1    2.00    2.90
  -1 -10  -1  469.45   37.80
  -1  10  -1  593.84   41.70
   1  10   1  472.45   37.90
   1  10   1  546.75   32.80
   1  10   1  450.95   39.00
  -1  10  -1  500.55   39.60
   1  10   1  518.95   32.80
  -1  10  -1  531.05   37.90
  -1  10  -1  455.15   37.90
  -2 -10  -1   70.39   13.80
   2 -10   1   49.50   15.10
   2 -10   1   62.39   15.60
   2 -10   1   36.30   13.60
   2  10   1   97.49   12.60
  -2  10  -1   74.09   14.70
  -2  10  -1   85.99   14.90
   2  10   1   72.89   10.50
   2  10   1   78.59   13.90
  -2  10  -1   48.20   10.80
  -2  10  -1   96.69   14.80
   2  10   1   94.79   16.50
  -3 -10  -1  285.17   31.40
   3 -10   1  289.57   34.30
   3 -10   1  296.07   35.80
   3 -10   1  307.17   37.00
  -3  10  -1  327.67   30.00
   3  10   1  276.77   25.80
   3  10   1  318.17   26.10
   3  10   1  285.07   30.00
   3  10   1  264.07   24.20
   4 -10   1  139.29   26.20
  -4 -10  -1  123.39   21.30
   4 -10   1  147.79   25.30
   4 -10   1  128.29   24.80
   4  10   1  155.58   19.70
   4  10   1  141.89   21.60
  -4  10  -1  144.19   11.60
  -4  10  -1  115.49   20.10
   4  10   1  141.99   19.40
   5 -10   1  201.68   29.30
  -5 -10  -1  203.48   28.20
   5 -10   1  155.98   31.40
  -5  10  -1  149.99   23.70
   5  10   1  134.99   24.00
   5  10   1  139.29   20.60
  -5  10  -1  154.08   14.90
   5  10   1  181.58   23.20
   4 -11  -1  522.35   45.90
   4 -11  -1  338.87   43.20
  -4 -11   1  312.97   37.30
  -4  11   1  410.96   34.00
   4  11  -1  350.56   32.80
   4  11  -1  367.16   40.70
   4  11  -1  409.96   31.40
  -4  11   1  338.67   39.80
   4  11  -1  372.96   31.40
  -3 -11   1   64.69   15.10
   3 -11  -1   43.00   17.60
   3 -11  -1   56.89   16.40
   3  11  -1   27.50   12.80
   3  11  -1   45.80   11.60
   3  11  -1   59.19   13.30
  -3  11   1   59.99   12.60
   3  11  -1   60.19   10.90
  -3  11   1   71.09   13.90
  -3  11   1   47.70   14.20
  -2 -11   1  175.48   23.50
  -2 -11   1  133.49   19.70
   2 -11  -1  135.29   23.70
  -2  11   1  128.59   17.50
  -2  11   1  162.98   23.70
   2  11  -1  131.19   23.20
   2  11  -1  183.08   22.00
   2  11  -1  130.79   14.00
  -2  11   1  182.68   23.40
  -1 -11   1   44.20   11.70
  -1 -11   1   19.80   10.40
   1  11  -1   26.80    9.80
  -1  11   1   27.70    8.00
  -1  11   1   35.80   13.00
  -1  11   1   35.80   12.40
   1  11  -1   32.80    4.60
   1  11  -1   44.60   14.00
   1  11  -1   31.20    9.00
   0 -11  -1  266.17   27.60
   0 -11   1  253.37   30.10
   0 -11   1  303.17   28.40
   0  11   1  259.17   17.00
   0  11  -1  274.37   30.60
   0  11   1  274.77   27.00
   0  11   1  284.97   23.60
   0  11  -1  314.87   27.10
   0  11  -1  280.67   25.10
   0  11   1  285.27   29.50
  -1 -11  -1   46.90   12.00
  -1  11  -1   66.99   12.80
  -1  11  -1   37.70   10.70
   1  11   1   39.50    6.80
   1  11   1   57.99   12.20
  -1  11  -1   56.39   12.30
   1  11   1   45.10   11.50
  -1  11  -1   40.70   12.40
   2 -11   1    1.20    9.70
   2 -11   1   19.00   13.30
  -2 -11  -1   18.20   10.30
   2  11   1    9.20    5.90
  -2  11  -1   26.70    9.60
  -2  11  -1    8.40    7.00
   2  11   1   13.50    8.60
  -2  11  -1   13.60    9.30
  -2  11  -1    9.60    8.40
   2  11   1   41.00   13.20
   2  11   1   22.30    8.20
   3 -11   1   85.79   19.50
  -3 -11  -1  157.18   23.20
   3 -11   1  165.88   28.00
  -3  11  -1  135.19   19.90
   3  11   1  140.29   20.70
   3  11   1  135.39   17.20
   3  11   1  130.79   16.90
  -3  11  -1  183.08   25.60
   4 -11   1  103.99   22.00
  -4 -11  -1  103.29   19.50
   4 -11   1  106.79   24.10
  -4  11  -1   67.99   16.90
   4  11   1  112.39   17.50
   4  11   1  129.89   20.70
   4  11   1  115.49   17.00
  -4 -12   1  118.29   21.50
   4 -12  -1   73.89   20.10
   4 -12  -1   87.29   22.30
   4  12  -1  135.79   25.20
   4  12  -1   65.09   13.00
   4  12  -1   92.99   17.00
  -4  12   1  102.59   18.30
  -4  12   1   85.49   21.50
  -3 -12   1   29.80   14.10
   3 -12  -1   52.29   15.80
  -3  12   1   51.99   12.30
  -3  12   1   18.20   12.30
  -3  12   1   47.10   17.20
   3  12  -1   28.20    7.50
   3  12  -1   38.00   12.10
   3  12  -1   31.80   12.40
  -2 -12   1  171.78   24.80
  -2 -12   1  174.88   23.90
   2 -12  -1  194.78   29.30
   2  12  -1  182.78   26.70
  -2  12   1  226.28   23.70
  -2  12   1  230.88   26.90
   2  12  -1  242.28   26.40
  -2  12   1  202.38   25.80
  -2  12   1  193.98   26.90
   2  12  -1  207.78   17.00
  -1 -12   1   41.10   12.50
  -1 -12   1   44.70   13.10
  -1  12   1   60.99   13.90
  -1  12   1   41.30   13.10
   1  12  -1   48.50   15.90
   1  12  -1   57.89   12.60
   0 -12   1    0.60    9.10
   0 -12  -1    4.60    9.00
   0  12   1  -15.90    6.90
   0  12   1    1.60    7.10
   0  12  -1    7.40    8.60
   0  12  -1    2.50    6.60
   0  12  -1    0.80    5.00
   0  12  -1    4.20    9.50
  -1 -12  -1   84.99   16.80
  -1  12  -1   75.69   16.20
   1  12   1  112.39   10.50
  -1  12  -1   87.29   16.20
  -1  12  -1   91.99   16.60
   1  12   1  110.49   17.50
   1  12   1  111.39   19.50
  -1  12  -1   99.99   17.90
  -2 -12  -1  259.67   28.90
  -2  12  -1  215.08   26.00
   2  12   1  152.98   17.10
  -2  12  -1  195.48   26.00
   2  12   1  169.68   24.10
  -2  12  -1  180.58   23.60
  -2  12  -1  172.28   23.40
   3 -12   1   74.09   20.70
   3 -12   1  133.09   24.50
  -3 -12  -1   75.99   18.40
   3  12   1  123.39   19.90
  -3  12  -1  148.79   20.80
  -3  12  -1  128.99   20.10
   3  12   1   98.29   15.30
  -3  12  -1   94.99   21.50
  -2 -13   1   47.40   14.40
  -2  13   1   49.40   14.10
   2  13  -1   52.79    7.90
   2  13  -1   55.99   13.40
  -2  13   1   50.49   15.80
   2  13  -1   65.59   17.70
  -2  13   1   68.89   15.90
  -1 -13   1  198.78   25.90
  -1 -13   1  235.88   30.20
  -1  13   1  192.78   26.80
   1  13  -1  254.07   33.40
  -1  13   1  228.68   28.60
   1  13  -1  177.58   23.70
  -1  13   1  211.78   28.40
   0 -13  -1   68.29   13.80
   0 -13   1   59.59   14.50
   0  13  -1   54.09   13.10
   0  13   1   46.00   13.60
   0  13   1   72.99   16.40
   0  13  -1   24.50   11.10
   0  13  -1   64.99   18.30
  -1 -13  -1   65.29   16.40
  -1  13  -1   51.29   14.90
  -1  13  -1   50.39   14.00
  -1  13  -1   92.59   15.60
  -1  13  -1   42.80   13.80
   1  13   1   53.59   14.90
   1  13   1   37.80   12.90
  -2 -13  -1   66.69   16.90
  -2  13  -1   89.19   16.70
  -2  13  -1   51.09   14.80
   2  13   1   54.09    9.20
  -2  13  -1   63.19   15.30
   2  13   1   88.69   18.50
  -2  13  -1   64.39   14.90
  -8   0   2  186.78   26.40
  -8   0   2  143.79   24.20
   8   0  -2  186.48   23.60
  -8   0   2  224.38   27.70
   8   0  -2  217.48   30.20
   8   0  -2  178.28   25.80
  -7   0   2   88.09   17.00
   7   0  -2   78.49   16.30
  -7   0   2   48.20   14.30
   7   0  -2   56.79   16.40
   7   0  -2   69.69   14.30
  -7   0   2   60.39   16.10
   6   0  -2   66.69   15.60
   6   0  -2   31.20   12.50
  -6   0   2   67.89   14.10
  -6   0   2   67.39   13.40
  -6   0   2   49.10   12.10
   6   0  -2   56.99    7.60
   6   0  -2   39.10   10.70
  -5   0   2   93.19   14.50
  -5   0   2   87.49   12.40
   5   0  -2   94.79   14.30
   5   0  -2   71.39   12.30
   5   0  -2   94.79   10.10
   5   0  -2   88.29   15.00
  -5   0   2   95.59   15.90
  -5   0   2  104.09   16.00
  -4   0   2 1330.17   82.09
  -4   0   2 1305.37   83.39
  -4   0   2 1374.16   83.69
   4   0  -2 1348.47   78.99
  -4   0   2 1512.25   81.79
   4   0  -2 1338.87   83.39
   4   0  -2 1613.44   82.99
   4   0  -2 1313.07   83.49
   3   0  -2  240.08   20.50
  -3   0   2  293.37   21.10
   3   0  -2  311.97   22.50
  -3   0   2  283.57   20.40
   3   0  -2  293.57   19.70
  -3   0   2  344.57   23.40
   3   0  -2  314.07   22.40
  -3   0   2  288.37   20.80
  -3   0   2  277.57   19.60
   3   0  -2  302.17   21.70
   3   0  -2  280.17   22.30
  -3   0   2  274.77   21.90
   3   0  -2  298.17   22.20
  -3   0   2  254.67   20.60
  -3   0   2  290.37   21.30
  -3   0   2  284.57   22.30
   2   0  -2  335.47   22.40
   2   0  -2  345.97   22.20
  -2   0   2  316.67   21.90
   2   0  -2  336.07   22.40
  -2   0   2  329.57   21.90
   2   0  -2  327.17   23.50
  -2   0   2  410.66   23.70
  -2   0   2  315.47   22.00
  -2   0   2  348.57   22.90
  -2   0   2  305.17   22.90
  -2   0   2  349.77   22.40
   2   0  -2  360.86   23.50
  -2   0   2  329.87   22.10
   2   0  -2  347.97   22.80
   2   0  -2  352.76   23.80
  -2   0   2  346.17   23.20
   1   0  -2  639.24   37.80
   1   0  -2  655.33   38.60
   1   0  -2  630.14   37.70
   1   0  -2  661.43   38.70
  -1   0   2  620.34   38.20
  -1   0   2  641.44   37.70
   1   0  -2  661.33   36.90
  -1   0   2  599.14   38.30
  -1   0   2  698.33   37.10
  -1   0   2  743.13   38.30
   1   0  -2  604.84   38.00
   1   0  -2  669.03   38.10
  -1   0   2  646.34   36.90
  -1   0   2  610.44   37.70
   1   0  -2  611.44   37.70
  -1   0   2  632.74   38.50
   0   0  -2  354.76   23.30
   0   0   2  326.17   22.90
   0   0  -2  351.86   20.90
   0   0   2  358.76   22.80
   0   0  -2  351.96   22.40
   0   0  -2  360.86   23.00
   0   0   2  425.16   23.50
   0   0  -2  333.77   22.10
   0   0   2  359.46   22.30
   0   0   2  371.06   23.30
   0   0  -2  344.67   20.80
   0   0   2  363.56   22.70
   0   0  -2  370.16   23.30
   0   0   2  358.06   20.90
   0   0   2  350.36   20.70
   0   0   2  387.76   22.30
   0   0  -2  344.37   22.70
   0   0  -2  336.47   21.30
   1   0   2  280.67   19.50
  -1   0  -2  295.47   19.10
  -1   0  -2  320.67   21.00
  -1   0  -2  330.37   20.50
   1   0   2  280.67   19.40
   1   0   2  277.17   19.40
   1   0   2  287.47   20.00
   1   0   2  292.77   20.70
  -1   0  -2  334.77   21.70
  -1   0  -2  277.27   19.40
   1   0   2  280.77   18.50
   1   0   2  288.87   19.20
  -1   0  -2  279.97   19.40
   1   0   2  283.27   20.30
   1   0   2  299.67   19.30
   1   0   2  286.47   21.10
  -1   0  -2  290.87   19.90
  -1   0  -2  298.97   18.60
  -1   0  -2  277.17   19.00
   2   0   2   84.49   11.90
  -2   0  -2  116.09   10.60
   2   0   2  117.59   13.00
  -2   0  -2  100.19   11.60
  -2   0  -2  103.09   10.60
  -2   0  -2   94.09   10.30
  -2   0  -2  132.99   14.00
   2   0   2  102.69   10.70
   2   0   2  101.79   11.20
  -2   0  -2   86.89   11.00
  -2   0  -2  119.39   10.80
   2   0   2  123.39   12.40
   2   0   2  111.09   11.90
  -2   0  -2  102.99   11.70
  -2   0  -2  108.29   11.60
   2   0   2   97.29   11.40
  -2   0  -2   82.89   11.20
   2   0   2  108.99   11.70
   2   0   2   96.79    9.50
   3   0   2  805.52   45.20
  -3   0  -2  741.63   47.90
   3   0   2  730.03   47.40
   3   0   2  706.43   46.20
  -3   0  -2  723.43   46.30
  -3   0  -2  722.93   46.60
  -3   0  -2  797.82   47.80
  -3   0  -2  708.73   46.80
   3   0   2  703.03   45.30
   3   0   2  763.12   47.80
   4   0   2  403.36   27.00
  -4   0  -2  426.76   31.00
  -4   0  -2  410.26   30.60
   4   0   2  360.26   29.00
   4   0   2  404.16   30.60
   4   0   2  418.66   28.90
   4   0   2  374.56   30.20
  -4   0  -2  358.36   30.00
  -5   0  -2 2227.18  132.69
   5   0   2 2231.18  131.29
   5   0   2 2194.18  125.59
  -5   0  -2 2304.97  131.49
  -5   0  -2 2443.16  132.39
   5   0   2 2459.85  132.09
   5   0   2 2172.78  131.89
   5   0   2 2113.79  128.49
   5   0   2 2081.59  135.49
   5   0   2 2121.69  128.09
   6   0   2   72.79   14.40
  -6   0  -2   60.19   13.80
   6   0   2   43.40   13.00
  -6   0  -2   41.60   14.00
   6   0   2   98.39   14.60
   6   0   2   54.49   17.10
  -6   0  -2   60.29   13.20
   6   0   2   46.50   11.30
   6   0   2   40.80   13.30
  -7   0  -2    7.70    9.70
   7   0   2   42.90   19.40
   7   0   2   30.10   11.60
   7   0   2   22.20   11.10
   7   0   2   37.20   10.80
  -7   0  -2   18.90   12.20
   7   0   2   27.50   10.90
   7   0   2   62.89   18.80
  -7   0  -2   32.10   11.90
  -8  -1   2    6.70   12.60
  -8  -1   2   22.20   12.40
   8  -1  -2    4.40   11.40
   8  -1  -2   11.00   13.10
  -8  -1   2    7.90    8.90
   8  -1  -2    7.90    8.50
   8   1  -2  -10.10    8.60
   8   1  -2   19.40   11.90
  -8   1   2    2.40    8.50
   8   1  -2   16.90   12.80
  -8   1   2    7.80   11.20
  -8   1   2   28.40   13.50
   7  -1  -2  108.89   16.00
  -7  -1   2  115.39   19.00
  -7  -1   2  124.99   19.80
   7  -1  -2   89.89   17.80
   7  -1  -2   94.69   17.50
   7  -1  -2   58.99   16.90
  -7  -1   2  103.79   20.20
   7   1  -2  151.98   23.40
  -7   1   2   79.99   16.90
   7   1  -2  127.59   21.40
  -7   1   2  114.79   19.10
   7   1  -2   96.09   15.50
  -7   1   2  165.58   22.00
   6  -1  -2  501.45   38.90
  -6  -1   2  491.75   40.00
   6  -1  -2  410.16   38.50
  -6  -1   2  426.56   36.30
  -6  -1   2  474.05   38.10
   6  -1  -2  448.76   34.50
  -6   1   2  479.65   37.30
   6   1  -2  465.55   38.60
   6   1  -2  522.05   40.10
  -6   1   2  475.65   38.10
   6   1  -2  505.85   36.90
   6   1  -2  466.55   37.00
   6   1  -2  477.85   32.20
  -6   1   2  469.15   38.10
  -5  -1   2  211.88   16.80
  -5  -1   2  175.88   21.30
   5  -1  -2  202.78   22.00
  -5  -1   2  171.88   21.40
   5  -1  -2  171.18   22.90
   5  -1  -2  191.78   18.30
   5  -1  -2  195.18   13.30
  -5  -1   2  169.28   20.00
   5   1  -2  198.98   21.50
  -5   1   2  173.78   20.70
   5   1  -2  208.18   21.20
   5   1  -2  177.78   16.10
   5   1  -2  183.68   19.60
   5   1  -2  195.18   22.70
  -5   1   2  228.78   20.60
  -5   1   2  193.28   21.60
  -4  -1   2  814.12   52.69
   4  -1  -2  870.41   52.19
   4  -1  -2  928.71   56.39
  -4  -1   2  821.72   50.29
  -4  -1   2  838.22   54.09
   4  -1  -2  791.82   53.29
   4  -1  -2  870.11   48.30
  -4  -1   2  831.22   54.49
  -4   1   2  816.52   53.69
  -4   1   2 1009.60   55.59
   4   1  -2  821.82   50.79
  -4   1   2  788.02   52.39
   4   1  -2  787.92   53.29
  -4   1   2  793.52   52.69
   4   1  -2  840.12   54.29
  -4   1   2  810.72   53.39
   4   1  -2  953.60   54.19
   4   1  -2  797.22   52.09
   3  -1  -2    8.60    4.00
   3  -1  -2   32.00    7.60
   3  -1  -2    2.60    4.80
  -3  -1   2   12.00    4.60
   3  -1  -2   12.00    3.40
   3  -1  -2   11.90    5.20
  -3  -1   2    7.70    5.80
  -3  -1   2   16.00    4.30
   3  -1  -2   13.00    6.00
   3  -1  -2   18.60    6.10
  -3  -1   2    6.60    4.50
  -3  -1   2   13.30    4.50
  -3  -1   2   12.10    4.20
  -3  -1   2    8.40    5.40
  -3  -1   2   13.40    5.20
   3   1  -2   14.20    6.70
  -3   1   2   21.30    6.40
  -3   1   2   19.70    5.70
   3   1  -2   13.40    5.90
  -3   1   2    8.20    5.30
   3   1  -2    6.60    4.20
   3   1  -2    4.70    5.20
  -3   1   2   13.50    5.40
   3   1  -2   11.80    5.00
  -3   1   2   19.00    5.80
  -3   1   2   15.50    3.60
  -3   1   2    8.80    4.70
   3   1  -2   11.10    5.10
   3   1  -2   14.60    6.20
   3   1  -2    9.60    5.00
  -3   1   2   15.90    5.10
  -3   1   2    9.90    4.70
  -2  -1   2 1725.53   93.39
  -2  -1   2 1598.54   92.09
   2  -1  -2 1537.95   93.19
   2  -1  -2 1564.44   94.29
  -2  -1   2 1545.25   93.29
   2  -1  -2 1599.04   92.39
   2  -1  -2 1645.74   93.59
  -2  -1   2 1496.05   93.19
   2  -1  -2 1556.94   91.49
   2  -1  -2 1738.03   92.99
  -2  -1   2 1597.84   91.19
  -2  -1   2 1585.54   93.29
  -2  -1   2 1605.54   92.79
  -2  -1   2 1609.54   92.29
  -2  -1   2 1630.64   92.59
  -2  -1   2 1883.81   93.89
   2  -1  -2 1673.63   94.19
   2  -1  -2 1591.34   92.29
   2   1  -2 1934.41   94.69
   2   1  -2 1620.64   93.09
   2   1  -2 1632.34   92.89
  -2   1   2 1706.03   92.79
   2   1  -2 1743.13   93.19
  -2   1   2 1680.23   92.79
  -2   1   2 1667.53   92.99
   2   1  -2 1655.73   93.59
   2   1  -2 1552.44   93.49
  -2   1   2 1867.51   94.29
  -2   1   2 1648.34   93.39
  -2   1   2 1577.04   93.59
  -2   1   2 1765.92   94.19
   2   1  -2 1588.54   92.19
   2   1  -2 1668.73   91.59
  -2   1   2 1678.03   91.79
  -1  -1   2 7533.85  400.66
   1  -1  -2 7282.67  400.56
  -1  -1   2 7246.38  400.96
   1  -1  -2 7299.47  401.06
   1  -1  -2 7400.46  401.06
   1  -1  -2 7151.08  400.56
   1  -1  -2 8316.87  400.26
   1  -1  -2 7298.97  400.36
  -1  -1   2 7299.97  399.76
  -1  -1   2 7513.25  399.86
  -1  -1   2 6924.11  400.36
  -1  -1   2 7425.46  400.26
  -1  -1   2 7167.78  398.76
   1  -1  -2 7116.69  399.86
   1  -1  -2 7271.47  399.26
  -1  -1   2 7781.72  398.66
  -1   1   2 8496.15  400.76
   1   1  -2 7645.23  400.06
   1   1  -2 7242.77  400.06
   1   1  -2 7265.77  400.56
   1   1  -2 7231.88  398.86
  -1   1   2 7078.29  400.46
   1   1  -2 7021.00  400.86
  -1   1   2 7330.77  399.36
  -1   1   2 7550.24  398.06
  -1   1   2 7338.57  399.96
   1   1  -2 7128.59  399.86
  -1   1   2 7888.71  401.16
  -1   1   2 7441.46  400.96
   1   1  -2 7118.29  400.56
  -1   1   2 7218.18  400.56
   1   1  -2 7330.97  400.56
  -1   1   2 7292.67  401.06
  -1   1   2 8205.48  400.36
   0  -1   2 3797.62  214.58
   0  -1  -2 3855.11  213.88
   0  -1  -2 3765.72  214.18
   0  -1   2 3810.12  213.48
   0  -1  -2 3805.72  213.38
   0  -1   2 4524.05  214.88
   0  -1  -2 3935.91  214.18
   0  -1   2 3852.31  213.48
   0  -1   2 3900.51  213.48
   0  -1  -2 3679.13  213.28
   0  -1   2 4506.65  213.98
   0  -1  -2 3649.14  212.88
   0  -1  -2 3783.62  214.38
   0  -1   2 3750.62  212.58
   0  -1   2 3523.55  210.78
   0  -1  -2 3795.02  213.08
   0  -1   2 4286.57  212.98
   0   1  -2 3753.82  212.78
   0   1   2 3782.02  213.08
   0   1   2 4507.15  213.88
   0   1  -2 3896.91  213.48
   0   1   2 4227.58  213.58
   0   1  -2 3881.01  214.58
   0   1  -2 4103.89  213.88
   0   1  -2 3836.02  214.18
   0   1  -2 3746.13  212.98
   0   1   2 3899.01  214.28
   0   1  -2 3686.13  211.18
   0   1   2 4355.46  213.58
   0   1  -2 3925.41  213.58
   0   1   2 4277.97  214.98
   0   1   2 3719.53  213.78
   0   1  -2 3846.02  213.58
   1  -1   2 4661.03  263.97
   1  -1   2 4718.73  264.17
  -1  -1  -2 4723.53  263.67
  -1  -1  -2 5427.76  264.27
   1  -1   2 4759.92  263.17
   1  -1   2 4740.83  262.57
  -1  -1  -2 4758.62  264.77
  -1  -1  -2 5126.29  264.57
  -1  -1  -2 4709.43  264.97
   1  -1   2 4838.22  261.47
  -1  -1  -2 4775.62  262.37
  -1  -1  -2 4884.51  264.77
   1  -1   2 4620.24  264.07
  -1  -1  -2 4870.91  262.97
   1  -1   2 4738.73  265.67
  -1  -1  -2 4636.24  265.17
   1  -1   2 4787.62  265.07
   1  -1   2 5392.86  263.27
   1  -1   2 4689.73  265.07
  -1   1  -2 4644.94  263.17
  -1   1  -2 4717.33  263.87
  -1   1  -2 4623.54  264.47
  -1   1  -2 4763.22  265.57
  -1   1  -2 5572.04  265.17
   1   1   2 4765.62  262.47
   1   1   2 4881.91  264.77
  -1   1  -2 4706.63  263.67
   1   1   2 5339.27  264.27
  -1   1  -2 4977.30  265.27
  -1   1  -2 4663.73  264.07
   1   1   2 4776.02  264.97
  -1   1  -2 4774.42  264.97
   1   1   2 4672.63  265.37
   1   1   2 4863.31  263.87
   1   1   2 5331.87  263.37
  -1   1  -2 4972.30  262.67
   1   1   2 4938.11  264.97
   1   1   2 4690.03  264.07
  -2  -1  -2  194.28   15.10
   2  -1   2  204.68   14.60
   2  -1   2  229.98   15.10
   2  -1   2  177.78   14.30
  -2  -1  -2  254.57   18.60
  -2  -1  -2  209.78   14.30
  -2  -1  -2  204.88   15.90
  -2  -1  -2  198.18   15.70
   2  -1   2  215.88   16.50
  -2  -1  -2  218.28   17.30
  -2  -1  -2  223.38   18.10
   2  -1   2  190.98   15.70
   2  -1   2  196.78   16.20
   2  -1   2  232.18   15.60
  -2  -1  -2  190.08   17.00
   2  -1   2  190.58   16.70
  -2  -1  -2  168.38   14.80
   2   1   2  171.18   15.80
  -2   1  -2  181.98   15.60
  -2   1  -2  183.58   14.70
   2   1   2  187.98   15.20
  -2   1  -2  191.98   17.10
   2   1   2  201.38   16.40
  -2   1  -2  194.88   15.80
  -2   1  -2  211.78   14.80
   2   1   2  132.49   14.50
  -2   1  -2  184.48   16.50
   2   1   2  170.28   16.90
   2   1   2  171.78   14.80
  -2   1  -2  173.18   16.00
  -2   1  -2  186.08   16.80
  -2   1  -2  210.38   16.50
   2   1   2  205.78   17.50
  -2   1  -2  168.98   14.70
  -2   1  -2  160.18   15.90
   2   1   2  164.78   14.50
   2   1   2  190.78   16.80
  -3  -1  -2  291.97   22.90
   3  -1   2  297.17   22.40
   3  -1   2  366.26   23.20
   3  -1   2  263.27   24.10
   3  -1   2  369.66   21.30
   3  -1   2  293.37   26.40
  -3  -1  -2  311.27   21.60
  -3  -1  -2  302.87   23.30
   3  -1   2  288.27   21.50
   3  -1   2  328.37   24.30
  -3  -1  -2  276.17   23.70
  -3  -1  -2  329.07   24.90
   3   1   2  261.57   23.80
  -3   1  -2  315.87   23.50
   3   1   2  276.17   24.10
   3   1   2  288.87   22.90
  -3   1  -2  332.87   24.20
  -3   1  -2  280.77   23.50
   3   1   2  290.07   24.00
   3   1   2  284.87   21.90
   3   1   2  298.47   22.70
  -3   1  -2  314.67   24.20
  -3   1  -2  315.47   23.00
   3   1   2  284.97   22.90
   4  -1   2  121.09   15.70
   4  -1   2  129.39   19.30
   4  -1   2  133.39   14.50
   4  -1   2  132.09   15.60
  -4  -1  -2  148.19   16.80
   4  -1   2  140.89   15.00
  -4  -1  -2  142.79   17.30
  -4  -1  -2  149.79   14.50
   4  -1   2  109.79   16.00
  -4  -1  -2  101.29   15.40
   4  -1   2  126.99   11.80
   4   1   2  136.59   15.60
  -4   1  -2  128.69   16.90
   4   1   2   98.29   14.80
   4   1   2  137.39   14.50
  -4   1  -2  112.39   15.20
  -4   1  -2  149.59   16.50
  -4   1  -2  134.19   16.40
   4   1   2  152.48   16.70
   4   1   2  167.18   19.00
   5  -1   2  309.37   26.00
   5  -1   2  256.67   30.50
  -5  -1  -2  310.37   27.90
   5  -1   2  267.57   21.90
   5  -1   2  284.37   26.70
   5  -1   2  269.77   22.30
  -5  -1  -2  240.68   23.80
  -5  -1  -2  243.68   23.80
   5  -1   2  314.77   26.30
  -5   1  -2  307.57   27.40
  -5   1  -2  254.67   26.90
   5   1   2  243.58   24.80
   5   1   2  298.07   24.30
   5   1   2  229.58   23.30
   5   1   2  280.67   25.90
  -5   1  -2  262.57   24.40
   6  -1   2  300.27   26.00
   6  -1   2  318.57   26.80
  -6  -1  -2  273.37   30.50
  -6  -1  -2  295.27   28.20
   6  -1   2  296.37   36.70
   6  -1   2  316.17   32.00
  -6  -1  -2  334.67   30.70
   6  -1   2  303.57   28.50
   6  -1   2  348.67   30.20
  -6   1  -2  369.26   31.90
   6   1   2  247.38   29.80
   6   1   2  289.17   27.90
   6   1   2  333.37   37.70
   6   1   2  300.57   27.40
  -6   1  -2  334.97   29.70
   6   1   2  300.67   31.20
  -6   1  -2  319.57   29.70
   6   1   2  326.97   28.20
  -7  -1  -2   50.89   15.30
   7  -1   2   37.70   11.50
  -7  -1  -2   30.90   14.10
  -7  -1  -2   34.70   12.80
   7  -1   2   41.90   17.30
   7  -1   2   55.89   14.60
   7  -1   2   38.70   11.80
  -7   1  -2   17.80   12.30
  -7   1  -2   39.00   13.10
   7   1   2   35.10   14.60
  -7   1  -2   19.10   10.90
   7   1   2   46.90   12.20
   7   1   2   55.49   15.40
   7   1   2   57.19   18.20
   7   1   2   33.80   11.50
   8  -2  -2   96.59   22.30
  -8  -2   2   75.69   17.50
  -8  -2   2   56.69   17.70
  -8  -2   2   71.29   16.60
   8  -2  -2   76.39   21.50
   8  -2  -2   59.69   12.90
  -8   2   2   77.39   16.90
  -8   2   2   54.49   15.20
  -8   2   2   57.29   14.10
   8   2  -2   47.40   14.10
   8   2  -2   63.19   18.80
   8   2  -2   59.19   14.00
   7  -2  -2  358.06   40.00
  -7  -2   2  317.07   35.80
   7  -2  -2  341.07   32.00
  -7  -2   2  351.96   32.20
  -7  -2   2  315.97   35.00
   7  -2  -2  310.27   28.00
   7  -2  -2  338.57   38.00
  -7   2   2  464.05   37.50
  -7   2   2  302.67   34.40
   7   2  -2  353.56   32.00
   7   2  -2  385.76   35.40
  -7   2   2  324.67   33.70
   7   2  -2  341.97   35.20
   7   2  -2  327.47   35.10
  -6  -2   2  196.08   24.20
   6  -2  -2  188.38   20.10
   6  -2  -2  181.18   25.20
   6  -2  -2  219.98   24.50
  -6  -2   2  227.98   23.90
   6  -2  -2  174.08   25.50
  -6  -2   2  162.38   22.00
   6   2  -2  154.58   21.70
   6   2  -2  173.48   22.50
   6   2  -2  213.78   18.90
  -6   2   2  197.98   23.20
  -6   2   2  156.48   21.60
   6   2  -2  166.98   20.90
   6   2  -2  213.48   25.20
  -6   2   2  189.78   23.40
   5  -2  -2   20.30    7.10
  -5  -2   2   16.80    4.40
   5  -2  -2   21.20   10.20
  -5  -2   2   20.10    6.00
   5  -2  -2   18.70   10.30
  -5  -2   2   10.60    6.90
  -5  -2   2   11.30    8.10
   5  -2  -2    5.30    6.50
  -5  -2   2   11.60    6.90
   5   2  -2   19.70    7.00
   5   2  -2   -2.60    5.60
   5   2  -2   11.60    6.00
  -5   2   2   22.80    8.40
   5   2  -2   14.60    7.80
  -5   2   2   23.30    8.20
   5   2  -2   22.50    9.30
  -5   2   2   19.50    7.10
  -4  -2   2  413.96   24.40
   4  -2  -2  370.96   22.50
   4  -2  -2  388.66   26.60
   4  -2  -2  330.97   29.50
  -4  -2   2  399.66   25.70
  -4  -2   2  451.65   31.20
   4  -2  -2  413.66   31.50
  -4  -2   2  359.46   27.60
   4  -2  -2  335.87   27.50
  -4  -2   2  376.36   29.50
   4  -2  -2  356.26   26.70
   4   2  -2  357.86   28.80
  -4   2   2  411.96   28.60
  -4   2   2  389.16   28.70
   4   2  -2  377.76   28.30
  -4   2   2  429.36   28.90
   4   2  -2  350.86   27.90
   4   2  -2  362.86   27.20
  -4   2   2  353.36   28.10
   4   2  -2  386.66   28.00
   3  -2  -2 2052.59  119.69
  -3  -2   2 2113.39  119.29
   3  -2  -2 2116.89  122.69
  -3  -2   2 2069.29  120.69
   3  -2  -2 2218.78  116.29
  -3  -2   2 2053.09  118.69
   3  -2  -2 2555.74  124.39
   3  -2  -2 2096.29  118.39
  -3  -2   2 2063.59  119.39
   3  -2  -2 2025.30  118.09
   3  -2  -2 2072.19  119.99
  -3  -2   2 2119.49  120.89
  -3  -2   2 2003.50  120.59
   3   2  -2 2033.40  120.69
  -3   2   2 2037.80  120.09
  -3   2   2 2248.38  120.49
   3   2  -2 2182.18  119.19
  -3   2   2 2055.79  119.69
   3   2  -2 2111.19  120.89
   3   2  -2 2324.37  120.59
  -3   2   2 2133.99  116.29
  -3   2   2 2108.59  118.89
  -3   2   2 2070.99  119.29
   3   2  -2 2102.59  119.59
  -3   2   2 2054.29  121.69
   3   2  -2 2064.09  119.29
  -3   2   2 2116.49  121.29
   2  -2  -2 1264.37   73.49
   2  -2  -2 1256.47   72.59
  -2  -2   2 1475.45   75.49
   2  -2  -2 1276.47   74.19
  -2  -2   2 1265.77   74.39
   2  -2  -2 1291.77   74.19
   2  -2  -2 1322.57   76.49
  -2  -2   2 1359.56   75.49
  -2  -2   2 1278.07   74.99
   2  -2  -2 1454.35   73.39
   2  -2  -2 1261.47   76.49
  -2  -2   2 1412.46   73.49
   2  -2  -2 1302.67   72.89
  -2  -2   2 1289.77   70.69
  -2  -2   2 1240.78   74.89
  -2  -2   2 1235.08   72.89
  -2  -2   2 1241.48   73.49
   2   2  -2 1158.78   73.39
   2   2  -2 1218.58   74.39
  -2   2   2 1349.96   72.69
   2   2  -2 1195.98   72.89
   2   2  -2 1155.38   74.59
  -2   2   2 1213.58   73.39
  -2   2   2 1268.77   75.89
  -2   2   2 1294.57   73.29
  -2   2   2 1492.35   75.09
  -2   2   2 1432.06   74.79
   2   2  -2 1283.57   74.89
  -2   2   2 1323.07   73.69
   2   2  -2 1245.88   73.79
   2   2  -2 1245.48   74.69
  -2   2   2 1320.07   76.29
  -1  -2   2 8758.22  474.95
   1  -2  -2 8397.36  477.75
   1  -2  -2 9999.00  476.65
  -1  -2   2 8482.65  475.95
   1  -2  -2 8378.76  474.45
  -1  -2   2 8500.55  476.95
   1  -2  -2 9130.39  476.55
   1  -2  -2 9750.72  475.45
   1  -2  -2 9572.34  475.45
  -1  -2   2 8460.85  477.35
  -1  -2   2 8407.16  477.85
  -1  -2   2 8591.94  474.75
  -1  -2   2 9846.82  476.65
   1  -2  -2 8251.57  476.05
   1  -2  -2 8668.93  477.75
  -1  -2   2 8523.65  474.85
  -1  -2   2 8655.13  474.15
   1   2  -2 9782.22  477.35
   1   2  -2 8932.91  474.35
   1   2  -2 8613.44  477.45
  -1   2   2 8769.12  475.55
   1   2  -2 8758.12  476.25
  -1   2   2 9116.79  477.85
   1   2  -2 9748.12  475.75
   1   2  -2 8443.76  475.35
   1   2  -2 9070.09  476.55
  -1   2   2 8594.44  477.75
   1   2  -2 8435.36  475.35
  -1   2   2 8563.34  476.15
  -1   2   2 8650.13  478.05
   1   2  -2 8352.86  476.05
  -1   2   2 8640.44  476.25
  -1   2   2 8647.03  476.25
  -1   2   2 8565.94  475.55
  -1   2   2 8600.94  474.55
   0  -2   2  936.01   56.79
   0  -2   2  934.81   57.59
   0  -2   2 1147.99   57.39
   0  -2  -2  919.71   55.99
   0  -2  -2  877.71   55.09
   0  -2  -2  961.60   57.49
   0  -2   2  926.21   56.99
   0  -2  -2  935.31   55.79
   0  -2   2 1068.59   55.49
   0  -2  -2  908.91   54.89
   0  -2   2  918.01   55.09
   0  -2  -2  899.81   56.69
   0  -2   2  998.20   55.29
   0  -2   2  960.20   53.79
   0  -2  -2  973.20   56.99
   0  -2   2  970.40   53.79
   0   2   2  923.11   57.09
   0   2  -2  948.01   56.59
   0   2   2 1043.00   57.29
   0   2   2  981.50   56.79
   0   2  -2 1046.40   55.59
   0   2  -2  924.81   54.29
   0   2  -2  997.00   57.59
   0   2  -2  981.50   55.39
   0   2   2 1019.30   56.49
   0   2  -2  975.30   52.79
   0   2   2  979.50   56.09
   0   2   2  989.90   55.49
   0   2  -2 1118.39   57.69
   0   2  -2  959.80   54.59
   0   2   2  999.40   55.69
   0   2  -2  967.00   56.59
   0   2   2  994.20   56.29
   0   2  -2  988.80   55.49
   1  -2   2 2792.32  145.59
   1  -2   2 2569.14  145.29
  -1  -2  -2 2651.14  147.09
  -1  -2  -2 2564.84  145.49
   1  -2   2 2345.37  148.49
   1  -2   2 2842.72  147.89
  -1  -2  -2 2632.54  147.59
   1  -2   2 2600.94  147.09
  -1  -2  -2 2896.81  148.59
  -1  -2  -2 3092.09  149.49
  -1  -2  -2 2571.54  147.89
   1  -2   2 2629.14  147.09
   1  -2   2 2568.34  149.59
   1  -2   2 2646.34  149.59
  -1  -2  -2 2605.84  148.89
   1  -2   2 2565.14  145.59
  -1   2  -2 2959.50  146.39
  -1   2  -2 2943.61  145.99
  -1   2  -2 2748.02  149.69
   1   2   2 2571.04  147.79
   1   2   2 2630.44  148.29
   1   2   2 2650.14  148.49
  -1   2  -2 2543.35  147.49
   1   2   2 2735.33  147.49
   1   2   2 2545.25  147.59
   1   2   2 2620.14  148.49
  -1   2  -2 2976.20  149.49
  -1   2  -2 2539.35  147.19
   1   2   2 2843.92  145.79
  -1   2  -2 2643.84  148.49
   1   2   2 2677.13  149.19
   1   2   2 2659.73  148.59
  -1   2  -2 2665.83  145.39
  -1   2  -2 2654.13  146.49
  -1   2  -2 2625.74  146.99
  -1   2  -2 2536.35  149.19
   2  -2   2 2788.42  152.68
   2  -2   2 2716.13  154.68
   2  -2   2 2617.04  157.78
   2  -2   2 2806.32  153.68
  -2  -2  -2 2725.73  156.28
   2  -2   2 2833.42  157.18
  -2  -2  -2 2653.03  154.18
   2  -2   2 2967.00  158.18
  -2  -2  -2 2695.13  156.78
   2  -2   2 2734.53  156.28
   2  -2   2 3046.20  153.28
  -2  -2  -2 2881.41  152.08
   2  -2   2 2796.62  154.98
  -2  -2  -2 3024.70  154.18
   2  -2   2 2835.82  154.18
   2  -2   2 2816.02  153.68
  -2  -2  -2 2806.42  155.98
  -2  -2  -2 2729.83  155.28
  -2  -2  -2 2808.42  155.48
  -2  -2  -2 2943.31  156.88
   2   2   2 2820.82  153.98
  -2   2  -2 2706.13  154.98
  -2   2  -2 2790.52  153.88
   2   2   2 2754.62  155.38
  -2   2  -2 2690.73  156.18
   2   2   2 2698.13  156.38
  -2   2  -2 2719.63  155.38
   2   2   2 2966.50  156.08
  -2   2  -2 2811.62  153.68
  -2   2  -2 2769.72  156.88
  -2   2  -2 2754.42  154.28
  -2   2  -2 2719.73  154.68
   2   2   2 2743.13  156.48
   2   2   2 2677.23  154.68
   2   2   2 2719.33  155.38
  -2   2  -2 2748.23  157.18
   2   2   2 2759.22  156.08
  -2   2  -2 2870.71  153.58
  -2   2  -2 2786.92  156.88
  -3  -2  -2  199.58   18.50
   3  -2   2  168.48   20.70
   3  -2   2  158.28   13.40
   3  -2   2  198.88   15.10
  -3  -2  -2  158.18   15.90
   3  -2   2  166.08   13.80
   3  -2   2  163.48   15.10
   3  -2   2  184.48   16.30
  -3  -2  -2  193.08   16.30
   3  -2   2  200.88   13.90
   3  -2   2  189.18   19.00
  -3  -2  -2  187.88   14.30
   3  -2   2  181.18   16.00
   3   2   2  172.98   17.00
   3   2   2  177.38   16.50
   3   2   2  168.88   15.90
  -3   2  -2  188.48   17.20
   3   2   2  171.38   17.90
   3   2   2  173.58   17.60
  -3   2  -2  176.68   18.30
  -3   2  -2  165.88   13.60
   3   2   2  198.08   16.90
   3   2   2  171.58   15.70
  -3   2  -2  211.98   17.30
  -3   2  -2  185.28   16.50
   4  -2   2  223.28   19.50
  -4  -2  -2  255.37   18.20
  -4  -2  -2  219.68   19.10
   4  -2   2  207.18   25.50
   4  -2   2  206.68   16.80
  -4  -2  -2  200.08   19.20
   4  -2   2  201.78   19.20
  -4  -2  -2  188.48   22.20
   4  -2   2  217.48   24.00
   4  -2   2  193.08   16.20
   4  -2   2  196.88   20.70
   4  -2   2  201.58   15.00
   4   2   2  228.28   19.90
  -4   2  -2  190.08   21.70
  -4   2  -2  192.58   21.20
  -4   2  -2  193.08   18.80
   4   2   2  172.38   21.20
  -4   2  -2  183.58   20.00
   4   2   2  230.08   18.90
   4   2   2  201.88   21.70
   5  -2   2  400.56   28.50
  -5  -2  -2  353.16   30.70
   5  -2   2  433.86   32.10
   5  -2   2  380.86   36.70
  -5  -2  -2  499.95   36.60
   5  -2   2  386.66   34.10
   5  -2   2  456.25   33.70
  -5  -2  -2  412.76   31.90
   5  -2   2  449.06   29.70
  -5   2  -2  362.16   32.70
   5   2   2  388.26   33.40
  -5   2  -2  362.96   31.40
  -5   2  -2  366.16   31.60
   5   2   2  351.76   31.30
   5   2   2  361.86   29.30
   5   2   2  391.46   31.10
   6  -2   2   50.79   11.40
   6  -2   2   43.60    9.90
   6  -2   2   47.60   11.90
   6  -2   2   41.90   13.90
   6  -2   2   32.70   12.70
  -6  -2  -2   40.40   12.30
  -6  -2  -2   25.40   10.70
  -6  -2  -2   43.50   12.30
  -6   2  -2   46.80   11.90
   6   2   2    9.50    9.10
  -6   2  -2   15.90   10.90
  -6   2  -2   55.69   13.80
   6   2   2   26.10   11.80
   6   2   2   77.19   13.60
   6   2   2   46.10   12.30
   6   2   2   24.60    8.60
   7  -2   2  101.49   19.00
  -7  -2  -2  116.49   19.20
   7  -2   2  117.49   19.30
  -7  -2  -2  167.48   24.20
   7  -2   2  126.79   26.20
  -7  -2  -2  102.49   19.90
   7  -2   2  116.79   16.40
  -7   2  -2  104.09   18.90
  -7   2  -2  146.79   22.20
   7   2   2  132.19   20.70
  -7   2  -2  107.09   19.30
   7   2   2  144.49   20.50
   7   2   2  120.29   20.70
   7   2   2  125.09   18.80
   7   2   2  139.69   25.80
   8  -3  -2   87.09   20.70
   8  -3  -2  103.49   23.40
  -8  -3   2  106.59   21.90
  -8  -3   2  104.09   19.40
  -8  -3   2   79.89   16.90
  -8  -3   2   83.99   18.60
  -8   3   2   86.49   16.80
   8   3  -2   89.89   19.40
   8   3  -2   95.79   17.30
   8   3  -2   61.59   17.40
   8   3  -2  129.19   22.60
  -8   3   2  100.09   19.10
  -8   3   2   89.29   18.50
  -7  -3   2  268.37   32.20
  -7  -3   2  229.08   29.60
   7  -3  -2  282.17   24.40
   7  -3  -2  309.17   37.70
  -7  -3   2  301.57   30.60
   7  -3  -2  243.08   32.00
  -7  -3   2  287.27   33.70
  -7   3   2  267.67   30.70
  -7   3   2  319.87   30.40
   7   3  -2  293.07   33.50
   7   3  -2  252.77   28.60
   7   3  -2  371.56   32.50
   7   3  -2  351.26   35.70
  -7   3   2  269.77   30.30
  -6  -3   2  151.18   22.10
  -6  -3   2  149.19   19.20
   6  -3  -2  198.58   27.70
   6  -3  -2  150.38   23.70
   6  -3  -2  160.88   20.10
   6  -3  -2  151.98   16.80
  -6  -3   2  139.69   20.70
  -6  -3   2  163.08   22.10
   6   3  -2  160.88   21.20
   6   3  -2  139.79   18.70
  -6   3   2  168.08   22.20
   6   3  -2  181.88   19.90
   6   3  -2  155.18   21.00
  -6   3   2  152.48   19.80
  -6   3   2  158.18   20.50
   6   3  -2  185.18   23.30
   5  -3  -2  326.47   31.90
  -5  -3   2  321.77   29.20
   5  -3  -2  409.06   26.90
  -5  -3   2  350.36   21.50
  -5  -3   2  333.97   25.40
  -5  -3   2  401.96   31.50
   5  -3  -2  395.16   30.30
   5  -3  -2  341.07   31.70
  -5  -3   2  359.46   30.40
  -5  -3   2  433.86   30.30
   5   3  -2  331.77   29.30
   5   3  -2  361.76   29.30
   5   3  -2  372.86   28.90
   5   3  -2  356.26   28.50
   5   3  -2  308.67   29.80
  -5   3   2  382.76   29.90
  -5   3   2  410.16   29.90
  -5   3   2  330.17   28.50
   5   3  -2  422.96   31.00
  -5   3   2  362.76   29.80
  -4  -3   2  553.24   39.60
   4  -3  -2  536.65   37.20
   4  -3  -2  520.45   41.50
  -4  -3   2  630.54   40.30
  -4  -3   2  514.05   38.70
  -4  -3   2  580.04   31.10
   4  -3  -2  529.85   40.60
   4  -3  -2  573.84   35.10
  -4  -3   2  553.44   33.80
   4  -3  -2  570.24   35.30
  -4  -3   2  531.15   36.70
  -4   3   2  574.74   37.70
   4   3  -2  510.15   36.90
  -4   3   2  528.85   38.10
  -4   3   2  574.34   38.10
   4   3  -2  565.74   39.50
   4   3  -2  510.35   36.60
   4   3  -2  479.95   36.50
   4   3  -2  507.25   37.50
  -4   3   2  576.04   38.40
  -4   3   2  571.64   31.10
  -3  -3   2 1111.99   70.19
   3  -3  -2 1088.89   72.49
  -3  -3   2 1219.78   68.29
  -3  -3   2 1185.68   70.99
  -3  -3   2 1281.67   69.49
  -3  -3   2 1142.39   64.99
   3  -3  -2 1176.88   69.39
  -3  -3   2 1078.59   68.19
   3  -3  -2 1220.58   67.09
  -3  -3   2 1123.69   70.49
   3  -3  -2 1291.37   69.89
   3  -3  -2 1175.08   72.69
   3  -3  -2 1176.88   66.89
  -3   3   2 1211.18   68.49
  -3   3   2 1177.18   68.69
   3   3  -2 1124.59   69.99
  -3   3   2 1189.88   65.69
   3   3  -2 1158.18   70.29
   3   3  -2 1098.19   68.49
  -3   3   2 1330.07   69.89
  -3   3   2 1085.79   68.99
   3   3  -2 1119.19   68.89
  -3   3   2 1288.07   70.09
   3   3  -2 1124.49   68.59
   3   3  -2 1091.09   70.19
  -2  -3   2 5159.38  269.97
   2  -3  -2 5021.80  272.27
   2  -3  -2 4775.42  269.97
   2  -3  -2 5181.68  272.07
  -2  -3   2 4569.04  273.67
  -2  -3   2 4876.31  274.37
  -2  -3   2 5031.20  272.77
  -2  -3   2 5767.32  273.77
  -2  -3   2 4849.11  270.77
  -2  -3   2 4760.52  271.07
   2  -3  -2 4896.71  275.57
   2  -3  -2 4837.02  276.07
   2  -3  -2 4930.81  270.07
   2  -3  -2 4869.81  272.07
  -2  -3   2 4777.62  271.37
  -2   3   2 4775.32  272.17
  -2   3   2 4726.93  271.27
  -2   3   2 4977.20  275.67
  -2   3   2 5046.10  271.17
   2   3  -2 5466.35  275.17
   2   3  -2 4974.50  271.77
   2   3  -2 4821.92  271.87
   2   3  -2 4951.60  273.87
  -2   3   2 5537.05  272.67
   2   3  -2 4670.73  272.57
  -2   3   2 5193.38  271.97
  -2   3   2 5067.89  271.37
   2   3  -2 5617.24  272.57
   2   3  -2 4937.61  272.97
  -2   3   2 4835.92  275.07
   2   3  -2 5046.60  273.67
   2   3  -2 4777.72  271.37
  -1  -3   2 1873.51  100.29
  -1  -3   2 1759.32  101.79
  -1  -3   2 1849.71   98.69
  -1  -3   2 1731.93   99.69
   1  -3  -2 1749.62   99.79
   1  -3  -2 1778.62  102.59
  -1  -3   2 1743.93   99.79
   1  -3  -2 1803.82   98.29
  -1  -3   2 1653.63  102.29
   1  -3  -2 1732.63  102.99
  -1  -3   2 1780.42  102.29
   1  -3  -2 1690.33   99.79
   1  -3  -2 1753.02   98.39
  -1  -3   2 1682.13   97.69
  -1  -3   2 1850.51   97.89
   1  -3  -2 1863.41   98.39
  -1   3   2 1827.22   99.39
  -1   3   2 1708.03   99.09
  -1   3   2 1777.12   97.89
  -1   3   2 1814.62  100.19
   1   3  -2 1767.32   98.49
   1   3  -2 1846.12  100.09
   1   3  -2 1783.02   98.89
  -1   3   2 1740.43  103.19
   1   3  -2 1818.12   99.09
   1   3  -2 1812.62   99.09
  -1   3   2 2091.59  103.79
   1   3  -2 1841.42  102.59
   1   3  -2 1803.12  101.79
  -1   3   2 1945.11  100.39
   1   3  -2 1737.33   99.89
   1   3  -2 1775.52   97.39
   1   3  -2 1793.62  102.29
  -1   3   2 1693.53   98.19
   1   3  -2 1818.32   98.69
  -1   3   2 1679.43  100.49
  -1   3   2 2079.59  103.79
   0  -3  -2  918.31   52.89
   0  -3  -2 1019.90   54.79
   0  -3  -2  974.70   53.29
   0  -3  -2 1051.99   55.09
   0  -3   2 1023.90   57.69
   0  -3  -2  954.70   56.89
   0  -3   2  970.50   53.29
   0  -3   2  945.91   55.99
   0  -3  -2  946.31   56.69
   0  -3   2  916.71   54.49
   0  -3  -2  962.20   52.59
   0  -3   2  915.11   55.79
   0  -3   2  975.20   56.09
   0   3   2  881.61   55.99
   0   3  -2  936.51   55.89
   0   3  -2  893.21   55.69
   0   3  -2  920.51   54.29
   0   3  -2  976.00   53.49
   0   3   2  923.71   53.79
   0   3  -2  918.71   52.39
   0   3   2  942.31   55.69
   0   3   2  926.61   56.59
   0   3  -2  907.11   52.09
   0   3  -2  946.11   56.89
   0   3  -2 1012.20   52.39
   0   3   2  901.51   54.49
   0   3  -2  893.01   55.89
   0   3   2  884.31   55.39
   0   3   2  871.81   53.49
   0   3  -2  899.61   53.29
   0   3  -2  967.90   54.39
   0   3   2  912.41   54.29
  -1  -3  -2   56.79    8.10
  -1  -3  -2   36.00    7.40
  -1  -3  -2   39.10    7.10
   1  -3   2   40.00    6.00
  -1  -3  -2   49.40    4.80
  -1  -3  -2   53.79    7.30
   1  -3   2   58.79    9.30
   1  -3   2   47.80    5.90
   1  -3   2   50.19    6.00
   1  -3   2   52.59    7.50
  -1  -3  -2   48.70    6.40
   1  -3   2   39.50    7.90
  -1  -3  -2   42.60    8.40
  -1  -3  -2   53.09    8.40
   1  -3   2   51.29    8.70
  -1   3  -2   45.50    8.90
   1   3   2   32.20    6.10
  -1   3  -2   36.50    4.90
  -1   3  -2   47.20    7.60
   1   3   2   30.10    6.30
   1   3   2   40.40    4.40
  -1   3  -2   39.80    6.00
  -1   3  -2   37.20    7.40
  -1   3  -2   49.60    6.10
  -1   3  -2   43.00    8.60
  -1   3  -2   53.39    6.30
   1   3   2   52.69    7.50
   1   3   2   48.10    7.90
   1   3   2   40.70    8.10
   1   3   2   33.30    8.10
  -1   3  -2   34.70    4.70
  -1   3  -2   37.10    4.80
   1   3   2   36.90    6.90
  -1   3  -2   29.40    6.40
   1   3   2   26.20    7.70
  -1   3  -2   22.20    6.20
   2  -3   2 3205.78  178.38
  -2  -3  -2 3083.49  176.08
   2  -3   2 3056.29  173.48
  -2  -3  -2 3085.29  173.68
  -2  -3  -2 3229.18  169.58
   2  -3   2 3162.58  170.38
  -2  -3  -2 3363.06  176.48
  -2  -3  -2 3337.47  176.98
   2  -3   2 3029.60  177.18
  -2  -3  -2 3050.89  174.48
   2  -3   2 3085.49  173.68
  -2  -3  -2 3096.59  172.78
   2  -3   2 3111.99  170.38
   2  -3   2 3326.47  173.48
   2  -3   2 3099.59  177.98
   2  -3   2 3006.30  174.98
   2   3   2 3632.44  177.28
   2   3   2 3071.49  176.08
   2   3   2 3118.09  174.28
  -2   3  -2 3075.99  176.48
  -2   3  -2 3203.08  180.18
  -2   3  -2 3346.57  173.38
   2   3   2 3129.59  175.48
  -2   3  -2 3188.08  173.38
  -2   3  -2 3004.00  174.28
  -2   3  -2 3029.60  173.58
  -2   3  -2 3092.79  172.98
   2   3   2 3307.27  173.08
   2   3   2 3038.20  175.38
  -2   3  -2 2950.40  173.78
  -2   3  -2 3129.69  172.48
   3  -3   2  804.32   48.60
   3  -3   2  795.22   45.30
  -3  -3  -2  712.73   49.99
  -3  -3  -2  820.32   45.30
  -3  -3  -2  710.93   48.50
   3  -3   2  769.42   48.60
   3  -3   2  824.32   45.40
  -3  -3  -2  881.21   48.90
   3  -3   2  828.62   46.00
   3  -3   2  732.73   52.89
   3  -3   2  797.72   52.59
  -3   3  -2  743.43   45.50
   3   3   2  875.61   48.70
   3   3   2  763.22   50.89
   3   3   2  666.73   49.60
   3   3   2  732.73   48.60
  -3   3  -2  734.63   48.10
   3   3   2  743.53   49.90
  -3   3  -2  754.42   50.29
  -3   3  -2  776.72   48.10
   3   3   2  715.53   49.80
  -3   3  -2  774.32   49.10
   3   3   2  821.92   48.10
   4  -3   2  336.67   30.90
  -4  -3  -2  400.36   29.20
   4  -3   2  383.26   28.20
  -4  -3  -2  318.87   28.60
   4  -3   2  336.37   31.50
  -4  -3  -2  345.87   27.00
  -4  -3  -2  330.87   24.20
   4  -3   2  365.76   24.50
   4  -3   2  357.16   22.80
   4  -3   2  341.67   24.00
   4  -3   2  373.26   28.40
  -4   3  -2  398.76   28.70
  -4   3  -2  390.26   30.10
   4   3   2  335.47   28.90
   4   3   2  335.17   29.30
   4   3   2  394.06   26.70
   4   3   2  361.56   28.00
  -4   3  -2  388.66   29.00
  -4   3  -2  342.27   26.90
   4   3   2  348.87   28.50
  -5  -3  -2  256.27   26.10
   5  -3   2  331.77   29.80
   5  -3   2  272.97   26.60
  -5  -3  -2  287.07   26.10
   5  -3   2  314.67   22.90
   5  -3   2  304.67   27.30
   5  -3   2  276.27   33.70
  -5  -3  -2  298.47   28.10
  -5   3  -2  346.27   27.80
   5   3   2  295.97   24.10
   5   3   2  339.37   26.80
   5   3   2  296.67   27.10
  -5   3  -2  299.27   28.50
   5   3   2  361.96   30.30
  -5   3  -2  307.37   27.00
  -6  -3  -2   28.40   11.00
   6  -3   2    8.70   10.80
   6  -3   2   50.99   17.20
  -6  -3  -2   25.20   10.00
  -6  -3  -2   42.00   14.00
   6  -3   2   24.70    7.30
   6  -3   2   30.00   11.40
  -6   3  -2   24.20   10.60
   6   3   2   18.90    8.10
  -6   3  -2   14.30    8.50
  -6   3  -2   37.40   11.50
   6   3   2   20.00    9.40
   6   3   2   44.30   13.00
   7  -3   2   35.90   17.40
  -7  -3  -2   19.80   11.90
  -7  -3  -2   10.20    9.20
   7  -3   2   11.80   11.40
  -7  -3  -2   27.80   13.10
   7  -3   2   30.90   12.50
   7   3   2   11.70   11.70
  -7   3  -2    0.10    6.70
  -7   3  -2   31.40   12.00
   7   3   2   11.20   10.20
   7   3   2    2.40    9.30
  -7   3  -2   13.70    9.60
   7   3   2   27.00   11.40
   7   3   2   -2.00    9.20
   7  -4  -2  102.59   23.00
  -7  -4   2  111.59   21.30
  -7  -4   2  103.89   19.20
  -7  -4   2  113.19   18.70
   7  -4  -2   91.59   21.10
  -7  -4   2  151.08   22.40
  -7   4   2  120.89   18.50
  -7   4   2  125.79   20.10
   7   4  -2   93.19   17.60
   7   4  -2  107.79   19.80
   7   4  -2   90.69   19.30
   7   4  -2   98.89   17.50
  -7   4   2  123.99   19.70
  -6  -4   2   97.99   17.80
   6  -4  -2   80.39   11.60
  -6  -4   2   87.59   14.80
  -6  -4   2   84.29   17.30
   6  -4  -2  109.19   20.10
   6  -4  -2   57.29   17.60
  -6  -4   2   80.99   16.10
   6   4  -2   91.19   15.50
  -6   4   2   82.69   14.30
  -6   4   2  101.69   16.70
   6   4  -2   90.89   15.70
   6   4  -2  107.49   16.20
   6   4  -2   90.49   16.00
  -6   4   2   86.29   14.60
   6   4  -2   92.09   16.40
   6   4  -2   84.09   16.50
   5  -4  -2   83.29   16.50
  -5  -4   2   72.99   15.10
   5  -4  -2   65.59   12.20
  -5  -4   2   89.09   14.90
  -5  -4   2   68.69    9.50
   5  -4  -2   65.99    8.70
  -5  -4   2   63.59   12.10
  -5  -4   2   81.49   15.00
   5  -4  -2   99.49   19.30
  -5   4   2   84.29   13.10
   5   4  -2   64.19   13.10
  -5   4   2   78.39   12.20
   5   4  -2   62.39   12.30
  -5   4   2   56.89   12.20
  -5   4   2   52.89   11.70
   5   4  -2   76.79   12.90
   5   4  -2   80.69   12.60
   5   4  -2   76.89   13.40
  -4  -4   2  143.59   18.60
   4  -4  -2  201.48   17.30
   4  -4  -2  157.48   21.30
  -4  -4   2  164.78   12.50
   4  -4  -2  179.68   13.30
  -4  -4   2  187.08   18.20
  -4  -4   2  177.08   19.70
   4  -4  -2  166.88   22.70
  -4  -4   2  167.08   19.20
  -4   4   2  183.68   19.20
   4   4  -2  153.28   18.50
  -4   4   2  155.28   17.60
  -4   4   2  148.69   16.60
   4   4  -2  163.08   17.60
   4   4  -2  175.48   16.60
  -4   4   2  166.38   10.80
  -4   4   2  209.48   17.70
   4   4  -2  187.78   20.30
   4   4  -2  136.79   18.00
   4   4  -2  166.18   15.80
   3  -4  -2   37.90    4.90
   3  -4  -2   57.79   12.20
  -3  -4   2   41.20    3.60
   3  -4  -2   34.50    7.20
  -3  -4   2   46.70    6.70
  -3  -4   2   54.09    7.80
  -3  -4   2   38.70    8.30
  -3  -4   2   50.49   10.20
   3  -4  -2   38.90    4.70
   3  -4  -2   40.80   11.20
   3   4  -2   49.70    8.30
  -3   4   2   31.80    7.30
  -3   4   2   37.70    5.50
   3   4  -2   40.80    8.70
  -3   4   2   39.60    7.40
  -3   4   2   45.90    7.40
   3   4  -2   46.30    8.90
   3   4  -2   25.20    7.20
   3   4  -2   27.90    7.00
  -3   4   2   39.00    7.20
  -3   4   2   16.80    8.20
   3   4  -2   33.10    7.90
  -3   4   2   37.80    7.00
   2  -4  -2   23.10    5.00
   2  -4  -2   18.50    4.40
  -2  -4   2   16.20    3.70
  -2  -4   2   12.80    3.10
  -2  -4   2   19.70    5.60
  -2  -4   2   13.60    4.40
   2  -4  -2    9.30    5.80
  -2  -4   2   13.20    3.50
   2  -4  -2   18.90    7.00
  -2  -4   2    6.70    5.00
   2  -4  -2   20.40    5.20
  -2  -4   2   13.20    6.70
   2   4  -2   10.40    6.70
   2   4  -2   22.30    7.70
   2   4  -2   15.80    4.80
  -2   4   2   14.70    4.30
   2   4  -2   16.90    4.40
  -2   4   2   17.00    4.90
   2   4  -2   16.90    5.60
   2   4  -2   17.80    4.50
   2   4  -2   20.70    5.90
  -2   4   2   18.50    4.40
  -2   4   2   19.90    6.60
  -2   4   2   14.80    4.10
  -2   4   2   22.10    4.50
  -2   4   2   18.80    4.90
   2   4  -2   21.60    5.00
  -2   4   2   15.10    4.80
  -1  -4   2 2464.85  130.19
   1  -4  -2 2350.86  129.39
  -1  -4   2 2358.86  130.19
   1  -4  -2 2224.78  134.69
  -1  -4   2 2367.96  133.79
   1  -4  -2 2339.47  130.49
   1  -4  -2 2300.37  134.19
   1  -4  -2 2342.27  130.29
  -1  -4   2 2778.72  135.49
  -1  -4   2 2373.46  131.49
  -1  -4   2 2323.37  130.19
  -1   4   2 2210.28  133.99
   1   4  -2 2476.15  130.69
   1   4  -2 2363.66  130.69
   1   4  -2 2268.57  133.19
  -1   4   2 2395.66  130.69
  -1   4   2 2255.07  134.19
   1   4  -2 2255.97  129.69
   1   4  -2 2364.96  130.59
   1   4  -2 2485.25  129.39
  -1   4   2 2313.57  130.49
  -1   4   2 2310.37  129.59
  -1   4   2 2420.36  135.89
   1   4  -2 2494.05  129.59
   1   4  -2 2378.56  131.19
  -1   4   2 2487.15  129.29
  -1   4   2 2318.57  129.39
  -1   4   2 2331.47  131.89
  -1   4   2 2263.07  129.49
   1   4  -2 2264.57  133.79
   1   4  -2 2344.77  129.39
   1   4  -2 2315.67  133.79
   0  -4  -2 6487.45  363.36
   0  -4   2 6301.37  363.76
   0  -4  -2 6544.15  360.56
   0  -4   2 6605.24  362.86
   0  -4  -2 6500.05  359.36
   0  -4   2 6353.76  362.76
   0  -4   2 6718.63  358.76
   0  -4   2 6489.65  361.86
   0  -4  -2 6637.14  357.86
   0  -4   2 6581.54  362.96
   0  -4  -2 6564.14  360.26
   0  -4  -2 7535.35  365.66
   0  -4   2 6464.35  358.66
   0   4  -2 6545.15  361.46
   0   4  -2 6646.83  359.16
   0   4   2 6792.92  364.56
   0   4   2 6247.87  360.36
   0   4   2 6575.54  360.76
   0   4  -2 6646.13  357.66
   0   4   2 6334.67  357.56
   0   4   2 6513.95  359.66
   0   4   2 7203.48  363.16
   0   4   2 6295.07  362.96
   0   4  -2 6392.66  357.56
   0   4  -2 7227.08  359.26
   0   4  -2 6758.02  357.66
   0   4  -2 6472.95  362.66
   0   4  -2 6461.35  362.86
   0   4  -2 6904.91  359.16
   0   4   2 6596.34  359.56
   0   4  -2 6768.32  362.76
   0   4   2 6655.73  357.46
   0   4   2 7139.49  360.06
   0   4  -2 6532.55  363.76
   0   4  -2 7307.37  362.46
  -1  -4  -2 3300.77  160.78
   1  -4   2 2745.13  163.18
  -1  -4  -2 2769.52  160.18
   1  -4   2 2834.32  160.68
  -1  -4  -2 2987.80  158.28
  -1  -4  -2 2853.71  161.58
  -1  -4  -2 2809.12  159.38
   1  -4   2 2888.81  162.68
   1  -4   2 2925.41  157.68
  -1  -4  -2 2765.92  158.38
   1  -4   2 2709.43  162.88
  -1  -4  -2 2778.02  160.58
   1  -4   2 2806.92  160.08
  -1  -4  -2 2865.51  161.98
   1  -4   2 3116.19  157.88
  -1   4  -2 3233.08  162.88
   1   4   2 2826.62  156.68
  -1   4  -2 2835.82  160.48
   1   4   2 2737.63  162.88
  -1   4  -2 2840.72  162.88
  -1   4  -2 2864.61  156.78
   1   4   2 3321.07  161.58
  -1   4  -2 2655.13  157.98
   1   4   2 2738.53  160.18
   1   4   2 3142.79  162.18
  -1   4  -2 2769.82  161.78
  -1   4  -2 3208.48  163.08
   1   4   2 2851.51  159.18
  -1   4  -2 2988.70  159.98
   1   4   2 2809.62  159.48
  -1   4  -2 2699.33  162.78
  -1   4  -2 2926.81  156.68
  -1   4  -2 2884.51  157.98
   1   4   2 2763.52  161.68
   2  -4   2  946.01   57.29
   2  -4   2  916.21   61.59
  -2  -4  -2  992.20   56.29
  -2  -4  -2 1085.49   60.89
  -2  -4  -2 1079.99   58.39
   2  -4   2  993.40   62.79
   2  -4   2  923.91   61.89
   2  -4   2  952.80   58.39
  -2  -4  -2  980.20   57.19
  -2  -4  -2  957.30   59.39
   2  -4   2  918.31   56.29
  -2   4  -2  966.00   57.19
   2   4   2 1085.49   56.59
  -2   4  -2  962.10   56.79
  -2   4  -2  981.60   55.79
  -2   4  -2  934.81   56.99
   2   4   2  916.81   59.09
  -2   4  -2 1009.70   61.29
  -2   4  -2  948.71   57.39
  -2   4  -2  934.51   57.49
   2   4   2  923.11   59.39
  -2   4  -2  987.00   56.19
   2   4   2  932.41   59.69
   2   4   2  994.50   60.09
   2   4   2 1098.19   58.89
  -2   4  -2  904.61   56.89
   3  -4   2  809.62   48.30
  -3  -4  -2  687.83   46.80
   3  -4   2  782.72   53.29
   3  -4   2  691.43   45.80
  -3  -4  -2  755.82   49.20
  -3  -4  -2  733.53   42.10
   3  -4   2  733.73   44.40
  -3  -4  -2  713.23   45.70
   3  -4   2  719.83   51.39
   3   4   2  694.03   48.60
  -3   4  -2  687.93   46.00
   3   4   2  717.53   46.90
  -3   4  -2  792.32   46.30
   3   4   2  711.63   45.50
  -3   4  -2  729.13   44.00
   3   4   2  840.72   50.79
   3   4   2  747.53   49.00
   3   4   2  718.53   48.40
  -3   4  -2  904.51   51.49
   3   4   2  723.93   45.80
  -3   4  -2  802.92   47.40
   4  -4   2  249.38   24.90
  -4  -4  -2  227.88   20.80
   4  -4   2  197.58   26.70
   4  -4   2  242.48   15.60
   4  -4   2  231.68   16.30
  -4  -4  -2  201.08   21.50
   4  -4   2  270.27   21.40
   4  -4   2  250.17   22.10
  -4  -4  -2  271.57   27.30
  -4  -4  -2  237.38   17.30
   4   4   2  265.77   19.80
  -4   4  -2  221.58   20.50
   4   4   2  250.47   22.30
  -4   4  -2  280.97   22.10
   4   4   2  227.48   22.20
   4   4   2  229.28   23.80
  -4   4  -2  245.08   16.20
   4   4   2  282.27   24.60
  -4   4  -2  197.28   20.70
  -4   4  -2  202.58   24.20
  -5  -4  -2    3.30    8.70
  -5  -4  -2    7.20    5.90
   5  -4   2    7.10    7.40
  -5  -4  -2    3.50    8.10
   5  -4   2    2.20    6.30
   5  -4   2    7.70    4.00
   5  -4   2    0.70    7.10
   5  -4   2    6.80    8.80
   5   4   2    4.60    5.80
   5   4   2    9.80    7.20
  -5   4  -2    8.70    5.80
   5   4   2   -2.70    6.00
   5   4   2   12.10    6.10
  -5   4  -2   10.60    7.30
  -5   4  -2   11.60    8.10
   6  -4   2    2.90   10.00
  -6  -4  -2   32.40   10.00
  -6  -4  -2   32.60    9.50
   6  -4   2   22.80   11.80
   6  -4   2    5.40   13.00
  -6  -4  -2   23.10   10.70
   6   4   2   17.80    9.50
  -6   4  -2   29.00    9.20
   6   4   2   10.60   11.10
  -6   4  -2   11.30   10.60
   6   4   2   38.40   13.20
  -6   4  -2   18.70    9.90
  -7  -4  -2   87.39   18.10
   7  -4   2  124.79   23.50
   7  -4   2  137.39   28.60
  -7  -4  -2  147.39   24.70
  -7  -4  -2  125.99   19.90
   7  -4   2  171.78   24.60
  -7   4  -2  154.28   24.80
  -7   4  -2  185.78   24.30
   7   4   2  159.58   23.20
  -7   4  -2  148.29   22.50
   7   4   2  146.79   24.50
   7   4   2  136.29   21.20
   7   4   2  166.28   24.40
  -7  -5   2  200.48   27.80
   7  -5  -2  162.38   29.10
  -7  -5   2  184.78   26.50
  -7  -5   2  156.48   24.50
   7  -5  -2  131.99   25.60
  -7  -5   2  155.28   21.70
   7   5  -2  167.68   24.10
  -7   5   2  153.28   22.40
   7   5  -2  173.18   24.20
   7   5  -2  187.68   23.40
  -7   5   2  180.58   24.50
   7   5  -2  220.98   28.10
  -7   5   2  159.78   22.10
   7   5  -2  177.78   23.80
  -6  -5   2  273.37   24.20
  -6  -5   2  242.88   27.80
   6  -5  -2  298.97   34.10
   6  -5  -2  279.07   35.10
  -6  -5   2  274.77   29.70
  -6  -5   2  297.87   32.30
  -6   5   2  255.17   27.80
   6   5  -2  208.98   26.80
   6   5  -2  283.27   27.80
  -6   5   2  225.78   26.20
  -6   5   2  229.58   26.30
   6   5  -2  264.37   25.00
   6   5  -2  254.57   27.50
   6   5  -2  270.17   27.80
   6   5  -2  270.77   26.20
  -5  -5   2  330.77   28.70
  -5  -5   2  302.17   28.60
   5  -5  -2  281.87   24.60
   5  -5  -2  304.97   34.50
  -5  -5   2  280.67   29.60
   5  -5  -2  310.97   34.00
  -5  -5   2  307.67   25.10
   5  -5  -2  301.37   18.80
   5   5  -2  297.37   26.00
  -5   5   2  287.17   26.00
  -5   5   2  356.96   27.20
   5   5  -2  277.87   25.80
   5   5  -2  286.57   26.30
   5   5  -2  275.07   27.10
  -5   5   2  333.37   25.70
   5   5  -2  288.67   26.90
   4  -5  -2  409.06   36.40
   4  -5  -2  408.56   34.40
   4  -5  -2  414.06   29.50
  -4  -5   2  460.25   32.90
  -4  -5   2  421.46   24.70
  -4  -5   2  404.16   31.40
  -4  -5   2  423.16   28.60
  -4  -5   2  372.56   32.00
  -4   5   2  409.96   29.80
   4   5  -2  385.96   30.70
   4   5  -2  375.26   29.90
   4   5  -2  498.75   33.80
  -4   5   2  392.46   30.80
  -4   5   2  427.26   30.20
  -4   5   2  408.46   29.40
   4   5  -2  346.97   30.60
   4   5  -2  363.36   29.50
  -4   5   2  401.66   24.40
   4   5  -2  452.25   33.90
  -3  -5   2  240.48   18.10
  -3  -5   2  239.18   21.10
  -3  -5   2  224.58   17.50
  -3  -5   2  232.58   21.50
   3  -5  -2  234.08   23.50
   3  -5  -2  243.38   19.20
   3  -5  -2  231.08   24.50
  -3  -5   2  262.77   22.90
   3   5  -2  248.18   21.50
   3   5  -2  261.47   21.50
  -3   5   2  299.87   25.10
   3   5  -2  311.57   21.80
  -3   5   2  249.28   17.80
  -3   5   2  262.97   19.90
  -3   5   2  272.77   19.90
   3   5  -2  300.37   21.00
   3   5  -2  293.07   20.60
   3   5  -2  233.58   22.10
  -3   5   2  260.17   19.20
  -3   5   2  254.77   20.60
   2  -5  -2  195.38   21.70
  -2  -5   2  165.88   14.40
  -2  -5   2  155.48   14.50
   2  -5  -2  174.88   14.70
  -2  -5   2  162.38   18.30
  -2  -5   2  176.78   11.10
  -2  -5   2  193.68   19.70
  -2  -5   2  165.88   12.80
   2  -5  -2  162.18   20.40
  -2  -5   2  164.38   10.80
   2   5  -2  173.28   14.80
   2   5  -2  193.48   15.40
  -2   5   2  208.38   13.50
  -2   5   2  187.88   13.90
  -2   5   2  148.49   13.10
   2   5  -2  162.28   15.00
   2   5  -2  184.48   19.90
   2   5  -2  161.18   13.90
  -2   5   2  190.28   20.70
  -2   5   2  172.98   14.10
  -2   5   2  166.28   13.40
  -2   5   2  167.08   13.80
  -2   5   2  194.18   14.90
   2   5  -2  170.48   13.70
   1  -5  -2 1378.06   91.59
  -1  -5   2 1488.45   90.39
  -1  -5   2 1549.05   90.89
   1  -5  -2 1511.15   86.09
  -1  -5   2 1651.73   87.09
  -1  -5   2 1674.43   86.19
  -1  -5   2 1493.45   88.09
   1   5  -2 1527.75   85.09
  -1   5   2 1419.16   85.29
   1   5  -2 1660.73   86.79
  -1   5   2 1453.55   86.29
   1   5  -2 1561.34   90.69
  -1   5   2 1559.04   86.59
   1   5  -2 1505.45   86.29
  -1   5   2 1869.01   93.29
   1   5  -2 1427.46   90.49
   1   5  -2 1477.95   85.09
  -1   5   2 1597.14   85.69
   1   5  -2 1529.45   85.69
   1   5  -2 1442.26   86.39
   1   5  -2 1521.25   88.09
   1   5  -2 1535.65   87.89
  -1   5   2 1542.95   86.39
  -1   5   2 1544.75   85.59
   0  -5  -2  123.99   14.40
   0  -5   2  121.79   14.20
   0  -5  -2   90.69    9.10
   0  -5  -2   91.49    9.80
   0  -5   2   93.79   13.40
   0  -5  -2   85.69   13.50
   0  -5  -2   87.49    9.70
   0  -5   2   92.29   12.30
   0  -5   2   79.19   12.40
   0  -5   2   94.89    7.40
   0  -5   2   95.09    7.40
   0   5  -2  104.19   13.50
   0   5   2   85.29    9.20
   0   5   2  114.49    9.70
   0   5   2   98.89    9.00
   0   5  -2   96.99    7.90
   0   5   2  108.89   10.80
   0   5  -2  107.29   13.00
   0   5  -2   98.39    6.20
   0   5   2  113.89   13.60
   0   5   2  100.89   10.30
   0   5  -2  104.29   12.30
   0   5   2  105.49    9.00
   0   5  -2  104.99   12.80
   0   5  -2  108.29   10.40
   0   5   2   91.49   12.40
   0   5   2  102.19    7.30
   0   5  -2   99.09    8.10
   0   5  -2   93.89    6.20
  -1  -5  -2 2072.79  120.99
   1  -5   2 2078.49  124.29
  -1  -5  -2 2033.30  120.49
   1  -5   2 2129.79  117.09
   1  -5   2 2243.18  124.59
  -1  -5  -2 2138.69  123.19
  -1  -5  -2 2102.89  120.49
   1  -5   2 2025.40  124.39
  -1  -5  -2 2340.47  117.69
  -1  -5  -2 2060.89  117.59
   1  -5   2 2412.06  122.89
  -1   5  -2 2268.07  123.79
   1   5   2 2197.68  121.29
  -1   5  -2 2074.89  123.09
   1   5   2 2143.59  122.79
   1   5   2 2091.19  122.59
   1   5   2 2046.00  119.79
  -1   5  -2 2088.09  117.89
   1   5   2 2203.68  117.29
  -1   5  -2 2088.19  121.59
  -1   5  -2 2139.19  117.79
  -1   5  -2 2330.27  122.09
  -1   5  -2 2156.48  116.09
   1   5   2 2124.39  120.79
   1   5   2 2152.78  116.89
  -1   5  -2 2128.99  116.09
   1   5   2 2018.40  119.29
   2  -5   2   52.79   10.90
  -2  -5  -2   59.39    9.70
  -2  -5  -2   55.09    7.80
   2  -5   2   51.29    9.80
  -2  -5  -2   60.69   10.00
  -2  -5  -2   58.69    7.20
  -2  -5  -2   56.89    7.60
   2  -5   2   35.30    9.30
   2  -5   2   70.49    7.40
   2  -5   2   84.89   13.70
   2   5   2   31.70    8.70
   2   5   2   47.00    9.10
  -2   5  -2   57.59    7.20
  -2   5  -2   53.89    9.20
  -2   5  -2   63.89   11.50
   2   5   2   47.50    9.20
  -2   5  -2   41.00    7.60
  -2   5  -2   45.60    6.80
   2   5   2   53.89    8.60
  -2   5  -2   52.49    6.40
  -2   5  -2   46.10    5.90
   2   5   2   53.39    6.90
   2   5   2   42.80    8.30
  -2   5  -2   51.49    7.80
  -3  -5  -2   14.40    1.80
  -3  -5  -2   11.60    5.00
   3  -5   2   16.00    4.70
   3  -5   2   14.70    9.00
  -3  -5  -2   27.10    9.00
  -3  -5  -2   24.30    6.40
   3  -5   2   10.90    8.60
  -3  -5  -2   14.80    1.80
   3  -5   2   11.20    6.20
   3   5   2   17.10    5.50
  -3   5  -2   21.20    5.00
   3   5   2   25.70    8.60
   3   5   2   11.40    6.90
  -3   5  -2   19.00    7.70
  -3   5  -2   11.80    4.80
  -3   5  -2   15.50    4.90
   3   5   2   13.50    6.60
   3   5   2   11.20    5.00
   3   5   2   10.90    6.60
  -3   5  -2   10.90    4.30
  -4  -5  -2  592.04   42.00
  -4  -5  -2  662.93   42.50
   4  -5   2  676.23   49.40
   4  -5   2  628.04   49.40
  -4  -5  -2  618.34   37.10
  -4  -5  -2  599.04   45.20
   4  -5   2  653.43   44.80
   4  -5   2  613.84   41.10
  -4   5  -2  608.34   37.20
  -4   5  -2  632.34   41.70
  -4   5  -2  671.43   42.60
   4   5   2  589.54   43.80
  -4   5  -2  666.63   46.00
   4   5   2  601.84   44.40
   4   5   2  612.44   44.70
  -4   5  -2  676.83   43.00
   4   5   2  639.14   39.70
   4   5   2  581.74   43.00
  -5  -5  -2  179.68   23.30
   5  -5   2  194.48   27.80
   5  -5   2  210.58   27.50
   5  -5   2  237.08   25.90
  -5  -5  -2  179.78   20.40
  -5  -5  -2  206.78   22.30
   5   5   2  158.48   21.80
  -5   5  -2  170.08   20.60
  -5   5  -2  171.58   22.40
   5   5   2  198.48   24.40
   5   5   2  205.78   22.40
  -5   5  -2  216.78   22.90
   6  -5   2   94.09   20.50
  -6  -5  -2   68.49   14.40
   6  -5   2   77.89   16.60
   6  -5   2   94.79   20.20
  -6  -5  -2   68.79   14.20
  -6  -5  -2   90.39   17.20
  -6   5  -2   90.79   16.10
  -6   5  -2   88.69   17.00
   6   5   2   64.59   15.60
   6   5   2   67.79   14.70
   6   5   2   76.29   15.10
  -6   5  -2   85.29   14.60
  -7  -5  -2   31.70   11.80
  -7  -5  -2    4.00   10.50
  -7  -5  -2   33.00   10.70
   7  -5   2    1.30   12.00
   7  -5   2   39.10   14.70
  -7   5  -2   16.00   10.90
   7   5   2   36.00   12.60
  -7   5  -2   49.20   14.10
   7   5   2   25.80   11.10
  -7   5  -2   15.30   11.40
  -7  -6   2   61.49   13.00
   7  -6  -2   58.09   20.10
   7  -6  -2   57.69   16.30
  -7  -6   2   68.09   17.40
  -7  -6   2   60.59   14.60
   7   6  -2   76.79   16.40
   7   6  -2   56.39   14.50
   7   6  -2   68.39   16.70
   7   6  -2   57.39   16.30
   7   6  -2   76.99   15.50
  -7   6   2   44.50   13.20
   7   6  -2   45.60   13.70
  -7   6   2   60.59   14.80
  -7   6   2   74.49   14.80
   6  -6  -2  120.89   23.30
  -6  -6   2  120.89   20.10
  -6  -6   2  135.19   17.10
  -6  -6   2  129.09   18.40
  -6  -6   2  131.29   20.60
  -6  -6   2  125.49   21.00
   6  -6  -2  115.79   23.00
  -6   6   2  125.29   18.20
   6   6  -2  130.89   19.00
   6   6  -2   90.89   16.90
   6   6  -2  109.39   18.90
  -6   6   2  151.48   19.40
  -6   6   2  105.19   17.30
   6   6  -2   85.79   18.60
   6   6  -2  113.79   17.50
  -5  -6   2   68.29   14.30
  -5  -6   2   67.49   13.70
  -5  -6   2   77.19   14.10
  -5  -6   2   56.09    9.90
   5  -6  -2   74.29   18.00
   5  -6  -2   65.99   16.20
  -5   6   2   87.39   13.30
  -5   6   2   69.09   11.80
   5   6  -2   68.79   12.40
   5   6  -2   92.49   16.10
   5   6  -2   83.59   14.50
   5   6  -2   47.80   12.50
   5   6  -2   78.49   12.90
  -5   6   2   55.09   12.80
  -4  -6   2  895.01   54.19
   4  -6  -2  952.30   55.79
  -4  -6   2  862.61   60.49
  -4  -6   2  869.71   58.79
   4  -6  -2  872.01   62.69
  -4  -6   2  897.91   58.39
   4  -6  -2  956.30   65.49
  -4  -6   2  928.41   53.69
  -4  -6   2  883.51   49.70
   4   6  -2  837.72   57.89
   4   6  -2  936.21   58.89
   4   6  -2  920.51   58.09
  -4   6   2  923.91   55.59
   4   6  -2  861.51   60.09
  -4   6   2  910.31   55.89
  -4   6   2  939.81   63.09
   4   6  -2  853.21   56.39
  -4   6   2  920.61   56.09
   4   6  -2  837.62   55.89
  -4   6   2  819.12   56.99
  -4   6   2  883.31   51.39
  -3  -6   2  834.12   51.09
  -3  -6   2  715.83   41.30
   3  -6  -2  726.03   51.89
   3  -6  -2  667.13   51.79
  -3  -6   2  706.93   41.50
  -3  -6   2  689.53   47.60
   3   6  -2  689.73   44.40
  -3   6   2  725.53   43.50
  -3   6   2  747.03   51.19
  -3   6   2  698.53   45.50
   3   6  -2  830.72   51.49
   3   6  -2  747.03   46.90
  -3   6   2  691.13   44.10
  -3   6   2  694.03   43.90
  -3   6   2  664.13   46.40
  -3   6   2  692.13   43.50
   3   6  -2  686.43   45.90
   3   6  -2  678.43   45.40
  -2  -6   2   20.00    6.90
  -2  -6   2   26.40    6.40
   2  -6  -2   30.30    6.70
  -2  -6   2   41.00   10.10
   2  -6  -2   25.80    5.00
  -2  -6   2   28.30    5.60
  -2  -6   2   43.50    8.00
   2  -6  -2   21.60    9.50
   2  -6  -2   19.70   10.00
  -2   6   2   32.60    7.20
  -2   6   2   22.70    5.50
   2   6  -2   24.20    5.60
   2   6  -2   20.20    7.80
   2   6  -2   25.90    3.50
  -2   6   2   28.50    5.30
  -2   6   2   28.00    5.50
   2   6  -2   32.50    6.70
  -2   6   2   20.90    8.90
   2   6  -2   30.80    5.70
  -2   6   2   21.20    5.70
  -2   6   2   32.70    5.60
   2   6  -2   31.00    5.60
   2   6  -2   28.80    5.80
  -2   6   2   32.60    5.10
   2   6  -2   30.30    6.10
   2   6  -2   24.10    6.80
   1  -6  -2  624.34   47.40
  -1  -6   2  721.23   43.60
  -1  -6   2  812.82   47.40
  -1  -6   2  660.63   39.80
   1  -6  -2  692.33   40.40
  -1  -6   2  622.24   45.20
   1  -6  -2  650.63   41.20
  -1   6   2  652.03   44.90
   1   6  -2  639.34   40.30
  -1   6   2  677.83   39.70
   1   6  -2  686.03   43.00
  -1   6   2  685.73   46.40
   1   6  -2  664.93   39.30
   1   6  -2  629.54   45.50
  -1   6   2  735.83   40.60
   1   6  -2  688.63   43.80
  -1   6   2  690.03   43.90
   1   6  -2  630.94   40.60
  -1   6   2  687.53   40.80
   1   6  -2  704.23   39.50
  -1   6   2  658.73   39.70
   1   6  -2  764.72   42.40
   1   6  -2  700.83   40.80
  -1   6   2  700.93   40.80
  -1   6   2  661.83   41.50
   0  -6   2  489.95   37.10
   0  -6   2  507.15   36.40
   0  -6   2  555.54   29.30
   0  -6  -2  523.45   33.40
   0  -6  -2  513.85   38.50
   0  -6   2  542.85   29.20
   0  -6   2  484.35   35.70
   0  -6   2  511.35   36.30
   0   6   2  531.55   33.20
   0   6  -2  493.65   36.50
   0   6   2  547.95   31.90
   0   6   2  494.85   30.70
   0   6   2  523.85   33.00
   0   6   2  519.75   32.70
   0   6  -2  506.45   35.70
   0   6   2  510.45   31.80
   0   6  -2  507.95   33.00
   0   6  -2  514.35   30.50
   0   6  -2  477.65   30.30
   0   6   2  513.45   37.00
   0   6  -2  548.35   37.00
   0   6   2  585.94   34.00
   0   6   2  528.25   36.30
   1  -6   2   12.30    5.90
   1  -6   2   20.90    2.00
  -1  -6  -2   20.20    5.50
  -1  -6  -2   22.80    6.50
   1  -6   2   23.90    2.00
   1  -6   2   26.10    8.70
   1  -6   2   14.80    7.30
   1  -6   2   21.40    7.30
   1   6   2   18.90    3.80
  -1   6  -2   21.30    7.90
   1   6   2   28.50    5.80
   1   6   2   24.20    5.70
  -1   6  -2   19.40    3.40
  -1   6  -2   18.00    6.00
  -1   6  -2    7.60    6.10
   1   6   2    8.60    4.80
   1   6   2   21.40    3.80
  -1   6  -2   23.20    3.70
   1   6   2   17.20    5.40
  -1   6  -2   20.80    3.50
   1   6   2   16.20    6.00
   1   6   2   16.30    6.70
   2  -6   2  529.75   40.80
  -2  -6  -2  623.94   38.50
   2  -6   2  508.25   37.70
  -2  -6  -2  557.74   33.50
  -2  -6  -2  577.14   37.70
   2  -6   2  608.04   42.80
   2  -6   2  542.65   32.40
   2  -6   2  678.23   43.70
  -2  -6  -2  542.05   33.60
   2   6   2  538.05   38.10
  -2   6  -2  540.75   32.20
  -2   6  -2  527.45   39.10
   2   6   2  522.65   38.30
  -2   6  -2  557.84   33.40
   2   6   2  510.95   35.50
   2   6   2  533.85   37.30
   2   6   2  551.84   37.10
  -2   6  -2  540.85   33.70
  -2   6  -2  526.35   32.40
  -2   6  -2  566.34   39.90
   2   6   2  596.44   34.10
  -2   6  -2  512.45   36.00
   3  -6   2  135.09   17.00
   3  -6   2  132.09   11.40
   3  -6   2  134.39   20.40
  -3  -6  -2  134.09   14.20
  -3  -6  -2  106.99   15.10
   3  -6   2  112.69   18.50
  -3  -6  -2  118.09   13.10
  -3  -6  -2  139.29   13.60
  -3  -6  -2  126.59   16.20
  -3   6  -2  113.59   12.20
  -3   6  -2  118.69   12.90
   3   6   2  110.39   12.60
   3   6   2   89.39   14.20
  -3   6  -2  116.09   12.80
   3   6   2   85.39   14.10
   3   6   2  112.69   15.70
   3   6   2   95.39   13.30
   3   6   2  117.39   16.10
  -3   6  -2  114.99   17.30
  -3   6  -2  129.89   12.00
  -4  -6  -2  154.58   21.20
   4  -6   2  185.98   25.90
  -4  -6  -2  193.28   18.20
   4  -6   2  213.58   23.80
  -4  -6  -2  220.18   23.70
   4  -6   2  157.58   23.20
  -4  -6  -2  195.28   19.60
  -4   6  -2  181.78   14.10
   4   6   2  162.28   21.80
  -4   6  -2  200.78   23.40
   4   6   2  199.28   22.60
   4   6   2  160.18   20.10
   4   6   2  207.98   22.60
  -4   6  -2  171.68   18.10
   4   6   2  186.08   15.60
  -4   6  -2  171.58   18.50
   5  -6   2    3.30   11.70
  -5  -6  -2    9.60    7.10
  -5  -6  -2    0.10    6.10
   5  -6   2   15.10    9.40
  -5  -6  -2   10.50    6.40
   5  -6   2  -12.50    8.00
  -5  -6  -2    3.70    6.80
   5   6   2   -4.10    4.70
  -5   6  -2    6.10    7.60
   5   6   2   -1.40    7.90
   5   6   2   -0.20    7.40
  -5   6  -2   -3.10    5.50
   5   6   2   -5.30    3.50
  -5   6  -2   21.10   11.20
  -6  -6  -2  320.77   29.30
   6  -6   2  313.37   41.00
  -6  -6  -2  310.27   34.40
  -6  -6  -2  287.27   33.00
   6  -6   2  301.17   37.80
  -6  -6  -2  266.67   29.20
   6  -6   2  261.47   30.80
   6   6   2  309.87   28.90
   6   6   2  361.26   35.70
   6   6   2  293.87   32.90
  -6   6  -2  289.87   30.50
  -6   6  -2  300.27   33.70
  -6   6  -2  347.27   30.20
   7  -7  -2   32.40   15.60
  -7  -7   2   11.00    7.60
  -7  -7   2   30.90   14.30
   7  -7  -2   48.90   17.30
   7   7  -2   45.00   13.60
  -7   7   2   38.20   12.60
   7   7  -2   34.50   11.90
  -7   7   2   47.70   12.40
   7   7  -2   28.50   11.60
  -7   7   2   53.99   14.80
   7   7  -2   41.60   12.20
   7   7  -2   25.30   10.80
   6  -7  -2   27.00   12.20
   6  -7  -2   13.60   13.40
  -6  -7   2   39.50   12.10
  -6  -7   2   34.00   11.90
  -6  -7   2   37.00    8.90
  -6   7   2   44.00   11.70
   6   7  -2   57.89   14.20
   6   7  -2   41.50   13.20
  -6   7   2   37.50   10.40
   6   7  -2   44.60   11.80
   6   7  -2   57.19   13.90
  -6   7   2   47.60   12.20
   6   7  -2   75.29   15.30
  -5  -7   2    3.90    8.90
   5  -7  -2    5.70    8.90
   5  -7  -2   16.50   12.40
  -5  -7   2   24.50    6.60
  -5  -7   2   32.40   10.50
  -5   7   2   17.40    8.00
   5   7  -2   18.50    9.30
   5   7  -2   15.10    8.40
  -5   7   2    7.60    8.70
   5   7  -2   25.50   11.50
  -5   7   2   19.00    7.40
   5   7  -2   21.00    8.30
  -5   7   2   17.70    9.10
   5   7  -2   10.50    7.20
   4  -7  -2  103.19   19.30
  -4  -7   2   70.09   14.60
  -4  -7   2   73.39   14.10
  -4  -7   2   47.90   11.20
   4  -7  -2   99.59   19.20
  -4   7   2   65.79   12.20
  -4   7   2  104.89   12.30
   4   7  -2   40.00   10.70
   4   7  -2   71.69   12.20
   4   7  -2   64.89   15.70
  -4   7   2   73.89   16.50
  -4   7   2   59.99    9.90
   4   7  -2   67.69   11.90
   4   7  -2   64.89   11.90
  -3  -7   2  589.34   42.80
  -3  -7   2  570.34   37.80
   3  -7  -2  597.64   45.60
   3  -7  -2  540.25   44.80
  -3  -7   2  536.05   39.90
   3  -7  -2  560.64   34.90
  -3   7   2  534.55   35.10
   3   7  -2  569.44   38.40
  -3   7   2  628.94   45.10
  -3   7   2  537.45   35.50
  -3   7   2  521.25   36.00
   3   7  -2  555.44   43.00
   3   7  -2  542.15   36.70
  -3   7   2  533.75   35.40
  -3   7   2  539.05   37.60
   3   7  -2  554.84   38.70
   3   7  -2  631.34   39.40
   2  -7  -2  953.20   67.59
   2  -7  -2  932.31   67.59
  -2  -7   2 1016.30   64.79
   2  -7  -2 1054.59   57.89
  -2  -7   2  978.70   64.99
  -2  -7   2  959.90   59.39
   2   7  -2 1078.69   59.59
  -2   7   2 1038.10   57.89
  -2   7   2  928.01   58.29
   2   7  -2  996.40   62.89
   2   7  -2 1009.60   60.39
  -2   7   2 1007.10   60.89
  -2   7   2  920.71   65.39
   2   7  -2  994.70   56.99
   2   7  -2 1093.59   67.29
   2   7  -2  927.41   58.59
  -2   7   2 1077.89   60.59
  -2   7   2 1054.39   58.69
   2   7  -2 1133.69   61.99
   2   7  -2  896.71   59.49
  -2   7   2 1054.49   57.89
   1  -7  -2  103.59   11.80
  -1  -7   2  101.49   15.60
  -1  -7   2  100.99   14.40
  -1  -7   2  104.99    8.60
   1  -7  -2   98.99   16.70
   1  -7  -2  109.89    9.40
  -1  -7   2  105.09   13.40
   1   7  -2  113.19    8.60
   1   7  -2  102.59    8.50
   1   7  -2  118.29    9.80
  -1   7   2  100.39   12.00
  -1   7   2  135.09   17.70
  -1   7   2  100.99   10.70
   1   7  -2   89.69   11.50
  -1   7   2   97.19    9.50
   1   7  -2   99.79   15.80
  -1   7   2  102.29   14.30
  -1   7   2  104.89    9.80
  -1   7   2   96.89    9.00
   1   7  -2  130.09   15.50
   1   7  -2   96.09    9.60
  -1   7   2  104.79    8.80
   1   7  -2  115.89   10.80
   1   7  -2  115.59   13.70
   0  -7  -2   43.70    6.30
   0  -7   2   28.70    9.30
   0  -7  -2   30.80    5.80
   0  -7  -2   32.30    7.20
   0  -7   2   37.70    9.40
   0  -7   2   55.19   10.90
   0  -7  -2   22.00   10.10
   0  -7   2   51.39    9.90
   0   7   2   30.00    8.90
   0   7   2   48.10    6.90
   0   7   2   39.40    7.70
   0   7   2   32.60    9.70
   0   7   2   39.70    7.40
   0   7   2   45.00    6.00
   0   7  -2   34.50    9.40
   0   7   2   35.50    6.50
   0   7   2   38.50    6.00
   0   7  -2   32.70    7.10
   0   7  -2   33.30    4.30
   0   7   2   38.00    6.40
   0   7  -2   40.80    4.60
  -1  -7  -2  844.02   49.20
   1  -7   2  773.62   52.79
   1  -7   2  780.92   52.59
  -1  -7  -2  714.83   46.40
   1  -7   2  715.83   51.89
   1   7   2  790.32   44.10
   1   7   2  682.43   49.40
   1   7   2  815.12   47.20
  -1   7  -2  768.22   42.20
  -1   7  -2  711.03   42.10
   1   7   2  779.62   47.40
   1   7   2  760.72   45.80
  -1   7  -2  700.53   49.80
   1   7   2  689.83   49.10
   1   7   2  800.72   45.00
  -1   7  -2  712.83   49.20
  -2  -7  -2  792.42   46.00
  -2  -7  -2  805.82   46.00
  -2  -7  -2  810.12   53.29
   2  -7   2  776.82   54.49
   2  -7   2  804.02   57.39
   2  -7   2  885.91   58.89
   2  -7   2  859.61   58.19
  -2  -7  -2  875.71   52.79
   2  -7   2  845.52   45.00
   2   7   2  947.41   53.59
   2   7   2  914.31   55.09
  -2   7  -2  815.62   47.50
   2   7   2  798.72   50.99
  -2   7  -2  885.81   46.70
  -2   7  -2  761.02   47.40
  -2   7  -2  793.32   46.70
   2   7   2  738.23   54.09
   2   7   2  825.42   52.99
   2   7   2  784.12   48.80
  -2   7  -2  851.51   52.59
  -2   7  -2  789.92   54.89
   3  -7   2  337.07   29.80
  -3  -7  -2  348.17   29.10
  -3  -7  -2  315.97   28.80
   3  -7   2  362.56   34.40
  -3  -7  -2  317.57   23.90
  -3  -7  -2  368.86   24.60
   3  -7   2  385.56   35.00
   3   7   2  329.27   28.30
   3   7   2  329.17   29.20
  -3   7  -2  396.76   24.90
  -3   7  -2  322.07   29.70
  -3   7  -2  357.06   25.70
   3   7   2  333.67   27.30
  -3   7  -2  365.26   24.40
  -3   7  -2  407.16   25.00
   3   7   2  355.86   28.70
   3   7   2  333.67   29.40
  -4  -7  -2   19.00    8.00
   4  -7   2   14.10    8.80
  -4  -7  -2   14.60    6.50
   4  -7   2   32.00   10.10
   4  -7   2   18.60   12.20
  -4  -7  -2   24.90   10.20
   4   7   2   11.00    8.00
   4   7   2   19.20    8.50
  -4   7  -2   25.40    7.10
  -4   7  -2   19.10    5.70
   4   7   2   14.00    8.30
  -4   7  -2   22.60    6.60
   4   7   2   12.50   10.20
  -4   7  -2   20.70    9.90
  -5  -7  -2   94.49   15.30
  -5  -7  -2  117.39   15.50
   5  -7   2   78.19   18.90
   5  -7   2   99.39   20.10
   5  -7   2   97.79   17.90
  -5  -7  -2  103.29   18.20
   5   7   2   71.29   15.00
   5   7   2  110.19   17.50
  -5   7  -2  130.89   16.30
   5   7   2  162.18   20.00
  -5   7  -2   87.89   18.10
  -5   7  -2  109.09   15.60
   5   7   2   85.59   17.10
  -6  -7  -2   52.49   14.20
  -6  -7  -2   29.70   10.90
   6  -7   2   47.10   14.60
   6  -7   2   40.70   17.00
  -6  -7  -2   29.80   11.10
   6  -7   2   48.90   18.50
   6   7   2   26.90   14.60
  -6   7  -2   50.69   12.60
   6   7   2   49.10   14.80
  -6   7  -2   37.10   12.60
   6   7   2   58.39   14.20
  -6   7  -2   36.70   11.50
   6  -8  -2   48.90   18.20
  -6  -8   2   47.00   14.20
   6  -8  -2   62.89   20.70
  -6   8   2   81.69   20.70
   6   8  -2   41.50   13.30
   6   8  -2   48.00   12.40
   6   8  -2   69.29   14.50
   6   8  -2   49.30   13.00
   6   8  -2   20.70    9.40
  -6   8   2   47.90   14.10
  -6   8   2   40.40   11.80
  -6   8   2   43.00   11.00
  -5  -8   2   78.99   18.30
   5  -8  -2  107.79   21.60
   5  -8  -2   89.69   20.70
  -5  -8   2  100.29   16.90
   5   8  -2   97.09   17.30
  -5   8   2  133.49   23.40
   5   8  -2  113.69   16.80
   5   8  -2  110.39   17.00
  -5   8   2  138.09   16.40
  -5   8   2   75.29   14.10
  -5   8   2   96.69   13.90
   5   8  -2  100.69   16.70
   5   8  -2   85.99   17.20
  -4  -8   2   33.40   12.90
   4  -8  -2   65.19   17.20
   4  -8  -2   37.70   13.20
  -4  -8   2   67.99   13.20
  -4   8   2   47.50   15.40
   4   8  -2   85.79   14.90
   4   8  -2  103.19   18.20
   4   8  -2   90.09   13.70
  -4   8   2   82.59   11.50
   4   8  -2   70.79   12.20
  -4   8   2   74.19   10.90
  -4   8   2   81.29   13.70
   4   8  -2  103.69   13.60
  -3  -8   2 1302.17   76.49
   3  -8  -2 1093.89   79.19
  -3  -8   2 1179.68   77.79
   3  -8  -2 1198.78   82.39
  -3  -8   2 1203.58   72.59
  -3   8   2 1143.49   68.89
   3   8  -2 1140.19   70.69
   3   8  -2 1153.88   78.29
  -3   8   2 1193.78   72.29
   3   8  -2 1286.07   72.99
   3   8  -2 1198.68   65.59
  -3   8   2 1161.68   69.09
  -3   8   2 1169.58   69.19
  -3   8   2 1119.29   78.59
   3   8  -2 1218.38   73.49
  -2  -8   2   20.50    5.20
   2  -8  -2   18.90    3.80
   2  -8  -2   27.80   12.20
  -2  -8   2   16.20    9.10
  -2  -8   2   18.00    8.20
  -2   8   2   28.10    4.90
   2   8  -2   27.60    6.10
   2   8  -2   22.60    6.10
   2   8  -2   21.30    4.80
  -2   8   2   25.10    5.10
   2   8  -2   26.00    6.70
   2   8  -2   27.80    5.90
   2   8  -2   19.60    7.30
  -2   8   2   19.20    4.50
  -2   8   2   36.10    7.50
  -2   8   2   29.90    9.50
  -2   8   2   17.30    4.30
   2   8  -2   54.09   12.50
   1  -8  -2   18.30    3.90
   1  -8  -2   20.20    3.80
  -1  -8   2   23.90    3.70
  -1  -8   2   11.70    6.40
  -1  -8   2   28.90    8.40
   1  -8  -2   28.10   11.40
  -1  -8   2    8.70    8.30
   1  -8  -2   18.80    5.50
   1   8  -2   27.90    5.00
   1   8  -2   22.70    4.20
   1   8  -2   25.10    4.90
   1   8  -2   44.80    8.40
  -1   8   2   30.40    4.90
  -1   8   2   20.00    5.60
  -1   8   2   38.20   11.00
  -1   8   2   24.00    4.90
  -1   8   2   27.30    5.40
   1   8  -2   32.10    6.70
   1   8  -2   36.30   11.50
  -1   8   2   24.60    4.80
  -1   8   2   36.20   10.20
   1   8  -2   28.00    4.70
   0  -8  -2  162.18   12.50
   0  -8   2  173.58   19.70
   0  -8  -2  170.18   17.20
   0  -8   2  147.09   20.10
   0  -8   2  137.09   18.40
   0   8  -2  171.78   16.60
   0   8   2  163.88   12.50
   0   8  -2  137.09   19.20
   0   8   2  139.49   15.90
   0   8   2  155.18   12.40
   0   8  -2  153.48    9.90
   0   8   2  116.99   17.30
   0   8  -2  171.88   15.30
   0   8   2  130.99   12.10
   0   8   2  130.89   12.70
   0   8   2  101.39   16.60
   0   8  -2  155.88    9.90
   0   8   2  157.58   13.10
   1  -8   2   67.79   14.00
   1  -8   2   96.89   16.50
   1  -8   2  104.69   17.60
  -1  -8  -2  126.19   15.40
   1   8   2  100.79   12.10
   1   8   2  111.69   13.10
  -1   8  -2   93.09   14.80
  -1   8  -2  132.89   16.70
   1   8   2  104.69   15.40
   1   8   2  110.99   11.80
   1   8   2  103.79    9.90
   1   8   2   99.59   15.90
  -1   8  -2   89.39   12.70
   1   8   2   88.99   10.50
  -2  -8  -2  463.65   30.80
   2  -8   2  364.06   33.30
   2  -8   2  345.27   29.40
   2  -8   2  318.07   31.70
  -2  -8  -2  337.77   26.30
   2  -8   2  344.67   32.30
   2   8   2  360.76   23.60
   2   8   2  328.17   28.70
  -2   8  -2  283.37   28.00
  -2   8  -2  349.17   27.40
  -2   8  -2  335.97   20.20
   2   8   2  334.67   25.40
  -2   8  -2  334.37   20.40
  -2   8  -2  343.37   20.60
   2   8   2  339.17   26.50
  -2   8  -2  312.87   20.40
   2   8   2  364.26   27.80
   2   8   2  339.07   28.80
   3  -8   2 1384.86   82.39
  -3  -8  -2 1130.69   77.49
  -3  -8  -2 1245.38   79.89
   3  -8   2 1226.88   84.29
   3  -8   2 1289.97   86.19
  -3   8  -2 1190.98   80.49
   3   8   2 1254.47   78.99
  -3   8  -2 1306.67   75.99
   3   8   2 1264.17   76.99
   3   8   2 1361.56   79.19
   3   8   2 1285.57   80.59
  -3   8  -2 1226.18   72.69
   4  -8   2  296.77   36.20
  -4  -8  -2  199.38   25.00
   4  -8   2  214.68   29.20
   4  -8   2  200.68   26.50
  -4   8  -2  257.47   20.70
   4   8   2  213.88   26.00
  -4   8  -2  289.97   20.60
  -4   8  -2  216.78   27.10
   4   8   2  213.88   25.20
   4   8   2  242.88   24.10
   4   8   2  206.38   22.70
  -5  -8  -2   79.09   11.90
   5  -8   2   71.69   20.20
   5  -8   2   91.69   21.70
  -5  -8  -2   67.09   15.40
  -5   8  -2   65.89   11.50
   5   8   2   56.29   13.60
   5   8   2   92.99   15.80
   5   8   2   93.99   17.60
  -5   8  -2   70.09   15.40
   5   8   2   49.70   13.60
  -6  -8  -2   99.59   19.60
   6  -8   2   79.29   19.70
   6  -8   2   94.49   22.20
  -6   8  -2   61.99   13.00
  -6   8  -2  140.39   22.90
   6   8   2   94.89   20.30
   6   8   2   84.39   17.90
   6   8   2  103.79   17.50
   6  -9  -2   76.29   23.10
  -6  -9   2   66.99   17.70
   6  -9  -2   78.99   19.40
   6   9  -2   58.99   14.20
  -6   9   2   83.19   16.10
  -6   9   2   69.79   20.80
  -6   9   2   74.29   13.60
   6   9  -2   71.19   15.40
   6   9  -2   86.39   16.10
   6   9  -2   96.79   19.20
   6   9  -2   78.49   16.00
   5  -9  -2  291.77   42.70
   5  -9  -2  377.56   44.40
  -5  -9   2  388.26   34.50
  -5  -9   2  454.45   40.60
   5   9  -2  454.95   34.80
   5   9  -2  327.17   39.10
   5   9  -2  401.46   35.20
   5   9  -2  396.96   35.50
  -5   9   2  487.95   36.50
   5   9  -2  392.16   33.00
  -5   9   2  499.45   43.80
  -4  -9   2   23.40   12.90
   4  -9  -2   20.00   12.70
  -4  -9   2   33.10    9.90
   4  -9  -2   21.00   14.10
   4   9  -2   18.50    7.50
  -4   9   2   21.80    8.90
   4   9  -2    8.60    8.20
  -4   9   2   27.00   11.20
   4   9  -2   17.10    8.50
   4   9  -2   17.90    8.00
  -4   9   2   32.70    7.00
   3  -9  -2   78.59   17.40
   3  -9  -2   66.59   18.20
  -3  -9   2   47.80   12.60
  -3  -9   2   69.39   15.10
   3   9  -2   56.89   15.30
   3   9  -2   56.69   10.60
  -3   9   2   65.99    8.90
   3   9  -2   62.09   12.20
   3   9  -2   63.19   10.40
  -3   9   2   53.89   13.40
  -3   9   2   50.99   10.20
  -3   9   2   62.69    8.10
  -2  -9   2  602.94   43.00
   2  -9  -2  510.05   44.10
  -2  -9   2  561.24   41.20
  -2   9   2  452.95   40.40
  -2   9   2  541.95   41.00
  -2   9   2  528.55   35.80
  -2   9   2  518.55   32.10
  -2   9   2  539.25   32.10
   2   9  -2  563.44   43.70
   2   9  -2  530.55   33.10
  -2   9   2  522.95   32.30
   2   9  -2  478.25   36.10
   2   9  -2  512.95   33.70
   2   9  -2  481.65   33.90
   1  -9  -2  458.05   42.40
  -1  -9   2  560.84   39.20
   1  -9  -2  554.94   31.00
  -1  -9   2  511.75   41.30
  -1  -9   2  518.15   41.40
   1  -9  -2  575.94   37.60
   1   9  -2  521.05   37.10
  -1   9   2  524.55   41.50
   1   9  -2  539.15   36.20
  -1   9   2  542.65   33.00
   1   9  -2  531.85   32.90
   1   9  -2  534.85   32.70
   1   9  -2  580.64   32.80
   1   9  -2  532.75   32.20
  -1   9   2  574.54   32.90
   1   9  -2  512.85   42.30
  -1   9   2  467.85   39.40
  -1   9   2  513.65   32.80
  -1   9   2  524.15   35.00
   0  -9   2  146.89   19.70
   0  -9   2  154.98   20.60
   0  -9   2  169.38   22.50
   0  -9  -2  164.18   18.30
   0   9  -2  150.38   18.10
   0   9   2  154.68   13.50
   0   9  -2  143.79   20.20
   0   9   2  159.58   20.80
   0   9  -2  165.98   17.90
   0   9   2  174.78   13.60
   0   9   2  168.68   14.00
   0   9   2  136.99   20.30
   0   9   2  182.18   14.30
   1  -9   2  986.60   65.99
   1  -9   2  864.11   64.39
  -1  -9  -2  923.51   60.19
   1  -9   2  900.11   63.99
  -1   9  -2  872.51   61.69
  -1   9  -2  951.50   59.49
   1   9   2 1025.10   56.99
  -1   9  -2  848.02   61.29
   1   9   2  870.31   62.09
   1   9   2 1062.29   63.69
   1   9   2  977.70   57.59
   2  -9   2  383.26   33.40
   2  -9   2  428.86   37.30
  -2  -9  -2  457.95   33.50
   2  -9   2  432.56   37.40
  -2   9  -2  421.06   32.00
   2   9   2  400.96   32.80
   2   9   2  392.56   28.90
  -2   9  -2  378.86   33.90
   2   9   2  368.56   32.50
   2   9   2  332.87   28.90
   3  -9   2  124.19   21.70
  -3  -9  -2  144.49   20.50
   3  -9   2  144.79   23.80
   3  -9   2  171.88   22.50
   3   9   2  105.19   15.70
  -3   9  -2  161.48   17.30
  -3   9  -2   66.69   15.40
  -3   9  -2  151.88   11.10
   3   9   2  123.99   16.30
   3   9   2  139.79   19.60
   3   9   2  119.39   17.80
  -4  -9  -2   96.69   17.70
   4  -9   2  106.89   19.20
   4  -9   2  105.09   20.90
   4  -9   2  117.79   23.00
  -4   9  -2   78.29   10.90
   4   9   2   80.09   14.50
   4   9   2   87.99   18.30
   4   9   2  117.09   16.20
   4   9   2  164.18   20.10
  -4   9  -2  102.09   17.60
  -5  -9  -2  163.18   23.50
   5  -9   2  196.38   27.90
   5  -9   2  172.48   30.60
   5  -9   2  165.48   28.10
   5   9   2  142.89   21.50
  -5   9  -2  187.38   25.10
   5   9   2  135.59   21.00
   5   9   2  154.68   23.80
  -5   9  -2  194.88   17.80
   5 -10  -2    2.30    7.90
  -5 -10   2    2.80   12.00
   5 -10  -2    8.80   12.80
  -5  10   2    4.90    8.50
   5  10  -2   11.50    7.90
  -5  10   2    3.60    8.50
   5  10  -2    9.90    9.30
   5  10  -2   15.20    8.70
   5  10  -2   11.90   10.30
   5  10  -2   -1.60    7.50
  -5  10   2   12.80    6.80
  -4 -10   2  592.34   48.70
   4 -10  -2  606.14   53.79
   4 -10  -2  582.04   50.39
  -4 -10   2  601.14   44.10
   4  10  -2  551.14   41.60
   4  10  -2  521.25   42.80
  -4  10   2  596.34   50.39
   4  10  -2  511.05   39.60
  -4  10   2  603.04   42.60
   4  10  -2  567.94   48.70
  -3 -10   2  119.79   19.00
   3 -10  -2  140.19   25.70
  -3 -10   2  131.99   22.00
   3  10  -2  151.68   16.10
   3  10  -2  112.09   14.90
   3  10  -2  107.79   19.70
  -3  10   2  111.19   21.70
  -3  10   2  127.69   11.10
  -3  10   2  146.49   17.20
   3  10  -2  132.19   18.40
  -2 -10   2   29.50    9.50
  -2 -10   2   20.10   11.00
   2 -10  -2   31.00   14.80
   2  10  -2   12.20    8.60
   2  10  -2   24.60    6.50
  -2  10   2   19.10   11.00
   2  10  -2   32.90    9.60
  -2  10   2   18.40    6.70
  -2  10   2   20.10    4.10
   2  10  -2   38.60    7.40
  -2  10   2   21.30    8.90
  -1 -10   2 1068.99   74.19
   1 -10  -2 1274.37   80.69
  -1 -10   2 1182.48   74.99
  -1  10   2 1229.18   74.89
   1  10  -2 1078.09   63.19
   1  10  -2 1057.79   74.59
  -1  10   2 1064.99   66.59
  -1  10   2 1011.70   73.59
   1  10  -2 1230.18   65.39
   1  10  -2 1089.59   68.19
  -1  10   2 1103.89   63.59
   1  10  -2 1066.59   68.89
   0 -10  -2 1137.09   72.49
   0 -10   2 1113.79   75.79
   0 -10   2  981.90   75.69
   0 -10   2 1309.77   78.29
   0  10  -2 1171.48   73.49
   0  10  -2 1125.29   71.79
   0  10   2 1198.38   67.89
   0  10   2 1196.78   76.59
   0  10  -2 1316.97   78.89
   0  10   2 1184.78   67.79
   0  10   2 1132.29   76.19
   1 -10   2  122.49   19.50
  -1 -10  -2   99.79   16.10
   1 -10   2  157.88   23.40
  -1  10  -2  131.89   16.60
  -1  10  -2  120.99   18.50
  -1  10  -2  134.39   19.60
   1  10   2  126.59   13.60
  -1  10  -2  129.49   18.30
   1  10   2  120.79   18.30
   1  10   2  136.49   19.70
   1  10   2  131.59   14.20
   2 -10   2    1.10    9.50
  -2 -10  -2    6.30    4.70
   2 -10   2   -4.30    9.00
  -2  10  -2   -4.00    6.00
   2  10   2   -1.00    4.90
  -2  10  -2    4.70    6.50
   2  10   2    5.70    6.20
  -2  10  -2    7.20    8.70
   2  10   2   12.20    6.30
   2  10   2   -5.30    5.00
  -3 -10  -2   76.39   14.70
   3 -10   2   88.09   17.60
   3 -10   2   75.09   20.50
   3 -10   2   80.09   18.70
  -3  10  -2   55.39   15.10
   3  10   2   84.99   13.20
   3  10   2   83.59   17.60
  -3  10  -2   76.89   13.10
   3  10   2   62.59   12.20
   3  10   2   55.89   13.40
  -4 -10  -2  115.09   19.50
   4 -10   2  107.99   19.50
   4 -10   2  151.58   27.40
   4 -10   2  100.09   20.40
  -4  10  -2   98.79   19.80
   4  10   2   74.49   16.30
   4  10   2   62.99   12.90
   4  10   2  103.39   17.10
   4  10   2   58.89   14.20
   5 -10   2    0.00   10.00
  -5 -10  -2    9.40   11.10
   5 -10   2   -5.90    9.00
   5  10   2   16.70    8.30
  -5  10  -2   -3.00    7.00
  -5  10  -2    9.10    5.50
   5  10   2   14.90   10.30
   5  10   2    6.60    9.00
   4 -11  -2   48.60   15.40
   4 -11  -2   41.80   16.90
  -4 -11   2   23.30   13.30
   4  11  -2   59.39   11.80
   4  11  -2   60.59   13.80
  -4  11   2   82.19   20.40
  -4  11   2   49.00   11.90
   4  11  -2   70.99   19.30
   4  11  -2   58.19   11.80
  -4  11   2   48.00    7.30
  -3 -11   2  153.38   22.60
   3 -11  -2  226.88   32.90
  -3 -11   2  183.88   26.60
  -3  11   2  148.09   11.60
  -3  11   2  172.18   19.60
  -3  11   2  136.69   24.00
   3  11  -2  121.99   23.00
   3  11  -2  188.38   17.50
  -3  11   2  169.98   23.70
   3  11  -2  188.08   22.30
  -2 -11   2  441.86   37.10
   2 -11  -2  472.15   42.90
  -2 -11   2  420.16   38.30
  -2  11   2  356.46   29.60
   2  11  -2  345.37   39.20
  -2  11   2  395.16   23.70
  -2  11   2  409.26   35.40
   2  11  -2  380.26   32.50
  -2  11   2  439.16   39.90
   2  11  -2  447.66   28.30
  -1 -11   2  245.08   28.30
  -1 -11   2  297.87   31.50
  -1  11   2  241.18   29.00
   1  11  -2  221.98   29.30
   1  11  -2  238.98   15.30
  -1  11   2  224.28   27.00
   1  11  -2  212.08   23.70
   1  11  -2  232.48   22.40
  -1  11   2  241.58   16.00
   0 -11   2  141.59   22.30
   0 -11  -2  147.49   18.20
   0 -11   2  144.49   21.70
   0  11   2  158.88   22.40
   0  11  -2   99.29   19.50
   0  11  -2  115.59   17.10
   0  11   2  164.08   22.70
   0  11  -2  125.69   16.70
   0  11   2  116.89   11.70
   1 -11   2  126.09   20.90
  -1 -11  -2  138.59   18.40
   1 -11   2  147.39   23.10
   1  11   2   82.89   15.40
  -1  11  -2  104.19   17.70
  -1  11  -2  113.89   16.50
   1  11   2  132.29   13.70
  -1  11  -2  122.19   18.50
   1  11   2  102.99   17.80
  -1  11  -2   98.29   17.00
   2 -11   2  148.59   25.50
  -2 -11  -2  207.38   24.80
   2 -11   2  176.38   27.30
  -2  11  -2  171.48   24.50
   2  11   2  161.28   18.10
   2  11   2  188.98   19.40
   2  11   2  169.88   24.00
  -2  11  -2  173.68   20.70
   2  11   2  179.18   22.80
  -2  11  -2  167.28   21.70
  -2  11  -2  173.18   23.40
   3 -11   2   40.90   16.90
   3 -11   2   21.10   12.30
   3 -11   2   16.30   12.70
  -3 -11  -2   17.40    9.70
   3  11   2   55.69   15.00
  -3  11  -2   49.90   14.30
   3  11   2   18.60    8.80
   3  11   2   37.50   10.20
   3  11   2    7.80    8.90
   4 -11   2  396.86   41.90
   4 -11   2  430.36   47.80
   4 -11   2  361.46   46.60
  -4 -11  -2  350.86   35.10
   4  11   2  390.66   34.00
   4  11   2  420.86   35.40
   4  11   2  404.36   40.90
  -4  11  -2  404.06   38.70
  -3 -12   2  112.79   21.00
   3 -12  -2  135.59   27.60
   3  12  -2  137.39   15.50
  -3  12   2  110.69   20.60
   3  12  -2  125.79   23.30
  -3  12   2  105.29   20.90
   3  12  -2  135.19   20.10
  -2 -12   2   75.29   16.10
   2 -12  -2   97.69   23.40
  -2 -12   2   85.49   18.60
   2  12  -2   67.39    9.30
   2  12  -2   67.59   14.50
   2  12  -2   58.29   17.00
  -2  12   2   65.69   17.20
  -2  12   2   69.19   17.90
  -1 -12   2   49.99   15.40
  -1 -12   2   49.30   13.20
   1  12  -2   31.40   10.50
  -1  12   2    8.50   10.90
   1  12  -2   37.80   12.70
  -1  12   2   39.80   13.60
   0 -12  -2  288.17   27.40
   0 -12   2  301.77   33.60
   0 -12   2  262.97   33.30
   0  12   2  253.67   30.50
   0  12  -2  331.57   32.90
   0  12  -2  312.77   34.80
   0  12  -2  290.27   26.80
   0  12   2  313.27   31.40
   0  12   2  286.47   19.90
  -1 -12  -2  101.69   17.40
   1  12   2  109.89   18.60
   1  12   2   99.19   12.30
  -1  12  -2  101.59   16.40
  -1  12  -2  111.99   17.80
  -1  12  -2   89.79   17.40
   1  12   2   95.09   19.50
  -1  12  -2  136.89   21.30
  -2 -12  -2  122.99   20.00
  -2  12  -2  136.49   20.40
   2  12   2  103.89   14.00
  -2  12  -2   79.39   16.20
   2  12   2  105.59   18.60
  -2  12  -2  116.69   18.00
   2  12   2  110.09   20.00
  -2  12  -2  110.49   19.90
  -3 -12  -2  285.97   32.90
   3 -12   2  258.27   36.90
  -3  12  -2  289.27   30.50
  -3  12  -2  331.17   34.30
   3  12   2  285.57   33.30
  -3  12  -2  423.06   38.30
  -2 -13   2  167.28   26.80
  -2  13   2  192.98   27.10
   2  13  -2  199.18   29.40
  -2  13   2  195.88   28.50
   2  13  -2  270.47   27.40
  -1 -13   2   80.09   17.30
  -1 -13   2   80.59   18.70
   1  13  -2   59.79   14.10
  -1  13   2   79.69   18.90
  -1  13   2   43.00   15.80
   1  13  -2   57.49   17.10
   0 -13   2   19.20   13.10
   0 -13   2   27.50   13.30
   0  13  -2   14.40    8.30
   0  13  -2    0.10    6.50
   0  13  -2    4.30    7.40
   0  13   2    8.70   11.80
   0  13   2   14.40   11.70
  -1  13  -2   99.19   18.60
   1  13   2  129.69   22.00
   1  13   2  133.09   12.70
  -1  13  -2  132.19   23.90
  -1  13  -2  117.99   17.50
  -1  13  -2  132.09   20.10
   1  13   2  132.49   21.10
   8   0  -3   45.40   18.00
  -8   0   3   63.29   16.20
   8   0  -3   70.39   19.50
  -8   0   3   48.30   14.50
   8   0  -3   37.00   15.90
   8   0  -3   76.09   16.00
  -8   0   3   49.30   14.10
   7   0  -3   86.29   19.20
   7   0  -3   92.99   17.10
  -7   0   3   87.89   17.00
  -7   0   3   79.99   15.20
  -7   0   3   96.69   19.60
   7   0  -3   95.89   16.70
   6   0  -3  352.26   32.40
   6   0  -3  398.66   34.90
  -6   0   3  385.96   32.60
  -6   0   3  396.96   34.80
   6   0  -3  388.56   27.20
   6   0  -3  396.66   32.10
  -6   0   3  410.36   34.80
   5   0  -3  207.98   17.40
  -5   0   3  202.38   22.80
  -5   0   3  210.38   23.50
   5   0  -3  238.78   20.70
   5   0  -3  217.98   22.00
   5   0  -3  143.39   20.60
  -5   0   3  216.58   22.30
  -4   0   3  307.17   23.50
   4   0  -3  319.87   25.40
   4   0  -3  340.27   23.80
  -4   0   3  364.36   25.50
  -4   0   3  348.87   27.20
   4   0  -3  339.17   26.80
   4   0  -3  336.97   25.90
  -4   0   3  341.07   27.60
  -4   0   3  335.77   25.60
  -4   0   3  321.27   25.40
   3   0  -3  758.52   49.80
  -3   0   3  735.73   47.80
  -3   0   3  861.71   50.29
  -3   0   3  824.52   48.70
   3   0  -3  884.31   48.80
   3   0  -3  822.22   49.20
  -3   0   3  780.62   48.50
  -3   0   3  732.03   49.50
  -3   0   3  783.82   49.40
   3   0  -3  763.12   48.50
  -3   0   3  907.51   48.90
   3   0  -3  715.53   49.40
  -3   0   3  777.32   49.00
  -3   0   3  742.73   47.80
   2   0  -3    1.60    3.00
  -2   0   3   -1.40    2.40
   2   0  -3   -0.20    3.20
   2   0  -3   -2.40    3.00
   2   0  -3   -1.30    4.50
  -2   0   3    1.40    2.90
  -2   0   3   -4.00    2.90
  -2   0   3    1.80    3.50
  -2   0   3   -5.20    2.90
   2   0  -3    0.00    2.90
  -2   0   3   -5.80    2.10
   2   0  -3    5.20    3.50
   2   0  -3    1.50    2.90
   2   0  -3    3.70    4.50
  -2   0   3    0.40    4.60
  -2   0   3    3.80    3.70
  -2   0   3    2.20    3.30
  -2   0   3    4.30    3.40
   1   0  -3  271.77   19.70
   1   0  -3  305.77   20.90
   1   0  -3  291.37   20.80
   1   0  -3  299.27   21.60
  -1   0   3  283.67   19.90
  -1   0   3  286.37   20.10
  -1   0   3  293.37   21.40
  -1   0   3  310.97   21.60
  -1   0   3  295.67   21.10
   1   0  -3  332.47   20.90
   1   0  -3  276.07   18.60
  -1   0   3  341.47   20.90
   1   0  -3  268.77   19.80
   1   0  -3  310.57   20.50
  -1   0   3  288.87   18.80
   1   0  -3  302.07   21.10
   0   0   3  128.69   13.30
   0   0  -3  126.29   13.70
   0   0   3  141.09   10.00
   0   0  -3  157.08   12.70
   0   0  -3  134.99   12.90
   0   0  -3  120.49   10.50
   0   0   3  136.59    9.60
   0   0   3  150.08   11.60
   0   0   3  118.69   12.00
   0   0   3  136.89   13.30
   0   0   3  138.79   12.00
   0   0   3  134.39   11.20
   0   0  -3  132.69   11.90
   0   0  -3  129.09   12.20
   0   0  -3  161.38   10.00
   0   0  -3  125.19   12.30
   0   0   3  133.79   12.20
  -1   0  -3  826.82   52.09
   1   0   3  814.12   53.19
   1   0   3  884.71   49.90
  -1   0  -3  944.01   54.49
  -1   0  -3  879.11   53.09
  -1   0  -3  862.71   53.39
   1   0   3  852.81   53.49
   1   0   3 1001.60   52.79
   1   0   3  859.51   52.39
  -1   0  -3  913.61   53.79
   1   0   3  846.42   53.09
  -1   0  -3  979.50   53.09
   1   0   3  835.32   53.89
   1   0   3  861.91   52.69
  -1   0  -3  890.41   52.39
   1   0   3  859.61   51.09
  -1   0  -3  984.30   51.59
  -1   0  -3  921.91   54.69
   2   0   3   13.70    5.60
   2   0   3   17.70    5.50
  -2   0  -3   25.10    6.30
   2   0   3   17.60    5.70
   2   0   3   14.90    5.20
  -2   0  -3   21.90    6.10
  -2   0  -3   24.70    6.70
  -2   0  -3   10.40    5.50
   2   0   3    8.90    5.50
  -2   0  -3   16.60    5.00
   2   0   3   12.60    4.70
   2   0   3   15.00    5.20
  -2   0  -3   18.30    5.50
   2   0   3   20.10    5.40
  -2   0  -3   15.90    5.30
   2   0   3   17.30    7.20
  -2   0  -3   20.80    6.80
  -3   0  -3    2.50    4.20
  -3   0  -3    0.10    3.50
  -3   0  -3    3.40    5.10
   3   0   3    0.70    3.60
   3   0   3    5.10    5.90
  -3   0  -3    2.20    2.90
  -3   0  -3   -2.20    4.20
   3   0   3    3.20    5.00
  -3   0  -3   -3.90    4.70
   3   0   3    1.90    4.10
   3   0   3    5.60    4.10
  -4   0  -3  432.76   33.60
   4   0   3  472.25   33.10
   4   0   3  398.06   33.90
  -4   0  -3  463.05   34.30
   4   0   3  451.85   32.20
  -4   0  -3  445.46   34.80
   4   0   3  457.55   34.30
  -5   0  -3  347.57   32.20
   5   0   3  407.46   30.70
   5   0   3  399.86   33.60
  -5   0  -3  442.26   35.30
   5   0   3  356.06   32.40
  -5   0  -3  378.26   32.50
   5   0   3  423.66   38.50
   5   0   3  361.16   31.90
   6   0   3  515.65   39.70
   6   0   3  511.75   42.40
  -6   0  -3  479.95   42.20
   6   0   3  612.74   51.09
   6   0   3  513.45   41.70
   6   0   3  584.74   40.20
  -6   0  -3  511.35   42.10
  -6   0  -3  539.75   42.50
   6   0   3  516.95   41.30
   7   0   3   68.29   20.60
   7   0   3   71.49   15.10
  -7   0  -3   52.69   15.30
   7   0   3   58.89   16.40
  -7   0  -3   95.09   19.50
   7   0   3   60.89   13.60
  -7   0  -3   78.49   17.80
   8  -1  -3   13.50   15.40
  -8  -1   3   31.00   12.90
  -8  -1   3   32.30   14.10
  -8  -1   3   28.80   13.40
   8  -1  -3   36.20   11.90
   8  -1  -3   12.10   12.30
  -8   1   3   20.50   12.90
  -8   1   3   37.40   13.30
   8   1  -3   10.00    8.70
  -8   1   3   20.80   11.30
   8   1  -3   21.70   12.00
   8   1  -3   21.30    9.90
  -7  -1   3  248.38   29.00
   7  -1  -3  204.98   23.60
  -7  -1   3  214.38   25.40
   7  -1  -3  259.87   32.90
   7  -1  -3  213.28   29.50
  -7  -1   3  256.37   28.80
   7  -1  -3  173.58   23.90
  -7   1   3  208.48   25.50
   7   1  -3  199.78   24.10
  -7   1   3  193.38   25.90
   7   1  -3  242.38   28.90
  -7   1   3  303.77   31.90
   7   1  -3  288.07   31.90
  -6  -1   3  369.76   31.40
  -6  -1   3  278.77   30.60
   6  -1  -3  282.37   27.40
   6  -1  -3  301.07   30.80
   6  -1  -3  307.97   34.20
  -6  -1   3  305.97   26.80
   6  -1  -3  294.87   26.20
   6   1  -3  316.87   26.80
  -6   1   3  291.47   28.00
   6   1  -3  305.87   24.20
   6   1  -3  257.87   27.90
   6   1  -3  328.87   30.20
  -6   1   3  320.47   27.30
  -6   1   3  316.87   29.00
   5  -1  -3  546.45   41.00
   5  -1  -3  561.64   34.60
  -5  -1   3  556.64   40.80
  -5  -1   3  554.84   41.80
  -5  -1   3  551.74   39.80
   5  -1  -3  542.95   38.60
   5  -1  -3  491.75   41.10
  -5  -1   3  543.05   36.90
  -5   1   3  546.55   41.10
   5   1  -3  624.34   37.80
  -5   1   3  540.25   41.00
   5   1  -3  516.55   39.10
  -5   1   3  549.65   40.00
   5   1  -3  606.74   41.20
   5   1  -3  591.94   42.00
  -4  -1   3  423.66   33.40
   4  -1  -3  485.25   32.90
  -4  -1   3  455.85   32.20
  -4  -1   3  566.14   35.80
   4  -1  -3  481.15   37.20
  -4  -1   3  438.96   34.60
   4  -1  -3  539.95   36.00
  -4  -1   3  486.85   35.20
   4  -1  -3  451.35   35.10
  -4  -1   3  472.75   31.90
   4  -1  -3  488.85   30.80
   4   1  -3  486.25   33.60
  -4   1   3  492.65   35.00
  -4   1   3  468.55   31.00
  -4   1   3  461.05   33.80
  -4   1   3  507.25   34.80
   4   1  -3  490.65   35.20
  -4   1   3  658.13   39.80
   4   1  -3  476.25   32.70
   4   1  -3  460.95   33.40
  -4   1   3  456.45   34.90
  -3  -1   3  577.04   39.30
   3  -1  -3  600.84   38.40
  -3  -1   3  571.94   38.30
  -3  -1   3  684.53   39.70
   3  -1  -3  636.04   40.00
   3  -1  -3  594.74   39.50
  -3  -1   3  585.04   38.40
  -3  -1   3  551.64   39.30
  -3  -1   3  624.64   38.10
   3  -1  -3  589.64   38.10
  -3  -1   3  593.84   36.90
   3  -1  -3  576.04   37.00
   3  -1  -3  705.53   42.60
   3  -1  -3  693.73   39.70
   3   1  -3  596.44   38.70
   3   1  -3  599.24   39.80
  -3   1   3  660.63   40.70
  -3   1   3  526.05   38.00
  -3   1   3  691.53   40.60
  -3   1   3  610.74   37.30
  -3   1   3  596.94   39.50
  -3   1   3  566.64   38.50
   3   1  -3  576.14   39.60
   3   1  -3  517.35   36.60
  -3   1   3  554.24   39.10
   3   1  -3  616.54   39.10
  -3   1   3  617.54   39.30
  -2  -1   3 1340.57   70.29
   2  -1  -3 1177.38   70.69
  -2  -1   3 1211.08   69.49
  -2  -1   3 1165.38   66.79
  -2  -1   3 1312.67   68.59
   2  -1  -3 1167.98   70.69
   2  -1  -3 1177.08   69.29
   2  -1  -3 1298.37   70.19
   2  -1  -3 1120.89   69.29
   2  -1  -3 1190.78   70.79
  -2  -1   3 1169.48   70.69
   2  -1  -3 1293.47   72.09
   2  -1  -3 1294.27   70.89
  -2  -1   3 1444.96   71.89
  -2  -1   3 1193.38   70.59
  -2  -1   3 1285.27   68.49
  -2  -1   3 1160.18   69.59
   2  -1  -3 1353.86   70.39
  -2   1   3 1123.39   70.39
  -2   1   3 1156.48   69.39
  -2   1   3 1165.48   69.89
   2   1  -3 1200.08   70.89
   2   1  -3 1169.98   69.79
   2   1  -3 1197.88   70.89
  -2   1   3 1139.29   70.49
   2   1  -3 1234.38   68.39
  -2   1   3 1201.28   69.59
  -2   1   3 1145.39   69.99
   2   1  -3 1168.78   70.59
   2   1  -3 1239.08   67.19
  -2   1   3 1145.69   67.59
   2   1  -3 1033.90   69.39
  -2   1   3 1180.08   69.69
  -2   1   3 1208.08   70.79
   2   1  -3 1167.48   70.39
   1  -1  -3 1742.73   91.79
  -1  -1   3 1647.94   94.19
  -1  -1   3 1692.23   95.49
   1  -1  -3 1620.14   95.39
   1  -1  -3 1636.44   95.49
  -1  -1   3 1660.33   95.29
   1  -1  -3 1678.93   93.49
   1  -1  -3 1716.03   94.79
  -1  -1   3 1619.74   94.29
   1  -1  -3 1714.83   95.99
  -1  -1   3 1630.54   96.49
   1  -1  -3 1687.33   95.29
   1  -1  -3 1648.04   94.39
  -1  -1   3 1679.23   94.19
  -1  -1   3 1665.23   93.89
  -1  -1   3 1746.83   92.09
   1  -1  -3 1636.54   95.29
   1   1  -3 1703.93   94.79
   1   1  -3 1783.22   94.79
   1   1  -3 1606.74   95.19
  -1   1   3 1638.64   94.49
  -1   1   3 1808.92   95.49
  -1   1   3 1638.34   95.59
  -1   1   3 1674.63   95.49
  -1   1   3 1626.84   95.69
   1   1  -3 1768.22   95.69
  -1   1   3 1693.93   91.89
   1   1  -3 1792.42   94.19
   1   1  -3 1732.43   94.49
  -1   1   3 1648.94   94.59
   1   1  -3 1661.33   95.99
  -1   1   3 1676.73   95.59
  -1   1   3 1623.34   94.79
   0  -1   3 1419.36   82.79
   0  -1   3 1406.26   82.69
   0  -1   3 1414.86   81.49
   0  -1  -3 1460.75   83.79
   0  -1  -3 1379.36   83.49
   0  -1  -3 1409.46   81.69
   0  -1   3 1401.66   83.69
   0  -1  -3 1428.76   82.49
   0  -1   3 1728.23   84.59
   0  -1   3 1531.65   82.99
   0  -1  -3 1338.17   83.09
   0  -1  -3 1427.46   82.99
   0  -1   3 1505.95   79.09
   0  -1   3 1603.54   82.09
   0  -1  -3 1407.46   81.99
   0   1   3 1378.96   83.19
   0   1  -3 1382.66   83.19
   0   1   3 1448.26   81.99
   0   1   3 1631.14   83.99
   0   1   3 1384.76   83.09
   0   1  -3 1424.46   82.19
   0   1   3 1376.66   83.59
   0   1  -3 1430.76   83.09
   0   1  -3 1417.86   81.69
   0   1   3 1349.86   81.89
   0   1   3 1342.97   81.29
   0   1  -3 1433.26   82.69
   0   1  -3 1725.53   84.79
   0   1   3 1453.15   82.49
   0   1  -3 1438.06   79.09
   0   1   3 1507.65   81.59
   0   1  -3 1393.46   82.09
   0   1  -3 1626.84   83.39
   1  -1   3  857.31   49.20
  -1  -1  -3  839.12   52.09
  -1  -1  -3  862.41   53.29
  -1  -1  -3  915.51   51.49
  -1  -1  -3  879.21   52.69
  -1  -1  -3  750.22   52.19
   1  -1   3  884.41   50.49
   1  -1   3  865.01   53.09
   1  -1   3  828.92   51.79
   1  -1   3  941.41   51.09
   1  -1   3  809.52   53.29
   1  -1   3  820.52   51.99
  -1  -1  -3  839.12   50.59
   1  -1   3  833.42   52.39
   1  -1   3  924.31   52.39
  -1  -1  -3  829.92   51.79
  -1  -1  -3  888.51   50.09
  -1  -1  -3  813.72   49.99
  -1   1  -3  821.42   52.29
  -1   1  -3  838.62   50.59
  -1   1  -3  922.31   49.30
  -1   1  -3  880.31   51.89
  -1   1  -3  867.21   52.19
  -1   1  -3  896.81   52.69
   1   1   3  843.52   50.19
  -1   1  -3  866.91   52.79
  -1   1  -3  819.92   51.69
   1   1   3  828.22   53.39
   1   1   3  834.02   52.39
   1   1   3  898.81   52.89
  -1   1  -3  851.31   51.19
   1   1   3  915.51   50.39
   1   1   3  891.31   52.59
   1   1   3  851.71   50.69
   1   1   3  879.31   51.89
   1   1   3  995.40   51.99
   2  -1   3  627.34   43.70
  -2  -1  -3  680.73   39.80
  -2  -1  -3  622.04   43.30
  -2  -1  -3  713.33   41.50
  -2  -1  -3  610.34   41.90
   2  -1   3  678.03   41.30
  -2  -1  -3  616.54   41.50
   2  -1   3  739.03   42.90
   2  -1   3  598.04   41.80
  -2  -1  -3  621.24   42.70
  -2  -1  -3  636.84   40.50
   2  -1   3  693.23   40.50
   2  -1   3  603.04   39.70
   2  -1   3  624.44   40.40
  -2  -1  -3  654.23   42.10
   2   1   3  676.03   41.50
   2   1   3  819.02   43.40
   2   1   3  596.34   42.00
   2   1   3  664.13   43.20
   2   1   3  681.23   43.10
  -2   1  -3  654.73   42.90
   2   1   3  603.24   43.20
  -2   1  -3  668.73   42.60
  -2   1  -3  639.64   39.80
   2   1   3  633.84   40.90
  -2   1  -3  639.54   42.20
  -2   1  -3  686.03   42.40
  -2   1  -3  680.63   41.90
  -2   1  -3  668.23   42.10
  -2   1  -3  661.43   41.20
   2   1   3  666.53   40.90
  -3  -1  -3  706.13   41.70
   3  -1   3  579.74   40.80
   3  -1   3  735.03   42.80
   3  -1   3  665.23   41.30
  -3  -1  -3  601.24   43.10
  -3  -1  -3  629.84   42.20
   3  -1   3  621.34   43.50
  -3  -1  -3  677.33   45.90
  -3  -1  -3  658.23   45.00
   3  -1   3  537.65   43.60
   3   1   3  677.23   44.30
   3   1   3  603.34   43.60
   3   1   3  722.43   46.20
  -3   1  -3  662.43   44.00
  -3   1  -3  758.92   44.20
   3   1   3  644.94   42.40
  -3   1  -3  644.54   43.60
  -3   1  -3  641.64   41.30
   3   1   3  690.93   43.20
  -3   1  -3  768.62   45.00
  -3   1  -3  595.34   43.80
  -4  -1  -3  404.46   35.90
  -4  -1  -3  494.15   36.80
   4  -1   3  528.05   37.30
  -4  -1  -3  488.35   33.90
   4  -1   3  493.35   35.30
   4  -1   3  556.44   34.30
   4  -1   3  454.25   37.50
   4  -1   3  473.05   39.50
  -4  -1  -3  518.85   36.00
   4   1   3  433.06   33.70
   4   1   3  479.35   35.30
  -4   1  -3  474.45   35.80
   4   1   3  571.84   38.70
   4   1   3  429.86   35.30
  -4   1  -3  553.34   38.00
  -4   1  -3  491.55   35.70
   5  -1   3  181.78   19.00
  -5  -1  -3  153.98   20.00
   5  -1   3  127.79   22.10
   5  -1   3  183.28   22.50
   5  -1   3  163.28   20.20
  -5  -1  -3  157.28   20.30
   5  -1   3  180.68   22.80
   5  -1   3  180.78   18.60
  -5  -1  -3  158.98   22.10
   5   1   3  178.08   21.40
   5   1   3  123.39   18.20
   5   1   3  151.28   18.70
   5   1   3  147.49   21.00
  -5   1  -3  128.19   19.20
  -5   1  -3  170.98   21.60
  -5   1  -3  180.98   21.50
   6  -1   3  216.78   26.60
   6  -1   3  181.58   20.70
   6  -1   3  278.87   28.20
   6  -1   3  202.08   22.00
  -6  -1  -3  206.68   27.10
  -6  -1  -3  245.28   27.40
   6  -1   3  238.48   32.40
   6  -1   3  192.08   25.30
  -6  -1  -3  214.98   25.80
   6   1   3  185.48   25.40
   6   1   3  190.68   22.60
  -6   1  -3  252.77   28.30
   6   1   3  222.08   32.20
  -6   1  -3  251.47   27.10
   6   1   3  240.48   26.40
  -6   1  -3  212.58   26.30
   6   1   3  207.88   27.00
   7  -1   3  111.99   17.30
  -7  -1  -3  151.38   22.90
   7  -1   3   99.59   19.80
  -7  -1  -3  123.69   22.40
  -7  -1  -3  162.08   23.50
   7  -1   3  127.99   21.30
   7  -1   3  101.09   25.00
   7  -1   3  136.39   18.70
  -7   1  -3   86.49   18.00
   7   1   3  198.38   27.30
  -7   1  -3  116.69   20.70
  -7   1  -3  162.48   23.90
   7   1   3  122.49   18.20
   7   1   3  133.29   22.80
   7   1   3  111.79   23.90
   7   1   3  106.49   18.20
  -8  -2   3   37.80   15.60
   8  -2  -3    9.30   10.40
   8  -2  -3   -0.20    8.10
  -8  -2   3    6.10    8.30
  -8  -2   3    2.10    6.50
   8  -2  -3   18.30   12.70
  -8  -2   3   -2.50   10.20
  -8   2   3    2.20    8.90
   8   2  -3   19.30   11.20
  -8   2   3   13.20   10.10
   8   2  -3   28.20   15.30
   8   2  -3   14.60   12.70
  -8   2   3   -0.30    7.90
   7  -2  -3    8.00   11.00
   7  -2  -3   15.40   11.00
   7  -2  -3    7.20    7.80
  -7  -2   3    1.40    9.30
  -7  -2   3    4.70   10.90
  -7  -2   3   23.20    9.30
   7  -2  -3   15.80    8.00
  -7  -2   3    1.10    8.10
   7   2  -3   15.30    8.00
  -7   2   3   17.50   11.70
   7   2  -3   17.60   10.30
   7   2  -3   -6.30    5.60
  -7   2   3   -4.30    6.80
  -7   2   3   10.30   10.10
   6  -2  -3  223.08   29.10
  -6  -2   3  225.88   26.80
  -6  -2   3  240.48   27.90
  -6  -2   3  212.98   24.30
   6  -2  -3  208.98   25.10
   6  -2  -3  274.37   31.10
  -6  -2   3  237.78   26.40
   6  -2  -3  211.48   22.30
   6   2  -3  223.68   25.00
  -6   2   3  180.68   23.50
   6   2  -3  247.88   27.30
   6   2  -3  223.48   23.90
  -6   2   3  225.08   24.70
  -6   2   3  210.58   25.00
   6   2  -3  232.08   20.90
   6   2  -3  214.18   24.80
   5  -2  -3  506.85   39.80
  -5  -2   3  456.15   37.30
   5  -2  -3  502.65   36.70
  -5  -2   3  474.25   35.70
  -5  -2   3  451.65   36.80
  -5  -2   3  452.25   31.10
  -5  -2   3  537.15   38.30
   5  -2  -3  556.04   41.10
   5  -2  -3  514.15   29.70
   5  -2  -3  451.35   33.60
  -5   2   3  474.95   36.80
   5   2  -3  483.45   34.10
   5   2  -3  487.55   35.40
   5   2  -3  450.25   36.40
  -5   2   3  525.95   36.50
   5   2  -3  433.36   34.90
   5   2  -3  434.16   35.00
  -5   2   3  476.35   37.10
  -4  -2   3  161.68   18.80
   4  -2  -3  139.99   19.00
  -4  -2   3  173.48   19.40
   4  -2  -3  167.08   19.90
  -4  -2   3  203.08   20.70
  -4  -2   3  197.28   17.60
   4  -2  -3  191.68   13.60
   4  -2  -3  167.58   16.00
   4  -2  -3  168.68   18.30
  -4  -2   3  162.98   13.80
  -4  -2   3  170.28   14.20
   4   2  -3  182.78   16.30
   4   2  -3  160.98   17.50
  -4   2   3  193.78   19.90
   4   2  -3  157.88   18.50
   4   2  -3  163.38   15.30
   4   2  -3  150.58   17.30
  -4   2   3  167.58   18.20
  -4   2   3  180.78   17.10
  -4   2   3  178.38   19.00
  -4   2   3  175.28   20.10
  -4   2   3  167.28   13.40
  -3  -2   3  160.58   14.60
   3  -2  -3  174.58   19.10
  -3  -2   3  176.08   15.90
  -3  -2   3  159.58   17.50
   3  -2  -3  151.48   14.20
  -3  -2   3  156.78   15.20
  -3  -2   3  158.08   17.00
   3  -2  -3  168.68   13.60
   3  -2  -3  167.48   14.20
   3  -2  -3  164.38   15.60
   3  -2  -3  166.98   14.70
  -3  -2   3  149.09   17.00
  -3  -2   3  159.38   12.20
   3  -2  -3  165.78   18.70
   3   2  -3  176.68   16.30
   3   2  -3  169.08   15.90
  -3   2   3  175.48   13.80
  -3   2   3  174.38   15.10
  -3   2   3  167.88   15.90
  -3   2   3  177.48   17.10
   3   2  -3  172.48   14.80
   3   2  -3  178.78   13.30
  -3   2   3  157.28   17.60
  -3   2   3  154.08   15.30
   3   2  -3  187.98   16.80
  -3   2   3  194.38   16.70
   3   2  -3  172.08   16.10
  -2  -2   3 2095.79  112.69
   2  -2  -3 1910.81  114.99
   2  -2  -3 2038.60  116.49
  -2  -2   3 1998.80  116.69
  -2  -2   3 2033.60  115.19
   2  -2  -3 2323.07  115.79
  -2  -2   3 2073.29  117.59
   2  -2  -3 1994.30  114.69
  -2  -2   3 2048.79  116.79
   2  -2  -3 1965.70  118.09
   2  -2  -3 1959.30  115.49
   2  -2  -3 2083.79  116.89
  -2  -2   3 2022.90  116.59
   2  -2  -3 2045.50  117.99
   2  -2  -3 2031.30  117.89
  -2  -2   3 2081.49  115.39
  -2  -2   3 2020.60  113.89
  -2  -2   3 1967.40  114.79
   2   2  -3 2026.50  113.99
  -2   2   3 2292.67  117.39
   2   2  -3 2043.90  116.89
   2   2  -3 2118.79  111.49
  -2   2   3 2086.59  115.09
  -2   2   3 2036.10  115.49
   2   2  -3 2060.99  116.39
  -2   2   3 2261.37  118.39
   2   2  -3 1990.90  115.69
   2   2  -3 2064.69  117.39
   2   2  -3 2044.70  116.99
  -2   2   3 1963.80  115.59
  -2   2   3 2032.00  117.79
  -2   2   3 2115.59  115.69
   2   2  -3 2044.60  116.79
   2   2  -3 2082.29  115.89
  -2   2   3 2203.68  116.99
  -1  -2   3  515.05   33.30
  -1  -2   3  500.15   31.50
  -1  -2   3  494.55   32.10
   1  -2  -3  473.15   30.80
   1  -2  -3  470.35   32.70
  -1  -2   3  495.05   30.10
   1  -2  -3  495.65   31.90
  -1  -2   3  471.85   29.60
   1  -2  -3  504.45   32.00
   1  -2  -3  499.25   29.10
   1  -2  -3  499.75   32.10
   1  -2  -3  482.45   32.80
  -1  -2   3  485.25   31.30
  -1  -2   3  557.34   30.60
   1  -2  -3  499.45   30.80
  -1  -2   3  440.46   33.40
  -1  -2   3  501.25   27.90
  -1   2   3  461.15   31.90
   1   2  -3  486.05   30.80
  -1   2   3  576.94   34.10
   1   2  -3  485.75   31.80
   1   2  -3  458.75   32.40
   1   2  -3  510.35   29.70
  -1   2   3  489.35   30.90
  -1   2   3  518.65   31.10
   1   2  -3  510.25   32.00
  -1   2   3  474.15   31.60
   1   2  -3  461.25   30.70
  -1   2   3  467.35   31.90
  -1   2   3  483.45   31.80
   1   2  -3  491.55   31.90
  -1   2   3  560.54   33.90
   0  -2  -3   18.80    5.00
   0  -2   3   26.60    5.60
   0  -2  -3   29.70    6.70
   0  -2   3   29.60    6.00
   0  -2   3   27.00    6.10
   0  -2   3   19.20    5.20
   0  -2   3   21.00    6.20
   0  -2   3   26.60    4.40
   0  -2   3   20.40    3.90
   0  -2  -3   27.50    6.00
   0  -2  -3   37.70    7.60
   0  -2   3   26.80    4.90
   0  -2   3   31.90    7.80
   0  -2  -3    9.60    4.80
   0  -2   3   26.80    5.90
   0  -2  -3   19.30    4.60
   0  -2  -3   19.00    6.10
   0   2  -3   31.00    6.10
   0   2   3   28.20    5.40
   0   2  -3   31.80    7.30
   0   2   3   31.20    6.80
   0   2   3   34.20    6.90
   0   2   3   23.70    6.00
   0   2  -3   18.30    6.90
   0   2   3   35.50    7.30
   0   2  -3   23.90    5.00
   0   2  -3   24.90    5.30
   0   2   3   36.50    6.00
   0   2   3   34.70    6.30
   0   2  -3   23.20    5.80
   0   2  -3   15.70    5.80
   0   2  -3   27.50    5.00
   0   2   3   22.30    5.60
   1  -2   3 2100.89  115.89
  -1  -2  -3 2046.40  120.29
   1  -2   3 2086.59  116.89
  -1  -2  -3 2014.80  118.19
   1  -2   3 2066.79  118.59
  -1  -2  -3 2014.40  119.89
  -1  -2  -3 2075.19  118.99
  -1  -2  -3 2182.78  119.09
  -1  -2  -3 2179.18  119.79
   1  -2   3 2320.17  120.79
  -1  -2  -3 2512.65  122.19
   1  -2   3 2136.79  121.69
   1  -2   3 2055.79  120.79
   1  -2   3 2173.38  116.79
   1  -2   3 2112.29  118.89
   1  -2   3 2134.79  119.49
  -1  -2  -3 2017.30  116.09
  -1   2  -3 2124.49  118.89
   1   2   3 2004.20  118.89
  -1   2  -3 2008.60  119.89
  -1   2  -3 2376.56  120.39
   1   2   3 2054.49  120.09
  -1   2  -3 2439.36  120.89
   1   2   3 1924.21  118.19
   1   2   3 2047.50  118.59
   1   2   3 1959.40  120.49
  -1   2  -3 2379.26  119.99
  -1   2  -3 2117.69  117.49
   1   2   3 2209.18  120.49
   1   2   3 2002.20  118.79
   1   2   3 2021.50  119.79
  -1   2  -3 2057.79  115.69
  -1   2  -3 1967.40  120.19
  -1   2  -3 1981.30  118.79
   1   2   3 2321.57  116.19
  -1   2  -3 2010.90  117.89
   2  -2   3  828.82   55.19
  -2  -2  -3  868.61   48.90
  -2  -2  -3  822.02   52.59
  -2  -2  -3  888.71   50.69
   2  -2   3  854.21   51.59
   2  -2   3  843.62   50.39
  -2  -2  -3  978.70   55.69
  -2  -2  -3  936.11   54.79
   2  -2   3  827.02   53.79
   2  -2   3  947.21   50.79
   2  -2   3  843.42   49.00
   2  -2   3  839.12   52.29
   2  -2   3  828.12   49.90
   2  -2   3  806.62   54.59
  -2   2  -3  805.72   51.89
   2   2   3  841.82   53.49
  -2   2  -3  815.32   53.59
  -2   2  -3  838.62   52.99
  -2   2  -3  912.11   50.59
  -2   2  -3  887.61   54.09
  -2   2  -3  871.01   51.69
  -2   2  -3  809.92   52.39
   2   2   3  863.41   50.89
   2   2   3  769.32   51.59
  -2   2  -3  877.61   52.09
   2   2   3  806.92   53.89
   2   2   3  873.21   52.59
   2   2   3  812.42   53.49
  -3  -2  -3  563.14   34.20
   3  -2   3  565.24   37.80
   3  -2   3  582.14   35.50
   3  -2   3  525.85   40.00
   3  -2   3  527.15   34.50
  -3  -2  -3  508.15   38.30
   3  -2   3  536.15   40.70
  -3  -2  -3  552.94   35.90
   3  -2   3  582.64   35.10
  -3  -2  -3  549.25   37.70
   3  -2   3  553.24   35.20
   3  -2   3  522.45   35.90
   3   2   3  547.35   37.80
  -3   2  -3  602.44   38.80
   3   2   3  569.64   38.90
   3   2   3  536.75   39.50
  -3   2  -3  510.35   34.90
  -3   2  -3  504.45   37.60
   3   2   3  544.65   37.00
  -3   2  -3  512.45   36.80
  -3   2  -3  531.15   37.00
  -3   2  -3  585.44   39.30
   3   2   3  556.24   37.90
  -4  -2  -3  561.74   41.70
  -4  -2  -3  561.84   40.30
   4  -2   3  591.64   38.20
  -4  -2  -3  610.54   44.20
   4  -2   3  550.44   45.10
   4  -2   3  633.74   38.90
   4  -2   3  620.64   41.10
   4  -2   3  631.94   39.90
   4  -2   3  655.43   42.70
   4  -2   3  634.04   45.30
   4   2   3  648.54   44.60
  -4   2  -3  599.14   41.60
   4   2   3  587.14   40.50
   4   2   3  490.55   41.50
   4   2   3  548.55   41.00
  -4   2  -3  559.74   41.00
  -4   2  -3  538.55   41.40
   4   2   3  571.64   41.10
  -4   2  -3  609.34   43.00
   5  -2   3  120.09   14.60
   5  -2   3  111.49   16.00
  -5  -2  -3  117.29   16.90
   5  -2   3  126.99   17.90
   5  -2   3  110.99   16.30
  -5  -2  -3  129.19   17.30
   5  -2   3  122.39   19.40
   5  -2   3  127.39   14.50
   5  -2   3  144.59   23.30
  -5  -2  -3   96.99   17.50
   5   2   3  134.49   17.70
  -5   2  -3  114.99   18.20
   5   2   3  108.99   17.90
   5   2   3  139.69   17.50
  -5   2  -3  105.29   16.30
   5   2   3  134.79   19.60
  -5   2  -3  115.19   17.80
  -6  -2  -3  102.09   16.70
   6  -2   3   65.19   11.80
  -6  -2  -3   70.79   16.10
   6  -2   3   56.39   14.00
   6  -2   3   86.19   15.30
   6  -2   3   45.10   15.00
   6  -2   3   90.39   13.10
  -6  -2  -3   93.49   17.00
   6   2   3  112.89   16.40
   6   2   3   74.49   14.10
   6   2   3   61.89   16.00
  -6   2  -3   70.49   14.30
   6   2   3   65.89   15.60
  -6   2  -3   68.79   15.90
  -6   2  -3   59.19   13.50
  -7  -2  -3   76.09   17.80
  -7  -2  -3  102.69   19.30
   7  -2   3  121.09   22.40
   7  -2   3  109.89   25.00
  -7  -2  -3   96.79   20.00
   7  -2   3   88.49   20.90
   7   2   3   96.89   16.90
  -7   2  -3  101.59   18.60
  -7   2  -3  106.39   21.20
   7   2   3  122.49   23.90
   7   2   3  117.59   18.80
   7   2   3  135.79   22.00
  -7   2  -3   98.49   19.00
   7   2   3  119.99   21.10
   8  -3  -3   60.89   20.10
  -8  -3   3   79.09   16.90
  -8   3   3   74.79   17.60
   8   3  -3   69.79   15.90
  -8   3   3   89.79   18.30
   7  -3  -3  165.78   19.20
  -7  -3   3  159.88   24.40
  -7  -3   3  190.98   25.70
  -7  -3   3  184.88   25.20
  -7  -3   3  168.78   22.60
   7  -3  -3  204.78   29.00
   7  -3  -3  162.08   27.60
  -7   3   3  218.28   26.30
  -7   3   3  163.88   24.20
   7   3  -3  165.68   23.50
  -7   3   3  181.38   23.30
   7   3  -3  191.28   23.70
   7   3  -3  123.89   22.70
   7   3  -3  205.08   26.10
  -6  -3   3   22.00   10.80
   6  -3  -3   26.10   13.60
   6  -3  -3    8.40    6.20
  -6  -3   3   18.60    7.20
  -6  -3   3    7.60    7.40
   6  -3  -3   -1.00    7.30
  -6  -3   3   13.40    8.30
   6  -3  -3   22.20   10.80
   6   3  -3   25.50   11.30
  -6   3   3   11.20    9.50
  -6   3   3    3.10    7.10
   6   3  -3   23.70    7.70
  -6   3   3    9.20    8.30
   6   3  -3   -2.10    6.70
   6   3  -3    8.40    6.20
   6   3  -3   19.10    8.50
  -5  -3   3  179.28   21.90
   5  -3  -3  181.58   24.70
   5  -3  -3  183.58   17.10
  -5  -3   3  207.68   13.60
   5  -3  -3  166.68   19.80
  -5  -3   3  159.98   19.00
  -5  -3   3  190.68   22.70
  -5  -3   3  190.58   22.50
   5  -3  -3  194.08   24.20
   5   3  -3  189.68   20.50
  -5   3   3  186.48   20.30
   5   3  -3  172.88   21.80
   5   3  -3  171.58   19.90
   5   3  -3  145.49   19.10
   5   3  -3  170.58   19.50
  -5   3   3  188.98   23.40
  -5   3   3  167.98   21.10
  -5   3   3  208.88   22.20
   4  -3  -3  150.88   14.20
  -4  -3   3  147.99   11.60
  -4  -3   3  152.28   12.00
   4  -3  -3  151.48   20.30
   4  -3  -3  167.48   18.10
  -4  -3   3  149.88   17.80
  -4  -3   3  184.68   18.20
   4  -3  -3  138.09   19.30
  -4  -3   3  156.38   18.10
   4  -3  -3  164.58   14.90
  -4  -3   3  123.99   17.60
  -4  -3   3  169.58   12.10
   4  -3  -3  161.28   12.40
  -4   3   3  166.48   20.20
  -4   3   3  144.39   17.10
   4   3  -3  169.68   14.90
   4   3  -3  167.18   17.70
  -4   3   3  159.78   18.00
   4   3  -3  138.39   17.40
  -4   3   3  143.69   16.30
  -4   3   3  155.48   12.30
   4   3  -3  178.68   17.90
  -4   3   3  208.48   20.00
   4   3  -3  148.49   17.60
   3  -3  -3  863.41   61.09
  -3  -3   3  918.91   59.29
  -3  -3   3  967.00   52.29
  -3  -3   3  969.30   56.79
   3  -3  -3 1003.00   56.39
  -3  -3   3  949.80   56.79
  -3  -3   3  892.21   58.79
   3  -3  -3  919.21   55.79
   3  -3  -3  930.01   58.39
   3  -3  -3  935.71   57.29
   3  -3  -3  966.50   56.29
  -3  -3   3  934.21   52.19
  -3  -3   3  983.90   57.29
   3  -3  -3  999.90   62.19
   3   3  -3  946.51   54.99
  -3   3   3 1029.10   56.19
   3   3  -3  885.61   56.29
  -3   3   3  888.01   58.09
   3   3  -3  960.40   59.49
  -3   3   3  997.10   58.49
   3   3  -3  988.20   58.29
   3   3  -3 1037.90   59.99
  -3   3   3  928.71   57.69
   3   3  -3  922.91   58.89
  -3   3   3 1085.39   62.09
  -3   3   3  883.11   57.09
   2  -3  -3 2053.19  117.09
   2  -3  -3 2015.70  118.39
  -2  -3   3 2154.48  122.19
  -2  -3   3 2018.30  120.19
  -2  -3   3 2373.46  117.59
   2  -3  -3 2079.69  121.99
  -2  -3   3 2210.48  116.79
   2  -3  -3 2075.49  117.19
  -2  -3   3 2256.07  124.09
   2  -3  -3 2121.29  119.29
   2  -3  -3 2109.29  117.29
  -2  -3   3 2033.40  119.19
  -2  -3   3 2020.10  117.29
   2  -3  -3 2003.40  121.79
  -2   3   3 2192.78  118.69
  -2   3   3 2171.98  118.19
  -2   3   3 2144.49  119.19
  -2   3   3 2100.59  119.29
  -2   3   3 2028.70  121.39
   2   3  -3 1999.90  119.49
   2   3  -3 1965.20  119.09
  -2   3   3 2165.08  118.49
   2   3  -3 2121.79  114.19
   2   3  -3 2053.79  116.59
   2   3  -3 2145.39  118.59
  -2   3   3 2124.09  123.79
   2   3  -3 2197.88  114.09
   2   3  -3 2095.09  119.59
   2   3  -3 2171.58  118.59
  -2   3   3 2111.19  117.49
  -2   3   3 2081.09  121.69
   2   3  -3 2027.40  120.89
  -1  -3   3  866.81   54.39
   1  -3  -3  840.42   55.29
   1  -3  -3  895.61   54.39
  -1  -3   3  905.91   53.09
  -1  -3   3  934.91   49.80
  -1  -3   3  896.11   53.89
   1  -3  -3  872.41   51.99
  -1  -3   3  986.50   51.19
  -1  -3   3  861.81   52.79
   1  -3  -3  880.11   50.09
   1  -3  -3  853.71   53.29
   1  -3  -3 1021.00   56.79
  -1  -3   3  958.00   50.99
  -1  -3   3  850.91   55.19
   1  -3  -3  882.41   51.79
   1  -3  -3  937.61   53.59
  -1  -3   3  939.91   50.99
  -1   3   3  923.31   56.59
   1   3  -3  961.50   52.59
   1   3  -3  903.71   50.89
  -1   3   3  852.71   50.09
   1   3  -3  852.01   54.89
  -1   3   3  854.21   54.79
  -1   3   3  879.61   52.49
  -1   3   3  849.72   53.79
   1   3  -3  900.91   49.60
  -1   3   3  871.01   53.39
   1   3  -3 1009.00   52.59
   1   3  -3  860.91   53.09
   1   3  -3  878.51   52.99
  -1   3   3  789.22   52.19
   1   3  -3  848.52   54.19
  -1   3   3  929.51   53.89
  -1   3   3  872.21   55.59
   0  -3  -3  247.48   19.30
   0  -3   3  231.08   18.50
   0  -3  -3  214.88   15.50
   0  -3  -3  229.88   13.60
   0  -3   3  241.48   16.40
   0  -3   3  222.28   17.50
   0  -3   3  215.88   16.00
   0  -3   3  222.08   17.90
   0  -3  -3  217.48   16.80
   0  -3  -3  223.18   18.90
   0  -3   3  226.48   13.80
   0  -3   3  234.78   16.20
   0  -3  -3  212.08   16.10
   0  -3   3  214.08   18.70
   0  -3   3  208.98   13.50
   0  -3  -3  206.28   17.40
   0   3   3  195.28   17.00
   0   3  -3  196.38   18.90
   0   3   3  266.87   19.50
   0   3   3  206.28   16.30
   0   3  -3  206.68   16.10
   0   3   3  194.08   16.30
   0   3  -3  193.18   17.30
   0   3  -3  201.18   11.90
   0   3  -3  212.18   16.30
   0   3   3  195.68   17.20
   0   3  -3  197.98   16.10
   0   3   3  191.08   16.70
   0   3  -3  281.07   19.50
   0   3  -3  201.48   15.30
   0   3  -3  197.78   14.60
   0   3   3  230.28   18.70
   0   3   3  209.98   19.00
   0   3  -3  211.68   14.90
   0   3  -3  211.58   11.90
   1  -3   3   39.00    8.20
   1  -3   3   34.70    6.60
   1  -3   3   52.29    8.10
  -1  -3  -3   45.00    7.30
  -1  -3  -3   37.90    4.40
   1  -3   3   34.50    6.50
  -1  -3  -3   37.00    9.60
   1  -3   3   37.30    4.30
  -1  -3  -3   33.30    6.60
   1  -3   3   45.20    4.50
   1  -3   3   33.60    8.70
   1  -3   3   38.60    9.40
  -1  -3  -3   32.80    7.80
  -1  -3  -3   28.90    6.70
  -1   3  -3   38.20    9.10
  -1   3  -3   36.70    5.70
   1   3   3   42.20    8.10
  -1   3  -3   55.69    9.70
   1   3   3   38.70    7.10
  -1   3  -3   38.70    8.20
  -1   3  -3   37.40    6.60
   1   3   3   36.70    9.20
   1   3   3   28.20    6.60
   1   3   3   45.20    8.20
  -1   3  -3   44.20    6.70
   1   3   3   44.40    8.00
  -1   3  -3   48.50    7.40
  -1   3  -3   35.50    4.60
  -1   3  -3   39.10    4.80
  -1   3  -3   37.00    7.80
   1   3   3   42.10    8.60
   1   3   3   39.10    3.50
  -2  -3  -3   41.00    6.10
  -2  -3  -3   39.10    9.30
   2  -3   3   44.30    5.30
   2  -3   3   61.49    9.00
   2  -3   3   40.10    9.30
   2  -3   3   51.29    6.60
   2  -3   3   51.59    6.00
   2  -3   3   37.90    8.80
   2  -3   3   41.20    7.50
  -2  -3  -3   38.30    7.30
  -2  -3  -3   31.50    9.10
   2  -3   3   41.90    9.70
  -2   3  -3   50.39    9.30
  -2   3  -3   68.29    9.10
   2   3   3   35.30    8.00
   2   3   3   45.90    9.10
   2   3   3   40.90    6.30
   2   3   3   23.10    7.60
   2   3   3   41.20    7.50
  -2   3  -3   55.19    8.40
  -2   3  -3   33.00    6.20
  -2   3  -3   50.79    8.20
  -2   3  -3   47.30    7.90
  -2   3  -3   31.60    7.30
  -2   3  -3   37.10    7.30
   2   3   3   33.60    8.50
  -3  -3  -3  705.43   45.50
  -3  -3  -3  646.94   42.60
   3  -3   3  654.43   48.80
  -3  -3  -3  723.23   39.60
   3  -3   3  805.02   43.40
  -3  -3  -3  611.24   45.90
   3  -3   3  689.13   40.80
   3  -3   3  696.63   40.70
   3  -3   3  686.83   48.30
   3  -3   3  712.73   42.90
   3  -3   3  676.63   40.90
   3  -3   3  671.93   44.30
  -3   3  -3  633.64   45.90
  -3   3  -3  673.43   44.00
   3   3   3  685.13   45.80
   3   3   3  609.74   45.30
   3   3   3  662.23   46.80
  -3   3  -3  682.03   44.10
   3   3   3  703.33   45.00
  -3   3  -3  617.44   41.90
   3   3   3  746.73   43.70
  -3   3  -3  650.23   44.50
   3   3   3  618.74   43.60
   4  -3   3  180.68   23.10
   4  -3   3  194.58   16.20
  -4  -3  -3  196.48   15.90
   4  -3   3  201.28   16.60
  -4  -3  -3  225.18   23.00
  -4  -3  -3  188.98   22.50
   4  -3   3  210.08   21.90
   4  -3   3  222.48   19.70
   4  -3   3  209.78   16.20
  -4  -3  -3  216.48   20.00
   4  -3   3  159.18   24.00
   4  -3   3  196.48   16.40
  -4   3  -3  215.28   16.30
   4   3   3  182.38   18.70
  -4   3  -3  194.98   20.70
  -4   3  -3  202.88   21.80
  -4   3  -3  216.68   20.90
   4   3   3  192.58   22.50
   4   3   3  245.18   21.10
  -4   3  -3  161.78   20.70
   4   3   3  204.18   23.20
   4   3   3  232.58   25.10
  -5  -3  -3    3.00    5.50
  -5  -3  -3   -4.70    7.20
   5  -3   3    6.30    5.10
  -5  -3  -3   -3.60    6.20
   5  -3   3    4.20    6.70
   5  -3   3    0.10    9.30
   5  -3   3   -0.50    6.70
   5  -3   3   14.50    8.50
   5   3   3    4.50    5.90
  -5   3  -3    7.60    6.20
   5   3   3    6.20    6.90
   5   3   3  -11.80    6.10
  -5   3  -3   -1.60    4.90
   5   3   3    3.00    5.70
  -5   3  -3    2.40    4.70
   6  -3   3   94.79   22.20
  -6  -3  -3  103.49   20.10
   6  -3   3  101.79   17.30
   6  -3   3  110.19   20.00
  -6  -3  -3  125.89   19.50
   6  -3   3  108.79   13.80
  -6  -3  -3  136.89   19.10
   6   3   3  145.49   21.20
   6   3   3  126.69   20.80
  -6   3  -3  113.49   20.40
  -6   3  -3  140.09   20.40
  -6   3  -3  116.69   18.80
   6   3   3   85.79   15.70
  -7  -3  -3  216.48   29.00
   7  -3   3  185.98   31.00
   7  -3   3  215.68   30.10
  -7  -3  -3  212.48   27.40
  -7   3  -3  193.48   27.70
  -7   3  -3  174.88   24.80
  -7   3  -3  213.68   27.70
   7   3   3  152.88   24.20
   7   3   3  267.37   37.10
   7   3   3  180.28   27.00
   7   3   3  234.58   26.70
   7   3   3  201.98   28.00
  -7  -4   3   54.29   13.40
  -7  -4   3   76.09   18.60
  -7  -4   3   75.59   18.60
  -7  -4   3   38.00   11.80
   7  -4  -3   27.40   14.50
   7  -4  -3   47.10   15.30
  -7   4   3   69.59   15.70
   7   4  -3   60.29   13.50
   7   4  -3   46.80   14.30
   7   4  -3   13.70    9.80
   7   4  -3   62.39   15.80
  -7   4   3   32.90   12.70
   7   4  -3   41.80   12.70
  -7   4   3   74.39   17.00
   6  -4  -3  160.68   24.90
  -6  -4   3  196.48   23.30
  -6  -4   3  196.88   21.20
  -6  -4   3  154.68   21.70
   6  -4  -3  122.39   14.30
  -6  -4   3  123.49   19.40
   6  -4  -3  151.28   25.20
   6   4  -3  137.89   19.60
  -6   4   3  136.39   22.80
   6   4  -3  110.09   18.90
  -6   4   3  139.49   19.50
  -6   4   3  153.08   20.20
   6   4  -3  162.98   20.50
   6   4  -3  136.19   19.00
  -6   4   3  126.69   18.50
   6   4  -3  147.99   19.40
  -5  -4   3   90.59   16.20
   5  -4  -3   96.49   14.90
  -5  -4   3   83.89   13.40
   5  -4  -3   78.59   13.30
   5  -4  -3   90.09   16.60
   5  -4  -3   94.09   11.20
   5  -4  -3   73.99   15.70
  -5  -4   3   85.19   15.20
  -5  -4   3   76.99   14.30
   5   4  -3   92.89   15.60
   5   4  -3   77.99   13.00
  -5   4   3   98.69   14.90
  -5   4   3   96.59   15.30
   5   4  -3   83.99   14.20
   5   4  -3  124.29   17.10
  -5   4   3  127.99   19.10
   5   4  -3   91.79   13.20
  -5   4   3  111.39   16.10
  -5   4   3   82.39   13.80
  -4  -4   3  330.37   19.10
  -4  -4   3  338.87   26.90
   4  -4  -3  250.87   29.90
  -4  -4   3  327.47   18.80
  -4  -4   3  325.37   19.30
  -4  -4   3  343.37   28.40
  -4  -4   3  314.07   24.80
   4  -4  -3  332.37   30.60
   4  -4  -3  321.87   25.90
  -4  -4   3  317.17   18.70
   4  -4  -3  351.16   23.00
   4  -4  -3  325.47   22.50
  -4   4   3  281.37   25.50
  -4   4   3  313.07   25.80
   4   4  -3  337.57   25.70
   4   4  -3  325.47   23.80
  -4   4   3  328.17   26.10
   4   4  -3  329.77   27.30
   4   4  -3  322.87   27.60
  -4   4   3  322.57   28.70
  -4   4   3  335.07   25.60
  -4   4   3  333.07   21.70
   4   4  -3  311.07   25.30
  -3  -4   3  836.22   56.79
   3  -4  -3  869.61   50.79
   3  -4  -3  864.31   58.99
  -3  -4   3  890.01   50.29
   3  -4  -3  863.01   58.19
  -3  -4   3  882.31   52.09
  -3  -4   3  822.12   56.09
  -3  -4   3  871.61   54.79
   3  -4  -3  954.70   51.19
   3  -4  -3  892.01   53.69
  -3  -4   3  870.21   52.39
   3  -4  -3  893.71   54.19
  -3  -4   3  888.71   52.99
  -3   4   3  820.32   56.99
  -3   4   3  872.71   53.39
   3   4  -3  877.51   56.39
   3   4  -3  858.21   54.99
  -3   4   3  951.40   54.69
  -3   4   3  847.62   53.89
  -3   4   3  862.81   51.79
   3   4  -3  827.12   54.59
  -3   4   3  851.21   53.09
   3   4  -3  869.21   52.59
   3   4  -3  852.61   53.59
  -2  -4   3  243.68   22.40
   2  -4  -3  243.18   22.90
  -2  -4   3  241.68   17.90
  -2  -4   3  275.07   17.40
   2  -4  -3  293.17   18.20
  -2  -4   3  262.47   19.70
  -2  -4   3  270.67   17.60
  -2  -4   3  238.18   20.70
   2  -4  -3  237.18   16.40
  -2  -4   3  261.77   16.90
   2  -4  -3  227.18   21.80
   2  -4  -3  253.97   16.50
   2  -4  -3  275.77   19.60
  -2   4   3  214.88   18.30
  -2   4   3  226.18   17.40
  -2   4   3  224.08   18.70
   2   4  -3  224.88   18.30
  -2   4   3  243.98   19.30
  -2   4   3  220.08   21.90
   2   4  -3  239.18   19.50
   2   4  -3  227.28   15.70
  -2   4   3  238.18   15.70
   2   4  -3  238.58   19.10
   2   4  -3  245.78   21.10
   2   4  -3  260.77   18.80
   2   4  -3  234.68   17.20
  -2   4   3  247.78   18.40
  -2   4   3  248.98   18.60
  -1  -4   3  851.51   49.20
  -1  -4   3 1066.99   57.19
   1  -4  -3  851.71   50.89
  -1  -4   3  859.61   56.59
  -1  -4   3 1046.30   55.29
  -1  -4   3  913.41   50.39
   1  -4  -3  897.21   49.99
   1  -4  -3  960.10   54.09
  -1  -4   3  970.60   53.19
  -1  -4   3 1032.10   54.79
   1  -4  -3  847.62   56.89
   1  -4  -3  876.51   50.89
  -1   4   3  903.61   52.69
   1   4  -3  932.51   50.99
   1   4  -3  808.32   52.49
   1   4  -3  875.31   51.89
   1   4  -3  793.42   55.19
   1   4  -3  875.71   51.79
  -1   4   3  822.82   54.29
  -1   4   3  859.01   49.80
   1   4  -3  850.91   50.09
  -1   4   3  866.01   49.10
  -1   4   3  841.32   53.19
  -1   4   3 1006.80   54.29
  -1   4   3  882.21   56.49
  -1   4   3  830.62   58.19
  -1   4   3  994.60   53.19
   1   4  -3  868.41   50.59
   1   4  -3  827.62   52.59
   0  -4   3  201.18   19.30
   0  -4  -3  234.68   16.40
   0  -4   3  228.28   16.10
   0  -4  -3  257.17   19.10
   0  -4   3  240.48   17.80
   0  -4   3  196.18   19.70
   0  -4  -3  231.98   16.00
   0  -4   3  236.68   19.60
   0  -4   3  218.68   19.80
   0  -4  -3  235.18   21.10
   0  -4   3  226.68   16.40
   0  -4  -3  245.88   15.00
   0   4  -3  231.98   14.10
   0   4   3  248.68   21.20
   0   4   3  259.97   19.10
   0   4   3  276.17   19.00
   0   4  -3  219.78   16.70
   0   4  -3  228.48   16.60
   0   4   3  221.68   18.60
   0   4  -3  232.88   15.50
   0   4  -3  228.68   17.20
   0   4   3  214.08   17.30
   0   4  -3  212.68   15.50
   0   4   3  215.98   16.70
   0   4  -3  216.38   17.00
   0   4  -3  207.48   19.30
   0   4  -3  219.58   18.90
   0   4   3  230.38   20.80
   0   4  -3  187.28   16.50
   1  -4   3  791.52   53.39
  -1  -4  -3  872.51   49.10
   1  -4   3  844.62   54.29
   1  -4   3  765.12   51.69
  -1  -4  -3  822.42   45.50
  -1  -4  -3  729.73   50.69
   1  -4   3  766.52   48.30
  -1  -4  -3  737.53   48.90
   1  -4   3  776.12   50.99
  -1   4  -3  814.02   46.90
   1   4   3  808.22   52.89
  -1   4  -3  899.01   49.80
  -1   4  -3  909.91   52.09
   1   4   3  817.92   45.50
   1   4   3  917.61   51.89
   1   4   3  832.42   51.49
   1   4   3  813.82   51.29
  -1   4  -3  771.92   50.79
  -1   4  -3  791.82   47.90
  -1   4  -3  850.71   48.20
  -1   4  -3  846.12   51.49
  -1   4  -3  826.02   48.90
  -1   4  -3  797.32   47.40
   1   4   3  939.31   50.59
  -2  -4  -3  296.27   23.90
   2  -4   3  275.77   21.20
  -2  -4  -3  317.77   20.20
  -2  -4  -3  275.27   24.00
   2  -4   3  314.47   22.90
  -2  -4  -3  292.27   22.40
   2  -4   3  294.87   21.40
   2  -4   3  284.47   25.80
   2  -4   3  317.17   26.30
   2  -4   3  297.67   26.10
   2   4   3  342.07   25.10
  -2   4  -3  317.67   22.60
   2   4   3  300.67   23.20
  -2   4  -3  314.37   21.00
  -2   4  -3  284.17   21.30
   2   4   3  294.07   24.20
   2   4   3  315.57   20.30
  -2   4  -3  286.07   24.50
  -2   4  -3  308.67   22.60
   2   4   3  309.87   24.50
  -2   4  -3  285.77   21.30
  -2   4  -3  294.77   20.70
   2   4   3  280.57   25.20
  -2   4  -3  286.47   21.70
   3  -4   3  288.07   21.80
   3  -4   3  266.57   27.00
  -3  -4  -3  305.97   26.20
   3  -4   3  271.77   17.00
   3  -4   3  289.77   27.90
   3  -4   3  287.67   22.10
   3  -4   3  280.17   17.00
  -3  -4  -3  279.27   22.90
  -3  -4  -3  288.17   21.60
   3  -4   3  298.67   22.30
   3   4   3  335.27   26.40
  -3   4  -3  253.07   22.20
  -3   4  -3  326.17   23.10
  -3   4  -3  275.57   21.10
   3   4   3  333.17   26.20
   3   4   3  269.07   23.40
  -3   4  -3  310.07   22.80
   3   4   3  258.97   24.30
   3   4   3  308.67   21.90
  -3   4  -3  270.67   24.70
   4  -4   3   43.90   10.20
  -4  -4  -3   41.20    9.40
   4  -4   3   29.00   10.50
   4  -4   3   31.20    6.90
  -4  -4  -3   37.80    9.70
   4  -4   3   44.70    9.70
   4  -4   3   31.00   12.40
  -4  -4  -3   32.50   11.50
  -4   4  -3   49.80   12.30
  -4   4  -3    9.40    7.50
   4   4   3   65.59   13.40
   4   4   3   44.20   10.10
  -4   4  -3   33.70    6.30
   4   4   3   66.89   13.60
  -4   4  -3   49.60   10.40
   4   4   3   26.40    7.70
   4   4   3   37.10   10.10
  -4   4  -3   49.70    9.90
  -5  -4  -3  277.57   25.80
   5  -4   3  313.97   34.50
  -5  -4  -3  232.58   28.00
   5  -4   3  276.37   34.40
  -5  -4  -3  252.27   24.90
   5  -4   3  270.67   25.50
   5   4   3  264.97   24.90
  -5   4  -3  277.07   29.20
  -5   4  -3  259.27   25.00
   5   4   3  290.17   27.70
   5   4   3  320.77   31.50
  -5   4  -3  275.47   27.70
   6  -4   3   88.29   19.60
   6  -4   3  121.59   24.90
  -6  -4  -3  120.09   19.10
  -6  -4  -3  112.69   20.90
   6  -4   3   99.49   19.10
  -6  -4  -3   87.19   16.10
  -6   4  -3  110.09   19.20
   6   4   3   65.19   16.40
  -6   4  -3   65.79   14.40
  -6   4  -3  110.69   18.40
   6   4   3   95.89   16.20
   6   4   3  101.59   17.40
  -7  -5   3  107.79   22.00
  -7  -5   3  123.59   22.50
   7  -5  -3  106.79   23.00
   7  -5  -3  117.59   23.70
  -7  -5   3  158.08   23.70
  -7  -5   3  142.09   19.90
   7   5  -3  105.89   17.80
   7   5  -3   95.29   18.20
  -7   5   3  126.29   22.50
  -7   5   3  116.29   18.80
   7   5  -3  114.69   21.50
  -7   5   3  110.39   19.00
   7   5  -3  100.89   18.10
  -7   5   3  102.69   20.90
  -6  -5   3   58.19   15.10
  -6  -5   3   41.20    9.90
  -6  -5   3   59.09   13.80
  -6  -5   3   40.70   12.20
   6  -5  -3   57.69   17.20
   6  -5  -3   40.40   13.60
  -6   5   3   36.30   14.00
  -6   5   3   32.20   10.60
   6   5  -3   49.99   13.50
   6   5  -3   44.40   12.60
  -6   5   3   65.69   13.90
   6   5  -3   42.10   11.00
   6   5  -3   33.80   10.50
   6   5  -3   47.90   13.20
  -6   5   3   62.79   13.50
   5  -5  -3  119.29   20.00
  -5  -5   3  119.19   19.30
   5  -5  -3   99.99   15.10
  -5  -5   3  115.09   14.50
   5  -5  -3  118.59   19.90
  -5  -5   3  104.59   16.60
   5   5  -3  114.69   17.40
   5   5  -3  101.89   14.20
  -5   5   3  126.29   16.60
   5   5  -3  107.69   15.90
   5   5  -3  102.39   15.90
  -5   5   3  104.59   15.10
   5   5  -3  113.59   16.80
  -5   5   3   95.29   17.90
  -5   5   3  124.19   17.00
   4  -5  -3  549.65   34.00
  -4  -5   3  618.34   38.40
   4  -5  -3  563.44   46.10
   4  -5  -3  556.44   34.00
   4  -5  -3  639.84   40.50
  -4  -5   3  567.64   42.30
  -4  -5   3  610.94   42.00
   4  -5  -3  504.15   44.30
  -4  -5   3  532.35   42.00
  -4   5   3  586.64   40.30
   4   5  -3  571.74   43.00
  -4   5   3  647.74   41.00
   4   5  -3  561.34   41.10
   4   5  -3  587.94   39.50
   4   5  -3  581.64   40.50
  -4   5   3  662.33   40.90
   4   5  -3  587.84   40.00
  -4   5   3  576.84   35.90
  -4   5   3  581.34   44.40
  -4   5   3  562.44   39.20
   4   5  -3  625.24   42.30
  -3  -5   3  154.98   19.30
   3  -5  -3  146.29    9.90
  -3  -5   3  159.78   12.90
  -3  -5   3  143.29   12.90
   3  -5  -3  143.19    9.80
  -3  -5   3  181.38   17.00
   3  -5  -3  158.28   21.10
  -3  -5   3  167.58   12.00
   3  -5  -3  179.98   15.60
  -3  -5   3  192.98   21.40
   3  -5  -3  127.99   19.00
  -3   5   3  184.08   15.50
  -3   5   3  152.08   20.20
   3   5  -3  135.09   15.40
   3   5  -3  144.49   19.20
   3   5  -3  157.78   14.80
  -3   5   3  182.98   15.90
  -3   5   3  156.78   14.20
  -3   5   3  143.99   15.10
   3   5  -3  158.48   17.40
  -3   5   3  166.78   15.50
   3   5  -3  157.28   14.40
   3   5  -3  137.09   16.40
   2  -5  -3  481.45   39.30
  -2  -5   3  573.84   34.40
   2  -5  -3  539.15   34.00
  -2  -5   3  506.65   34.30
  -2  -5   3  589.24   35.90
  -2  -5   3  503.75   31.30
  -2  -5   3  587.24   39.40
  -2  -5   3  539.35   39.00
   2  -5  -3  558.24   35.40
   2   5  -3  534.95   35.70
  -2   5   3  478.55   38.40
   2   5  -3  643.94   36.90
   2   5  -3  505.55   38.20
   2   5  -3  559.34   34.00
  -2   5   3  594.44   36.50
   2   5  -3  550.14   34.60
  -2   5   3  592.24   33.90
  -2   5   3  530.15   34.30
  -2   5   3  558.34   35.50
  -2   5   3  506.45   35.10
   2   5  -3  520.25   33.30
  -2   5   3  520.15   32.60
  -2   5   3  589.34   34.90
   2   5  -3  552.34   34.90
   1  -5  -3  185.68   22.60
  -1  -5   3  192.28   20.40
  -1  -5   3  269.17   22.20
   1  -5  -3  225.28   14.40
   1  -5  -3  226.38   18.10
   1  -5  -3  227.48   14.30
  -1  -5   3  230.68   19.30
  -1  -5   3  257.17   17.90
  -1   5   3  254.47   15.60
  -1   5   3  278.17   22.00
   1   5  -3  258.07   16.50
   1   5  -3  231.78   16.90
  -1   5   3  258.87   18.00
  -1   5   3  247.08   18.90
  -1   5   3  243.18   17.90
   1   5  -3  243.88   17.80
   1   5  -3  284.97   18.80
  -1   5   3  269.07   23.30
  -1   5   3  246.18   18.80
   1   5  -3  260.87   17.80
   1   5  -3  263.97   17.30
   1   5  -3  249.48   21.50
   1   5  -3  236.48   16.30
  -1   5   3  243.68   15.20
   0  -5   3  807.92   53.69
   0  -5  -3  856.41   48.30
   0  -5   3  820.82   55.79
   0  -5   3  848.02   52.29
   0  -5  -3  830.52   51.69
   0  -5  -3  825.42   48.50
   0  -5   3  826.62   53.99
   0  -5  -3  821.42   55.69
   0  -5  -3  837.42   49.00
   0   5   3  851.41   50.69
   0   5   3  873.71   50.89
   0   5  -3  849.02   49.90
   0   5  -3  837.22   53.79
   0   5  -3  804.22   49.50
   0   5  -3  812.72   48.60
   0   5   3  896.01   52.09
   0   5  -3  865.21   52.19
   0   5   3  852.01   51.89
   0   5   3  837.22   53.79
   0   5  -3  865.11   51.09
   0   5  -3  893.21   48.60
   0   5  -3  928.41   52.19
   0   5   3  836.82   54.49
   0   5  -3  841.12   48.40
  -1  -5  -3  413.76   30.00
  -1  -5  -3  402.96   27.00
   1  -5   3  413.16   33.50
   1  -5   3  415.46   26.80
  -1  -5  -3  430.76   29.80
  -1  -5  -3  385.16   27.30
   1  -5   3  423.86   31.40
   1  -5   3  408.66   33.20
  -1  -5  -3  407.06   27.90
  -1   5  -3  463.55   26.70
  -1   5  -3  424.56   31.10
  -1   5  -3  374.96   30.00
   1   5   3  535.15   34.20
  -1   5  -3  450.35   28.80
   1   5   3  455.25   31.40
   1   5   3  423.76   30.50
  -1   5  -3  463.35   28.10
   1   5   3  445.56   28.90
   1   5   3  420.06   23.90
   1   5   3  402.36   29.50
  -1   5  -3  442.26   27.60
  -1   5  -3  430.86   26.20
  -2  -5  -3  563.54   37.30
  -2  -5  -3  463.65   32.90
   2  -5   3  531.45   39.40
  -2  -5  -3  488.55   30.60
   2  -5   3  460.25   37.20
   2  -5   3  494.65   33.60
   2  -5   3  493.35   34.60
  -2  -5  -3  571.54   36.80
  -2  -5  -3  458.75   33.80
  -2  -5  -3  517.65   32.70
   2  -5   3  530.25   39.30
  -2   5  -3  498.35   32.00
   2   5   3  460.65   35.00
  -2   5  -3  495.55   34.10
   2   5   3  475.35   36.60
  -2   5  -3  469.95   31.10
  -2   5  -3  502.55   32.90
   2   5   3  460.85   33.50
  -2   5  -3  508.25   37.70
  -2   5  -3  506.55   32.60
   2   5   3  585.14   37.40
  -2   5  -3  507.75   33.40
  -2   5  -3  545.05   33.10
   2   5   3  510.85   30.70
  -2   5  -3  522.85   32.10
   2   5   3  502.35   35.80
  -3  -5  -3  518.25   37.00
   3  -5   3  535.75   37.00
   3  -5   3  646.04   45.00
   3  -5   3  546.85   36.00
  -3  -5  -3  531.55   39.20
   3  -5   3  473.65   42.10
   3  -5   3  571.64   36.10
  -3  -5  -3  549.25   35.30
  -3   5  -3  516.55   40.00
   3   5   3  590.14   35.50
  -3   5  -3  544.65   36.30
   3   5   3  515.75   37.20
   3   5   3  530.75   39.00
  -3   5  -3  549.45   35.70
   3   5   3  526.75   39.00
  -3   5  -3  484.75   35.50
   3   5   3  525.35   39.50
  -3   5  -3  576.74   37.20
   4  -5   3  761.42   55.79
  -4  -5  -3  797.02   47.00
   4  -5   3  701.63   47.70
  -4  -5  -3  762.72   51.69
   4  -5   3  661.63   53.19
  -4  -5  -3  749.42   48.40
  -4   5  -3  671.83   43.20
  -4   5  -3  746.43   48.10
   4   5   3  675.63   48.10
  -4   5  -3  703.43   50.99
   4   5   3  678.03   49.80
   4   5   3  670.13   49.99
   4   5   3  695.53   46.00
   4   5   3  628.14   48.80
  -4   5  -3  667.73   46.60
  -5  -5  -3   27.10   12.30
  -5  -5  -3    8.10    7.60
  -5  -5  -3   23.90    9.80
   5  -5   3   37.20   12.70
   5  -5   3   33.00    9.70
   5  -5   3   23.50   13.80
   5   5   3   17.40    9.70
   5   5   3   30.90    9.20
   5   5   3   23.60   11.20
  -5   5  -3   14.80    8.30
  -5   5  -3   17.50    7.60
  -5   5  -3   11.30    8.70
   5   5   3   28.00   11.50
  -6  -5  -3  265.17   25.60
  -6  -5  -3  221.48   27.20
  -6  -5  -3  269.27   32.30
   6  -5   3  212.98   31.60
   6  -5   3  209.28   32.60
  -6   5  -3  254.27   29.20
  -6   5  -3  299.47   30.80
  -6   5  -3  341.37   34.50
   6   5   3  315.67   28.20
   6   5   3  363.76   33.10
   6   5   3  338.17   34.30
   7  -6  -3  181.08   28.70
  -7  -6   3  254.67   31.70
   7  -6  -3  224.28   34.90
  -7  -6   3  206.18   23.80
  -7  -6   3  189.18   26.30
  -7   6   3  188.28   28.90
  -7   6   3  248.68   29.70
  -7   6   3  236.78   27.20
   7   6  -3  164.98   23.30
   7   6  -3  167.78   24.30
  -7   6   3  242.38   27.50
   7   6  -3  200.98   25.20
   7   6  -3  228.08   28.80
  -6  -6   3   77.59   17.50
  -6  -6   3  102.09   15.40
   6  -6  -3  146.19   25.70
  -6  -6   3  118.49   19.80
  -6  -6   3   91.99   17.90
   6  -6  -3  105.99   22.90
  -6   6   3   85.29   15.50
   6   6  -3  123.49   19.20
  -6   6   3  111.69   17.30
   6   6  -3  109.19   16.70
   6   6  -3  112.49   18.20
   6   6  -3  115.09   19.30
  -6   6   3  101.49   16.50
  -6   6   3  117.09   21.60
   6   6  -3   94.19   17.20
  -5  -6   3   23.20   10.90
  -5  -6   3   29.60    9.90
  -5  -6   3   18.00    9.80
   5  -6  -3   18.30    9.80
   5  -6  -3   28.90   13.20
  -5  -6   3   22.80    7.20
   5   6  -3   44.50   11.20
   5   6  -3   39.00    9.50
   5   6  -3   37.40    9.60
  -5   6   3   41.30    9.90
   5   6  -3   41.60   10.80
  -5   6   3   43.70   11.50
  -5   6   3   40.40   12.20
  -5   6   3   38.20    9.50
   5   6  -3   30.30   10.20
  -4  -6   3   81.79   14.60
  -4  -6   3   86.59   10.80
  -4  -6   3   74.69    9.90
  -4  -6   3   75.09   13.60
  -4  -6   3   80.19   15.70
   4  -6  -3   71.99   17.40
   4  -6  -3   81.29   17.40
   4  -6  -3  107.39   13.30
   4   6  -3   94.59   13.20
  -4   6   3   77.29   12.70
   4   6  -3  116.99   13.80
  -4   6   3   83.09   10.10
   4   6  -3   85.79   13.60
  -4   6   3   67.49   11.20
   4   6  -3   77.59   12.70
   4   6  -3   67.99   14.90
   4   6  -3  112.59   16.10
  -4   6   3   82.09   11.90
  -4   6   3   93.89   16.80
  -4   6   3   73.99   11.90
   3  -6  -3  383.16   33.60
  -3  -6   3  357.06   23.10
   3  -6  -3  314.17   32.50
   3  -6  -3  410.76   26.80
  -3  -6   3  319.47   22.50
  -3  -6   3  355.66   30.10
  -3  -6   3  363.26   22.90
  -3  -6   3  326.67   30.50
  -3  -6   3  421.26   28.50
   3   6  -3  356.56   27.40
   3   6  -3  360.06   27.60
  -3   6   3  403.96   26.90
  -3   6   3  377.96   26.90
   3   6  -3  377.46   26.90
  -3   6   3  348.07   25.80
  -3   6   3  371.56   25.30
  -3   6   3  420.96   33.50
   3   6  -3  391.76   32.00
   3   6  -3  343.07   26.40
   3   6  -3  348.37   26.80
  -3   6   3  366.86   26.70
  -3   6   3  379.16   26.30
   2  -6  -3  466.55   38.20
  -2  -6   3  497.05   36.70
  -2  -6   3  529.85   32.60
   2  -6  -3  540.55   32.80
  -2  -6   3  511.65   32.70
  -2  -6   3  506.15   32.60
   2  -6  -3  507.35   31.70
  -2  -6   3  591.14   39.10
   2   6  -3  514.65   32.00
   2   6  -3  504.65   32.30
   2   6  -3  480.75   32.90
  -2   6   3  472.25   32.20
  -2   6   3  454.15   30.50
  -2   6   3  458.75   37.70
  -2   6   3  490.55   31.00
   2   6  -3  478.85   31.70
   2   6  -3  511.15   33.50
   2   6  -3  505.55   32.20
  -2   6   3  446.46   32.10
   2   6  -3  457.45   36.40
  -2   6   3  449.86   31.40
  -1  -6   3  144.09   17.30
   1  -6  -3  108.59   18.50
   1  -6  -3  134.29   12.70
  -1  -6   3  131.39   17.80
  -1  -6   3  140.69   16.40
   1   6  -3  178.48   19.80
  -1   6   3  169.18   13.20
   1   6  -3  170.08   12.10
   1   6  -3  165.88   13.20
   1   6  -3  159.28   13.80
   1   6  -3  151.28   13.10
  -1   6   3  164.78   11.80
   1   6  -3  145.39   11.90
   1   6  -3  143.59   12.00
  -1   6   3  136.29   13.40
  -1   6   3  131.19   10.20
  -1   6   3  153.08   13.00
  -1   6   3  133.69   13.30
  -1   6   3  162.98   19.70
   1   6  -3  155.08   15.10
   1   6  -3  148.19   11.90
  -1   6   3  172.28   18.30
   0  -6   3   91.79    8.00
   0  -6   3   62.79   11.60
   0  -6   3   75.19   14.30
   0  -6   3   85.29   12.70
   0  -6  -3   95.29    9.70
   0  -6  -3   74.29   13.70
   0  -6   3   69.99   11.60
   0  -6  -3   65.29   10.00
   0   6  -3   92.89    7.80
   0   6   3   85.69   10.60
   0   6  -3   76.99    8.50
   0   6  -3   73.39   11.40
   0   6  -3   94.09   13.40
   0   6   3   84.49    9.60
   0   6  -3   83.39    8.90
   0   6   3   82.19   10.80
   0   6  -3   91.69    7.40
   0   6  -3   99.29   13.10
   0   6   3   78.59    9.80
   0   6  -3   89.49    9.30
   0   6   3   67.19   11.80
   0   6   3   97.19   14.70
  -1  -6  -3  598.64   38.00
  -1  -6  -3  559.14   38.20
   1  -6   3  515.75   40.90
  -1  -6  -3  549.54   33.40
   1  -6   3  550.74   40.40
   1  -6   3  552.04   41.60
  -1  -6  -3  567.14   36.30
   1  -6   3  623.14   33.70
  -1   6  -3  547.65   38.40
  -1   6  -3  579.54   33.10
   1   6   3  531.15   36.20
  -1   6  -3  525.75   34.20
  -1   6  -3  602.94   34.90
  -1   6  -3  534.35   37.00
   1   6   3  555.24   40.30
   1   6   3  609.54   38.60
   1   6   3  543.35   31.10
  -1   6  -3  561.04   33.30
   1   6   3  571.24   37.80
   1   6   3  543.65   39.50
   1   6   3  550.54   31.40
  -2  -6  -3  369.66   26.20
   2  -6   3  302.37   25.20
   2  -6   3  261.97   27.70
   2  -6   3  365.96   30.40
  -2  -6  -3  341.07   23.20
   2  -6   3  331.87   22.10
  -2  -6  -3  332.87   23.60
  -2  -6  -3  344.17   27.20
   2  -6   3  310.77   28.70
  -2   6  -3  354.86   25.20
  -2   6  -3  329.87   22.70
  -2   6  -3  354.36   22.20
  -2   6  -3  309.77   27.80
   2   6   3  320.87   21.40
   2   6   3  342.27   25.70
  -2   6  -3  340.17   23.90
   2   6   3  263.47   25.80
  -2   6  -3  339.07   23.40
  -2   6  -3  384.66   24.20
   2   6   3  319.87   27.30
  -2   6  -3  325.77   25.50
   2   6   3  366.76   28.10
  -2   6  -3  327.77   23.00
   2   6   3  334.17   26.60
  -3  -6  -3  270.97   23.80
   3  -6   3  238.18   29.70
  -3  -6  -3  298.27   21.10
   3  -6   3  275.77   23.90
   3  -6   3  299.07   29.80
  -3  -6  -3  275.77   22.50
  -3  -6  -3  246.78   25.00
  -3   6  -3  315.07   28.50
   3   6   3  258.27   27.30
  -3   6  -3  301.67   22.40
   3   6   3  277.77   24.70
   3   6   3  268.77   24.00
  -3   6  -3  270.47   21.50
  -3   6  -3  260.57   21.30
  -3   6  -3  270.07   22.10
   3   6   3  293.17   20.90
   3   6   3  278.27   26.40
  -4  -6  -3  574.84   41.50
  -4  -6  -3  627.34   40.50
   4  -6   3  673.73   52.09
  -4  -6  -3  667.13   46.50
  -4  -6  -3  639.34   45.20
   4  -6   3  545.35   42.20
   4  -6   3  647.34   50.29
  -4   6  -3  587.44   38.30
  -4   6  -3  586.84   40.90
   4   6   3  626.04   43.60
   4   6   3  623.44   45.70
   4   6   3  542.75   43.30
  -4   6  -3  525.95   44.30
   4   6   3  608.24   45.00
  -4   6  -3  575.14   41.20
  -5  -6  -3  628.94   44.50
   5  -6   3  575.54   51.99
   5  -6   3  644.74   47.30
   5  -6   3  631.94   55.09
  -5  -6  -3  588.94   45.20
  -5  -6  -3  599.64   49.10
   5   6   3  656.63   47.50
  -5   6  -3  618.34   45.30
   5   6   3  771.62   51.89
  -5   6  -3  664.43   49.80
   5   6   3  694.93   49.30
   5   6   3  596.04   47.90
  -5   6  -3  628.94   45.40
  -6  -6  -3   24.30    9.90
  -6  -6  -3   28.50    9.30
   6  -6   3   26.30   16.60
   6  -6   3   47.90   17.40
  -6   6  -3   16.70    9.50
  -6   6  -3   33.30   12.20
  -6   6  -3   35.90   13.00
   6   6   3   33.60   13.40
   6   6   3   39.50   13.00
   6   6   3    8.00    8.70
   7  -7  -3   25.80   16.70
  -7  -7   3   14.50   10.10
   7  -7  -3   21.80   15.90
  -7   7   3   30.10   13.70
   7   7  -3   26.00   12.60
  -7   7   3    7.20   11.60
  -7   7   3   33.50   13.20
  -7   7   3   16.30    9.40
   7   7  -3   38.70   12.50
   7   7  -3   42.50   14.40
   7   7  -3   12.50   10.20
  -6  -7   3  240.08   30.10
   6  -7  -3  157.48   29.50
  -6  -7   3  223.58   27.00
   6  -7  -3  247.78   32.10
  -6  -7   3  210.18   19.70
   6   7  -3  192.58   24.40
  -6   7   3  220.28   30.70
   6   7  -3  187.78   24.20
  -6   7   3  190.48   23.80
   6   7  -3  210.68   27.60
  -6   7   3  216.58   24.30
  -6   7   3  195.88   23.30
   6   7  -3  211.98   26.40
  -5  -7   3  876.51   61.79
   5  -7  -3  843.82   64.29
  -5  -7   3  868.91   59.99
   5  -7  -3  782.12   64.89
  -5  -7   3  816.82   51.89
   5   7  -3  862.61   56.79
   5   7  -3  804.82   57.29
   5   7  -3  794.42   55.79
   5   7  -3  863.21   60.89
  -5   7   3  841.22   63.39
  -5   7   3  817.82   54.99
  -5   7   3  876.41   55.69
  -5   7   3  821.22   56.59
   5   7  -3  859.51   57.09
  -4  -7   3  269.17   24.50
  -4  -7   3  249.48   24.80
   4  -7  -3  260.47   31.90
  -4  -7   3  238.58   27.70
   4  -7  -3  262.07   31.70
  -4  -7   3  245.68   17.90
  -4   7   3  209.18   28.10
   4   7  -3  240.98   23.50
   4   7  -3  248.98   28.10
  -4   7   3  265.57   21.60
   4   7  -3  259.97   21.90
   4   7  -3  267.77   22.70
  -4   7   3  241.08   20.90
  -4   7   3  244.68   22.60
   4   7  -3  265.27   22.50
   3  -7  -3   72.29   17.00
  -3  -7   3   84.39   15.00
  -3  -7   3   66.79   10.90
  -3  -7   3   57.89    7.40
  -3  -7   3   67.09   14.40
   3  -7  -3   65.49   15.30
   3   7  -3   89.79   15.80
  -3   7   3   68.69    9.90
   3   7  -3   71.59   11.20
   3   7  -3   61.69   10.90
  -3   7   3   72.39   10.40
  -3   7   3   57.29    9.00
   3   7  -3   63.79   11.30
  -3   7   3   59.99    9.50
   3   7  -3   68.79   10.20
   3   7  -3   56.99   10.00
   3   7  -3   72.39   10.80
  -3   7   3   68.79   15.20
  -3   7   3   72.29   10.50
  -2  -7   3  239.78   26.80
  -2  -7   3  357.76   28.10
  -2  -7   3  270.67   21.50
   2  -7  -3  272.27   30.60
  -2  -7   3  288.47   21.00
   2   7  -3  274.17   20.80
   2   7  -3  269.27   20.40
   2   7  -3  264.77   21.00
   2   7  -3  285.47   21.80
  -2   7   3  276.17   20.40
  -2   7   3  264.37   26.20
  -2   7   3  290.97   21.00
   2   7  -3  265.27   16.30
  -2   7   3  244.78   19.50
   2   7  -3  282.87   16.40
   2   7  -3  290.37   27.10
  -2   7   3  300.37   21.40
   2   7  -3  303.87   22.30
  -2   7   3  334.27   22.00
   2   7  -3  306.57   22.30
  -1  -7   3  103.29   14.40
  -1  -7   3   83.19   14.50
  -1  -7   3  102.09   10.00
   1  -7  -3  111.09   18.40
  -1  -7   3  108.69   16.30
   1   7  -3  108.69   10.00
   1   7  -3  118.49    9.90
   1   7  -3  113.39   11.80
   1   7  -3  126.99   11.20
  -1   7   3  126.79   10.90
  -1   7   3  140.79   19.40
  -1   7   3  126.79   16.30
  -1   7   3  105.39   12.10
  -1   7   3  108.79   12.30
   1   7  -3  121.59   10.30
   1   7  -3  111.89   11.70
  -1   7   3  118.59   11.20
   1   7  -3  101.79   16.40
  -1   7   3  108.69   15.90
  -1   7   3  120.49    9.20
   1   7  -3  116.19   11.00
   1   7  -3  110.29   13.70
   0  -7   3  777.42   42.80
   0  -7   3  742.33   50.89
   0  -7   3  713.53   49.20
   0  -7   3  792.02   51.69
   0  -7  -3  727.03   46.70
   0  -7  -3  771.92   53.89
   0  -7  -3  780.92   46.20
   0  -7  -3  733.83   46.40
   0  -7   3  691.93   51.89
   0   7   3  732.33   41.00
   0   7  -3  755.42   45.50
   0   7   3  752.92   46.00
   0   7   3  825.72   51.99
   0   7  -3  735.33   42.90
   0   7  -3  756.02   44.10
   0   7  -3  773.62   43.20
   0   7   3  734.53   47.00
   0   7   3  721.23   46.70
   0   7  -3  708.53   51.09
   0   7   3  743.53   51.29
   0   7  -3  685.23   49.99
   0   7  -3  729.83   44.10
   0   7   3  784.92   41.10
   0   7   3  805.92   46.30
  -1  -7  -3  295.77   23.90
   1  -7   3  362.56   30.70
   1  -7   3  327.67   19.80
   1  -7   3  333.67   28.30
  -1  -7  -3  328.87   25.10
  -1  -7  -3  326.97   25.60
   1  -7   3  321.07   29.40
  -1   7  -3  356.06   21.90
  -1   7  -3  331.57   20.80
   1   7   3  285.57   27.60
  -1   7  -3  296.37   23.00
   1   7   3  363.06   26.60
   1   7   3  289.67   23.70
   1   7   3  317.47   27.90
   1   7   3  333.77   25.50
  -1   7  -3  338.97   27.70
   1   7   3  335.77   19.20
  -1   7  -3  329.67   20.50
   1   7   3  347.57   20.50
  -1   7  -3  355.76   21.70
   2  -7   3   27.50   10.60
  -2  -7  -3   30.30    5.90
   2  -7   3   29.30   11.10
   2  -7   3   35.70    5.10
   2  -7   3   49.10   10.50
  -2  -7  -3   25.30    4.80
  -2  -7  -3   27.10    8.50
   2  -7   3   20.80   11.30
  -2  -7  -3   50.09   10.30
   2   7   3   28.60    9.40
  -2   7  -3   19.60    8.00
  -2   7  -3   40.30    9.20
  -2   7  -3   29.90    5.90
   2   7   3   28.20    4.90
   2   7   3   29.70    9.10
   2   7   3   25.90    6.80
   2   7   3   25.90    9.50
  -2   7  -3   26.30    5.50
   2   7   3   27.10    8.00
  -2   7  -3   41.60    6.00
  -2   7  -3   29.60    5.60
   3  -7   3  284.47   31.70
  -3  -7  -3  194.38   22.20
   3  -7   3  228.78   22.00
   3  -7   3  217.68   28.00
  -3  -7  -3  217.88   24.30
  -3  -7  -3  226.98   18.50
   3   7   3  196.68   22.60
   3   7   3  234.68   20.70
   3   7   3  209.78   24.70
  -3   7  -3  213.78   18.50
  -3   7  -3  202.48   18.30
   3   7   3  232.18   25.40
  -3   7  -3  221.28   19.60
  -3   7  -3  223.98   25.90
  -4  -7  -3   10.30    7.10
  -4  -7  -3    6.00    8.90
  -4  -7  -3   13.00    6.00
   4  -7   3   10.10    8.20
  -4  -7  -3    2.00    6.90
   4  -7   3   10.80   12.10
   4  -7   3   16.40    9.60
   4   7   3    2.50    7.90
  -4   7  -3   -2.60    4.80
   4   7   3   -5.30    6.20
   4   7   3   10.80    8.50
   4   7   3   11.10    9.50
   4   7   3    0.40    7.60
  -4   7  -3    3.70    5.40
  -4   7  -3    0.80    8.70
   5  -7   3   25.70   15.00
  -5  -7  -3    5.80    6.90
   5  -7   3   16.80   14.00
  -5  -7  -3   19.90   11.90
   5   7   3   16.40    7.90
   5   7   3    6.50    8.70
  -5   7  -3   17.80    9.20
  -5   7  -3   22.30    8.70
  -5   7  -3   26.20   13.40
   5   7   3   25.10    9.90
   5   7   3   10.10   11.90
   6  -7   3  178.08   32.70
  -6  -7  -3  150.58   25.80
   6  -7   3  174.38   29.60
  -6   7  -3  194.98   24.00
   6   7   3  168.98   26.70
   6   7   3  189.48   25.60
   6   7   3  165.98   22.60
  -6   7  -3  189.88   24.00
  -6   7  -3  238.08   29.40
  -6  -8   3  155.38   23.60
   6  -8  -3  156.98   27.40
  -6  -8   3  245.18   30.20
   6  -8  -3  166.58   29.80
   6   8  -3  173.08   24.10
   6   8  -3  226.18   25.80
   6   8  -3  176.98   26.60
   6   8  -3  162.68   22.50
  -6   8   3  208.18   24.00
  -6   8   3  190.58   24.60
  -6   8   3  217.08   31.30
  -6   8   3  156.68   20.50
   6   8  -3  186.28   23.50
  -5  -8   3  351.96   37.90
   5  -8  -3  432.46   42.80
  -5  -8   3  327.27   31.20
   5  -8  -3  306.67   38.00
  -5   8   3  363.76   29.20
   5   8  -3  321.67   35.70
  -5   8   3  307.77   30.00
   5   8  -3  346.37   30.80
   5   8  -3  367.46   30.70
   5   8  -3  385.36   30.60
   5   8  -3  366.76   32.00
  -5   8   3  330.17   28.00
  -5   8   3  397.56   42.10
  -4  -8   3   51.19   12.80
   4  -8  -3   54.19   17.50
  -4  -8   3   76.29   15.20
   4  -8  -3   45.00   14.20
  -4   8   3   56.19   14.80
   4   8  -3   43.10   10.20
   4   8  -3   62.69   12.20
   4   8  -3   62.89   11.20
   4   8  -3   70.49   16.30
  -4   8   3   28.30    9.20
  -4   8   3   58.09   10.20
  -4   8   3   80.39   11.60
   4   8  -3   39.00   10.00
  -3  -8   3   81.89   15.50
   3  -8  -3   66.39   17.50
  -3  -8   3  103.29   17.30
   3  -8  -3   93.39   18.00
  -3   8   3   57.29   10.30
  -3   8   3   69.19   10.30
   3   8  -3   96.89   12.50
   3   8  -3   88.59   17.30
  -3   8   3   86.39   11.20
   3   8  -3   81.39   12.50
  -3   8   3  107.99   19.50
   3   8  -3   76.39   12.30
   3   8  -3   89.59   12.60
  -2  -8   3    6.70    3.90
   2  -8  -3   -6.30    8.80
   2  -8  -3   -2.20    2.70
  -2  -8   3   -0.70    6.60
  -2  -8   3    2.60    5.70
  -2  -8   3    1.50    4.60
   2   8  -3    1.70    6.50
   2   8  -3    1.60    4.90
  -2   8   3    6.10    9.00
  -2   8   3    3.50    3.90
  -2   8   3   11.00    4.60
   2   8  -3    8.80    2.60
   2   8  -3   13.40    5.40
   2   8  -3    8.60    4.30
   2   8  -3    5.90    3.70
  -2   8   3    7.40    5.20
  -2   8   3   -1.90    3.20
   2   8  -3   -3.20    5.80
  -2   8   3   14.20    5.10
   2   8  -3    7.30    2.60
   2   8  -3   -1.80    4.90
   1  -8  -3  125.99   12.30
  -1  -8   3  112.29   17.40
   1  -8  -3  133.89   20.70
  -1  -8   3  146.89   20.70
  -1  -8   3  120.19   10.10
  -1  -8   3  118.89   16.30
  -1   8   3  132.69   13.20
   1   8  -3  154.28   20.20
   1   8  -3  107.79   11.60
  -1   8   3  117.29   12.30
  -1   8   3  111.99   16.80
  -1   8   3  144.79   12.90
   1   8  -3  129.89   11.20
   1   8  -3  120.39   11.60
   1   8  -3  123.99   10.50
   1   8  -3  135.89   14.00
  -1   8   3  125.39   13.20
   1   8  -3  116.49   10.60
  -1   8   3  126.49   10.30
   1   8  -3  119.79   13.30
  -1   8   3  131.99   19.40
   0  -8   3  117.59   17.60
   0  -8   3  128.09   19.00
   0  -8  -3  150.88   15.20
   0  -8   3  139.09   19.40
   0   8   3  145.19   14.80
   0   8  -3  140.59   11.10
   0   8   3  133.79   15.10
   0   8   3  131.29   13.70
   0   8   3  148.69    9.50
   0   8   3  144.89   14.00
   0   8  -3  123.99    9.90
   0   8   3  140.09   18.70
   0   8  -3  137.39   18.40
   0   8  -3  142.79   10.40
   0   8   3  137.49    9.40
   0   8  -3  134.19   14.10
   0   8  -3  132.69   10.80
   0   8   3  126.69   18.30
   1  -8   3  133.59   19.60
   1  -8   3  119.09   18.50
  -1  -8  -3  140.59   15.90
  -1  -8  -3  131.19   15.30
   1  -8   3  149.39   21.10
  -1   8  -3  139.79   15.10
   1   8   3  112.99   14.60
  -1   8  -3  159.48   10.50
   1   8   3  146.99   16.50
   1   8   3  108.89   17.60
  -1   8  -3  150.08   18.90
  -1   8  -3  139.09    9.90
  -1   8  -3  134.79   10.30
  -1   8  -3  126.59   10.50
   1   8   3  128.99   14.80
   1   8   3  136.59   18.40
   1   8   3  131.79    9.30
   1   8   3  140.89   11.10
  -1   8  -3  132.89   10.40
  -1   8  -3  144.19   19.50
   1   8   3  132.89    9.40
   2  -8   3  586.34   45.50
  -2  -8  -3  520.95   39.30
   2  -8   3  645.84   47.10
   2  -8   3  515.15   40.20
   2  -8   3  565.04   45.60
  -2  -8  -3  559.54   39.60
  -2   8  -3  565.44   34.10
   2   8   3  577.34   39.90
   2   8   3  583.14   38.80
  -2   8  -3  565.74   39.90
  -2   8  -3  548.95   42.60
   2   8   3  517.65   42.00
  -2   8  -3  553.24   34.10
  -2   8  -3  528.55   34.10
   2   8   3  565.74   42.10
  -3  -8  -3   10.60    7.80
   3  -8   3   10.90   11.60
   3  -8   3    8.70    9.90
  -3  -8  -3   14.00    5.30
   3  -8   3    4.50    7.10
   3   8   3   15.90    7.70
  -3   8  -3    9.80    4.60
   3   8   3   11.40    7.80
   3   8   3    4.90    8.70
   3   8   3    9.60    5.90
  -3   8  -3   13.60    4.90
  -3   8  -3   11.60    6.00
  -3   8  -3   18.70    9.00
   4  -8   3  117.39   22.10
   4  -8   3   81.99   15.70
   4  -8   3   92.49   19.80
  -4  -8  -3   67.49   15.00
  -4   8  -3   86.49   12.00
  -4   8  -3  100.59   18.00
   4   8   3  103.39   17.50
   4   8   3   77.29   15.60
   4   8   3   78.49   14.70
   4   8   3   95.29   18.30
   5  -8   3  294.27   37.50
   5  -8   3  270.17   38.30
  -5  -8  -3  314.47   33.80
  -5   8  -3  230.68   30.10
   5   8   3  261.07   32.40
   5   8   3  280.87   29.80
   5   8   3  317.97   30.50
   5   8   3  324.37   33.80
  -5   8  -3  280.47   25.00
   6  -9  -3   75.79   19.90
  -6  -9   3   85.29   19.30
   6  -9  -3   81.69   23.20
   6   9  -3   67.99   14.20
   6   9  -3   36.40   11.90
   6   9  -3   70.59   14.60
  -6   9   3   69.69   19.50
   6   9  -3   69.09   16.70
   6   9  -3   56.69   14.50
  -6   9   3   57.89   12.10
  -6   9   3  103.99   16.70
  -5  -9   3   52.69   14.40
   5  -9  -3   31.30   16.50
   5  -9  -3   43.10   16.30
  -5  -9   3   45.70   15.30
   5   9  -3   57.79   13.10
  -5   9   3   43.60   10.30
   5   9  -3   59.29   12.20
   5   9  -3   72.39   14.30
  -5   9   3   61.19   17.80
   5   9  -3   67.89   14.00
   5   9  -3   42.10   13.30
  -5   9   3   52.89   11.50
  -4  -9   3   51.19   14.80
  -4  -9   3   49.10   13.60
   4  -9  -3   20.90   13.20
   4  -9  -3   68.69   17.50
   4   9  -3   71.19   12.20
   4   9  -3   49.70   11.30
   4   9  -3   34.80   10.20
  -4   9   3   50.69   11.30
  -4   9   3   45.90    9.70
   4   9  -3   44.70   11.50
   4   9  -3   32.00   14.00
  -4   9   3   52.19   10.20
  -4   9   3   42.70   13.20
  -3  -9   3   64.99   16.00
  -3  -9   3   93.99   17.10
   3  -9  -3   91.39   18.70
  -3   9   3   79.79   11.20
   3   9  -3   60.99   15.80
   3   9  -3   90.29   13.00
  -3   9   3   94.19   12.60
   3   9  -3   94.19   12.80
   3   9  -3   76.19   12.30
   3   9  -3  107.49   13.40
  -3   9   3   64.19    9.80
  -3   9   3   74.29   17.60
  -2  -9   3  117.89   18.50
  -2  -9   3  158.48   21.50
   2  -9  -3   87.29   20.10
  -2  -9   3  114.09   14.40
  -2   9   3  107.19   18.20
  -2   9   3  102.49   11.50
   2   9  -3   98.69   12.70
   2   9  -3  107.09   12.30
   2   9  -3   99.49   18.70
   2   9  -3  117.09   12.50
  -2   9   3  130.59   21.30
   2   9  -3   92.49   13.10
  -2   9   3   93.69   11.60
  -2   9   3  114.39   12.10
  -1  -9   3  285.57   28.00
  -1  -9   3  272.47   28.50
  -1  -9   3  242.28   23.80
   1  -9  -3  258.07   32.40
   1   9  -3  250.87   18.10
  -1   9   3  248.18   19.60
   1   9  -3  283.17   21.30
   1   9  -3  235.08   18.00
  -1   9   3  218.28   25.90
   1   9  -3  253.37   18.20
   1   9  -3  219.08   26.50
   1   9  -3  240.88   20.50
  -1   9   3  256.67   17.70
  -1   9   3  245.18   19.40
  -1   9   3  232.88   28.40
   1   9  -3  273.57   18.10
   0  -9   3  446.86   38.00
   0  -9   3  344.27   32.90
   0  -9   3  365.66   33.20
   0  -9  -3  393.06   29.70
   0   9  -3  438.56   25.30
   0   9   3  407.06   24.90
   0   9  -3  352.76   30.70
   0   9   3  461.55   29.70
   0   9   3  430.16   28.80
   0   9   3  389.36   35.20
   0   9  -3  444.26   36.10
   0   9  -3  428.06   25.30
   0   9   3  441.46   34.90
   0   9  -3  425.16   29.60
   1  -9   3   15.60   10.10
   1  -9   3   20.80   11.30
  -1  -9  -3   25.90    7.10
   1  -9   3   15.40   10.70
   1   9   3   17.00    6.60
  -1   9  -3   19.10    9.70
   1   9   3   15.50    9.80
  -1   9  -3   19.40    2.80
   1   9   3   13.70    5.70
  -1   9  -3   32.10    8.00
   1   9   3   12.20    7.90
  -1   9  -3   39.00   11.10
  -1   9  -3   15.90    2.50
   2  -9   3   53.99   15.10
   2  -9   3   43.60   14.90
   2  -9   3   44.30   13.70
  -2  -9  -3   68.89   12.80
  -2   9  -3   53.29   14.00
   2   9   3   70.59   12.00
   2   9   3   30.10   10.30
   2   9   3   43.30   12.90
  -2   9  -3   56.19   11.40
   2   9   3   54.39   10.30
  -2   9  -3   43.60    5.60
   3  -9   3  210.88   30.00
   3  -9   3  146.99   20.70
   3  -9   3  180.48   28.30
  -3  -9  -3  154.98   21.30
  -3   9  -3  162.08   23.50
   3   9   3  173.08   21.40
   3   9   3  156.68   21.90
   3   9   3  197.58   21.60
  -3   9  -3  151.68   18.50
  -3   9  -3  199.88   14.80
   3   9   3  187.38   24.50
   4  -9   3  187.98   31.20
   4  -9   3  193.48   37.50
  -4  -9  -3  260.97   28.70
   4  -9   3  283.47   35.90
   4   9   3  243.38   27.50
  -4   9  -3  214.18   27.80
   4   9   3  261.17   29.70
   4   9   3  260.77   27.40
   4   9   3  282.07   27.50
  -4   9  -3  232.58   19.90
   5  -9   3   16.70   14.80
  -5  -9  -3   13.90   11.00
   5  -9   3    0.60   11.90
  -5   9  -3   17.50    9.80
   5   9   3   21.70   11.10
   5   9   3    3.00    9.30
   5   9   3   17.90    9.70
   5   9   3   11.40   10.20
  -5   9  -3   22.50    7.20
  -5 -10   3    3.10    8.10
  -5 -10   3    8.10   16.90
   5 -10  -3   22.20   15.70
   5 -10  -3   14.30   14.90
   5  10  -3    6.30    6.60
   5  10  -3    3.70    9.40
   5  10  -3   -6.70    6.90
  -5  10   3    8.40   12.30
  -5  10   3    7.50    6.10
   5  10  -3    8.60    8.20
   5  10  -3   11.90    8.40
  -5  10   3    8.20    9.10
  -4 -10   3   26.30   11.50
   4 -10  -3    2.60   11.30
   4 -10  -3    7.40   13.00
  -4 -10   3   12.80   12.20
   4  10  -3   13.60    7.90
  -4  10   3    4.70    4.80
   4  10  -3   14.80    7.50
   4  10  -3   18.50   12.00
  -4  10   3   32.40   12.60
   4  10  -3    9.30    8.90
   4  10  -3   15.10    7.10
  -4  10   3   11.10    7.50
   3 -10  -3  303.87   36.70
  -3 -10   3  300.37   32.70
  -3 -10   3  326.27   34.80
   3  10  -3  259.27   26.50
   3  10  -3  226.28   31.40
   3  10  -3  289.47   23.80
   3  10  -3  288.67   24.30
  -3  10   3  221.28   31.50
   3  10  -3  290.97   24.30
  -3  10   3  313.37   21.90
  -3  10   3  317.37   24.20
  -2 -10   3  130.79   20.80
   2 -10  -3  146.19   24.50
  -2 -10   3   91.39   16.70
   2  10  -3  130.79   20.60
   2  10  -3  134.49   16.20
  -2  10   3   97.59   13.90
  -2  10   3  132.69   19.40
   2  10  -3  117.59   13.40
  -2  10   3  104.49   11.70
   2  10  -3  124.09   13.60
   2  10  -3  134.99   13.80
  -2  10   3   95.19   19.60
  -1 -10   3  564.44   42.00
  -1 -10   3  592.04   44.80
  -1 -10   3  544.75   45.00
   1 -10  -3  580.04   48.80
  -1  10   3  486.45   35.10
  -1  10   3  541.85   35.80
   1  10  -3  534.15   44.00
   1  10  -3  618.94   38.90
  -1  10   3  562.74   43.70
  -1  10   3  579.84   45.40
   0 -10   3  166.58   23.90
   0 -10   3  220.38   27.20
   0 -10  -3  206.08   20.60
   0 -10   3  262.67   28.00
   0  10   3  190.08   17.60
   0  10   3  247.98   27.90
   0  10   3  189.28   24.80
   0  10  -3  173.18   20.70
   0  10  -3  175.08   19.40
   0  10  -3  188.78   24.50
   0  10   3  200.18   17.30
  -1 -10  -3  268.97   23.40
   1 -10   3  218.78   28.60
   1 -10   3  239.48   30.60
   1 -10   3  264.77   31.60
  -1  10  -3  218.58   27.00
   1  10   3  260.67   21.00
   1  10   3  205.48   26.30
  -1  10  -3  250.17   21.60
   1  10   3  226.98   27.70
  -1  10  -3  201.08   25.50
   1  10   3  278.47   21.90
   2 -10   3  109.49   21.00
   2 -10   3  114.49   21.70
  -2 -10  -3  122.19   17.90
   2 -10   3  134.49   22.50
   2  10   3   99.39   18.60
  -2  10  -3  124.79   19.70
  -2  10  -3  131.79   16.40
   2  10   3  107.79   18.10
   2  10   3  128.79   16.30
  -2  10  -3  132.19   18.50
   2  10   3  115.29   16.20
   3 -10   3   11.20    9.00
  -3 -10  -3    5.80    9.00
   3 -10   3    7.40    9.30
   3 -10   3    5.70    8.80
  -3  10  -3    8.10    7.30
  -3  10  -3    5.70    3.10
   3  10   3   12.50    9.30
   3  10   3   11.80    7.40
   3  10   3   -2.20    6.90
   3  10   3   18.80   12.10
  -3  10  -3    0.90    6.80
   4 -10   3   26.30   12.20
  -4 -10  -3   40.70   13.50
   4 -10   3   48.20   15.50
   4  10   3   41.50   14.70
   4  10   3   28.60   10.30
   4  10   3   22.60   10.00
   4  10   3   41.80   12.00
  -4  10  -3   32.80   12.00
  -4  10  -3   45.80    7.60
  -4 -11   3    6.30    7.40
  -4 -11   3   10.00   10.90
   4 -11  -3   -8.30   11.40
  -4  11   3    4.80    3.80
  -4  11   3   12.20   11.30
   4  11  -3   12.30    7.60
   4  11  -3   10.20    7.90
   4  11  -3    8.00    7.00
   4  11  -3    1.80    7.40
   4  11  -3   15.10   11.80
   3 -11  -3   27.80   15.90
  -3 -11   3   24.30   11.30
  -3 -11   3   13.40    8.50
   3  11  -3   17.20    8.90
   3  11  -3    8.90    6.20
   3  11  -3    3.10   11.20
  -3  11   3   23.10   10.30
  -3  11   3   27.50   14.40
  -3  11   3   16.70    5.00
  -2 -11   3   -1.00    8.20
  -2 -11   3    4.10    9.70
   2 -11  -3   -1.90   11.90
  -2  11   3   11.40   10.00
  -2  11   3    4.30    4.00
   2  11  -3    3.60    7.30
   2  11  -3    3.40    3.80
  -2  11   3   -0.30    9.10
   2  11  -3    5.80    6.60
  -1 -11   3  149.59   23.60
  -1 -11   3   99.59   17.70
  -1 -11   3  116.29   19.50
   1  11  -3  127.99   16.30
  -1  11   3  132.29   12.70
   1  11  -3  151.98   22.40
  -1  11   3  183.88   24.60
  -1  11   3   99.49   20.40
   1  11  -3  143.89   10.70
   0 -11   3  267.87   30.30
   0 -11   3  225.38   29.50
   0 -11   3  257.57   29.10
   0  11  -3  223.08   20.60
   0  11   3  204.28   26.80
   0  11   3  245.88   19.50
   0  11  -3  268.07   30.50
   0  11   3  207.78   27.50
  -1 -11  -3   12.70    7.80
   1 -11   3   17.40   12.30
   1 -11   3   23.50    9.80
  -1  11  -3   20.90   10.10
  -1  11  -3   21.60    9.00
   1  11   3    7.40    7.80
   1  11   3    5.30    7.50
  -1  11  -3   10.20    8.00
   1  11   3   11.10    6.10
   1  11   3   19.30    7.20
  -1  11  -3   10.50    6.50
  -2 -11  -3   83.89   14.70
   2 -11   3   75.59   18.30
   2 -11   3  111.49   22.60
   2  11   3   81.39   18.30
  -2  11  -3   68.69   17.20
   2  11   3  124.69   16.20
  -2  11  -3   75.69   13.70
  -2  11  -3  112.09   17.80
   2  11   3   91.49   14.40
   2  11   3   76.49   16.90
   3 -11   3  124.19   26.10
   3 -11   3  198.48   31.40
  -3 -11  -3  160.08   22.70
   3  11   3  216.08   27.40
   3  11   3  127.99   19.40
   3  11   3  161.78   20.70
   3  11   3  176.98   23.30
  -3  11  -3  223.78   28.50
  -3 -12   3   37.60   15.30
   3 -12  -3    7.10   10.70
  -3 -12   3   12.70   11.50
  -3  12   3   20.20   10.80
   3  12  -3   12.40    5.90
  -3  12   3   23.20   13.40
   3  12  -3   20.40    9.50
   3  12  -3   18.80   11.40
  -2 -12   3   74.69   16.70
  -2 -12   3   79.99   17.30
   2 -12  -3   86.39   20.10
   2  12  -3   64.29   18.90
  -2  12   3  134.79   20.40
  -2  12   3   68.09    8.00
  -2  12   3   77.79   18.90
   2  12  -3   66.59    9.10
   2  12  -3   97.49   17.60
  -1 -12   3    6.70   11.60
  -1 -12   3   21.60   12.80
   1  12  -3   16.90   12.90
  -1  12   3   20.70    5.10
  -1  12   3   26.40   12.70
  -1  12   3   11.00   10.50
   0 -12   3  267.17   30.00
   0 -12   3  235.98   31.80
   0 -12   3  228.38   30.10
   0  12  -3  193.38   27.10
   0  12   3  230.18   29.10
   0  12   3  223.08   28.50
   1 -12   3   49.20   15.50
   1 -12   3   56.69   18.50
   1  12   3   60.39   16.80
   1  12   3   79.29   11.90
   1  12   3   48.80   15.00
  -1  12  -3   79.89   16.40
  -1  12  -3   70.49   15.40
  -1  12  -3   82.59   17.50
   2 -12   3   98.69   22.10
   2 -12   3  126.69   23.20
   2  12   3  109.79   21.10
   2  12   3   91.19   15.10
  -2  12  -3  146.09   22.70
  -2  12  -3  114.79   21.60
  -2  12  -3   83.49   16.90
   2  12   3  163.98   23.40
  -1 -13   3   81.69   20.20
  -1 -13   3  127.49   23.60
  -1  13   3   88.59   18.10
   1  13  -3  101.09   21.60
  -1  13   3  105.09   22.00
   0 -13   3   89.09   18.10
   0 -13   3   54.39   14.90
   0  13  -3   48.20   16.50
   0  13   3   94.49   20.40
   0  13   3   81.69   19.80
   0  13  -3   74.59   16.70
   0  13   3   77.49    9.60
  -8   0   4  105.19   20.00
   8   0  -4   77.49   20.80
  -8   0   4   82.89   18.00
   8   0  -4  105.99   21.10
   8   0  -4   49.30   12.90
   8   0  -4  115.49   21.40
  -8   0   4  100.29   19.40
   7   0  -4   65.19   16.30
   7   0  -4   56.69   13.20
  -7   0   4   81.49   15.80
  -7   0   4   58.49   14.10
   7   0  -4   47.10   15.60
  -7   0   4   63.59   13.20
  -7   0   4   54.19   15.30
   6   0  -4  285.67   25.40
  -6   0   4  322.87   29.90
   6   0  -4  276.57   22.90
   6   0  -4  310.37   28.90
   6   0  -4  266.77   29.90
  -6   0   4  272.17   28.30
  -6   0   4  269.27   30.50
  -6   0   4  277.57   25.80
  -5   0   4  855.91   59.59
   5   0  -4  941.11   58.39
  -5   0   4  935.61   60.99
  -5   0   4  875.01   58.39
   5   0  -4  954.50   55.99
  -5   0   4  813.22   56.89
   5   0  -4  905.11   59.09
   5   0  -4  947.71   60.69
  -5   0   4  833.02   57.69
  -4   0   4  312.87   22.50
  -4   0   4  254.77   22.80
  -4   0   4  294.37   24.00
  -4   0   4  262.17   21.60
  -4   0   4  254.27   23.00
  -4   0   4  278.87   24.70
   4   0  -4  265.17   22.80
   4   0  -4  311.77   23.30
  -4   0   4  252.27   21.90
   4   0  -4  251.87   21.40
   4   0  -4  274.27   24.10
   3   0  -4  147.89   15.90
  -3   0   4  150.78   17.00
   3   0  -4  158.88   15.10
  -3   0   4  131.89   12.40
  -3   0   4  160.38   16.20
   3   0  -4  143.79   16.70
   3   0  -4  120.79   12.50
  -3   0   4  130.79   12.60
  -3   0   4  133.39   13.10
  -3   0   4  137.79   14.90
  -3   0   4  132.99   15.40
  -3   0   4  173.78   14.70
   2   0  -4  124.89   14.40
   2   0  -4  161.78   14.00
  -2   0   4  107.39   14.20
  -2   0   4  139.09   13.20
  -2   0   4  127.19   14.80
   2   0  -4  122.99   14.80
  -2   0   4  125.79   11.40
  -2   0   4  159.28   16.10
   2   0  -4  125.49   13.60
   2   0  -4  128.49   15.00
  -2   0   4  142.19   11.70
  -2   0   4  138.69   14.30
   2   0  -4  124.99   13.00
   2   0  -4  141.69   13.50
  -1   0   4 1578.94   83.89
   1   0  -4 1401.16   83.49
   1   0  -4 1291.87   83.49
   1   0  -4 1543.65   80.99
  -1   0   4 1464.95   83.99
   1   0  -4 1424.36   83.79
   1   0  -4 1384.96   82.69
  -1   0   4 1313.47   82.09
   1   0  -4 1584.94   83.19
   1   0  -4 1349.86   82.99
  -1   0   4 1397.26   82.39
   1   0  -4 1420.46   81.79
  -1   0   4 1374.36   80.49
  -1   0   4 1372.16   83.99
  -1   0   4 1659.33   84.79
   0   0   4 1962.00  115.19
   0   0  -4 2004.40  114.79
   0   0  -4 1993.90  115.39
   0   0   4 2238.18  115.59
   0   0   4 1981.60  113.59
   0   0   4 2262.47  115.59
   0   0  -4 1935.81  115.19
   0   0  -4 1980.60  115.09
   0   0  -4 1936.41  113.89
   0   0  -4 1973.30  110.99
   0   0   4 1958.40  113.29
   0   0  -4 1957.60  112.29
   0   0  -4 2033.30  113.69
   0   0   4 1954.80  111.09
   0   0   4 1857.01  114.39
   0   0   4 2284.67  116.29
   1   0   4  336.57   26.30
  -1   0  -4  406.66   26.40
   1   0   4  364.46   25.50
  -1   0  -4  354.76   27.30
   1   0   4  430.16   28.40
   1   0   4  389.16   24.10
   1   0   4  365.36   21.80
  -1   0  -4  381.16   25.80
   1   0   4  349.67   25.90
  -1   0  -4  332.87   27.30
  -1   0  -4  354.26   23.80
  -1   0  -4  350.66   26.40
   1   0   4  358.86   27.50
  -1   0  -4  365.46   26.60
  -2   0  -4   24.30    6.00
  -2   0  -4   27.60    7.00
   2   0   4   36.90    8.80
  -2   0  -4   38.20    9.00
   2   0   4   28.00    7.00
  -2   0  -4   22.50    8.20
  -2   0  -4   28.80    7.90
  -2   0  -4   37.70    8.50
   2   0   4   27.90    6.80
   2   0   4   26.70    8.10
   2   0   4   25.40    6.70
   2   0   4   33.60    8.40
  -2   0  -4   30.20    6.50
   3   0   4  162.78   19.50
   3   0   4  131.69   18.40
  -3   0  -4  150.88   16.00
   3   0   4  195.18   16.40
  -3   0  -4  178.88   18.50
  -3   0  -4  179.28   21.20
   3   0   4  171.78   20.60
  -3   0  -4  162.68   18.10
  -3   0  -4  188.68   20.00
   3   0   4  181.08   18.10
  -3   0  -4  149.09   19.00
   4   0   4  722.33   49.70
  -4   0  -4  675.33   50.49
  -4   0  -4  776.22   52.59
   4   0   4  799.02   51.29
   4   0   4  700.33   52.69
   4   0   4  871.21   54.59
  -4   0  -4  854.71   55.09
  -5   0  -4   54.09   14.60
   5   0   4   33.20   12.20
   5   0   4   33.60   10.10
   5   0   4   25.20   10.90
  -5   0  -4    8.00    9.10
  -5   0  -4   35.30   11.70
   5   0   4   28.10   14.60
   5   0   4   31.30   10.50
  -6   0  -4   17.50    9.00
   6   0   4   31.00   10.00
   6   0   4   12.60    8.80
   6   0   4   -4.90    8.70
  -6   0  -4   14.40    9.20
   6   0   4   25.00   13.00
   6   0   4   22.30    9.60
  -6   0  -4   32.70   12.80
   6   0   4   24.10    9.90
  -8  -1   4   -5.60   10.40
  -8  -1   4    2.90    7.50
  -8  -1   4   -1.90    8.00
   8  -1  -4    8.00    8.00
  -8  -1   4   -4.30   11.20
   8  -1  -4   32.50   15.00
   8  -1  -4    4.80   13.60
  -8   1   4    5.90   10.80
   8   1  -4    5.50    7.50
   8   1  -4    8.50    9.20
  -8   1   4    9.60    8.10
  -8   1   4   -6.10   10.80
   7  -1  -4   78.29   19.80
  -7  -1   4  108.49   19.60
   7  -1  -4   66.79   17.40
  -7  -1   4   89.59   19.10
   7  -1  -4   68.09   14.10
  -7  -1   4  102.09   18.60
  -7  -1   4   86.89   15.80
   7  -1  -4   72.59   17.40
   7   1  -4   61.59   13.60
   7   1  -4   94.19   17.30
  -7   1   4   81.19   16.20
  -7   1   4   78.59   15.80
  -7   1   4   48.20   15.00
  -7   1   4   91.69   16.60
   7   1  -4   57.19   15.90
   6  -1  -4   83.79   16.30
   6  -1  -4   72.89   16.40
  -6  -1   4   62.49   15.80
  -6  -1   4   79.49   15.10
  -6  -1   4   79.19   14.10
   6  -1  -4   88.49   16.60
  -6  -1   4   74.29   14.00
   6  -1  -4   76.59   14.00
  -6  -1   4   83.49   13.00
   6   1  -4   77.19   14.90
  -6   1   4   73.39   14.50
   6   1  -4   53.89   11.40
  -6   1   4   62.69   13.50
  -6   1   4   55.39   12.70
   6   1  -4   85.49   14.90
  -6   1   4   70.79   14.40
   6   1  -4   74.49   14.70
   5  -1  -4  978.30   57.09
  -5  -1   4  924.61   62.29
   5  -1  -4  911.41   61.99
  -5  -1   4  892.21   62.19
   5  -1  -4  934.81   59.89
  -5  -1   4 1021.70   61.49
  -5  -1   4 1055.69   61.89
   5  -1  -4  964.10   62.39
  -5  -1   4  965.00   58.69
   5  -1  -4  916.61   64.69
   5   1  -4  845.02   58.09
   5   1  -4  963.50   60.79
   5   1  -4  990.20   60.39
  -5   1   4  939.11   61.19
  -5   1   4  842.82   61.19
   5   1  -4  929.51   62.49
  -5   1   4  857.21   60.29
  -5   1   4  904.01   56.99
  -5   1   4  943.71   61.89
  -4  -1   4  547.55   32.80
   4  -1  -4  479.55   34.90
   4  -1  -4  478.75   33.80
   4  -1  -4  455.45   32.00
  -4  -1   4  452.55   35.20
  -4  -1   4  486.55   34.00
   4  -1  -4  475.65   37.30
   4  -1  -4  424.66   34.90
  -4  -1   4  538.45   34.90
  -4  -1   4  439.36   34.80
  -4   1   4  496.55   32.50
  -4   1   4  491.35   34.80
   4   1  -4  443.16   32.20
  -4   1   4  473.65   34.90
   4   1  -4  489.85   34.60
   4   1  -4  529.75   34.50
  -4   1   4  452.55   35.10
  -4   1   4  469.25   36.40
   4   1  -4  420.86   34.60
  -4   1   4  474.95   34.40
   3  -1  -4  885.61   54.49
  -3  -1   4  836.22   52.79
  -3  -1   4  821.12   53.79
   3  -1  -4  834.52   52.09
  -3  -1   4  837.22   50.99
  -3  -1   4  873.11   52.69
   3  -1  -4  902.31   53.19
   3  -1  -4  841.42   52.99
  -3  -1   4  805.22   50.69
   3  -1  -4  806.42   54.99
  -3   1   4  833.92   52.89
  -3   1   4  842.92   52.59
   3   1  -4  897.71   50.19
  -3   1   4  880.11   52.49
   3   1  -4  841.32   53.59
   3   1  -4  790.82   52.39
   3   1  -4  851.41   54.49
  -3   1   4  824.22   54.09
  -3   1   4  811.12   52.79
  -3   1   4  844.82   50.49
  -3   1   4  997.80   55.29
  -3   1   4  837.52   53.39
  -2  -1   4 2378.96  128.19
   2  -1  -4 2273.07  129.59
   2  -1  -4 2576.04  129.49
  -2  -1   4 2289.77  132.29
   2  -1  -4 2108.39  129.39
  -2  -1   4 2253.77  129.79
  -2  -1   4 2304.77  124.59
   2  -1  -4 2181.18  129.89
  -2  -1   4 2478.65  126.29
   2  -1  -4 2235.48  127.59
  -2  -1   4 2558.14  128.99
  -2  -1   4 2345.27  127.19
   2  -1  -4 2188.38  129.09
   2  -1  -4 2213.98  130.19
  -2  -1   4 2506.05  128.99
  -2   1   4 2252.37  128.39
  -2   1   4 2196.68  129.69
   2   1  -4 2133.99  128.39
  -2   1   4 2149.39  128.29
  -2   1   4 2540.25  130.39
   2   1  -4 2388.56  127.59
   2   1  -4 2267.77  127.59
   2   1  -4 2091.19  129.49
  -2   1   4 2255.67  129.19
   2   1  -4 2190.78  129.59
  -2   1   4 2182.98  125.49
  -2   1   4 2216.88  129.59
   2   1  -4 2131.39  129.49
   2   1  -4 2236.58  128.89
  -1  -1   4  340.27   24.90
   1  -1  -4  388.16   25.80
  -1  -1   4  348.17   27.10
  -1  -1   4  382.96   28.30
   1  -1  -4  359.26   25.20
   1  -1  -4  401.76   27.70
   1  -1  -4  384.26   27.40
   1  -1  -4  433.66   26.70
  -1  -1   4  389.86   26.90
   1  -1  -4  400.16   22.30
   1  -1  -4  356.26   23.70
  -1  -1   4  423.56   25.40
   1  -1  -4  345.57   26.20
   1  -1  -4  417.56   27.40
  -1  -1   4  378.46   25.10
  -1  -1   4  371.86   25.20
  -1  -1   4  391.06   26.50
  -1   1   4  331.27   25.00
   1   1  -4  349.87   26.30
  -1   1   4  381.86   26.60
   1   1  -4  349.87   25.10
   1   1  -4  350.36   26.50
   1   1  -4  353.26   24.40
   1   1  -4  330.87   25.00
   1   1  -4  336.87   26.20
   1   1  -4  321.87   25.30
  -1   1   4  364.46   26.80
  -1   1   4  349.87   25.10
  -1   1   4  424.46   27.70
  -1   1   4  346.07   26.70
   0  -1   4  780.12   47.70
   0  -1  -4  786.52   45.90
   0  -1   4  914.81   50.19
   0  -1  -4  753.02   49.50
   0  -1   4  776.62   47.50
   0  -1  -4  779.02   47.10
   0  -1   4  808.12   50.49
   0  -1  -4  760.32   48.50
   0  -1   4  789.62   49.10
   0  -1   4  767.72   49.50
   0  -1  -4  814.12   48.40
   0  -1  -4  763.92   49.70
   0  -1  -4  845.42   49.99
   0  -1   4  795.82   44.40
   0  -1   4  808.62   49.40
   0  -1  -4  798.92   49.99
   0   1   4  818.32   47.00
   0   1  -4  796.92   49.60
   0   1   4  807.22   46.90
   0   1  -4  788.12   49.00
   0   1  -4  811.12   49.80
   0   1   4  764.82   49.50
   0   1  -4  722.63   47.90
   0   1   4  812.42   49.60
   0   1   4  831.62   48.60
   0   1  -4  751.02   49.40
   0   1   4  824.02   48.40
   0   1  -4  836.72   48.20
   0   1  -4  840.82   49.70
   0   1   4  775.82   51.49
   0   1  -4  779.62   44.20
   0   1  -4  787.92   48.00
   0   1   4  751.12   49.99
   0   1   4  741.73   48.10
  -1  -1  -4 1468.45   85.49
   1  -1   4 1353.06   87.09
  -1  -1  -4 1406.96   87.09
   1  -1   4 1722.73   89.59
   1  -1   4 1437.66   83.79
   1  -1   4 1459.75   85.99
  -1  -1  -4 1389.76   88.09
  -1  -1  -4 1504.25   88.39
   1  -1   4 1646.44   91.09
   1  -1   4 1408.16   88.29
  -1  -1  -4 1438.06   85.69
   1  -1   4 1633.44   86.29
  -1  -1  -4 1545.55   85.89
  -1  -1  -4 1409.96   88.39
   1   1   4 1496.65   88.59
  -1   1  -4 1467.35   87.69
   1   1   4 1480.15   89.29
  -1   1  -4 1502.05   86.99
   1   1   4 1538.35   85.79
   1   1   4 1602.94   86.39
   1   1   4 1397.76   86.29
  -1   1  -4 1467.25   87.49
   1   1   4 1498.15   88.69
  -1   1  -4 1642.54   84.29
   1   1   4 1662.13   85.19
  -1   1  -4 1492.15   87.09
  -1   1  -4 1444.66   88.09
  -1   1  -4 1521.55   88.19
  -1   1  -4 1534.85   88.69
  -2  -1  -4  217.08   17.50
   2  -1   4  219.28   21.20
   2  -1   4  251.97   17.60
  -2  -1  -4  218.88   17.10
  -2  -1  -4  222.18   20.20
   2  -1   4  204.48   19.00
   2  -1   4  224.18   17.80
   2  -1   4  228.38   22.10
  -2  -1  -4  244.98   21.70
  -2  -1  -4  221.38   20.00
  -2  -1  -4  203.18   20.10
   2  -1   4  214.98   19.20
  -2   1  -4  217.08   19.10
   2   1   4  206.98   16.90
   2   1   4  235.18   18.40
   2   1   4  216.28   20.60
   2   1   4  214.38   17.80
  -2   1  -4  196.18   18.50
  -2   1  -4  217.18   19.40
   2   1   4  216.98   20.70
   2   1   4  247.48   21.40
  -2   1  -4  233.78   17.20
  -2   1  -4  225.58   18.90
   2   1   4  244.58   17.80
  -2   1  -4  263.97   20.70
  -2   1  -4  190.18   21.10
  -3  -1  -4   84.19   12.40
   3  -1   4   82.19   11.40
   3  -1   4  100.49   16.40
  -3  -1  -4  111.49   12.40
   3  -1   4   82.99   11.50
  -3  -1  -4   76.19   13.60
   3  -1   4   72.89   12.20
  -3  -1  -4  100.19   14.70
  -3  -1  -4   86.49   13.70
   3   1   4  100.99   15.10
   3   1   4  107.29   16.30
  -3   1  -4  128.69   16.80
  -3   1  -4   95.29   14.10
  -3   1  -4   87.49   13.80
  -3   1  -4  104.69   15.40
   3   1   4  100.49   13.10
   3   1   4   98.39   13.50
   3   1   4   84.69   14.60
  -3   1  -4  100.69   13.50
  -4  -1  -4 1097.79   69.69
   4  -1   4 1080.29   73.79
   4  -1   4 1078.19   65.99
   4  -1   4  999.30   70.49
   4  -1   4 1119.79   69.99
  -4  -1  -4 1038.00   70.89
  -4  -1  -4 1062.79   67.79
   4  -1   4 1100.59   67.49
   4   1   4 1022.00   66.89
   4   1   4  959.50   69.09
   4   1   4 1093.79   68.29
  -4   1  -4 1020.70   68.69
  -4   1  -4 1284.77   72.69
  -4   1  -4 1196.58   70.29
   4   1   4 1065.69   69.89
   5  -1   4    6.90    9.90
   5  -1   4   14.00    8.40
  -5  -1  -4    7.70    6.30
  -5  -1  -4   16.60    7.60
   5  -1   4   20.70    8.50
   5  -1   4    7.90    7.70
  -5  -1  -4    0.90    7.20
   5  -1   4    6.30    5.80
   5   1   4    5.60    7.40
   5   1   4    9.30    7.00
   5   1   4   20.40    9.90
   5   1   4   13.90    7.10
  -5   1  -4   -3.10    7.30
  -5   1  -4    3.90    8.00
  -5   1  -4    6.30    9.60
   6  -1   4   27.10   15.30
  -6  -1  -4   10.20    9.80
   6  -1   4    9.80    9.90
  -6  -1  -4    6.80    9.60
   6  -1   4   15.10   10.60
   6  -1   4   13.10    7.80
   6  -1   4   17.10    7.80
  -6  -1  -4    2.20    6.80
  -6   1  -4    5.60   10.90
   6   1   4    4.30    9.30
   6   1   4   12.00   11.20
   6   1   4   13.20    9.00
   6   1   4    9.00   10.20
   6   1   4    6.40   10.10
  -6   1  -4    0.30    6.50
  -6   1  -4   -9.90    8.20
   8  -2  -4   15.70    9.30
   8  -2  -4   12.90   10.20
  -8  -2   4   34.40   14.90
  -8  -2   4   17.70   10.00
  -8  -2   4   27.00   11.10
   8   2  -4   17.40   10.90
  -8   2   4    3.30   11.20
  -8   2   4   24.80   12.50
  -7  -2   4   73.99   16.50
  -7  -2   4   47.90   13.80
   7  -2  -4   71.29   17.70
   7  -2  -4   63.39   16.00
  -7  -2   4   87.99   15.90
   7  -2  -4   83.89   17.70
   7  -2  -4   79.29   13.70
  -7  -2   4   94.39   18.50
   7   2  -4  102.19   16.70
   7   2  -4   93.59   17.20
   7   2  -4   86.19   16.60
  -7   2   4   85.69   17.20
  -7   2   4   88.09   17.20
  -7   2   4   61.89   15.00
  -7   2   4   51.59   14.90
   6  -2  -4  189.58   24.00
  -6  -2   4  230.28   25.40
   6  -2  -4  201.28   21.80
   6  -2  -4  212.58   29.10
  -6  -2   4  251.07   25.60
  -6  -2   4  200.88   25.80
   6  -2  -4  197.38   26.30
  -6  -2   4  181.38   25.50
   6   2  -4  213.18   22.30
  -6   2   4  238.48   26.70
  -6   2   4  213.08   25.40
   6   2  -4  208.58   24.40
   6   2  -4  165.18   21.60
   6   2  -4  193.08   25.80
  -6   2   4  216.28   24.90
  -6   2   4  257.97   27.90
  -5  -2   4  125.79   13.80
   5  -2  -4  119.99   17.80
  -5  -2   4  158.28   20.50
  -5  -2   4  102.99   15.10
   5  -2  -4  102.19   19.10
   5  -2  -4  118.29   13.00
   5  -2  -4  129.89   15.50
  -5  -2   4  120.39   13.20
  -5  -2   4  112.99   16.70
   5  -2  -4   95.09   17.00
  -5  -2   4  137.69   19.00
  -5   2   4  133.79   18.20
  -5   2   4  108.59   16.60
   5   2  -4  142.49   18.10
   5   2  -4  135.19   18.70
   5   2  -4  125.39   16.20
  -5   2   4  143.69   18.80
  -5   2   4  114.39   16.40
   5   2  -4  111.59   15.20
  -5   2   4  114.89   13.10
  -4  -2   4  481.05   36.70
   4  -2  -4  495.55   33.20
   4  -2  -4  541.95   38.50
  -4  -2   4  442.46   36.60
  -4  -2   4  549.05   32.30
  -4  -2   4  482.85   35.70
   4  -2  -4  526.85   36.90
  -4  -2   4  509.65   35.20
   4  -2  -4  534.55   34.90
   4  -2  -4  456.15   38.50
   4   2  -4  510.65   32.80
   4   2  -4  447.86   34.80
  -4   2   4  485.65   35.70
   4   2  -4  453.45   35.40
  -4   2   4  548.05   38.10
   4   2  -4  474.15   36.50
  -4   2   4  515.45   33.50
  -4   2   4  523.45   37.60
  -4   2   4  552.54   36.70
   3  -2  -4  709.23   44.60
   3  -2  -4  679.53   47.80
   3  -2  -4  669.43   44.20
  -3  -2   4  663.33   45.40
  -3  -2   4  773.92   47.50
  -3  -2   4  671.63   44.70
  -3  -2   4  765.72   41.90
  -3  -2   4  689.33   43.00
   3  -2  -4  638.44   46.00
   3  -2  -4  690.73   46.20
   3   2  -4  671.13   40.60
  -3   2   4  836.82   47.80
  -3   2   4  813.02   45.20
   3   2  -4  731.13   45.50
  -3   2   4  726.33   47.30
   3   2  -4  715.23   46.70
  -3   2   4  652.33   44.20
  -3   2   4  700.83   42.30
   3   2  -4  744.23   47.40
  -3   2   4  648.34   45.00
  -3   2   4  703.33   46.20
   3   2  -4  668.83   46.30
  -3   2   4  721.83   46.50
   2  -2  -4  214.38   20.50
  -2  -2   4  210.38   20.80
   2  -2  -4  214.18   17.80
  -2  -2   4  229.38   15.50
  -2  -2   4  242.18   17.70
   2  -2  -4  220.38   20.10
  -2  -2   4  225.88   18.70
  -2  -2   4  224.38   17.00
   2  -2  -4  216.08   16.60
  -2  -2   4  238.08   19.40
   2  -2  -4  221.78   18.60
  -2  -2   4  258.27   15.50
   2  -2  -4  193.68   16.70
   2  -2  -4  219.78   18.70
   2   2  -4  222.18   15.60
  -2   2   4  206.48   17.70
  -2   2   4  200.88   19.40
  -2   2   4  226.48   19.00
  -2   2   4  204.78   16.50
   2   2  -4  240.48   19.80
  -2   2   4  197.48   13.70
   2   2  -4  233.28   19.50
   2   2  -4  205.98   18.20
  -2   2   4  208.68   18.30
  -2   2   4  197.58   17.20
   2   2  -4  212.68   17.80
   2   2  -4  216.28   18.20
  -2   2   4  191.68   18.70
   1  -2  -4 1590.44   89.59
   1  -2  -4 1413.66   87.69
  -1  -2   4 1583.44   85.89
   1  -2  -4 1483.85   86.29
   1  -2  -4 1464.55   88.19
   1  -2  -4 1385.86   87.59
  -1  -2   4 1518.55   87.29
  -1  -2   4 1519.25   82.79
   1  -2  -4 1521.25   86.79
  -1  -2   4 1605.94   87.89
  -1  -2   4 1527.95   81.99
   1  -2  -4 1473.55   84.19
  -1  -2   4 1424.66   85.49
  -1  -2   4 1435.96   85.49
  -1  -2   4 1461.25   89.59
   1   2  -4 1471.15   87.29
  -1   2   4 1686.23   87.49
  -1   2   4 1448.96   88.69
   1   2  -4 1479.75   87.59
   1   2  -4 1738.13   87.29
   1   2  -4 1485.45   85.59
   1   2  -4 1597.24   87.49
  -1   2   4 1501.65   88.09
   1   2  -4 1505.85   89.19
  -1   2   4 1518.45   88.19
  -1   2   4 1518.15   87.99
   1   2  -4 1465.85   86.59
  -1   2   4 1466.55   87.19
   0  -2  -4  737.43   49.99
   0  -2   4  745.13   49.70
   0  -2  -4  714.93   47.20
   0  -2   4  723.83   45.60
   0  -2   4  779.62   49.90
   0  -2  -4  757.42   47.60
   0  -2  -4  870.11   49.99
   0  -2  -4  729.63   46.80
   0  -2   4  742.33   47.70
   0  -2  -4  758.62   49.50
   0  -2   4  778.32   48.00
   0  -2   4  877.11   46.50
   0   2   4  784.32   46.60
   0   2   4  757.72   49.60
   0   2   4  746.13   48.40
   0   2  -4  774.32   48.10
   0   2   4  717.13   46.60
   0   2  -4  782.92   46.90
   0   2   4  885.11   48.30
   0   2  -4  971.30   51.09
   0   2  -4  803.32   48.60
   0   2   4  740.53   47.00
   0   2  -4  729.53   49.20
   0   2  -4  748.73   47.20
   0   2  -4  761.22   48.00
   0   2   4  755.72   48.60
   0   2  -4  780.12   47.90
  -1  -2  -4   37.90    8.10
   1  -2   4   33.20    8.80
  -1  -2  -4   28.40    5.10
   1  -2   4   25.90    8.30
   1  -2   4   41.80    7.80
  -1  -2  -4   30.70    6.40
   1  -2   4   32.70    6.10
   1  -2   4   35.50    9.70
  -1  -2  -4   19.40    7.60
   1  -2   4   28.20    5.90
   1  -2   4   35.90    4.60
   1  -2   4   31.20    7.80
  -1  -2  -4   27.00    7.10
   1   2   4   31.90    6.50
  -1   2  -4   33.30    4.40
  -1   2  -4   21.50    6.20
  -1   2  -4   17.20    5.90
   1   2   4   29.20    7.10
   1   2   4   34.50    8.00
  -1   2  -4   23.00    7.50
   1   2   4   33.00    7.20
   1   2   4   37.70    5.60
   1   2   4   38.70    7.20
  -1   2  -4   30.10    7.00
  -1   2  -4   39.00    8.00
   1   2   4   23.90    7.80
   2  -2   4  865.91   48.30
   2  -2   4  806.12   57.29
   2  -2   4  936.21   52.59
  -2  -2  -4  859.91   55.79
  -2  -2  -4  837.62   56.09
   2  -2   4  811.42   50.99
  -2  -2  -4  800.32   51.39
  -2  -2  -4  921.41   55.29
   2  -2   4  918.81   55.09
   2  -2   4  927.41   57.69
   2  -2   4  844.82   56.09
  -2  -2  -4  884.51   50.69
   2  -2   4  866.01   51.89
  -2   2  -4  951.80   51.59
   2   2   4  880.51   53.59
   2   2   4  832.02   53.79
   2   2   4  862.71   50.59
  -2   2  -4  954.50   55.09
  -2   2  -4  918.41   56.19
   2   2   4  851.21   53.69
   2   2   4  800.22   56.09
  -2   2  -4  851.31   55.19
  -2   2  -4  854.41   53.99
   2   2   4  839.52   55.49
  -2   2  -4  809.52   53.59
  -3  -2  -4 1726.03   95.99
   3  -2   4 1617.54   95.29
   3  -2   4 1573.24   97.49
   3  -2   4 1668.53   93.09
  -3  -2  -4 1742.73  101.59
  -3  -2  -4 1595.04   93.29
   3  -2   4 1562.84  101.49
  -3  -2  -4 1801.22  100.99
   3  -2   4 1639.64  101.49
   3  -2   4 1612.24   94.39
  -3  -2  -4 1570.14   97.79
  -3   2  -4 1697.73   98.29
  -3   2  -4 1650.33   99.49
  -3   2  -4 1825.52   98.49
  -3   2  -4 1511.05   97.79
   3   2   4 1606.84   98.99
   3   2   4 1517.65   96.69
  -3   2  -4 1786.92   96.79
   3   2   4 1929.41  101.29
  -3   2  -4 1611.94   98.69
   3   2   4 1545.65   96.49
   3   2   4 1515.65   99.59
   4  -2   4  283.97   25.30
   4  -2   4  285.17   22.20
   4  -2   4  288.57   32.80
   4  -2   4  268.47   27.20
   4  -2   4  331.47   22.90
  -4  -2  -4  258.77   28.40
   4  -2   4  280.37   23.40
  -4  -2  -4  263.97   23.00
  -4  -2  -4  279.67   26.00
  -4   2  -4  292.37   26.60
   4   2   4  282.27   25.00
   4   2   4  239.18   26.70
  -4   2  -4  262.17   26.10
   4   2   4  294.47   28.60
   4   2   4  277.57   27.40
   4   2   4  254.27   24.80
  -4   2  -4  266.97   27.20
  -4   2  -4  303.27   22.90
   5  -2   4   83.69   12.00
   5  -2   4   54.19   11.30
   5  -2   4   62.89   17.00
  -5  -2  -4   61.29   13.40
  -5  -2  -4   45.20   11.80
   5  -2   4   47.90    9.40
  -5  -2  -4   66.89   15.10
   5  -2   4   72.89   13.90
   5  -2   4   66.89   13.70
   5  -2   4   72.69   17.00
   5   2   4   44.80   10.50
  -5   2  -4   61.49   12.80
   5   2   4   85.09   16.00
  -5   2  -4   67.79   13.70
   5   2   4   45.80   12.40
  -5   2  -4   74.99   15.50
   5   2   4   61.39   13.50
   6  -2   4  132.59   17.40
  -6  -2  -4   82.39   16.80
   6  -2   4  156.98   27.70
   6  -2   4  114.29   22.00
  -6  -2  -4  122.29   19.60
  -6  -2  -4  131.49   21.30
   6  -2   4  159.28   18.00
   6   2   4  131.79   22.70
   6   2   4  136.39   20.60
  -6   2  -4  141.19   22.10
  -6   2  -4  129.29   20.40
  -6   2  -4  172.38   24.30
   6   2   4  147.39   19.60
   6   2   4  182.08   23.90
  -7  -3   4  -10.70    9.40
  -7  -3   4   -9.40    5.50
  -7  -3   4    1.70    6.90
   7  -3  -4   -4.10    4.70
  -7  -3   4   11.00   10.80
   7  -3  -4    7.20   13.00
   7  -3  -4   -0.80    9.70
  -7   3   4    6.60    9.80
   7   3  -4   -4.40    6.30
  -7   3   4    9.00    7.70
   7   3  -4    1.20    9.00
  -7   3   4    3.20    8.10
  -7   3   4   -7.90    7.20
   6  -3  -4   73.49   16.40
   6  -3  -4   56.19   15.60
  -6  -3   4   57.49   12.70
  -6  -3   4   34.90   11.70
   6  -3  -4   60.79   10.90
  -6  -3   4   40.90   10.50
  -6  -3   4   62.59   14.80
   6  -3  -4   68.49   14.30
  -6   3   4   44.90   11.30
   6   3  -4   44.00   12.00
   6   3  -4   48.80   11.20
   6   3  -4   55.39   13.30
   6   3  -4   57.49   12.50
  -6   3   4   63.89   13.70
  -6   3   4   60.79   13.10
  -6   3   4   58.09   14.40
   6   3  -4   92.29   15.60
  -5  -3   4   34.00    6.00
   5  -3  -4   29.00    8.80
   5  -3  -4   36.40    6.80
   5  -3  -4   50.89   13.20
  -5  -3   4   19.70    9.40
   5  -3  -4   33.20   10.80
  -5  -3   4   43.90   12.40
  -5  -3   4   48.80   11.00
   5  -3  -4   43.00    8.50
  -5  -3   4   33.50   11.20
  -5   3   4   47.40   10.20
   5   3  -4   39.00   10.80
  -5   3   4   33.10   11.10
   5   3  -4   48.50   10.20
   5   3  -4   34.00    8.80
   5   3  -4   46.30   11.40
   5   3  -4   61.19   11.30
  -5   3   4   26.40   10.30
  -5   3   4   37.30    9.80
  -4  -3   4  204.68   18.90
  -4  -3   4  222.78   14.90
   4  -3  -4  211.78   22.90
  -4  -3   4  210.68   20.90
  -4  -3   4  241.68   21.70
   4  -3  -4  224.28   23.50
   4  -3  -4  195.48   24.20
   4  -3  -4  229.58   18.00
   4  -3  -4  238.08   19.10
   4   3  -4  226.78   24.10
  -4   3   4  254.97   21.90
  -4   3   4  256.97   22.40
   4   3  -4  220.48   20.00
  -4   3   4  224.38   18.20
   4   3  -4  218.58   23.00
   4   3  -4  214.48   16.80
  -4   3   4  236.68   23.30
   4   3  -4  205.18   18.40
  -4   3   4  213.58   19.80
  -4   3   4  213.68   20.60
   3  -3  -4  225.18   25.00
  -3  -3   4  204.88   21.00
   3  -3  -4  199.08   21.20
  -3  -3   4  199.38   19.00
  -3  -3   4  214.58   21.30
   3  -3  -4  280.07   20.10
   3  -3  -4  278.07   20.10
  -3  -3   4  252.87   15.30
   3  -3  -4  275.37   20.40
  -3  -3   4  245.48   18.60
   3  -3  -4  239.58   20.90
   3  -3  -4  221.98   18.60
  -3   3   4  259.87   21.10
  -3   3   4  246.68   19.70
   3   3  -4  281.27   21.70
   3   3  -4  240.68   18.50
  -3   3   4  280.47   21.50
   3   3  -4  246.88   21.50
  -3   3   4  229.78   19.90
  -3   3   4  301.27   20.90
   3   3  -4  257.77   14.70
   3   3  -4  221.28   20.70
   3   3  -4  236.18   22.20
  -3   3   4  259.67   23.60
  -2  -3   4 2302.37  144.29
  -2  -3   4 2592.64  137.79
   2  -3  -4 2460.35  140.09
  -2  -3   4 2539.85  137.19
  -2  -3   4 2496.95  141.99
   2  -3  -4 2550.04  142.09
   2  -3  -4 2463.45  142.09
  -2  -3   4 2645.74  139.99
  -2  -3   4 2560.54  139.89
   2  -3  -4 2493.65  140.09
   2  -3  -4 2527.95  138.89
   2  -3  -4 2543.55  144.59
  -2  -3   4 2460.15  142.59
  -2  -3   4 2528.55  139.49
  -2   3   4 2327.87  141.89
   2   3  -4 2759.62  141.79
  -2   3   4 2478.25  135.49
  -2   3   4 2520.45  139.19
   2   3  -4 2489.35  143.79
  -2   3   4 2408.76  140.79
  -2   3   4 2348.07  143.79
   2   3  -4 2483.65  142.09
  -2   3   4 2848.71  142.59
   2   3  -4 2589.84  137.49
  -2   3   4 2532.05  142.19
   2   3  -4 2337.37  141.69
  -2   3   4 2413.56  143.89
   1  -3  -4   63.59   11.10
  -1  -3   4   56.99    7.50
   1  -3  -4   50.29    5.70
  -1  -3   4   56.89    8.90
  -1  -3   4   49.10    4.60
   1  -3  -4   49.10    8.10
  -1  -3   4   64.29   11.10
  -1  -3   4   57.69   10.30
  -1  -3   4   51.59    7.20
   1  -3  -4   61.19    8.80
   1  -3  -4   46.70    8.90
  -1  -3   4   56.99    7.30
  -1  -3   4   50.49    9.00
   1  -3  -4   54.39    9.20
   1   3  -4   47.40    8.10
  -1   3   4   60.89    9.10
  -1   3   4   47.60   10.50
  -1   3   4   66.49   10.20
  -1   3   4   62.49   10.00
   1   3  -4   69.19    9.80
   1   3  -4   70.29    9.60
   1   3  -4   61.09   10.40
  -1   3   4   53.89    9.10
   1   3  -4   66.19    8.90
   1   3  -4   69.59    8.20
  -1   3   4   70.19   11.20
  -1   3   4   60.09    9.20
   1   3  -4   48.40    9.60
   0  -3   4  373.26   28.30
   0  -3  -4  404.96   30.30
   0  -3  -4  401.36   29.50
   0  -3  -4  407.46   27.90
   0  -3  -4  415.86   23.40
   0  -3   4  445.86   25.80
   0  -3  -4  408.16   27.10
   0  -3   4  374.36   30.60
   0  -3   4  403.56   27.90
   0  -3   4  392.66   26.70
   0  -3   4  378.56   30.40
   0  -3  -4  424.76   23.40
   0  -3   4  408.16   25.30
   0  -3  -4  453.05   30.20
   0   3  -4  420.46   28.20
   0   3   4  415.36   28.90
   0   3   4  413.16   28.20
   0   3   4  391.76   28.90
   0   3  -4  378.86   27.70
   0   3   4  391.96   28.00
   0   3   4  372.46   30.30
   0   3  -4  407.96   27.40
   0   3  -4  388.26   30.00
   0   3   4  426.46   29.70
   0   3  -4  390.46   24.50
   0   3  -4  406.96   28.20
   0   3  -4  441.16   27.20
   1  -3   4 1782.32  111.99
   1  -3   4 2087.89  106.09
  -1  -3  -4 1910.21  104.79
   1  -3   4 1965.20  108.99
   1  -3   4 1768.92  109.59
   1  -3   4 1907.21  105.59
   1  -3   4 1817.62  112.29
  -1  -3  -4 1798.12  108.79
  -1  -3  -4 1919.31  110.99
   1   3   4 1949.60  110.09
  -1   3  -4 1946.61  109.09
  -1   3  -4 1842.42  107.99
   1   3   4 1993.40  105.19
   1   3   4 1805.72  110.19
   1   3   4 2050.09  111.59
   1   3   4 1832.62  109.09
   1   3   4 1965.90  112.39
  -1   3  -4 1921.91  110.29
  -1   3  -4 1845.52  109.09
   1   3   4 1825.32  108.59
  -1   3  -4 1981.70  104.39
  -2  -3  -4   27.50    8.10
   2  -3   4   46.60   11.30
   2  -3   4   31.10    4.20
   2  -3   4   48.80   10.70
   2  -3   4   39.40    6.10
  -2  -3  -4   34.10    8.70
  -2  -3  -4   28.60    8.00
  -2  -3  -4   32.10    5.90
   2  -3   4   47.70    6.40
   2  -3   4   40.40    9.50
   2  -3   4   30.70    7.90
   2   3   4   40.70   10.50
  -2   3  -4   25.10    7.10
  -2   3  -4   34.30    6.20
   2   3   4   34.70    6.00
   2   3   4   29.80    8.40
  -2   3  -4   36.20    8.60
  -2   3  -4   22.30    8.50
   2   3   4   32.40    8.90
  -2   3  -4   22.50    6.30
  -2   3  -4   38.00    7.70
   2   3   4   37.90    9.10
   2   3   4   35.20    7.50
  -3  -3  -4  183.78   15.80
   3  -3   4  160.68   20.90
   3  -3   4  154.98   13.60
   3  -3   4  159.88   14.00
  -3  -3  -4  164.68   12.00
   3  -3   4  163.68   13.80
   3  -3   4  165.58   22.20
  -3  -3  -4  156.48   20.90
  -3  -3  -4  171.68   19.00
   3  -3   4  167.78   18.30
  -3  -3  -4  185.58   21.80
   3  -3   4  220.48   25.50
   3   3   4  171.18   19.60
  -3   3  -4  148.69   17.60
  -3   3  -4  168.28   19.60
  -3   3  -4  164.58   17.20
   3   3   4  171.28   19.10
  -3   3  -4  156.98   18.50
   3   3   4  170.18   20.20
  -3   3  -4  153.08   18.70
   3   3   4  166.58   19.70
   3   3   4  162.48   20.50
  -3   3  -4  191.58   19.90
   4  -3   4   86.79   11.80
   4  -3   4   75.69   10.10
   4  -3   4   96.59   11.30
  -4  -3  -4   75.89   12.50
   4  -3   4   88.79   17.70
  -4  -3  -4   93.59   14.90
   4  -3   4   82.89   13.30
  -4  -3  -4   86.49   16.30
   4  -3   4   59.39   15.90
   4   3   4   76.99   14.60
  -4   3  -4   76.29   12.80
  -4   3  -4   45.60    9.00
   4   3   4   54.49   14.00
   4   3   4   71.59   12.40
   4   3   4   67.29   12.70
  -4   3  -4   68.09   13.60
  -4   3  -4   55.49   12.80
   4   3   4   62.79   14.30
   5  -3   4  125.39   14.30
   5  -3   4  145.49   15.50
  -5  -3  -4  158.38   21.10
  -5  -3  -4  163.08   22.70
   5  -3   4  148.19   22.60
  -5  -3  -4  135.69   18.20
   5  -3   4  121.59   23.70
   5   3   4  121.29   18.10
  -5   3  -4  121.29   18.90
  -5   3  -4  203.88   24.10
   5   3   4  126.39   18.70
   5   3   4  146.39   21.10
  -5   3  -4  159.98   20.40
   5   3   4  179.98   22.30
  -6  -3  -4  129.19   21.20
  -6  -3  -4   96.59   18.10
  -6  -3  -4  103.89   18.00
   6  -3   4  104.39   20.60
   6  -3   4  119.09   23.70
  -6   3  -4  112.19   19.10
   6   3   4  104.09   20.10
  -6   3  -4   83.79   17.70
   6   3   4   93.39   16.80
  -6   3  -4  113.89   20.70
   6   3   4  149.09   22.30
  -7  -4   4   53.99   14.80
   7  -4  -4   39.60   15.40
  -7  -4   4   36.10   11.60
  -7  -4   4   53.69   15.70
  -7  -4   4   33.80   12.50
   7  -4  -4   44.10   16.90
  -7   4   4   53.29   15.40
   7   4  -4   60.89   13.40
  -7   4   4   28.00   13.20
   7   4  -4   56.29   14.40
   7   4  -4   46.20   15.40
  -7   4   4   52.89   13.00
  -7   4   4   24.40   11.50
   7   4  -4   82.69   16.20
  -6  -4   4   36.70   12.20
  -6  -4   4   25.70    9.80
   6  -4  -4    1.80    7.70
  -6  -4   4    1.40    6.40
   6  -4  -4   16.50    6.70
   6  -4  -4   -1.70    8.30
  -6  -4   4   16.90    9.80
   6   4  -4   15.30    9.80
  -6   4   4   15.00    9.00
  -6   4   4   18.30   11.10
   6   4  -4   10.80    7.20
  -6   4   4   23.50   10.10
   6   4  -4   23.80    8.90
   6   4  -4   23.60    9.90
  -6   4   4   10.40    9.00
   6   4  -4   17.60    7.40
   5  -4  -4  418.06   29.10
   5  -4  -4  402.56   36.30
   5  -4  -4  361.86   39.20
  -5  -4   4  371.36   34.00
  -5  -4   4  431.06   34.20
  -5  -4   4  388.36   30.20
   5  -4  -4  382.56   32.00
   5   4  -4  372.06   32.70
  -5   4   4  445.36   36.70
  -5   4   4  463.15   34.20
  -5   4   4  396.46   32.20
   5   4  -4  388.66   32.50
   5   4  -4  421.36   34.50
  -5   4   4  359.36   31.30
   5   4  -4  390.96   31.40
   5   4  -4  445.46   29.60
   4  -4  -4  418.26   35.60
  -4  -4   4  484.35   31.40
   4  -4  -4  425.06   36.80
  -4  -4   4  437.26   27.80
   4  -4  -4  408.26   29.00
   4  -4  -4  382.76   28.60
  -4  -4   4  389.06   33.00
   4  -4  -4  446.36   32.50
  -4  -4   4  463.85   33.60
  -4   4   4  421.16   31.90
  -4   4   4  416.56   31.90
   4   4  -4  474.75   35.20
  -4   4   4  465.85   29.50
   4   4  -4  406.26   30.40
  -4   4   4  411.46   32.50
  -4   4   4  414.86   35.40
   4   4  -4  378.86   31.10
   4   4  -4  466.35   27.90
   4   4  -4  398.96   33.40
  -4   4   4  449.36   33.20
  -3  -4   4  919.71   59.69
   3  -4  -4  969.90   55.19
   3  -4  -4 1105.79   59.59
   3  -4  -4  935.51   62.49
  -3  -4   4  942.41   58.69
   3  -4  -4 1018.00   55.49
  -3  -4   4  923.71   55.09
  -3  -4   4  884.11   60.79
  -3  -4   4  915.41   55.29
   3  -4  -4  831.42   60.89
   3  -4  -4  941.21   56.19
  -3  -4   4  939.11   55.79
   3  -4  -4  903.51   56.59
   3   4  -4  874.31   54.79
   3   4  -4  876.81   56.99
   3   4  -4  913.81   50.49
  -3   4   4  872.51   56.99
  -3   4   4  939.11   58.19
   3   4  -4 1012.60   59.59
   3   4  -4  932.81   50.49
  -3   4   4  902.71   55.89
   3   4  -4  846.32   59.29
   3   4  -4  886.21   58.59
  -3   4   4  868.41   60.39
  -3   4   4  879.41   57.89
  -3   4   4  991.50   56.79
   2  -4  -4  261.77   18.80
   2  -4  -4  306.07   22.20
  -2  -4   4  267.57   17.20
  -2  -4   4  252.47   20.10
  -2  -4   4  279.27   21.30
   2  -4  -4  257.87   18.50
  -2  -4   4  285.57   24.60
  -2  -4   4  229.98   17.50
   2  -4  -4  219.18   24.60
   2  -4  -4  254.37   20.40
  -2  -4   4  223.88   21.00
  -2  -4   4  243.38   17.40
   2  -4  -4  244.18   17.50
   2   4  -4  271.07   16.90
   2   4  -4  263.27   22.40
   2   4  -4  223.98   20.30
  -2   4   4  224.58   19.90
   2   4  -4  261.67   20.30
  -2   4   4  239.58   23.30
   2   4  -4  219.78   20.30
  -2   4   4  274.67   17.90
  -2   4   4  220.28   19.50
  -2   4   4  215.68   20.20
   2   4  -4  247.58   15.20
   1  -4  -4  465.25   32.10
  -1  -4   4  538.85   30.40
   1  -4  -4  501.45   32.20
  -1  -4   4  468.35   34.60
  -1  -4   4  509.45   29.90
  -1  -4   4  519.65   30.30
   1  -4  -4  519.45   35.00
  -1  -4   4  516.85   37.60
   1  -4  -4  484.15   37.00
  -1  -4   4  509.15   33.40
   1  -4  -4  520.15   29.20
  -1  -4   4  520.05   35.70
  -1  -4   4  504.95   30.10
  -1   4   4  474.45   34.70
  -1   4   4  467.25   32.90
  -1   4   4  476.55   36.80
   1   4  -4  543.45   33.20
   1   4  -4  525.05   34.00
  -1   4   4  535.95   34.70
   1   4  -4  548.05   37.20
   1   4  -4  554.24   34.40
  -1   4   4  475.85   34.00
   1   4  -4  508.05   31.50
   0  -4  -4   88.59   10.90
   0  -4   4   92.99    7.00
   0  -4   4   94.39    7.10
   0  -4   4   90.69    7.00
   0  -4  -4   70.39   12.90
   0  -4   4   81.19   13.20
   0  -4   4   90.79   10.70
   0  -4   4   89.09   14.80
   0  -4  -4   98.39    7.60
   0  -4  -4  123.69   14.10
   0  -4  -4  133.29   12.50
   0  -4   4   80.69   12.60
   0  -4   4  110.49   10.80
   0   4  -4  113.49   11.20
   0   4  -4   94.29   11.60
   0   4   4  103.19   12.70
   0   4   4  120.09   13.90
   0   4   4  115.59   12.60
   0   4  -4  116.79   14.90
   0   4   4   93.69   12.40
   0   4  -4  123.09   12.60
   0   4   4  110.79   14.60
   0   4  -4  116.39   12.60
   0   4  -4  105.59    9.50
   0   4  -4  101.19   11.10
   1  -4   4  142.79   13.90
   1  -4   4  152.18   15.50
   1  -4   4  124.99    9.30
  -1  -4  -4  169.48   18.10
  -1  -4  -4  167.38    9.80
  -1  -4  -4  144.89   13.90
   1  -4   4  139.89   18.30
   1  -4   4  160.28    9.50
   1  -4   4  162.58   19.70
   1   4   4  153.78   17.00
   1   4   4  142.09   15.40
  -1   4  -4  167.08   10.90
   1   4   4  165.18   10.00
   1   4   4  163.48   18.50
  -1   4  -4  162.58   11.10
  -1   4  -4  138.89   13.60
  -1   4  -4  149.88   15.70
  -1   4  -4  164.98   18.10
   1   4   4  142.99   18.40
   1   4   4  170.08   17.10
  -1   4  -4  132.69   14.70
   2  -4   4   67.29    5.70
  -2  -4  -4   67.49   11.90
   2  -4   4   68.49    5.60
   2  -4   4   65.69   13.50
  -2  -4  -4   67.99    7.90
  -2  -4  -4   92.29   14.20
   2  -4   4   55.79   12.20
   2  -4   4   51.39   12.50
  -2  -4  -4   62.39   11.00
   2  -4   4   66.19    7.50
   2  -4   4   77.29    6.00
   2  -4   4   75.59   10.40
  -2   4  -4   60.09   10.20
  -2   4  -4   70.39    8.50
   2   4   4   50.49    9.50
   2   4   4   59.29   11.10
   2   4   4   55.09   11.30
  -2   4  -4   52.89   11.80
  -2   4  -4   62.49   10.40
  -2   4  -4   67.49   10.40
   2   4   4   60.79   12.90
   2   4   4   60.69    7.50
  -2   4  -4   54.29   10.00
  -3  -4  -4   99.79   16.60
  -3  -4  -4   52.29   12.60
   3  -4   4   77.29    7.30
  -3  -4  -4   58.39   11.80
   3  -4   4   64.29   13.90
   3  -4   4   84.89   12.20
   3  -4   4   74.99   15.90
  -3  -4  -4   74.09   10.30
   3  -4   4   63.19   13.20
   3  -4   4   57.59    6.70
   3  -4   4   74.99    9.60
   3   4   4  105.59   15.20
  -3   4  -4   90.19   14.40
   3   4   4   76.49   12.10
   3   4   4   87.29   11.20
  -3   4  -4   78.49   12.50
  -3   4  -4   77.59   12.40
  -3   4  -4   70.49   11.20
  -3   4  -4   84.79   12.50
  -3   4  -4   87.99   13.00
   3   4   4   73.79   13.80
   3   4   4   80.89   14.80
  -4  -4  -4  124.99   15.20
   4  -4   4  109.99   20.20
   4  -4   4  108.29   14.00
   4  -4   4   94.89   10.20
  -4  -4  -4  122.79   19.70
   4  -4   4  105.19   15.50
   4  -4   4  106.39   20.10
  -4  -4  -4  112.29   16.10
  -4   4  -4  120.29   16.70
   4   4   4  125.79   18.60
  -4   4  -4  142.99   20.90
  -4   4  -4  111.19   13.70
   4   4   4  113.49   15.70
   4   4   4  126.79   16.80
  -4   4  -4  140.39   17.50
   4   4   4  106.09   17.80
   4   4   4  132.99   18.80
   5  -4   4  229.48   30.70
  -5  -4  -4  201.78   25.10
   5  -4   4  264.17   33.10
  -5  -4  -4  199.78   27.10
  -5  -4  -4  213.28   23.30
   5   4   4  227.18   28.50
   5   4   4  238.48   28.70
  -5   4  -4  202.88   24.40
   5   4   4  222.38   26.90
  -5   4  -4  228.88   25.90
  -5   4  -4  196.08   24.70
   5   4   4  253.57   26.50
   5   4   4  200.18   23.40
   6  -4   4  228.28   33.50
  -6  -4  -4  218.98   29.60
  -6  -4  -4  236.08   27.90
   6  -4   4  250.27   33.40
  -6  -4  -4  217.58   25.70
  -6   4  -4  218.18   27.10
  -6   4  -4  257.87   30.90
   6   4   4  264.67   29.20
   6   4   4  205.98   26.10
   6   4   4  253.97   31.20
  -6   4  -4  235.68   27.60
  -7  -5   4    6.30    8.10
   7  -5  -4   -4.30    7.60
   7  -5  -4    3.00   11.40
  -7  -5   4    7.20   11.00
  -7   5   4   24.70   13.10
   7   5  -4    0.00    6.20
   7   5  -4   -0.80    7.40
   7   5  -4   16.00   10.80
  -7   5   4   11.90    9.00
   7   5  -4    8.30   10.40
  -7   5   4   18.20   13.10
  -7   5   4   12.40   11.00
  -6  -5   4  119.79   15.90
  -6  -5   4  106.09   17.80
  -6  -5   4  100.29   19.20
   6  -5  -4  138.79   25.30
   6  -5  -4   71.39   19.10
  -6   5   4  121.59   19.60
  -6   5   4   99.29   17.10
  -6   5   4  108.69   20.10
   6   5  -4  100.79   16.50
  -6   5   4   93.09   16.30
   6   5  -4   95.89   17.40
   6   5  -4  113.79   17.00
   6   5  -4  104.79   17.30
  -5  -5   4  354.56   32.20
  -5  -5   4  289.07   29.50
  -5  -5   4  316.17   30.70
   5  -5  -4  347.37   28.80
   5  -5  -4  379.26   35.80
  -5  -5   4  409.36   28.10
   5  -5  -4  334.47   34.40
   5   5  -4  327.97   30.20
   5   5  -4  304.07   26.60
   5   5  -4  303.27   29.10
  -5   5   4  322.97   28.40
  -5   5   4  318.57   27.90
  -5   5   4  317.17   31.60
  -5   5   4  348.07   29.60
   5   5  -4  346.47   29.50
  -4  -5   4  216.58   25.90
   4  -5  -4  244.98   29.60
  -4  -5   4  245.98   17.10
   4  -5  -4  242.58   22.60
   4  -5  -4  258.67   30.60
  -4  -5   4  233.08   20.10
  -4  -5   4  287.47   25.40
  -4  -5   4  265.97   24.50
   4   5  -4  221.78   25.80
  -4   5   4  282.27   20.40
  -4   5   4  287.67   23.90
  -4   5   4  250.97   22.80
  -4   5   4  249.78   22.30
   4   5  -4  222.48   24.50
  -4   5   4  217.98   27.10
   4   5  -4  262.77   18.20
   4   5  -4  220.68   19.90
  -4   5   4  246.88   22.50
   4   5  -4  264.97   23.30
  -3  -5   4  316.67   25.20
   3  -5  -4  323.47   29.90
  -3  -5   4  300.27   22.20
   3  -5  -4  331.07   30.00
   3  -5  -4  320.07   20.80
  -3  -5   4  336.47   22.10
   3  -5  -4  302.07   24.60
  -3  -5   4  253.87   25.30
  -3  -5   4  293.37   21.20
   3  -5  -4  350.96   23.60
  -3  -5   4  309.57   22.40
  -3  -5   4  315.47   28.90
   3  -5  -4  334.27   20.90
  -3   5   4  296.57   20.00
  -3   5   4  293.07   24.40
   3   5  -4  295.07   21.60
  -3   5   4  296.87   28.40
   3   5  -4  305.27   27.10
   3   5  -4  311.97   24.00
  -3   5   4  307.17   24.30
   3   5  -4  300.27   18.70
   3   5  -4  278.77   18.40
  -3   5   4  280.47   23.50
   3   5  -4  347.27   26.20
   3   5  -4  368.56   27.10
  -3   5   4  279.77   22.70
   2  -5  -4  280.27   19.70
  -2  -5   4  318.27   20.20
   2  -5  -4  269.87   27.20
  -2  -5   4  241.98   24.10
   2  -5  -4  285.07   23.20
  -2  -5   4  307.37   23.30
  -2  -5   4  242.18   22.10
   2  -5  -4  260.27   19.50
  -2  -5   4  278.87   19.00
  -2  -5   4  382.16   29.60
   2  -5  -4  288.97   20.10
   2   5  -4  301.37   22.70
  -2   5   4  334.07   27.90
   2   5  -4  320.07   26.40
   2   5  -4  298.27   17.40
   2   5  -4  336.77   24.30
  -2   5   4  322.07   20.30
  -2   5   4  300.57   23.80
   2   5  -4  331.27   20.10
  -2   5   4  308.97   17.40
  -2   5   4  276.47   22.30
   2   5  -4  323.17   23.80
  -2   5   4  325.37   24.00
  -1  -5   4  646.74   44.10
   1  -5  -4  648.54   39.40
  -1  -5   4  694.93   47.40
   1  -5  -4  698.53   47.30
   1  -5  -4  650.83   42.70
  -1  -5   4  650.03   45.00
  -1  -5   4  621.04   40.90
   1  -5  -4  659.23   39.20
  -1   5   4  620.44   41.10
   1   5  -4  666.93   41.60
   1   5  -4  665.23   37.10
   1   5  -4  696.63   39.60
   1   5  -4  706.03   39.00
  -1   5   4  647.14   42.40
   1   5  -4  608.84   44.50
  -1   5   4  600.44   43.70
   1   5  -4  633.64   40.50
   1   5  -4  671.43   41.80
  -1   5   4  659.53   42.60
  -1   5   4  619.54   45.70
   0  -5   4 1005.00   62.39
   0  -5  -4  985.70   66.09
   0  -5  -4 1031.30   58.59
   0  -5  -4  976.70   63.39
   0  -5   4 1112.29   61.49
   0  -5   4 1002.70   67.59
   0  -5   4 1002.60   65.99
   0  -5  -4 1032.60   60.39
   0  -5   4 1061.29   65.49
   0  -5  -4  958.20   60.49
   0   5  -4 1109.19   61.99
   0   5   4  993.70   63.29
   0   5  -4 1051.39   56.99
   0   5  -4 1000.50   61.99
   0   5   4 1085.09   62.59
   0   5  -4 1045.10   61.69
   0   5  -4 1031.90   60.69
   0   5   4 1258.97   68.59
   0   5  -4 1024.70   56.99
   0   5   4  953.70   63.99
   0   5  -4  998.80   61.79
   0   5  -4 1067.59   60.59
   0   5  -4 1029.10   65.39
   0   5   4 1161.58   64.79
  -1  -5  -4 2110.69  112.29
   1  -5   4 1945.51  114.99
  -1  -5  -4 1885.51  108.29
  -1  -5  -4 1841.12  106.89
   1  -5   4 1870.41  111.49
   1  -5   4 1852.31  113.99
  -1  -5  -4 1998.70  107.99
   1  -5   4 1976.30  107.89
   1   5   4 1914.01  111.29
   1   5   4 1918.31  109.49
  -1   5  -4 1865.51  107.89
  -1   5  -4 1937.81  111.39
   1   5   4 1737.53  110.49
   1   5   4 1869.11  113.29
  -1   5  -4 1816.32  108.39
  -1   5  -4 1869.21  106.39
  -1   5  -4 1892.81  107.39
   1   5   4 1908.81  110.89
   2  -5   4  148.69   13.60
  -2  -5  -4  148.29   10.50
   2  -5   4  124.39   18.30
  -2  -5  -4  117.49   16.80
  -2  -5  -4  133.29   17.20
  -2  -5  -4  130.79   15.20
   2  -5   4  158.48   21.30
   2  -5   4  119.49   18.90
   2  -5   4  137.89   12.20
   2   5   4  121.59   14.80
   2   5   4  126.19   10.40
  -2   5  -4  100.99   13.00
  -2   5  -4  118.79   17.70
  -2   5  -4  107.99   14.90
  -2   5  -4  134.19   14.90
   2   5   4  125.59   16.20
   2   5   4  126.79   17.10
  -2   5  -4  106.89   13.90
   2   5   4  138.99   19.90
  -2   5  -4  138.59   11.60
  -2   5  -4  113.39   14.30
   2   5   4  138.89   18.90
   3  -5   4   13.10    6.10
  -3  -5  -4   17.40    7.70
   3  -5   4   34.50    6.80
   3  -5   4   17.20   10.10
   3  -5   4    9.50    7.80
  -3  -5  -4   19.60    5.90
   3  -5   4    5.30    7.20
  -3  -5  -4   22.10    9.90
  -3   5  -4   19.30    6.80
   3   5   4   35.30    9.70
  -3   5  -4   31.90    8.00
   3   5   4   23.70   10.40
  -3   5  -4   20.80    6.70
  -3   5  -4   26.60    9.20
  -3   5  -4   26.90    7.70
   3   5   4   16.30    5.30
   3   5   4   13.40    7.80
   3   5   4   17.70    8.20
  -4  -5  -4   29.80   10.10
  -4  -5  -4   38.00    8.60
   4  -5   4   31.00    7.70
   4  -5   4   11.80   11.20
   4  -5   4   23.00   13.20
  -4  -5  -4   22.20    9.00
   4   5   4   13.80    8.30
   4   5   4   26.80   11.80
   4   5   4   -0.30    8.30
  -4   5  -4   16.20    5.90
  -4   5  -4   12.90    6.80
  -4   5  -4    3.90    6.50
   4   5   4   23.70    9.00
  -4   5  -4   31.10    9.50
   4   5   4   12.30    7.40
  -5  -5  -4  127.59   17.20
   5  -5   4  116.39   23.80
   5  -5   4  126.19   22.60
  -5  -5  -4  136.69   19.10
  -5  -5  -4  154.48   23.80
  -5   5  -4  138.39   19.20
   5   5   4  108.49   19.20
   5   5   4  120.89   20.60
  -5   5  -4  121.99   20.30
  -5   5  -4  128.09   19.40
   5   5   4  143.89   19.70
   5   5   4  152.38   21.80
   6  -5   4   45.30   17.30
  -6  -5  -4   41.90   16.30
  -6  -5  -4   30.10   12.80
   6  -5   4   17.20   15.30
  -6   5  -4   31.50   11.10
   6   5   4   58.29   15.60
   6   5   4   46.30   14.10
   6   5   4   24.90   11.20
  -6   5  -4   34.60   13.00
  -6   5  -4   37.60   13.30
  -7  -6   4   35.70    9.70
  -7  -6   4   17.80   14.00
   7  -6  -4   37.10   18.90
  -7  -6   4   37.80   14.70
   7  -6  -4   35.80   18.90
  -7   6   4   13.00    9.40
  -7   6   4   58.59   16.90
   7   6  -4   23.60   11.90
   7   6  -4   14.20   10.60
   7   6  -4   47.20   13.90
  -7   6   4   44.30   13.90
  -7   6   4   31.10   13.60
   7   6  -4   25.30   10.70
   6  -6  -4  131.39   23.90
  -6  -6   4   72.79   17.70
  -6  -6   4  111.79   21.10
  -6  -6   4   95.99   14.60
   6  -6  -4   83.39   19.00
  -6   6   4   94.09   15.80
  -6   6   4  110.69   16.90
   6   6  -4  119.59   18.80
   6   6  -4   67.59   14.80
  -6   6   4   99.69   21.00
   6   6  -4  125.79   20.30
   6   6  -4   95.19   16.30
  -6   6   4   93.29   17.20
   5  -6  -4   32.00   13.60
  -5  -6   4   33.40   11.20
  -5  -6   4   16.20    6.70
   5  -6  -4   50.89   14.30
  -5  -6   4   24.60    9.30
  -5  -6   4   35.30   11.30
   5   6  -4   36.20   11.20
   5   6  -4   26.40    9.40
  -5   6   4   10.80    8.70
  -5   6   4   28.50    8.60
   5   6  -4    9.90    5.50
  -5   6   4   27.70    8.10
  -5   6   4   29.30   10.40
   5   6  -4   25.70   10.10
  -4  -6   4  350.36   34.10
  -4  -6   4  322.27   33.20
  -4  -6   4  403.26   32.20
   4  -6  -4  390.16   30.40
   4  -6  -4  371.76   37.50
  -4  -6   4  447.16   28.10
   4  -6  -4  371.46   37.00
  -4   6   4  419.16   31.40
   4   6  -4  465.75   36.40
   4   6  -4  416.56   29.90
  -4   6   4  395.66   30.50
   4   6  -4  391.16   30.50
  -4   6   4  356.66   34.80
   4   6  -4  395.96   32.40
  -4   6   4  427.46   30.90
  -3  -6   4  399.96   30.90
   3  -6  -4  426.86   37.50
  -3  -6   4  426.76   35.50
   3  -6  -4  476.55   31.90
  -3  -6   4  402.96   35.40
   3  -6  -4  389.26   31.00
  -3  -6   4  488.25   29.50
   3   6  -4  446.06   36.20
  -3   6   4  381.36   30.90
  -3   6   4  424.56   29.60
   3   6  -4  426.66   26.60
  -3   6   4  456.25   27.40
   3   6  -4  431.16   31.20
  -3   6   4  393.96   30.40
  -3   6   4  379.46   35.40
  -3   6   4  405.96   30.00
   3   6  -4  411.46   29.00
   3   6  -4  458.15   32.60
   3   6  -4  494.85   33.70
  -2  -6   4  106.49   16.90
   2  -6  -4  153.68   22.00
  -2  -6   4  142.39   12.50
   2  -6  -4  170.98   15.20
   2  -6  -4  155.48   12.30
  -2  -6   4  165.88   15.40
  -2  -6   4  115.89   18.90
  -2  -6   4  150.58   16.50
   2   6  -4  144.89   12.80
  -2   6   4  165.18   15.30
   2   6  -4  140.89   16.20
  -2   6   4  162.38   12.60
   2   6  -4  154.98   11.70
  -2   6   4  145.79   16.00
  -2   6   4  161.68   10.70
   2   6  -4  157.28   15.30
  -2   6   4  141.39   15.40
   2   6  -4  153.78   15.60
  -2   6   4  169.28   21.40
   2   6  -4  119.99   18.40
  -1  -6   4  919.31   64.69
  -1  -6   4  973.30   62.19
   1  -6  -4  977.10   54.79
   1  -6  -4 1034.60   60.69
  -1  -6   4  978.50   58.49
   1  -6  -4  940.31   65.49
  -1  -6   4  965.10   63.69
   1  -6  -4  981.00   54.79
   1   6  -4  956.20   55.49
   1   6  -4 1018.90   64.69
   1   6  -4  979.50   59.19
   1   6  -4 1074.99   57.59
  -1   6   4 1016.10   60.79
  -1   6   4 1009.20   59.49
   1   6  -4 1010.30   58.29
  -1   6   4  884.71   61.99
  -1   6   4 1035.60   60.79
   1   6  -4  978.90   57.79
  -1   6   4  959.10   64.39
   1   6  -4  901.81   58.49
   0  -6  -4 1481.45   84.39
   0  -6  -4 1560.94   84.69
   0  -6   4 1492.45   88.89
   0  -6  -4 1550.14   84.39
   0  -6  -4 1478.25   93.29
   0  -6   4 1472.95   92.09
   0  -6   4 1498.05   93.89
   0  -6   4 1471.55   91.29
   0  -6  -4 1649.23   89.79
   0   6  -4 1465.85   85.19
   0   6   4 1592.14   87.99
   0   6  -4 1475.15   86.59
   0   6  -4 1431.36   86.19
   0   6  -4 1515.65   87.69
   0   6  -4 1553.44   88.19
   0   6   4 1520.25   89.09
   0   6  -4 1515.65   91.49
   0   6  -4 1486.65   83.19
   0   6  -4 1440.56   87.89
   0   6   4 1417.06   88.39
   0   6  -4 1533.35   85.69
   0   6   4 1461.65   92.39
   0   6   4 1480.75   90.79
   0   6   4 1523.35   85.49
  -1  -6  -4  496.85   31.90
  -1  -6  -4  513.85   35.50
  -1  -6  -4  559.34   36.80
   1  -6   4  446.66   35.80
   1  -6   4  478.35   39.30
  -1  -6  -4  434.36   31.50
  -1  -6  -4  470.45   31.10
   1  -6   4  476.35   31.20
   1  -6   4  481.95   39.00
   1   6   4  463.25   34.90
  -1   6  -4  490.65   32.20
   1   6   4  525.75   37.20
   1   6   4  495.35   34.20
  -1   6  -4  517.55   31.70
  -1   6  -4  480.65   32.50
  -1   6  -4  462.05   32.00
  -1   6  -4  476.45   29.50
   1   6   4  547.75   39.30
   1   6   4  543.15   36.80
  -1   6  -4  478.35   36.20
  -2  -6  -4  853.51   55.79
   2  -6   4  879.51   62.79
  -2  -6  -4 1005.50   61.19
  -2  -6  -4  943.21   59.69
   2  -6   4  933.61   63.59
   2  -6   4  867.31   60.89
  -2  -6  -4  899.41   55.59
  -2   6  -4  830.42   54.99
  -2   6  -4  873.41   53.19
   2   6   4  875.61   60.89
   2   6   4  902.01   51.09
  -2   6  -4  885.11   55.09
  -2   6  -4  902.91   55.99
  -2   6  -4  969.70   58.79
  -2   6  -4 1008.10   62.59
   2   6   4  898.81   59.19
   2   6   4  913.81   59.89
   2   6   4  867.41   56.99
  -2   6  -4  958.00   54.59
  -2   6  -4  888.91   54.69
   2   6   4  818.12   57.79
   3  -6   4  107.79   19.10
  -3  -6  -4  122.89   14.90
   3  -6   4  118.69   19.90
  -3  -6  -4  127.79   17.80
   3  -6   4   97.89   12.90
  -3  -6  -4  101.39   15.50
   3  -6   4  113.99   19.30
   3   6   4   99.09   16.20
  -3   6  -4  104.69   14.10
  -3   6  -4  109.79   14.30
   3   6   4  113.99   15.20
   3   6   4  103.39   16.70
  -3   6  -4  115.19   18.50
  -3   6  -4   80.09   12.60
   3   6   4  105.79   17.50
  -4  -6  -4   30.20    9.90
  -4  -6  -4   15.80    7.60
  -4  -6  -4   33.20    9.40
   4  -6   4   57.49   16.50
   4  -6   4   20.80   10.40
   4   6   4   23.60   10.00
  -4   6  -4   25.90    9.20
  -4   6  -4   24.30    7.30
  -4   6  -4   29.00    8.90
   4   6   4   29.80   12.00
   4   6   4   28.70   11.30
   4   6   4   10.40    8.60
  -4   6  -4   31.40   10.40
   4   6   4   28.60    9.30
  -5  -6  -4   15.70   12.70
  -5  -6  -4   18.90   10.20
   5  -6   4   24.40   15.60
   5  -6   4    8.90   12.90
  -5   6  -4    8.40    8.40
   5   6   4   10.10    7.50
   5   6   4   16.60    7.70
   5   6   4   26.00   13.10
  -5   6  -4   13.00    9.10
   5   6   4   12.10    7.90
  -5   6  -4   21.70    9.20
   6  -6   4   63.69   21.50
  -6  -6  -4   72.99   16.00
   6  -6   4   85.99   21.40
  -6   6  -4   68.79   16.50
  -6   6  -4   56.09   13.70
   6   6   4   69.39   15.90
   6   6   4   59.29   16.20
  -6   6  -4   55.69   13.80
   6   6   4   62.49   18.30
  -6  -7   4  166.18   24.60
  -6  -7   4  117.59   21.80
  -6  -7   4  101.29   14.60
   6  -7  -4  127.19   24.70
   6  -7  -4  112.89   24.60
   6   7  -4  155.88   22.10
  -6   7   4  133.09   18.30
   6   7  -4  150.48   20.10
  -6   7   4  141.89   26.10
  -6   7   4  152.78   20.40
   6   7  -4   67.79   16.10
   6   7  -4  131.39   20.30
  -6   7   4  167.08   22.00
   5  -7  -4   61.29   15.40
   5  -7  -4   67.29   18.60
  -5  -7   4  101.79   17.10
  -5  -7   4   72.59   15.60
  -5  -7   4   74.19    9.90
   5   7  -4   53.59   11.80
   5   7  -4   64.19   14.30
   5   7  -4   38.80   11.70
  -5   7   4   67.09   12.50
  -5   7   4   82.99   14.10
   5   7  -4   52.29   13.60
  -5   7   4   89.39   19.50
  -5   7   4   72.79   14.50
   4  -7  -4  141.79   23.10
  -4  -7   4  131.89   21.30
   4  -7  -4  152.48   24.10
  -4  -7   4  169.18   23.80
  -4   7   4  135.79   16.90
   4   7  -4  152.28   19.00
  -4   7   4  149.49   18.10
   4   7  -4  137.69   17.30
  -4   7   4  173.38   24.40
   4   7  -4  125.39   21.20
   4   7  -4  196.08   19.20
  -4   7   4  168.48   18.50
  -3  -7   4  690.83   48.50
  -3  -7   4  632.24   40.80
  -3  -7   4  656.63   43.70
  -3  -7   4  709.23   50.19
   3  -7  -4  628.54   50.19
   3  -7  -4  627.94   44.30
  -3   7   4  648.64   42.70
  -3   7   4  642.74   49.10
   3   7  -4  657.73   48.30
   3   7  -4  665.53   41.80
  -3   7   4  619.44   42.70
   3   7  -4  673.43   43.50
  -3   7   4  632.14   41.30
   3   7  -4  595.54   43.60
  -2  -7   4 1537.35  102.29
  -2  -7   4 1574.24  101.69
  -2  -7   4 1635.74   96.09
  -2  -7   4 1669.33   97.69
   2  -7  -4 1690.13  105.59
  -2  -7   4 1644.74   94.49
  -2   7   4 1875.81   97.99
   2   7  -4 1614.24  102.49
   2   7  -4 1652.73   96.99
  -2   7   4 1655.13   92.29
  -2   7   4 1576.04  103.19
  -2   7   4 1591.74   95.89
   2   7  -4 1797.02   97.59
   2   7  -4 1597.64   95.59
   2   7  -4 1711.73   94.39
  -2   7   4 1684.83   97.19
  -1  -7   4  182.88   14.80
  -1  -7   4  178.98   20.80
  -1  -7   4  176.68   23.50
   1  -7  -4  212.58   26.70
  -1  -7   4  163.38   21.40
   1  -7  -4  200.28   17.60
   1   7  -4  194.38   16.20
   1   7  -4  191.68   16.00
  -1   7   4  177.38   22.40
   1   7  -4  160.08   15.80
  -1   7   4  175.38   17.20
   1   7  -4  196.58   14.80
  -1   7   4  173.28   16.20
   1   7  -4  208.58   23.90
  -1   7   4  222.48   23.20
   1   7  -4  180.48   13.60
   1   7  -4  166.38   15.00
  -1   7   4  171.88   16.00
   0  -7   4    7.60    6.90
   0  -7   4   14.40    6.40
   0  -7   4    4.60    6.90
   0  -7  -4    4.50    7.30
   0  -7  -4    4.30    5.20
   0  -7   4    5.50    3.80
   0  -7   4   10.60    6.60
   0  -7  -4   10.60    3.70
   0   7   4    8.70    5.60
   0   7   4    8.90    5.90
   0   7  -4   10.20    4.80
   0   7  -4    2.10    7.10
   0   7  -4   12.30    4.10
   0   7   4   11.50    8.70
   0   7  -4   11.40    4.60
   0   7  -4    7.10    5.50
   0   7   4    4.40    5.30
   0   7  -4    8.80    4.10
   0   7  -4   15.40    3.90
   0   7   4    5.60    3.60
   0   7   4   10.60    7.40
  -1  -7  -4  693.83   44.40
  -1  -7  -4  682.13   47.60
   1  -7   4  779.62   52.99
   1  -7   4  769.52   53.69
   1  -7   4  775.82   42.40
  -1  -7  -4  719.53   47.30
  -1  -7  -4  719.33   41.60
   1  -7   4  677.53   49.00
  -1   7  -4  718.83   43.40
  -1   7  -4  723.53   42.10
   1   7   4  640.94   48.50
   1   7   4  680.53   47.60
  -1   7  -4  665.93   48.00
  -1   7  -4  729.73   42.60
  -1   7  -4  711.83   45.50
   1   7   4  621.84   49.70
  -1   7  -4  677.43   43.50
  -1   7  -4  680.73   42.60
   1   7   4  684.13   45.70
   1   7   4  650.33   46.50
   2  -7   4  366.56   36.40
  -2  -7  -4  412.16   28.80
  -2  -7  -4  382.16   32.80
   2  -7   4  433.26   37.40
   2  -7   4  370.86   35.50
  -2  -7  -4  415.76   31.20
  -2  -7  -4  411.86   34.20
   2   7   4  440.36   36.10
  -2   7  -4  436.26   29.40
  -2   7  -4  491.85   37.70
   2   7   4  404.06   31.60
  -2   7  -4  410.06   29.60
   2   7   4  479.25   35.00
  -2   7  -4  472.25   33.70
  -2   7  -4  399.96   28.50
   2   7   4  465.85   34.00
   3  -7   4  114.89   20.30
  -3  -7  -4  131.59   18.50
   3  -7   4  143.09   17.40
  -3  -7  -4  141.69   17.60
   3  -7   4  145.69   23.90
   3  -7   4  121.79   22.00
  -3  -7  -4  120.59   14.90
  -3   7  -4  122.29   14.90
   3   7   4  133.59   19.50
  -3   7  -4  130.99   15.40
   3   7   4   98.69   15.90
   3   7   4  108.19   17.60
  -3   7  -4  128.79   16.40
   3   7   4  131.29   17.30
  -3   7  -4  132.19   20.40
  -4  -7  -4  100.49   14.80
   4  -7   4   55.39   17.40
   4  -7   4   84.09   19.20
  -4  -7  -4   69.49   15.10
   4   7   4   83.99   14.30
  -4   7  -4  116.39   15.20
  -4   7  -4   99.79   19.10
   4   7   4   97.99   18.30
   4   7   4   96.89   17.00
  -4   7  -4  105.39   14.80
   4   7   4   56.19   15.60
   4   7   4   83.29   21.10
   5  -7   4  184.08   30.20
   5  -7   4  164.08   28.10
  -5  -7  -4  204.68   25.10
  -5  -7  -4  187.78   22.20
   5   7   4  176.18   24.50
   5   7   4  203.18   25.30
  -5   7  -4  217.78   28.30
   5   7   4  198.28   25.90
  -5   7  -4  243.18   24.80
   5   7   4  208.68   28.40
  -5   7  -4  151.28   21.40
   6  -8  -4   24.40   16.90
   6  -8  -4   17.30   11.70
  -6  -8   4   38.90   13.60
  -6  -8   4   18.10   11.80
  -6   8   4   26.30    9.70
  -6   8   4   18.50   13.20
  -6   8   4   11.10    7.70
   6   8  -4   21.50    8.90
   6   8  -4   24.90   10.90
   6   8  -4    4.00   12.50
  -6   8   4   20.30    8.90
   6   8  -4    7.70    9.00
   5  -8  -4   47.80   15.70
  -5  -8   4   26.30   10.50
   5  -8  -4   36.90   14.40
  -5  -8   4   11.80   10.90
  -5   8   4   29.80    9.70
   5   8  -4   50.99   15.70
   5   8  -4   28.30    9.40
   5   8  -4   30.30   10.40
  -5   8   4   25.30    9.20
  -5   8   4   30.30   10.70
   5   8  -4   21.70    9.90
  -5   8   4   24.20   13.20
   4  -8  -4   62.89   17.70
  -4  -8   4   47.70   13.20
   4  -8  -4   42.50   15.90
  -4  -8   4   63.29   15.80
   4   8  -4   64.09   12.40
   4   8  -4   26.80   10.20
   4   8  -4   49.30   10.90
   4   8  -4   55.89   12.20
  -4   8   4   60.59   11.40
  -4   8   4   53.49   15.80
  -4   8   4   63.79   11.40
  -4   8   4   64.89   11.50
  -3  -8   4  199.08   24.70
   3  -8  -4  165.08   24.60
  -3  -8   4  141.39   21.10
  -3  -8   4  143.79   14.30
   3   8  -4  168.78   18.00
  -3   8   4  141.59   22.60
   3   8  -4  151.08   17.60
  -3   8   4  124.49   15.40
   3   8  -4  168.48   23.70
  -3   8   4  144.79   16.10
   3   8  -4  118.79   14.90
  -2  -8   4  359.96   27.40
  -2  -8   4  288.77   31.00
   2  -8  -4  346.87   37.30
  -2  -8   4  348.97   31.80
   2   8  -4  318.07   23.90
  -2   8   4  312.07   31.10
  -2   8   4  346.97   26.00
  -2   8   4  302.87   28.80
   2   8  -4  322.47   30.60
   2   8  -4  328.07   24.70
  -2   8   4  338.87   25.40
   2   8  -4  393.56   26.60
  -1  -8   4  429.66   35.80
  -1  -8   4  395.36   32.70
  -1  -8   4  365.86   30.30
   1  -8  -4  340.77   37.90
   1   8  -4  338.27   25.70
   1   8  -4  383.36   25.80
   1   8  -4  350.86   26.20
   1   8  -4  374.06   25.00
  -1   8   4  418.76   27.70
   1   8  -4  382.16   27.90
   1   8  -4  372.76   33.50
  -1   8   4  371.86   31.70
  -1   8   4  327.87   31.90
  -1   8   4  387.96   28.10
   0  -8  -4  124.09   15.70
   0  -8   4  154.28   20.10
   0  -8   4  136.49   17.10
   0  -8   4  147.99   22.60
   0  -8  -4  153.18   13.50
   0  -8   4  117.39   17.70
   0  -8  -4  123.79   15.50
   0   8   4  128.09   18.10
   0   8   4  126.89   15.70
   0   8  -4  133.09   12.10
   0   8  -4  134.69   12.20
   0   8   4  141.39   15.40
   0   8   4  144.09   20.20
   0   8  -4  131.19   19.50
   0   8  -4  127.79   12.00
   0   8  -4  127.09   11.70
  -1  -8  -4  111.59   13.60
  -1  -8  -4   84.99   15.50
   1  -8   4   94.59   17.70
   1  -8   4   91.59   17.60
  -1  -8  -4   96.69   15.60
   1  -8   4   99.49   17.30
   1   8   4   80.99   15.50
  -1   8  -4   87.09   10.50
   1   8   4   79.09   13.30
  -1   8  -4   90.99   16.90
   1   8   4  127.89   18.80
   1   8   4  103.29   13.50
  -1   8  -4  111.39   11.40
  -1   8  -4  109.19   11.70
  -1   8  -4  109.49   11.20
  -1   8  -4   90.49   15.80
   2  -8   4  337.17   34.40
   2  -8   4  401.86   34.70
  -2  -8  -4  381.46   29.60
   2  -8   4  328.87   33.90
   2   8   4  408.86   30.30
  -2   8  -4  363.46   34.50
  -2   8  -4  390.66   26.90
   2   8   4  432.46   34.70
   2   8   4  412.16   34.90
   2   8   4  352.86   30.00
  -2   8  -4  354.26   30.50
  -2   8  -4  359.26   25.90
   3  -8   4  138.29   24.30
  -3  -8  -4  129.89   18.00
   3  -8   4   91.59   18.90
   3   8   4  120.39   18.70
  -3   8  -4   96.19   19.30
   3   8   4   91.79   15.70
  -3   8  -4  120.59   14.00
   3   8   4   95.69   18.00
  -3   8  -4  128.29   14.80
  -3   8  -4  125.19   16.30
   3   8   4  112.59   16.50
  -4  -8  -4   94.99   14.00
  -4  -8  -4   87.29   15.50
   4  -8   4  131.69   23.10
   4  -8   4  123.89   25.20
  -4   8  -4  122.39   15.20
  -4   8  -4  152.48   24.00
   4   8   4  132.59   21.40
   4   8   4  136.19   18.90
   4   8   4  143.29   21.10
   4   8   4  125.49   20.50
  -5  -8  -4   87.69   18.20
   5  -8   4   91.69   23.20
   5  -8   4  132.29   27.00
   5   8   4   73.39   18.80
  -5   8  -4   97.89   15.40
  -5   8  -4   82.09   19.00
   5   8   4   88.19   19.50
   5   8   4  149.88   21.40
   5   8   4   95.99   19.30
  -5  -9   4   57.89   14.80
   5  -9  -4   61.89   18.70
   5  -9  -4  102.29   24.10
  -5  -9   4   87.99   19.40
   5   9  -4   62.09   13.20
   5   9  -4   88.39   16.40
  -5   9   4   74.29   20.00
  -5   9   4   52.79   13.80
   5   9  -4   79.09   17.60
   5   9  -4   84.09   15.40
  -5   9   4   81.59   14.40
  -5   9   4   68.29   13.10
  -4  -9   4    6.50   10.70
   4  -9  -4  -10.80   10.50
  -4  -9   4   -1.50    5.90
  -4   9   4    1.90    5.30
   4   9  -4    3.20    7.10
  -4   9   4   -8.90    5.00
   4   9  -4    6.10    6.10
   4   9  -4   17.50    8.40
  -4   9   4    0.60    5.60
  -4   9   4    4.80    6.20
   4   9  -4  -10.50    9.80
   3  -9  -4  200.58   30.60
  -3  -9   4  199.78   26.40
  -3  -9   4  188.18   26.20
  -3   9   4  230.48   31.00
   3   9  -4  184.28   25.70
   3   9  -4  200.78   20.20
   3   9  -4  225.78   20.00
   3   9  -4  221.88   20.30
  -3   9   4  189.38   18.60
  -3   9   4  211.38   19.10
   2  -9  -4  118.79   23.30
  -2  -9   4  119.69   16.30
  -2  -9   4  157.58   22.20
  -2  -9   4  112.99   19.90
  -2   9   4  143.49   15.60
   2   9  -4  157.58   16.30
   2   9  -4  119.89   20.90
  -2   9   4  109.99   19.20
   2   9  -4  138.79   15.20
  -2   9   4  146.49   15.50
   2   9  -4  139.99   15.10
  -2   9   4  147.19   23.80
  -1  -9   4    0.70    8.50
   1  -9  -4    3.40   10.70
  -1  -9   4    0.80    6.70
  -1  -9   4    2.50    6.30
   1   9  -4    1.80    3.70
   1   9  -4   -1.60    3.90
   1   9  -4    2.50    6.30
  -1   9   4   -3.10    4.20
   1   9  -4    0.20    3.80
  -1   9   4    4.90    6.00
   1   9  -4    3.50    3.90
  -1   9   4    3.60    5.10
  -1   9   4   -2.20    8.70
   0  -9   4  184.88   23.40
   0  -9   4  220.28   25.30
   0  -9   4  102.49   20.60
   0  -9  -4  178.08   15.10
   0   9  -4  121.89   19.10
   0   9   4  119.09   20.10
   0   9   4  166.98   17.10
   0   9   4  152.88   17.10
   0   9  -4  145.19   13.10
   0   9  -4  154.48   13.90
   0   9   4  136.79   19.90
   0   9  -4  159.38   13.30
   1  -9   4  163.08   23.00
  -1  -9  -4  164.48   17.80
   1  -9   4  143.19   22.50
   1  -9   4  216.58   27.60
  -1   9  -4  146.39   22.50
   1   9   4  149.09   21.40
  -1   9  -4  131.29   19.80
  -1   9  -4  164.48   16.20
   1   9   4  177.28   22.90
  -1   9  -4  150.68   12.70
  -1   9  -4  154.08   13.10
   1   9   4  140.39   17.70
   1   9   4  159.08   18.00
   2  -9   4  102.79   19.40
   2  -9   4  100.49   18.40
   2  -9   4   91.09   17.90
  -2  -9  -4   95.29   14.90
  -2   9  -4   85.29   16.90
  -2   9  -4   99.79   10.80
   2   9   4  114.79   19.40
   2   9   4  105.59   16.30
  -2   9  -4   89.29   15.60
  -2   9  -4   91.99   12.70
   2   9   4   85.09   14.20
   2   9   4   98.39   16.80
   3  -9   4   27.60   12.80
  -3  -9  -4   21.00    9.40
   3  -9   4   44.70   15.60
   3   9   4   26.90   10.60
   3   9   4   40.10   13.30
   3   9   4   29.40    8.70
  -3   9  -4   17.80    8.80
  -3   9  -4   36.40    7.80
   3   9   4   28.40   10.40
  -3   9  -4   32.50   13.30
   4  -9   4  365.76   42.60
   4  -9   4  368.26   43.10
  -4  -9  -4  345.57   32.90
   4   9   4  363.86   31.90
  -4   9  -4  352.66   27.60
   4   9   4  358.56   37.40
  -4   9  -4  348.27   39.10
   4   9   4  402.26   36.30
   4   9   4  385.76   34.70
  -5 -10   4   22.00   10.30
   5 -10  -4    5.80   15.00
  -5 -10   4   10.70   10.70
   5  10  -4   10.20    9.50
   5  10  -4   26.40   10.60
  -5  10   4   37.90   14.80
   5  10  -4   14.80    9.70
  -5  10   4   17.50    7.80
   5  10  -4    6.90    9.10
   4 -10  -4  499.85   46.80
  -4 -10   4  452.45   40.70
  -4 -10   4  350.26   41.40
   4  10  -4  485.85   35.80
   4  10  -4  461.15   34.80
  -4  10   4  449.86   32.60
   4  10  -4  418.16   41.60
  -4  10   4  381.96   39.90
  -3 -10   4  156.98   23.70
   3 -10  -4  118.49   24.20
  -3 -10   4  174.98   25.30
  -3  10   4  161.08   23.50
   3  10  -4  157.98   17.80
   3  10  -4  122.29   16.00
   3  10  -4   93.69   21.40
  -3  10   4  136.39   15.70
  -3  10   4  140.89   24.20
   3  10  -4  158.98   18.20
  -2 -10   4   14.00    7.80
  -2 -10   4    4.20    9.10
   2 -10  -4   10.80   12.50
  -2 -10   4   27.20   13.30
   2  10  -4    5.20    4.30
   2  10  -4    5.70    6.80
  -2  10   4   11.90    6.70
  -2  10   4    6.10    7.80
   2  10  -4   13.20   10.50
  -2  10   4    8.80    5.20
  -2  10   4   13.20    8.40
  -1 -10   4  181.88   24.10
  -1 -10   4  248.88   31.80
   1 -10  -4  200.28   30.40
  -1 -10   4  234.38   28.90
   1  10  -4  157.68   24.80
   1  10  -4  207.98   18.30
  -1  10   4  271.27   28.80
  -1  10   4  224.68   28.20
  -1  10   4  212.18   19.20
  -1  10   4  223.38   19.30
   0 -10   4   44.20   12.90
   0 -10   4   74.49   16.70
   0 -10   4  103.89   18.30
   0  10  -4   86.99    8.40
   0  10   4   80.99   12.40
   0  10   4   90.49   17.10
   0  10   4  110.99   13.70
   0  10  -4  103.59   19.60
   0  10   4   98.59   18.40
   1 -10   4   18.50   12.30
   1 -10   4   24.60   11.00
   1 -10   4   20.20    8.90
  -1  10  -4   39.20   11.20
   1  10   4   30.50   12.20
  -1  10  -4   29.70    4.50
   1  10   4   38.30   10.90
   1  10   4   15.50    7.90
  -1  10  -4   33.60   11.10
   1  10   4   32.90    8.90
   2 -10   4   72.89   17.60
   2 -10   4  100.79   19.30
  -2 -10  -4  100.59   15.80
   2 -10   4  103.29   21.10
   2  10   4   84.29   17.80
  -2  10  -4  100.89    9.00
  -2  10  -4  113.09   20.40
   2  10   4  105.09   16.40
   2  10   4   89.69   18.30
   2  10   4   95.49   15.20
  -2  10  -4   91.99   16.50
  -3 -10  -4  114.79   18.50
   3 -10   4  111.79   22.30
   3 -10   4   90.49   20.10
   3  10   4   68.79   18.50
  -3  10  -4  104.39   11.20
   3  10   4  102.39   16.50
   3  10   4  111.49   18.90
  -3  10  -4  126.39   22.60
   3  10   4  152.08   19.80
   4 -10   4   25.30   15.40
   4 -10   4   13.20   12.20
  -4 -10  -4   19.30    9.90
  -4  10  -4   11.20    5.40
   4  10   4   17.00    9.00
   4  10   4   23.40   12.00
  -4  10  -4   36.20   14.20
   4  10   4   25.40   11.60
   4  10   4   16.90   10.50
  -4 -11   4   15.10   12.40
   4 -11  -4    7.50   12.30
  -4 -11   4    2.80    8.70
  -4  11   4    6.40    5.10
   4  11  -4   13.30    7.50
  -4  11   4    4.00    8.30
   4  11  -4   -1.30   12.60
  -3 -11   4  127.69   23.30
   3 -11  -4  121.49   26.00
  -3 -11   4  113.19   21.90
  -3  11   4  106.89   12.90
  -3  11   4  119.39   22.50
  -3  11   4  134.49   22.10
   3  11  -4   94.49   13.80
   3  11  -4   83.69   18.90
   2 -11  -4   79.79   20.90
  -2 -11   4  143.79   23.50
  -2 -11   4   36.70   12.70
  -2  11   4   61.79   10.40
  -2  11   4  100.49   20.00
  -2  11   4   80.39   18.10
   2  11  -4   68.79   18.50
   2  11  -4   74.39   10.30
  -1 -11   4  118.59   20.50
  -1 -11   4  107.59   19.00
  -1 -11   4   85.69   19.30
   1 -11  -4   69.69   21.00
  -1  11   4  144.29   23.60
  -1  11   4  104.19   20.60
   1  11  -4  151.48   23.60
   1  11  -4  128.29   11.40
  -1  11   4  114.29   13.90
   0 -11   4  699.43   54.49
   0 -11   4  756.12   58.59
   0  11   4  718.33   54.89
   0  11  -4  691.53   54.79
   0  11   4  734.03   55.89
   0  11   4  683.03   46.80
   1 -11   4  111.49   21.60
   1 -11   4   62.39   15.80
   1 -11   4   80.49   17.20
   1  11   4   55.89   14.10
   1  11   4   85.49   18.40
  -1  11  -4   72.49   15.60
  -1  11  -4   52.59   15.30
   1  11   4   60.49   11.90
   1  11   4   77.89   13.40
   2 -11   4  194.18   30.00
   2 -11   4  188.58   28.20
   2 -11   4  143.99   25.40
   2  11   4  234.28   23.80
  -2  11  -4  145.69   23.10
  -2  11  -4  142.69   21.40
   2  11   4  138.69   19.30
   2  11   4  190.18   26.50
   2  11   4  179.68   25.20
   3 -11   4   18.40   15.70
   3 -11   4   12.00   12.70
   3  11   4   14.90    9.70
  -3  11  -4   21.40   11.10
   3  11   4   26.90   12.50
   3  11   4   19.80   13.20
   3  11   4   23.30   10.50
   3 -12  -4   79.19   22.10
  -3 -12   4  139.99   22.80
  -3 -12   4  117.69   22.80
   3  12  -4  130.59   15.50
  -3  12   4  119.49   23.20
   3  12  -4  108.79   21.70
  -3  12   4   91.49   11.40
  -3  12   4  100.19   20.60
  -2 -12   4   79.09   17.70
  -2 -12   4   57.69   15.30
   2 -12  -4   28.30   14.00
   2  12  -4   57.89   17.30
  -2  12   4   43.10   16.50
  -2  12   4   37.70    7.20
   2  12  -4   40.00    7.80
  -2  12   4   60.89   15.50
  -1 -12   4  194.68   29.00
  -1 -12   4  217.88   29.60
  -1  12   4  207.28   29.00
  -1  12   4  187.08   18.30
   1  12  -4  210.28   29.20
  -1  12   4  281.17   32.50
   0 -12   4   -3.00    7.10
   0 -12   4   -9.80    9.10
   0 -12   4    8.80    9.80
   0  12   4    2.20    8.70
   0  12  -4  -11.10   10.50
   0  12   4    6.70    5.00
   0  12   4    2.90    7.20
   1 -12   4   31.10   15.30
   1 -12   4   28.90   13.00
  -1  12  -4   20.60   10.80
   1  12   4   23.50    8.20
  -1  12  -4   31.50   14.60
   1  12   4   45.40   13.40
   1  12   4   33.70   13.90
   7   0  -5  100.29   19.90
  -7   0   5   68.29   16.20
  -7   0   5  109.69   20.80
  -7   0   5   92.59   17.00
   7   0  -5  118.59   19.80
  -7   0   5  102.79   18.60
   7   0  -5  121.49   17.70
   7   0  -5  147.39   24.90
   6   0  -5    2.90    9.30
   6   0  -5   13.60    7.90
  -6   0   5   -4.50    4.70
  -6   0   5   -1.30    4.70
   6   0  -5    7.40    8.30
  -6   0   5   -1.30    8.20
   6   0  -5   29.70   13.20
  -6   0   5   -6.50    6.60
  -6   0   5    0.80    4.90
   6   0  -5    2.30    4.60
   5   0  -5    7.20    9.00
  -5   0   5   -8.70    4.60
  -5   0   5   -3.10    3.70
  -5   0   5   -6.20    4.90
  -5   0   5    8.50    6.50
   5   0  -5    0.90    5.60
  -5   0   5    6.50    8.50
   5   0  -5   10.00    6.60
   5   0  -5   -4.40    4.80
   5   0  -5   13.60    6.80
  -4   0   5   23.20    7.70
  -4   0   5   20.20    7.20
  -4   0   5   27.30    7.00
   4   0  -5   18.30    8.90
   4   0  -5    7.90    5.10
  -4   0   5   29.40    7.80
   4   0  -5   11.20    6.80
  -4   0   5   21.00    7.60
   4   0  -5   18.20    7.60
   4   0  -5   30.70    9.40
  -4   0   5   27.00    8.60
   3   0  -5  524.95   36.00
  -3   0   5  503.85   34.80
  -3   0   5  500.25   35.50
  -3   0   5  509.95   33.60
  -3   0   5  523.85   33.10
   3   0  -5  504.35   35.80
  -3   0   5  452.25   35.90
   3   0  -5  539.25   37.70
   3   0  -5  531.15   37.30
  -3   0   5  523.25   35.10
  -2   0   5  310.67   24.00
   2   0  -5  333.87   22.40
   2   0  -5  326.57   26.40
  -2   0   5  341.07   26.90
  -2   0   5  336.97   22.60
   2   0  -5  307.27   26.10
   2   0  -5  294.17   24.10
  -2   0   5  326.67   24.90
  -2   0   5  320.47   22.60
   2   0  -5  320.67   25.00
   2   0  -5  392.76   26.00
   1   0  -5  896.91   51.89
  -1   0   5  705.53   46.90
   1   0  -5  772.62   47.50
  -1   0   5  772.62   48.50
   1   0  -5  755.02   45.00
  -1   0   5  675.33   45.70
   1   0  -5  647.14   47.20
   1   0  -5  696.03   47.40
  -1   0   5  855.71   49.00
  -1   0   5  691.53   43.10
   1   0  -5  710.63   46.40
   1   0  -5  713.63   43.80
   0   0  -5  295.17   22.70
   0   0  -5  290.77   22.80
   0   0  -5  276.67   18.40
   0   0  -5  293.57   20.40
   0   0   5  249.58   20.50
   0   0   5  235.78   22.80
   0   0   5  304.07   23.60
   0   0   5  274.77   18.60
   0   0   5  282.47   22.40
   0   0  -5  268.37   23.00
   0   0  -5  284.37   23.70
   1   0   5    9.00    5.70
  -1   0  -5   16.30    5.50
   1   0   5   17.40    2.70
   1   0   5    8.40    5.60
  -1   0  -5    6.50    5.00
  -1   0  -5   12.20    4.40
   1   0   5   14.90    5.60
   1   0   5   12.30    4.50
  -1   0  -5    7.10    5.20
  -1   0  -5   11.20    5.30
   1   0   5   16.10    5.10
  -1   0  -5   12.90    6.90
   2   0   5  108.09   14.00
   2   0   5  107.29   12.20
   2   0   5   88.59   15.70
   2   0   5  119.59   17.40
   2   0   5   92.69   12.70
  -2   0  -5  124.19   14.80
  -2   0  -5   92.99   12.80
  -2   0  -5   80.99   13.50
  -2   0  -5  127.89   16.80
  -2   0  -5   85.39   13.30
   2   0   5  114.99    9.00
   2   0   5   76.09   13.90
  -2   0  -5   89.99   12.60
  -3   0  -5   -4.00    3.10
   3   0   5    7.80    6.00
  -3   0  -5   10.00    6.70
   3   0   5   -5.50    4.20
   3   0   5   -3.30    5.10
   3   0   5   -8.50    5.80
  -3   0  -5   -0.90    4.30
  -3   0  -5    2.60    6.00
   3   0   5    0.50    3.70
  -3   0  -5   -0.40    5.30
   4   0   5    7.30    9.80
   4   0   5   22.20    8.90
   4   0   5   15.20    6.50
  -4   0  -5   13.20    9.40
  -4   0  -5   -3.70    6.20
  -4   0  -5    0.50    9.40
   4   0   5    7.90    7.20
  -4   0  -5    8.60    6.60
   5   0   5  174.68   24.90
   5   0   5  153.28   20.20
  -5   0  -5  176.68   23.10
   5   0   5  165.88   20.00
   5   0   5  165.68   27.10
  -5   0  -5  119.29   20.10
   5   0   5  135.09   20.50
  -5   0  -5  228.18   24.50
  -6   0  -5   54.99   14.30
   6   0   5   24.80   10.40
  -6   0  -5   52.99   13.50
   6   0   5   39.80   10.80
   6   0   5   40.30   14.20
  -6   0  -5   31.70   14.10
   6   0   5   47.10   15.00
   7  -1  -5   56.09   16.50
  -7  -1   5   42.90   13.70
   7  -1  -5   54.29   13.40
  -7  -1   5   19.40    9.70
   7  -1  -5   42.40   14.20
   7  -1  -5   35.80   14.00
  -7  -1   5   44.60   14.10
  -7  -1   5   40.50   13.20
  -7   1   5   52.09   13.40
  -7   1   5   28.80   12.00
   7   1  -5   34.50   10.70
  -7   1   5   51.69   14.50
   7   1  -5   45.80   13.50
  -7   1   5   52.39   13.50
  -7   1   5   52.69   13.90
  -6  -1   5   -3.30    8.80
  -6  -1   5   12.70    7.00
  -6  -1   5    0.70    7.50
  -6  -1   5    4.30    8.30
  -6  -1   5   14.20    9.10
   6  -1  -5    5.80   10.00
   6  -1  -5   16.20   12.00
   6  -1  -5    1.20    6.90
   6  -1  -5    1.70    4.50
   6  -1  -5    8.30    7.70
   6   1  -5    7.80    7.60
  -6   1   5   -2.10    7.80
  -6   1   5   12.10    9.10
   6   1  -5    1.70    4.80
   6   1  -5   10.50    7.10
   6   1  -5    9.10   10.00
  -6   1   5    2.30    5.50
  -6   1   5   -1.70    8.80
  -6   1   5    6.20    7.40
  -5  -1   5   75.79   13.00
  -5  -1   5   73.49   15.10
   5  -1  -5   69.29   16.20
  -5  -1   5   86.99   14.20
  -5  -1   5   52.39   12.50
   5  -1  -5  115.09   16.40
   5  -1  -5   74.09   13.80
  -5  -1   5   82.49   12.10
   5  -1  -5   86.69   14.60
   5  -1  -5   93.69   13.20
   5   1  -5   94.99   14.60
   5   1  -5  104.39   13.20
  -5   1   5   74.39   13.10
   5   1  -5   86.39   15.10
  -5   1   5   62.19   13.40
  -5   1   5   80.09   14.70
  -5   1   5   85.69   13.10
   5   1  -5  102.19   15.30
  -5   1   5   69.99   13.40
   4  -1  -5   80.59   15.00
   4  -1  -5  105.39   13.80
   4  -1  -5  105.29   14.40
  -4  -1   5   79.49   12.60
  -4  -1   5   94.89   13.30
  -4  -1   5  102.59   12.50
   4  -1  -5   88.39   12.50
  -4  -1   5   71.19   13.70
   4  -1  -5  125.49   17.30
  -4   1   5   94.59   11.70
   4   1  -5   76.89   12.40
  -4   1   5   80.89   13.50
   4   1  -5   95.29   13.70
  -4   1   5   72.29   12.00
   4   1  -5   82.29   10.40
  -4   1   5   74.29   13.40
  -4   1   5   78.19   13.20
  -4   1   5  101.99   15.00
   4   1  -5   83.29   14.30
  -3  -1   5  485.05   31.70
  -3  -1   5  514.15   34.80
  -3  -1   5  462.55   27.50
   3  -1  -5  416.16   33.90
  -3  -1   5  444.26   30.20
  -3  -1   5  435.26   31.70
   3  -1  -5  432.66   31.60
  -3  -1   5  431.76   29.30
   3  -1  -5  483.45   34.40
   3  -1  -5  548.25   34.10
  -3   1   5  445.86   31.00
   3   1  -5  401.26   32.20
  -3   1   5  422.26   32.80
   3   1  -5  419.56   32.10
  -3   1   5  415.86   31.40
  -3   1   5  454.45   32.80
   3   1  -5  407.76   32.70
  -3   1   5  430.86   28.90
   2  -1  -5  298.77   24.00
  -2  -1   5  313.87   19.80
   2  -1  -5  310.67   22.80
  -2  -1   5  289.17   24.40
   2  -1  -5  309.97   24.90
   2  -1  -5  313.47   25.00
  -2  -1   5  269.77   23.10
   2  -1  -5  269.97   24.00
  -2  -1   5  327.17   23.30
  -2  -1   5  314.67   22.90
  -2  -1   5  294.97   20.30
   2   1  -5  321.57   23.90
   2   1  -5  315.77   22.60
  -2   1   5  293.97   23.30
  -2   1   5  318.17   25.00
   2   1  -5  321.17   25.60
   2   1  -5  324.27   26.90
   2   1  -5  305.57   22.70
  -2   1   5  321.07   23.60
  -2   1   5  319.37   25.80
  -2   1   5  333.77   20.40
   2   1  -5  283.37   23.90
   2   1  -5  388.26   27.50
  -1  -1   5  323.17   21.70
   1  -1  -5  317.87   21.20
  -1  -1   5  283.87   22.60
   1  -1  -5  261.47   21.60
   1  -1  -5  323.67   23.60
   1  -1  -5  340.87   25.20
   1  -1  -5  269.47   24.10
  -1  -1   5  258.77   23.60
  -1  -1   5  299.17   23.40
   1  -1  -5  286.97   18.80
  -1  -1   5  272.77   18.20
  -1  -1   5  301.87   22.10
  -1   1   5  300.27   24.60
   1   1  -5  297.17   20.70
   1   1  -5  330.87   24.40
   1   1  -5  252.47   22.60
   1   1  -5  296.27   22.80
  -1   1   5  283.37   23.40
   1   1  -5  265.67   23.40
   1   1  -5  337.17   23.90
   1   1  -5  307.77   21.70
  -1   1   5  269.07   20.40
  -1   1   5  301.57   22.80
   0  -1   5  151.78   10.60
   0  -1  -5  135.69   17.00
   0  -1   5  160.88   15.40
   0  -1   5  165.38   18.10
   0  -1   5  152.68   14.20
   0  -1  -5  158.98   12.50
   0  -1   5  155.38   15.40
   0  -1  -5  144.19   15.80
   0  -1  -5  164.28   13.30
   0  -1  -5  132.09   16.50
   0   1   5  148.89   13.00
   0   1   5  145.59   14.80
   0   1   5  160.38   12.80
   0   1   5  133.49   16.40
   0   1  -5  141.39   13.60
   0   1  -5  147.99   17.70
   0   1  -5  145.79   16.00
   0   1   5  158.18   18.10
   0   1  -5  141.59   16.50
   0   1  -5  139.59   16.90
   0   1   5  165.58   14.70
   0   1  -5  159.98   10.20
   1  -1   5  160.18   18.80
  -1  -1  -5  149.99   17.10
   1  -1   5  161.28   12.20
  -1  -1  -5  172.68   14.60
   1  -1   5  141.79   17.00
  -1  -1  -5  189.78   20.20
  -1  -1  -5  157.38   19.00
   1  -1   5  164.48   18.10
   1  -1   5  151.08   15.50
   1  -1   5  172.68   20.10
  -1  -1  -5  151.28   14.00
  -1   1  -5  179.28   18.70
   1   1   5  154.48   14.00
  -1   1  -5  156.38   16.80
  -1   1  -5  181.88   18.20
  -1   1  -5  147.79   12.10
   1   1   5  132.89   14.10
  -1   1  -5  161.18   18.10
   1   1   5  154.48   17.60
   1   1   5  155.98   19.00
  -1   1  -5  131.19   17.20
   1   1   5  154.38   12.50
   1   1   5  138.89   15.30
  -2  -1  -5  318.07   26.70
   2  -1   5  319.37   23.30
   2  -1   5  363.26   28.90
  -2  -1  -5  338.67   24.10
   2  -1   5  315.77   22.20
   2  -1   5  348.67   26.90
  -2  -1  -5  299.57   25.00
   2  -1   5  339.37   29.20
  -2  -1  -5  346.37   23.60
   2  -1   5  340.67   26.50
  -2  -1  -5  272.27   25.90
   2   1   5  291.97   21.60
   2   1   5  310.37   23.70
  -2   1  -5  274.77   25.10
   2   1   5  369.66   28.30
  -2   1  -5  288.27   25.00
  -2   1  -5  325.87   22.20
  -2   1  -5  276.07   25.50
  -2   1  -5  284.37   25.10
   2   1   5  291.77   26.70
   2   1   5  255.87   25.80
   2   1   5  292.77   24.30
   2   1   5  258.67   22.40
  -3  -1  -5  895.51   63.79
  -3  -1  -5  932.81   63.19
  -3  -1  -5  879.61   57.89
   3  -1   5 1020.80   62.89
   3  -1   5  991.60   65.69
   3  -1   5  960.50   54.49
  -3  -1  -5  940.81   59.39
  -3  -1  -5  884.11   61.19
   3  -1   5 1011.10   58.89
   3  -1   5  843.22   58.29
   3  -1   5  921.31   60.89
   3   1   5 1023.80   64.39
   3   1   5  883.11   63.29
  -3   1  -5  982.40   63.69
  -3   1  -5  942.51   60.79
  -3   1  -5  904.31   61.99
   3   1   5 1096.39   61.29
  -3   1  -5  909.01   61.19
   3   1   5  896.01   61.99
   3   1   5 1005.70   60.39
  -3   1  -5  974.30   61.69
  -4  -1  -5   83.49   15.90
   4  -1   5   89.09   17.90
   4  -1   5   69.99   12.00
  -4  -1  -5   73.39   14.70
   4  -1   5   88.49   11.10
  -4  -1  -5   90.59   14.30
   4  -1   5   86.39   13.30
   4  -1   5   88.79   17.80
   4  -1   5  100.59   17.10
   4   1   5  109.49   15.50
  -4   1  -5  105.69   16.50
   4   1   5  100.69   15.70
   4   1   5   89.89   16.50
   4   1   5   55.39   14.30
  -4   1  -5   92.39   15.80
  -4   1  -5  116.99   17.60
   5  -1   5   33.50   12.70
   5  -1   5   50.29   13.60
  -5  -1  -5   25.60    8.30
   5  -1   5   38.50   11.20
  -5  -1  -5   11.90    9.30
  -5  -1  -5   26.30   11.80
   5  -1   5   13.50    7.20
   5  -1   5   30.50   12.20
  -5   1  -5   36.40   11.70
  -5   1  -5   46.40   12.40
   5   1   5   35.80   12.70
   5   1   5   23.00   10.20
   5   1   5   42.00   13.80
   5   1   5   19.50    9.70
  -5   1  -5   16.30   10.30
   6  -1   5  156.68   27.40
   6  -1   5  173.88   25.30
   6  -1   5  204.98   22.60
  -6  -1  -5  204.28   28.60
   6  -1   5  178.58   20.90
  -6  -1  -5  217.88   26.70
  -6  -1  -5  168.68   22.70
   6  -1   5  181.18   24.50
   6   1   5  178.18   26.50
  -6   1  -5  183.78   24.40
   6   1   5  201.18   25.30
  -6   1  -5  216.08   28.20
  -6   1  -5  184.38   25.90
   6   1   5  150.08   27.00
   6   1   5  163.98   21.40
   6   1   5  166.48   25.60
  -7  -2   5   15.00   11.50
  -7  -2   5   12.50   12.30
  -7  -2   5   10.00   10.20
   7  -2  -5   12.30   12.90
   7  -2  -5   14.70   10.80
   7  -2  -5   41.40   12.00
  -7  -2   5   25.40   11.10
   7  -2  -5   25.80   11.50
  -7   2   5   27.60   13.70
   7   2  -5   20.50    8.40
  -7   2   5    7.30    6.80
   7   2  -5   37.80   13.50
  -7   2   5   22.30   12.70
  -7   2   5   27.20   11.40
  -6  -2   5  651.43   48.30
  -6  -2   5  683.43   45.90
   6  -2  -5  540.85   46.40
   6  -2  -5  622.44   43.60
   6  -2  -5  567.64   48.90
  -6  -2   5  561.04   45.10
  -6  -2   5  565.74   45.90
   6  -2  -5  763.42   50.19
  -6   2   5  612.24   45.60
   6   2  -5  581.84   46.60
  -6   2   5  559.04   46.00
   6   2  -5  671.63   44.40
   6   2  -5  543.35   43.60
  -6   2   5  597.64   46.10
   6   2  -5  570.34   46.20
  -6   2   5  567.34   45.80
   5  -2  -5  299.97   28.40
  -5  -2   5  297.07   21.90
  -5  -2   5  275.17   26.50
   5  -2  -5  305.47   23.40
   5  -2  -5  244.58   23.40
   5  -2  -5  256.27   31.50
   5  -2  -5  270.37   27.20
  -5  -2   5  281.87   29.20
  -5  -2   5  328.37   26.60
  -5  -2   5  260.37   26.20
   5   2  -5  309.87   26.70
  -5   2   5  307.07   27.10
  -5   2   5  230.68   26.70
   5   2  -5  272.17   29.60
   5   2  -5  264.17   22.30
  -5   2   5  308.47   24.10
  -5   2   5  292.77   27.50
  -5   2   5  316.67   27.60
   5   2  -5  336.47   27.70
  -4  -2   5  419.06   30.20
   4  -2  -5  392.96   33.20
  -4  -2   5  319.67   27.50
   4  -2  -5  359.06   29.80
   4  -2  -5  334.37   29.00
   4  -2  -5  347.77   26.70
  -4  -2   5  370.46   24.90
  -4  -2   5  373.26   30.50
   4  -2  -5  384.56   28.60
   4   2  -5  382.56   30.10
  -4   2   5  305.77   28.90
   4   2  -5  343.47   30.20
   4   2  -5  351.46   23.50
  -4   2   5  374.86   29.00
  -4   2   5  376.86   25.60
   4   2  -5  380.26   29.30
  -4   2   5  337.77   29.90
  -4   2   5  370.96   28.70
   3  -2  -5  242.28   21.80
  -3  -2   5  219.08   19.90
   3  -2  -5  228.98   20.60
   3  -2  -5  227.68   22.40
   3  -2  -5  253.17   20.30
  -3  -2   5  217.88   20.40
  -3  -2   5  234.88   17.80
  -3  -2   5  235.88   22.30
  -3  -2   5  244.88   17.50
  -3   2   5  250.07   20.60
  -3   2   5  246.18   16.70
   3   2  -5  241.58   22.40
  -3   2   5  233.08   21.20
   3   2  -5  206.08   19.70
  -3   2   5  238.28   19.40
  -3   2   5  214.38   20.70
   3   2  -5  218.58   21.80
  -3   2   5  271.67   23.30
  -2  -2   5  445.86   33.30
   2  -2  -5  505.75   33.10
   2  -2  -5  482.15   34.30
   2  -2  -5  570.64   35.60
  -2  -2   5  512.15   32.50
   2  -2  -5  506.15   35.00
   2  -2  -5  516.15   31.20
  -2  -2   5  447.86   35.40
  -2  -2   5  470.45   28.30
  -2  -2   5  472.35   30.60
  -2  -2   5  456.35   32.10
   2   2  -5  486.05   30.90
  -2   2   5  478.05   34.40
  -2   2   5  388.86   31.60
   2   2  -5  490.35   34.30
  -2   2   5  455.45   33.60
  -2   2   5  468.25   33.30
  -2   2   5  417.16   33.80
   2   2  -5  451.65   33.30
   2   2  -5  448.36   32.70
  -2   2   5  463.05   27.10
   2   2  -5  432.96   33.90
   1  -2  -5    5.70    6.20
   1  -2  -5    3.00    4.60
   1  -2  -5    2.30    1.30
  -1  -2   5   -0.50    2.60
  -1  -2   5    4.10    6.20
  -1  -2   5    2.40    1.10
   1  -2  -5    2.10    2.90
   1  -2  -5    4.70    5.50
  -1  -2   5   -2.00    2.70
  -1  -2   5    5.00    3.70
  -1  -2   5    2.20    1.20
  -1  -2   5    6.90    4.70
   1  -2  -5    5.80    5.40
  -1  -2   5   -0.90    3.80
  -1   2   5   -4.10    3.90
  -1   2   5    7.90    5.00
  -1   2   5   13.30    5.60
   1   2  -5    1.30    3.30
   1   2  -5   -0.20    4.70
   1   2  -5   -3.80    4.50
  -1   2   5    0.10    5.50
  -1   2   5   -3.70    3.50
   1   2  -5    1.30    4.00
  -1   2   5   -7.00    2.80
   1   2  -5    6.70    4.40
   1   2  -5  -10.20    4.60
   0  -2   5  130.49   16.90
   0  -2  -5  115.79   14.80
   0  -2  -5  124.19   13.60
   0  -2   5  135.89   15.10
   0  -2  -5  120.09   15.50
   0  -2  -5  116.89    9.50
   0  -2  -5  125.09   14.60
   0  -2   5  102.69   12.00
   0  -2   5  112.29   12.20
   0  -2   5  126.09   17.00
   0  -2   5   96.29   12.90
   0   2  -5  110.59    6.70
   0   2   5  110.09   12.50
   0   2  -5  103.49   13.60
   0   2  -5  107.59   13.70
   0   2   5   93.79   12.10
   0   2   5  126.29   15.80
   0   2   5  124.09   13.90
   0   2  -5  128.99   15.90
   0   2  -5  106.89   13.50
   0   2   5  107.49   15.50
   0   2   5  120.29   13.00
  -1  -2  -5  403.16   28.10
  -1  -2  -5  326.07   27.40
   1  -2   5  325.17   27.50
   1  -2   5  318.97   27.50
   1  -2   5  347.57   26.30
  -1  -2  -5  323.37   23.10
   1  -2   5  331.47   24.50
  -1  -2  -5  343.97   27.80
   1  -2   5  335.57   29.60
   1  -2   5  322.27   21.20
   1  -2   5  353.36   24.30
  -1   2  -5  334.27   26.70
   1   2   5  350.16   24.10
  -1   2  -5  327.27   26.70
  -1   2  -5  390.46   28.60
  -1   2  -5  392.96   27.80
  -1   2  -5  354.66   21.60
   1   2   5  374.16   24.80
   1   2   5  409.56   29.20
   1   2   5  304.57   28.40
   1   2   5  348.57   25.40
  -1   2  -5  327.77   25.50
   1   2   5  320.97   25.70
  -2  -2  -5  737.83   50.19
  -2  -2  -5  742.03   50.69
   2  -2   5  701.83   50.49
  -2  -2  -5  671.83   48.30
   2  -2   5  771.22   49.20
   2  -2   5  726.63   50.39
   2  -2   5  751.72   44.40
  -2  -2  -5  692.83   45.20
   2  -2   5  789.02   46.10
   2  -2   5  704.73   51.59
   2   2   5  792.82   48.00
   2   2   5  744.13   51.79
   2   2   5  747.43   45.00
  -2   2  -5  676.73   48.80
   2   2   5  679.73   49.70
  -2   2  -5  689.43   47.70
   2   2   5  777.22   46.70
  -2   2  -5  663.63   48.50
  -2   2  -5  764.92   49.00
  -2   2  -5  741.33   49.10
   2   2   5  698.73   47.60
  -2   2  -5  813.92   44.80
   3  -2   5  829.22   47.50
   3  -2   5  753.62   54.39
   3  -2   5  902.71   52.49
  -3  -2  -5  751.92   56.09
   3  -2   5  825.42   56.69
  -3  -2  -5  905.31   56.69
  -3  -2  -5  826.82   52.69
   3  -2   5  819.92   59.19
  -3  -2  -5  830.52   50.59
   3  -2   5  827.02   59.49
  -3  -2  -5  821.82   57.89
   3  -2   5  874.31   52.19
   3   2   5  873.51   58.19
  -3   2  -5  743.53   54.99
  -3   2  -5  909.41   56.29
  -3   2  -5  791.52   55.29
   3   2   5  864.11   54.99
  -3   2  -5  901.11   55.19
   3   2   5  768.32   53.59
  -3   2  -5  865.91   57.29
   3   2   5  836.42   58.29
   3   2   5  868.51   53.99
   3   2   5  761.82   55.79
  -4  -2  -5  389.66   32.70
  -4  -2  -5  381.56   30.00
   4  -2   5  351.66   35.30
   4  -2   5  376.96   28.90
   4  -2   5  416.66   28.90
   4  -2   5  316.47   37.60
   4  -2   5  344.17   30.90
  -4  -2  -5  379.36   34.50
  -4   2  -5  380.36   32.70
  -4   2  -5  393.46   32.90
  -4   2  -5  392.66   31.80
   4   2   5  485.55   36.10
   4   2   5  324.07   32.70
  -4   2  -5  353.06   29.20
   4   2   5  335.37   30.20
   4   2   5  373.16   32.00
   4   2   5  402.26   33.10
  -5  -2  -5  275.17   30.30
  -5  -2  -5  226.58   29.00
   5  -2   5  285.97   25.70
   5  -2   5  259.87   22.60
   5  -2   5  301.27   37.00
   5  -2   5  270.97   23.50
   5  -2   5  211.78   30.40
   5   2   5  281.97   31.50
  -5   2  -5  222.78   27.40
   5   2   5  283.77   29.00
  -5   2  -5  260.27   29.10
  -5   2  -5  241.08   29.40
   5   2   5  275.47   27.50
   5   2   5  232.98   26.60
  -6  -2  -5   97.39   17.50
   6  -2   5  117.89   22.80
  -6  -2  -5  134.29   22.00
   6  -2   5  100.89   22.90
  -6  -2  -5  118.29   22.80
   6   2   5  155.48   23.20
   6   2   5  101.89   20.00
   6   2   5   84.59   17.80
   6   2   5   79.79   15.20
  -6   2  -5  114.59   20.60
  -6   2  -5  109.79   20.00
  -6   2  -5   98.49   18.80
  -7  -3   5   -4.80    5.00
  -7  -3   5   10.70   10.00
   7  -3  -5   -8.00    9.00
   7  -3  -5    4.10   11.80
  -7  -3   5    6.10    8.90
  -7  -3   5    9.90    8.10
   7  -3  -5   -4.70    6.00
  -7   3   5   -3.30    9.10
   7   3  -5    4.40    9.40
  -7   3   5    5.10    9.30
  -7   3   5   -2.60    5.30
   7   3  -5    7.60    7.80
  -7   3   5    2.60    9.40
   6  -3  -5    2.90    9.60
  -6  -3   5    8.50    5.80
   6  -3  -5    9.80    6.80
  -6  -3   5   -5.80    9.10
  -6  -3   5   25.30    9.80
   6  -3  -5   19.30    8.00
   6  -3  -5    4.10   10.40
   6   3  -5   16.50   11.50
  -6   3   5   10.10    9.70
  -6   3   5   25.30    9.40
   6   3  -5   12.90    8.10
  -6   3   5   16.90    9.90
  -6   3   5   11.80   10.40
   6   3  -5   11.00    9.20
   5  -3  -5  902.91   59.09
   5  -3  -5  867.31   54.89
   5  -3  -5  874.31   53.09
   5  -3  -5  881.01   62.19
   5  -3  -5  875.31   59.89
  -5  -3   5  804.22   57.89
  -5  -3   5  801.92   55.19
  -5  -3   5  853.71   57.79
   5   3  -5  849.32   51.49
  -5   3   5  795.72   57.99
  -5   3   5  749.62   56.59
   5   3  -5  874.11   57.59
  -5   3   5  780.12   56.29
   5   3  -5  834.92   58.49
  -5   3   5  791.42   55.69
   5   3  -5  988.30   58.79
   4  -3  -5  296.47   26.90
  -4  -3   5  291.67   19.20
  -4  -3   5  251.07   26.00
  -4  -3   5  268.47   25.20
   4  -3  -5  290.97   23.60
   4  -3  -5  307.37   24.50
   4  -3  -5  253.07   30.00
   4  -3  -5  321.87   28.70
  -4  -3   5  266.37   24.00
  -4   3   5  355.36   27.10
   4   3  -5  315.87   26.20
   4   3  -5  318.07   27.60
   4   3  -5  308.57   18.20
   4   3  -5  293.47   26.30
  -4   3   5  269.07   25.10
  -4   3   5  361.06   26.40
  -4   3   5  279.17   21.50
  -4   3   5  312.97   28.40
   3  -3  -5   20.00    7.20
  -3  -3   5    9.50    5.70
   3  -3  -5   24.80    9.90
   3  -3  -5    9.50    6.20
  -3  -3   5   21.10    9.30
  -3  -3   5   14.10    4.70
  -3  -3   5   14.10    3.70
  -3  -3   5   10.40    6.90
   3  -3  -5   17.50    6.20
  -3  -3   5   20.10    6.10
  -3   3   5   10.90    5.70
  -3   3   5   20.70    7.20
  -3   3   5   18.30    3.70
   3   3  -5    1.30    6.20
   3   3  -5   17.90    7.00
  -3   3   5   13.90    6.30
  -3   3   5    9.10    7.80
   3   3  -5   14.00    7.60
  -3   3   5   19.30    8.00
  -2  -3   5   87.59    7.60
  -2  -3   5   85.99   11.20
   2  -3  -5   50.69   11.10
  -2  -3   5   98.69   13.40
   2  -3  -5   86.09   11.60
  -2  -3   5   91.49   11.00
   2  -3  -5   84.19    9.50
  -2  -3   5   89.19    9.60
   2  -3  -5   89.59   13.30
  -2  -3   5  109.79   15.80
   2  -3  -5  107.69   14.80
  -2  -3   5   88.59   12.40
  -2   3   5   99.29   14.00
  -2   3   5   85.09   13.20
   2   3  -5   65.59   11.30
  -2   3   5   91.99   12.60
   2   3  -5   86.19   13.70
   2   3  -5   99.09   13.70
  -2   3   5  109.39   14.60
   2   3  -5   88.79   11.90
   2   3  -5   91.19   10.00
  -1  -3   5  523.45   37.20
   1  -3  -5  541.85   37.00
   1  -3  -5  560.04   33.30
  -1  -3   5  587.84   35.30
   1  -3  -5  548.85   38.80
  -1  -3   5  562.44   38.20
  -1  -3   5  537.55   35.70
   1  -3  -5  559.24   38.90
   1  -3  -5  598.04   39.60
  -1  -3   5  573.24   35.40
  -1  -3   5  528.55   40.40
  -1  -3   5  542.35   32.40
  -1  -3   5  558.34   39.40
  -1   3   5  548.25   37.40
   1   3  -5  486.55   37.20
  -1   3   5  578.14   39.10
  -1   3   5  519.15   39.60
  -1   3   5  554.04   37.40
   1   3  -5  535.15   37.90
   1   3  -5  614.24   36.50
   1   3  -5  668.73   38.40
  -1   3   5  561.04   39.00
   1   3  -5  572.74   40.10
   0  -3   5  479.85   30.80
   0  -3   5  513.55   32.10
   0  -3   5  423.06   35.90
   0  -3  -5  443.06   34.90
   0  -3  -5  477.55   33.30
   0  -3  -5  485.65   28.60
   0  -3   5  500.95   33.80
   0  -3  -5  491.95   28.80
   0  -3   5  524.65   31.00
   0  -3  -5  424.96   34.50
   0  -3  -5  488.45   28.50
   0  -3   5  388.06   34.60
   0  -3  -5  496.25   34.40
   0  -3   5  552.54   34.50
   0   3  -5  589.44   35.30
   0   3  -5  484.65   27.70
   0   3  -5  453.55   35.40
   0   3   5  443.46   32.90
   0   3   5  447.46   31.40
   0   3   5  503.55   33.80
   0   3   5  454.75   34.80
   0   3   5  464.85   33.10
   0   3  -5  461.15   32.90
   0   3  -5  481.75   34.20
   0   3   5  492.35   36.90
   0   3   5  586.94   36.30
   1  -3   5  217.98   15.90
   1  -3   5  224.58   19.30
   1  -3   5  216.48   16.30
  -1  -3  -5  252.87   21.60
  -1  -3  -5  188.58   18.10
   1  -3   5  191.48   19.00
  -1  -3  -5  206.18   22.50
  -1  -3  -5  201.18   14.70
   1  -3   5  203.68   20.90
   1  -3   5  218.58   24.50
   1   3   5  222.38   19.30
   1   3   5  253.27   20.10
   1   3   5  189.88   15.40
  -1   3  -5  180.88   20.70
  -1   3  -5  198.48   18.60
  -1   3  -5  234.78   19.90
   1   3   5  179.08   17.90
   1   3   5  188.68   22.30
  -1   3  -5  220.88   13.50
  -1   3  -5  180.78   21.30
  -1   3  -5  232.38   19.20
   1   3   5  198.58   19.60
  -2  -3  -5  540.65   37.70
  -2  -3  -5  541.05   39.60
  -2  -3  -5  444.16   38.40
   2  -3   5  574.24   34.00
   2  -3   5  488.25   39.40
   2  -3   5  446.06   40.30
   2  -3   5  565.34   37.50
  -2  -3  -5  544.25   33.30
   2  -3   5  518.25   33.50
   2  -3   5  485.15   39.00
  -2   3  -5  519.05   32.60
   2   3   5  475.45   38.00
  -2   3  -5  510.15   37.90
  -2   3  -5  518.15   37.30
  -2   3  -5  517.85   38.60
   2   3   5  512.55   36.90
   2   3   5  482.05   40.00
  -2   3  -5  570.44   37.60
  -2   3  -5  536.65   37.50
   2   3   5  603.14   38.20
   3  -3   5 1124.59   76.09
   3  -3   5 1121.49   74.29
  -3  -3  -5 1196.18   68.39
   3  -3   5 1115.69   76.09
  -3  -3  -5 1205.98   76.19
  -3  -3  -5 1135.79   71.89
  -3  -3  -5 1113.49   74.29
   3  -3   5 1087.79   67.69
   3  -3   5 1149.19   71.49
   3  -3   5 1154.78   63.39
   3  -3   5 1115.79   66.79
  -3   3  -5 1119.49   72.29
   3   3   5 1057.09   73.19
   3   3   5 1136.99   73.69
  -3   3  -5 1217.58   71.29
   3   3   5 1094.49   70.89
  -3   3  -5 1170.38   72.09
  -3   3  -5 1280.07   74.89
   3   3   5 1089.29   70.99
   3   3   5 1106.29   74.49
  -3   3  -5 1087.19   70.79
  -3   3  -5 1096.79   72.89
  -4  -3  -5   11.70    8.20
   4  -3   5   17.60    7.40
  -4  -3  -5   20.10    7.20
  -4  -3  -5    4.80    8.50
   4  -3   5    5.30    4.30
   4  -3   5   17.00   12.70
   4  -3   5   14.10    5.70
   4  -3   5    9.30    8.80
   4   3   5   35.50   11.40
  -4   3  -5    7.10    8.20
   4   3   5   16.60    9.00
  -4   3  -5   12.40    7.10
   4   3   5   22.20   11.60
   4   3   5    6.00    9.10
  -4   3  -5    5.40    8.60
   4   3   5   18.90    7.60
  -4   3  -5   21.00    9.60
  -5  -3  -5    2.60   11.20
   5  -3   5   20.40   12.20
   5  -3   5   23.90   12.70
   5  -3   5   33.40    8.80
  -5  -3  -5   28.80   10.50
  -5  -3  -5   33.50   10.60
   5  -3   5   17.80    6.90
   5   3   5   28.00   10.50
   5   3   5   18.70   10.70
  -5   3  -5   10.60    9.50
  -5   3  -5   56.99   14.30
  -5   3  -5   32.70   11.00
   5   3   5   36.60   11.50
   5   3   5    7.80   11.00
  -6  -3  -5  231.88   28.30
  -6  -3  -5  218.38   29.40
   6  -3   5  198.58   31.00
  -6  -3  -5  215.18   24.80
   6  -3   5  324.37   40.60
  -6   3  -5  295.57   32.70
   6   3   5  212.78   26.00
  -6   3  -5  198.28   26.80
   6   3   5  194.28   27.00
  -6   3  -5  246.18   28.90
   6   3   5  156.58   25.60
   7  -4  -5  236.78   34.10
  -7  -4   5  216.98   26.00
  -7  -4   5  252.17   30.40
   7  -4  -5  209.78   30.40
  -7  -4   5  206.68   28.90
  -7   4   5  199.08   26.80
  -7   4   5  269.87   29.70
   7   4  -5  205.48   27.80
   7   4  -5  227.88   27.70
  -7   4   5  213.98   30.20
  -6  -4   5   94.49   18.50
   6  -4  -5   92.29   18.10
  -6  -4   5  110.49   18.70
   6  -4  -5   85.69   19.20
  -6  -4   5  114.29   16.40
   6  -4  -5   79.79   12.40
  -6   4   5   96.39   16.10
   6   4  -5   88.49   16.50
   6   4  -5   75.89   15.30
  -6   4   5   76.59   16.60
  -6   4   5   77.09   15.90
  -6   4   5   85.79   18.40
   6   4  -5  103.19   19.00
   5  -4  -5  302.17   30.50
  -5  -4   5  238.78   23.70
  -5  -4   5  255.67   28.90
   5  -4  -5  235.08   30.20
   5  -4  -5  248.28   21.40
   5  -4  -5  359.96   29.00
  -5  -4   5  274.57   26.60
   5  -4  -5  310.07   23.60
   5   4  -5  249.97   27.90
  -5   4   5  321.27   26.50
  -5   4   5  260.47   28.10
  -5   4   5  287.97   26.30
   5   4  -5  256.67   27.10
  -5   4   5  251.87   29.80
   5   4  -5  254.17   28.40
   4  -4  -5  292.37   22.80
   4  -4  -5  335.67   29.70
   4  -4  -5  266.47   31.20
  -4  -4   5  255.27   22.20
  -4  -4   5  246.48   28.90
  -4  -4   5  269.17   25.90
   4  -4  -5  287.57   22.20
  -4  -4   5  242.78   26.90
   4  -4  -5  325.27   26.80
  -4   4   5  248.18   22.10
  -4   4   5  227.38   27.70
  -4   4   5  251.27   23.90
   4   4  -5  250.37   24.50
  -4   4   5  276.77   25.40
   4   4  -5  277.27   24.90
   4   4  -5  267.37   26.40
  -3  -4   5 1147.09   71.89
   3  -4  -5 1215.08   75.29
   3  -4  -5 1237.88   79.29
  -3  -4   5 1199.48   79.09
  -3  -4   5 1282.37   75.99
  -3  -4   5 1173.28   70.19
  -3  -4   5 1098.09   75.29
   3  -4  -5 1290.27   74.09
   3  -4  -5 1098.59   73.69
   3  -4  -5 1231.58   72.39
  -3  -4   5 1272.27   73.79
  -3   4   5 1208.68   75.69
  -3   4   5 1189.98   72.09
  -3   4   5 1242.48   78.69
   3   4  -5 1284.27   76.59
  -3   4   5 1225.78   74.39
  -3   4   5 1260.97   75.79
   3   4  -5 1195.38   77.09
   3   4  -5 1338.87   75.29
  -3   4   5 1227.98   67.49
   3   4  -5 1245.38   76.09
   2  -4  -5  144.09   18.60
  -2  -4   5   97.99    7.90
  -2  -4   5   96.89   10.90
  -2  -4   5   82.99   15.80
   2  -4  -5  112.29   14.60
   2  -4  -5  108.89   12.70
  -2  -4   5   78.59   13.20
  -2  -4   5   99.39   13.40
   2  -4  -5   95.39   14.00
  -2  -4   5  113.69   14.80
   2  -4  -5  116.49    9.70
  -2  -4   5  102.79   10.90
  -2  -4   5  106.79   11.40
  -2   4   5   78.59   11.80
   2   4  -5   62.99   13.40
  -2   4   5   77.69   13.70
  -2   4   5   77.09   13.00
   2   4  -5   96.09   13.70
   2   4  -5  103.19   14.10
   2   4  -5   97.69    9.10
   2   4  -5  100.99   12.90
  -2   4   5   86.49   13.70
   1  -4  -5   16.40    6.50
   1  -4  -5   13.30    2.80
  -1  -4   5   21.30    6.50
  -1  -4   5   11.60    7.60
  -1  -4   5   31.70   10.40
  -1  -4   5   10.80    3.90
   1  -4  -5   13.30    6.40
  -1  -4   5   19.90    7.40
   1  -4  -5   35.70   10.00
  -1  -4   5   17.40    4.50
   1  -4  -5   15.40    6.00
  -1  -4   5    8.30    3.30
  -1  -4   5   11.60    3.00
   1   4  -5   14.40    5.00
   1   4  -5   14.80    6.70
  -1   4   5   15.10    6.80
   1   4  -5   11.90    8.00
  -1   4   5   19.10    7.20
   1   4  -5   13.70    6.20
  -1   4   5   14.80    6.30
  -1   4   5   13.20    5.90
   1   4  -5   17.60    5.30
  -1   4   5   14.60    5.50
   0  -4   5  182.38   15.40
   0  -4   5  186.38   13.20
   0  -4  -5  163.58   11.40
   0  -4   5  194.48   21.60
   0  -4   5  175.08   12.80
   0  -4  -5  188.38   20.30
   0  -4   5  155.98   15.80
   0  -4  -5  172.48   16.30
   0  -4   5  149.29   19.70
   0  -4  -5  177.38   19.40
   0   4  -5  166.18   12.60
   0   4  -5  195.38   17.50
   0   4   5  150.68   18.00
   0   4   5  200.38   18.10
   0   4  -5  157.88   19.60
   0   4  -5  185.08   17.20
   0   4   5  177.38   21.10
   0   4   5  158.88   17.20
   0   4  -5  167.58   15.30
   0   4   5  157.28   18.40
   1  -4   5  560.04   34.20
   1  -4   5  545.25   39.60
  -1  -4  -5  707.03   43.60
   1  -4   5  586.54   39.00
   1  -4   5  537.25   42.70
  -1  -4  -5  577.94   39.50
  -1  -4  -5  563.34   33.00
   1  -4   5  595.14   34.50
   1  -4   5  663.93   45.60
  -1   4  -5  578.84   38.60
   1   4   5  531.95   39.00
   1   4   5  584.54   43.10
   1   4   5  586.84   34.40
  -1   4  -5  539.95   39.30
   1   4   5  518.75   39.00
  -1   4  -5  641.14   39.90
   1   4   5  566.84   40.90
  -1   4  -5  574.84   41.20
  -1   4  -5  607.04   32.80
   2  -4   5  165.58   22.30
   2  -4   5  214.48   24.30
  -2  -4  -5  182.08   20.00
   2  -4   5  169.68   23.60
   2  -4   5  203.08   13.90
  -2  -4  -5  208.08   22.60
   2  -4   5  191.18   18.60
  -2  -4  -5  195.58   14.30
  -2  -4  -5  171.98   21.50
  -2   4  -5  193.88   19.90
  -2   4  -5  189.78   20.40
  -2   4  -5  187.88   20.20
   2   4   5  192.98   24.00
   2   4   5  185.08   20.90
   2   4   5  163.38   20.40
  -2   4  -5  189.28   21.90
  -2   4  -5  184.78   20.20
   2   4   5  193.08   20.20
  -2   4  -5  179.38   14.40
  -3  -4  -5  511.15   40.00
  -3  -4  -5  547.55   39.70
   3  -4   5  393.76   37.40
   3  -4   5  442.56   34.60
   3  -4   5  471.55   39.70
  -3  -4  -5  498.25   36.50
  -3  -4  -5  452.65   31.20
   3  -4   5  464.95   39.70
   3   4   5  430.26   37.10
  -3   4  -5  465.55   34.50
  -3   4  -5  483.65   35.30
   3   4   5  425.36   34.70
  -3   4  -5  482.35   35.40
   3   4   5  433.46   35.20
   3   4   5  424.26   38.10
  -3   4  -5  416.76   35.00
  -3   4  -5  536.15   39.00
  -4  -4  -5  596.24   43.60
   4  -4   5  478.35   43.20
  -4  -4  -5  469.85   38.60
   4  -4   5  437.86   41.60
  -4   4  -5  517.35   40.30
   4   4   5  524.95   42.70
  -4   4  -5  471.15   37.90
   4   4   5  456.05   39.10
   4   4   5  531.75   40.00
  -4   4  -5  443.56   34.80
  -4   4  -5  453.15   37.50
   4   4   5  430.96   36.40
   4   4   5  553.14   40.50
  -5  -4  -5  173.18   25.70
   5  -4   5  223.28   32.70
  -5  -4  -5  190.98   21.90
   5  -4   5  184.38   28.60
  -5  -4  -5  175.38   22.90
   5   4   5  177.48   23.60
  -5   4  -5  212.88   25.60
  -5   4  -5  157.48   22.50
   5   4   5  198.18   24.60
   5   4   5  228.78   28.30
   5   4   5  200.78   26.80
   5   4   5  178.48   25.10
  -5   4  -5  223.08   26.80
  -6  -4  -5   63.29   14.80
   6  -4   5   86.89   24.00
  -6   4  -5   92.79   18.50
   6   4   5   82.59   17.10
  -7  -5   5   97.69   17.60
   7  -5  -5  182.08   28.10
  -7  -5   5  127.99   23.00
   7  -5  -5  148.19   25.70
  -7   5   5  129.99   21.50
  -7   5   5  130.09   21.20
   7   5  -5   91.39   19.00
   7   5  -5  119.79   20.30
  -7   5   5  152.18   25.70
  -7   5   5  168.68   24.00
   7   5  -5  114.99   20.20
   6  -5  -5    9.20   11.60
   6  -5  -5    7.20   11.50
  -6  -5   5   12.30    7.00
  -6  -5   5   20.70   11.70
  -6  -5   5    8.70    8.60
  -6  -5   5    6.10    8.10
   6   5  -5   16.60   10.20
  -6   5   5   14.80   12.70
  -6   5   5    1.20    6.40
   6   5  -5   12.40    9.50
   6   5  -5   29.20   11.40
  -6   5   5   23.50    9.80
  -6   5   5    1.00    6.30
   6   5  -5    7.50    5.70
  -5  -5   5   93.49   17.10
  -5  -5   5   99.89   14.40
   5  -5  -5  141.69   23.70
  -5  -5   5  131.39   21.90
  -5  -5   5  128.39   19.70
   5  -5  -5  122.89   21.90
  -5   5   5  123.39   17.70
  -5   5   5  107.19   15.80
  -5   5   5   93.99   18.30
   5   5  -5   84.59   16.90
   5   5  -5  115.19   17.60
  -5   5   5   94.99   15.80
   5   5  -5  114.49   14.90
   5   5  -5   91.99   16.40
   4  -5  -5  260.97   31.20
  -4  -5   5  242.38   18.90
  -4  -5   5  190.98   19.10
  -4  -5   5  212.48   27.40
   4  -5  -5  252.57   29.50
  -4  -5   5  223.88   24.50
   4  -5  -5  249.28   23.80
  -4  -5   5  250.57   27.40
   4  -5  -5  241.88   19.30
   4   5  -5  242.78   23.20
   4   5  -5  220.28   19.60
   4   5  -5  221.08   23.70
  -4   5   5  266.17   23.40
   4   5  -5  234.88   26.60
  -4   5   5  228.88   28.00
  -4   5   5  259.67   23.30
  -4   5   5  246.98   21.70
  -3  -5   5  156.38   13.70
   3  -5  -5  141.19   13.70
  -3  -5   5  140.19   13.70
   3  -5  -5  193.78   24.80
  -3  -5   5  155.28   15.50
   3  -5  -5  130.49   17.70
  -3  -5   5  163.48   18.60
   3  -5  -5  153.98   14.20
   3  -5  -5  164.08   14.70
  -3  -5   5  158.08   13.80
  -3  -5   5  144.89   19.90
  -3  -5   5  118.99   19.90
   3   5  -5  116.69   16.20
  -3   5   5  157.48   18.50
   3   5  -5  151.48   13.30
   3   5  -5  139.89   18.20
  -3   5   5  182.08   19.20
   3   5  -5  134.29   17.50
  -3   5   5  164.48    9.80
  -3   5   5  154.78    9.80
  -3   5   5  196.58   24.10
  -3   5   5  174.68   19.60
   3   5  -5  147.79   20.50
  -3   5   5  185.88   15.20
   2  -5  -5  425.96   33.50
   2  -5  -5  485.05   30.60
  -2  -5   5  475.15   27.50
  -2  -5   5  420.56   35.10
  -2  -5   5  462.55   33.30
   2  -5  -5  424.06   36.30
  -2  -5   5  431.46   36.60
  -2  -5   5  442.66   33.40
  -2  -5   5  463.85   28.70
   2  -5  -5  455.95   30.40
   2   5  -5  418.36   31.90
  -2   5   5  522.35   38.30
   2   5  -5  454.35   27.60
   2   5  -5  462.85   33.70
   2   5  -5  477.55   36.80
  -2   5   5  453.95   32.40
   2   5  -5  508.65   34.30
  -2   5   5  479.75   33.80
  -2   5   5  443.56   33.30
   1  -5  -5  400.16   28.70
  -1  -5   5  358.26   29.50
   1  -5  -5  392.36   25.50
  -1  -5   5  446.56   28.20
  -1  -5   5  362.06   31.20
  -1  -5   5  323.67   28.30
   1  -5  -5  413.46   32.60
  -1  -5   5  366.26   22.70
  -1  -5   5  344.97   21.40
   1  -5  -5  344.07   25.20
  -1   5   5  354.76   28.30
   1   5  -5  381.26   27.50
  -1   5   5  377.06   28.60
   1   5  -5  334.77   26.00
  -1   5   5  329.77   26.30
   1   5  -5  349.47   27.00
   1   5  -5  346.87   24.70
  -1   5   5  336.47   29.90
   1   5  -5  316.37   29.60
  -1   5   5  340.77   27.60
   0  -5  -5 1787.62   95.59
   0  -5   5 1832.52  104.89
   0  -5  -5 1708.73  103.59
   0  -5  -5 1890.51  100.99
   0  -5  -5 1761.32  105.59
   0  -5   5 1735.23  105.99
   0  -5   5 1685.13  106.89
   0  -5   5 1926.61  101.29
   0  -5   5 1793.52  100.89
   0   5  -5 1727.33  104.69
   0   5  -5 1733.53  101.09
   0   5   5 1758.12  103.59
   0   5  -5 1672.13  100.09
   0   5  -5 1642.74  101.09
   0   5   5 1647.24  101.29
   0   5   5 1926.41  104.49
   0   5   5 1582.04  102.29
   0   5   5 1618.24  105.39
   0   5  -5 1671.03   98.19
   1  -5   5  123.69   14.30
   1  -5   5  151.48   20.90
   1  -5   5  101.09   15.60
  -1  -5  -5  128.79   17.40
   1  -5   5  140.89   20.30
  -1  -5  -5  137.59   15.30
  -1  -5  -5  118.79   11.50
   1   5   5  107.59   14.60
   1   5   5  128.49   17.10
  -1   5  -5  121.89    9.40
   1   5   5  128.89    8.30
  -1   5  -5  163.68   16.80
  -1   5  -5  126.19   17.50
  -1   5  -5  129.19   14.70
  -1   5  -5  115.29    8.20
   1   5   5  121.69   18.70
   1   5   5  142.69   17.00
  -1   5  -5  116.29   14.80
   2  -5   5  172.78   21.20
  -2  -5  -5  178.28   18.40
   2  -5   5  109.09   18.90
  -2  -5  -5  133.09   18.00
   2  -5   5  153.38   22.20
   2  -5   5  151.78   16.30
  -2  -5  -5  120.49   17.80
  -2  -5  -5  142.69   10.80
  -2   5  -5  159.18   18.30
   2   5   5   99.39   15.10
  -2   5  -5  158.58   19.30
   2   5   5  137.19   19.70
  -2   5  -5  136.99   19.60
  -2   5  -5  135.39   11.80
  -2   5  -5  118.19   15.30
   2   5   5  114.29   17.60
  -2   5  -5  128.99   17.60
   2   5   5  153.08   18.90
  -3  -5  -5  118.49   18.40
   3  -5   5  102.39   18.90
  -3  -5  -5  118.69   17.00
  -3  -5  -5  123.49   19.70
   3  -5   5  112.89   20.40
   3  -5   5   85.49   18.20
  -3   5  -5  119.49   15.50
  -3   5  -5  124.69   16.40
  -3   5  -5  116.19   16.10
  -3   5  -5   98.09   15.50
  -3   5  -5  109.29   18.50
   3   5   5  108.49   18.30
   3   5   5  101.09   17.50
   3   5   5   82.89   14.00
   3   5   5  107.79   17.20
   4  -5   5  155.38   25.20
  -4  -5  -5  201.18   22.90
  -4  -5  -5  167.28   23.50
   4  -5   5  151.18   26.30
  -4   5  -5  178.68   24.50
  -4   5  -5  155.08   20.30
   4   5   5  175.48   24.80
   4   5   5  195.78   23.00
  -4   5  -5  145.39   20.10
   4   5   5  151.38   19.80
   4   5   5  179.58   22.10
  -4   5  -5  159.78   18.80
   4   5   5  196.18   25.20
  -5  -5  -5    1.80    7.60
   5  -5   5   21.70   11.90
  -5  -5  -5   20.50   10.00
   5  -5   5    9.90   12.30
   5   5   5   11.20   10.20
   5   5   5    8.50   10.80
   5   5   5   11.60    9.50
  -5   5  -5   22.60   10.70
  -5   5  -5   14.80   11.00
   5   5   5   17.90    9.90
  -5   5  -5    1.50    8.40
   6  -6  -5   68.19   18.00
   6  -6  -5  116.19   23.50
  -6  -6   5   76.39   12.80
  -6  -6   5  113.49   21.50
  -6  -6   5   91.59   18.20
   6   6  -5   66.49   16.80
  -6   6   5   48.70   14.50
  -6   6   5   92.69   16.20
   6   6  -5   66.29   17.20
   6   6  -5   95.39   17.60
  -6   6   5   83.59   15.80
  -6   6   5   54.79   13.90
   6   6  -5   68.09   13.90
  -5  -6   5   77.39   16.20
  -5  -6   5   59.89   15.30
  -5  -6   5   92.29   12.90
   5  -6  -5  127.89   22.80
   5  -6  -5   61.09   16.10
  -5   6   5   71.99   14.60
   5   6  -5   85.79   16.30
  -5   6   5   90.79   19.10
   5   6  -5   81.69   15.00
   5   6  -5   75.39   13.40
  -5   6   5  124.39   17.40
  -5   6   5   70.59   13.80
   5   6  -5  110.99   20.30
  -4  -6   5  197.78   25.70
  -4  -6   5  201.48   27.00
  -4  -6   5  202.98   23.80
   4  -6  -5  201.98   27.20
  -4  -6   5  217.78   18.70
   4   6  -5  240.58   24.30
  -4   6   5  227.98   23.60
  -4   6   5  235.48   22.00
  -4   6   5  210.58   20.20
   4   6  -5  262.47   23.40
   4   6  -5  258.67   20.10
   4   6  -5  194.38   26.20
  -4   6   5  170.88   25.60
   3  -6  -5  152.98   22.40
  -3  -6   5  184.38   23.00
   3  -6  -5  149.79   18.30
  -3  -6   5  160.38   15.90
   3  -6  -5  136.69   21.40
  -3  -6   5  146.99   18.10
  -3  -6   5  177.28   22.90
   3   6  -5  149.09   18.00
   3   6  -5  193.48   20.60
   3   6  -5  171.78   14.10
  -3   6   5  174.28   19.60
   3   6  -5  129.19   20.60
  -3   6   5  152.58   14.30
  -3   6   5  148.59   17.80
  -3   6   5  196.18   25.10
   2  -6  -5  371.46   23.50
  -2  -6   5  353.06   27.90
  -2  -6   5  305.07   32.00
   2  -6  -5  379.76   29.60
  -2  -6   5  339.37   30.50
   2  -6  -5  325.97   33.30
  -2  -6   5  378.26   29.70
  -2  -6   5  373.76   23.30
  -2   6   5  353.76   28.00
  -2   6   5  385.36   23.40
   2   6  -5  374.36   29.00
   2   6  -5  386.86   22.20
  -2   6   5  374.16   28.80
   2   6  -5  339.47   26.80
   2   6  -5  390.06   28.90
   2   6  -5  412.26   32.80
  -2   6   5  384.06   29.70
  -2   6   5  396.36   33.10
  -1  -6   5  316.17   27.50
   1  -6  -5  294.27   20.80
  -1  -6   5  313.67   23.70
   1  -6  -5  310.37   21.40
   1  -6  -5  347.37   26.30
   1  -6  -5  338.97   30.30
  -1  -6   5  306.97   29.00
  -1  -6   5  282.87   27.40
   1   6  -5  311.27   29.00
  -1   6   5  268.67   26.50
  -1   6   5  342.47   30.20
   1   6  -5  326.37   24.60
   1   6  -5  279.67   23.30
   1   6  -5  289.57   24.40
  -1   6   5  298.17   25.20
   1   6  -5  285.87   22.90
   1   6  -5  322.17   22.20
  -1   6   5  339.27   25.20
  -1   6   5  258.57   24.60
   0  -6   5  468.65   34.50
   0  -6  -5  502.15   34.60
   0  -6  -5  542.65   38.90
   0  -6   5  503.85   39.20
   0  -6  -5  549.65   31.20
   0  -6  -5  498.25   41.30
   0  -6   5  548.45   41.70
   0  -6   5  522.45   42.60
   0  -6  -5  576.64   34.60
   0  -6   5  528.55   36.30
   0   6  -5  541.65   35.30
   0   6   5  524.95   36.90
   0   6  -5  571.44   36.40
   0   6  -5  473.25   35.60
   0   6   5  542.85   38.40
   0   6   5  570.14   39.10
   0   6  -5  523.35   40.60
   0   6   5  496.45   38.90
   0   6  -5  520.55   35.10
   0   6   5  606.44   42.90
  -1  -6  -5  654.33   49.30
  -1  -6  -5  721.93   46.60
   1  -6   5  836.12   55.19
   1  -6   5  790.52   55.59
   1  -6   5  793.52   46.80
   1  -6   5  733.43   50.19
  -1   6  -5  737.33   46.50
  -1   6  -5  730.33   43.90
  -1   6  -5  717.23   41.40
  -1   6  -5  689.23   47.10
   1   6   5  695.63   49.80
  -1   6  -5  700.93   46.80
   1   6   5  729.03   48.10
  -1   6  -5  697.03   50.59
  -1   6  -5  694.73   41.20
   1   6   5  752.12   53.69
   1   6   5  788.22   50.89
   1   6   5  803.22   51.19
   2  -6   5  284.37   32.30
  -2  -6  -5  280.67   22.50
   2  -6   5  259.97   27.30
  -2  -6  -5  278.87   26.40
   2  -6   5  275.17   31.80
  -2  -6  -5  262.27   28.30
  -2  -6  -5  244.68   22.70
  -2   6  -5  268.87   23.40
   2   6   5  246.88   28.80
  -2   6  -5  300.27   23.20
   2   6   5  229.08   25.90
   2   6   5  294.67   26.90
  -2   6  -5  242.38   22.50
  -2   6  -5  266.07   24.10
   2   6   5  306.07   25.10
  -2   6  -5  299.97   30.50
  -3  -6  -5   13.00    8.00
   3  -6   5   12.90   11.00
   3  -6   5    5.60    7.80
   3  -6   5    4.80    8.40
  -3  -6  -5   13.30   10.10
  -3   6  -5   16.10    7.30
   3   6   5    3.60    9.00
  -3   6  -5    0.10    7.60
   3   6   5    6.80    9.00
  -3   6  -5   10.40    6.40
   3   6   5    0.00    6.10
  -3   6  -5   11.90    6.10
  -3   6  -5    8.70    6.80
   3   6   5    0.70    7.20
   4  -6   5   42.70   15.40
  -4  -6  -5   53.39   15.80
   4  -6   5   63.79   17.80
  -4  -6  -5   39.30   12.10
   4   6   5   38.60   11.60
   4   6   5   42.00   13.80
   4   6   5   37.10   11.50
  -4   6  -5   42.50   14.90
  -4   6  -5   37.50   10.70
   4   6   5   44.80   13.80
  -4   6  -5   42.50   12.00
   4   6   5   47.90   12.30
   5  -6   5  221.28   32.10
  -5  -6  -5  159.48   21.90
   5  -6   5  148.19   27.40
   5   6   5  187.98   26.90
  -5   6  -5  234.38   29.30
   5   6   5  237.18   26.90
  -5   6  -5  199.28   24.70
  -5   6  -5  214.18   25.40
   5   6   5  188.58   26.70
   5   6   5  198.98   27.90
  -6  -7   5   49.60   17.10
  -6  -7   5   43.90   13.90
   6  -7  -5   51.29   16.80
   6  -7  -5   53.69   16.50
  -6   7   5   39.00   11.60
   6   7  -5   53.09   15.00
  -6   7   5   19.20   11.10
  -6   7   5   39.20   15.20
  -6   7   5   57.19   14.00
   6   7  -5   63.99   12.50
   6   7  -5   55.49   14.30
   6   7  -5   45.90   12.80
   5  -7  -5   53.39   17.70
   5  -7  -5   75.99   19.80
  -5  -7   5   78.69   18.20
  -5  -7   5   88.59   18.60
  -5   7   5   93.09   15.40
   5   7  -5   68.19   14.30
  -5   7   5   50.99   14.70
  -5   7   5   66.59   13.10
   5   7  -5   70.99   12.50
   5   7  -5   86.69   19.60
   5   7  -5   89.99   15.60
  -5   7   5   56.49   12.70
   4  -7  -5  210.58   29.90
  -4  -7   5  244.28   28.00
  -4  -7   5  260.07   30.20
   4   7  -5  178.28   21.90
  -4   7   5  196.08   21.60
   4   7  -5  229.88   28.40
   4   7  -5  196.48   23.40
  -4   7   5  195.58   20.20
  -4   7   5  186.78   26.20
   4   7  -5  279.07   20.60
  -4   7   5  181.88   21.20
  -3  -7   5  191.18   25.50
  -3  -7   5  236.98   29.10
   3  -7  -5  275.57   32.40
  -3  -7   5  250.17   21.50
   3   7  -5  241.98   28.50
  -3   7   5  237.08   21.80
  -3   7   5  248.08   22.60
  -3   7   5  217.98   28.50
   3   7  -5  216.48   20.60
   3   7  -5  227.68   21.50
   3   7  -5  235.88   18.40
  -3   7   5  252.67   18.80
   2  -7  -5   49.70   15.10
  -2  -7   5   65.49   12.80
  -2  -7   5   44.50   11.90
   2  -7  -5   52.29   10.70
  -2  -7   5   59.49   14.00
  -2   7   5   79.69   15.40
  -2   7   5   53.59   10.70
   2   7  -5   41.70    9.10
  -2   7   5   63.99   14.10
   2   7  -5   70.49   15.60
  -2   7   5   72.89    6.40
   2   7  -5   62.69   11.30
  -2   7   5   69.09   11.90
   1  -7  -5  445.96   39.70
  -1  -7   5  497.15   41.00
  -1  -7   5  493.65   39.10
   1  -7  -5  457.25   28.30
  -1  -7   5  466.65   37.60
   1  -7  -5  486.25   35.60
   1   7  -5  480.95   39.50
   1   7  -5  506.45   28.20
  -1   7   5  507.85   35.80
   1   7  -5  457.55   33.70
  -1   7   5  604.64   40.80
  -1   7   5  531.85   35.30
  -1   7   5  507.05   40.80
   1   7  -5  467.85   33.00
   0  -7  -5  157.98   11.30
   0  -7   5  141.59   21.90
   0  -7   5  133.89   18.80
   0  -7   5  131.39   19.90
   0  -7  -5  129.19   17.20
   0  -7  -5  127.99   20.90
   0  -7  -5  145.59   12.60
   0  -7   5  150.28   17.10
   0   7   5  154.28   18.10
   0   7  -5  135.89   14.60
   0   7   5  145.59   20.80
   0   7  -5  133.39   19.80
   0   7  -5  120.09   15.90
   0   7   5  134.49   18.70
   0   7  -5  149.79    9.10
   0   7   5  134.99   15.80
   0   7  -5  130.09   15.00
   1  -7   5  162.78   19.40
  -1  -7  -5  115.69   16.10
   1  -7   5  139.89   20.80
  -1  -7  -5  114.89   12.90
  -1  -7  -5  118.09   16.80
   1  -7   5  157.58   23.60
   1   7   5  144.79   19.00
  -1   7  -5  104.89   16.70
  -1   7  -5  123.19   14.90
  -1   7  -5  115.29   13.70
   1   7   5  122.49   16.40
   1   7   5  142.99   21.70
  -1   7  -5  137.09   19.80
   1   7   5  108.89   15.60
  -1   7  -5  127.09    9.90
  -2  -7  -5  143.09   15.70
  -2  -7  -5  138.29   16.30
   2  -7   5  130.49   21.00
   2  -7   5  109.79   20.80
   2  -7   5  127.49   21.60
  -2  -7  -5  139.19   19.40
  -2  -7  -5  124.59   19.30
  -2   7  -5  128.59   18.50
   2   7   5  146.99   18.30
   2   7   5  109.89   19.40
  -2   7  -5  142.59   16.00
  -2   7  -5  125.79   15.90
   2   7   5  179.48   21.90
  -2   7  -5  139.29   21.20
   2   7   5  120.09   17.70
  -2   7  -5  124.79   15.60
  -3  -7  -5  236.88   21.60
   3  -7   5  287.07   34.10
   3  -7   5  267.57   32.20
  -3  -7  -5  244.78   22.00
   3  -7   5  253.47   31.50
   3   7   5  261.77   30.00
  -3   7  -5  200.78   22.90
  -3   7  -5  209.68   26.90
  -3   7  -5  221.08   21.50
  -3   7  -5  222.48   21.50
   3   7   5  238.38   25.30
   3   7   5  239.98   27.60
   3   7   5  187.48   24.30
   4  -7   5   69.89   17.90
  -4  -7  -5   61.09   13.10
   4  -7   5   59.29   16.90
  -4  -7  -5   33.60   11.40
  -4   7  -5   66.29   12.60
   4   7   5   47.00   13.00
   4   7   5   59.89   16.00
  -4   7  -5   56.89   16.40
   4   7   5   59.19   14.30
  -4   7  -5   67.29   13.20
   4   7   5   63.79   16.40
   5  -7   5  102.49   24.80
  -5  -7  -5   82.39   16.10
  -5  -7  -5  149.79   22.20
   5  -7   5  116.79   25.30
  -5   7  -5  121.79   18.60
   5   7   5   91.19   19.70
   5   7   5  110.39   21.20
  -5   7  -5   91.29   18.70
  -5   7  -5  117.99   18.40
   5   7   5  138.59   20.40
   5   7   5   59.19   18.70
  -6  -8   5  120.49   23.40
   6  -8  -5   95.19   23.30
  -6  -8   5  137.59   23.50
   6  -8  -5  157.08   28.50
  -6   8   5   86.79   22.60
   6   8  -5  137.39   24.70
  -6   8   5  102.89   18.20
   6   8  -5  133.39   29.00
   6   8  -5  120.19   19.90
  -6   8   5  116.69   18.60
  -6   8   5  127.69   19.70
   6   8  -5  121.99   20.30
  -5  -8   5    8.10    8.80
  -5  -8   5   12.80    9.40
   5  -8  -5    1.80    9.00
   5   8  -5   15.50   11.50
  -5   8   5   -0.20   11.20
   5   8  -5   22.80    8.70
   5   8  -5   15.00    9.80
   5   8  -5    9.30    8.70
  -5   8   5   10.40    7.30
  -5   8   5    9.80    8.60
  -5   8   5    9.00    8.70
  -4  -8   5   71.09   16.60
  -4  -8   5   72.79   17.00
   4  -8  -5   69.79   17.60
   4   8  -5   88.09   18.30
  -4   8   5   77.69   19.10
   4   8  -5   64.19   11.10
  -4   8   5   69.39   13.10
   4   8  -5   58.79   11.90
  -4   8   5   58.39   12.90
   4   8  -5   85.09   14.00
  -4   8   5   79.69   13.70
   3  -8  -5  109.59   22.50
  -3  -8   5   88.59   15.60
  -3  -8   5  145.69   22.50
  -3  -8   5  183.98   24.30
  -3   8   5  130.09   16.70
   3   8  -5   91.19   17.60
  -3   8   5  136.99   21.50
   3   8  -5  134.59   17.00
  -3   8   5  137.89   16.40
   3   8  -5  143.29   17.30
  -2  -8   5  285.07   30.80
  -2  -8   5  283.77   25.50
  -2  -8   5  279.17   33.10
   2  -8  -5  267.87   33.50
  -2   8   5  262.47   32.10
  -2   8   5  271.87   29.00
  -2   8   5  238.08   23.30
   2   8  -5  308.87   32.30
   2   8  -5  288.77   23.10
  -2   8   5  275.77   23.60
   2   8  -5  288.27   19.70
   2   8  -5  269.47   23.30
  -1  -8   5   14.10    9.50
  -1  -8   5   24.90    9.30
  -1  -8   5   27.30   10.50
   1  -8  -5   13.70   11.70
   1   8  -5   33.50    7.90
  -1   8   5   18.20    7.60
  -1   8   5   21.80   11.20
   1   8  -5   42.80    8.50
  -1   8   5   39.80    9.10
   1   8  -5   49.20   13.20
  -1   8   5   16.50    9.10
   0  -8   5  350.06   28.40
   0  -8   5  309.87   32.50
   0  -8   5  345.97   31.70
   0  -8   5  325.07   30.60
   0   8   5  412.86   28.80
   0   8   5  402.66   29.70
   0   8  -5  363.76   26.20
   0   8  -5  293.07   24.90
   0   8  -5  347.97   32.80
   0   8   5  368.56   34.00
   0   8   5  359.16   31.90
   1  -8   5  301.67   33.40
   1  -8   5  295.17   33.90
   1  -8   5  262.97   26.70
  -1   8  -5  330.27   29.10
   1   8   5  316.37   33.60
   1   8   5  236.18   26.50
   1   8   5  300.07   25.50
  -1   8  -5  290.27   22.60
  -1   8  -5  289.57   31.10
   1   8   5  273.97   30.10
  -1   8  -5  285.37   22.80
   2  -8   5  116.19   20.60
   2  -8   5  106.59   19.80
   2  -8   5  105.89   17.60
  -2  -8  -5   91.89   13.30
   2   8   5  107.79   18.50
   2   8   5   89.19   14.50
   2   8   5   72.89   14.90
  -2   8  -5   91.19   17.00
  -2   8  -5  122.59   14.80
   2   8   5  110.29   17.80
  -2   8  -5  102.59   13.20
  -2   8  -5  119.89   20.40
  -2   8  -5  125.09   14.30
   3  -8   5   20.30   11.80
   3  -8   5   37.90   12.40
   3  -8   5   26.10   12.80
  -3  -8  -5   10.80    6.70
  -3  -8  -5   21.90    9.10
   3   8   5   17.50   12.60
   3   8   5   15.00    8.60
   3   8   5   16.40    9.40
  -3   8  -5   26.60    9.80
   3   8   5   30.80   11.30
  -3   8  -5   16.80    7.70
  -3   8  -5   35.80   11.70
   4  -8   5   87.29   21.20
   4  -8   5  134.49   24.30
   4   8   5   84.79   19.00
   4   8   5   93.29   17.80
  -4   8  -5  108.09   16.10
   4   8   5  129.79   19.50
   4   8   5  101.49   19.10
  -4   8  -5   86.39   18.00
  -5  -9   5   43.60   12.80
  -5  -9   5   38.70   15.50
   5  -9  -5   48.00   16.10
  -5   9   5   37.30   10.30
   5   9  -5   58.49   13.90
   5   9  -5   48.30   16.70
  -5   9   5   51.89   12.40
  -5   9   5   54.29   15.20
   5   9  -5   52.59   13.40
   4  -9  -5  216.28   31.10
  -4  -9   5  217.68   28.80
  -4  -9   5  229.08   29.10
   4   9  -5  223.68   23.50
  -4   9   5  188.08   21.30
  -4   9   5  142.39   25.30
   4   9  -5  172.58   21.50
   4   9  -5  215.68   28.20
  -4   9   5  173.38   20.50
  -3  -9   5   14.20   10.20
   3  -9  -5    3.70   12.30
  -3  -9   5    2.30    8.50
  -3   9   5   17.70   11.10
  -3   9   5   14.80    7.30
   3   9  -5   26.10    8.40
   3   9  -5    9.90    7.10
   3   9  -5   13.80   12.00
  -3   9   5   21.00   12.70
  -3   9   5   14.00    7.50
  -2  -9   5   21.60   12.80
   2  -9  -5   69.89   17.40
  -2  -9   5   53.29   14.70
  -2  -9   5   45.30   10.90
  -2   9   5   54.99   15.50
   2   9  -5   40.60    9.10
   2   9  -5   38.80   14.00
  -2   9   5   30.40   10.70
   2   9  -5   27.70    8.20
  -2   9   5   43.70    9.60
  -2   9   5   26.50    8.40
  -1  -9   5  272.97   26.50
  -1  -9   5  267.17   31.90
  -1  -9   5  262.27   30.10
   1  -9  -5  250.57   32.50
  -1   9   5  301.07   23.90
  -1   9   5  269.07   31.00
   1   9  -5  291.57   22.20
   1   9  -5  237.18   21.10
   1   9  -5  239.88   30.10
  -1   9   5  251.57   23.20
  -1   9   5  270.67   30.50
   0  -9   5  155.18   22.90
   0  -9   5  135.69   24.40
   0  -9   5  139.99   20.80
   0   9   5  155.98   24.00
   0   9  -5  157.68   14.90
   0   9  -5  137.39   21.50
   0   9   5  164.98   19.10
   0   9   5  158.08   21.80
   0   9   5  197.28   19.80
   1  -9   5   12.80   11.80
   1  -9   5   15.80    9.50
   1  -9   5   17.60    9.60
  -1   9  -5   10.30    9.60
   1   9   5   17.20    6.60
   1   9   5   15.10   10.60
   1   9   5   24.20    8.40
   1   9   5    6.40   10.60
  -1   9  -5   -0.50    8.40
  -1   9  -5    3.70    5.20
   2  -9   5  254.77   32.40
   2  -9   5  249.97   30.00
   2  -9   5  229.88   31.10
  -2   9  -5  289.67   32.00
  -2   9  -5  263.77   20.40
   2   9   5  193.18   24.10
   2   9   5  305.17   32.80
   2   9   5  216.68   27.70
   2   9   5  222.78   24.80
  -2   9  -5  243.08   20.60
  -2   9  -5  230.68   27.10
   3  -9   5  202.48   30.00
   3  -9   5  153.48   27.50
   3  -9   5  224.08   32.10
   3   9   5  223.78   26.20
   3   9   5  195.68   26.10
   3   9   5  156.88   24.70
  -3   9  -5  168.68   26.10
  -3   9  -5  182.78   25.30
   3   9   5  213.98   25.00
   4  -9   5   73.49   18.80
   4  -9   5   83.19   21.70
   4   9   5   90.59   18.10
   4   9   5   85.19   16.50
  -4   9  -5  101.49   19.80
  -4   9  -5   84.99   13.40
   4   9   5   80.29   17.20
   4   9   5   96.69   20.00
  -4 -10   5   63.29   17.20
   4 -10  -5   49.90   16.70
  -4 -10   5   58.99   15.90
  -4  10   5   32.20   14.50
   4  10  -5   36.80    9.90
   4  10  -5   38.50   10.90
   4  10  -5   31.70   12.10
  -4  10   5   37.10    9.40
   3 -10  -5   27.10   15.50
  -3 -10   5   34.50   13.30
  -3 -10   5   27.20   11.40
   3  10  -5   25.20   11.00
   3  10  -5   47.10   10.50
   3  10  -5   30.50    9.70
  -3  10   5   38.20   12.60
  -3  10   5   20.60    8.00
  -3  10   5   34.10   12.70
  -3  10   5   51.19   12.60
   2 -10  -5  113.39   21.80
  -2 -10   5   98.19   20.00
  -2 -10   5  123.79   21.70
  -2  10   5   95.99   14.40
  -2  10   5  117.69   20.20
   2  10  -5  132.29   21.70
   2  10  -5  104.29   13.90
  -2  10   5  108.59   20.50
  -2  10   5  129.09   16.20
  -1 -10   5   49.20   12.60
   1 -10  -5   66.09   20.00
  -1 -10   5   33.70   13.70
  -1 -10   5   49.80   15.60
  -1  10   5   57.89   16.20
  -1  10   5   44.30   10.20
  -1  10   5   45.70    9.90
  -1  10   5   83.69   18.90
   1  10  -5   45.50    8.80
   1  10  -5   47.80   15.10
   0 -10   5   42.40   13.30
   0 -10   5   28.70   12.70
   0 -10   5   24.70   11.50
   0  10   5   53.19   14.70
   0  10   5   46.00   10.20
   0  10  -5   28.00    6.50
   0  10   5   36.20   13.70
   0  10   5   42.30   10.40
   0  10  -5   35.90   13.60
   1 -10   5   35.70   14.20
   1 -10   5   56.29   17.30
   1 -10   5   55.69   14.00
   1  10   5   63.59   12.20
  -1  10  -5   38.00    7.00
   1  10   5   33.50   11.80
  -1  10  -5   49.40    7.80
  -1  10  -5   62.89   15.00
   1  10   5   63.29   12.70
  -1  10  -5   49.99   13.30
   1  10   5   44.90   15.40
   2 -10   5    6.40    8.50
   2 -10   5   18.20    8.40
   2 -10   5    4.10   11.90
   2  10   5   -1.80    9.80
  -2  10  -5   19.90   12.80
   2  10   5   11.50    9.30
  -2  10  -5    4.30    9.00
   2  10   5    6.30    8.30
  -2  10  -5    6.40    4.50
   2  10   5   16.20   10.20
   3 -10   5   42.30   16.80
   3 -10   5   43.00   15.50
   3  10   5   28.30   11.70
   3  10   5   28.00   11.70
   3  10   5   16.70    8.20
   3  10   5   40.10   11.30
  -3  10  -5   26.50   13.50
  -3  10  -5   24.20    7.20
   3 -11  -5   47.40   18.70
  -3 -11   5   44.50   16.80
  -3 -11   5   13.50   13.00
   3  11  -5   41.20   14.70
  -3  11   5   64.49   18.80
  -3  11   5   45.90   16.20
   3  11  -5   23.10    8.20
  -3  11   5   25.10    7.60
   2 -11  -5   90.19   23.70
  -2 -11   5   37.70   15.60
  -2 -11   5   36.80   15.40
  -2  11   5   43.80   16.30
  -2  11   5   70.39   12.20
   2  11  -5   58.49   10.00
  -2  11   5  121.29   23.10
   2  11  -5   60.99   18.80
  -1 -11   5  343.27   39.60
  -1 -11   5  244.18   31.00
  -1 -11   5  257.77   30.40
  -1  11   5  274.67   23.90
   1  11  -5  298.67   34.40
   1  11  -5  257.87   20.80
  -1  11   5  240.08   32.70
  -1  11   5  283.57   33.40
   0 -11   5   43.50   16.30
   0 -11   5   54.09   14.60
   0  11   5   69.59   12.30
   0  11   5   26.10   11.30
   0  11   5   34.90   16.00
   0  11  -5   27.70   13.10
   0  11   5   44.40   10.60
   0  11  -5   45.90    6.80
   1 -11   5   51.69   18.30
   1 -11   5   57.69   15.00
   1  11   5   73.79   13.30
   1  11   5   43.30   16.90
   1  11   5   35.10   10.90
   1  11   5   41.00   12.00
  -1  11  -5   71.59   16.90
  -1  11  -5   54.89   14.80
   2 -11   5   38.40   14.80
   2 -11   5   38.20   15.50
   2 -11   5   76.39   29.90
   2  11   5   47.70   15.60
   2  11   5   41.10   12.10
   2  11   5   16.50   10.40
   2  11   5   49.80   15.20
  -2  11  -5   27.30   15.00
  -2  11  -5   44.70   13.40
  -2 -12   5  168.18   27.50
   2  12  -5  178.48   27.90
  -2  12   5  224.88   29.70
  -2  12   5  187.58   29.70
  -1 -12   5    0.40    6.50
  -1 -12   5   24.60   13.00
   1  12  -5    8.30   10.40
  -1  12   5    3.20   12.80
  -1  12   5   25.40   13.80
  -1  12   5    4.10    6.00
   0 -12   5  125.79   24.00
   0 -12   5  157.98   25.50
   0  12   5  140.29   17.80
   0  12   5  118.49   21.40
   0  12  -5   93.39   20.90
   0  12   5  164.18   24.30
  -7   0   6   -1.70    9.70
   7   0  -6   -1.50   10.80
  -7   0   6   -2.80    6.10
   7   0  -6   -0.40    8.40
   7   0  -6    0.40    6.00
  -7   0   6    6.60    6.80
  -7   0   6    4.50    5.90
   6   0  -6   39.60   10.20
   6   0  -6   27.90   11.60
   6   0  -6   21.80   10.00
  -6   0   6   26.20    9.30
  -6   0   6   39.10   10.70
  -6   0   6   28.80   12.50
  -6   0   6   31.40   11.00
   6   0  -6   69.49   17.10
  -6   0   6   15.10    8.00
   5   0  -6  739.33   48.50
  -5   0   6  631.04   51.99
  -5   0   6  788.92   52.99
  -5   0   6  687.03   49.10
   5   0  -6  816.82   51.29
   5   0  -6  670.33   53.99
   5   0  -6  781.62   51.59
  -5   0   6  711.63   50.39
   5   0  -6  795.02   54.39
  -5   0   6  721.83   49.10
   4   0  -6  641.84   42.60
   4   0  -6  550.54   41.30
  -4   0   6  585.84   42.70
   4   0  -6  606.74   44.20
  -4   0   6  584.04   40.10
  -4   0   6  542.95   38.50
  -4   0   6  552.64   37.30
  -4   0   6  533.55   40.70
   4   0  -6  600.14   43.30
   3   0  -6  218.98   23.10
  -3   0   6  211.38   20.70
   3   0  -6  236.88   22.50
  -3   0   6  233.68   22.10
   3   0  -6  238.68   22.30
  -3   0   6  221.78   20.10
  -3   0   6  191.68   17.60
   3   0  -6  259.97   22.90
   2   0  -6  302.07   20.30
   2   0  -6  292.97   22.90
  -2   0   6  287.67   21.10
  -2   0   6  230.78   22.20
   2   0  -6  262.07   23.80
   2   0  -6  272.27   24.80
  -2   0   6  277.67   20.00
   2   0  -6  263.57   23.50
  -2   0   6  235.78   21.80
  -2   0   6  277.87   24.20
  -1   0   6  333.17   22.90
  -1   0   6  341.57   25.80
   1   0  -6  345.17   29.10
   1   0  -6  380.36   29.60
   1   0  -6  296.17   26.60
  -1   0   6  340.17   27.80
  -1   0   6  330.17   27.40
   1   0  -6  351.96   24.80
  -1   0   6  374.16   29.30
   1   0  -6  364.56   24.20
   0   0   6   17.70    8.10
   0   0   6   12.60    7.30
   0   0  -6    3.60    5.10
   0   0   6    8.50    3.90
   0   0  -6    4.80    7.40
   0   0  -6   12.30    5.90
   0   0  -6   13.70    5.10
   0   0   6   21.30    8.70
   0   0  -6   13.10    3.90
   0   0   6   14.70    6.30
   1   0   6  112.79   15.70
  -1   0  -6  101.99   13.50
   1   0   6   81.69   13.30
   1   0   6  123.39   14.50
  -1   0  -6   91.39   14.30
  -1   0  -6  145.79   18.20
  -1   0  -6  114.19   16.40
   1   0   6   94.69   16.10
   1   0   6  106.09   11.50
  -1   0  -6  106.29   11.70
   2   0   6  176.38   19.30
   2   0   6  159.58   21.60
   2   0   6  172.48   10.50
   2   0   6  167.98   21.00
  -2   0  -6  160.88   21.10
  -2   0  -6  159.28   20.00
   2   0   6  132.29   16.50
   2   0   6  185.48   24.10
  -2   0  -6  166.58   21.20
  -2   0  -6  191.08   19.80
   2   0   6  170.68   15.90
  -3   0  -6  119.49   17.80
  -3   0  -6  110.39   17.00
   3   0   6   86.89   16.90
   3   0   6  110.29   15.10
   3   0   6   99.29   16.40
   3   0   6  109.79   19.20
   3   0   6  110.49   15.20
  -3   0  -6  135.69   16.80
   3   0   6  125.49   15.30
  -3   0  -6   85.99   15.50
  -3   0  -6   78.39   16.00
  -4   0  -6  268.37   30.20
   4   0   6  258.37   24.80
  -4   0  -6  274.37   29.00
   4   0   6  219.28   24.30
   4   0   6  268.57   30.50
  -4   0  -6  275.37   25.70
   4   0   6  274.57   31.50
  -4   0  -6  248.48   30.50
   5   0   6  175.68   29.50
   5   0   6  166.08   20.60
  -5   0  -6  161.58   22.90
   5   0   6  152.98   24.50
  -5   0  -6  140.39   20.30
   5   0   6  183.98   25.70
  -5   0  -6  173.98   25.50
   5   0   6  161.88   21.30
  -7  -1   6   49.20   14.10
  -7  -1   6   70.79   18.20
  -7  -1   6   50.59   14.20
   7  -1  -6   56.49   16.50
   7  -1  -6   45.80   16.10
  -7  -1   6   49.20   15.30
  -7   1   6   79.59   16.30
  -7   1   6   97.39   19.50
   7   1  -6   28.70   11.80
  -7   1   6   72.79   15.00
  -7   1   6   52.19   13.80
   7   1  -6   50.49   12.90
   7   1  -6   70.59   17.80
   6  -1  -6  215.68   28.80
   6  -1  -6  285.57   33.30
   6  -1  -6  297.07   27.30
  -6  -1   6  336.07   32.80
   6  -1  -6  264.47   29.10
   6  -1  -6  312.17   24.80
  -6  -1   6  256.87   29.70
  -6  -1   6  237.28   26.70
  -6  -1   6  266.87   27.90
  -6   1   6  236.38   25.40
  -6   1   6  334.97   30.20
  -6   1   6  258.57   28.80
  -6   1   6  257.57   30.30
   6   1  -6  211.68   28.00
   6   1  -6  252.57   27.40
   6   1  -6  275.97   25.80
  -5  -1   6   27.40    9.50
  -5  -1   6   34.50    9.70
   5  -1  -6   44.10   10.20
  -5  -1   6   24.50    9.00
   5  -1  -6   39.50   12.70
   5  -1  -6   28.80    9.00
   5  -1  -6   26.40    8.60
  -5  -1   6   22.10    7.60
   5  -1  -6   26.30   12.90
   5   1  -6   11.90   10.50
  -5   1   6   45.80   11.20
   5   1  -6   26.90    8.90
  -5   1   6   30.50    8.10
   5   1  -6   15.40    8.10
  -5   1   6   28.30   10.70
  -5   1   6   40.20   11.50
   5   1  -6   32.10    7.60
  -5   1   6   34.70    9.90
  -4  -1   6  121.29   18.20
   4  -1  -6   99.39   15.50
   4  -1  -6  127.29   18.50
  -4  -1   6  117.39   15.40
   4  -1  -6  135.29   21.00
  -4  -1   6  152.68   18.50
  -4  -1   6  121.79   14.20
   4  -1  -6  122.59   16.10
   4   1  -6  138.09   19.50
  -4   1   6  143.39   18.40
  -4   1   6  121.79   18.50
   4   1  -6  110.49   15.80
  -4   1   6  118.69   16.80
  -4   1   6  132.79   14.40
   4   1  -6  135.59   17.90
  -4   1   6  115.69   16.20
  -3  -1   6  264.47   22.30
  -3  -1   6  293.27   25.70
   3  -1  -6  270.97   24.50
  -3  -1   6  262.67   21.40
  -3  -1   6  265.77   17.50
   3  -1  -6  275.77   23.90
  -3  -1   6  283.47   20.10
  -3  -1   6  254.97   21.50
   3  -1  -6  245.58   23.70
   3  -1  -6  267.27   23.50
  -3   1   6  271.47   23.70
  -3   1   6  233.18   22.40
   3   1  -6  231.78   23.40
   3   1  -6  256.37   23.90
   3   1  -6  251.77   24.80
   3   1  -6  284.17   22.30
  -3   1   6  252.87   19.10
   3   1  -6  266.37   24.10
  -3   1   6  285.17   22.10
  -3   1   6  289.17   25.90
  -2  -1   6  263.77   25.20
  -2  -1   6  271.07   27.30
  -2  -1   6  314.67   23.10
   2  -1  -6  315.57   25.50
  -2  -1   6  315.37   20.40
  -2  -1   6  291.67   23.60
  -2  -1   6  295.77   20.20
   2  -1  -6  266.87   25.00
  -2  -1   6  275.87   23.60
   2  -1  -6  300.47   26.50
   2  -1  -6  309.97   25.30
  -2   1   6  292.77   24.10
  -2   1   6  342.57   26.00
  -2   1   6  337.17   24.60
  -2   1   6  295.07   20.10
   2   1  -6  327.37   26.20
   2   1  -6  335.37   26.00
   2   1  -6  299.37   23.70
   2   1  -6  291.07   25.90
  -2   1   6  295.37   26.40
   2   1  -6  350.16   23.50
  -1  -1   6    8.80    4.50
  -1  -1   6    9.50    4.90
  -1  -1   6   10.00    3.20
   1  -1  -6    7.00    6.20
   1  -1  -6   11.70    4.90
   1  -1  -6   13.20    7.60
  -1  -1   6   -1.10    6.70
   1  -1  -6   -1.10    6.20
   1  -1  -6    8.50    5.20
   1  -1  -6    7.00    3.50
  -1  -1   6   12.80    6.50
   1   1  -6    8.60    4.70
  -1   1   6   13.10    7.10
   1   1  -6    8.10    7.50
   1   1  -6   24.20    7.90
  -1   1   6    9.00    4.80
  -1   1   6   -0.50    6.00
  -1   1   6    7.00    5.80
  -1   1   6   16.80    8.00
   1   1  -6   14.10    5.70
   1   1  -6   14.10    7.50
   0  -1   6 1711.23   91.89
   0  -1  -6 1468.35   90.69
   0  -1  -6 1479.95   88.59
   0  -1   6 1466.75   82.09
   0  -1  -6 1517.45   84.79
   0  -1   6 1532.15   89.79
   0  -1  -6 1348.86   89.39
   0  -1   6 1694.63   87.79
   0  -1  -6 1510.05   84.89
   0  -1   6 1373.26   88.69
   0   1   6 1485.75   84.19
   0   1   6 1394.66   87.79
   0   1   6 1398.76   89.09
   0   1  -6 1473.35   88.49
   0   1  -6 1413.56   89.39
   0   1   6 1422.86   87.39
   0   1   6 1483.25   90.69
   0   1   6 1456.75   84.89
   0   1  -6 1436.96   90.19
   1  -1   6  522.25   39.40
   1  -1   6  546.95   38.40
  -1  -1  -6  543.65   39.90
   1  -1   6  494.15   35.20
   1  -1   6  443.96   36.80
  -1  -1  -6  489.05   37.20
  -1  -1  -6  478.35   38.30
  -1  -1  -6  522.95   35.10
   1  -1   6  510.55   32.00
   1  -1   6  471.85   39.60
   1   1   6  576.34   37.00
   1   1   6  543.95   32.20
  -1   1  -6  511.25   38.80
  -1   1  -6  546.25   32.50
   1   1   6  516.65   38.50
  -1   1  -6  568.84   38.50
   1   1   6  528.65   36.50
   1   1   6  515.45   34.20
  -1   1  -6  609.04   40.50
   1   1   6  473.35   38.60
  -1   1  -6  502.55   36.50
   2  -1   6   78.69   13.50
   2  -1   6   61.39   10.80
   2  -1   6   77.09   10.00
  -2  -1  -6   87.79   15.70
   2  -1   6   66.09   13.90
  -2  -1  -6   71.69   11.90
  -2  -1  -6   63.39   12.70
   2  -1   6   85.89   14.70
  -2  -1  -6  100.59   15.60
   2  -1   6   74.69   15.10
   2   1   6   52.39   13.80
  -2   1  -6   88.69   11.00
  -2   1  -6   72.69   14.10
   2   1   6   67.99   15.30
   2   1   6   71.69   12.30
   2   1   6   77.99    9.00
   2   1   6   81.79   12.00
  -2   1  -6   77.79   13.00
  -2   1  -6   77.89   13.70
   2   1   6   75.89   11.00
  -2   1  -6   93.79   15.20
   2   1   6  104.79   15.80
  -3  -1  -6  320.97   28.40
  -3  -1  -6  328.17   31.10
  -3  -1  -6  302.07   25.20
   3  -1   6  269.97   29.40
  -3  -1  -6  307.17   29.40
   3  -1   6  297.27   23.50
   3  -1   6  266.67   25.50
   3  -1   6  298.27   33.50
   3  -1   6  288.77   24.70
   3   1   6  318.77   26.10
  -3   1  -6  301.07   27.50
  -3   1  -6  314.27   28.40
   3   1   6  273.07   31.60
  -3   1  -6  249.18   29.30
  -3   1  -6  327.67   27.80
   3   1   6  298.67   28.00
  -3   1  -6  301.37   28.00
   3   1   6  312.87   25.60
   3   1   6  274.27   28.30
  -4  -1  -6   64.59   15.20
   4  -1   6   60.09   12.10
   4  -1   6   57.19   12.00
   4  -1   6   48.70   14.60
   4  -1   6   84.79   17.70
   4  -1   6   72.09   14.90
  -4  -1  -6  109.79   18.20
  -4  -1  -6   66.89   12.80
  -4  -1  -6   51.59   13.90
  -4   1  -6   53.39   15.80
   4   1   6   65.69   16.20
   4   1   6   48.50   12.10
  -4   1  -6   37.40   10.60
  -4   1  -6   73.59   15.50
   4   1   6   83.39   13.30
  -4   1  -6   74.19   16.10
  -4   1  -6   71.89   14.20
   4   1   6   68.19   16.30
   4   1   6   79.09   16.50
  -5  -1  -6   56.99   15.60
   5  -1   6   68.49   13.50
   5  -1   6   63.49   13.10
   5  -1   6   60.09   15.50
   5  -1   6   41.60   15.60
  -5  -1  -6   80.19   17.60
  -5  -1  -6   55.59   13.80
   5   1   6   93.29   20.20
  -5   1  -6   75.09   13.90
  -5   1  -6   62.59   16.60
   5   1   6   84.59   14.70
   5   1   6  100.39   19.50
   5   1   6   85.69   14.80
  -5   1  -6   82.99   16.80
  -7  -2   6  100.39   19.30
  -7  -2   6  123.89   22.50
  -7  -2   6   93.99   17.30
   7  -2  -6  130.69   25.40
   7  -2  -6   96.19   17.30
  -7   2   6  149.19   22.50
  -7   2   6  113.49   20.30
  -7   2   6  121.49   22.10
   7   2  -6  115.09   20.90
   7   2  -6  139.59   21.00
  -7   2   6   99.19   18.30
   6  -2  -6   23.70   14.20
   6  -2  -6   41.00   13.50
  -6  -2   6   52.09   11.60
  -6  -2   6   24.90   11.10
  -6  -2   6   66.99   13.60
   6  -2  -6   30.00   10.50
   6  -2  -6   41.40   12.90
   6   2  -6   46.00   13.00
  -6   2   6   47.90   13.90
   6   2  -6   69.79   16.10
  -6   2   6   65.09   14.30
  -6   2   6   29.20   11.90
   6   2  -6   34.00   12.60
  -6   2   6   58.59   11.30
  -6   2   6   46.70   13.40
  -5  -2   6   75.09   12.30
  -5  -2   6   97.89   14.90
  -5  -2   6   63.99   14.90
   5  -2  -6  100.09   16.00
   5  -2  -6   77.39   16.00
   5  -2  -6   93.89   14.40
   5  -2  -6   73.19   16.10
  -5  -2   6  109.99   16.60
   5  -2  -6   87.99   13.50
   5   2  -6   86.19   15.90
  -5   2   6   63.89   13.90
  -5   2   6   69.99   14.90
  -5   2   6   58.99   10.70
  -5   2   6   72.19   14.50
   5   2  -6   55.09   13.40
   5   2  -6   66.19   12.90
  -5   2   6   60.69   13.00
   4  -2  -6  172.38   22.90
   4  -2  -6  144.79   20.20
   4  -2  -6  101.29   15.30
  -4  -2   6  108.89   17.80
  -4  -2   6  155.68   13.80
   4  -2  -6  154.38   18.20
  -4  -2   6  160.08   17.90
  -4  -2   6  103.89   16.10
  -4   2   6  167.58   18.70
  -4   2   6  147.09   18.70
   4   2  -6  143.29   18.80
  -4   2   6  119.79   18.40
  -4   2   6  126.79   13.30
   4   2  -6  106.79   16.30
  -4   2   6  173.18   21.00
   4   2  -6  163.58   20.30
   3  -2  -6   93.79   13.50
  -3  -2   6   82.99   12.20
   3  -2  -6   88.39   15.40
  -3  -2   6   97.39   13.50
  -3  -2   6   89.19   15.40
  -3  -2   6   97.29   11.70
  -3  -2   6   91.89   10.20
   3  -2  -6  102.29   14.50
  -3  -2   6   71.79   14.60
   3  -2  -6   90.39   15.50
   3   2  -6   79.99   14.60
  -3   2   6   95.39   14.50
   3   2  -6   79.29   14.20
   3   2  -6   85.29   14.10
  -3   2   6   93.79    8.60
   3   2  -6   85.09   11.40
  -3   2   6   84.09   14.60
  -3   2   6   89.39   13.90
   2  -2  -6  228.78   22.50
   2  -2  -6  255.87   19.70
  -2  -2   6  250.37   21.00
  -2  -2   6  215.78   19.40
  -2  -2   6  234.28   16.00
  -2  -2   6  239.78   19.90
   2  -2  -6  232.18   25.00
  -2  -2   6  280.07   23.80
   2  -2  -6  230.58   21.50
  -2  -2   6  248.48   24.30
   2  -2  -6  263.17   23.00
  -2   2   6  238.88   20.90
   2   2  -6  221.28   21.80
   2   2  -6  258.47   21.60
   2   2  -6  265.17   23.70
   2   2  -6  255.27   20.40
  -2   2   6  222.38   22.90
  -2   2   6  290.17   24.50
  -1  -2   6 1123.29   68.59
  -1  -2   6 1089.79   73.19
   1  -2  -6 1249.47   67.39
   1  -2  -6 1216.18   64.09
  -1  -2   6 1223.68   70.39
   1  -2  -6 1092.09   72.29
   1  -2  -6 1196.28   72.99
  -1  -2   6 1285.87   70.29
  -1  -2   6 1125.09   71.49
   1  -2  -6 1151.38   70.59
   1  -2  -6 1144.19   70.39
  -1  -2   6 1167.28   62.29
  -1  -2   6 1138.59   62.29
  -1   2   6 1185.88   71.49
  -1   2   6 1123.69   72.19
   1   2  -6 1051.29   72.19
   1   2  -6 1101.89   66.19
  -1   2   6 1119.89   68.49
   1   2  -6 1087.89   71.29
   1   2  -6 1176.28   70.69
   1   2  -6 1098.49   73.79
  -1   2   6 1078.29   72.49
  -1   2   6 1146.19   70.29
  -1   2   6 1130.39   69.19
   0  -2   6  236.38   13.20
   0  -2   6  263.57   22.50
   0  -2  -6  217.38   23.90
   0  -2  -6  250.27   17.00
   0  -2  -6  243.18   22.60
   0  -2  -6  232.08   20.80
   0  -2   6  277.57   26.20
   0  -2   6  212.48   21.90
   0  -2  -6  216.48   19.00
   0  -2   6  248.68   22.40
   0  -2   6  223.18   18.90
   0   2   6  253.17   19.30
   0   2  -6  227.28   22.40
   0   2   6  244.88   22.80
   0   2  -6  231.18   20.40
   0   2   6  216.28   22.20
   0   2   6  212.68   18.40
   0   2  -6  199.48   22.80
   0   2   6  247.88   21.10
   0   2   6  206.68   19.40
   0   2  -6  237.18   21.50
   1  -2   6   18.10    8.30
  -1  -2  -6   -0.30    5.20
   1  -2   6   21.20    3.90
   1  -2   6   17.80    7.40
   1  -2   6   18.00    7.40
  -1  -2  -6    9.10    5.70
  -1  -2  -6   17.10    5.30
   1  -2   6   19.20    8.40
   1  -2   6   20.90    6.80
  -1  -2  -6   16.50    9.00
   1   2   6   17.80    8.60
   1   2   6   25.90   10.70
   1   2   6   20.20    7.00
  -1   2  -6   20.00    3.80
  -1   2  -6   24.50    9.70
  -1   2  -6   13.30    8.50
   1   2   6   19.80    7.60
  -1   2  -6   18.20    7.80
  -1   2  -6   11.80    7.30
   1   2   6   16.00    5.60
   1   2   6   16.40    5.50
   2  -2   6  203.58   18.80
   2  -2   6  225.38   17.10
   2  -2   6  178.58   23.80
   2  -2   6  205.78   24.30
  -2  -2  -6  214.38   24.30
  -2  -2  -6  209.88   24.90
   2  -2   6  238.58   24.50
  -2  -2  -6  253.27   19.40
  -2  -2  -6  197.88   22.70
   2  -2   6  214.68   27.00
  -2   2  -6  204.28   17.20
  -2   2  -6  214.18   23.10
  -2   2  -6  307.27   25.70
   2   2   6  177.38   22.40
   2   2   6  230.68   18.60
  -2   2  -6  259.67   26.00
   2   2   6  240.48   22.00
  -2   2  -6  250.57   24.80
   2   2   6  230.38   18.60
   2   2   6  231.08   21.20
   2   2   6  229.28   25.70
  -3  -2  -6  195.78   24.50
  -3  -2  -6  185.88   22.20
   3  -2   6  206.38   20.20
  -3  -2  -6  177.98   24.40
   3  -2   6  195.58   23.80
   3  -2   6  186.98   22.60
   3  -2   6  179.08   17.10
   3  -2   6  144.59   23.40
   3  -2   6  230.68   28.20
  -3  -2  -6  174.38   18.70
   3   2   6  213.38   24.50
   3   2   6  171.38   23.60
  -3   2  -6  214.58   24.60
   3   2   6  193.18   21.60
  -3   2  -6  190.48   22.70
  -3   2  -6  162.28   21.20
   3   2   6  199.58   21.00
   3   2   6  205.78   25.50
  -3   2  -6  198.38   23.20
  -3   2  -6  167.08   21.50
   4  -2   6  104.89   19.90
   4  -2   6  101.29   20.60
   4  -2   6  123.89   19.70
  -4  -2  -6  117.49   19.50
  -4  -2  -6   81.99   15.90
   4  -2   6  112.69   14.70
   4  -2   6  104.79   14.60
  -4  -2  -6   78.99   17.40
  -4  -2  -6  114.59   15.90
  -4   2  -6  103.49   17.90
  -4   2  -6   97.19   15.90
   4   2   6  134.79   21.40
   4   2   6  110.39   19.10
  -4   2  -6   97.29   18.00
   4   2   6  106.69   17.00
  -4   2  -6  126.29   20.30
   4   2   6  114.09   19.80
   4   2   6   85.39   15.10
  -4   2  -6  112.89   18.80
   5  -2   6   37.90    9.70
  -5  -2  -6   38.70   13.10
   5  -2   6   44.40   17.10
  -5  -2  -6   27.20   10.40
  -5  -2  -6   56.29   11.50
   5  -2   6   40.60   16.50
   5  -2   6   28.70    8.40
   5   2   6   34.90   14.90
   5   2   6   54.39   12.20
  -5   2  -6   47.50   14.50
  -5   2  -6   37.70   11.80
   5   2   6   40.50   12.00
  -5   2  -6   39.20   13.10
   5   2   6   41.40   12.90
   7  -3  -6   62.99   20.00
  -7  -3   6   48.90   17.40
  -7  -3   6   49.50   13.90
  -7  -3   6   43.40   12.90
   7  -3  -6   44.20   10.40
   7  -3  -6   68.99   17.40
  -7   3   6   48.80   15.70
  -7   3   6   52.09   15.10
  -7   3   6   70.89   16.20
   7   3  -6   57.99   15.50
  -7   3   6   35.60   14.10
   7   3  -6   99.79   19.40
   6  -3  -6  271.07   25.80
   6  -3  -6  282.57   30.90
  -6  -3   6  319.37   33.00
   6  -3  -6  258.57   31.70
   6  -3  -6  302.87   36.70
  -6  -3   6  260.07   28.20
  -6  -3   6  303.67   32.60
  -6   3   6  238.78   30.10
  -6   3   6  273.67   29.10
   6   3  -6  298.57   32.40
   6   3  -6  238.18   28.60
  -6   3   6  337.67   34.70
  -6   3   6  294.77   30.70
   6   3  -6  300.87   30.60
  -5  -3   6   89.09   14.70
   5  -3  -6   87.79   15.80
   5  -3  -6   87.89   14.30
   5  -3  -6   93.09   17.10
  -5  -3   6   58.29   13.50
   5  -3  -6   85.29   19.40
   5  -3  -6   84.89   13.30
  -5  -3   6   95.99   16.60
  -5   3   6  111.19   18.70
   5   3  -6   88.79   16.70
  -5   3   6   88.59   15.00
   5   3  -6   81.79   16.20
  -5   3   6   86.99   11.30
   5   3  -6   73.69   14.60
  -5   3   6   82.09   16.70
  -5   3   6   85.89   15.80
   4  -3  -6  265.07   29.00
  -4  -3   6  216.18   14.90
  -4  -3   6  223.78   23.30
   4  -3  -6  184.88   20.30
   4  -3  -6  168.88   21.40
  -4  -3   6  175.98   19.30
  -4  -3   6  189.08   22.80
  -4  -3   6  167.58   24.40
   4  -3  -6  209.88   21.90
  -4   3   6  152.38   19.70
   4   3  -6  154.08   21.60
  -4   3   6  211.38   15.10
  -4   3   6  158.38   21.20
   4   3  -6  180.08   21.40
   4   3  -6  183.98   23.30
  -4   3   6  190.88   20.50
  -4   3   6  137.79   21.50
   3  -3  -6 1370.76   88.49
  -3  -3   6 1419.86   87.89
   3  -3  -6 1621.84   92.79
  -3  -3   6 1387.76   81.99
  -3  -3   6 1418.26   85.69
  -3  -3   6 1439.96   89.09
   3  -3  -6 1408.96   86.49
   3  -3  -6 1382.56   87.79
  -3  -3   6 1386.56   92.09
  -3   3   6 1424.76   87.49
  -3   3   6 1536.25   90.19
   3   3  -6 1448.76   82.99
   3   3  -6 1449.85   89.29
  -3   3   6 1556.44   79.19
   3   3  -6 1441.26   90.29
  -3   3   6 1402.66   89.99
   3   3  -6 1452.65   87.69
   2  -3  -6  642.44   42.50
  -2  -3   6  658.63   47.90
   2  -3  -6  634.64   45.20
  -2  -3   6  620.34   40.80
   2  -3  -6  595.34   43.90
  -2  -3   6  585.24   42.70
  -2  -3   6  606.14   39.80
   2  -3  -6  528.65   43.00
   2  -3  -6  639.94   39.10
  -2  -3   6  620.74   35.60
  -2  -3   6  672.23   44.40
   2   3  -6  597.34   43.60
  -2   3   6  601.24   44.80
   2   3  -6  640.64   40.30
   2   3  -6  644.14   46.30
  -2   3   6  644.14   44.60
   2   3  -6  661.83   46.70
   2   3  -6  652.23   43.30
  -2   3   6  732.23   44.20
  -1  -3   6   75.19   11.20
  -1  -3   6   86.69   12.70
  -1  -3   6   85.99   12.90
  -1  -3   6   63.49   14.30
   1  -3  -6   70.89   11.80
   1  -3  -6   78.29   13.90
   1  -3  -6   69.09   12.80
   1  -3  -6   80.19    8.90
  -1  -3   6   96.29   11.20
  -1  -3   6   75.29   13.90
  -1  -3   6   75.29    7.50
   1  -3  -6   91.09   15.10
  -1   3   6   77.79   14.00
   1   3  -6   84.09   13.00
   1   3  -6   83.19   13.10
  -1   3   6   59.39   12.40
   1   3  -6  103.29   14.50
  -1   3   6   74.49   11.90
  -1   3   6   71.39   11.30
   1   3  -6  104.99   16.20
   0  -3   6  138.49   19.10
   0  -3  -6  152.68   17.80
   0  -3  -6  161.78   11.90
   0  -3   6  147.79   17.70
   0  -3   6  139.39   15.40
   0  -3  -6  146.19   12.00
   0  -3   6  161.88   17.60
   0  -3   6  129.79   19.80
   0  -3  -6  146.99   18.60
   0  -3  -6  151.78   11.30
   0  -3   6  162.18   14.20
   0  -3  -6  136.69   16.80
   0  -3  -6  153.08   19.90
   0   3   6  138.69   16.80
   0   3  -6  137.89   17.90
   0   3  -6  142.49   19.10
   0   3   6  142.89   16.60
   0   3   6  151.28   14.90
   0   3   6  157.88   20.90
   0   3   6  133.59   18.00
   0   3  -6  148.29   17.10
   0   3  -6  176.68   19.50
   1  -3   6  221.08   18.90
  -1  -3  -6  208.98   19.80
  -1  -3  -6  187.88   22.60
   1  -3   6  193.28   23.50
   1  -3   6  232.08   26.50
  -1  -3  -6  226.08   24.30
  -1  -3  -6  201.48   15.30
   1  -3   6  234.88   17.50
   1  -3   6  231.68   20.60
   1  -3   6  214.08   20.60
  -1   3  -6  171.78   20.10
   1   3   6  179.98   21.50
   1   3   6  164.68   19.00
   1   3   6  191.08   18.20
   1   3   6  178.88   23.40
  -1   3  -6  192.48   21.80
   1   3   6  205.98   16.90
  -1   3  -6  158.88   20.30
   1   3   6  183.58   20.20
  -1   3  -6  212.28   22.00
  -1   3  -6  186.98   22.80
  -2  -3  -6  236.98   25.30
   2  -3   6  217.48   23.90
   2  -3   6  254.57   19.50
  -2  -3  -6  216.98   18.30
   2  -3   6  246.98   29.60
  -2  -3  -6  230.18   26.70
   2  -3   6  241.28   24.90
   2  -3   6  241.08   24.80
   2   3   6  280.57   18.40
  -2   3  -6  239.28   22.70
  -2   3  -6  202.58   24.50
  -2   3  -6  229.98   25.10
   2   3   6  251.47   23.00
  -2   3  -6  213.18   24.60
  -2   3  -6  252.27   23.70
   2   3   6  213.88   26.00
   2   3   6  243.88   23.00
   2   3   6  289.17   26.40
  -3  -3  -6  275.37   22.70
  -3  -3  -6  347.27   29.10
   3  -3   6  281.87   26.80
   3  -3   6  274.47   21.90
  -3  -3  -6  284.17   31.10
   3  -3   6  324.77   31.70
  -3  -3  -6  253.37   31.10
   3  -3   6  297.17   28.30
   3  -3   6  272.27   32.20
   3   3   6  246.78   26.90
   3   3   6  263.27   27.40
  -3   3  -6  291.87   27.10
   3   3   6  301.37   29.10
  -3   3  -6  304.27   26.90
  -3   3  -6  271.47   29.40
  -3   3  -6  257.27   29.60
   3   3   6  303.07   32.90
   3   3   6  290.27   26.60
  -3   3  -6  326.57   28.70
  -4  -3  -6  251.67   31.10
  -4  -3  -6  270.37   22.90
   4  -3   6  243.88   31.30
   4  -3   6  301.47   35.50
  -4  -3  -6  238.58   27.40
   4  -3   6  220.48   20.20
  -4  -3  -6  241.68   29.50
   4   3   6  301.07   26.60
   4   3   6  196.48   26.30
   4   3   6  258.77   31.60
  -4   3  -6  221.58   27.40
  -4   3  -6  237.98   26.60
  -4   3  -6  248.78   27.80
   4   3   6  241.18   29.60
  -4   3  -6  204.28   25.60
   4   3   6  256.37   27.00
  -4   3  -6  225.08   24.50
   5  -3   6   35.20   15.60
  -5  -3  -6   52.69   16.70
   5  -3   6   40.20   14.20
  -5  -3  -6   46.50   14.70
  -5   3  -6   51.99   14.90
  -5   3  -6   29.50   11.10
   5   3   6   46.30   16.70
   5   3   6   29.90   13.10
   5   3   6   61.29   15.50
   5   3   6   32.10   10.50
  -5   3  -6   32.60   12.20
  -7  -4   6   51.29   15.70
  -7  -4   6   31.50   15.20
   7  -4  -6   51.39   16.30
   7  -4  -6   65.09   19.70
  -7  -4   6   54.39   12.60
  -7   4   6   35.10   13.70
  -7   4   6   65.89   14.60
   7   4  -6   44.30   14.20
  -7   4   6   76.19   17.70
   7   4  -6   60.39   15.90
  -7   4   6   56.89   16.00
   7   4  -6   37.10   12.00
  -6  -4   6  228.78   25.60
  -6  -4   6  248.28   28.90
   6  -4  -6  262.67   23.20
   6  -4  -6  234.38   29.90
   6  -4  -6  237.28   31.90
  -6  -4   6  275.97   29.80
  -6   4   6  211.08   26.60
  -6   4   6  215.38   28.40
   6   4  -6  220.28   27.80
   6   4  -6  227.18   27.80
  -6   4   6  245.78   29.20
   6   4  -6  242.78   28.10
  -6   4   6  213.58   25.10
   5  -4  -6  210.58   29.10
  -5  -4   6  201.88   27.10
   5  -4  -6  214.38   27.40
   5  -4  -6  168.88   19.70
   5  -4  -6  245.78   26.90
  -5  -4   6  206.78   22.50
  -5  -4   6  224.78   26.60
  -5  -4   6  217.78   25.90
   5  -4  -6  213.58   20.50
   5   4  -6  289.67   29.40
  -5   4   6  213.38   24.60
   5   4  -6  199.18   25.00
  -5   4   6  189.18   25.40
  -5   4   6  210.18   23.30
   5   4  -6  224.98   24.90
  -5   4   6  218.68   24.10
  -4  -4   6  410.46   34.30
  -4  -4   6  387.36   35.80
  -4  -4   6  492.85   35.90
   4  -4  -6  388.46   29.30
   4  -4  -6  366.86   30.70
   4  -4  -6  378.46   33.10
  -4  -4   6  421.26   30.70
   4  -4  -6  449.95   38.20
   4   4  -6  334.37   32.40
  -4   4   6  434.26   32.30
  -4   4   6  381.76   35.70
   4   4  -6  391.86   33.10
  -4   4   6  424.76   31.00
  -4   4   6  363.36   32.30
   4   4  -6  412.06   32.30
  -3  -4   6  241.88   22.60
   3  -4  -6  257.87   29.60
  -3  -4   6  215.98   15.70
   3  -4  -6  204.28   23.50
  -3  -4   6  235.18   22.70
  -3  -4   6  250.07   19.40
   3  -4  -6  273.37   21.80
  -3  -4   6  227.78   19.80
   3  -4  -6  233.38   25.80
  -3  -4   6  239.78   28.10
  -3  -4   6  255.07   23.80
  -3   4   6  220.88   24.20
   3   4  -6  249.88   27.50
   3   4  -6  235.18   22.50
  -3   4   6  253.07   24.70
   3   4  -6  244.08   25.40
  -3   4   6  252.67   21.90
  -2  -4   6  134.99   14.30
   2  -4  -6  139.19   11.70
  -2  -4   6  115.99   12.00
   2  -4  -6  155.08   19.30
  -2  -4   6  141.09   16.90
   2  -4  -6  123.59   15.20
  -2  -4   6  128.29   19.90
   2  -4  -6  132.69   18.20
   2  -4  -6  121.59   18.60
  -2  -4   6  120.29   17.30
  -2  -4   6  160.08   19.10
   2   4  -6  133.39   16.50
  -2   4   6  135.49   16.60
   2   4  -6  146.79   19.30
  -2   4   6  113.39   15.90
   2   4  -6  137.09   12.60
   2   4  -6  136.59   17.80
  -2   4   6   88.59   14.80
  -2   4   6  130.19   18.80
   2   4  -6  131.19   16.80
  -1  -4   6  486.75   36.80
   1  -4  -6  435.36   35.60
   1  -4  -6  430.86   34.60
  -1  -4   6  507.15   35.50
  -1  -4   6  475.35   30.00
   1  -4  -6  421.96   32.40
   1  -4  -6  428.96   27.00
  -1  -4   6  461.45   27.50
   1  -4  -6  426.66   34.90
  -1  -4   6  381.86   36.60
  -1  -4   6  482.35   30.20
  -1  -4   6  503.85   34.50
   1   4  -6  477.05   34.50
  -1   4   6  475.65   37.60
   1   4  -6  473.15   34.60
  -1   4   6  507.45   36.20
   1   4  -6  482.35   32.10
  -1   4   6  475.05   34.00
   1   4  -6  461.15   33.30
   1   4  -6  404.16   35.30
  -1   4   6  396.16   32.50
   0  -4  -6  134.29    9.20
   0  -4  -6  107.89   16.70
   0  -4   6  109.49   17.50
   0  -4  -6  125.49    9.10
   0  -4  -6  134.79   16.40
   0  -4  -6  130.69    8.60
   0  -4  -6  127.69   16.70
   0  -4   6  114.59   11.40
   0  -4   6  146.49   17.00
   0  -4   6  159.28   21.90
   0  -4  -6  129.89    8.70
   0  -4   6  124.99   14.20
   0  -4  -6   91.89   16.70
   0  -4   6  131.59   11.60
   0   4   6  133.49   18.90
   0   4  -6  118.29   15.10
   0   4   6  116.49   15.40
   0   4  -6  148.49   17.20
   0   4  -6  115.39   18.20
   0   4  -6  156.58   18.00
   0   4   6  132.99   13.10
   0   4  -6  120.69    7.60
   0   4   6  120.59   17.40
   0   4   6  139.69   16.90
   0   4  -6  128.89    7.70
   1  -4   6  208.28   16.00
  -1  -4  -6  244.98   21.80
   1  -4   6  227.48   21.10
  -1  -4  -6  213.88   14.30
   1  -4   6  237.58   28.20
   1  -4   6  176.38   21.20
   1  -4   6  174.28   23.50
  -1  -4  -6  189.38   23.10
   1   4   6  201.08   22.70
  -1   4  -6  212.28   24.20
  -1   4  -6  236.88   21.20
   1   4   6  213.58   22.30
  -1   4  -6  224.18   20.60
  -1   4  -6  249.18   22.40
   1   4   6  198.28   21.40
  -1   4  -6  200.08   23.50
   1   4   6  206.18   16.10
   1   4   6  241.68   26.70
   2  -4   6  604.14   45.40
  -2  -4  -6  532.85   33.80
  -2  -4  -6  541.85   42.40
  -2  -4  -6  556.64   42.10
   2  -4   6  504.45   40.90
  -2  -4  -6  532.65   40.10
   2  -4   6  548.45   44.90
   2  -4   6  552.74   39.40
  -2   4  -6  576.64   41.70
  -2   4  -6  546.15   40.30
   2   4   6  523.15   41.30
  -2   4  -6  563.44   42.70
   2   4   6  579.24   45.10
  -2   4  -6  559.74   40.10
   2   4   6  472.75   39.00
   2   4   6  593.44   40.90
   3  -4   6   43.10    6.40
   3  -4   6   61.69   15.10
   3  -4   6   43.80   12.80
  -3  -4  -6   60.99   15.40
  -3  -4  -6   75.79   13.50
  -3  -4  -6   35.00   12.50
   3  -4   6   49.70   13.70
  -3  -4  -6   53.59    9.70
  -3   4  -6   41.00   11.30
  -3   4  -6   48.80   12.20
   3   4   6   51.19   12.90
   3   4   6   50.49   13.10
   3   4   6   28.10   10.20
  -3   4  -6   27.20   10.20
   3   4   6   30.80   11.10
  -3   4  -6   48.30   12.90
  -3   4  -6   34.70   12.50
   4  -4   6   94.69   21.60
  -4  -4  -6   96.69   19.30
  -4  -4  -6   81.39   16.50
   4  -4   6  101.99   21.10
  -4   4  -6   92.59   14.90
   4   4   6   72.79   15.80
   4   4   6   93.89   18.30
   4   4   6  101.19   16.90
   4   4   6   71.49   14.90
   4   4   6  110.19   19.50
  -4   4  -6   92.79   17.00
  -4   4  -6   77.99   17.00
  -4   4  -6  111.09   18.40
  -4   4  -6   94.29   16.20
  -5  -4  -6   46.20   14.30
   5  -4   6   26.40   15.30
  -5  -4  -6   17.60   10.50
   5  -4   6    8.10   12.10
  -5   4  -6    8.00    8.50
   5   4   6   49.30   14.20
  -5   4  -6   24.50   10.40
   5   4   6   20.10   14.00
   5   4   6   18.50    9.40
   5   4   6   32.70   11.40
  -5   4  -6   21.40   10.80
   5   4   6   16.50   12.70
   6  -5  -6   78.09   20.00
  -6  -5   6   86.09   18.10
  -6  -5   6   88.79   18.40
   6  -5  -6   74.39   17.20
  -6  -5   6   78.99   14.80
  -6   5   6   59.89   15.10
  -6   5   6   75.49   14.70
  -6   5   6   83.19   14.50
   6   5  -6   71.99   16.00
   6   5  -6   55.09   12.90
  -6   5   6   57.19   17.50
   6   5  -6   76.29   17.60
  -5  -5   6  197.38   25.40
  -5  -5   6  164.28   22.30
   5  -5  -6  131.49   25.10
  -5  -5   6  151.08   18.10
  -5  -5   6  178.48   26.60
   5  -5  -6  163.28   17.40
  -5   5   6  157.98   20.60
  -5   5   6  177.58   22.40
  -5   5   6  158.58   19.10
   5   5  -6  183.18   22.90
  -5   5   6  125.19   21.40
   5   5  -6  204.38   25.00
   5   5  -6  161.08   24.00
   4  -5  -6   66.69   13.50
   4  -5  -6   47.10   13.50
  -4  -5   6   56.89   10.40
   4  -5  -6   68.89   10.70
  -4  -5   6   71.39   11.20
  -4  -5   6   64.09   16.10
  -4  -5   6   60.49   12.30
  -4  -5   6   59.99   14.40
   4   5  -6   68.49   15.70
  -4   5   6   92.89   16.00
  -4   5   6   82.79   17.50
   4   5  -6   44.30   11.40
  -4   5   6   39.50    9.60
  -4   5   6   98.69   14.40
   4   5  -6   80.49   14.30
   3  -5  -6  466.55   37.10
  -3  -5   6  463.75   36.00
  -3  -5   6  486.95   38.50
  -3  -5   6  500.05   32.40
   3  -5  -6  463.45   39.80
   3  -5  -6  479.95   33.30
  -3  -5   6  556.74   42.80
  -3  -5   6  504.75   35.90
   3   5  -6  474.25   35.80
  -3   5   6  426.96   39.20
  -3   5   6  499.35   37.40
   3   5  -6  414.16   37.30
   3   5  -6  531.95   38.10
  -3   5   6  439.56   34.70
   2  -5  -6  889.71   52.99
  -2  -5   6  743.13   58.69
   2  -5  -6  803.72   58.99
  -2  -5   6  870.81   55.29
  -2  -5   6  942.21   58.29
   2  -5  -6  815.42   56.29
  -2  -5   6  849.81   56.49
  -2  -5   6  887.41   50.19
  -2   5   6  866.61   56.49
   2   5  -6  882.61   55.89
   2   5  -6  785.52   49.70
   2   5  -6  769.82   53.49
   2   5  -6  878.71   55.89
  -2   5   6  873.51   54.69
  -2   5   6  866.51   56.49
  -2   5   6  743.73   57.39
   2   5  -6  774.62   57.29
  -1  -5   6  172.68   19.10
   1  -5  -6  193.88   22.10
  -1  -5   6  194.78   21.80
  -1  -5   6  191.58   25.60
   1  -5  -6  210.58   24.60
   1  -5  -6  182.38   18.90
  -1  -5   6  195.58   13.30
  -1  -5   6  181.58   22.70
   1   5  -6  178.98   19.60
   1   5  -6  210.48   21.50
  -1   5   6  173.48   20.60
  -1   5   6  207.58   21.10
   1   5  -6  212.78   24.60
   1   5  -6  180.78   20.10
   1   5  -6  170.88   17.60
  -1   5   6  201.28   24.60
  -1   5   6  209.18   22.10
   0  -5  -6  556.04   30.70
   0  -5   6  518.65   36.80
   0  -5   6  592.74   38.90
   0  -5   6  562.04   32.00
   0  -5   6  500.05   41.90
   0  -5  -6  585.14   31.20
   0  -5  -6  557.04   42.00
   0  -5   6  481.75   42.40
   0  -5  -6  559.94   38.30
   0  -5  -6  535.85   41.50
   0   5  -6  545.95   42.40
   0   5   6  573.64   40.50
   0   5  -6  531.05   38.30
   0   5   6  597.44   41.70
   0   5   6  509.95   42.20
   0   5  -6  562.14   39.60
   0   5  -6  531.35   38.10
   0   5  -6  562.84   33.00
   0   5   6  542.35   39.00
   0   5   6  534.75   35.60
   1  -5   6  265.17   31.90
   1  -5   6  284.57   26.30
  -1  -5  -6  317.87   21.80
   1  -5   6  293.67   29.70
  -1  -5  -6  277.17   25.20
   1  -5   6  270.27   24.50
  -1  -5  -6  335.47   29.50
   1   5   6  303.27   26.40
  -1   5  -6  342.67   30.00
   1   5   6  320.17   19.50
   1   5   6  314.57   27.40
  -1   5  -6  333.57   26.10
  -1   5  -6  301.17   27.40
   1   5   6  281.37   26.50
   1   5   6  276.67   31.40
  -1   5  -6  301.97   25.60
  -2  -5  -6   10.20    8.10
   2  -5   6    3.50    6.40
  -2  -5  -6    8.90    7.20
   2  -5   6    4.60    9.00
  -2  -5  -6    9.20    6.70
   2  -5   6    0.60    6.60
  -2   5  -6    7.80    6.20
   2   5   6    8.30    6.20
   2   5   6    8.60    7.70
   2   5   6   19.00    7.70
  -2   5  -6    4.10    5.30
  -2   5  -6    7.80    7.20
  -2   5  -6    3.10    9.10
   2   5   6   -0.70    6.80
  -3  -5  -6   49.80   14.40
   3  -5   6   50.49   14.10
  -3  -5  -6   47.70   14.70
   3  -5   6   33.40   12.40
  -3  -5  -6   18.00   10.00
   3  -5   6   40.80   13.00
  -3   5  -6   54.79   14.40
   3   5   6   36.50   11.60
   3   5   6   25.30    9.30
  -3   5  -6   46.30   12.10
   3   5   6   39.90   10.90
  -3   5  -6   51.79   12.20
  -3   5  -6   47.60   11.80
  -3   5  -6   50.59   12.10
   3   5   6   30.90   13.70
   4  -5   6  126.99   24.50
   4  -5   6  108.59   23.30
  -4  -5  -6  117.69   20.80
  -4  -5  -6   80.49   16.60
  -4   5  -6  177.68   22.80
   4   5   6  121.79   20.00
  -4   5  -6  138.69   18.40
   4   5   6  109.69   18.60
   4   5   6  157.58   22.70
  -4   5  -6  120.19   19.20
  -4   5  -6  127.89   20.50
   4   5   6  109.79   21.50
   4   5   6  123.09   21.60
   5  -5   6  151.68   28.40
  -5  -5  -6  107.99   19.50
  -5  -5  -6  106.49   21.40
   5  -5   6  117.69   22.90
   5   5   6  129.89   22.20
  -5   5  -6  152.58   22.40
   5   5   6  112.59   19.00
   5   5   6   97.29   21.60
  -5   5  -6  116.99   20.00
   5   5   6  116.19   22.10
  -5   5  -6  141.19   22.80
  -6  -6   6  190.68   21.20
   6  -6  -6  225.58   31.00
  -6  -6   6  192.78   29.20
   6  -6  -6  205.18   32.20
  -6  -6   6  179.68   27.10
  -6   6   6  203.28   30.70
  -6   6   6  209.68   26.30
   6   6  -6  196.88   28.00
  -6   6   6  184.58   23.40
   6   6  -6  211.18   25.60
  -6   6   6  216.88   26.20
   6   6  -6  189.68   25.40
   5  -6  -6   17.70   11.20
  -5  -6   6    5.20    6.30
  -5  -6   6   10.90    8.60
  -5  -6   6    9.30    7.60
   5   6  -6   28.50   11.20
   5   6  -6    8.00    9.20
  -5   6   6   14.50    9.10
  -5   6   6    5.70    7.90
   5   6  -6   10.60    9.50
  -5   6   6    7.70    7.80
  -5   6   6   20.20    8.20
  -4  -6   6  339.67   33.10
   4  -6  -6  327.27   24.90
  -4  -6   6  323.47   25.30
  -4  -6   6  340.47   33.70
   4  -6  -6  342.17   38.70
  -4   6   6  404.96   36.70
   4   6  -6  364.36   30.90
   4   6  -6  383.76   31.00
   4   6  -6  312.57   32.00
  -4   6   6  371.76   27.50
  -4   6   6  348.67   30.00
  -4   6   6  349.96   30.20
   3  -6  -6  128.49   23.60
   3  -6  -6  146.59   19.40
  -3  -6   6  157.18   23.50
  -3  -6   6  154.18   19.40
  -3  -6   6  211.68   25.90
  -3  -6   6  209.98   22.30
   3  -6  -6  191.18   15.70
  -3   6   6  167.18   23.50
   3   6  -6  215.08   25.70
  -3   6   6  193.68   21.50
   3   6  -6  169.88   21.00
  -3   6   6  179.38   21.50
   3   6  -6  157.98   19.50
   2  -6  -6  246.08   30.10
  -2  -6   6  261.17   31.30
   2  -6  -6  295.57   26.40
   2  -6  -6  245.78   20.60
  -2  -6   6  270.17   24.10
  -2  -6   6  320.07   26.80
  -2  -6   6  265.17   25.80
  -2   6   6  233.88   23.40
  -2   6   6  330.07   28.60
  -2   6   6  275.67   24.60
  -2   6   6  254.77   29.70
   2   6  -6  313.17   24.50
   2   6  -6  268.47   29.70
   2   6  -6  274.77   24.70
  -1  -6   6  114.99   19.70
   1  -6  -6  136.19   14.30
  -1  -6   6  116.49   15.20
   1  -6  -6  160.68   22.40
  -1  -6   6  136.09   19.00
  -1  -6   6  118.99   17.60
   1  -6  -6  114.69   16.30
   1   6  -6  109.39   14.80
   1   6  -6  114.89   18.80
  -1   6   6   97.69   18.20
  -1   6   6  118.99   15.90
  -1   6   6   93.39   16.20
  -1   6   6  129.59   17.20
   1   6  -6  104.99   14.60
   0  -6  -6  169.88   22.70
   0  -6  -6  142.99   15.60
   0  -6   6  170.28   22.30
   0  -6  -6  121.79   17.80
   0  -6   6  183.68   25.40
   0   6   6  118.79   17.00
   0   6   6  125.49   19.90
   0   6  -6  134.29   16.70
   0   6  -6  163.88   21.90
   0   6  -6  142.99   16.70
   0   6   6  146.79   18.00
   0   6   6  139.79   19.00
   0   6   6  142.89   13.00
  -1  -6  -6  169.78   21.30
   1  -6   6  164.48   20.50
   1  -6   6  198.88   26.00
   1  -6   6  153.58   23.10
  -1  -6  -6  180.48   14.70
  -1   6  -6  149.19   18.80
   1   6   6  191.18   20.60
  -1   6  -6  162.08   21.20
   1   6   6  213.18   26.50
   1   6   6  166.98   20.70
  -1   6  -6  147.49   21.60
   1   6   6  168.88   21.00
  -1   6  -6  213.48   19.10
  -2  -6  -6   20.70   11.30
   2  -6   6   28.10   11.90
  -2  -6  -6   59.49   14.90
   2  -6   6   29.70   10.00
  -2  -6  -6   34.40    8.40
   2  -6   6   25.50   13.10
  -2  -6  -6   48.20   11.30
   2   6   6   32.50    9.70
  -2   6  -6   44.30   11.20
   2   6   6   42.60   10.00
  -2   6  -6   45.20   13.40
  -2   6  -6   23.40    8.60
   2   6   6   34.40   11.80
   2   6   6   32.10   10.00
  -2   6  -6   28.60    9.30
  -3  -6  -6  211.88   27.90
   3  -6   6  168.08   26.10
  -3  -6  -6  159.68   20.90
   3  -6   6  184.58   27.00
   3  -6   6  132.09   24.70
  -3  -6  -6  250.77   28.80
   3   6   6  199.08   23.90
  -3   6  -6  196.48   23.10
  -3   6  -6  169.28   25.50
  -3   6  -6  212.88   23.60
   3   6   6  216.18   28.10
   3   6   6  156.18   22.30
   3   6   6  192.48   23.50
  -3   6  -6  191.88   22.20
  -3   6  -6  186.78   22.40
  -4  -6  -6   -1.00    8.00
   4  -6   6    4.40    9.40
   4  -6   6    8.90   12.30
  -4  -6  -6    6.20    8.70
  -4   6  -6   27.80   13.20
   4   6   6    7.60    8.50
   4   6   6   11.50    8.20
   4   6   6   17.20   10.70
  -4   6  -6   -1.30    7.30
   4   6   6   10.60   11.70
   4   6   6   -3.40    9.90
  -4   6  -6   18.90    9.50
  -6  -7   6  108.89   22.10
   6  -7  -6  128.69   25.10
  -6  -7   6   92.59   19.60
  -6   7   6  115.19   23.50
  -6   7   6  120.49   19.80
   6   7  -6   84.49   18.70
   6   7  -6  120.19   21.40
   6   7  -6  104.09   21.00
  -6   7   6  124.39   20.50
  -5  -7   6   56.89   17.20
   5  -7  -6   62.39   19.50
  -5  -7   6   68.39   15.90
   5   7  -6   81.99   16.40
  -5   7   6   61.69   17.80
   5   7  -6   71.99   17.40
  -5   7   6   96.79   17.00
  -5   7   6   54.39   13.90
   5   7  -6   79.29   15.70
   4  -7  -6    4.40   10.00
  -4  -7   6    6.20    7.10
  -4  -7   6   10.50   12.40
  -4   7   6   12.50    6.50
   4   7  -6   17.40    9.90
   4   7  -6    6.50    8.10
   4   7  -6    2.10   10.10
  -4   7   6   14.70    8.10
  -4   7   6    9.10    9.70
  -3  -7   6  183.08   25.00
   3  -7  -6  246.68   32.10
  -3  -7   6  196.18   27.10
   3   7  -6  177.88   22.00
   3   7  -6  218.08   23.10
  -3   7   6  221.68   22.90
  -3   7   6  240.18   28.50
   3   7  -6  225.98   28.20
  -3   7   6  191.68   22.20
  -2  -7   6   16.70    8.80
   2  -7  -6   23.10   12.20
  -2  -7   6   19.30   10.90
  -2  -7   6   13.30    9.70
  -2   7   6   18.80   10.60
   2   7  -6   31.40    8.90
  -2   7   6   14.20   11.50
   2   7  -6   36.70   12.80
  -2   7   6   35.20    9.60
  -2   7   6   18.70    7.20
   2   7  -6   31.70    8.80
  -1  -7   6    2.70    5.50
  -1  -7   6    1.10    6.00
  -1  -7   6    2.60    5.70
   1  -7  -6    6.00    4.10
   1  -7  -6    3.70    7.00
  -1   7   6   17.90   10.40
   1   7  -6    1.90    5.20
  -1   7   6    8.90    7.20
   1   7  -6    7.50    7.40
  -1   7   6    3.20    6.30
   1   7  -6   10.60    6.40
  -1   7   6    3.00    7.20
   0  -7   6  287.77   29.60
   0  -7  -6  316.77   29.30
   0  -7   6  314.77   32.60
   0  -7   6  320.47   25.60
   0   7  -6  334.37   26.40
   0   7  -6  272.97   31.80
   0   7  -6  315.57   25.60
   0   7   6  329.77   33.00
   0   7   6  338.57   30.50
   0   7   6  303.67   26.20
   0   7   6  371.06   29.80
  -1  -7  -6  474.65   34.80
   1  -7   6  457.05   38.00
   1  -7   6  435.76   43.00
   1  -7   6  576.64   45.60
  -1  -7  -6  490.35   39.20
  -1  -7  -6  477.25   39.50
   1   7   6  546.75   44.40
  -1   7  -6  501.15   41.30
   1   7   6  568.84   40.70
  -1   7  -6  544.45   36.70
   1   7   6  490.95   37.20
  -1   7  -6  481.95   36.10
  -1   7  -6  529.25   41.80
   1   7   6  539.85   40.90
  -2  -7  -6   55.49   10.40
   2  -7   6   48.70   15.90
   2  -7   6   62.49   16.30
   2  -7   6   59.19   14.50
   2   7   6   40.70   13.10
   2   7   6   59.09   14.30
  -2   7  -6   50.99   11.20
  -2   7  -6   19.70   10.40
  -2   7  -6   47.50   10.00
   2   7   6   41.90   11.40
   2   7   6   59.49   12.10
  -2   7  -6   56.69   10.80
  -2   7  -6   37.20   13.90
  -3  -7  -6  135.79   17.90
   3  -7   6  159.18   26.20
   3  -7   6  149.59   25.30
   3  -7   6  135.99   23.10
  -3   7  -6  125.49   21.70
  -3   7  -6  141.39   18.10
   3   7   6  132.19   20.10
  -3   7  -6  144.59   18.50
  -3   7  -6  137.29   19.20
   3   7   6  144.19   23.70
   3   7   6  131.99   20.20
  -3   7  -6  150.18   19.80
   3   7   6  155.28   21.10
   4  -7   6   94.79   21.90
  -4  -7  -6   74.79   14.70
  -4   7  -6   71.29   13.80
  -4   7  -6  108.19   20.20
   4   7   6  112.29   20.30
   4   7   6   92.79   21.00
   4   7   6  103.99   19.40
   4   7   6   89.89   16.20
  -4   7  -6   95.99   16.50
   5  -8  -6   84.09   21.90
  -5  -8   6   82.59   18.90
  -5  -8   6   77.09   19.50
  -5   8   6  105.59   23.30
  -5   8   6  102.59   17.00
   5   8  -6   87.09   16.70
   5   8  -6   80.79   16.10
   5   8  -6   60.89   16.10
  -5   8   6  101.69   17.00
   4  -8  -6  274.87   36.10
  -4  -8   6  241.58   31.80
  -4  -8   6  265.17   30.70
   4   8  -6  229.98   26.10
  -4   8   6  259.87   24.30
  -4   8   6  240.38   31.90
  -4   8   6  229.48   25.20
   4   8  -6  246.18   26.30
   4   8  -6  243.78   30.20
  -3  -8   6   44.30   15.80
  -3  -8   6   38.40   13.50
   3  -8  -6   37.90   16.30
  -3   8   6   48.10   13.50
   3   8  -6   27.30    9.40
  -3   8   6   47.10   11.10
   3   8  -6   45.30   10.50
   3   8  -6   51.79   15.90
  -3   8   6   39.70   11.60
  -3   8   6   36.40   10.40
  -2  -8   6  262.37   30.20
  -2  -8   6  301.57   27.20
  -2  -8   6  298.97   35.10
   2  -8  -6  320.77   36.00
  -2   8   6  263.17   30.10
  -2   8   6  275.67   32.80
   2   8  -6  243.08   23.80
   2   8  -6  274.57   24.40
  -2   8   6  283.67   25.10
  -2   8   6  255.67   24.50
   2   8  -6  276.67   32.60
  -1  -8   6  489.15   44.30
  -1  -8   6  561.34   43.30
   1  -8  -6  556.64   46.80
  -1  -8   6  491.95   42.30
  -1   8   6  498.85   43.40
   1   8  -6  505.95   36.70
  -1   8   6  491.95   38.10
  -1   8   6  555.64   42.30
   1   8  -6  529.55   37.70
   1   8  -6  489.95   42.30
  -1   8   6  585.24   40.50
   0  -8   6   11.50    8.80
   0  -8   6   16.90   11.90
   0   8   6    6.10    7.70
   0   8  -6   26.90    9.90
   0   8  -6    7.00    6.40
   0   8  -6   22.10    7.10
   0   8   6    6.60    7.60
   0   8   6   18.40    9.80
   0   8   6    9.30    9.40
   1  -8   6   88.99   16.20
   1  -8   6  152.68   25.50
   1  -8   6   95.99   18.70
   1   8   6  115.69   17.50
   1   8   6   86.89   18.50
  -1   8  -6  107.39   14.60
   1   8   6  122.09   17.80
  -1   8  -6  114.09   19.80
   1   8   6   98.69   18.80
  -1   8  -6  121.69   18.90
  -1   8  -6  105.79   14.50
   2  -8   6  166.08   27.80
   2  -8   6  150.38   23.70
   2  -8   6  170.18   27.00
   2   8   6  150.18   19.80
   2   8   6  163.38   25.70
  -2   8  -6  131.19   22.90
  -2   8  -6  158.08   18.70
   2   8   6  184.88   23.80
  -2   8  -6  177.88   19.70
  -2   8  -6  190.58   19.50
  -2   8  -6  157.28   21.80
   2   8   6  174.28   23.00
   3  -8   6  126.79   24.90
   3  -8   6  147.39   25.80
   3  -8   6  109.19   20.40
   3   8   6  153.58   22.40
  -3   8  -6  145.49   23.10
   3   8   6  140.59   21.00
  -3   8  -6   97.79   17.30
   3   8   6  123.09   19.60
  -3   8  -6  125.69   17.20
   3   8   6  138.99   22.90
  -5  -9   6  163.18   26.40
  -5  -9   6  184.28   29.40
   5  -9  -6  123.49   27.90
  -5   9   6  189.38   22.30
   5   9  -6  169.58   28.60
  -5   9   6  172.98   22.80
  -5   9   6  176.88   29.70
   5   9  -6  181.48   23.70
   5   9  -6  193.08   24.50
   4  -9  -6   77.19   21.00
  -4  -9   6   68.49   18.30
  -4  -9   6   56.09   17.00
   4   9  -6   73.89   18.90
  -4   9   6   91.29   15.50
   4   9  -6   65.09   13.30
   4   9  -6   72.69   14.20
  -4   9   6   70.09   18.10
  -4   9   6   64.69   13.60
  -3  -9   6  150.28   25.50
  -3  -9   6  149.19   24.30
   3  -9  -6  191.18   31.10
   3   9  -6  159.78   19.50
  -3   9   6  128.09   17.90
  -3   9   6  119.49   17.60
   3   9  -6  108.59   21.90
  -3   9   6  144.39   21.90
  -3   9   6  155.48   26.20
   3   9  -6  127.29   17.50
  -2  -9   6  328.27   37.70
   2  -9  -6  270.57   34.80
  -2  -9   6  247.38   31.50
  -2  -9   6  312.07   28.90
  -2   9   6  260.77   25.40
  -2   9   6  283.47   34.60
   2   9  -6  259.37   32.40
   2   9  -6  299.47   25.50
  -2   9   6  265.27   32.00
  -2   9   6  291.47   26.40
   2   9  -6  321.17   25.80
   1  -9  -6  309.97   35.80
  -1  -9   6  257.77   30.10
  -1  -9   6  244.88   33.10
  -1  -9   6  244.28   30.60
  -1   9   6  304.37   32.00
  -1   9   6  280.17   26.20
  -1   9   6  253.97   23.60
   1   9  -6  271.97   23.40
   1   9  -6  258.87   31.10
   1   9  -6  281.07   23.80
  -1   9   6  234.68   31.90
   0  -9   6  133.29   22.90
   0  -9   6  120.99   22.90
   0   9   6  117.79   19.50
   0   9  -6  133.79   15.70
   0   9  -6  151.58   23.00
   0   9   6  116.99   16.50
   0   9   6  123.09   23.00
   0   9   6  134.89   18.00
   1  -9   6  408.56   42.10
   1  -9   6  288.57   36.90
   1   9   6  364.76   35.90
  -1   9  -6  287.27   24.80
   1   9   6  278.47   34.30
  -1   9  -6  330.57   36.50
   1   9   6  329.57   28.00
   1   9   6  322.47   30.20
  -1   9  -6  298.67   33.00
   2  -9   6   15.90   14.30
   2  -9   6    8.70   11.00
   2  -9   6   14.10   14.00
   2   9   6   13.40    9.80
   2   9   6    7.90    9.60
  -2   9  -6   14.40   10.00
  -2   9  -6   25.70    7.80
   2   9   6   23.80   10.90
  -2   9  -6   30.50    9.80
   2   9   6   14.70    8.60
  -2   9  -6   10.10    9.70
   3  -9   6    0.60    6.20
   3  -9   6    9.90   14.10
   3  -9   6   -1.90    8.20
   3   9   6    0.70    8.30
   3   9   6   13.80   12.70
   3   9   6   10.90    9.10
  -3   9  -6    0.80    5.90
   3   9   6    3.70    9.40
  -3   9  -6   -3.60    6.60
   4 -10  -6   89.29   22.50
  -4 -10   6   86.49   19.90
   4  10  -6   88.59   15.90
  -4  10   6  102.09   19.80
   4  10  -6   85.59   19.00
  -4  10   6   79.99   20.00
   4  10  -6   82.09   14.30
  -4  10   6   79.29   14.50
   3 -10  -6   46.70   18.30
  -3 -10   6   51.09   15.90
  -3 -10   6   46.30   14.90
  -3  10   6   37.80   11.30
  -3  10   6   32.70   12.80
   3  10  -6   48.00   16.00
  -3  10   6   25.90    9.20
  -3  10   6   38.60   14.70
   3  10  -6   41.40   11.30
   3  10  -6   25.40    8.70
  -2 -10   6   52.79   17.60
   2 -10  -6   35.40   16.40
  -2 -10   6   46.50   15.50
  -2  10   6    5.70   11.30
  -2  10   6   28.50    9.60
  -2  10   6    7.20    5.30
  -2  10   6   29.70   11.20
   2  10  -6   30.50    8.80
   2  10  -6   21.70   11.00
   1 -10  -6  111.29   24.90
  -1 -10   6  145.19   26.60
  -1 -10   6   99.29   19.20
  -1 -10   6  124.59   20.80
  -1  10   6  148.29   23.30
  -1  10   6  137.59   18.50
   1  10  -6  143.19   16.10
   1  10  -6  158.38   24.90
  -1  10   6  145.59   18.20
  -1  10   6   96.29   20.10
   0 -10   6  192.58   28.10
   0 -10   6  193.98   28.80
   0  10   6  198.18   28.30
   0  10  -6  153.18   17.30
   0  10  -6  153.88   24.30
   0  10   6  161.28   20.80
   0  10   6  181.28   21.10
   0  10   6  145.79   23.40
   1 -10   6   91.09   19.80
   1 -10   6   97.69   21.70
  -1  10  -6   89.19   11.60
   1  10   6  108.39   20.90
  -1  10  -6  109.89   21.10
   1  10   6  102.89   21.80
  -1  10  -6   77.59   11.60
  -1  10  -6   51.89   15.60
   1  10   6   92.59   16.20
   1  10   6  124.29   17.50
   2 -10   6   68.59   20.20
   2 -10   6   54.79   17.30
   2  10   6   70.19   15.20
  -2  10  -6   66.99   16.40
   2  10   6  105.19   21.50
  -2  10  -6   64.09   10.20
  -2  10  -6   63.09   11.00
  -2  10  -6   94.09   20.50
   2  10   6   43.70   13.80
   2  10   6   59.99   14.80
  -2 -11   6  187.88   29.10
  -2 -11   6  190.08   27.70
   2 -11  -6  159.68   28.00
  -2  11   6  163.58   26.60
   2  11  -6  157.28   17.70
   2  11  -6  161.28   25.30
  -2  11   6  184.08   20.80
  -2  11   6  110.69   21.60
  -1 -11   6   80.59   19.10
  -1 -11   6   96.49   18.80
  -1 -11   6  123.39   21.40
   1  11  -6  112.79   13.80
  -1  11   6  147.49   24.30
  -1  11   6  122.89   20.30
  -1  11   6   75.19   21.30
  -1  11   6   89.99   15.20
   1  11  -6  130.09   23.30
   0 -11   6   14.00    8.40
   0 -11   6   12.10   11.40
   0  11  -6    6.50    5.50
   0  11   6    9.70   13.30
   0  11   6   14.20    8.90
   0  11   6    4.90   12.10
   0  11   6   10.50    7.70
   0  11  -6   26.60   11.50
   7   0  -7  597.94   49.99
   7   0  -7  416.46   45.10
  -7   0   7  437.16   40.30
  -7   0   7  450.95   43.40
   7   0  -7  479.15   40.30
   6   0  -7    5.40   11.50
   6   0  -7   30.80    9.80
  -6   0   7   21.30    7.90
   6   0  -7    3.30    7.60
  -6   0   7    6.20   11.00
  -6   0   7   10.00    7.50
   6   0  -7    9.50    8.50
  -5   0   7    2.80    5.90
   5   0  -7    3.30    8.20
   5   0  -7    2.90    6.30
  -5   0   7   -8.70    7.80
   5   0  -7   12.60    9.70
  -5   0   7   -3.40    4.80
   5   0  -7    3.00    6.80
  -5   0   7    0.40    5.00
  -4   0   7  283.67   24.50
   4   0  -7  254.47   26.80
  -4   0   7  297.37   22.80
  -4   0   7  233.18   27.80
   4   0  -7  285.57   26.80
  -4   0   7  255.77   27.00
   4   0  -7  263.07   29.20
   4   0  -7  239.58   28.00
  -3   0   7  321.87   27.80
  -3   0   7  282.17   29.00
   3   0  -7  399.76   30.20
   3   0  -7  363.26   29.50
  -3   0   7  344.97   28.50
   3   0  -7  326.07   29.40
   3   0  -7  334.87   30.10
  -3   0   7  333.87   24.90
   2   0  -7   89.99   10.80
  -2   0   7   94.59   13.90
   2   0  -7   67.89   12.40
   2   0  -7   71.99   13.60
   2   0  -7   84.49   15.70
  -2   0   7   76.09   10.00
  -2   0   7   86.99   14.20
  -2   0   7   89.09   14.80
   2   0  -7  100.29   13.60
  -2   0   7   75.09   10.80
  -2   0   7   95.69   10.80
  -2   0   7   90.99   15.50
  -1   0   7   92.79   15.00
   1   0  -7   63.89    9.20
   1   0  -7   58.19   13.00
  -1   0   7   67.99    8.40
   1   0  -7   68.29    9.90
  -1   0   7   66.09   12.80
  -1   0   7   69.89   12.20
  -1   0   7   48.20   11.00
   1   0  -7   50.79   11.20
   1   0  -7   65.09   13.70
   0   0   7   42.30   10.20
   0   0  -7   40.40   10.80
   0   0  -7   29.20   10.90
   0   0   7   44.70   10.50
   0   0   7   10.60    6.30
   0   0   7   41.60    6.30
   0   0  -7   32.70   10.40
   0   0   7   40.80   11.20
  -1   0  -7  531.15   40.00
  -1   0  -7  524.25   36.10
   1   0   7  462.35   35.20
   1   0   7  442.56   36.30
   1   0   7  461.05   39.20
  -1   0  -7  474.55   37.40
  -1   0  -7  483.55   39.40
   1   0   7  476.35   38.20
   1   0   7  514.45   32.20
   2   0   7   -1.20    6.30
  -2   0  -7   10.80    9.70
   2   0   7    4.90    4.90
  -2   0  -7   12.30    8.80
   2   0   7    2.10    5.40
   2   0   7   -8.20    8.30
   2   0   7   -4.50    5.30
   2   0   7    8.50    6.90
  -2   0  -7    7.70    5.20
  -2   0  -7   -7.00    6.40
   3   0   7  127.29   17.30
  -3   0  -7  107.49   15.80
  -3   0  -7  141.19   21.80
   3   0   7  100.19   19.40
  -3   0  -7  110.89   17.40
   3   0   7  107.09   16.50
  -3   0  -7   82.39   16.40
   3   0   7   88.99   18.90
  -3   0  -7  136.39   20.90
   3   0   7  126.59   21.20
   3   0   7  110.99   14.90
   4   0   7 1294.67   83.99
   4   0   7 1337.17   78.69
   4   0   7 1284.67   79.49
  -4   0  -7 1332.87   83.79
   4   0   7 1177.68   85.99
  -4   0  -7 1191.48   83.49
  -4   0  -7 1104.19   83.69
  -4   0  -7 1227.68   79.49
   5   0   7   60.59   12.50
  -5   0  -7  102.99   20.20
   5   0   7   66.89   17.70
  -5   0  -7   67.99   16.10
  -5   0  -7   86.99   18.60
   5   0   7   94.39   23.70
   7  -1  -7  213.58   32.80
  -7  -1   7  200.28   25.80
  -7  -1   7  195.28   27.80
  -7  -1   7  172.08   25.40
   7  -1  -7  273.57   33.60
   7  -1  -7  201.88   25.60
   7   1  -7  222.28   28.20
  -7   1   7  229.48   29.20
  -7   1   7  250.37   29.00
  -7   1   7  258.57   29.40
   7   1  -7  221.18   29.80
   7   1  -7  236.38   33.40
   6  -1  -7  109.09   21.70
  -6  -1   7   80.49   14.00
  -6  -1   7   75.59   14.70
   6  -1  -7   92.29   14.90
   6  -1  -7  101.99   17.30
  -6  -1   7   80.99   17.70
   6  -1  -7   78.49   16.40
   6   1  -7   81.79   20.30
  -6   1   7   77.49   15.20
  -6   1   7   78.89   15.20
   6   1  -7   93.49   17.20
   6   1  -7   88.49   19.40
  -6   1   7   79.29   18.00
   6   1  -7   61.39   14.40
  -5  -1   7   56.99   12.90
   5  -1  -7   51.49   11.20
   5  -1  -7   50.69   13.30
   5  -1  -7   94.39   19.20
  -5  -1   7   56.29   13.50
  -5  -1   7   67.79   16.20
   5  -1  -7   54.09   12.20
  -5  -1   7   75.89   13.50
  -5   1   7   66.59   10.90
  -5   1   7   71.39   14.30
   5   1  -7   72.99   15.10
   5   1  -7   75.99   14.90
   5   1  -7   73.79   17.30
   5   1  -7   56.89   13.70
  -5   1   7   56.49   13.20
  -5   1   7   54.09   14.70
  -4  -1   7   63.19   13.20
   4  -1  -7   60.09   13.60
  -4  -1   7   55.29   11.00
   4  -1  -7   50.29   12.20
   4  -1  -7   83.99   16.20
  -4  -1   7   58.99   14.30
   4  -1  -7   54.99   11.50
  -4  -1   7   57.09   10.80
  -4   1   7   65.39   13.40
   4   1  -7   70.49   15.40
  -4   1   7   56.89   12.80
   4   1  -7   58.89   12.50
  -4   1   7   73.39   13.20
   4   1  -7   67.69   14.50
   4   1  -7   55.59   12.30
  -4   1   7   65.69    9.40
  -3  -1   7   98.39   14.50
  -3  -1   7  117.79   17.50
   3  -1  -7  110.69   17.00
  -3  -1   7  117.79   15.50
  -3  -1   7  121.19   14.00
  -3  -1   7  103.89   17.70
   3  -1  -7  125.79   17.30
   3  -1  -7  142.89   19.00
   3  -1  -7   94.69   15.00
   3   1  -7   94.09   16.60
   3   1  -7   84.59   15.10
  -3   1   7  101.69   16.60
  -3   1   7  122.79   11.40
  -3   1   7  135.99   17.20
  -3   1   7  119.99   17.40
   3   1  -7  113.59   16.00
   3   1  -7   92.29   15.40
  -2  -1   7   91.89   10.70
  -2  -1   7  103.79    9.90
   2  -1  -7  117.89   15.60
  -2  -1   7  118.09   13.60
  -2  -1   7  120.19   15.90
   2  -1  -7  135.09   18.60
   2  -1  -7  133.99   19.40
  -2  -1   7   87.49   16.40
  -2  -1   7  136.89   18.70
  -2  -1   7   95.29   10.40
  -2  -1   7  117.99   15.40
   2  -1  -7  106.19   15.60
  -2   1   7  143.19   18.60
  -2   1   7  116.29   16.10
  -2   1   7  110.69   13.30
   2   1  -7  113.59   16.50
   2   1  -7   94.69   13.40
   2   1  -7  109.19   16.70
  -2   1   7  101.69   14.40
  -2   1   7  102.99   17.60
   2   1  -7  137.69   19.20
  -2   1   7   96.59   15.90
  -1  -1   7  482.35   32.80
  -1  -1   7  441.56   35.20
   1  -1  -7  435.26   36.00
   1  -1  -7  457.45   33.20
   1  -1  -7  444.76   31.00
   1  -1  -7  375.46   34.30
  -1  -1   7  400.16   33.10
  -1  -1   7  418.26   26.20
   1  -1  -7  450.45   28.00
  -1  -1   7  417.66   33.70
   1   1  -7  422.46   28.30
  -1   1   7  428.16   35.10
   1   1  -7  465.55   36.30
  -1   1   7  436.96   29.40
  -1   1   7  426.66   32.30
   1   1  -7  410.16   34.10
  -1   1   7  429.66   33.70
  -1   1   7  435.06   35.20
   1   1  -7  391.86   32.30
   0  -1   7  154.08   20.10
   0  -1   7  172.68   12.40
   0  -1  -7  172.98   20.10
   0  -1   7  175.48   18.60
   0  -1  -7  210.28   24.40
   0  -1  -7  143.89   19.40
   0  -1   7  161.28   20.70
   0  -1   7  162.98   21.10
   0  -1  -7  171.38   15.10
   0   1   7  156.08   14.90
   0   1   7  145.39   20.70
   0   1   7  211.28   20.80
   0   1   7  148.89   19.30
   0   1  -7  187.18   22.60
   0   1  -7  193.78   23.00
   0   1   7  169.28   19.40
   0   1  -7  134.79   18.70
  -1  -1  -7   38.10   10.70
   1  -1   7   38.70   10.40
   1  -1   7   26.40    9.20
   1  -1   7   71.09   16.40
  -1  -1  -7   30.10    9.30
   1  -1   7   46.30    9.80
   1  -1   7   45.80   12.00
  -1  -1  -7   44.10    9.20
  -1  -1  -7   32.40   10.10
   1  -1   7   42.10    6.60
  -1   1  -7   43.20   12.60
   1   1   7   16.50    8.30
   1   1   7   26.00   10.30
   1   1   7   36.90    9.30
  -1   1  -7   32.60   10.20
  -1   1  -7   48.10   11.60
   1   1   7   49.00   12.60
   1   1   7   47.20    8.20
  -1   1  -7   39.10   11.00
   2  -1   7  519.75   36.40
   2  -1   7  389.46   36.40
  -2  -1  -7  374.06   35.30
  -2  -1  -7  371.26   35.30
   2  -1   7  436.26   37.80
  -2  -1  -7  442.16   31.80
   2  -1   7  423.96   32.10
  -2  -1  -7  406.36   34.60
   2  -1   7  407.16   34.50
   2  -1   7  440.76   28.70
  -2   1  -7  424.26   35.90
  -2   1  -7  423.06   35.90
   2   1   7  393.96   35.80
   2   1   7  392.66   35.70
  -2   1  -7  413.76   34.50
   2   1   7  402.06   36.60
   2   1   7  383.36   31.30
  -2   1  -7  434.66   33.40
   2   1   7  396.16   30.60
   2   1   7  393.06   32.10
   3  -1   7  260.17   28.30
   3  -1   7  258.37   32.90
  -3  -1  -7  286.17   32.10
   3  -1   7  249.68   29.50
  -3  -1  -7  237.28   29.10
  -3  -1  -7  233.98   22.70
  -3  -1  -7  284.87   29.60
   3  -1   7  268.97   22.50
   3  -1   7  304.57   25.20
   3   1   7  261.77   32.20
  -3   1  -7  332.77   29.70
  -3   1  -7  214.28   26.20
   3   1   7  295.27   31.40
  -3   1  -7  271.87   31.90
   3   1   7  262.67   24.40
   3   1   7  261.77   32.20
  -3   1  -7  287.37   31.20
   3   1   7  309.17   26.40
  -3   1  -7  265.07   27.70
  -4  -1  -7  130.49   18.10
  -4  -1  -7   84.39   18.20
  -4  -1  -7  110.49   18.80
   4  -1   7  100.59   22.80
   4  -1   7  116.79   21.60
   4  -1   7  118.69   16.60
  -4  -1  -7  120.09   21.70
   4   1   7  141.39   19.10
   4   1   7  128.39   22.90
  -4   1  -7  107.79   18.70
  -4   1  -7  128.19   21.70
  -4   1  -7  117.49   18.90
  -4   1  -7  150.18   22.00
   4   1   7  137.09   18.70
  -4   1  -7  121.69   18.00
   4   1   7   98.59   19.30
  -5  -1  -7  344.57   36.00
   5  -1   7  291.87   39.90
   5  -1   7  333.67   28.30
   5  -1   7  368.66   40.80
  -5  -1  -7  305.57   35.70
  -5   1  -7  246.68   32.30
  -5   1  -7  270.47   33.50
   5   1   7  313.37   37.10
  -5   1  -7  298.97   31.70
   5   1   7  281.67   30.50
   5   1   7  298.77   35.20
  -7  -2   7   30.80   13.80
  -7  -2   7    9.20   10.30
   7  -2  -7   13.50    8.80
   7  -2  -7   18.60   13.80
  -7  -2   7   22.00   10.90
  -7   2   7   19.30   11.90
   7   2  -7   42.60   16.30
  -7   2   7   26.00   11.70
  -7   2   7   18.40   13.00
   7   2  -7   17.00   15.40
   7   2  -7   22.30    9.40
   6  -2  -7  144.09   24.40
  -6  -2   7  158.18   21.30
  -6  -2   7  175.28   22.00
  -6  -2   7  189.78   25.50
   6  -2  -7  159.28   23.30
   6  -2  -7  142.59   20.60
   6   2  -7  148.89   20.60
  -6   2   7  180.88   24.30
  -6   2   7  133.79   21.70
  -6   2   7  155.68   22.60
  -6   2   7  152.38   21.20
   6   2  -7  198.18   24.80
   6   2  -7  185.88   25.00
   5  -2  -7    6.40    7.00
   5  -2  -7   -4.40    5.90
  -5  -2   7   -2.00    6.40
  -5  -2   7   -2.90    3.70
   5  -2  -7   -1.50    7.10
   5  -2  -7   -4.80    7.20
  -5  -2   7   -0.50    6.10
   5   2  -7  -10.80    7.80
  -5   2   7    8.50    7.90
  -5   2   7   18.50    9.60
   5   2  -7   15.60    9.90
   5   2  -7   -8.40    7.40
  -5   2   7    7.60    6.80
   4  -2  -7  155.38   22.50
  -4  -2   7  151.68   21.30
  -4  -2   7  167.88   20.60
  -4  -2   7  217.68   22.40
  -4  -2   7  239.98   28.90
   4  -2  -7  185.88   21.10
   4  -2  -7  200.08   26.00
   4  -2  -7  179.18   21.90
  -4  -2   7  194.48   17.10
  -4   2   7  217.98   25.20
   4   2  -7  202.98   24.10
   4   2  -7  171.48   21.90
   4   2  -7  185.88   24.10
  -4   2   7  185.08   22.40
  -4   2   7  182.38   23.00
  -3  -2   7  369.06   27.30
  -3  -2   7  330.47   32.20
  -3  -2   7  406.86   28.40
   3  -2  -7  326.77   29.90
  -3  -2   7  304.17   28.10
  -3  -2   7  304.37   24.30
   3  -2  -7  302.97   26.50
   3  -2  -7  292.27   28.60
   3  -2  -7  309.17   28.30
  -3   2   7  300.97   19.80
   3   2  -7  336.07   30.50
   3   2  -7  326.07   27.40
  -3   2   7  330.57   28.90
   3   2  -7  268.97   26.00
   3   2  -7  286.97   27.70
  -3   2   7  315.97   29.50
  -3   2   7  278.67   26.60
  -2  -2   7  119.29    9.20
  -2  -2   7  119.69    8.00
  -2  -2   7  129.69   15.40
   2  -2  -7  121.39   18.20
  -2  -2   7  130.49   15.70
  -2  -2   7   99.49   17.70
   2  -2  -7   93.89   15.00
  -2  -2   7  125.89   15.00
   2  -2  -7   85.89   15.30
   2  -2  -7   91.49   15.50
  -2  -2   7  112.39    8.50
  -2  -2   7  139.49   19.00
   2   2  -7  127.39   17.20
   2   2  -7  134.49   14.80
  -2   2   7  104.39   17.40
  -2   2   7   88.19   15.20
  -2   2   7  122.09   14.60
   2   2  -7   90.29   16.70
   2   2  -7  123.39   17.70
  -2   2   7  114.19   16.30
  -1  -2   7  138.89   17.50
   1  -2  -7  157.98   15.70
   1  -2  -7  158.08   18.40
  -1  -2   7  156.78   21.90
  -1  -2   7  137.19   16.40
   1  -2  -7  156.18   20.70
   1  -2  -7  132.99   19.10
  -1  -2   7  138.59   17.90
   1  -2  -7  186.38   19.40
   1  -2  -7  137.59   10.70
  -1   2   7  141.19   18.00
  -1   2   7  176.48   22.20
  -1   2   7  147.89   19.10
   1   2  -7  109.19   16.30
   1   2  -7  136.69   20.30
  -1   2   7  142.49   19.50
   1   2  -7  199.78   22.20
   1   2  -7  134.59   12.30
  -1   2   7  171.68   17.10
   0  -2  -7   30.30    9.70
   0  -2   7   33.10   11.30
   0  -2   7   49.00   10.80
   0  -2  -7   40.40    7.70
   0  -2   7   38.60   10.80
   0  -2   7   34.90    9.50
   0  -2   7   49.50    9.70
   0  -2  -7   29.70   11.50
   0  -2  -7   47.80    8.40
   0  -2  -7   57.29   12.00
   0   2   7   45.30   10.30
   0   2   7   58.69   12.80
   0   2  -7   67.09   12.60
   0   2   7   36.70    8.30
   0   2   7   42.70    8.80
   0   2   7   44.10   10.50
   0   2  -7   52.49   10.80
   0   2  -7   27.10   11.60
   0   2   7   60.09   12.80
   1  -2   7    0.80    2.30
   1  -2   7   -1.30    4.90
  -1  -2  -7    3.20    5.00
  -1  -2  -7   -5.00    4.90
   1  -2   7    6.90    7.50
   1  -2   7    0.90    7.40
   1  -2   7    2.70    6.70
   1  -2   7   -0.80    4.50
  -1  -2  -7    7.10    6.60
  -1  -2  -7    2.80    4.40
   1   2   7   -2.20    4.90
   1   2   7   -0.90    4.20
   1   2   7    1.90    6.00
  -1   2  -7    6.00    6.90
  -1   2  -7    2.30    4.80
  -1   2  -7    2.80    7.70
   1   2   7   -1.30    4.70
  -1   2  -7   -6.80    6.80
   1   2   7   -1.80    5.00
  -2  -2  -7  611.74   48.50
  -2  -2  -7  656.33   47.60
   2  -2   7  629.24   46.80
   2  -2   7  674.53   51.49
   2  -2   7  690.23   43.50
   2  -2   7  602.54   47.30
   2  -2   7  700.93   49.10
  -2  -2  -7  640.74   49.00
   2  -2   7  540.75   40.80
  -2  -2  -7  643.04   42.30
   2   2   7  661.23   43.70
  -2   2  -7  623.74   47.70
   2   2   7  614.14   44.70
   2   2   7  630.84   48.00
  -2   2  -7  638.14   48.30
   2   2   7  679.13   42.90
   2   2   7  639.64   49.60
  -2   2  -7  717.93   48.30
  -2   2  -7  620.14   45.90
   3  -2   7  182.18   18.90
   3  -2   7  145.29   23.70
   3  -2   7  174.38   22.90
   3  -2   7  129.99   20.50
  -3  -2  -7  136.99   20.60
  -3  -2  -7  142.59   23.10
  -3  -2  -7  165.78   18.20
  -3  -2  -7  170.48   24.90
   3  -2   7  154.28   24.60
  -3   2  -7  166.48   23.90
   3   2   7  127.19   21.20
   3   2   7  126.69   22.80
  -3   2  -7  125.89   19.60
  -3   2  -7  157.58   21.20
  -3   2  -7  185.28   24.00
  -3   2  -7  146.29   21.80
   3   2   7  156.78   19.50
   3   2   7  161.18   20.80
   3   2   7  161.38   24.30
   4  -2   7   46.50   17.20
   4  -2   7   40.30    9.50
  -4  -2  -7   53.39   17.50
  -4  -2  -7   53.59   15.70
  -4  -2  -7   41.10   12.30
   4  -2   7   47.50   14.50
  -4   2  -7   27.30   11.60
   4   2   7   20.10    8.90
  -4   2  -7   33.00   12.30
  -4   2  -7   49.90   13.60
   4   2   7   27.70   12.00
   4   2   7   32.00   12.40
   4   2   7   30.40   14.00
   4   2   7   30.60   11.30
  -4   2  -7   22.00   10.20
  -4   2  -7   52.59   13.30
  -6  -3   7   61.99   15.20
   6  -3  -7   57.89   14.20
  -6  -3   7   57.89   13.10
   6  -3  -7   53.99   18.40
  -6  -3   7   46.60   13.10
   6   3  -7   52.79   15.40
   6   3  -7   66.79   13.80
  -6   3   7   75.79   15.90
   6   3  -7   71.09   15.30
  -6   3   7   44.40   14.10
  -6   3   7   62.79   16.90
  -6   3   7   67.29   15.50
  -5  -3   7  180.08   22.70
  -5  -3   7  166.58   25.30
   5  -3  -7  206.28   22.80
  -5  -3   7  176.48   21.30
   5  -3  -7  195.18   24.10
  -5  -3   7  158.98   22.40
   5  -3  -7  149.09   20.00
   5  -3  -7  204.28   28.30
   5   3  -7  155.68   22.70
  -5   3   7  143.59   22.50
  -5   3   7  140.19   21.00
  -5   3   7  151.58   21.80
   5   3  -7  187.88   22.40
   5   3  -7  154.08   23.20
   4  -3  -7   41.50   14.40
  -4  -3   7   79.39   14.10
  -4  -3   7   40.70   10.70
   4  -3  -7   67.89   13.20
  -4  -3   7   51.09   12.50
   4  -3  -7   41.40   11.30
   4  -3  -7   50.69   11.20
  -4  -3   7   38.80   14.60
  -4   3   7   60.69   13.30
  -4   3   7   37.90   12.80
   4   3  -7   64.39   15.40
   4   3  -7   55.89   13.70
  -4   3   7   51.59   12.50
   4   3  -7   41.30   11.40
   3  -3  -7  265.47   30.20
   3  -3  -7  298.17   27.80
  -3  -3   7  283.27   22.00
  -3  -3   7  350.86   32.90
  -3  -3   7  305.37   27.30
   3  -3  -7  288.77   25.90
  -3  -3   7  353.46   25.80
   3  -3  -7  302.47   29.30
  -3  -3   7  313.77   26.60
  -3   3   7  308.17   28.80
   3   3  -7  214.58   26.00
   3   3  -7  255.87   28.80
  -3   3   7  279.77   26.70
   3   3  -7  328.57   29.20
  -3   3   7  309.77   28.20
   2  -3  -7  156.58   19.90
  -2  -3   7   79.79   15.00
  -2  -3   7  111.99   14.40
  -2  -3   7  126.69   14.70
  -2  -3   7  117.49   15.90
   2  -3  -7  104.49   18.60
   2  -3  -7  105.19   16.70
  -2  -3   7  121.99   18.50
   2  -3  -7  105.89   17.00
   2  -3  -7  105.89   14.80
  -2   3   7   98.09   14.40
   2   3  -7  106.89   18.40
   2   3  -7  114.99   16.50
   2   3  -7   84.39   11.90
  -2   3   7  103.89   14.60
   2   3  -7   93.39   15.40
  -2   3   7  119.49   16.90
  -2   3   7  110.99   17.90
  -1  -3   7  271.47   24.10
   1  -3  -7  248.98   23.70
  -1  -3   7  236.68   22.20
  -1  -3   7  263.57   18.00
  -1  -3   7  330.37   29.60
   1  -3  -7  245.68   22.60
   1  -3  -7  328.87   28.20
  -1  -3   7  224.28   26.80
   1  -3  -7  273.37   25.40
  -1  -3   7  245.28   20.80
  -1   3   7  250.57   23.50
  -1   3   7  221.78   22.60
   1   3  -7  222.28   23.90
   1   3  -7  239.68   17.70
   1   3  -7  242.48   27.40
  -1   3   7  240.68   23.90
  -1   3   7  232.68   22.10
  -1   3   7  234.38   27.40
   1   3  -7  255.17   24.00
   0  -3  -7  172.58   23.20
   0  -3   7  207.38   18.60
   0  -3   7  186.58   17.10
   0  -3   7  206.08   25.90
   0  -3  -7  202.08   23.80
   0  -3   7  196.48   21.80
   0  -3   7  167.98   20.40
   0  -3   7  199.08   25.60
   0  -3  -7  232.28   23.50
   0   3   7  220.08   19.00
   0   3   7  177.78   22.60
   0   3  -7  175.28   21.30
   0   3  -7  203.18   22.20
   0   3  -7  187.98   24.10
   0   3   7  170.68   22.60
   0   3   7  226.18   22.70
   0   3   7  204.78   18.80
  -1  -3  -7   45.50    7.00
  -1  -3  -7   50.19   13.20
   1  -3   7   29.30   13.30
   1  -3   7   31.90   10.80
  -1  -3  -7   26.00   10.10
   1  -3   7   44.50   10.10
  -1  -3  -7   34.60   10.30
   1  -3   7   32.00    9.00
   1  -3   7   28.70    7.10
   1   3   7   18.40    8.70
  -1   3  -7   27.70    9.70
   1   3   7   21.70    9.50
  -1   3  -7   43.20    9.70
   1   3   7   40.50    8.30
   1   3   7   35.70   11.90
  -1   3  -7   40.80   10.50
   1   3   7   26.00    8.80
  -1   3  -7   21.70    8.90
   2  -3   7  386.96   35.70
  -2  -3  -7  413.76   29.50
  -2  -3  -7  428.16   38.00
  -2  -3  -7  379.96   33.30
   2  -3   7  422.56   39.80
   2  -3   7  436.86   30.40
   2  -3   7  362.56   35.00
   2  -3   7  414.66   35.20
   2   3   7  441.66   33.80
  -2   3  -7  448.06   36.40
   2   3   7  455.35   33.80
  -2   3  -7  472.15   37.00
   2   3   7  403.06   37.90
   2   3   7  417.66   36.90
  -2   3  -7  480.95   37.40
  -2   3  -7  411.36   34.80
  -3  -3  -7   99.99   19.00
   3  -3   7  117.29   19.40
   3  -3   7   88.79   18.70
   3  -3   7   76.99   19.90
   3  -3   7  100.69   13.30
  -3  -3  -7   87.99   17.00
  -3  -3  -7   99.49   17.30
  -3   3  -7   91.99   17.80
  -3   3  -7  113.99   17.20
   3   3   7   83.99   15.90
  -3   3  -7   92.79   17.30
  -3   3  -7   93.09   17.50
  -3   3  -7  110.79   18.40
   3   3   7   71.29   17.10
   3   3   7  111.39   17.60
   3   3   7   77.89   16.20
   3   3   7  100.39   20.40
  -4  -3  -7   -1.10    7.90
  -4  -3  -7    9.70    9.60
   4  -3   7   10.50   12.60
   4  -3   7   26.70   14.40
  -4  -3  -7   14.60    9.30
  -4   3  -7    6.80    8.70
   4   3   7   14.00    8.60
   4   3   7   13.30    8.50
  -4   3  -7    7.90   10.10
   4   3   7   11.80    8.90
   4   3   7    8.90   12.20
  -4   3  -7   -6.20    8.00
   4   3   7   23.70   11.10
  -4   3  -7    6.80   10.00
  -4   3  -7   15.70    9.10
  -6  -4   7   48.20   14.60
  -6  -4   7   55.49   18.20
  -6  -4   7   39.20   12.90
   6  -4  -7   43.40   10.90
   6  -4  -7   90.89   21.90
  -6  -4   7   58.49   20.80
  -6   4   7   54.89   15.60
   6   4  -7   23.70   11.90
   6   4  -7   36.50   13.80
  -6   4   7   51.49   12.00
   6   4  -7   71.09   16.30
  -6   4   7   43.80   12.10
  -6   4   7   59.69   16.10
   5  -4  -7   81.59   17.90
  -5  -4   7  103.39   16.00
  -5  -4   7  106.19   19.50
  -5  -4   7   95.89   19.20
  -5  -4   7  115.19   19.30
   5  -4  -7   90.79   14.80
   5  -4  -7  122.19   17.60
  -5   4   7  115.59   19.50
  -5   4   7  100.89   16.10
   5   4  -7   95.59   17.30
  -5   4   7   93.09   15.90
   5   4  -7  132.99   20.00
   5   4  -7   88.79   17.70
  -5   4   7   99.09   17.40
   4  -4  -7   65.89   12.90
  -4  -4   7   63.79   11.10
  -4  -4   7   65.69   15.20
  -4  -4   7   66.39   14.50
   4  -4  -7   51.69   14.10
   4  -4  -7   75.69   16.30
  -4  -4   7   89.29   17.60
   4  -4  -7   75.99   14.30
  -4   4   7   65.49   13.40
  -4   4   7  100.79   18.30
   4   4  -7   79.99   14.30
   4   4  -7   81.39   15.30
  -4   4   7   60.89   12.50
   4   4  -7   86.49   17.40
   3  -4  -7   37.00   12.90
  -3  -4   7   34.00    8.50
  -3  -4   7   29.10   10.10
   3  -4  -7   17.90    8.10
  -3  -4   7   28.70    9.20
  -3  -4   7   35.60   12.70
   3  -4  -7   22.60   10.10
   3  -4  -7   33.00   10.40
  -3  -4   7    7.30    8.50
  -3   4   7   36.40    9.70
  -3   4   7    8.50    8.30
   3   4  -7   19.10    7.80
   3   4  -7   33.50   10.70
  -3   4   7   34.80   11.70
   3   4  -7   27.10    9.60
   2  -4  -7   33.10    9.30
  -2  -4   7   21.60   10.10
  -2  -4   7   27.40    8.90
   2  -4  -7   16.30    9.60
   2  -4  -7   33.00   11.30
  -2  -4   7   24.60    9.40
  -2  -4   7   23.50   11.00
   2  -4  -7   20.30   10.50
  -2  -4   7   27.80    7.00
  -2  -4   7   24.80    7.40
  -2   4   7   40.70   10.10
   2   4  -7   12.00    8.20
  -2   4   7   29.70    9.70
   2   4  -7   23.40    9.60
  -2   4   7   23.50    8.40
  -2   4   7    8.50   10.20
   2   4  -7   24.90   11.90
   1  -4  -7  885.41   53.29
   1  -4  -7  784.82   54.19
  -1  -4   7  813.62   53.89
   1  -4  -7  754.32   54.99
   1  -4  -7  827.02   56.69
  -1  -4   7  797.72   53.69
  -1  -4   7  768.42   57.79
  -1  -4   7  743.93   55.89
  -1  -4   7  776.42   48.60
  -1   4   7  729.53   56.19
  -1   4   7  733.73   53.79
  -1   4   7  820.72   52.49
  -1   4   7  783.22   52.89
  -1   4   7  879.81   53.69
   1   4  -7  743.03   55.39
   1   4  -7  733.43   53.09
   1   4  -7  808.32   53.09
   0  -4   7  386.36   34.70
   0  -4   7  365.56   33.30
   0  -4  -7  391.86   30.30
   0  -4   7  371.36   27.10
   0  -4  -7  365.86   32.90
   0  -4   7  327.37   29.20
   0  -4  -7  282.37   33.30
   0   4   7  346.77   28.20
   0   4   7  428.36   35.60
   0   4   7  326.07   26.50
   0   4   7  367.66   29.30
   0   4   7  360.16   30.80
   0   4  -7  391.66   30.50
   0   4  -7  313.37   32.00
   0   4  -7  352.16   29.90
  -1  -4  -7 1160.88   72.39
  -1  -4  -7 1041.10   73.89
   1  -4   7 1081.19   76.79
   1  -4   7 1084.69   71.39
   1  -4   7 1122.09   76.49
   1  -4   7 1122.19   71.69
   1  -4   7 1196.28   66.49
   1   4   7 1054.09   70.39
  -1   4  -7 1046.00   72.19
   1   4   7 1080.49   71.49
  -1   4  -7 1208.68   72.59
  -1   4  -7 1260.07   75.99
   1   4   7 1188.98   74.99
   1   4   7 1090.19   76.29
  -1   4  -7 1170.58   75.19
  -2  -4  -7  108.49   18.20
  -2  -4  -7   92.99   16.30
   2  -4   7   91.29   18.00
   2  -4   7  108.39   20.90
   2  -4   7  104.59   17.90
  -2  -4  -7   94.09   17.70
   2  -4   7   99.69   11.60
   2   4   7   91.29   16.20
  -2   4  -7  116.99   17.50
  -2   4  -7   94.69   16.20
   2   4   7   77.69   18.30
   2   4   7   90.89   15.50
  -2   4  -7   73.29   16.20
  -2   4  -7   83.99   16.60
   2   4   7  104.59   17.70
   3  -4   7   22.00   11.80
   3  -4   7   17.80   10.30
  -3  -4  -7    5.50   11.30
   3  -4   7    2.20    7.40
  -3  -4  -7    6.00    6.70
  -3  -4  -7   25.60   13.80
   3   4   7    8.10    9.20
  -3   4  -7   27.50   11.90
  -3   4  -7    6.20    6.00
   3   4   7   27.60   12.00
  -3   4  -7    7.50    9.00
  -3   4  -7    9.50    7.40
   3   4   7   11.50   11.70
   3   4   7   12.80    9.60
   3   4   7    2.10    7.60
  -3   4  -7   13.40    9.30
  -4  -4  -7  108.69   22.30
   4  -4   7   99.49   22.50
  -4  -4  -7  108.89   22.00
   4  -4   7  106.09   22.40
  -4  -4  -7  102.99   19.40
  -4   4  -7   76.49   17.40
   4   4   7   93.79   20.20
  -4   4  -7  104.59   18.00
  -4   4  -7   71.69   16.30
   4   4   7   92.09   20.90
   4   4   7  101.59   17.80
  -4   4  -7   81.99   16.70
   4   4   7  101.39   19.70
   4   4   7  121.29   19.90
  -4   4  -7  110.39   18.50
  -6  -5   7   84.09   15.00
  -6  -5   7   86.59   19.50
   6  -5  -7   69.19   20.80
  -6  -5   7   52.89   18.30
  -6   5   7   88.79   17.70
   6   5  -7   82.49   17.70
   6   5  -7   81.59   17.80
  -6   5   7   96.79   16.60
  -6   5   7   66.89   16.90
  -6   5   7   70.39   15.30
   6   5  -7   94.49   18.60
  -5  -5   7   21.30    8.30
  -5  -5   7   23.00   10.80
   5  -5  -7   61.49   18.30
  -5  -5   7   46.90   14.90
  -5   5   7   52.89   13.00
  -5   5   7   47.80   10.20
  -5   5   7   23.60   11.60
   5   5  -7   20.50    9.30
   5   5  -7   64.69   15.70
   5   5  -7   56.09   12.00
  -5   5   7   23.80   12.90
  -4  -5   7  297.97   25.20
   4  -5  -7  339.07   29.50
   4  -5  -7  309.47   36.00
  -4  -5   7  304.27   27.20
   4  -5  -7  288.07   25.90
  -4  -5   7  300.07   35.50
  -4  -5   7  441.06   51.19
  -4  -5   7  377.36   31.40
   4   5  -7  300.57   30.00
  -4   5   7  319.77   28.50
   4   5  -7  350.86   33.40
  -4   5   7  325.77   30.40
   4   5  -7  319.27   29.70
  -4   5   7  315.17   34.70
   3  -5  -7  152.18   17.60
   3  -5  -7  142.69   19.90
  -3  -5   7  140.39   23.70
  -3  -5   7  144.49   15.40
   3  -5  -7  177.38   25.30
  -3  -5   7  140.59   19.70
  -3  -5   7  171.98   21.40
   3  -5  -7  134.99   20.30
  -3  -5   7  200.88   22.60
  -3   5   7  169.78   23.20
  -3   5   7  127.29   18.80
   3   5  -7  162.68   23.60
   3   5  -7  160.38   19.50
   3   5  -7  137.59   19.40
  -3   5   7  155.58   19.50
  -2  -5   7  239.38   19.10
   2  -5  -7  256.47   28.30
  -2  -5   7  266.87   28.60
  -2  -5   7  253.47   27.60
  -2  -5   7  283.57   25.50
   2  -5  -7  265.27   22.80
   2  -5  -7  197.78   26.60
  -2  -5   7  256.17   31.10
  -2   5   7  259.27   24.10
   2   5  -7  263.47   29.90
   2   5  -7  246.78   25.80
   2   5  -7  237.18   25.70
  -2   5   7  260.27   26.60
  -2   5   7  226.88   28.60
  -2   5   7  297.47   26.40
  -1  -5   7   62.79    8.30
   1  -5  -7   77.59   14.40
  -1  -5   7   45.70   10.60
  -1  -5   7   57.69   13.10
   1  -5  -7   59.59   14.60
   1  -5  -7   58.79   11.70
  -1  -5   7   69.39   15.70
  -1  -5   7   52.69   13.70
  -1   5   7   72.09   16.10
  -1   5   7   65.79   13.00
  -1   5   7   60.89   11.80
   1   5  -7   77.49   13.10
  -1   5   7   85.59   15.10
   1   5  -7   87.39   16.50
   1   5  -7   57.39   12.50
   0  -5  -7  637.04   48.40
   0  -5   7  645.94   38.40
   0  -5   7  623.04   50.49
   0  -5   7  627.04   51.09
   0  -5  -7  636.34   44.20
   0   5   7  707.53   42.50
   0   5   7  712.83   46.80
   0   5   7  625.14   50.09
   0   5   7  597.84   46.50
   0   5  -7  640.24   46.40
   0   5  -7  587.94   48.30
   0   5  -7  644.24   45.30
   0   5   7  638.24   45.60
  -1  -5  -7  183.78   21.10
  -1  -5  -7  191.18   24.70
   1  -5   7  186.38   25.50
   1  -5   7  166.78   21.10
   1  -5   7  233.28   29.70
  -1   5  -7  217.18   25.20
  -1   5  -7  198.48   22.70
   1   5   7  163.18   21.00
  -1   5  -7  176.78   20.70
   1   5   7  152.28   21.10
   1   5   7  195.58   21.90
   1   5   7  182.98   26.00
  -1   5  -7  172.58   23.60
  -2  -5  -7  204.48   27.50
  -2  -5  -7  273.47   28.00
  -2  -5  -7  292.67   32.00
   2  -5   7  229.88   29.50
   2  -5   7  262.57   32.70
   2   5   7  268.27   30.20
  -2   5  -7  249.08   30.20
   2   5   7  222.98   26.00
   2   5   7  247.48   27.00
  -2   5  -7  294.47   29.50
  -2   5  -7  283.17   29.70
  -2   5  -7  262.87   27.30
   2   5   7  295.17   33.30
   3  -5   7  120.19   21.00
  -3  -5  -7   59.09   17.70
  -3  -5  -7   90.29   16.20
  -3  -5  -7   97.59   18.80
   3  -5   7   89.39   19.20
   3  -5   7   69.69   17.60
  -3   5  -7   77.49   15.80
  -3   5  -7   84.09   16.30
  -3   5  -7   66.49   13.70
  -3   5  -7   76.39   15.90
   3   5   7   69.99   18.70
   3   5   7   72.49   15.10
   3   5   7   71.89   15.50
  -3   5  -7  100.09   18.00
   3   5   7   73.39   14.20
  -4  -5  -7   76.39   16.00
   4  -5   7   75.29   19.50
   4  -5   7   62.39   21.10
  -4  -5  -7   61.39   18.10
   4   5   7   84.29   16.90
  -4   5  -7   92.89   18.50
   4   5   7   67.29   19.60
   4   5   7   84.09   20.10
   4   5   7  129.49   21.90
  -4   5  -7   74.19   17.20
  -4   5  -7   79.99   17.60
   4   5   7  102.69   19.60
  -4   5  -7   75.09   16.60
  -6  -6   7  156.98   28.30
  -6  -6   7  214.18   28.60
   6  -6  -7  195.98   30.30
   6   6  -7  175.28   26.50
   6   6  -7  225.38   27.60
  -6   6   7  176.08   24.70
  -6   6   7  177.08   24.90
   6   6  -7  139.69   24.10
  -6   6   7  151.38   25.80
  -5  -6   7  190.88   24.80
   5  -6  -7  173.98   28.50
  -5  -6   7  130.29   26.20
   5   6  -7  150.78   22.10
   5   6  -7  153.88   23.60
   5   6  -7  163.08   22.00
  -5   6   7  176.98   23.00
  -5   6   7  206.18   28.90
  -5   6   7  166.08   23.20
  -4  -6   7  191.18   29.90
   4  -6  -7  244.18   32.60
  -4  -6   7  276.87   20.80
  -4  -6   7  288.27   30.20
  -4   6   7  272.37   28.50
  -4   6   7  252.27   31.40
  -4   6   7  229.48   26.70
   4   6  -7  290.27   29.20
   4   6  -7  220.48   28.40
   4   6  -7  180.08   25.50
  -3  -6   7   65.19   12.00
   3  -6  -7   82.69   12.60
  -3  -6   7  126.39   20.00
  -3  -6   7   73.49   17.10
   3  -6  -7  109.49   21.10
  -3   6   7  134.19   21.30
  -3   6   7   85.69   16.50
  -3   6   7   93.49   15.00
   3   6  -7   77.59   14.40
  -3   6   7  117.19   18.50
   3   6  -7   79.79   17.90
   3   6  -7  100.19   16.40
  -2  -6   7  113.39   18.80
   2  -6  -7  117.29   20.90
  -2  -6   7   96.59   18.70
   2  -6  -7   90.99   17.00
  -2  -6   7  133.39   19.50
   2   6  -7  108.29   18.80
  -2   6   7   90.19   16.10
  -2   6   7  115.49   16.20
  -2   6   7  125.29   21.30
   2   6  -7  105.59   15.00
   2   6  -7   93.69   15.10
  -2   6   7  124.19   17.30
  -1  -6   7  105.89   19.00
   1  -6  -7  172.38   23.00
  -1  -6   7  169.88   21.90
  -1  -6   7  136.39   23.10
   1  -6  -7  124.99   15.40
   1  -6  -7  144.09   19.90
   1   6  -7   93.59   16.10
  -1   6   7  160.18   19.10
   1   6  -7  142.89   21.90
   1   6  -7  166.38   19.10
  -1   6   7  173.68   21.60
  -1   6   7  120.39   17.40
  -1   6   7  113.79   21.30
   0  -6  -7  203.48   24.50
   0  -6   7  184.48   26.30
   0  -6  -7  169.28   19.50
   0  -6   7  189.58   25.20
   0   6   7  194.28   23.00
   0   6   7  194.08   22.30
   0   6  -7  187.38   21.00
   0   6   7  215.18   27.30
   0   6  -7  168.18   23.00
   0   6  -7  160.28   20.00
   0   6   7  138.69   19.60
   1  -6   7  152.58   24.00
   1  -6   7  138.09   22.40
  -1  -6  -7  127.99   20.90
  -1  -6  -7  150.98   18.20
   1  -6   7  152.58   19.70
  -1   6  -7  139.89   19.20
   1   6   7  108.49   17.40
  -1   6  -7  125.19   21.20
  -1   6  -7  109.49   18.70
   1   6   7  141.09   22.70
   1   6   7  137.49   19.80
   1   6   7  127.69   19.50
  -1   6  -7  132.49   17.30
  -2  -6  -7   22.50   10.50
   2  -6   7   20.00    9.70
   2  -6   7   44.90   13.60
   2  -6   7    2.90   10.50
  -2  -6  -7   20.60    9.60
  -2  -6  -7   26.80    9.90
   2   6   7    7.30   11.80
   2   6   7   16.40    9.70
   2   6   7   10.30   11.10
   2   6   7   30.50   11.60
  -2   6  -7   13.10    8.30
  -2   6  -7   16.90    9.00
  -2   6  -7   22.80   11.60
  -2   6  -7   31.20   10.10
   3  -6   7  136.69   23.50
   3  -6   7  120.59   23.30
  -3  -6  -7  110.79   18.10
   3  -6   7  140.69   23.50
  -3   6  -7  134.49   20.30
  -3   6  -7  124.99   22.10
  -3   6  -7  148.29   20.10
   3   6   7  116.39   19.40
  -3   6  -7   85.19   17.50
   3   6   7  100.89   21.60
   3   6   7  163.78   23.40
  -3   6  -7  125.49   19.60
   3   6   7  142.89   20.40
   5  -7  -7  748.23   56.39
  -5  -7   7  491.05   43.90
  -5  -7   7  595.94   50.69
  -5   7   7  552.34   43.80
  -5   7   7  499.65   41.90
  -5   7   7  487.25   47.40
   5   7  -7  479.25   41.90
   5   7  -7  488.05   43.00
   5   7  -7  460.65   45.10
  -4  -7   7   61.99   15.90
  -4  -7   7   49.40   17.10
   4  -7  -7   40.50   16.40
   4   7  -7   47.20   12.60
  -4   7   7   25.10   13.30
   4   7  -7   47.50   12.40
  -4   7   7   40.80   12.10
  -4   7   7   28.20   11.30
   4   7  -7   16.30   10.30
  -3  -7   7   64.19   16.50
  -3  -7   7   49.70   13.10
  -3  -7   7   61.79   13.10
   3  -7  -7   62.89   18.60
  -3   7   7   57.39   16.60
  -3   7   7   74.39   16.80
   3   7  -7   87.49   19.00
   3   7  -7   46.30   12.10
  -3   7   7   53.79   13.00
   3   7  -7   68.19   13.80
  -3   7   7   50.89   12.80
   2  -7  -7    3.00   10.60
  -2  -7   7    0.10    5.80
  -2  -7   7   19.90   10.60
  -2  -7   7   15.20    8.00
  -2   7   7   19.20    7.70
  -2   7   7   15.40   10.20
   2   7  -7   -6.70    5.30
   2   7  -7    7.60    5.80
  -2   7   7   19.70    9.30
  -2   7   7   11.30   10.00
   2   7  -7   -1.10    9.50
   1  -7  -7  296.87   35.00
  -1  -7   7  383.36   37.10
  -1  -7   7  317.97   33.80
  -1  -7   7  334.17   32.60
  -1   7   7  325.47   33.10
   1   7  -7  313.47   28.50
   1   7  -7  325.47   28.00
  -1   7   7  327.37   36.00
   1   7  -7  301.47   34.50
  -1   7   7  287.17   28.00
  -1   7   7  344.57   29.40
   0  -7   7  103.79   20.00
   0  -7  -7  125.89   14.50
   0  -7   7  112.29   21.10
   0   7  -7  154.28   18.80
   0   7  -7  143.29   18.10
   0   7   7  142.49   19.90
   0   7   7  136.39   22.60
   0   7  -7  124.79   21.90
   0   7   7  141.09   19.00
   0   7   7  125.79   18.80
   1  -7   7   82.79   18.00
   1  -7   7   69.79   17.30
  -1  -7  -7   64.09   12.30
   1   7   7   72.19   14.50
  -1   7  -7   73.89   13.80
   1   7   7   74.89   18.60
   1   7   7   89.29   16.90
  -1   7  -7   60.59   12.30
  -1   7  -7   80.99   18.00
   1   7   7   65.69   13.80
  -1   7  -7   99.69   18.80
   2  -7   7  340.67   40.30
  -2  -7  -7  345.87   29.80
   2  -7   7  340.67   40.50
   2  -7   7  323.17   33.80
  -2   7  -7  329.57   31.90
   2   7   7  418.46   39.70
   2   7   7  350.86   36.00
  -2   7  -7  410.66   32.90
  -2   7  -7  377.26   31.80
   2   7   7  401.56   36.00
  -2   7  -7  338.77   37.60
  -2   7  -7  386.36   31.90
   2   7   7  399.26   33.50
   3  -7   7  138.19   26.50
  -3  -7  -7  169.88   21.50
   3  -7   7  196.08   30.30
  -3   7  -7  176.38   24.00
   3   7   7  228.08   26.30
   3   7   7  199.38   29.30
  -3   7  -7  196.58   22.70
  -3   7  -7  185.68   27.40
  -3   7  -7  186.78   23.70
  -3   7  -7  165.08   22.70
   3   7   7  164.98   23.00
   3   7   7  186.48   25.50
  -5   8   7   27.00   10.80
   5   8  -7   19.90   11.40
  -4  -8   7   74.29   17.70
  -4  -8   7   84.99   20.50
   4  -8  -7   32.00   17.40
   4   8  -7   40.60   12.80
  -4   8   7   71.29   19.10
   4   8  -7   40.00   12.00
   4   8  -7   74.69   17.40
  -4   8   7   31.80   12.20
  -4   8   7   40.30   12.70
  -3  -8   7   21.60   11.40
   3  -8  -7   22.00   15.30
  -3  -8   7   45.50   14.60
   3   8  -7   20.60   13.20
  -3   8   7   12.90    7.70
  -3   8   7   28.00   14.10
   3   8  -7   21.50   10.10
  -3   8   7   16.50    7.40
   3   8  -7   31.20    8.80
  -3   8   7   26.40   10.10
  -2  -8   7  162.98   26.40
  -2  -8   7  213.68   26.20
  -2  -8   7  236.68   29.00
   2  -8  -7  244.98   32.10
  -2   8   7  203.08   24.40
   2   8  -7  220.08   24.00
  -2   8   7  181.98   26.20
  -2   8   7  194.08   23.10
  -2   8   7  179.08   26.20
   2   8  -7  198.58   22.80
   2   8  -7  213.08   28.50
  -1  -8   7   73.09   16.20
  -1  -8   7   62.09   16.10
   1  -8  -7   85.99   19.90
  -1  -8   7   73.59   17.90
  -1   8   7   31.20   11.90
   1   8  -7   79.29   13.60
   1   8  -7   45.90   15.30
  -1   8   7   65.09   13.90
  -1   8   7   59.09   16.80
   1   8  -7   54.09   11.80
  -1   8   7   51.19   12.80
   0  -8   7   87.79   20.00
   0  -8   7   80.19   19.00
   0   8   7   82.49   17.80
   0   8  -7   79.59   13.80
   0   8  -7   72.69   17.70
   0   8   7   76.69   14.10
   0   8   7   90.19   17.50
   0   8   7   68.39   14.60
   0   8  -7   87.59   14.20
   1  -8   7   67.79   18.60
   1  -8   7   79.69   18.90
  -1   8  -7   93.09   14.70
  -1   8  -7   68.89   16.40
   1   8   7   82.09   16.10
   1   8   7   79.69   17.50
  -1   8  -7   67.29   13.20
   1   8   7   70.89   15.40
   1   8   7   81.59   17.90
  -1   8  -7   82.79   17.20
   2  -8   7  151.78   28.90
   2  -8   7  179.58   28.30
  -2   8  -7  195.88   23.30
  -2   8  -7  257.97   23.10
  -2   8  -7  209.88   26.40
   2   8   7  219.98   26.90
   2   8   7  220.38   26.40
   2   8   7  192.48   27.70
  -2   8  -7  188.98   27.40
   2   8   7  205.18   26.60
  -2   8  -7  208.48   27.30
  -4  -9   7  139.89   26.60
  -4  -9   7  146.29   25.50
   4  -9  -7   93.59   24.60
  -4   9   7  124.19   18.70
   4   9  -7  142.59   20.80
  -4   9   7  150.58   22.90
   4   9  -7  147.09   25.10
  -4   9   7  123.39   23.00
   4   9  -7  152.68   21.50
  -4   9   7  122.69   19.30
  -3  -9   7   44.40   15.40
   3  -9  -7   56.19   18.90
  -3  -9   7   43.00   15.70
  -3   9   7   39.70   13.40
  -3   9   7   26.00   10.70
  -3   9   7   37.00   14.90
   3   9  -7   31.80   10.60
   3   9  -7   63.49   15.70
   3   9  -7   48.80   12.50
  -3   9   7   24.80   10.00
  -2  -9   7  108.89   23.00
   2  -9  -7  106.59   22.10
  -2  -9   7  100.79   18.00
  -2  -9   7  105.09   19.20
  -2   9   7  115.09   21.30
  -2   9   7  159.68   23.50
  -2   9   7  117.59   18.30
   2   9  -7  133.49   18.30
  -2   9   7  108.39   17.70
   2   9  -7  102.39   20.20
   2   9  -7  157.38   19.30
  -1  -9   7  234.38   33.20
  -1  -9   7  269.37   31.70
  -1  -9   7  224.18   29.70
   1  -9  -7  287.47   35.60
  -1   9   7  230.18   29.90
  -1   9   7  314.97   27.40
   1   9  -7  282.47   25.00
  -1   9   7  269.17   28.30
   1   9  -7  252.87   32.50
   1   9  -7  209.48   24.10
  -1   9   7  269.17   34.40
   0  -9   7  107.59   22.80
   0  -9   7  134.39   24.70
   0   9  -7   89.39   14.40
   0   9   7  121.99   17.80
   0   9   7  114.09   20.70
   0   9   7  109.29   17.20
   0   9   7  123.99   24.10
   0   9  -7  138.59   24.00
   1  -9   7   20.50   14.00
   1  -9   7   14.70   12.00
  -1   9  -7   37.60   14.40
  -1   9  -7   13.30   11.60
   1   9   7   72.79   17.30
   1   9   7   38.20   11.60
   1   9   7   65.99   13.30
   1   9   7   50.29   17.00
  -1   9  -7   30.60    9.70
   2  -9   7   10.90   15.70
   2  -9   7   14.30   10.60
  -2   9  -7    5.00   11.70
   2   9   7    5.50    7.90
   2   9   7    5.70   12.30
   2   9   7   12.50   10.40
  -2   9  -7    3.70    6.70
  -2   9  -7    9.30    7.60
   2   9   7   22.60   11.00
  -2   9  -7   -2.30    8.20
  -2 -10   7   11.00   15.10
   2 -10  -7    0.90   12.50
  -2 -10   7   16.20   12.30
   2  10  -7   26.00   13.90
  -2  10   7   37.90   12.20
  -2  10   7    0.70   11.60
  -2  10   7   18.00   13.20
   2  10  -7   19.10    8.40
  -2  10   7   33.70   11.60
  -1 -10   7   36.00   13.30
  -1 -10   7   44.00   18.60
  -1 -10   7   69.99   17.00
  -1  10   7   68.39   14.40
   1  10  -7   75.99   12.90
  -1  10   7   53.49   17.90
  -1  10   7   47.90   13.20
   1  10  -7   53.99   16.70
  -1  10   7   64.59   14.30
   0 -10   7   38.90   14.70
   0 -10   7   67.79   19.50
   0  10   7   61.49   14.60
   0  10   7   60.59   14.20
   0  10  -7   45.40   10.50
   0  10  -7   68.09   18.10
   0  10   7   71.79   15.80
   0  10   7   49.10   17.90
   6   0  -8   21.70   11.30
  -6   0   8    9.20    8.80
   6   0  -8    1.60    8.00
  -6   0   8   15.90    9.50
   6   0  -8   22.70   11.60
   6   0  -8   12.90   13.20
   5   0  -8  -13.50    6.80
   5   0  -8   -4.60    7.70
  -5   0   8    3.10    7.80
   5   0  -8   -0.80    6.20
  -5   0   8   -0.20    5.70
   5   0  -8    6.30    8.80
   4   0  -8  294.57   31.80
   4   0  -8  290.27   30.90
  -4   0   8  260.87   25.30
   4   0  -8  254.57   29.90
  -4   0   8  255.97   27.40
  -4   0   8  314.67   32.70
   4   0  -8  274.37   29.10
   3   0  -8   74.39   14.60
   3   0  -8   59.49   13.30
  -3   0   8   52.39   12.40
  -3   0   8   45.70   10.80
  -3   0   8   52.49   15.00
  -3   0   8   45.20   13.80
   3   0  -8   78.59   14.80
   3   0  -8   47.80   12.20
  -3   0   8   58.09    9.20
  -2   0   8   14.20    9.40
  -2   0   8   -5.40    7.50
   2   0  -8   -5.60    5.40
  -2   0   8   -1.70    4.30
  -2   0   8   -1.30    6.70
  -2   0   8    1.00    7.70
   2   0  -8   -5.20    4.70
   2   0  -8   -5.10    4.60
   2   0  -8    5.30    6.70
   1   0  -8  526.55   34.10
  -1   0   8  470.05   39.20
   1   0  -8  479.55   40.80
   1   0  -8  454.25   40.60
  -1   0   8  526.15   37.40
  -1   0   8  487.95   40.60
  -1   0   8  567.74   41.20
   1   0  -8  515.85   39.20
   0   0  -8  152.38   21.50
   0   0   8  168.98   19.70
   0   0  -8  148.99   21.80
   0   0  -8  145.99   19.50
   0   0   8  141.39   12.90
   0   0   8  167.88   21.80
   0   0   8  144.99   19.80
   0   0   8  136.19   19.70
   1   0   8   76.99   17.20
   1   0   8  104.19   14.40
  -1   0  -8  104.89   15.30
   1   0   8   74.39   14.80
   1   0   8   57.29   13.90
  -1   0  -8   94.79   16.40
  -1   0  -8   93.49   18.20
   1   0   8  119.59   20.00
  -1   0  -8  124.99   20.40
  -2   0  -8  627.64   42.30
  -2   0  -8  537.35   45.40
   2   0   8  558.94   41.90
  -2   0  -8  528.15   44.70
   2   0   8  514.55   43.70
   2   0   8  593.74   41.80
   2   0   8  568.84   47.40
   2   0   8  531.15   48.00
  -2   0  -8  550.24   43.30
   3   0   8   27.20   14.00
  -3   0  -8   -0.60    9.20
  -3   0  -8    4.90    8.40
   3   0   8  -10.80    8.30
  -3   0  -8    2.60    8.50
   3   0   8    8.80   12.80
  -3   0  -8   21.70   10.00
  -3   0  -8   20.70   11.30
   3   0   8   -0.90    7.30
  -4   0  -8   79.09   16.30
  -4   0  -8   71.99   17.10
  -4   0  -8  125.89   22.30
   4   0   8   83.39   15.40
   4   0   8   64.79   18.60
  -4   0  -8   78.89   19.10
   6  -1  -8   67.99   18.80
  -6  -1   8  107.09   22.10
   6  -1  -8   78.39   16.40
  -6  -1   8   47.00   14.50
   6  -1  -8   50.29   15.00
   6   1  -8   46.60   16.10
   6   1  -8   88.89   16.20
   6   1  -8   63.59   16.60
  -6   1   8   64.69   15.00
   6   1  -8   81.49   16.60
  -6   1   8   63.19   18.30
  -5  -1   8   21.90    8.90
   5  -1  -8    7.70    8.10
   5  -1  -8    2.20    6.70
   5  -1  -8   22.30   12.10
   5  -1  -8   26.40   10.90
  -5  -1   8   21.50   11.40
  -5  -1   8   25.30   12.60
  -5   1   8   17.50    9.60
   5   1  -8   49.60   14.30
   5   1  -8   20.00   10.30
   5   1  -8   16.30   10.70
  -5   1   8   20.70   12.90
  -5   1   8   21.90    8.40
   5   1  -8   19.40    9.60
   4  -1  -8   76.29   16.60
   4  -1  -8   54.39   14.40
  -4  -1   8   62.49   11.60
  -4  -1   8   60.19   15.70
  -4  -1   8   78.89   16.70
  -4  -1   8   56.69   12.50
   4  -1  -8   80.79   16.40
  -4  -1   8   74.69   13.60
   4  -1  -8   55.49   13.10
   4   1  -8   47.90   13.20
  -4   1   8   47.90   11.90
  -4   1   8   72.19   16.60
   4   1  -8   70.99   16.80
   4   1  -8   73.39   15.70
   4   1  -8   66.69   14.80
  -4   1   8   73.79   14.40
   3  -1  -8  364.56   34.10
   3  -1  -8  378.46   32.40
   3  -1  -8  395.56   32.80
  -3  -1   8  401.76   30.80
  -3  -1   8  382.46   28.30
  -3  -1   8  401.76   33.70
  -3  -1   8  320.97   29.90
  -3  -1   8  414.66   37.60
   3  -1  -8  422.06   34.90
   3   1  -8  325.77   30.10
   3   1  -8  390.86   34.80
  -3   1   8  360.16   33.60
  -3   1   8  354.76   32.60
   3   1  -8  361.86   31.40
  -3   1   8  348.87   30.50
   3   1  -8  394.46   34.70
  -2  -1   8  490.75   39.90
  -2  -1   8  512.05   42.00
   2  -1  -8  498.05   40.60
   2  -1  -8  548.25   41.80
   2  -1  -8  541.45   38.20
  -2  -1   8  475.65   37.40
  -2  -1   8  528.05   37.70
   2  -1  -8  485.25   38.30
   2   1  -8  549.95   42.80
  -2   1   8  581.54   39.60
  -2   1   8  435.06   39.10
  -2   1   8  430.86   40.30
  -2   1   8  454.75   34.20
   2   1  -8  597.74   41.20
   2   1  -8  539.75   42.20
  -2   1   8  579.04   41.40
   1  -1  -8  185.08   24.30
   1  -1  -8  179.38   18.10
   1  -1  -8  185.18   21.20
  -1  -1   8  188.18   22.30
  -1  -1   8  193.88   20.30
   1  -1  -8  157.98   22.70
  -1  -1   8  125.69   19.10
  -1  -1   8  119.09   20.70
  -1   1   8  151.38   19.20
  -1   1   8  165.28   22.00
   1   1  -8  133.09   20.30
   1   1  -8  162.08   21.00
  -1   1   8  153.18   21.10
   1   1  -8  156.58   22.20
  -1   1   8  157.88   21.50
   0  -1   8   87.89   16.80
   0  -1  -8   76.99   14.40
   0  -1   8   91.59   15.50
   0  -1  -8  112.49   14.10
   0  -1  -8   96.09   16.60
   0  -1  -8   83.09   17.50
   0  -1   8   52.59   13.80
   0  -1   8   87.89   13.80
   0   1   8   75.09   17.00
   0   1   8   92.09   14.60
   0   1  -8   97.89   18.40
   0   1  -8   92.89   15.10
   0   1   8   89.09   16.90
   0   1   8   89.29   11.50
   0   1   8  106.59   16.10
   0   1  -8   74.59   14.90
   1  -1   8   78.59   12.50
  -1  -1  -8   93.19   16.40
  -1  -1  -8   75.49   12.80
   1  -1   8   39.90   13.50
   1  -1   8  102.09   17.80
  -1  -1  -8   81.79   16.40
  -1  -1  -8   77.49   15.90
   1  -1   8  104.99   16.90
   1  -1   8   78.39   15.50
   1   1   8   70.09   15.10
  -1   1  -8  128.19   17.20
   1   1   8   99.69   15.20
   1   1   8   76.79   17.50
  -1   1  -8   60.99   14.30
   1   1   8   83.89   12.00
   1   1   8   95.59   15.10
  -1   1  -8   96.29   17.30
  -1   1  -8   86.69   15.50
   2  -1   8   31.30   14.60
   2  -1   8   16.20    8.50
  -2  -1  -8   13.90   11.40
  -2  -1  -8    2.10    9.30
   2  -1   8    6.40    8.90
   2  -1   8    9.70    7.70
  -2  -1  -8    9.90    9.00
  -2  -1  -8   12.90    7.10
   2  -1   8   23.70   12.00
   2   1   8    5.80   11.40
   2   1   8   20.90    8.00
   2   1   8    8.30    7.50
   2   1   8   14.80    7.50
   2   1   8    2.50   10.20
   2   1   8   20.10    7.80
  -2   1  -8    9.60   10.10
  -2   1  -8   16.10    9.10
  -2   1  -8   -3.80    9.50
  -2   1  -8   -1.30    9.60
   3  -1   8   19.30   14.20
   3  -1   8   -2.20    6.90
  -3  -1  -8  -11.90    7.20
   3  -1   8    3.70    7.90
  -3  -1  -8    0.60   10.90
  -3  -1  -8    7.70   11.40
  -3   1  -8    4.10   10.00
  -3   1  -8   20.70   12.30
   3   1   8    7.50    9.40
   3   1   8    5.90    5.10
  -3   1  -8   11.10   10.10
   3   1   8    9.40   12.60
   3   1   8  -11.80    9.20
  -3   1  -8    6.90    9.20
  -3   1  -8    9.20    9.00
  -4  -1  -8   74.39   17.40
  -4  -1  -8   96.59   20.90
   4  -1   8   75.79   18.20
  -4  -1  -8   58.99   18.70
   4  -1   8   67.89   13.60
   4  -1   8   67.59   19.40
  -4   1  -8  141.69   24.70
  -4   1  -8   39.00   12.80
  -4   1  -8   65.19   15.70
   4   1   8   81.89   18.90
   4   1   8   82.39   18.70
  -4   1  -8   98.49   22.60
   4   1   8   45.00   14.10
   6  -2  -8   43.30   14.90
   6  -2  -8   65.69   16.60
   6  -2  -8   40.20   13.40
  -6  -2   8   30.20   14.30
  -6  -2   8   33.90   13.00
  -6  -2   8   17.40   10.70
  -6   2   8   23.10   11.10
   6   2  -8   55.99   15.50
   6   2  -8   38.00   13.10
   6   2  -8   41.70   15.90
  -6   2   8   19.40   10.30
  -6   2   8   40.90   14.10
   6   2  -8   31.00   11.90
   5  -2  -8  111.49   21.10
  -5  -2   8  179.28   27.80
  -5  -2   8  177.38   25.50
  -5  -2   8  152.08   20.50
   5  -2  -8  195.48   23.00
   5  -2  -8  189.08   24.50
   5  -2  -8  211.08   27.60
  -5  -2   8  201.08   22.90
  -5   2   8  168.68   23.30
   5   2  -8  121.79   21.10
   5   2  -8  184.68   24.90
   5   2  -8  180.58   23.90
  -5   2   8  210.38   26.40
  -5   2   8  152.78   22.40
   5   2  -8  181.48   24.80
  -4  -2   8   87.39   13.90
  -4  -2   8   57.59   17.10
   4  -2  -8   66.39   16.60
   4  -2  -8   82.69   15.00
  -4  -2   8   55.59   11.40
   4  -2  -8   53.79   15.40
  -4  -2   8   70.69   16.80
   4  -2  -8   53.39   14.30
   4   2  -8   69.79   14.80
   4   2  -8   60.09   15.60
  -4   2   8   62.59   14.10
  -4   2   8   65.79   14.40
   4   2  -8   52.59   13.60
  -4   2   8   63.39   13.90
   4   2  -8   27.50   12.30
  -3  -2   8   40.00   10.80
  -3  -2   8   54.89   15.40
  -3  -2   8   54.39   11.20
  -3  -2   8   62.39   11.10
   3  -2  -8   49.90   13.40
   3  -2  -8   40.30   11.60
   3  -2  -8   42.60   12.00
   3  -2  -8   51.69   14.30
  -3  -2   8   39.40   10.60
   3   2  -8   37.20   11.00
   3   2  -8   29.00   10.80
  -3   2   8   43.90   11.70
   3   2  -8   25.40    9.30
  -3   2   8   24.60   11.40
   3   2  -8   29.50   10.80
  -3   2   8   36.40   12.40
  -2  -2   8  375.16   36.30
  -2  -2   8  392.96   31.90
  -2  -2   8  425.26   31.80
   2  -2  -8  430.86   34.70
   2  -2  -8  392.16   36.40
  -2  -2   8  385.36   34.20
   2  -2  -8  453.65   34.90
   2  -2  -8  426.26   36.40
  -2  -2   8  420.96   32.80
  -2   2   8  396.86   36.20
  -2   2   8  484.45   37.80
   2   2  -8  400.56   30.60
   2   2  -8  410.76   35.20
   2   2  -8  450.85   35.70
  -2   2   8  433.26   34.40
  -2   2   8  473.65   32.40
   2   2  -8  422.46   36.50
  -2   2   8  463.85   36.40
   1  -2  -8  156.18   22.20
   1  -2  -8  136.99   19.00
  -1  -2   8  109.29   16.90
  -1  -2   8  140.89   16.80
   1  -2  -8  133.39   20.50
   1  -2  -8  101.69   15.00
  -1  -2   8  160.78   20.40
  -1  -2   8  115.49   20.80
  -1   2   8  130.49   18.10
  -1   2   8  124.49   18.70
  -1   2   8  138.09   15.50
   1   2  -8  126.69   20.10
   1   2  -8  131.69   19.60
  -1   2   8  139.39   19.40
   1   2  -8  128.39   17.90
  -1   2   8  157.28   21.30
   0  -2  -8  107.29   12.90
   0  -2   8   89.39   16.30
   0  -2  -8   88.99   16.90
   0  -2  -8   84.29   16.80
   0  -2   8  137.99   22.50
   0  -2   8  121.59   19.40
   0  -2  -8  117.69   17.70
   0  -2   8   95.99   14.20
   0  -2   8  113.69   17.10
   0   2  -8   90.39   15.90
   0   2   8   86.19   16.50
   0   2   8  107.99   19.00
   0   2   8   82.09   14.30
   0   2  -8  107.39   18.30
   0   2   8   73.79   13.60
   0   2  -8  107.09   18.30
   0   2   8   80.39   12.50
  -1  -2  -8   85.49   18.30
   1  -2   8   84.89   15.50
  -1  -2  -8   97.09   12.90
   1  -2   8   69.79   15.50
  -1  -2  -8   87.09   16.20
   1  -2   8   95.59   13.80
   1  -2   8   66.59   14.50
   1  -2   8   43.80   15.00
   1  -2   8  103.49   18.90
  -1  -2  -8   85.29   17.00
  -1   2  -8   74.99   15.80
   1   2   8  120.19   15.70
  -1   2  -8   66.59   14.40
   1   2   8   81.29   11.90
   1   2   8  108.19   19.50
   1   2   8   79.29   14.40
  -1   2  -8   84.79   16.00
   1   2   8   71.59   16.10
  -1   2  -8  107.79   16.70
   2  -2   8   43.90   14.20
   2  -2   8   69.29   15.70
  -2  -2  -8   50.29   13.70
   2  -2   8   20.40   13.80
   2  -2   8   53.69   14.10
  -2  -2  -8   61.89   14.20
   2  -2   8   61.39   11.80
  -2  -2  -8   51.69   13.80
   2   2   8   44.10   11.00
  -2   2  -8   62.29   13.90
   2   2   8   66.99   15.70
   2   2   8   59.29   13.60
  -2   2  -8   70.19   16.30
   2   2   8   51.69   13.00
  -2   2  -8   41.30   12.20
   2   2   8   49.90   14.80
  -2   2  -8   61.59   14.00
  -3  -2  -8   25.70   10.70
   3  -2   8   21.50   12.20
   3  -2   8   14.10    9.80
  -3  -2  -8   18.20   10.40
   3  -2   8   13.90    9.50
   3  -2   8   11.80    8.20
  -3  -2  -8   11.30    8.90
  -3   2  -8   14.20    9.80
   3   2   8   17.60   12.40
  -3   2  -8   23.00   10.40
  -3   2  -8    2.30    9.10
  -3   2  -8   19.90   11.00
   3   2   8    2.10   11.10
   3   2   8   17.20   10.40
   3   2   8    6.10    8.60
   3   2   8   11.20   12.50
  -3   2  -8   17.00   10.20
   4  -2   8   27.70   14.40
   4  -2   8   36.90   17.10
  -4  -2  -8   32.60   13.00
  -4  -2  -8   16.20   11.50
  -4  -2  -8   37.50   13.60
  -4   2  -8   14.50    9.90
  -4   2  -8   24.80   11.90
   4   2   8   50.99   17.90
   4   2   8   41.40   15.40
  -4   2  -8   51.39   14.70
  -4   2  -8   49.50   15.00
  -4   2  -8   16.40    9.00
   4   2   8   -1.90    9.10
   4   2   8   49.90   18.00
  -6  -3   8  108.99   17.20
  -6  -3   8   72.79   15.20
   6  -3  -8   64.59   14.50
  -6  -3   8   89.89   22.10
   6  -3  -8   79.19   19.20
  -6  -3   8  118.99   22.70
   6   3  -8  113.79   18.70
   6   3  -8  105.39   19.60
   6   3  -8   99.09   20.00
  -6   3   8   97.09   18.00
  -6   3   8   63.39   16.90
   6   3  -8   85.69   20.10
  -6   3   8   74.29   18.00
  -5  -3   8  165.98   25.10
  -5  -3   8  155.88   25.80
   5  -3  -8  143.29   22.50
  -5  -3   8  140.79   20.10
   5  -3  -8  148.19   25.40
   5  -3  -8  152.28   20.60
   5  -3  -8  144.09   21.20
  -5  -3   8  152.98   20.40
   5   3  -8  169.88   24.10
  -5   3   8  125.29   21.00
   5   3  -8  242.78   28.30
  -5   3   8  155.58   23.30
   5   3  -8  168.78   22.90
   5   3  -8  137.29   21.90
  -5   3   8  177.38   22.70
  -4  -3   8   71.49   16.10
  -4  -3   8   55.09   13.10
  -4  -3   8   52.29   12.30
  -4  -3   8   57.99   17.30
   4  -3  -8   49.70   15.00
   4  -3  -8   67.69   14.90
   4  -3  -8   50.39   14.50
   4  -3  -8   61.59   13.50
  -4   3   8   40.50   11.40
   4   3  -8   40.30   12.40
  -4   3   8   66.79   15.10
  -4   3   8   60.89   15.50
   4   3  -8   46.40   11.90
   4   3  -8   44.40   12.40
   4   3  -8   65.89   14.80
  -3  -3   8   13.60    8.30
   3  -3  -8   25.90   11.40
  -3  -3   8   19.90    9.10
   3  -3  -8   26.80    8.80
  -3  -3   8   24.80    9.10
   3  -3  -8   30.50   11.20
  -3  -3   8   27.30   13.20
   3  -3  -8   37.00   11.20
   3   3  -8   32.00   12.30
  -3   3   8   25.30   10.40
  -3   3   8   13.90    9.00
  -3   3   8   30.60   10.20
   3   3  -8   42.30   11.90
   3   3  -8   20.10    9.70
   3   3  -8   32.30    9.40
  -3   3   8   29.30   12.40
   2  -3  -8  228.18   27.20
  -2  -3   8  277.97   28.40
  -2  -3   8  277.57   23.20
  -2  -3   8  199.98   28.40
  -2  -3   8  222.18   21.60
   2  -3  -8  266.07   28.00
  -2  -3   8  233.88   21.90
   2  -3  -8  217.38   27.30
   2  -3  -8  258.87   26.00
  -2  -3   8  279.27   30.60
  -2   3   8  237.08   25.10
  -2   3   8  300.07   27.10
   2   3  -8  238.18   27.10
  -2   3   8  243.18   29.00
   2   3  -8  225.68   20.00
   2   3  -8  236.78   26.10
   2   3  -8  219.18   27.10
  -2   3   8  199.48   25.60
  -2   3   8  252.87   23.50
   1  -3  -8  257.77   29.60
  -1  -3   8  231.48   28.70
  -1  -3   8  209.48   28.20
   1  -3  -8  249.38   24.40
   1  -3  -8  260.17   29.40
   1  -3  -8  265.37   24.20
  -1  -3   8  264.37   24.40
  -1  -3   8  229.88   26.30
  -1  -3   8  266.87   21.50
   1   3  -8  275.67   29.00
  -1   3   8  209.98   24.30
  -1   3   8  228.58   24.30
   1   3  -8  264.57   24.60
   1   3  -8  241.58   29.30
  -1   3   8  266.17   29.40
  -1   3   8  292.57   24.10
  -1   3   8  278.47   30.70
   0  -3  -8  313.47   31.50
   0  -3   8  468.95   34.60
   0  -3   8  353.76   27.60
   0  -3  -8  361.56   34.10
   0  -3   8  343.07   34.30
   0  -3   8  312.87   29.50
   0  -3  -8  348.67   30.30
   0  -3   8  407.96   35.90
   0   3   8  377.26   34.30
   0   3   8  376.46   31.20
   0   3  -8  370.96   31.90
   0   3  -8  403.96   33.50
   0   3   8  322.57   28.40
   0   3   8  382.46   29.20
   0   3  -8  344.27   33.00
   0   3   8  323.87   32.50
   1  -3   8  141.39   24.40
   1  -3   8  105.89   19.70
   1  -3   8  137.49   19.00
   1  -3   8  109.49   19.30
  -1  -3  -8  133.29   21.10
   1  -3   8  121.79   15.10
  -1  -3  -8   93.39   19.00
  -1  -3  -8  114.79   17.70
  -1   3  -8  107.79   17.60
   1   3   8  117.99   19.20
  -1   3  -8  119.39   19.80
   1   3   8  140.59   18.20
  -1   3  -8  140.99   21.30
   1   3   8   90.79   15.00
  -1   3  -8  134.39   19.70
   1   3   8  149.09   23.50
  -2  -3  -8   65.99   15.60
   2  -3   8   67.89   14.80
   2  -3   8   64.59   10.90
   2  -3   8   72.99   18.60
  -2  -3  -8   43.90   14.80
   2  -3   8   33.00   12.50
   2   3   8   49.00   11.20
  -2   3  -8   83.19   16.20
  -2   3  -8   59.49   13.80
   2   3   8   54.69   14.20
  -2   3  -8   43.50   12.30
   2   3   8   53.79   16.30
  -2   3  -8   65.09   15.20
   2   3   8   54.89   15.90
  -3  -3  -8  214.38   28.10
   3  -3   8  143.19   24.30
  -3  -3  -8  212.48   26.50
   3  -3   8  235.18   29.30
   3  -3   8  152.28   27.90
  -3  -3  -8  168.18   26.80
   3   3   8  202.08   28.40
  -3   3  -8  250.47   30.60
  -3   3  -8  229.38   28.50
  -3   3  -8  190.98   25.00
   3   3   8  182.98   23.60
  -3   3  -8  186.08   25.80
   3   3   8  200.18   23.60
  -3   3  -8  189.68   25.10
   3   3   8  202.58   28.50
   3   3   8  164.68   27.20
  -6  -4   8   64.89   14.20
   6  -4  -8   77.39   19.00
  -6  -4   8   74.89   19.50
  -6  -4   8   80.89   17.30
   6   4  -8   91.09   18.80
   6   4  -8   84.79   19.00
   6   4  -8   70.29   18.90
  -6   4   8   63.39   16.70
  -6   4   8   51.29   15.90
  -6   4   8   71.59   16.80
   5  -4  -8   16.90   10.00
   5  -4  -8   38.60   11.20
  -5  -4   8   29.50   10.30
  -5  -4   8   34.20   15.90
   5  -4  -8   43.80   15.30
  -5  -4   8   38.40   12.60
   5   4  -8   39.20   13.50
  -5   4   8   42.70   14.40
  -5   4   8   35.00   12.30
   5   4  -8   34.60   11.70
  -5   4   8   33.60   11.00
   5   4  -8   43.90   11.70
  -4  -4   8  354.06   32.90
   4  -4  -8  324.37   36.00
  -4  -4   8  345.67   30.00
   4  -4  -8  266.37   31.80
  -4  -4   8  295.37   29.60
  -4  -4   8  346.37   27.60
   4  -4  -8  320.67   28.60
   4  -4  -8  308.77   30.30
  -4  -4   8  348.47   38.80
  -4   4   8  325.27   30.70
   4   4  -8  318.57   34.50
   4   4  -8  330.37   31.40
  -4   4   8  288.37   33.50
   4   4  -8  346.67   31.60
  -4   4   8  319.67   34.40
   3  -4  -8   31.80   10.30
   3  -4  -8   33.50   10.00
   3  -4  -8   22.50   11.20
  -3  -4   8   43.20   13.20
  -3  -4   8   25.90    8.90
   3  -4  -8   35.30   13.30
  -3  -4   8   35.90   11.00
  -3  -4   8   29.40   12.00
  -3  -4   8   29.40   10.30
  -3   4   8   27.60   10.20
  -3   4   8   48.40   12.80
  -3   4   8   47.50   12.50
   3   4  -8   17.30    7.70
   3   4  -8   26.70   13.90
  -3   4   8    9.30    7.90
   3   4  -8   42.40   12.60
   2  -4  -8  323.27   34.70
   2  -4  -8  367.96   32.80
  -2  -4   8  308.07   25.80
  -2  -4   8  316.37   26.20
   2  -4  -8  382.46   34.10
  -2  -4   8  352.06   30.60
  -2  -4   8  355.36   33.20
  -2  -4   8  374.36   36.20
   2  -4  -8  369.26   29.90
  -2   4   8  377.46   30.00
  -2   4   8  306.47   35.10
  -2   4   8  306.57   29.50
   2   4  -8  291.57   33.30
   2   4  -8  330.67   31.50
  -2   4   8  321.07   30.60
   2   4  -8  371.36   31.40
  -1  -4   8  481.25   36.40
  -1  -4   8  464.65   39.30
   1  -4  -8  418.56   35.50
  -1  -4   8  449.86   40.20
   1  -4  -8  379.06   36.10
   1  -4  -8  423.96   37.90
   1  -4  -8  418.06   33.30
  -1  -4   8  397.96   29.80
  -1   4   8  415.96   37.50
  -1   4   8  408.16   36.70
   1   4  -8  449.46   36.50
  -1   4   8  479.55   34.80
   1   4  -8  420.96   35.10
  -1   4   8  438.16   33.80
  -1   4   8  384.06   33.60
   1   4  -8  382.36   37.30
   0  -4  -8  147.39   22.30
   0  -4  -8  154.78   20.30
   0  -4   8  172.88   15.90
   0  -4  -8  128.09   21.00
   0  -4   8  176.08   26.40
   0  -4   8  226.58   29.10
   0   4  -8  131.09   18.70
   0   4   8  139.69   20.90
   0   4   8  135.49   18.20
   0   4  -8  187.18   23.60
   0   4  -8  184.18   24.40
   0   4   8  163.38   20.50
   0   4   8  179.58   18.00
   0   4   8  211.88   27.40
   1  -4   8    7.20    4.90
   1  -4   8   22.70   12.50
   1  -4   8    4.10    5.80
   1  -4   8    8.00    7.30
  -1  -4  -8   -8.60    6.50
  -1  -4  -8   -3.50    9.50
   1   4   8   -2.60    9.80
  -1   4  -8    6.40    8.50
   1   4   8    4.40    6.00
  -1   4  -8   -1.70    4.60
   1   4   8    6.70    6.40
  -1   4  -8   -8.90    6.70
   1   4   8   -2.20    8.10
  -1   4  -8    1.50    7.10
   2  -4   8  186.28   27.00
   2  -4   8  151.08   27.30
   2  -4   8  135.69   20.80
  -2  -4  -8  168.48   21.70
  -2  -4  -8  233.08   28.00
  -2  -4  -8  189.38   26.20
  -2   4  -8  165.58   23.60
   2   4   8  162.28   23.30
   2   4   8  142.99   23.50
   2   4   8  132.69   19.60
  -2   4  -8  147.19   22.70
  -2   4  -8  157.58   22.50
   2   4   8  147.49   19.80
  -2   4  -8  168.38   22.70
  -3  -4  -8  106.79   21.80
   3  -4   8   71.79   18.90
  -3  -4  -8   93.29   21.30
  -3  -4  -8   72.49   16.40
   3  -4   8   99.79   21.40
   3  -4   8   68.19   20.00
   3   4   8  104.89   19.60
   3   4   8   85.39   15.60
  -3   4  -8  108.29   18.20
   3   4   8   34.40   13.10
   3   4   8   94.89   20.80
   3   4   8   85.49   16.90
  -3   4  -8   85.49   17.10
  -3   4  -8  100.89   17.00
  -3   4  -8  123.19   20.30
  -3   4  -8  100.39   18.50
   5  -5  -8   57.19   12.70
  -5  -5   8   51.19   15.20
   5  -5  -8  110.09   22.70
  -5  -5   8   74.59   13.80
  -5  -5   8   94.79   21.20
  -5   5   8   86.79   17.00
   5   5  -8   63.79   17.90
   5   5  -8   86.19   18.40
   5   5  -8   70.69   16.30
  -5   5   8   98.89   20.10
  -5   5   8   80.49   16.30
   4  -5  -8  250.17   27.20
   4  -5  -8  199.38   29.50
  -4  -5   8  251.77   33.90
   4  -5  -8  201.38   22.40
  -4  -5   8  194.08   21.40
  -4  -5   8  219.88   27.20
  -4   5   8  182.58   24.90
  -4   5   8  271.67   32.30
   4   5  -8  221.28   26.80
   4   5  -8  252.57   30.70
   4   5  -8  242.08   27.10
  -4   5   8  197.28   25.10
  -3  -5   8  310.07   29.70
   3  -5  -8  326.07   35.60
  -3  -5   8  265.37   33.80
   3  -5  -8  225.78   28.30
   3  -5  -8  266.17   24.40
   3  -5  -8  337.97   36.60
  -3  -5   8  304.97   31.20
  -3   5   8  314.27   34.70
  -3   5   8  294.27   31.90
  -3   5   8  308.37   31.00
   3   5  -8  325.37   29.40
  -3   5   8  209.38   25.70
   3   5  -8  338.07   31.90
   3   5  -8  252.27   29.90
   2  -5  -8   66.59   15.20
  -2  -5   8   88.09   15.70
  -2  -5   8   53.09   15.70
   2  -5  -8   54.19   13.00
   2  -5  -8   95.39   18.90
  -2  -5   8   74.19   17.30
   2  -5  -8   68.39   13.10
  -2   5   8   92.09   17.50
  -2   5   8  118.19   21.00
   2   5  -8   67.59   14.50
  -2   5   8   89.89   14.90
   2   5  -8   71.79   13.80
  -2   5   8   58.39   14.20
   2   5  -8   74.29   16.50
   1  -5  -8  101.39   15.00
   1  -5  -8   96.79   17.40
   1  -5  -8  106.79   18.40
  -1  -5   8   83.39   17.90
  -1  -5   8  105.89   19.20
  -1   5   8   65.49   12.80
  -1   5   8   90.49   16.00
   1   5  -8   71.49   16.10
   1   5  -8   93.39   15.40
   1   5  -8   95.59   16.70
  -1   5   8   43.70   15.10
  -1   5   8  107.09   15.60
  -1   5   8   64.59   15.40
   0  -5  -8   74.79   14.50
   0  -5  -8   91.59   17.90
   0  -5   8   80.89   17.70
   0  -5   8  101.29   19.40
   0   5   8   96.49   19.20
   0   5  -8  122.49   20.30
   0   5  -8   89.39   14.90
   0   5   8   85.89   16.50
   0   5   8  103.19   16.90
   0   5   8  111.79   16.90
   0   5  -8   82.89   15.00
   1  -5   8  348.77   35.00
  -1  -5  -8  270.07   29.00
   1  -5   8  276.07   35.00
  -1  -5  -8  374.46   34.30
   1   5   8  298.77   28.80
   1   5   8  298.77   28.40
  -1   5  -8  328.37   30.20
   1   5   8  278.87   32.00
  -1   5  -8  294.17   27.50
  -1   5  -8  282.27   32.00
  -1   5  -8  331.87   34.50
   1   5   8  302.77   34.60
   2  -5   8   37.20   13.90
   2  -5   8   54.59   15.20
  -2  -5  -8   61.29   14.10
  -2  -5  -8   65.89   16.80
   2  -5   8   68.69   17.40
  -2  -5  -8   82.29   18.50
   2   5   8   61.99   17.70
   2   5   8   50.09   12.70
   2   5   8   40.80   12.50
  -2   5  -8   42.50   13.00
  -2   5  -8   57.89   13.90
  -2   5  -8   90.59   18.10
   2   5   8   71.69   17.10
  -2   5  -8   71.09   15.00
   3  -5   8   38.80   16.20
   3  -5   8   57.59   16.60
  -3  -5  -8   55.19   17.30
  -3  -5  -8   75.49   16.30
  -3  -5  -8   63.59   19.30
  -3   5  -8   82.89   16.40
   3   5   8   41.40   15.80
   3   5   8   64.59   18.50
  -3   5  -8   70.79   16.30
   3   5   8   49.30   14.10
  -3   5  -8   39.40   12.90
   3   5   8   44.00   14.10
  -3   5  -8   55.49   15.50
   3   5   8   71.69   19.70
  -3   5  -8   51.29   16.40
  -5  -6   8  135.69   22.20
   5  -6  -8  179.68   28.70
  -5  -6   8  271.07   35.20
   5   6  -8  145.59   23.20
  -5   6   8  178.58   26.50
   5   6  -8  157.18   25.30
  -5   6   8  176.48   23.60
   5   6  -8  228.68   28.70
  -5   6   8  197.28   26.30
  -4  -6   8  152.18   22.40
   4  -6  -8  151.28   26.70
  -4  -6   8  201.18   30.80
   4   6  -8  120.19   20.60
   4   6  -8  147.49   21.70
  -4   6   8  146.69   24.10
  -4   6   8  159.18   22.50
   4   6  -8  156.58   22.50
  -4   6   8  165.68   23.40
   3  -6  -8   12.90   11.90
  -3  -6   8   17.50   11.30
  -3  -6   8   15.10   11.00
  -3  -6   8    0.50    7.40
   3  -6  -8   11.10    7.60
  -3   6   8   15.60   10.00
  -3   6   8    9.10   12.50
  -3   6   8    5.20    7.20
  -3   6   8   -9.50    6.90
   3   6  -8   41.40   15.00
   3   6  -8   35.80   11.90
   3   6  -8   -7.70    7.20
  -2  -6   8  123.49   19.30
   2  -6  -8  109.49   16.00
  -2  -6   8  154.38   24.80
  -2  -6   8  144.89   21.90
   2  -6  -8  215.98   27.70
   2   6  -8  116.69   17.80
  -2   6   8  133.49   20.20
  -2   6   8  183.68   22.90
   2   6  -8  150.38   19.80
  -2   6   8  108.09   21.60
  -2   6   8  131.79   19.10
   2   6  -8  100.89   20.10
   1  -6  -8   91.49   14.00
  -1  -6   8  109.59   22.80
   1  -6  -8  100.79   18.80
  -1  -6   8   93.49   17.90
   1   6  -8   92.89   15.70
   1   6  -8   81.79   14.80
  -1   6   8   93.89   16.10
  -1   6   8  107.09   18.00
  -1   6   8  103.89   16.40
   1   6  -8  113.19   21.20
  -1   6   8  106.69   20.00
   0  -6  -8   59.89   12.30
   0  -6   8   75.19   18.70
   0  -6   8   51.09   15.70
   0   6  -8   54.79   13.00
   0   6   8   75.69   15.30
   0   6   8   68.19   13.90
   0   6   8   52.79   15.80
   0   6  -8   42.90   14.70
   0   6   8   46.70   13.40
   0   6  -8   71.89   14.40
   1  -6   8  107.99   22.60
  -1  -6  -8  107.09   15.90
   1  -6   8  125.69   23.90
   1   6   8  117.69   20.30
  -1   6  -8  114.79   17.70
  -1   6  -8  119.99   22.10
   1   6   8   91.69   16.20
  -1   6  -8  129.19   20.80
  -1   6  -8   92.69   16.30
   1   6   8  117.89   21.10
   1   6   8   87.59   16.60
   2  -6   8  155.28   26.30
  -2  -6  -8  139.99   20.80
   2  -6   8  138.39   26.90
   2   6   8  149.29   21.60
  -2   6  -8  204.78   26.40
   2   6   8  157.88   26.50
  -2   6  -8  152.78   22.10
  -2   6  -8  193.28   23.60
   2   6   8  179.38   26.30
  -2   6  -8  183.78   26.10
   2   6   8  153.38   22.60
   4  -7  -8   93.99   23.30
  -4  -7   8  124.39   21.60
  -4  -7   8  107.29   24.00
  -4   7   8  126.09   22.10
   4   7  -8  105.69   19.60
  -4   7   8   74.79   17.00
  -4   7   8   89.79   17.10
   4   7  -8   64.09   16.20
   4   7  -8   96.19   18.10
  -4   7   8  101.19   21.70
   3  -7  -8  302.47   39.20
  -3  -7   8  375.96   34.10
  -3  -7   8  352.66   40.70
   3   7  -8  388.06   40.90
   3   7  -8  383.56   33.00
   3   7  -8  343.57   31.70
  -3   7   8  376.06   33.60
  -3   7   8  306.77   33.90
  -3   7   8  369.96   32.60
  -3   7   8  299.07   37.10
   2  -7  -8   66.19   16.70
  -2  -7   8   50.19   16.00
  -2  -7   8   46.70   14.70
  -2  -7   8   89.29   17.80
  -2   7   8   75.09   14.50
  -2   7   8   45.40   14.90
   2   7  -8   61.49   12.80
  -2   7   8   37.00   11.40
   2   7  -8   71.59   14.70
   2   7  -8   68.49   17.90
  -2   7   8   94.99   15.50
   1  -7  -8    8.60   10.90
  -1  -7   8   20.90   10.70
  -1  -7   8    8.90    9.00
   1  -7  -8   11.10    6.90
  -1   7   8    9.80    9.50
   1   7  -8   12.30    9.30
   1   7  -8   17.70    7.60
  -1   7   8   20.70   14.40
  -1   7   8   19.60   10.20
  -1   7   8   21.50    8.80
   1   7  -8   14.20   12.90
   0  -7  -8   85.49   13.90
   0  -7   8  118.09   23.50
   0  -7   8   72.39   19.90
   0   7   8  105.79   17.00
   0   7  -8  103.69   15.90
   0   7   8   91.69   20.40
   0   7   8   90.39   17.00
   0   7  -8  100.19   16.50
   0   7  -8  124.59   21.90
   0   7   8   77.39   15.70
   1  -7   8    0.80   10.20
  -1  -7  -8   -9.90    6.50
   1  -7   8   10.20   12.70
   1   7   8    8.20    8.60
  -1   7  -8    5.70   10.60
  -1   7  -8   -9.80    9.10
   1   7   8   -1.30    9.90
  -1   7  -8   -5.20    7.60
   1   7   8   20.20   11.80
  -1   7  -8    5.50    7.30
   1   7   8    8.20   12.10
   2  -7   8   38.00   18.20
  -2  -7  -8    4.60    7.70
   2  -7   8   40.70   17.60
  -2   7  -8   34.70   11.30
  -2   7  -8   10.40    7.60
   2   7   8   14.10   12.10
   2   7   8   28.70   10.30
  -2   7  -8   37.10   12.50
  -2   7  -8   44.70   15.20
   2   7   8   50.49   15.50
   2   7   8   23.00   12.00
  -2   7  -8   11.80   12.40
  -3  -8   8   79.19   18.60
  -3  -8   8   79.49   20.10
   3  -8  -8   73.29   18.10
   3   8  -8   67.39   15.20
   3   8  -8   48.50   17.00
  -3   8   8   62.79   16.80
  -3   8   8   42.20   12.60
  -3   8   8   62.79   15.10
  -3   8   8   52.79   14.90
   3   8  -8   51.89   12.20
  -2  -8   8  164.68   23.70
  -2  -8   8  138.99   22.20
   2  -8  -8  164.88   26.80
  -2  -8   8  143.49   26.20
  -2   8   8  179.48   25.90
   2   8  -8  189.58   22.90
   2   8  -8  140.29   25.00
  -2   8   8  179.98   23.10
  -2   8   8  165.88   26.90
   2   8  -8  173.08   22.50
  -2   8   8  186.88   23.50
  -1  -8   8  140.89   23.20
  -1  -8   8  172.38   28.60
   1  -8  -8  131.89   22.70
   1   8  -8  157.38   20.90
  -1   8   8  104.89   18.70
   1   8  -8  119.19   18.30
   1   8  -8  136.39   24.20
  -1   8   8  127.49   18.70
  -1   8   8   99.29   19.30
  -1   8   8  110.29   22.40
   0  -8   8   61.09   18.60
   0  -8   8   30.50   13.60
   0   8   8   34.20   12.30
   0   8   8   58.89   13.50
   0   8   8   39.90   12.90
   0   8  -8   60.69   17.40
   0   8  -8   54.99   12.70
   0   8  -8   47.00   11.90
   0   8   8   68.09   19.10
   1  -8   8  152.28   27.60
   1  -8   8  100.49   21.20
   1   8   8  129.89   19.30
  -1   8  -8  140.19   25.10
  -1   8  -8   97.39   17.80
   1   8   8  117.19   20.70
   1   8   8  137.99   22.10
   1   8   8   88.39   21.70
  -1   8  -8  129.99   18.60
  -1   8  -8  115.19   20.20
  -2  -9   8  112.39   22.80
   2  -9  -8  146.79   25.40
  -2  -9   8   77.69   19.40
  -2   9   8   94.19   21.00
  -2   9   8  111.49   21.00
  -2   9   8   92.19   16.20
  -2   9   8   90.09   17.40
   2   9  -8   88.39   16.30
   2   9  -8  126.29   18.20
   2   9  -8  106.69   21.10
  -1  -9   8   51.09   16.10
   1   9  -8   39.00   14.90
  -1   9   8   49.80   18.50
  -1   9   8   79.49   15.20
  -1   9   8   60.59   14.90
   1   9  -8   56.39   13.20
  -1   9   8   86.29   16.80
  -5   0   9   -3.40    7.20
   5   0  -9   16.90    9.30
  -5   0   9   -2.40    8.80
   5   0  -9   11.00    8.90
   5   0  -9    4.00    8.30
   5   0  -9   -1.20    9.10
  -4   0   9   25.00   10.90
   4   0  -9   37.20   14.40
   4   0  -9   37.80   11.30
   4   0  -9   31.30   12.40
  -4   0   9   49.50   14.90
  -4   0   9   17.20   10.50
  -4   0   9   45.60   16.30
   4   0  -9   25.10   11.50
  -3   0   9   -0.10    4.90
   3   0  -9    5.70    6.30
   3   0  -9    9.00    9.20
  -3   0   9   -1.20    7.60
  -3   0   9    6.40    6.30
  -3   0   9   11.30   11.00
   3   0  -9   20.90    9.60
   3   0  -9  -13.00    7.20
   2   0  -9  454.55   40.80
  -2   0   9  397.46   35.90
   2   0  -9  491.85   38.10
   2   0  -9  430.86   40.30
  -2   0   9  482.65   40.80
  -2   0   9  492.25   41.00
  -2   0   9  487.65   38.70
  -1   0   9   64.19   15.60
  -1   0   9   56.39   13.00
  -1   0   9   48.40   14.10
  -1   0   9   56.29   13.40
   1   0  -9   56.79   13.60
   1   0  -9   82.69   17.70
   1   0  -9   98.79   18.10
   0   0   9    3.40    8.20
   0   0   9   -7.00    6.70
   0   0  -9    5.00   11.20
   0   0   9   -4.30    7.20
   0   0   9   11.30    9.80
   0   0  -9    3.30    9.30
   0   0  -9    1.20    8.70
   0   0  -9    5.40    7.30
  -1   0  -9  932.91   61.19
   1   0   9  796.32   59.79
   1   0   9  747.13   62.29
  -1   0  -9  970.40   64.49
   1   0   9  822.32   58.29
  -1   0  -9  788.72   55.69
   1   0   9  801.72   55.99
   1   0   9  857.61   62.69
  -1   0  -9  755.52   60.09
   2   0   9   -2.10    8.30
   2   0   9    0.90    6.30
  -2   0  -9   -8.70    8.70
  -2   0  -9   -4.70   10.30
   2   0   9    8.50   10.40
  -2   0  -9   -9.60    7.60
   2   0   9   -8.60    7.90
   3   0   9   13.10   12.90
  -3   0  -9   12.20   12.60
   3   0   9   18.10   10.40
  -3   0  -9    1.30   11.10
  -3   0  -9   -5.30   10.50
  -3   0  -9    0.50    9.70
   3   0   9   13.80   12.40
  -5  -1   9   57.39   14.70
  -5  -1   9   14.10   10.60
   5  -1  -9   41.40   12.70
   5  -1  -9   28.40   12.70
  -5  -1   9   35.80   13.80
   5  -1  -9   29.50   12.20
   5  -1  -9   38.00   13.20
   5   1  -9   36.50   15.30
   5   1  -9   40.00   11.70
  -5   1   9    5.00   12.30
  -5   1   9   34.70   10.90
   5   1  -9   56.39   16.20
   5   1  -9   46.20   15.10
  -4  -1   9   52.99   15.50
   4  -1  -9   34.60   12.60
   4  -1  -9   34.00   11.90
   4  -1  -9   25.10   11.40
   4  -1  -9   38.60   12.60
  -4  -1   9   46.90   14.80
  -4  -1   9   43.10   11.80
  -4   1   9   44.30   13.00
  -4   1   9   37.40   11.00
   4   1  -9   40.20   13.00
   4   1  -9   25.00   10.90
  -4   1   9   54.59   13.80
   4   1  -9   53.69   15.10
   4   1  -9   37.40   12.30
   3  -1  -9   51.09   13.60
  -3  -1   9   56.29   15.00
   3  -1  -9   71.89   17.00
  -3  -1   9   70.99   16.20
   3  -1  -9   43.20   11.80
  -3  -1   9   67.09   14.10
  -3  -1   9   67.39   13.50
   3  -1  -9   60.89   16.50
   3   1  -9   44.70   12.00
   3   1  -9   57.39   15.80
  -3   1   9   75.69   17.10
   3   1  -9   67.49   15.20
  -3   1   9   53.89   14.20
  -3   1   9   75.79   17.30
   3   1  -9   63.99   16.10
  -3   1   9   44.50   11.70
  -2  -1   9  206.08   29.80
   2  -1  -9  288.07   31.60
   2  -1  -9  237.78   26.60
  -2  -1   9  233.18   25.50
   2  -1  -9  235.78   28.90
  -2  -1   9  310.37   32.80
  -2  -1   9  248.08   27.20
   2   1  -9  197.08   25.60
  -2   1   9  276.77   27.10
  -2   1   9  308.77   32.80
  -2   1   9  234.88   26.70
   2   1  -9  314.07   33.50
   2   1  -9  266.77   31.50
  -2   1   9  284.67   30.30
   1  -1  -9  223.48   27.40
   1  -1  -9  180.68   23.20
  -1  -1   9  208.68   25.30
   1  -1  -9  221.68   28.60
  -1  -1   9  177.58   25.30
  -1  -1   9  194.58   24.40
  -1  -1   9  163.38   20.70
  -1   1   9  189.78   25.00
  -1   1   9  224.38   27.00
  -1   1   9  189.18   22.20
   1   1  -9  229.78   27.40
   1   1  -9  197.38   24.30
   1   1  -9  221.48   27.60
  -1   1   9  212.48   26.90
   0  -1   9   54.59   12.00
   0  -1  -9   66.19   16.30
   0  -1   9   82.19   18.70
   0  -1  -9   76.29   16.50
   0  -1  -9   81.69   13.50
   0  -1  -9   98.19   20.20
   0  -1   9   82.49   16.30
   0  -1   9   75.99   16.30
   0  -1   9   48.80   14.90
   0   1   9   77.89   14.40
   0   1  -9   66.59   13.90
   0   1  -9   90.79   17.70
   0   1   9   87.39   19.00
   0   1   9   87.99   17.60
   0   1  -9   68.29   15.60
   0   1   9   65.59   12.80
   0   1  -9   68.19   16.00
   1  -1   9    2.20    8.20
   1  -1   9    2.00    5.30
   1  -1   9    2.80    9.80
  -1  -1  -9    2.40   10.80
   1  -1   9   -3.70    6.40
  -1  -1  -9   -2.70    9.00
  -1  -1  -9   12.60    9.70
   1  -1   9    6.90    9.10
   1   1   9    4.00    7.70
  -1   1  -9    1.10    6.40
  -1   1  -9   -7.50    8.70
   1   1   9   -6.30    5.70
  -1   1  -9    1.80    9.60
   1   1   9   -5.90    4.60
  -1   1  -9    0.00    7.40
   1   1   9  -11.80    9.30
  -2  -1  -9  119.69   21.50
   2  -1   9   90.09   17.60
  -2  -1  -9   98.99   19.90
  -2  -1  -9   96.19   18.70
   2  -1   9   94.79   15.70
   2  -1   9   94.39   21.10
   2  -1   9   94.39   23.10
  -2   1  -9   76.19   18.60
   2   1   9   92.49   18.70
   2   1   9  143.29   26.60
  -2   1  -9   93.29   16.70
  -2   1  -9   97.09   17.90
   2   1   9   98.89   17.50
  -2   1  -9   77.59   16.40
   3  -1   9   61.49   17.70
  -3  -1  -9   74.99   16.60
   3  -1   9   36.90   16.70
   3  -1   9   39.20   10.70
  -3  -1  -9   27.00   11.80
  -3  -1  -9   58.89   14.40
   3   1   9   82.99   19.50
  -3   1  -9   56.89   18.50
  -3   1  -9   48.30   13.30
   3   1   9   54.49   13.10
  -3   1  -9   55.39   16.20
   3   1   9   39.10   16.50
  -3   1  -9   51.39   16.00
   3   1   9   29.70   16.90
  -3   1  -9   49.50   16.00
  -5  -2   9    0.10    8.10
  -5  -2   9    7.00   10.30
   5  -2  -9  -12.80    9.40
  -5  -2   9  -15.90    9.90
   5  -2  -9   -9.00   10.90
   5  -2  -9    8.30    8.50
   5  -2  -9    5.60    8.60
   5   2  -9   -3.10    9.90
  -5   2   9    6.60    9.60
  -5   2   9   -7.70    5.70
   5   2  -9   -6.60    5.30
  -5   2   9    2.00    7.50
   5   2  -9   -9.70    9.90
   5   2  -9   19.50   11.40
  -4  -2   9  115.79   20.70
   4  -2  -9  102.29   19.70
  -4  -2   9   86.59   16.20
   4  -2  -9   74.09   17.20
   4  -2  -9  111.29   17.50
  -4  -2   9  117.89   21.90
   4  -2  -9   87.79   18.40
  -4   2   9   81.49   18.30
   4   2  -9  114.09   20.30
  -4   2   9   71.59   16.00
   4   2  -9  129.49   21.90
  -4   2   9   84.49   17.90
   4   2  -9  101.59   17.50
   4   2  -9   95.19   17.30
  -3  -2   9   52.29   10.90
   3  -2  -9   64.29   15.80
  -3  -2   9   38.60   11.50
   3  -2  -9   28.60   11.10
  -3  -2   9   72.49   16.90
   3  -2  -9   26.30   11.20
   3  -2  -9   56.59   16.10
  -3  -2   9   56.29   17.20
   3   2  -9   79.89   16.00
  -3   2   9   44.30    9.90
  -3   2   9   49.50   15.40
   3   2  -9   73.99   16.40
  -3   2   9   47.50   12.60
  -3   2   9   52.99   14.10
   3   2  -9   26.60   12.20
  -3   2   9   57.29   13.20
   2  -2  -9  718.43   55.89
  -2  -2   9  878.31   57.89
   2  -2  -9  765.52   54.09
   2  -2  -9  739.53   52.39
   2  -2  -9  685.03   55.99
  -2  -2   9  703.03   56.89
  -2  -2   9  767.52   51.49
  -2  -2   9  802.82   52.89
  -2   2   9  752.82   55.19
  -2   2   9  681.73   50.99
  -2   2   9  807.72   54.29
  -2   2   9  663.63   53.79
  -2   2   9  753.92   56.29
   2   2  -9  752.52   56.59
   2   2  -9  721.03   56.99
   2   2  -9  768.82   54.79
   1  -2  -9  105.29   19.00
  -1  -2   9  194.88   20.60
   1  -2  -9  150.08   22.50
  -1  -2   9  130.29   22.20
  -1  -2   9  159.78   20.80
  -1  -2   9  144.29   20.70
   1  -2  -9  160.58   21.30
  -1  -2   9  152.88   22.40
  -1   2   9  123.89   21.10
   1   2  -9  135.39   21.50
   1   2  -9   96.59   17.40
  -1   2   9  120.29   18.80
  -1   2   9  145.49   22.50
  -1   2   9  132.19   18.40
   1   2  -9  110.39   20.10
   0  -2   9  152.28   22.20
   0  -2   9  135.39   19.70
   0  -2  -9   91.29   18.10
   0  -2   9  124.39   16.80
   0  -2  -9  150.08   21.90
   0  -2   9  126.19   24.10
   0  -2  -9  119.19   21.40
   0  -2   9  116.89   21.10
   0   2   9  102.69   16.80
   0   2  -9  105.59   18.10
   0   2   9  146.89   20.20
   0   2  -9  129.39   21.20
   0   2   9  141.59   20.90
   0   2   9  130.69   22.10
   0   2  -9  131.19   20.30
  -1  -2  -9  116.79   19.20
   1  -2   9   74.29   13.50
   1  -2   9  102.19   20.30
   1  -2   9  106.89   18.60
  -1  -2  -9   82.79   18.10
  -1  -2  -9  107.39   20.00
   1  -2   9   79.39   16.70
   1   2   9   84.39   15.70
  -1   2  -9   65.29   16.40
  -1   2  -9   79.29   17.10
   1   2   9   90.89   19.00
  -1   2  -9   91.99   17.30
  -1   2  -9  113.09   21.60
   1   2   9   89.79   19.10
   2  -2   9   14.30   10.60
  -2  -2  -9    9.80    9.20
   2  -2   9    6.70   11.70
  -2  -2  -9    0.50   10.90
   2  -2   9    1.60    7.00
   2  -2   9   -7.00    7.90
  -2  -2  -9   12.40   11.40
  -2   2  -9   14.90   11.70
  -2   2  -9   12.20   11.50
   2   2   9    5.20    8.60
   2   2   9    3.10    8.40
   2   2   9   11.40    9.90
   2   2   9   18.90   11.80
  -2   2  -9    3.40    7.50
  -2   2  -9    0.10    9.60
   5  -3  -9  116.69   19.50
   5  -3  -9   90.59   17.70
   5  -3  -9   91.79   21.80
  -5  -3   9  109.29   23.90
  -5  -3   9   95.89   16.50
  -5   3   9  114.79   20.90
   5   3  -9  158.88   23.10
  -5   3   9  122.89   20.20
  -5   3   9  125.89   22.40
   5   3  -9   54.89   16.50
   5   3  -9   97.19   20.30
   5   3  -9  125.69   22.50
   4  -3  -9   -4.40    8.30
   4  -3  -9   -0.50    8.90
   4  -3  -9    7.60    8.40
  -4  -3   9   -5.10    8.40
  -4  -3   9   18.50   13.00
  -4  -3   9    7.30    6.00
  -4  -3   9    9.80    8.10
   4  -3  -9    1.10    9.10
  -4   3   9    2.20   10.70
  -4   3   9   15.00   10.50
   4   3  -9    3.80    7.90
  -4   3   9    7.80   11.10
   4   3  -9    2.90    8.80
   4   3  -9   -2.60   10.70
   3  -3  -9   58.39   15.60
   3  -3  -9   35.20   14.30
  -3  -3   9   29.90   12.40
   3  -3  -9   56.69   12.10
  -3  -3   9   45.20   11.00
  -3  -3   9   35.70   10.50
   3  -3  -9   37.70   13.00
  -3  -3   9   40.80   13.30
   3   3  -9   56.59   14.50
   3   3  -9   60.09   15.00
  -3   3   9   46.60   14.60
   3   3  -9   43.80   12.90
  -3   3   9   27.10   13.30
  -3   3   9   50.59   11.80
  -3   3   9   38.60   12.80
  -2  -3   9  185.58   21.10
   2  -3  -9  196.98   25.20
  -2  -3   9  153.08   25.20
  -2  -3   9  222.08   21.80
   2  -3  -9  196.88   27.20
  -2  -3   9  197.88   28.80
  -2  -3   9  181.08   24.10
   2  -3  -9  182.68   25.20
   2  -3  -9  178.38   22.70
  -2   3   9  205.68   23.60
   2   3  -9  166.68   23.30
  -2   3   9  210.48   25.90
  -2   3   9  182.38   21.00
  -2   3   9  165.28   25.60
   2   3  -9  175.98   24.10
  -2   3   9  186.48   25.80
   2   3  -9  173.18   26.00
   1  -3  -9  202.28   24.40
  -1  -3   9  216.18   28.80
   1  -3  -9  280.97   31.60
  -1  -3   9  137.19   24.30
   1  -3  -9  206.18   27.00
  -1  -3   9  173.78   19.90
  -1  -3   9  207.58   24.30
   1   3  -9  141.19   23.00
  -1   3   9  173.38   25.20
  -1   3   9  168.58   19.30
  -1   3   9  189.98   23.70
   1   3  -9  204.48   26.70
  -1   3   9  215.08   24.00
   1   3  -9  198.68   24.80
  -1   3   9  191.78   26.90
   0  -3   9   57.79   13.70
   0  -3  -9   46.50   13.10
   0  -3   9   33.80   14.10
   0  -3   9   35.40   16.20
   0  -3  -9   38.40   12.10
   0  -3  -9   46.00   12.80
   0  -3   9   54.49   11.20
   0   3  -9   27.70   10.50
   0   3   9   20.00   11.10
   0   3  -9   31.70   12.40
   0   3   9   35.40   14.10
   0   3   9   47.30   11.80
   0   3  -9   45.20   11.60
   0   3   9   27.10    9.80
  -1  -3  -9   99.99   18.90
   1  -3   9   76.39   13.50
  -1  -3  -9   58.89   14.70
   1  -3   9   98.49   20.50
   1  -3   9   79.29   18.40
  -1  -3  -9   83.79   17.10
   1   3   9   65.19   16.70
   1   3   9   75.79   14.40
   1   3   9   74.49   18.90
  -1   3  -9  103.89   19.90
  -1   3  -9   71.59   17.80
  -1   3  -9   54.69   14.60
  -1   3  -9   70.39   15.20
  -2  -3  -9  353.16   39.10
  -2  -3  -9  359.86   33.80
  -2   3  -9  367.56   38.00
   2   3   9  380.66   33.70
  -2   3  -9  331.87   36.50
  -2   3  -9  358.06   38.30
   2   3   9  364.96   35.90
   2   3   9  369.46   42.90
   2   3   9  416.06   40.10
  -2   3  -9  374.26   36.40
  -5  -4   9   48.80   13.50
  -5  -4   9   49.70   11.50
   5  -4  -9    8.00   11.60
  -5  -4   9   76.29   20.90
   5  -4  -9   44.40   12.10
   5  -4  -9   59.19   15.10
   5   4  -9   46.90   12.90
  -5   4   9   36.50   15.70
  -5   4   9   57.49   17.10
  -5   4   9   25.00   13.00
   5   4  -9   34.80   14.40
   5   4  -9   66.69   17.50
   5   4  -9   25.70   13.90
   4  -4  -9   13.40    9.40
  -4  -4   9   17.90    8.80
   4  -4  -9   24.70   10.20
  -4  -4   9   31.30   13.00
   4  -4  -9   18.80   12.50
  -4  -4   9   14.80   12.40
  -4  -4   9    7.50    8.20
   4   4  -9    7.70    8.10
  -4   4   9    1.20    6.70
   4   4  -9    5.60    7.70
   4   4  -9    0.30    9.90
  -4   4   9    2.20    9.90
  -4   4   9   10.80   12.00
   3  -4  -9   93.69   19.10
  -3  -4   9   80.89   13.70
   3  -4  -9   87.59   18.10
  -3  -4   9   95.69   18.90
   3  -4  -9  102.69   16.90
  -3  -4   9  110.59   16.70
  -3  -4   9   78.29   18.60
   3  -4  -9  102.49   20.00
  -3   4   9  117.59   21.40
  -3   4   9  135.19   19.20
   3   4  -9   67.39   18.80
  -3   4   9  139.89   20.50
   3   4  -9   92.99   19.00
  -3   4   9  125.99   21.50
   3   4  -9  118.59   19.50
   2  -4  -9   -8.50    7.90
   2  -4  -9   17.90   10.50
  -2  -4   9    1.70    7.00
  -2  -4   9    4.90    6.20
   2  -4  -9    7.30    8.40
  -2  -4   9   15.50   12.50
   2  -4  -9   -7.80    5.90
  -2   4   9   16.10    8.60
  -2   4   9   13.40   10.40
  -2   4   9    2.20    8.20
  -2   4   9    8.80    6.70
   2   4  -9   23.10   10.50
  -2   4   9    5.10    8.70
   2   4  -9   15.60    9.00
   2   4  -9    5.70   11.10
   1  -4  -9   33.60   10.30
  -1  -4   9   43.40   16.10
  -1  -4   9   46.90   14.40
   1  -4  -9   28.30    9.40
  -1  -4   9   38.40    9.40
   1  -4  -9   57.69   14.10
  -1   4   9   35.80   15.10
  -1   4   9    9.80    7.90
   1   4  -9   51.39   14.10
  -1   4   9   41.90   11.80
  -1   4   9   31.90   10.20
  -1   4   9   31.90   11.60
   1   4  -9   30.00   14.00
   1   4  -9   27.00   11.40
   0  -4  -9   -6.20    7.30
   0  -4   9    6.20   11.60
   0  -4  -9    1.20   10.30
   0  -4   9   -1.10    4.70
   0  -4   9   -3.00    6.00
   0  -4  -9   -2.30    7.20
   0   4   9    5.40    8.50
   0   4   9    5.70   11.50
   0   4   9   11.50    7.50
   0   4  -9   -9.80    7.00
   0   4  -9   23.60   14.20
   0   4   9    5.50    8.90
   0   4  -9    8.50    7.40
   1  -4   9  116.89   22.00
   1  -4   9  125.49   23.20
  -1  -4  -9  137.19   22.30
  -1  -4  -9  100.59   17.90
  -1   4  -9  142.99   21.60
   1   4   9   69.19   18.30
   1   4   9  121.99   19.40
  -1   4  -9  102.09   18.00
  -1   4  -9  104.79   19.70
   1   4   9   88.19   19.20
  -1   4  -9  115.39   20.40
   1   4   9   99.69   15.50
   2  -4   9   64.89   16.10
  -2  -4  -9   24.70   13.40
   2  -4   9   28.80   15.90
  -2  -4  -9   51.49   13.50
  -2  -4  -9   52.69   17.60
  -2   4  -9   36.30   12.70
   2   4   9   33.50   11.50
   2   4   9   62.89   19.20
  -2   4  -9   47.50   15.40
  -2   4  -9   43.20   13.70
  -2   4  -9   84.89   18.10
   2   4   9   25.80   15.60
   2   4   9   70.39   13.90
   4  -5  -9   72.79   18.90
   4  -5  -9   85.99   17.00
   4  -5  -9   74.89   14.60
  -4  -5   9   62.29   18.10
  -4  -5   9   93.89   17.10
   4   5  -9   92.69   18.20
  -4   5   9   83.79   18.70
   4   5  -9   96.19   18.90
  -4   5   9   76.49   18.60
  -4   5   9   93.29   16.40
  -4   5   9   66.99   14.80
   4   5  -9   84.89   17.00
   3  -5  -9   46.60   15.50
   3  -5  -9   31.30   11.70
  -3  -5   9   22.60   14.30
   3  -5  -9   22.50   10.40
  -3  -5   9   28.40   11.60
  -3  -5   9   35.10   11.20
   3   5  -9   20.80   10.90
   3   5  -9   11.50   10.40
   3   5  -9   44.50   14.00
  -3   5   9   51.49   16.70
  -3   5   9   25.30   12.40
  -3   5   9   39.60   10.80
  -3   5   9   32.40   12.10
   2  -5  -9   -0.20    7.30
  -2  -5   9   -1.20    6.60
   2  -5  -9    6.10   10.20
   2  -5  -9    0.00    9.10
  -2  -5   9    8.70   11.50
   2   5  -9    2.80    8.20
   2   5  -9    0.30    7.20
  -2   5   9    2.80    8.20
  -2   5   9   17.50   10.40
  -2   5   9   -3.10    7.00
  -2   5   9   14.10    9.30
   2   5  -9    9.10    7.40
  -2   5   9   11.80    9.30
   1  -5  -9  209.08   31.90
  -1  -5   9  158.28   27.10
  -1  -5   9  252.47   32.20
   1  -5  -9  193.08   23.30
   1   5  -9  216.98   25.50
  -1   5   9  214.48   26.70
   1   5  -9  205.58   26.10
   1   5  -9  238.68   29.80
  -1   5   9  237.08   26.60
  -1   5   9  191.18   29.20
  -1   5   9  221.78   24.30
   0  -5   9  136.59   23.90
   0  -5   9  123.29   23.10
   0  -5  -9  163.98   22.60
   0  -5  -9  162.68   24.20
   0   5  -9  147.89   22.70
   0   5   9  125.29   20.90
   0   5  -9  147.39   24.40
   0   5   9  209.98   29.30
   0   5  -9  189.78   24.20
   0   5   9  156.38   21.20
   0   5   9  178.28   23.20
  -1  -5  -9  185.18   26.50
   1  -5   9  181.88   26.70
   1  -5   9   96.49   22.00
  -1  -5  -9  113.39   20.20
   1   5   9  132.09   19.90
  -1   5  -9  189.58   26.80
   1   5   9  129.99   23.80
   1   5   9  151.58   20.90
  -1   5  -9  177.28   23.50
  -1   5  -9  202.78   27.00
  -1   5  -9  167.98   23.90
   1   5   9  152.38   22.60
  -4  -6   9  149.19   28.20
  -4  -6   9  138.59   21.40
   4  -6  -9  129.49   24.50
  -4   6   9  133.09   23.20
  -4   6   9  121.89   20.60
   4   6  -9  139.39   22.50
  -4   6   9  151.48   21.90
   4   6  -9  135.19   24.60
  -3  -6   9   34.80   12.40
   3  -6  -9   30.30   14.90
  -3  -6   9   29.60   10.80
  -3  -6   9   10.50   11.00
  -3   6   9   39.10   13.30
  -3   6   9   51.69   14.10
   3   6  -9   25.40   12.40
  -3   6   9   40.50   16.40
  -3   6   9   25.30   12.80
   3   6  -9   40.70   16.60
   3   6  -9   42.10   13.80
   2  -6  -9   30.30   13.60
  -2  -6   9   -1.90    8.20
  -2  -6   9    6.40    9.00
  -2  -6   9   27.40   12.10
   2  -6  -9    1.10    7.70
  -2   6   9    1.50    6.30
   2   6  -9   19.90   10.60
   2   6  -9   23.00   11.40
  -2   6   9   29.40   11.70
  -2   6   9   16.70   11.50
  -2   6   9   32.40   15.60
   2   6  -9   26.30   14.00
  -1  -6   9   -0.20    6.10
  -1  -6   9    4.30   11.50
   1  -6  -9   20.00   11.50
   1  -6  -9   -1.50    7.20
   1   6  -9    5.80    5.80
  -1   6   9    7.70    9.90
   1   6  -9   -3.70    9.90
   1   6  -9   25.70    9.10
  -1   6   9   10.90   10.70
  -1   6   9    7.90   13.40
  -1   6   9    1.30    7.40
   0  -6   9  402.46   42.50
   0  -6   9  573.14   47.70
   0  -6  -9  414.66   36.30
   0   6   9  428.36   37.50
   0   6   9  456.75   44.60
   0   6   9  469.25   39.40
   0   6  -9  463.85   43.20
   0   6   9  396.66   38.90
   0   6  -9  468.75   39.00
   0   6  -9  561.34   40.90
   1  -6   9    3.50   13.80
  -1  -6  -9   30.70   11.00
   1  -6   9   10.20   10.40
  -1   6  -9   13.40   10.20
   1   6   9   17.70   10.20
   1   6   9   24.40   10.50
  -1   6  -9    9.70   10.70
   1   6   9  -11.30    5.80
  -1   6  -9   20.40   10.80
   1   6   9    1.80    7.40
  -1   6  -9    8.80    9.70
  -3   7   9   30.10   12.80
   3   7  -9   43.50   14.20
   2  -7  -9    5.70   11.50
  -2  -7   9  -10.60    9.40
  -2  -7   9   24.50   11.50
  -2  -7   9   16.30   13.40
   2   7  -9   -5.00    4.70
  -2   7   9    5.50   10.50
  -2   7   9  -10.90   11.00
   2   7  -9    8.40    9.90
  -2   7   9    1.70    9.50
  -2   7   9   -3.50    8.30
   2   7  -9    7.50   12.20
  -1  -7   9   60.39   18.70
  -1  -7   9   81.99   20.00
   1   7  -9   65.29   14.80
  -1   7   9   47.40   15.10
   1   7  -9   72.39   17.90
   1   7  -9   44.30   13.30
  -1   7   9   78.89   17.10
  -1   7   9   44.50   17.30
  -1   7   9   65.49   15.90
   0  -7   9   34.60   14.50
   0  -7   9   53.19   15.80
   0   7   9   79.09   16.40
   0   7  -9   71.09   15.40
   0   7   9   56.59   14.00
   0   7   9   76.69   16.30
   0   7   9   46.50   15.70
   0   7  -9   45.20   13.40
   0   7  -9   57.29   16.20
  -4   0  10   18.80   10.90
   4   0 -10    5.20   12.60
  -4   0  10   -5.20    7.20
   4   0 -10    1.00    7.70
   4   0 -10    3.20    8.00
  -4   0  10   -5.70    8.90
  -3   0  10    8.50   11.10
  -3   0  10   17.60    8.30
  -3   0  10   10.20   12.60
   3   0 -10    3.70    8.00
   3   0 -10   -2.90    9.60
  -3   0  10   18.90    9.50
   3   0 -10    2.50   10.10
   2   0 -10  617.04   47.80
   2   0 -10  546.45   50.39
  -2   0  10  701.23   51.59
  -2   0  10  605.54   51.49
  -2   0  10  578.24   45.10
   2   0 -10  658.43   52.39
   1   0 -10    5.50    6.60
   1   0 -10   27.00   14.10
   1   0 -10    3.30   10.80
  -1   0  10   17.50   11.00
  -1   0  10   14.60   11.60
  -1   0  10    3.10    9.20
  -1   0  10   10.20   10.30
   0   0  10    7.00   10.00
   0   0  10   -6.10    5.30
   0   0  10   18.30    9.30
   0   0 -10   10.20    9.60
   0   0  10   13.30   12.00
   0   0 -10   -5.50    9.80
   0   0 -10    6.40    8.20
   0   0  10   -3.60    8.20
   1   0  10   54.59   14.60
   1   0  10   58.19   17.40
   1   0  10   66.79   18.60
  -1   0 -10   47.00   14.90
   1   0  10   34.60   11.70
  -1   0 -10   63.89   15.80
  -1   0 -10   72.09   19.30
   4  -1 -10   59.99   17.50
  -4  -1  10  115.89   24.30
   4  -1 -10   75.49   17.70
   4  -1 -10  103.49   19.40
  -4  -1  10  130.69   19.20
   4   1 -10   81.29   19.50
  -4   1  10   73.99   19.40
  -4   1  10  109.09   19.80
   4   1 -10  156.18   25.80
  -4   1  10   74.29   20.50
   4   1 -10   77.59   16.10
   3  -1 -10  295.87   34.40
   3  -1 -10  237.18   29.10
  -3  -1  10  237.98   29.70
  -3  -1  10  253.17   27.10
   3  -1 -10  235.78   31.60
  -3  -1  10  242.38   31.90
  -3   1  10  362.06   38.20
  -3   1  10  212.38   29.70
   3   1 -10  264.27   33.00
   3   1 -10  267.27   30.10
   3   1 -10  296.57   35.00
  -3   1  10  178.08   25.10
  -2  -1  10  105.29   16.90
  -2  -1  10  158.48   26.10
   2  -1 -10   61.69   14.90
  -2  -1  10   97.59   20.20
  -2  -1  10  108.49   18.70
   2  -1 -10  190.58   27.00
   2  -1 -10  152.68   23.80
  -2   1  10   68.79   16.20
  -2   1  10  102.89   20.70
   2   1 -10   69.39   17.10
   2   1 -10  116.19   20.10
  -2   1  10  110.29   19.50
  -2   1  10  116.59   18.00
   2   1 -10  132.89   24.20
   1  -1 -10  290.57   34.80
   1  -1 -10  293.37   35.10
  -1  -1  10  326.87   28.90
   1  -1 -10  264.27   31.30
  -1  -1  10  302.47   35.00
  -1  -1  10  322.97   32.30
   1   1 -10  301.77   34.90
  -1   1  10  287.57   35.10
  -1   1  10  265.47   29.60
   1   1 -10  310.77   36.70
  -1   1  10  287.37   32.80
   1   1 -10  333.07   34.40
  -1   1  10  313.37   34.40
   0  -1  10  113.09   24.50
   0  -1  10  140.89   23.30
   0  -1 -10  175.08   26.10
   0  -1 -10  118.59   21.00
   0  -1  10  132.49   24.60
   0  -1  10  148.79   23.70
   0  -1  10  144.59   19.20
   0  -1 -10  150.18   24.90
   0   1  10  172.68   25.00
   0   1  10  148.19   20.50
   0   1 -10  143.29   22.50
   0   1  10  151.88   22.50
   0   1 -10  138.79   20.60
   0   1 -10  113.29   22.20
   0   1 -10  127.59   23.30
   1  -1  10   50.69   12.60
  -1  -1 -10   31.60   16.30
   1  -1  10   40.20   15.00
  -1  -1 -10   58.89   17.90
   1  -1  10   45.10   14.20
   1  -1  10   38.10   13.80
  -1  -1 -10   61.49   16.10
  -1   1 -10   60.69   16.40
   1   1  10   38.30   12.40
  -1   1 -10   69.49   17.30
   1   1  10   60.69   13.20
   1   1  10   45.10   13.70
   1   1  10   41.20   18.10
  -1   1 -10   52.99   15.10
   4  -2 -10   98.89   20.50
  -4  -2  10   58.79   14.80
  -4  -2  10   49.30   16.40
   4  -2 -10   50.29   12.80
   4  -2 -10   75.69   19.90
   4   2 -10   64.49   15.40
  -4   2  10   77.29   18.30
  -4   2  10   65.69   14.40
   4   2 -10   82.19   18.30
   4   2 -10   64.59   17.90
  -4   2  10   34.10   13.20
  -4   2  10   66.99   19.90
  -3  -2  10   12.00   14.00
   3  -2 -10  -11.20    8.90
  -3  -2  10   -3.90    7.00
  -3  -2  10   -4.90    8.20
   3  -2 -10    3.00    8.50
   3  -2 -10   18.80   11.90
  -3   2  10   -2.60    7.30
   3   2 -10    6.70    8.80
   3   2 -10   -3.90    5.60
  -3   2  10   -5.20    8.60
  -3   2  10   -8.80    6.80
   3   2 -10   18.60   13.70
  -3   2  10    1.20    9.60
  -2  -2  10  389.76   38.80
   2  -2 -10  357.96   37.50
   2  -2 -10  333.87   37.90
   2  -2 -10  369.86   36.00
  -2  -2  10  305.97   29.20
  -2   2  10  316.67   35.80
  -2   2  10  309.27   32.00
  -2   2  10  340.27   30.70
   2   2 -10  278.87   32.00
  -2   2  10  306.37   35.20
   2   2 -10  278.87   36.80
   2   2 -10  335.37   36.60
  -1  -2  10   37.20   14.20
  -1  -2  10   34.50   12.80
  -1  -2  10   33.40   10.60
   1  -2 -10   49.50   15.70
   1  -2 -10   21.40   13.90
  -1  -2  10   35.80   14.40
   1  -2 -10   64.09   15.90
  -1   2  10   43.40   15.80
   1   2 -10   42.50   13.60
   1   2 -10   44.20   14.60
  -1   2  10    2.10    9.00
  -1   2  10   51.29   13.70
   1   2 -10   60.39   16.50
  -1   2  10   27.40   14.70
   0  -2  10  -13.70    4.80
   0  -2 -10    4.60    8.30
   0  -2  10    2.20    7.20
   0  -2 -10   12.50   11.50
   0  -2 -10    5.80    8.30
   0  -2  10    2.80    9.70
   0  -2  10   -2.50   10.30
   0   2  10    1.30   10.30
   0   2  10   -2.40   10.10
   0   2 -10   -0.60   10.20
   0   2 -10   -3.00    8.80
   0   2 -10   -7.50    9.90
   0   2 -10   -8.10    4.60
   0   2  10    3.30    7.90
  -1  -2 -10   18.90   12.40
   1  -2  10   27.10    9.90
   1  -2  10   28.50   11.00
   1  -2  10   11.10   13.50
  -1  -2 -10   17.50   10.30
  -1  -2 -10    3.20    7.20
   1  -2  10   25.30   10.30
  -1   2 -10   26.90   12.90
  -1   2 -10   33.70   11.40
   1   2  10   15.00   11.40
  -1   2 -10   30.10   14.70
  -1   2 -10   -3.80    8.60
   1   2  10   11.80    9.90
   1   2  10   22.90   14.80
  -3  -3  10   73.39   13.90
  -3  -3  10   69.89   16.90
   3  -3 -10   59.19   17.00
   3  -3 -10   34.10   15.60
  -3  -3  10   69.29   16.40
   3  -3 -10   48.50   14.40
  -3   3  10   32.60   13.10
  -3   3  10   64.09   18.30
   3   3 -10    3.40   12.40
   3   3 -10   31.60   11.40
   3   3 -10   26.10   12.80
  -3   3  10   42.90   13.70
  -3   3  10   50.49   14.60
  -2  -3  10   65.69   19.00
  -2  -3  10   52.89   15.90
  -2  -3  10   50.19   11.10
   2  -3 -10   42.90   16.60
   2  -3 -10   35.70   12.20
   2  -3 -10   26.10   12.70
   2   3 -10   23.70   13.90
  -2   3  10   44.20   13.20
   2   3 -10   27.40   12.00
  -2   3  10   17.20    8.60
  -2   3  10   10.10    9.70
   2   3 -10   46.80   15.90
  -2   3  10    0.80   10.00
   1  -3 -10   52.69   17.00
   1  -3 -10   51.19   15.60
  -1  -3  10   45.70   18.00
  -1  -3  10   52.19   11.80
  -1  -3  10   91.49   17.30
   1  -3 -10  115.89   18.70
  -1  -3  10   65.69   17.70
   1   3 -10   55.59   15.70
  -1   3  10   61.09   15.80
   1   3 -10   60.79   16.00
  -1   3  10   45.70   13.40
   1   3 -10   69.19   14.90
  -1   3  10   39.20   13.40
   0  -3  10   97.99   20.00
   0  -3 -10   62.59   18.10
   0  -3 -10   36.00   12.60
   0  -3  10   18.70   11.00
   0  -3  10   65.29   12.00
   0  -3  10   86.29   21.50
   0  -3 -10   40.50   14.60
   0   3  10   47.50   16.30
   0   3  10   57.39   13.40
   0   3 -10   56.09   15.90
   0   3 -10   49.90   16.50
   0   3 -10   46.50   14.40
   0   3 -10   45.80   14.20
   0   3  10   56.59   17.80
   3  -4 -10   36.60   15.80
  -3  -4  10   84.49   20.90
  -3  -4  10   45.10   10.60
   3  -4 -10   26.90   10.70
  -3  -4  10   37.20   14.90
   3   4 -10   43.60   13.10
  -3   4  10   38.60   13.40
  -3   4  10   53.89   15.00
   3   4 -10   45.90   14.00
   3   4 -10   49.90   16.10
  -3   4  10   47.90   16.30
  -3   4  10   38.00   12.60
  -2  -4  10   55.99   18.00
   2  -4 -10   37.50   10.80
  -2  -4  10   39.60   12.80
   2  -4 -10   67.79   17.20
   2  -4 -10   20.30   14.20
  -2   4  10   50.39   16.70
   2   4 -10   22.50   10.90
  -2   4  10   40.20   12.80
  -2   4  10   17.40    9.00
   2   4 -10   51.59   16.00
   2   4 -10   64.99   15.90
  -1  -4  10   96.49   22.10
   1  -4 -10   61.29   14.10
  -1  -4  10   35.30   14.30
   1  -4 -10   91.39   20.90
   1  -4 -10   83.39   19.40
   1   4 -10   43.60   16.70
  -1   4  10  100.19   22.50
  -1   4  10   88.49   20.50
  -1   4  10   85.99   16.60
   1   4 -10   69.29   18.20
   1   4 -10   92.19   17.90
   0  -4 -10    9.40    8.90
   0  -4 -10    9.50    8.20
   0  -4  10   20.10   11.50
   0  -4  10   13.50   15.80
   0   4 -10    7.20   12.80
   0   4 -10   15.00   11.00
   0   4  10   23.30   10.60
   0   4 -10   20.90   12.20
   0   4 -10   29.80   12.90
   0   4  10   15.60   15.60
   0   4  10    5.60   11.20
   2  -5 -10   25.20    9.70
   2   5 -10   45.50   14.50
  -2   5  10   21.80    9.60
   1  -5 -10   -3.60    6.70
   1   5 -10   -7.40    8.90
  -1   5  10   -2.60    6.20
   0   0   0    0.00    0.00

_computing_structure_solution     'SHELXT 2014/5 (Sheldrick, 2014)'
;
_shelx_hkl_checksum              94334
_olex2_submission_special_instructions 'No special instructions were received'
loop_
_space_group_symop_operation_xyz
'x, y, z'
'-x, y+1/2, -z'
loop_
_atom_site_label
_atom_site_type_symbol
_atom_site_fract_x
_atom_site_fract_y
_atom_site_fract_z
_atom_site_U_iso_or_equiv
_atom_site_adp_type
_atom_site_occupancy
_atom_site_site_symmetry_order
_atom_site_calc_flag
_atom_site_refinement_flags_posn
_atom_site_refinement_flags_adp
_atom_site_refinement_flags_occupancy
_atom_site_disorder_assembly
_atom_site_disorder_group
Cl1 Cl 0.85688(9) 0.67632(5) 0.22738(7) 0.02574(16) Uani 1 1 d . . . . .
O1 O 1.0544(2) 0.53956(16) 0.5531(2) 0.0222(4) Uani 1 1 d . . . . .
O2 O 0.7884(3) 0.66656(18) 0.70189(19) 0.0231(4) Uani 1 1 d D . . . .
H2 H 0.886(5) 0.711(3) 0.669(4) 0.050(11) Uiso 1 1 d D . . . .
N1 N 0.9609(3) 0.37687(19) 0.3151(2) 0.0184(4) Uani 1 1 d D . . . .
H1A H 1.066(5) 0.431(3) 0.340(4) 0.053(11) Uiso 1 1 d D . . . .
H1B H 0.928(6) 0.385(4) 0.206(3) 0.073(13) Uiso 1 1 d D . . . .
C1 C 0.6375(4) 0.5861(2) 0.1714(3) 0.0161(5) Uani 1 1 d . . . . .
C2 C 0.4878(4) 0.6284(2) 0.0455(3) 0.0200(5) Uani 1 1 d . . . . .
H2A H 0.505092 0.704502 -0.002009 0.024 Uiso 1 1 calc R . . . .
C3 C 0.3140(4) 0.5586(2) -0.0099(3) 0.0214(5) Uani 1 1 d . . . . .
H3 H 0.210285 0.586501 -0.095137 0.026 Uiso 1 1 calc R . . . .
C4 C 0.2933(4) 0.4475(2) 0.0606(3) 0.0194(5) Uani 1 1 d . . . . .
H4 H 0.176304 0.398055 0.021520 0.023 Uiso 1 1 calc R . . . .
C5 C 0.4418(3) 0.4076(2) 0.1876(3) 0.0160(5) Uani 1 1 d . . . . .
H5 H 0.422923 0.331574 0.234875 0.019 Uiso 1 1 calc R . . . .
C6 C 0.6181(3) 0.4760(2) 0.2481(3) 0.0142(5) Uani 1 1 d . . . . .
C7 C 0.7870(3) 0.4255(2) 0.3815(3) 0.0142(5) Uani 1 1 d . . . . .
C8 C 0.8712(4) 0.5199(2) 0.5109(3) 0.0150(5) Uani 1 1 d . . . . .
C9 C 0.7091(4) 0.5743(2) 0.5937(3) 0.0160(5) Uani 1 1 d . . . . .
H9 H 0.595242 0.608985 0.511666 0.019 Uiso 1 1 calc R . . . .
C10 C 0.6184(3) 0.4723(2) 0.6830(3) 0.0159(5) Uani 1 1 d . . . . .
H10 H 0.496716 0.506246 0.722006 0.019 Uiso 1 1 calc R . . . .
C11 C 0.5412(3) 0.3688(2) 0.5682(3) 0.0171(5) Uani 1 1 d . . . . .
H11A H 0.418048 0.396768 0.491328 0.021 Uiso 1 1 calc R . . . .
H11B H 0.497644 0.300284 0.628561 0.021 Uiso 1 1 calc R . . . .
C12 C 0.7047(3) 0.3236(2) 0.4771(3) 0.0159(5) Uani 1 1 d . . . . .
H12A H 0.643789 0.258459 0.403355 0.019 Uiso 1 1 calc R . . . .
H12B H 0.822287 0.288416 0.553142 0.019 Uiso 1 1 calc R . . . .
C13 C 0.7769(4) 0.4296(2) 0.8269(3) 0.0201(5) Uani 1 1 d . . . . .
H13A H 0.898712 0.396822 0.791670 0.030 Uiso 1 1 calc GR . . . .
H13B H 0.715015 0.366311 0.882796 0.030 Uiso 1 1 calc GR . . . .
H13C H 0.818527 0.498223 0.898429 0.030 Uiso 1 1 calc GR . . . .
loop_
_atom_site_aniso_label
_atom_site_aniso_U_11
_atom_site_aniso_U_22
_atom_site_aniso_U_33
_atom_site_aniso_U_23
_atom_site_aniso_U_13
_atom_site_aniso_U_12
Cl1 0.0257(3) 0.0206(3) 0.0285(3) 0.0058(3) -0.0006(2) -0.0096(3)
O1 0.0164(8) 0.0244(10) 0.0243(10) -0.0024(7) 0.0000(7) -0.0045(7)
O2 0.0340(9) 0.0151(9) 0.0223(8) -0.0053(8) 0.0108(7) -0.0066(9)
N1 0.0149(10) 0.0202(11) 0.0209(10) -0.0030(9) 0.0054(8) 0.0031(8)
C1 0.0157(11) 0.0170(13) 0.0160(11) -0.0025(9) 0.0039(9) -0.0020(9)
C2 0.0256(13) 0.0171(13) 0.0182(11) 0.0032(10) 0.0065(10) 0.0034(10)
C3 0.0184(11) 0.0305(15) 0.0145(11) 0.0021(10) 0.0016(9) 0.0068(11)
C4 0.0154(11) 0.0263(14) 0.0162(11) -0.0046(10) 0.0023(9) -0.0018(10)
C5 0.0176(11) 0.0179(12) 0.0133(10) -0.0027(10) 0.0047(9) -0.0011(10)
C6 0.0146(11) 0.0158(12) 0.0128(10) -0.0022(9) 0.0045(8) 0.0020(9)
C7 0.0136(10) 0.0129(12) 0.0159(11) -0.0009(9) 0.0028(8) 0.0009(9)
C8 0.0173(11) 0.0118(11) 0.0154(11) 0.0030(9) 0.0022(8) -0.0016(9)
C9 0.0191(11) 0.0131(12) 0.0152(11) -0.0022(9) 0.0015(9) 0.0017(9)
C10 0.0140(11) 0.0190(12) 0.0153(11) 0.0000(10) 0.0043(9) 0.0003(9)
C11 0.0167(11) 0.0189(12) 0.0155(11) 0.0000(9) 0.0026(9) -0.0035(10)
C12 0.0166(11) 0.0141(12) 0.0162(11) 0.0015(9) 0.0012(9) -0.0009(9)
C13 0.0227(12) 0.0205(13) 0.0161(11) 0.0021(10) 0.0017(9) -0.0022(10)
loop_
_atom_type_symbol
_atom_type_description
_atom_type_scat_dispersion_real
_atom_type_scat_dispersion_imag
_atom_type_scat_source
C C 0.0033 0.0016 'International Tables Vol C Tables 4.2.6.8 and 6.1.1.4'
H H 0.0000 0.0000 'International Tables Vol C Tables 4.2.6.8 and 6.1.1.4'
Cl Cl 0.1484 0.1585 'International Tables Vol C Tables 4.2.6.8 and 6.1.1.4'
N N 0.0061 0.0033 'International Tables Vol C Tables 4.2.6.8 and 6.1.1.4'
O O 0.0106 0.0060 'International Tables Vol C Tables 4.2.6.8 and 6.1.1.4'
loop_
_geom_angle_atom_site_label_1
_geom_angle_atom_site_label_2
_geom_angle_atom_site_label_3
_geom_angle
_geom_angle_site_symmetry_1
_geom_angle_site_symmetry_3
_geom_angle_publ_flag
C9 O2 H2 112(2) . . ?
H1A N1 H1B 102(3) . . ?
C7 N1 H1A 107(2) . . ?
C7 N1 H1B 108(2) . . ?
C2 C1 Cl1 116.48(18) . . ?
C2 C1 C6 122.7(2) . . ?
C6 C1 Cl1 120.79(17) . . ?
C1 C2 H2A 120.2 . . ?
C3 C2 C1 119.6(2) . . ?
C3 C2 H2A 120.2 . . ?
C2 C3 H3 120.5 . . ?
C2 C3 C4 119.1(2) . . ?
C4 C3 H3 120.5 . . ?
C3 C4 H4 119.6 . . ?
C3 C4 C5 120.7(2) . . ?
C5 C4 H4 119.6 . . ?
C4 C5 H5 119.1 . . ?
C4 C5 C6 121.9(2) . . ?
C6 C5 H5 119.1 . . ?
C1 C6 C7 123.2(2) . . ?
C5 C6 C1 116.0(2) . . ?
C5 C6 C7 120.6(2) . . ?
N1 C7 C6 110.19(17) . . ?
N1 C7 C8 109.09(18) . . ?
N1 C7 C12 108.65(19) . . ?
C6 C7 C8 113.55(19) . . ?
C6 C7 C12 112.42(18) . . ?
C8 C7 C12 102.61(18) . . ?
O1 C8 C7 122.3(2) . . ?
O1 C8 C9 122.7(2) . . ?
C9 C8 C7 114.70(19) . . ?
O2 C9 C8 113.07(19) . . ?
O2 C9 H9 108.6 . . ?
O2 C9 C10 109.01(18) . . ?
C8 C9 H9 108.6 . . ?
C8 C9 C10 108.75(19) . . ?
C10 C9 H9 108.6 . . ?
C9 C10 H10 107.9 . . ?
C11 C10 C9 109.49(18) . . ?
C11 C10 H10 107.9 . . ?
C13 C10 C9 110.96(18) . . ?
C13 C10 H10 107.9 . . ?
C13 C10 C11 112.4(2) . . ?
C10 C11 H11A 108.9 . . ?
C10 C11 H11B 108.9 . . ?
C10 C11 C12 113.19(18) . . ?
H11A C11 H11B 107.8 . . ?
C12 C11 H11A 108.9 . . ?
C12 C11 H11B 108.9 . . ?
C7 C12 H12A 109.0 . . ?
C7 C12 H12B 109.0 . . ?
C11 C12 C7 112.90(19) . . ?
C11 C12 H12A 109.0 . . ?
C11 C12 H12B 109.0 . . ?
H12A C12 H12B 107.8 . . ?
C10 C13 H13A 109.5 . . ?
C10 C13 H13B 109.5 . . ?
C10 C13 H13C 109.5 . . ?
H13A C13 H13B 109.5 . . ?
H13A C13 H13C 109.5 . . ?
H13B C13 H13C 109.5 . . ?
loop_
_geom_bond_atom_site_label_1
_geom_bond_atom_site_label_2
_geom_bond_distance
_geom_bond_site_symmetry_2
_geom_bond_publ_flag
Cl1 C1 1.742(2) . ?
O1 C8 1.209(3) . ?
O2 H2 0.90(2) . ?
O2 C9 1.409(3) . ?
N1 H1A 0.91(2) . ?
N1 H1B 0.93(2) . ?
N1 C7 1.477(3) . ?
C1 C2 1.395(3) . ?
C1 C6 1.399(3) . ?
C2 H2A 0.9500 . ?
C2 C3 1.384(3) . ?
C3 H3 0.9500 . ?
C3 C4 1.385(4) . ?
C4 H4 0.9500 . ?
C4 C5 1.388(3) . ?
C5 H5 0.9500 . ?
C5 C6 1.397(3) . ?
C6 C7 1.538(3) . ?
C7 C8 1.545(3) . ?
C7 C12 1.551(3) . ?
C8 C9 1.517(3) . ?
C9 H9 1.0000 . ?
C9 C10 1.545(3) . ?
C10 H10 1.0000 . ?
C10 C11 1.530(3) . ?
C10 C13 1.529(3) . ?
C11 H11A 0.9900 . ?
C11 H11B 0.9900 . ?
C11 C12 1.534(3) . ?
C12 H12A 0.9900 . ?
C12 H12B 0.9900 . ?
C13 H13A 0.9800 . ?
C13 H13B 0.9800 . ?
C13 H13C 0.9800 . ?
loop_
_geom_hbond_atom_site_label_D
_geom_hbond_atom_site_label_H
_geom_hbond_atom_site_label_A
_geom_hbond_distance_DH
_geom_hbond_distance_HA
_geom_hbond_distance_DA
_geom_hbond_angle_DHA
_geom_hbond_site_symmetry_A
_geom_hbond_publ_flag
O2 H2 N1 0.90(2) 2.08(3) 2.866(3) 146(3) 2_756 yes
