#------------------------------------------------------------------------------
#$Date: 2022-03-03 23:15:56 +0200 (Thu, 03 Mar 2022) $
#$Revision: 273269 $
#$URL: file:///home/coder/svn-repositories/cod/cif/4/51/93/4519362.cif $
#------------------------------------------------------------------------------
#
# This file is available in the Crystallography Open Database (COD),
# http://www.crystallography.net/
#
# All data on this site have been placed in the public domain by the
# contributors.
#
data_4519362
loop_
_publ_author_name
'D'souza, Luann R.'
'Harmalkar, Nikita N.'
'Harmalkar, Sarvesh S.'
'Tayade, Sakharam B.'
'Dhuri, Sunder N.'
_publ_section_title
;
 Construction of Pyrazine-Appended 1D and 3D Cobalt(II) Succinate
 Coordination Polymers: Influence of Solvent on Architectures and
 Applications in Gas Adsorption and NAC Detection.
;
_journal_issue                   7
_journal_name_full               'ACS omega'
_journal_page_first              5698
_journal_page_last               5712
_journal_paper_doi               10.1021/acsomega.1c05216
_journal_volume                  7
_journal_year                    2022
_chemical_formula_sum            'C8 H16 Co N2 O8'
_chemical_formula_weight         327.16
_space_group_crystal_system      orthorhombic
_space_group_IT_number           58
_space_group_name_Hall           '-P 2 2n'
_space_group_name_H-M_alt        'P n n m'
_atom_sites_solution_hydrogens   mixed
_audit_creation_method           SHELXL-2018/3
_cell_angle_alpha                90
_cell_angle_beta                 90
_cell_angle_gamma                90
_cell_formula_units_Z            2
_cell_length_a                   10.316(4)
_cell_length_b                   7.114(3)
_cell_length_c                   9.458(4)
_cell_measurement_reflns_used    5057
_cell_measurement_temperature    296(2)
_cell_measurement_theta_max      28.21
_cell_measurement_theta_min      2.92
_cell_volume                     694.1(5)
_computing_structure_refinement  'SHELXL-2018/3 (Sheldrick, 2018)'
_computing_structure_solution    'SHELXT 2014/5 (Sheldrick, 2014)'
_diffrn_ambient_temperature      296(2)
_diffrn_measured_fraction_theta_full 1.000
_diffrn_measured_fraction_theta_max 1.000
_diffrn_measurement_device_type  'Bruker D8 Quest Eco'
_diffrn_measurement_method       '\f and \w scans'
_diffrn_radiation_type           MoK\a
_diffrn_radiation_wavelength     0.71076
_diffrn_reflns_av_R_equivalents  0.0326
_diffrn_reflns_av_unetI/netI     0.0181
_diffrn_reflns_Laue_measured_fraction_full 1.000
_diffrn_reflns_Laue_measured_fraction_max 1.000
_diffrn_reflns_limit_h_max       13
_diffrn_reflns_limit_h_min       -13
_diffrn_reflns_limit_k_max       9
_diffrn_reflns_limit_k_min       -9
_diffrn_reflns_limit_l_max       12
_diffrn_reflns_limit_l_min       -12
_diffrn_reflns_number            8915
_diffrn_reflns_point_group_measured_fraction_full 1.000
_diffrn_reflns_point_group_measured_fraction_max 1.000
_diffrn_reflns_theta_full        25.243
_diffrn_reflns_theta_max         28.319
_diffrn_reflns_theta_min         2.922
_exptl_absorpt_coefficient_mu    1.271
_exptl_absorpt_correction_type   multi-scan
_exptl_absorpt_process_details   SADABS
_exptl_crystal_colour            orange
_exptl_crystal_density_diffrn    1.565
_exptl_crystal_description       needle
_exptl_crystal_F_000             338
_exptl_crystal_size_max          0.4
_exptl_crystal_size_mid          0.3
_exptl_crystal_size_min          0.1
_exptl_transmission_factor_max   0.7457
_exptl_transmission_factor_min   0.6457
_refine_diff_density_max         0.573
_refine_diff_density_min         -0.451
_refine_diff_density_rms         0.073
_refine_ls_extinction_method     none
_refine_ls_goodness_of_fit_ref   1.196
_refine_ls_hydrogen_treatment    mixed
_refine_ls_matrix_type           full
_refine_ls_number_parameters     56
_refine_ls_number_reflns         924
_refine_ls_number_restraints     0
_refine_ls_restrained_S_all      1.196
_refine_ls_R_factor_all          0.0422
_refine_ls_R_factor_gt           0.0357
_refine_ls_shift/su_max          0.000
_refine_ls_shift/su_mean         0.000
_refine_ls_structure_factor_coef Fsqd
_refine_ls_weighting_details
'w=1/[\s^2^(Fo^2^)+(0.0273P)^2^+0.7915P] where P=(Fo^2^+2Fc^2^)/3'
_refine_ls_weighting_scheme      calc
_refine_ls_wR_factor_gt          0.0793
_refine_ls_wR_factor_ref         0.0830
_reflns_Friedel_coverage         0.000
_reflns_number_gt                798
_reflns_number_total             924
_reflns_threshold_expression     'I > 2\s(I)'
_cod_data_source_file            ao1c05216_si_004.cif
_cod_data_source_block           03
_cod_database_code               4519362
_shelx_shelxl_version_number     2018/3
_shelx_space_group_comment
;
The symmetry employed for this shelxl refinement is uniquely defined
by the following loop, which should always be used as a source of
symmetry information in preference to the above space-group names.
They are only intended as comments.
;
_shelx_res_file
;
TITL CoDMSO4_0m_a.res in Pnnm
    shelx.res
    created by SHELXL-2018/3 at 19:10:44 on 11-Sep-2019
CELL  0.71076  10.3155   7.1139   9.4579   90.000   90.000   90.000
ZERR     8.00   0.0039   0.0026   0.0038    0.000    0.000    0.000
LATT   1
SYMM  - X, - Y,   Z
SYMM  1/2 - X, 1/2 + Y, 1/2 - Z
SYMM  1/2 + X, 1/2 - Y, 1/2 - Z
SFAC  C    H    CO   N    O
UNIT  16 32 2 4 16
MERG   2
FMAP   2
PLAN   20
ACTA
BOND   $H
LIST   6
L.S.  10
TEMP    23.00
WGHT    0.027300    0.791500
FVAR       0.95577
CO1   3    0.500000    0.500000    0.500000    10.25000    0.02058    0.00968 =
         0.01669    0.00000    0.00000   -0.00332
N1    4    0.500185    0.195577    0.500000    10.50000    0.02634    0.01266 =
         0.02429    0.00000    0.00000   -0.00257
C1    1    0.500283    0.097399    0.379918    11.00000    0.04143    0.01512 =
         0.02066    0.00273    0.00002   -0.00014
AFIX  43
H1    2    0.500741    0.161184    0.294088    11.00000   -1.20000
AFIX   0
O1    5    0.643009    0.509669    0.651756    11.00000    0.03755    0.03172 =
         0.03581    0.01504   -0.01677   -0.01634
AFIX 148
H1A   2    0.694068    0.585522    0.631167    11.00000   -1.50000
AFIX   0
O2    5    0.813430    0.787005    0.617527    11.00000    0.04142    0.03654 =
         0.02472    0.00175   -0.00162   -0.02178
C2    1    0.844527    0.854918    0.500000    10.50000    0.02734    0.03202 =
         0.03017    0.00000    0.00000   -0.01394
C3    1    0.929635    1.030221    0.500000    10.50000    0.03857    0.03060 =
         0.03938    0.00000    0.00000   -0.01500
AFIX  23
H3A   2    0.911554    1.105606    0.416847    10.50000   -1.20000
H3AB  2    0.911554    1.105606    0.583153    10.50000   -1.20000
AFIX   0
H2    2    0.660861    0.441685    0.713231    11.00000    0.05046
HKLF    4




REM  CoDMSO4_0m_a.res in Pnnm
REM wR2 = 0.0830, GooF = S = 1.196, Restrained GooF = 1.196 for all data
REM R1 = 0.0357 for 798 Fo > 4sig(Fo) and 0.0422 for all 924 data
REM 56 parameters refined using 0 restraints

END

WGHT      0.0273      0.7915

REM Highest difference peak  0.573,  deepest hole -0.451,  1-sigma level  0.073
Q1    1   0.9968  1.1160  0.5000  10.50000  0.05    0.57
Q2    1   0.5000  0.0000  0.3864  10.50000  0.05    0.28
Q3    1   0.5028  0.1316  0.4478  11.00000  0.05    0.23
Q4    1   0.7990  0.8322  0.5637  11.00000  0.05    0.23
Q5    1   0.4592  0.0418  0.1488  11.00000  0.05    0.21
Q6    1   0.8585  0.7202  0.5954  11.00000  0.05    0.21
Q7    1   0.5007  0.3006  0.5000  10.50000  0.05    0.20
Q8    1   0.7732  0.7497  0.6647  11.00000  0.05    0.20
Q9    1   0.8768  0.6197  0.5000  10.50000  0.05    0.19
Q10   1   0.8586  0.8234  0.6125  11.00000  0.05    0.19
Q11   1   0.4366  0.1581  0.2990  11.00000  0.05    0.19
Q12   1   0.6635  0.2953  0.6009  11.00000  0.05    0.18
Q13   1   0.6722  0.5894  0.6638  11.00000  0.05    0.18
Q14   1   0.8922  0.8050  0.5000  10.50000  0.05    0.18
Q15   1   0.9619  1.0915  0.3714  11.00000  0.05    0.18
Q16   1   0.8609  0.8159  0.6551  11.00000  0.05    0.17
Q17   1   1.0010  1.3173  0.6055  11.00000  0.05    0.17
Q18   1   0.7081  0.7820  0.7646  11.00000  0.05    0.17
Q19   1   0.7561  0.6392  0.6258  11.00000  0.05    0.17
Q20   1   0.8999  1.1819  0.5000  10.50000  0.05    0.17
;
_shelx_res_checksum              6505
_shelx_hkl_file
;
   0   1   0    0.85    0.77
   0  -1   0    1.81    0.92
   0  -1   0    3.13    0.74
   0  -1   0    2.59    0.81
   0   1   0    3.16    0.88
   0  -2   0 3411.66   72.47
   0   2   0 3263.89   70.55
   0  -2   0 3396.09   68.46
   0   2   0 3374.27   72.20
   0  -2   0 3454.56   70.88
   0   2   0 3423.66   68.24
   0  -3   0   -1.22    1.22
   0   3   0    2.92    1.97
   0  -3   0    1.34    1.60
   0  -3   0    0.52    1.60
   0   3   0   -1.93    1.17
   0   3   0    0.74    2.10
   0   4   0 3334.83   75.69
   0   4   0 3483.01   81.81
   0  -4   0 3533.53   85.83
   0  -4   0 3526.08   77.18
   0  -4   0 3431.97   82.90
   0  -5   0    2.93    3.60
   0   6   0 1115.60   42.84
   0  -6   0 1142.68   47.25
   0  -6   0 1122.77   37.81
   0  -7   0   -1.65    3.71
   0  -7   0   13.55    5.25
   0  -8   0  445.41   32.12
   0   8   0  395.80   27.57
   0  -9   0   -7.12    6.70
   0  -9   0   17.55    6.33
   0   0   1    7.42    1.37
   0   0  -1    4.13    1.01
   0  -1   1   65.88    4.87
   0  -1  -1   72.74    4.88
   0   1  -1   70.37    3.72
   0   1   1   70.17    2.95
   0  -1   1   70.28    3.70
   0   1  -1   66.15    4.94
   0  -1  -1   70.77    4.69
   0  -1   1   68.65    3.68
   0  -1   1   67.68    4.62
   0   1  -1   68.45    4.52
   0   1   1   67.15    4.65
   0   1   1   69.80    4.58
   0   1   1   67.37    2.92
   0  -2  -1    0.41    1.30
   0   2   1    0.68    1.39
   0   2   1    0.08    0.91
   0   2  -1   -0.50    1.06
   0  -2   1   -0.13    0.97
   0  -2   1    1.69    1.01
   0   2  -1    0.13    1.10
   0   2  -1   -1.32    0.79
   0  -2   1   -0.33    0.93
   0  -2  -1    1.90    1.56
   0   2   1    2.76    1.47
   0  -2  -1   -0.31    0.96
   0  -3  -1 9177.70  180.23
   0  -3   1 9126.81  183.81
   0  -3  -1 9381.15  185.15
   0   3   1 9066.27  184.13
   0  -3  -1 9285.13  177.77
   0   3  -1 9146.75  184.63
   0   3   1 9372.15  178.59
   0   3  -1 9256.61  175.63
   0  -3   1 9054.33  175.67
   0   3  -1 9175.05  183.63
   0  -3   1 9603.36  185.43
   0   3   1 9108.52  179.55
   0  -4   1   -1.91    1.88
   0  -4  -1    3.32    2.20
   0   4  -1   -1.38    1.81
   0   4   1   -3.59    2.19
   0   4   1   -1.03    2.04
   0  -4  -1    3.13    2.22
   0   5  -1  650.62   23.68
   0  -5  -1  672.66   27.19
   0  -5   1  681.55   24.70
   0  -5  -1  675.60   32.02
   0  -5   1  644.81   30.94
   0   5   1  683.23   27.70
   0   5  -1  690.16   31.33
   0  -6   1   -3.48    2.27
   0  -6  -1   -0.59    3.47
   0  -6  -1   -1.55    2.50
   0   6  -1    4.71    3.25
   0   6   1    1.01    3.50
   0  -6   1   -4.35    3.07
   0  -7   1 1100.31   50.05
   0  -7   1 1080.68   37.50
   0   7  -1 1104.41   48.08
   0   7   1 1123.12   43.91
   0  -7  -1 1098.53   50.86
   0  -7  -1 1065.69   40.68
   0  -8  -1   -5.76    5.12
   0  -8   1   -4.62    6.07
   0   8   1    6.51    6.03
   0   8  -1   16.60    5.58
   0  -8  -1    4.17    4.81
   0   9  -1  148.25   15.60
   0  -9   1   98.04   21.11
   0  -9  -1   98.04   20.58
   0   9   1  111.92   15.00
   0   0   2 5887.81  123.00
   0   0   2 6582.05  122.62
   0   0  -2 6444.79  122.81
   0   0  -2 5855.28  122.70
   0   0   2 6419.97  119.95
   0   0  -2 6487.06  120.10
   0   1   2   -1.48    0.82
   0  -1  -2    0.06    0.80
   0  -1   2   -0.46    0.84
   0  -1  -2    0.55    0.65
   0  -1   2    0.11    0.83
   0   1  -2    0.72    1.02
   0  -1  -2   -0.42    0.95
   0   1   2    0.52    1.14
   0  -1   2    1.19    1.29
   0   1  -2   -0.91    0.62
   0   1   2   -0.72    0.53
   0   1  -2    1.25    1.40
   0   2   2  351.86   10.40
   0  -2   2  353.15   16.29
   0   2  -2  331.46   14.89
   0  -2  -2  354.51   15.68
   0   2  -2  353.29   16.80
   0   2   2  349.63   15.78
   0  -2   2  365.06   12.87
   0   2   2  345.67   10.34
   0  -2   2  351.13   15.58
   0  -2   2  349.65   12.62
   0   2   2  339.19   15.15
   0  -2  -2  342.15   15.80
   0   3   2    1.17    1.53
   0  -3   2   -1.76    1.22
   0  -3   2    1.79    1.95
   0  -3  -2   -0.34    1.63
   0  -3  -2   -1.05    1.67
   0   3  -2   -2.76    1.75
   0   3   2    0.48    1.10
   0   3  -2    0.61    1.13
   0  -4  -2  714.22   30.63
   0   4  -2  687.63   22.14
   0  -4  -2  677.03   22.39
   0  -4   2  677.21   22.45
   0  -4  -2  699.76   27.63
   0   4   2  705.33   23.57
   0  -4   2  675.52   29.59
   0   4  -2  682.96   30.25
   0  -5  -2    4.49    2.65
   0  -5   2    4.86    3.72
   0   5  -2    3.21    2.86
   0   5   2   -2.56    1.90
   0  -5  -2   -3.48    2.05
   0  -5  -2   -3.38    2.40
   0   5  -2   -4.51    2.48
   0   6  -2  710.24   36.04
   0   6  -2  689.18   25.34
   0  -6  -2  738.54   32.30
   0  -6  -2  745.38   37.89
   0  -6   2  705.42   26.61
   0  -6   2  701.11   36.27
   0   6   2  672.76   28.73
   0  -7  -2   11.12    4.65
   0  -7   2   -5.21    2.97
   0  -7   2   -1.63    4.41
   0   7   2   -4.83    3.44
   0   7  -2   -6.03    3.99
   0  -7  -2    2.64    4.84
   0  -8   2  140.05   18.36
   0   8  -2  152.96   19.05
   0   8   2  115.58   14.76
   0  -8  -2  152.71   16.59
   0  -8  -2  152.86   19.78
   0  -9  -2    0.17    8.07
   0   9   2    5.28    6.74
   0  -9   2   -0.48    7.70
   0   9  -2   15.16    7.15
   0   0   3    2.49    1.73
   0   0  -3    4.04    1.77
   0   0   3   -0.42    1.24
   0   0  -3   10.49    3.19
   0   0   3    2.29    1.67
   0   1   3  112.87    8.60
   0  -1  -3  122.02    6.13
   0  -1  -3  103.56    8.40
   0   1  -3  111.03    8.60
   0  -1  -3  110.44    8.85
   0   1  -3  105.69    8.42
   0  -1   3  114.82    8.60
   0  -1   3  115.64    7.93
   0   1   3  116.72    5.85
   0   1  -3  125.03    8.28
   0  -1   3  110.94    8.83
   0   1   3  107.08    8.58
   0  -2   3    2.20    2.00
   0  -2   3    0.94    1.68
   0   2   3    3.71    1.77
   0  -2   3    0.71    1.39
   0  -2  -3    0.10    1.38
   0  -2   3   -0.40    1.29
   0   2  -3    2.09    1.83
   0  -2  -3   -0.65    1.29
   0   2  -3    0.78    1.91
   0  -3   3    7.78    2.48
   0  -3  -3    6.03    3.14
   0   3  -3    6.81    3.80
   0  -3   3    4.15    2.63
   0  -3  -3    2.70    2.44
   0  -3   3    5.43    2.61
   0   3   3    2.19    1.62
   0  -4  -3    3.03    3.09
   0   4   3    3.36    1.75
   0   4  -3   -2.75    2.07
   0   4   3   -2.60    1.59
   0  -4   3    3.36    3.03
   0  -4  -3   -2.55    2.29
   0  -4   3   -2.35    1.49
   0  -4   3    0.43    1.95
   0  -5   3   16.34    4.23
   0  -5   3   16.56    6.37
   0   5   3   12.99    3.18
   0  -5  -3    6.02    4.24
   0   5   3   12.23    3.54
   0  -5   3    4.59    3.45
   0  -5  -3   15.43    5.72
   0   5  -3    7.75    4.85
   0   6  -3    1.74    5.18
   0   6   3   -3.17    2.82
   0  -6  -3    2.27    4.31
   0  -6  -3   -3.88    2.97
   0  -6   3   -0.92    3.50
   0  -6   3    2.04    4.38
   0  -7  -3   10.62    7.00
   0  -7  -3   23.46    8.15
   0   7   3   19.18    6.18
   0   7  -3   13.43    8.47
   0  -7   3    9.51    7.22
   0  -8  -3    3.19    6.48
   0  -8   3   -4.57    4.63
   0   8   3   -2.55    5.34
   0  -8  -3    0.51    5.80
   0   8  -3   14.26    6.06
   0   9  -3  206.50   25.30
   0  -9   3  227.50   25.46
   0  -9  -3  240.95   27.76
   0   0  -4  261.38   14.89
   0   0  -4  269.50   13.50
   0   0   4  261.83   13.14
   0   0   4  268.86   15.85
   0   0   4  278.02   15.00
   0   0   4  260.89   15.14
   0  -1  -4   -0.67    0.84
   0   1  -4    1.47    1.60
   0   1   4    0.22    1.34
   0   1  -4   -1.37    1.51
   0  -1   4    0.08    2.03
   0  -1  -4    0.31    1.28
   0  -1   4    1.87    1.76
   0  -1   4   -1.08    1.79
   0  -1  -4   -0.66    1.75
   0   1  -4    2.84    1.95
   0   2  -4  715.91   29.05
   0  -2   4  683.98   28.20
   0  -2   4  682.90   24.32
   0  -2  -4  660.11   28.21
   0   2  -4  690.52   24.88
   0  -2  -4  686.06   28.16
   0   3  -4    1.35    2.60
   0  -3   4    1.08    1.58
   0  -3  -4   -1.66    1.99
   0  -3  -4    2.39    3.08
   0  -3   4   -0.37    2.65
   0  -4   4  178.60   15.67
   0   4  -4  167.82   16.15
   0  -4   4  159.93   11.15
   0  -4  -4  182.47   15.97
   0  -4   4  173.08   11.88
   0  -4  -4  174.49   15.19
   0  -5   4   -1.48    2.31
   0   5  -4   -1.06    3.29
   0  -5  -4   -0.08    3.59
   0  -5   4   -3.79    2.77
   0  -5  -4   -0.73    3.04
   0  -6  -4  925.24   41.36
   0  -6   4  917.40   43.97
   0   6   4  922.06   28.31
   0   6   4  866.48   28.23
   0  -6  -4  913.59   44.31
   0  -6   4  909.21   31.57
   0   6  -4  893.92   44.65
   0   7   4    5.62    3.25
   0  -7   4   -5.13    4.56
   0  -7   4   -6.54    3.52
   0  -7  -4    5.02    5.19
   0  -7  -4    1.60    5.31
   0   8   4   55.74    9.65
   0  -8  -4   83.49   15.22
   0  -8  -4   57.49   13.23
   0  -8   4   59.79   14.99
   0   8  -4   92.11   14.04
   0   9  -4    6.52    7.23
   0  -9  -4    3.21    8.09
   0   0   5   -1.23    1.90
   0   0   5    1.06    2.49
   0   0  -5   -1.37    1.59
   0   0  -5   -2.47    1.42
   0   1   5 1309.99   34.73
   0  -1  -5 1275.14   43.62
   0  -1  -5 1306.98   43.74
   0   1  -5 1244.23   40.71
   0  -1  -5 1314.03   35.43
   0   1  -5 1263.29   41.11
   0  -1   5 1328.07   44.30
   0  -2   5    2.24    2.92
   0   2  -5   -0.58    2.28
   0  -2  -5    3.28    2.45
   0   2  -5   -0.68    2.32
   0  -3  -5  656.22   31.19
   0  -3  -5  657.55   31.70
   0  -3   5  645.06   31.07
   0   3  -5  648.81   32.18
   0  -3   5  632.91   26.37
   0   4  -5   -3.29    3.25
   0  -4   5    0.66    3.05
   0  -4  -5    0.86    3.11
   0  -4  -5   -0.49    2.71
   0   5  -5  193.86   20.24
   0  -5   5  199.59   13.96
   0  -5   5  210.35   19.65
   0  -5  -5  183.68   18.58
   0  -5  -5  217.86   19.06
   0  -6  -5   -4.05    3.37
   0   6  -5    0.83    5.06
   0  -6   5    3.78    4.29
   0  -7  -5   64.77   15.86
   0  -7   5   51.29   13.67
   0  -7  -5   46.17   13.38
   0   7  -5   46.00   14.03
   0  -8  -5   19.75    7.09
   0  -8   5    3.16    6.25
   0   8  -5    1.67    6.80
   0  -8  -5   15.39    8.35
   0   0   6 3598.42   94.56
   0   0  -6 3714.03   86.86
   0   0  -6 3666.21   92.86
   0   1  -6    2.27    2.94
   0  -1   6    5.48    3.73
   0  -1  -6   -1.56    2.45
   0   1   6   -0.39    2.94
   0  -1  -6   -0.54    2.34
   0   1  -6    2.13    2.43
   0   1   6   -2.55    2.24
   0  -2  -6 2065.65   65.46
   0  -2  -6 2035.67   49.03
   0   2  -6 2012.95   59.60
   0  -2   6 2041.98   64.82
   0  -2  -6 2043.22   64.38
   0   2   6 2103.66   48.48
   0   2  -6 2094.71   63.84
   0   3  -6   -0.15    2.65
   0   3  -6   -1.84    2.49
   0  -3   6   -3.58    2.07
   0  -3   6   -1.19    3.35
   0  -3  -6    1.62    2.88
   0  -4  -6 1116.73   47.95
   0   4  -6 1122.89   49.22
   0  -4   6 1123.74   40.14
   0  -4   6 1111.61   46.98
   0  -4  -6 1119.57   47.73
   0  -5   6   -3.40    3.50
   0  -5   6   -5.41    4.14
   0  -5  -6   -1.27    3.65
   0  -6   6  840.83   34.22
   0   6  -6  978.12   50.26
   0  -6   6  971.32   47.73
   0  -6  -6  942.72   48.24
   0  -6  -6  965.78   47.37
   0  -7   6   -1.55    6.01
   0   7  -6   -7.83    5.09
   0  -7   6    0.72    3.73
   0  -7  -6   -5.79    6.43
   0  -8  -6  214.25   22.55
   0   8  -6  199.73   24.69
   0  -8  -6  145.54   23.62
   0  -8   6  169.27   22.98
   0   0  -7    2.26    3.07
   0   0  -7   -3.41    2.04
   0   0   7   -2.63    3.07
   0   1   7  533.02   27.88
   0  -1  -7  525.21   23.26
   0  -1   7  530.13   30.23
   0   1  -7  513.44   27.17
   0   1   7  525.19   30.18
   0   1  -7  539.42   28.26
   0  -1  -7  523.32   29.96
   0  -1  -7  505.70   29.22
   0  -2   7    3.08    4.00
   0  -2  -7   -2.00    2.50
   0   2  -7    0.44    2.97
   0  -2  -7    1.70    3.86
   0   2  -7    3.13    3.75
   0  -2  -7    0.52    3.19
   0   2   7    0.48    2.67
   0  -3  -7 1905.47   68.58
   0  -3   7 1926.51   60.87
   0  -3  -7 1977.68   68.63
   0  -3   7 2012.66   68.60
   0   3  -7 2017.34   68.02
   0   3  -7 1961.44   61.33
   0  -4  -7    0.91    4.12
   0  -4   7   -5.34    3.37
   0  -4  -7    1.21    4.16
   0   4  -7    3.68    4.86
   0  -5  -7  444.48   32.16
   0   5  -7  433.30   32.34
   0  -5   7  463.08   30.87
   0  -5   7  425.26   24.44
   0  -5  -7  409.35   30.92
   0   6  -7   -2.64    5.16
   0  -6   7   -3.03    4.82
   0  -6  -7   -5.94    5.53
   0  -6  -7    7.06    7.07
   0  -6   7   -3.83    6.26
   0   7  -7  585.34   39.46
   0  -7  -7  526.70   39.08
   0  -7  -7  583.89   39.44
   0  -7   7  509.55   38.36
   0   0   8 3945.86  109.04
   0   0  -8 4025.74  108.36
   0   0  -8 3965.57   98.84
   0   1  -8   -0.66    3.78
   0  -1  -8    0.15    3.41
   0   1   8   -6.18    3.08
   0  -1  -8   -4.99    2.53
   0   1  -8   -1.74    3.63
   0  -2  -8  202.23   13.78
   0  -2  -8  223.16   20.77
   0  -2   8  189.29   19.63
   0   2  -8  206.36   18.56
   0   2   8  199.58   20.21
   0   2  -8  187.77   18.62
   0   2   8  244.08   13.26
   0  -2  -8  202.38   20.11
   0  -3  -8    2.60    4.01
   0   3  -8   -3.50    3.32
   0  -3   8    1.79    5.31
   0  -3   8   -2.05    3.17
   0  -3  -8   -5.19    3.36
   0   4  -8  421.15   29.47
   0  -4  -8  391.35   29.99
   0  -4  -8  382.30   29.74
   0  -4   8  356.80   24.38
   0  -4   8  427.01   29.89
   0  -5   8    5.22    5.96
   0  -5  -8    6.09    6.23
   0  -5   8   10.68    4.73
   0  -6   8  145.42   21.72
   0  -6  -8  189.54   23.14
   0  -6  -8  165.96   21.93
   0   6  -8  172.85   22.30
   0  -7  -8    6.06    6.80
   0  -7   8    3.15    7.17
   0  -7  -8    1.43    7.36
   0   7  -8   15.20   10.14
   0  -7   8   -0.24    7.43
   0   0  -9    2.06    4.25
   0   0   9   -4.41    3.54
   0  -1   9   16.92    8.10
   0  -1  -9   16.54    7.08
   0   1  -9   14.54    7.19
   0   1   9   38.51    9.60
   0  -1  -9   23.87    6.13
   0   1  -9   32.35    7.49
   0   2  -9    1.85    4.56
   0   2  -9    8.31    4.47
   0  -2  -9    1.46    3.68
   0  -2  -9    5.02    4.68
   0  -2   9   -2.20    4.18
   0  -2  -9    3.23    5.71
   0   2   9    0.42    5.22
   0   3  -9  502.08   30.77
   0   3   9  528.98   35.50
   0   3  -9  564.94   36.04
   0  -3   9  521.14   32.14
   0  -3  -9  530.40   36.01
   0  -3  -9  571.41   36.48
   0  -3   9  517.62   35.71
   0  -4  -9   13.59    5.90
   0  -4   9    6.90    5.29
   0  -4   9   -5.27    5.04
   0  -5  -9   60.63   14.72
   0  -5   9   34.47   12.80
   0  -5   9   65.00   10.41
   0  -5  -9   46.81   14.25
   0   6  -9   -0.32    7.83
   0  -6   9   11.56    8.44
   0   0  10  641.27   39.74
   0   0 -10  670.64   34.10
   0   0 -10  618.02   37.96
   0  -1 -10   -2.53    5.34
   0   1 -10    3.50    6.05
   0   1 -10   -6.50    4.57
   0  -1  10    1.20    4.97
   0  -1 -10   -4.44    4.59
   0   2  10   18.64    7.92
   0  -2  10    6.97    7.63
   0  -2 -10    6.55    5.56
   0   2 -10   11.02    5.20
   0   2 -10    8.54    6.77
   0  -3 -10   -4.93    6.01
   0  -3 -10   -0.61    6.05
   0  -3  10    2.06    5.49
   0   3  10   -1.66    5.67
   0   3 -10   -6.18    4.45
   0  -3  10   -2.90    4.47
   0   3 -10    4.00    6.89
   0   4 -10   58.03   15.50
   0  -4 -10   75.02   12.54
   0  -4  10   82.39   15.26
   0  -4  10   50.17   13.21
   0   4  10   65.46   17.05
   0  -4 -10   41.92   13.89
   0  -5  10   -4.06    5.98
   0   5 -10   -6.06    8.96
   0  -5 -10    8.17    8.67
   0  -5 -10   -3.49    5.90
   0   0  11   15.54    6.59
   0   0 -11    8.69    7.12
   0   1 -11   58.36   14.55
   0  -1  11   43.88   12.69
   0   1 -11   90.86   13.09
   0  -1 -11   69.13   15.79
   0   1  11   88.02   14.45
   0   2 -11   -4.80    6.01
   0   2 -11    5.71    5.65
   0  -2  11    8.03    5.37
   0   2  11   -6.45    6.40
   0  -2 -11   10.00    8.28
   0   3 -11  111.48   16.64
   0  -3 -11  109.92   19.02
   0   3 -11  104.97   18.44
   0  -3  11  113.69   17.24
   0  -3  11  104.42   19.38
   0   4  11    0.95    8.21
   0  -4 -11    3.89    6.84
   0   4 -11    1.05    7.57
   0  -4 -11    8.08    8.28
   0   0  12   64.54   16.99
   0   0 -12   59.67   16.09
   0   0 -12   75.43   13.54
   0   1 -12   -9.60    7.15
   0  -1 -12    8.71    6.21
   0   1  12   -6.13    8.39
   0  -1  12   12.00    9.23
   0  -1 -12   -8.08    7.41
   0   1 -12   -0.59    8.69
   0   2 -12  187.15   21.10
   0   2 -12  180.39   22.12
   0  -2 -12  172.81   24.22
   0   2  12  210.44   27.01
   0  -2  12  162.51   24.12
  -1   0   0    2.20    0.78
   1   0   0    2.53    0.73
   1  -1   0 5568.47  104.42
   1   1   0 4994.06   99.21
  -1  -1   0 5463.46   99.45
  -1  -1   0 5494.82  104.52
  -1   1   0 5351.25  103.86
  -1   1   0 5363.33  104.05
   1  -1   0 5538.91  104.38
   1   1   0 5219.48  104.18
   1  -1   0 5344.61  102.66
  -1  -1   0 5654.23  102.24
   1   1   0 5441.01  101.87
  -1   1   0 5389.05  102.76
   1   2   0  523.91   18.41
  -1  -2   0  520.48   17.64
  -1  -2   0  524.55   17.91
  -1   2   0  527.17   17.18
  -1  -2   0  547.04   13.96
   1  -2   0  509.73   16.94
   1  -2   0  504.85   17.54
  -1   2   0  504.52   17.21
   1  -2   0  524.79   18.89
   1   2   0  515.45   17.12
  -1   2   0  521.49   18.68
   1   2   0  516.61   13.57
   1  -3   0 5894.90  125.13
   1   3   0 5946.35  114.29
   1  -3   0 5925.89  120.78
   1   3   0 5920.85  122.82
  -1   3   0 5779.81  119.84
   1  -3   0 6023.98  121.31
  -1  -3   0 5837.84  121.85
  -1  -3   0 5844.57  114.60
  -1   3   0 5966.15  121.22
   1   3   0 5951.81  122.53
  -1  -3   0 6046.83  123.40
  -1   3   0 5668.60  124.73
   1  -4   0  914.26   30.93
  -1  -4   0  930.37   26.80
   1  -4   0  951.62   35.34
   1  -4   0  905.04   30.90
  -1  -4   0  915.52   33.72
  -1   4   0  932.85   32.12
   1   4   0  927.44   33.18
   1   4   0  913.27   25.84
  -1   4   0  911.80   30.18
  -1  -5   0 2686.87   74.65
  -1  -5   0 2625.37   62.25
  -1   5   0 2720.04   70.50
   1   5   0 2668.51   72.40
   1  -5   0 2673.82   68.48
   1   5   0 2554.00   61.00
   1  -5   0 2695.53   76.56
   1   6   0   30.42    5.51
   1  -6   0   17.23    5.51
  -1   6   0   20.18    7.04
  -1  -6   0   20.00    4.79
   1  -6   0   18.19    6.75
  -1  -6   0   21.57    7.96
   1   6   0   22.40    6.16
   1  -7   0  954.78   47.75
  -1  -7   0 1011.91   34.47
  -1   7   0  998.43   42.07
   1   7   0  988.88   43.87
  -1  -7   0 1013.03   47.08
   1  -7   0  964.23   38.84
  -1  -8   0   38.75   12.37
   1   8   0   55.70   11.84
  -1   8   0   42.48   11.16
   1  -8   0   52.54   10.33
   1  -8   0   49.81   10.30
   1   9   0  165.87   17.61
  -1  -9   0  114.63   19.45
   1  -9   0  113.65   19.45
  -1   9   0  161.57   16.50
  -1   0   1 5085.71   94.77
   1   0  -1 4933.78   93.15
   1   0  -1 4995.02   94.76
   1   0   1 4932.19   95.49
   1   0  -1 5226.23   94.03
   1   0   1 4911.80   95.85
  -1   0   1 4927.95   93.60
  -1   0   1 5154.08   93.13
  -1   0  -1 4562.47   95.36
  -1  -1  -1 2364.69   49.35
  -1   1   1 2348.84   49.53
   1  -1   1 2219.17   49.90
   1  -1   1 2348.96   49.49
  -1  -1  -1 2345.67   48.18
   1   1  -1 2356.07   47.29
   1  -1   1 2310.78   50.52
  -1  -1  -1 2286.25   48.66
   1   1  -1 2349.15   50.95
  -1  -1   1 2427.50   47.59
   1  -1  -1 2377.53   49.62
   1   1   1 2304.10   48.09
  -1   1  -1 2295.01   49.34
   1   1   1 2274.21   48.67
  -1   1  -1 2350.71   50.81
   1   1   1 2325.39   49.17
   1  -1  -1 2279.71   50.40
  -1  -1   1 2247.52   50.22
   1  -2   1 2836.58   60.71
   1  -2   1 2855.43   63.59
  -1   2   1 2720.33   62.66
  -1   2   1 2831.28   56.73
   1   2  -1 2777.19   60.77
  -1   2   1 2809.02   62.36
   1   2  -1 2796.38   63.95
  -1  -2  -1 2807.30   59.78
   1  -2   1 2848.17   64.21
  -1  -2  -1 2790.03   59.97
  -1  -2  -1 2835.77   62.39
   1  -2  -1 2881.93   56.81
  -1   2  -1 2766.16   60.29
  -1  -2   1 2887.29   64.10
  -1   2  -1 2855.11   63.76
  -1  -2   1 2841.28   61.43
   1   2   1 2799.17   59.92
   1   2   1 2795.28   59.99
   1   2   1 2773.48   59.33
   1  -2  -1 2838.16   63.13
   1  -2  -1 2716.66   63.18
   1   2   1 2784.43   62.28
  -1   2  -1 2599.50   62.42
   1   3  -1  255.86   13.94
   1  -3   1  256.71   12.94
   1   3  -1  267.82    8.78
   1  -3   1  270.47   14.89
   1  -3   1  271.22   15.48
  -1  -3  -1  260.41   13.05
   1   3  -1  253.03   14.99
  -1   3   1  259.06   13.61
  -1   3   1  259.85   11.80
  -1  -3  -1  263.21   14.75
  -1  -3  -1  273.81   12.51
  -1   3  -1  261.33   14.62
   1  -3  -1  260.10   15.32
   1  -3  -1  275.95   11.89
  -1  -3   1  266.94   14.21
  -1   3  -1  263.12   12.92
   1   3   1  270.01   13.39
   1   3   1  248.12   13.92
  -1  -3   1  253.86   14.48
  -1  -3   1  259.87    9.13
   1   3   1  271.04   12.31
   1  -3  -1  258.88   14.14
   1   4  -1  801.37   22.39
  -1   4   1  798.10   27.48
   1  -4   1  856.09   33.47
  -1  -4  -1  868.19   33.03
   1   4  -1  861.42   33.16
  -1  -4  -1  845.72   28.79
  -1  -4  -1  868.40   27.80
   1  -4   1  827.08   28.54
  -1   4  -1  887.36   32.67
   1   4   1  877.44   30.07
  -1   4  -1  847.42   28.17
   1  -4  -1  884.25   31.27
  -1  -4   1  866.60   32.40
   1  -4  -1  818.54   27.24
  -1  -4   1  859.55   23.31
   1  -4  -1  816.93   33.35
   1   4   1  808.85   26.65
  -1   5   1   -1.91    2.16
   1  -5   1    1.82    3.60
   1   5  -1    2.47    3.30
   1  -5   1    3.54    2.03
  -1  -5  -1    2.13    3.06
  -1  -5  -1    0.26    2.28
   1   5   1   -0.12    2.82
   1  -5  -1   -0.93    2.84
   1   5   1    1.99    2.20
  -1   5  -1   -3.81    2.41
   1  -5  -1    3.71    1.91
  -1  -5   1    0.01    2.04
  -1  -5   1   -0.98    3.01
   1   6  -1  527.56   29.30
   1  -6   1  501.51   24.44
  -1  -6  -1  527.29   23.71
  -1   6   1  514.82   25.04
   1  -6   1  469.93   29.49
  -1  -6  -1  509.53   30.17
   1   6  -1  499.01   19.46
   1  -6  -1  502.42   30.34
  -1  -6   1  534.19   20.45
  -1   6  -1  537.25   29.07
  -1  -6   1  537.56   30.35
   1   6   1  505.24   26.50
   1  -6  -1  544.39   26.97
  -1  -7  -1   -0.25    4.03
  -1  -7  -1    2.50    3.51
  -1   7   1    8.19    4.79
   1   7  -1   -5.93    3.97
   1   7  -1   -5.22    4.37
   1  -7   1    5.19    4.72
  -1  -7   1   -5.33    3.05
  -1  -7   1    0.19    3.99
   1  -7  -1   -6.56    3.81
   1   7   1   -0.13    3.52
   1  -7  -1   -0.08    4.23
  -1   7  -1   -0.62    4.55
  -1  -8  -1  231.85   23.18
  -1   8   1  226.41   17.91
   1   8  -1  182.62   18.71
   1  -8   1  210.34   23.13
   1  -8  -1  200.12   22.52
  -1   8  -1  236.91   19.94
   1   8   1  221.83   19.32
  -1  -8   1  242.78   24.06
   1  -8  -1  186.61   18.43
   1  -9   1   -0.02    6.19
  -1   9   1    5.60    7.36
  -1  -9  -1   -7.20    7.37
   1  -9   1    8.38    5.74
  -1  -9  -1   -5.56    5.51
   1  -9  -1    6.44    7.62
  -1   9  -1    1.93    5.27
   1  -9  -1    0.14    6.71
  -1  -9   1    4.44    7.34
  -1   0  -2    3.99    1.89
  -1   0   2    2.62    1.43
  -1   0   2    3.89    1.66
   1   0   2    5.53    2.02
   1   0  -2    1.51    1.13
  -1   0  -2    3.87    1.55
  -1   0  -2    1.91    1.32
   1   0   2    2.39    1.41
   1   0  -2    1.75    1.23
  -1   0   2    3.02    1.27
   1   0  -2    1.15    0.91
   1   0   2    3.50    1.07
  -1   0   2    2.59    1.01
   1   0   2    5.78    2.17
   1  -1   2 2308.57   50.73
  -1  -1  -2 2173.33   51.33
   1   1  -2 2226.91   46.99
  -1   1   2 2138.69   50.08
   1  -1   2 2202.06   51.88
  -1  -1  -2 2255.46   51.76
   1   1  -2 2304.16   52.12
   1  -1   2 2305.08   51.22
   1  -1   2 2265.55   52.33
  -1  -1  -2 2238.91   47.76
   1   1  -2 2193.55   48.90
  -1   1  -2 2208.22   51.64
   1   1   2 2194.39   51.14
  -1  -1   2 2322.24   49.88
   1   1   2 2163.44   50.86
  -1   1  -2 2227.87   50.75
   1  -1  -2 2228.09   50.54
   1  -1  -2 2294.54   52.32
  -1  -1   2 2212.23   46.82
  -1  -1   2 2241.16   51.56
   1   1   2 2148.79   47.30
  -1  -2  -2  101.63    6.42
  -1   2   2  112.86    8.66
   1  -2   2  102.55    7.31
  -1   2   2  112.70    8.56
   1  -2   2   95.07    7.24
   1  -2   2   90.67    7.89
   1  -2   2  101.03    8.65
  -1  -2  -2  107.32    8.09
   1   2  -2  101.53    8.75
  -1  -2  -2   97.24    8.07
   1   2  -2   98.27    7.33
   1  -2  -2  102.14    8.18
   1   2   2  100.99    6.32
   1   2   2  111.97    8.23
  -1   2  -2   96.88    8.52
  -1  -2   2  111.54    5.27
  -1   2  -2   88.90    7.61
  -1   2  -2   99.80    7.25
  -1  -2   2  112.95    7.94
   1   2   2  107.91    7.80
   1  -2  -2   91.07    7.90
  -1  -2   2   97.89    8.49
  -1  -2   2  102.92    5.17
   1   2   2  102.68    6.54
   1   3  -2 1600.28   44.51
  -1   3   2 1660.32   46.49
   1   3  -2 1573.44   47.94
  -1   3   2 1627.39   36.35
   1  -3   2 1653.90   42.73
  -1  -3  -2 1659.67   44.35
   1  -3   2 1632.34   47.86
  -1  -3  -2 1665.16   47.02
   1   3   2 1639.55   40.50
   1  -3  -2 1608.12   47.35
   1   3   2 1634.76   43.50
   1  -3  -2 1604.07   35.88
  -1   3  -2 1681.16   42.20
  -1  -3   2 1596.67   35.41
  -1  -3   2 1610.86   35.43
  -1   3  -2 1598.25   47.79
   1   3   2 1624.41   40.62
  -1  -3   2 1637.05   45.06
   1  -3  -2 1634.55   46.18
  -1  -4  -2   30.72    7.08
   1   4  -2   23.98    6.21
  -1  -4  -2   40.45    5.19
  -1  -4  -2   25.81    5.83
  -1   4   2   21.10    4.18
   1  -4   2   32.37    6.25
   1  -4   2   30.12    7.23
  -1  -4   2   25.19    3.43
   1  -4  -2   26.97    4.35
   1  -4  -2   32.69    7.78
   1   4   2   30.25    5.87
  -1   4  -2   38.66    4.67
  -1  -4   2   24.76    3.24
   1   4   2   33.83    4.99
   1   4   2   26.72    4.96
  -1  -4   2   25.11    6.29
  -1   4  -2   17.82    5.68
   1  -4  -2   32.56    6.08
   1  -5   2  384.56   24.36
  -1  -5  -2  411.67   24.66
   1   5  -2  406.79   24.92
  -1  -5  -2  393.65   20.62
  -1   5   2  409.22   18.23
   1   5  -2  401.66   15.03
   1  -5   2  408.84   19.84
   1  -5  -2  386.07   17.50
  -1  -5   2  415.06   15.27
   1   5   2  380.77   19.87
  -1   5  -2  417.50   24.96
  -1  -5   2  385.67   23.16
   1  -5  -2  402.05   22.67
  -1  -5   2  391.95   14.54
   1  -5  -2  417.57   24.67
  -1   6   2    0.17    2.96
  -1  -6  -2   -0.47    3.19
   1   6  -2    2.51    4.74
  -1  -6  -2    0.70    2.65
   1  -6   2   -1.82    3.06
   1   6  -2    4.60    3.01
   1  -6   2   -3.58    3.42
   1   6   2    8.24    3.48
  -1  -6   2   -0.01    2.61
   1  -6  -2   -4.13    3.00
   1  -6  -2    6.10    5.33
  -1   6  -2    6.02    5.63
  -1  -6   2   -0.66    2.94
  -1  -6   2    4.93    5.31
  -1   7   2  538.38   26.45
   1   7  -2  606.80   35.93
  -1  -7  -2  574.16   35.37
  -1  -7  -2  618.00   29.45
   1  -7   2  614.14   36.65
   1  -7   2  595.07   27.91
  -1   7  -2  633.33   35.91
   1  -7  -2  612.17   37.07
   1   7   2  583.49   29.57
  -1  -7   2  573.60   34.80
   1  -7  -2  593.60   31.58
   1  -8   2    5.91    5.82
   1   8  -2   17.89    8.50
   1  -8   2   -4.54    4.39
  -1  -8  -2   11.45    6.39
  -1  -8  -2   -2.60    5.24
   1   8   2    0.28    5.65
   1  -8  -2   -1.52    5.94
   1  -8  -2   -4.81    5.29
  -1   8  -2    5.14    5.67
  -1  -8   2    0.73    5.61
  -1  -9  -2  130.92   19.60
  -1   9   2  100.06   16.07
   1  -9   2  125.77   20.53
   1  -9  -2   83.63   14.63
  -1  -9   2  153.73   21.70
   1  -9  -2  105.26   22.29
  -1   0  -3    7.88    2.50
   1   0  -3    6.63    2.34
  -1   0  -3   10.34    2.96
  -1   0   3    4.96    2.19
  -1   0  -3    5.41    2.56
   1   0   3    5.80    2.19
  -1   0   3    4.30    2.25
   1   0  -3    5.75    2.25
   1   0   3    3.35    1.99
  -1   0   3    3.37    1.98
   1   0  -3    5.88    2.03
   1   0   3    6.94    2.89
   1   0   3    2.29    2.15
   1   1  -3  406.67   16.91
   1   1  -3  394.83   15.17
  -1   1   3  387.71   16.58
  -1  -1  -3  382.32   14.26
   1   1  -3  412.74   17.49
   1  -1   3  415.62   18.53
  -1   1   3  373.25   16.91
   1  -1   3  385.41   17.10
  -1  -1  -3  412.05   17.89
   1  -1   3  415.76   17.07
  -1  -1  -3  407.36   17.95
  -1   1  -3  382.17   17.71
  -1   1  -3  384.24   17.56
  -1  -1   3  386.93   15.03
   1   1   3  393.71   17.55
  -1  -1   3  411.94   16.95
  -1  -1   3  431.55   17.48
   1   1   3  369.72   17.00
   1  -1  -3  400.10   17.15
   1   1   3  389.69   14.14
  -1   1  -3  380.72   16.90
   1  -1  -3  389.85   17.67
   1  -2   3  339.59   15.42
   1   2  -3  315.87   15.25
   1  -2   3  326.70   17.12
   1  -2   3  340.09   18.89
  -1   2   3  331.96   17.13
   1   2  -3  353.27   13.30
   1  -2   3  334.60   15.54
  -1  -2  -3  342.03   17.12
  -1  -2  -3  330.09   12.58
  -1   2   3  319.91   16.43
  -1  -2  -3  320.77   16.85
   1   2  -3  325.11   17.54
  -1  -2   3  326.68   15.92
  -1  -2   3  311.37   12.72
   1   2   3  332.26   12.54
  -1  -2   3  342.15   17.50
   1  -2  -3  335.88   16.91
   1   2   3  310.25   16.39
  -1   2  -3  318.13   17.35
   1   2   3  305.34   16.11
   1  -2  -3  328.61   17.32
  -1   2  -3  284.42   15.91
  -1  -3  -3   77.49    8.37
   1  -3   3   70.08    6.68
   1  -3   3   64.90    8.36
   1   3  -3   65.83    8.84
   1  -3   3   59.79    6.58
  -1  -3  -3   77.94    8.82
  -1  -3   3   63.38    5.39
   1  -3  -3   69.79    8.12
  -1  -3   3   65.04    5.07
   1  -3  -3   75.68    8.74
  -1   3  -3   59.03    8.32
  -1  -3   3   64.22    7.82
   1   3   3   72.35    6.25
   1   3   3   78.05    6.03
  -1  -4  -3  935.54   34.37
   1   4  -3  915.92   37.85
   1  -4   3  876.06   36.63
   1  -4   3  881.24   30.04
   1  -4   3  919.79   30.96
  -1  -4  -3  890.64   35.79
   1   4   3  860.44   27.45
   1   4   3  906.09   28.14
   1  -4  -3  884.64   35.14
  -1   4  -3  886.27   29.50
   1  -4  -3  867.69   35.86
  -1  -4   3  900.26   24.73
  -1   4  -3  910.12   37.87
  -1  -4   3  884.16   34.36
  -1  -4   3  878.63   24.57
  -1   5   3  167.27    9.86
  -1  -5  -3  184.23   16.70
   1   5  -3  170.72   16.32
  -1  -5  -3  168.26   14.39
   1  -5   3  155.64   12.37
  -1   5   3  164.55    9.93
   1  -5   3  169.01   16.30
  -1   5  -3  158.92   16.21
   1  -5  -3  177.32   15.63
  -1  -5   3  179.32   16.04
   1  -5  -3  141.28    9.60
   1  -5  -3  165.45   16.09
   1   5   3  170.40   11.67
  -1  -5   3  165.59    9.36
  -1  -5   3  154.52    9.05
   1   5   3  167.53   11.68
   1  -6   3  396.36   27.73
   1   6  -3  421.24   28.74
  -1  -6  -3  419.87   24.73
  -1  -6  -3  416.66   27.98
  -1   6   3  396.27   17.87
  -1   6   3  397.24   17.67
   1  -6   3  420.40   21.77
   1  -6  -3  390.33   25.24
  -1  -6   3  396.67   15.82
  -1   6  -3  384.18   27.37
   1  -6  -3  405.16   18.02
  -1  -6   3  423.00   27.00
   1   6   3  399.89   21.14
   1  -6  -3  446.33   28.76
  -1  -7  -3   18.06    5.80
   1   7  -3   23.58    8.95
   1  -7   3   18.37    6.77
   1  -7   3   33.42    9.89
  -1  -7  -3    9.19    6.89
  -1   7   3   19.74    5.65
   1   7   3    9.49    6.23
  -1   7  -3   23.33    7.82
   1  -7  -3   24.69    7.84
   1  -7  -3   24.88    8.44
  -1  -7   3   27.75    8.94
  -1   8   3   49.54    8.33
   1  -8   3   39.24   11.37
  -1  -8  -3   46.00   10.03
   1   8  -3   42.50   12.68
   1   8   3   39.26    9.03
   1  -8  -3   20.91    9.32
  -1  -8   3   29.04   10.22
  -1   8  -3   31.58   11.68
   1  -8  -3   33.82   11.33
   1  -9   3   -3.06    8.76
  -1  -9  -3   -3.21    7.48
  -1  -9  -3    3.01    8.66
  -1  -9   3   -0.30    6.90
   1  -9  -3   -2.79    6.50
   1  -9  -3   -1.77    7.36
   1   0   4   -1.03    1.62
  -1   0  -4   -0.90    1.60
   1   0  -4   -1.21    1.26
   1   0   4    2.98    1.87
   1   0   4    0.90    2.30
  -1   0   4   -0.63    1.79
   1   0  -4    0.43    1.44
  -1   0   4    2.52    1.55
  -1   0  -4    0.66    1.37
  -1   0   4    1.67    2.05
   1   1  -4 1944.86   48.63
   1  -1   4 1796.05   49.69
  -1   1   4 1834.93   50.09
   1   1  -4 1872.84   50.13
   1   1  -4 1915.23   50.96
  -1   1   4 1844.83   40.95
  -1  -1  -4 1862.38   45.44
  -1  -1  -4 1815.43   51.69
   1  -1   4 1809.91   52.66
   1  -1   4 1798.82   49.53
  -1  -1  -4 1835.89   52.02
   1   1   4 1827.91   44.94
  -1   1  -4 1781.91   50.17
   1  -1  -4 1865.74   50.98
   1  -1  -4 1807.43   51.27
   1  -1  -4 1901.74   41.54
  -1  -1   4 1826.03   50.60
  -1  -1   4 1891.13   50.37
  -1   1  -4 1853.60   50.85
  -1  -1   4 1898.03   48.11
  -1  -1   4 1840.68   49.19
  -1  -2  -4    8.15    3.29
   1  -2   4    3.82    2.83
  -1  -2  -4   10.50    4.26
   1   2  -4    4.21    3.02
   1   2  -4    7.75    2.84
   1  -2   4    8.27    3.20
  -1  -2  -4    6.56    2.20
   1  -2   4    4.77    2.30
  -1   2  -4    6.05    3.19
  -1  -2   4    6.12    3.03
   1  -2  -4    3.33    2.99
  -1  -2   4    1.63    2.40
  -1   2  -4   11.89    3.87
   1   2   4   10.85    3.02
   1  -3   4 1095.49   38.97
   1  -3   4 1121.43   40.63
   1  -3   4 1164.86   36.73
  -1  -3  -4 1171.65   41.19
  -1  -3  -4 1113.26   40.48
   1   3  -4 1139.82   42.33
   1   3   4 1078.58   29.78
   1   3   4 1101.91   30.32
  -1  -3   4 1157.58   39.41
  -1   3  -4 1141.92   42.53
   1  -3  -4 1146.51   41.49
  -1  -3   4 1155.19   32.36
   1  -3  -4 1142.11   40.83
  -1  -3   4 1188.49   32.58
  -1  -4  -4  176.18   15.04
   1   4  -4  170.98   16.58
   1  -4   4  186.08   13.55
   1  -4   4  182.11   16.18
  -1  -4  -4  197.13   16.64
   1  -4  -4  192.31   16.37
  -1   4  -4  170.53   16.30
   1   4   4  202.42   10.23
  -1  -4   4  179.12   15.23
  -1  -4   4  183.77   10.79
  -1  -4   4  161.81    9.97
   1  -4  -4  165.89   15.37
   1   4   4  180.15   10.53
   1   5  -4   10.51    5.99
   1  -5   4   16.84    6.66
   1  -5   4   17.81    6.15
  -1  -5  -4   17.27    7.15
  -1  -5  -4   16.81    6.35
   1  -5  -4   14.32    6.16
  -1   5  -4    8.79    5.68
  -1  -5   4   16.97    3.96
  -1  -5   4   15.87    6.14
   1  -5  -4   15.97    5.94
  -1  -5   4   17.08    3.69
   1   5   4   12.13    4.43
   1   5   4   27.95    5.30
  -1  -6  -4  129.69   15.39
   1  -6   4  106.89   11.43
  -1  -6  -4  111.47   14.24
   1  -6   4  117.03   16.06
   1   6  -4  108.26   15.77
   1   6   4  127.49   10.90
  -1   6  -4  113.27   15.83
   1  -6  -4  120.85   14.29
   1  -6  -4  121.67   15.71
  -1  -6   4  114.99   14.79
  -1  -7  -4  360.17   28.31
  -1  -7  -4  362.93   26.10
   1  -7   4  388.70   29.05
   1   7  -4  361.33   28.89
   1  -7   4  340.79   19.93
   1  -7  -4  378.27   27.75
  -1  -7   4  375.62   28.51
   1   7   4  319.95   19.50
  -1   7  -4  355.35   28.48
   1  -7  -4  391.29   29.75
  -1  -8  -4   27.36   10.88
   1  -8   4   31.02   13.14
  -1  -8  -4   32.04    9.78
  -1  -8   4   26.16   11.07
   1  -8  -4   35.62   12.03
   1  -8  -4   33.97   11.17
  -1   8  -4   70.28   15.41
   1   0  -5 1119.37   38.67
  -1   0  -5 1133.56   36.00
  -1   0   5 1111.71   33.30
   1   0   5 1114.22   34.79
  -1   0   5 1104.80   38.85
  -1   0  -5 1130.14   39.55
   1   0   5 1123.24   40.53
   1   0  -5 1150.27   34.57
  -1  -1  -5  305.25   19.18
   1  -1   5  286.59   18.98
  -1  -1  -5  308.38   19.15
  -1   1   5  299.62   12.63
  -1  -1  -5  289.44   14.94
   1   1  -5  291.59   17.25
   1   1  -5  273.71   16.39
   1   1   5  307.50   13.84
   1  -1  -5  280.49   18.13
  -1   1  -5  277.00   17.51
   1  -1  -5  303.59   13.22
  -1  -1   5  297.63   18.19
  -1   1  -5  287.24   17.77
   1   1   5  303.89   19.21
   1  -1  -5  289.89   17.91
   1   2  -5   21.79    6.49
   1   2  -5   29.06    5.39
  -1  -2  -5   22.76    6.42
  -1  -2  -5   28.23    7.59
   1  -2   5   23.24    7.00
   1  -2   5   28.70    6.93
  -1  -2  -5   29.19    4.45
  -1  -2   5   24.40    6.78
   1  -2  -5   26.78    7.42
  -1   2  -5   21.92    5.28
  -1  -2   5   19.23    4.92
  -1   2  -5   20.29    6.14
   1  -2  -5   18.07    5.80
   1   3  -5  237.15   18.41
  -1  -3  -5  220.97   11.20
  -1  -3  -5  232.49   18.14
   1  -3   5  237.28   16.00
   1   3  -5  226.62   13.81
  -1  -3  -5  220.32   17.58
   1  -3   5  212.92   17.75
  -1   3  -5  235.69   18.28
  -1  -3   5  216.57   13.39
   1  -3  -5  247.04   18.85
  -1  -3   5  244.43   13.91
   1   3   5  222.93   10.81
  -1  -3   5  233.63   17.46
   1  -3  -5  222.12   17.30
   1  -4   5 1356.92   44.35
  -1  -4  -5 1377.22   50.97
   1  -4   5 1332.66   50.81
  -1  -4  -5 1360.61   51.03
   1   4  -5 1346.38   51.88
  -1  -4   5 1397.24   49.63
  -1  -4   5 1332.82   39.03
   1   4   5 1327.00   34.83
  -1  -4   5 1370.37   39.70
  -1   4  -5 1352.65   52.59
   1  -4  -5 1326.26   50.90
   1  -4  -5 1425.06   52.14
   1  -5   5   55.05    8.26
  -1  -5  -5   42.11   10.26
   1  -5   5   52.40   12.51
   1   5  -5   56.50   12.44
  -1  -5  -5   62.71   10.93
   1  -5  -5   60.50   10.63
   1   5   5   47.99    6.07
  -1  -5   5   47.76   11.23
  -1  -5   5   41.33    7.21
   1  -5  -5   46.96   11.43
  -1   5  -5   46.03   11.18
  -1  -5   5   39.43    7.38
  -1  -6  -5  609.69   36.79
   1  -6   5  606.07   28.21
  -1  -6  -5  624.15   35.33
   1   6  -5  609.48   38.16
   1  -6   5  571.38   35.65
  -1  -6   5  598.15   35.12
   1  -6  -5  570.31   35.74
   1  -6  -5  603.84   35.68
   1   6   5  574.94   21.92
  -1   6  -5  553.32   35.91
   1  -7   5   -0.30    4.91
  -1  -7  -5    9.55    4.74
   1   7  -5   11.39    8.10
   1  -7   5    7.00    3.88
   1  -7  -5   -2.59    5.47
  -1   7  -5   -5.88    5.15
   1  -7  -5   -8.56    4.78
  -1  -7   5   -2.73    5.21
  -1  -8  -5   36.07   12.99
   1   8  -5   43.59   13.10
  -1  -8  -5   50.48   11.70
   1  -8   5   39.83   14.75
  -1   8  -5   75.85   13.46
  -1  -8   5   43.97   14.42
   1  -8  -5   48.17   14.68
   1  -8  -5   68.22   16.95
   1   0  -6    0.57    2.50
   1   0  -6   -0.27    2.74
  -1  -1  -6 2237.01   66.33
  -1   1   6 2100.95   52.06
   1   1  -6 2194.91   61.93
  -1  -1  -6 2139.74   66.44
  -1  -1  -6 2210.53   57.23
   1   1  -6 2089.85   60.86
  -1   1   6 2190.11   65.05
   1  -1   6 2163.32   66.84
  -1   1  -6 2227.17   63.42
   1   1   6 2167.85   66.87
  -1   1  -6 2120.83   63.29
   1  -1  -6 2120.88   65.50
   1  -1  -6 2204.31   53.60
   1  -1  -6 2157.95   64.86
   1   1   6 2170.80   55.59
  -1  -1   6 2095.76   63.72
  -1  -2  -6    4.68    4.39
  -1  -2  -6    0.60    1.54
  -1  -2  -6    3.03    3.29
   1   2  -6    5.19    3.95
   1   2  -6   -4.08    2.20
  -1  -2   6   -0.63    3.17
   1  -2  -6    1.03    3.14
  -1   2  -6   -3.04    2.44
   1   2   6    2.26    2.45
   1  -2  -6    3.36    2.22
  -1   2  -6   -0.89    2.98
  -1  -3  -6 1682.41   43.23
   1   3  -6 1735.17   60.42
   1   3  -6 1744.81   51.31
  -1  -3  -6 1711.35   59.98
   1  -3   6 1736.06   60.32
  -1  -3  -6 1665.83   59.11
   1  -3   6 1738.91   54.64
  -1  -3   6 1761.65   58.36
   1   3   6 1663.08   42.88
  -1   3  -6 1825.84   61.65
  -1  -3   6 1799.35   52.65
   1  -3  -6 1723.44   59.53
   1  -3  -6 1747.19   60.66
  -1  -4  -6   10.53    5.20
  -1  -4  -6   20.22    7.51
   1  -4   6   13.35    6.28
   1  -4   6   14.27    6.60
   1   4  -6    8.38    5.97
   1  -4  -6    5.63    4.90
  -1  -4   6    9.04    4.51
  -1  -4   6    4.77    5.00
   1  -4  -6    9.55    5.11
  -1   4  -6    8.88    5.81
  -1  -5  -6  353.98   25.96
   1  -5   6  345.59   21.55
   1  -5   6  378.14   28.22
   1   5  -6  336.56   27.00
  -1  -5  -6  338.53   26.46
  -1  -5   6  327.57   18.57
   1  -5  -6  362.38   27.20
   1  -5  -6  348.52   26.41
  -1   5  -6  346.10   26.14
  -1  -5   6  352.66   26.17
   1  -6   6   65.65   12.05
   1   6  -6   67.98   15.01
   1  -6   6   57.76   13.54
  -1  -6  -6   78.02   12.42
  -1  -6  -6   74.96   13.71
  -1  -6   6   53.78   13.25
   1  -6  -6   76.32   13.73
  -1   6  -6   80.05   13.88
  -1  -6   6   76.33   10.66
   1  -6  -6   62.53   11.42
   1   7  -6  556.74   38.70
   1  -7   6  514.64   37.42
  -1  -7  -6  519.49   37.07
  -1  -7  -6  555.66   35.83
  -1   7  -6  517.10   38.46
   1  -7  -6  554.40   39.21
  -1  -7   6  559.29   36.97
   1  -7  -6  519.21   35.87
   1  -8   6   13.51    7.00
  -1  -8  -6  -10.86    6.12
   1  -8   6    2.76    7.74
   1   8  -6   -0.91    7.78
  -1   8  -6   -3.19    7.86
  -1  -8   6    2.14    7.19
   1  -8  -6  -10.43    8.23
   1  -8  -6    0.15    7.56
  -1   0  -7 1346.26   45.66
   1   0   7 1302.88   50.75
   1   0  -7 1345.48   49.14
  -1   0  -7 1291.79   49.63
   1   0  -7 1327.96   43.51
  -1   0   7 1324.81   49.81
   1   1  -7  141.31   13.62
  -1  -1  -7  144.75   14.96
   1   1  -7  127.06   13.45
   1  -1   7  110.78   14.15
  -1   1   7  121.11   14.66
  -1  -1  -7  138.51   11.86
   1  -1  -7  151.82   15.60
   1   1   7  131.28   14.76
   1  -1  -7  137.69   10.64
   1  -1  -7  147.50   15.23
  -1  -1   7  135.38   14.81
  -1   1  -7  151.29   15.00
  -1   1  -7  123.92   13.42
   1  -2   7  860.38   40.80
  -1  -2  -7  805.84   39.38
  -1  -2  -7  832.17   29.92
  -1  -2  -7  792.05   39.01
   1   2  -7  801.74   34.95
   1   2  -7  846.19   38.22
   1   2   7  792.36   28.21
  -1   2  -7  782.22   38.07
  -1   2  -7  855.88   37.47
  -1  -2   7  851.92   38.79
   1  -2  -7  819.17   40.02
   1  -2  -7  829.30   38.97
   1   2   7  817.43   39.77
   1   3  -7   -0.14    4.22
   1  -3   7   -4.64    3.39
  -1  -3  -7   -0.31    2.56
   1  -3   7   -1.83    3.45
  -1  -3  -7    6.41    4.40
   1   3  -7    0.61    3.74
  -1  -3  -7   -3.98    3.25
   1  -3  -7   -0.11    3.46
  -1   3  -7    1.37    4.27
   1  -3  -7    2.47    3.94
   1   3   7   -0.42    3.10
  -1  -3   7    0.32    4.18
   1  -4   7  527.14   33.51
  -1  -4  -7  471.50   31.73
   1  -4   7  494.80   28.35
  -1  -4  -7  502.34   32.44
   1   4  -7  485.06   32.70
  -1   4  -7  514.49   33.62
  -1  -4   7  480.71   30.47
   1  -4  -7  544.56   33.19
  -1  -4   7  509.54   26.04
   1  -4  -7  500.09   32.76
   1  -5   7   -0.65    5.34
  -1  -5  -7    4.69    4.33
   1   5  -7   16.92    5.35
   1  -5  -7    9.05    5.65
  -1   5  -7    4.59    5.49
  -1  -5   7    2.75    4.84
   1  -5  -7    4.41    4.69
  -1  -5   7   -5.49    3.69
   1   6  -7  240.37   26.29
  -1  -6  -7  281.30   25.72
   1  -6   7  288.30   19.86
   1  -6   7  274.75   26.01
  -1  -6  -7  252.61   25.62
  -1  -6   7  250.02   25.09
  -1   6  -7  228.82   24.64
   1  -6  -7  252.99   25.42
   1  -6  -7  275.67   26.10
  -1  -7  -7   -9.76    5.63
  -1  -7  -7   -9.55    6.33
   1   7  -7   -5.70    6.90
   1  -7   7   10.92    6.07
   1  -7   7    0.56    6.28
   1  -7  -7   19.48    7.41
   1  -7  -7   10.17    4.25
  -1   7  -7    2.17    6.56
  -1   0   8    2.47    4.57
   1   0  -8   -2.02    3.35
  -1   0  -8    3.61    3.12
  -1   0  -8    2.36    4.19
   1   0  -8   -2.59    3.01
   1   0   8   -0.94    3.37
  -1  -1  -8  389.82   22.09
   1   1  -8  359.93   24.47
  -1  -1  -8  379.18   26.61
   1   1  -8  373.06   24.20
  -1   1   8  391.09   27.14
   1  -1   8  346.30   26.56
  -1  -1   8  355.15   26.03
  -1   1  -8  364.86   25.77
   1  -1  -8  375.04   19.89
   1  -1  -8  379.50   26.95
   1   1   8  373.52   26.98
  -1   1  -8  390.72   25.06
  -1  -2  -8   96.68   13.99
   1   2  -8   62.25   11.21
   1   2  -8   66.18   10.67
  -1   2   8   75.86    7.34
  -1  -2  -8   76.59    9.84
   1  -2   8   70.76   13.18
  -1  -2  -8   86.87   13.76
  -1   2   8   78.49   13.16
   1  -2  -8   74.29    8.03
   1   2   8   84.85   12.60
  -1   2  -8   79.64   12.86
  -1  -2   8   72.87   14.88
   1  -2  -8   85.67   13.09
  -1   2  -8   70.26   11.53
   1  -2  -8   84.43   13.68
  -1  -3  -8  623.29   37.06
  -1  -3  -8  580.54   23.22
  -1  -3  -8  599.32   36.48
   1   3  -8  592.53   35.42
   1  -3   8  612.70   33.77
   1   3  -8  572.59   30.45
   1  -3   8  558.67   35.95
   1  -3  -8  642.22   36.77
   1   3   8  633.63   37.69
  -1  -3   8  597.28   35.51
  -1   3  -8  610.50   33.06
  -1   3  -8  562.40   35.36
   1  -3  -8  578.20   36.56
   1   3   8  590.83   22.58
  -1  -4  -8   65.71   15.06
  -1  -4  -8   62.90   11.74
   1   4  -8   82.72   12.29
   1  -4   8   80.15   11.50
   1  -4   8   71.05   15.26
   1  -4  -8   53.82   13.46
  -1   4  -8   65.85   15.04
  -1  -4   8   77.96    9.91
  -1  -4   8   58.90   13.48
   1  -4  -8   58.46   13.16
   1   5  -8  569.63   38.03
   1  -5   8  581.75   31.21
  -1  -5  -8  565.18   37.51
   1  -5   8  575.52   37.81
  -1  -5  -8  624.86   39.77
  -1   5  -8  582.03   39.28
   1  -5  -8  575.07   38.81
   1  -5  -8  554.12   37.53
  -1  -5   8  584.16   37.28
  -1  -5   8  513.43   27.87
  -1  -6  -8   26.82    9.77
   1   6  -8   20.92    9.88
  -1  -6  -8   25.56    9.44
   1  -6  -8   31.71   11.18
  -1   6  -8   14.31    9.68
   1  -6  -8   22.99   10.70
  -1  -6   8   26.77    9.65
  -1  -7  -8  308.33   32.23
  -1  -7  -8  339.03   31.26
   1  -7   8  301.31   31.32
   1   7  -8  352.71   34.19
  -1  -7   8  291.11   29.37
  -1   7  -8  336.42   31.63
   1  -7  -8  339.60   32.96
   1  -7  -8  356.75   31.78
  -1   0   9  303.65   25.77
   1   0   9  281.07   24.63
   1   0  -9  296.88   21.05
  -1   0  -9  303.37   25.48
  -1   0  -9  305.90   22.41
   1   0  -9  310.02   24.54
   1   1  -9  114.36   14.91
  -1  -1  -9  106.53   13.03
   1   1  -9  126.77   14.28
  -1  -1  -9  127.27   16.74
  -1   1   9  127.97   16.32
   1  -1   9  121.53   16.86
  -1   1  -9  137.23   16.34
   1  -1  -9  135.53   12.48
  -1   1  -9  123.21   14.96
   1   1   9  133.75   17.96
  -1  -1   9   98.17   15.75
   1  -1  -9   96.52   14.68
   1   2  -9  182.90   19.38
   1   2  -9  217.82   19.31
  -1  -2  -9  199.84   21.55
  -1   2   9  190.11   21.45
  -1  -2  -9  198.68   15.81
   1  -2   9  195.97   21.58
  -1   2   9  157.43   13.31
   1  -2  -9  219.98   21.82
   1  -2  -9  195.59   20.94
  -1   2  -9  187.30   19.12
  -1   2  -9  204.58   20.73
  -1  -2   9  199.16   21.31
   1   2   9  176.92   20.20
   1  -3   9   57.38   14.33
   1   3  -9   77.71   12.77
   1  -3   9   55.70   13.30
  -1   3   9   48.36   13.39
  -1  -3  -9   69.51   12.44
   1   3  -9   56.57   10.68
  -1  -3  -9   62.91   15.08
   1  -3  -9   76.67   13.73
   1   3   9   51.28   14.36
  -1   3  -9   83.36   12.99
  -1   3  -9   58.43   13.70
   1  -3  -9   60.86   14.10
  -1  -4  -9   44.74   13.30
  -1  -4  -9   46.59   12.08
   1   4  -9   69.28   11.29
   1  -4   9   38.62   10.50
  -1  -4   9   34.95    9.25
  -1  -4   9   43.87   13.53
   1  -4  -9   40.14   10.89
   1  -4  -9   34.32   10.65
  -1   4  -9   48.11   12.87
   1   5  -9    2.56    6.91
  -1  -5  -9   14.60    8.42
   1  -5   9   17.02   10.73
  -1   5  -9   21.58    8.30
   1  -5  -9   16.70    6.59
  -1  -5   9   21.31    7.15
  -1  -6  -9   42.76   14.66
   1   6  -9   44.84   13.19
  -1  -6  -9   43.76   12.92
   1  -6   9   33.40   12.97
  -1  -6   9   60.11   14.60
  -1   6  -9   42.44   14.49
   1  -6  -9   59.47   16.18
   1  -6  -9   60.43   15.60
   1   0 -10    4.64    6.08
  -1   0  10   -1.53    4.66
  -1   0 -10    6.27    5.98
   1   0 -10    8.46    5.27
   1  -1  10  122.65   18.18
  -1  -1 -10  136.13   16.66
   1   1 -10  110.69   14.94
   1   1 -10  125.37   16.95
  -1  -1 -10  129.44   14.14
  -1   1  10  102.64   17.14
  -1  -1  10  144.57   17.26
  -1   1 -10  151.35   18.96
   1   1  10  130.44   17.19
  -1   1 -10  116.21   16.29
   1  -1 -10  127.14   12.44
   1  -1 -10  124.33   18.27
   1   2 -10   30.44    9.38
   1  -2  10   15.37    7.30
  -1  -2 -10    7.42    7.46
   1  -2  10   11.97    5.94
   1   2 -10    9.28    8.00
  -1   2 -10   18.06    7.46
  -1  -2  10   22.57    8.19
   1  -2 -10   20.78    8.65
  -1   2 -10   21.16    8.19
   1  -3  10  171.57   21.10
   1  -3  10  248.69   22.92
  -1  -3 -10  225.30   23.82
   1   3 -10  175.20   22.34
  -1   3  10  194.20   22.73
  -1  -3 -10  181.57   20.78
   1   3 -10  203.03   19.43
  -1   3 -10  192.15   21.06
   1   3  10  255.54   22.87
   1  -3 -10  168.19   21.73
   1  -3 -10  194.72   21.91
  -1  -3  10  204.85   20.36
  -1   3 -10  196.11   20.98
  -1  -3  10  190.48   22.05
   1  -4  10   -0.55    6.99
   1   4 -10    7.77    6.21
  -1  -4 -10   19.06    8.01
  -1  -4 -10    5.61    8.43
  -1   4  10   24.16    7.70
   1  -4  10    4.61    9.22
  -1  -4  10   -5.47    5.72
   1  -4 -10   22.06   10.93
   1   4  10    4.54    8.80
   1  -4 -10    5.30    7.53
  -1  -4  10   -6.68    6.29
  -1   4 -10   21.72    7.27
  -1  -5 -10   68.73   17.55
   1  -5  10   66.52   17.39
   1   5 -10   99.50   20.48
  -1  -5 -10   84.83   19.96
   1   5  10   63.36   18.21
  -1   5 -10   82.72   19.57
   1  -5 -10   77.24   18.81
   1  -5 -10  101.16   17.29
   1   0 -11   99.68   13.11
   1   0 -11   85.90   15.93
   1   0  11   86.95   15.27
  -1   0 -11   80.44   13.56
  -1   0  11   54.47   14.45
  -1   0 -11   75.23   17.03
   1   1 -11   -1.75    5.21
  -1  -1 -11   -3.97    6.01
   1  -1  11   15.22    6.74
   1   1 -11   -8.11    5.54
   1  -1 -11    5.42    6.13
  -1   1 -11    5.15    6.48
   1  -1 -11    1.43    5.71
   1   1  11    3.96    7.31
  -1  -1  11   -0.31    6.84
  -1   1 -11    3.26    5.92
  -1  -2 -11   43.04   12.10
   1  -2  11   30.69    9.09
  -1   2  11   10.12   11.13
   1   2 -11   29.31   10.04
   1   2 -11   28.02   11.39
   1  -2  11   39.88   10.67
   1  -2 -11   24.81   10.83
  -1   2 -11   32.43    9.20
  -1   2 -11   23.84   10.34
   1   2  11   39.67   13.77
  -1   3  11    0.92    6.28
   1   3 -11   12.36    5.82
   1  -3  11   16.28    6.83
  -1  -3 -11   -6.52    7.31
   1   3 -11    9.58    8.01
   1  -3  11   -1.29    7.46
  -1   3 -11   -3.93    6.66
   1   3  11   14.16    9.15
  -1   3 -11    4.04    7.79
  -1  -3  11   -3.95    7.42
  -1  -4 -11  175.97   23.34
  -1   4  11  156.49   23.73
   1  -4  11  153.22   23.64
   1   4 -11  169.87   20.91
   1  -4  11  157.66   21.39
  -1  -4 -11  182.79   23.81
  -1  -4  11  213.93   23.47
  -1   4 -11  156.09   27.09
   1  -4 -11  175.59   23.68
  -1  -4  11  228.20   19.16
   1  -4 -11  173.19   24.51
   1   4  11  166.75   22.46
  -1   0 -12    3.41    6.17
  -1   0 -12   10.69    9.09
   1   0  12   14.87    5.19
  -1   0  12   16.96    7.18
   1   1 -12  350.03   25.78
   1  -1  12  326.47   29.21
   1   1 -12  314.77   29.58
  -1   1  12  354.76   30.58
  -1  -1 -12  317.12   31.59
  -1  -1  12  289.75   30.49
   1   1  12  298.78   30.80
  -1   1 -12  275.46   26.53
   1  -1 -12  275.23   30.05
  -1   1 -12  323.38   30.20
  -1  -2 -12    3.26    8.27
   1  -2  12    4.44   10.00
  -1   2  12    3.61    9.62
   1   2 -12   20.77    8.81
  -1   2 -12    3.39    7.38
   1  -2 -12  -11.82    7.28
  -1  -2  12    6.83    8.13
  -1   2 -12   -7.14    8.20
   2   0   0 4137.32   81.52
  -2   0   0 4268.94   81.69
  -2   0   0 4122.71   77.01
  -2   0   0 4007.89   81.96
   2   0   0 4143.71   76.75
   2   0   0 3990.32   82.02
   2   1   0 1743.92   36.37
   2   1   0 1783.29   41.29
  -2   1   0 1677.39   39.31
   2   1   0 1710.14   41.35
  -2  -1   0 1770.60   36.57
  -2   1   0 1782.30   39.52
   2  -1   0 1808.21   39.63
  -2  -1   0 1750.57   35.59
  -2   1   0 1661.45   40.91
   2   1   0 1771.89   35.54
  -2  -1   0 1708.48   41.20
   2   1   0 1731.97   36.25
   2  -1   0 1713.60   39.41
   2  -2   0 3508.38   74.99
   2  -2   0 3496.88   77.65
  -2   2   0 3600.35   77.76
   2   2   0 3530.50   73.35
   2  -2   0 3513.49   77.22
  -2   2   0 3588.44   74.92
   2   2   0 3554.35   68.57
  -2  -2   0 3585.01   73.67
   2   2   0 3558.91   77.77
   2   2   0 3481.89   77.47
  -2  -2   0 3628.77   78.09
  -2  -2   0 3560.48   68.53
  -2   2   0 3560.39   77.59
   2  -3   0  828.89   29.03
   2   3   0  809.55   20.53
  -2   3   0  814.82   28.28
   2   3   0  832.39   27.26
   2  -3   0  848.95   27.39
  -2  -3   0  839.42   20.97
  -2  -3   0  817.77   28.55
   2   3   0  827.55   29.50
   2  -3   0  869.11   30.57
  -2  -3   0  858.96   27.77
  -2   3   0  857.47   27.33
   2  -4   0  147.00   11.94
   2  -4   0  135.52   10.58
   2   4   0  132.63   11.93
  -2  -4   0  132.05    7.42
   2  -4   0  140.80   12.26
   2   4   0  129.78    7.21
  -2   4   0  131.59   10.64
  -2  -4   0  126.38   11.11
  -2   5   0   59.01    7.96
  -2  -5   0   46.44    5.45
   2  -5   0   52.38    9.22
  -2  -5   0   50.81    8.56
   2   5   0   49.18    8.34
   2  -5   0   59.44    8.62
   2   5   0   59.38    5.06
   2   6   0  255.69   20.15
   2  -6   0  261.82   18.80
  -2  -6   0  263.22   20.29
  -2  -6   0  248.05   12.99
   2   6   0  240.50   12.51
   2  -6   0  262.97   21.80
  -2   6   0  263.72   19.03
  -2   7   0   33.83    9.11
   2   7   0   29.84    6.68
   2  -7   0   34.95   10.03
  -2  -7   0   33.31    9.62
   2  -7   0   49.78    8.16
   2  -8   0  197.79   18.65
   2  -8   0  174.30   21.34
   2   8   0  189.70   19.15
  -2   8   0  221.68   18.38
  -2  -8   0  193.34   21.07
  -2   9   0   32.30    7.72
   2   0  -1    0.89    0.90
  -2   0  -1    2.70    1.26
   2   0  -1    0.91    0.95
   2   0  -1    4.49    1.60
   2   0   1    0.80    1.13
  -2   0  -1    0.30    1.08
  -2   0   1    2.23    1.23
   2   0   1    1.55    1.30
   2   0   1    1.90    1.14
  -2   0  -1    4.00    1.70
   2   0  -1    1.09    0.61
   2   0   1    2.68    1.11
  -2   0   1    1.28    0.97
  -2   0   1    2.34    0.76
  -2   1   1   28.92    2.90
  -2  -1  -1   30.56    3.82
   2  -1   1   22.41    3.60
   2   1  -1   30.60    4.08
   2   1  -1   27.31    2.32
  -2   1   1   26.20    3.69
  -2  -1  -1   25.73    3.12
   2  -1   1   26.25    3.44
   2   1  -1   24.73    2.21
  -2  -1  -1   24.88    3.28
  -2   1   1   32.00    3.29
   2  -1   1   27.81    3.81
  -2  -1   1   28.90    2.39
   2  -1  -1   29.38    3.37
   2  -1  -1   30.79    2.85
  -2   1  -1   24.54    3.65
  -2  -1   1   27.86    3.93
  -2   1  -1   27.30    3.68
  -2   1  -1   26.68    3.55
   2   1   1   28.87    3.66
   2  -1  -1   27.23    3.84
  -2  -1   1   26.53    2.24
   2   1   1   25.54    2.98
   2   1   1   28.03    3.31
  -2   2   1  311.82   14.77
   2   2  -1  291.12   11.66
  -2  -2  -1  299.78   13.17
   2   2  -1  311.89   15.29
  -2   2   1  303.26   11.07
   2  -2   1  295.70   14.67
  -2  -2  -1  294.92   11.88
   2  -2   1  305.00   14.33
  -2   2   1  287.21   13.77
   2  -2   1  311.09   14.63
   2   2   1  291.29   12.74
  -2  -2   1  287.09   14.66
  -2   2  -1  301.71   14.33
   2   2   1  296.69   13.73
  -2   2  -1  300.61   14.42
  -2   2  -1  301.54   14.04
  -2  -2   1  292.96   11.76
   2  -2  -1  307.69   11.14
   2   2   1  300.92   13.47
   2  -2  -1  289.09   14.71
   2  -2  -1  287.93   14.03
   2   2   1  297.77   11.88
  -2  -3  -1  869.38   29.01
  -2  -3  -1  888.31   25.47
  -2   3   1  857.20   29.61
   2   3  -1  850.55   31.29
   2  -3   1  872.73   29.80
  -2  -3  -1  854.04   28.81
   2  -3   1  855.04   28.99
   2  -3   1  841.57   31.04
  -2   3   1  878.00   25.23
   2   3  -1  854.50   27.33
   2   3   1  876.63   28.91
   2   3   1  853.31   24.67
   2  -3  -1  881.95   25.36
  -2   3  -1  844.72   28.52
  -2   3  -1  875.74   30.48
   2   3   1  846.92   28.54
   2   3   1  847.21   28.88
  -2  -3   1  885.69   28.21
   2  -3  -1  873.52   31.08
   2  -3  -1  863.53   30.53
  -2   4   1  210.72   12.43
   2  -4   1  218.13   14.48
   2  -4   1  228.85   16.29
   2   4  -1  221.02   16.15
  -2  -4  -1  232.09   15.46
  -2  -4  -1  226.16   12.08
  -2  -4   1  238.80   15.16
  -2   4  -1  211.52   14.96
   2  -4  -1  219.74   16.26
   2   4   1  221.62   11.76
   2   4   1  223.36   14.83
   2  -4  -1  225.18   15.56
   2  -4  -1  237.07   12.48
  -2  -5  -1 1078.23   33.30
   2   5  -1 1076.48   42.46
  -2  -5  -1 1064.96   40.93
  -2   5   1 1077.42   35.73
   2  -5   1 1102.45   38.63
   2  -5   1 1039.82   42.66
  -2   5  -1 1095.12   40.18
   2  -5  -1 1057.35   43.41
  -2  -5   1 1062.68   40.17
   2   5   1 1063.01   39.13
   2  -5  -1 1100.60   40.47
   2   5   1 1040.62   31.83
   2  -6   1    3.57    4.48
   2   6  -1    8.32    5.64
  -2  -6  -1    2.23    3.75
  -2   6   1    7.76    4.21
  -2  -6  -1   10.47    4.55
   2  -6   1   -1.40    3.86
  -2  -6   1    3.45    4.70
   2  -6  -1    4.37    4.14
  -2   6  -1    5.17    4.83
   2  -6  -1    9.81    4.02
   2   6   1    1.25    4.18
   2   6   1    0.68    4.46
   2   7  -1  456.47   29.28
   2  -7   1  424.42   30.69
  -2   7   1  419.65   24.59
   2  -7   1  421.63   24.58
  -2  -7  -1  428.37   21.24
  -2  -7  -1  402.90   28.79
  -2   7  -1  387.13   26.82
   2  -7  -1  418.86   30.61
  -2  -7   1  391.09   27.82
   2   7   1  431.77   26.75
   2  -7  -1  428.34   26.78
   2   8  -1   12.28    7.09
   2  -8   1    8.07    6.36
   2  -8  -1   14.00    5.12
   2  -8  -1   17.01    5.94
  -2  -8   1    3.56    5.93
   2  -9   1   64.92   16.90
  -2  -9  -1  117.12   19.59
   2  -9  -1   81.42   19.63
  -2  -9   1  112.32   18.49
   2  -9  -1   85.09   15.82
   2   0   2 4605.39   96.46
  -2   0   2 4782.26   93.87
  -2   0  -2 4582.32   97.54
   2   0  -2 4890.17   95.78
   2   0   2 4535.74   96.90
  -2   0  -2 4673.48   96.92
  -2   0   2 4621.90   91.72
  -2   0  -2 4904.60   98.22
  -2   0   2 4779.28   95.33
   2   0   2 4628.44   97.15
   2   0   2 4607.99   96.99
   2   0  -2 4616.92   92.33
   2   0  -2 4860.81   93.95
   2   1  -2  128.79    8.90
  -2  -1  -2  142.94    8.77
  -2  -1  -2  139.80    8.81
   2  -1   2  132.53    8.95
  -2  -1  -2  138.61    9.05
   2  -1   2  150.66    9.21
   2   1  -2  143.24    6.92
  -2   1   2  134.86    8.02
  -2   1   2  140.72    9.20
   2  -1   2  120.86    8.90
   2  -1   2  138.60    9.30
   2   1  -2  140.42    7.13
   2  -1  -2  136.59    6.01
   2   1   2  139.86    8.65
   2  -1  -2  136.60    8.08
  -2   1  -2  146.38    9.14
  -2   1  -2  149.18    9.33
  -2  -1   2  142.11    7.20
   2  -1  -2  133.30    9.26
  -2  -1   2  137.00    6.68
  -2  -1   2  134.46    8.62
   2  -1  -2  138.53    5.92
   2   1   2  135.02    8.55
   2   1   2  130.37    8.20
  -2   1  -2  142.25    9.57
   2  -2   2 1781.06   46.23
   2  -2   2 1762.85   47.86
  -2  -2  -2 1772.91   43.82
  -2  -2  -2 1743.80   45.69
  -2   2   2 1765.30   45.87
   2  -2   2 1756.06   47.29
   2   2  -2 1752.88   42.06
   2   2  -2 1805.46   48.71
  -2   2   2 1721.66   47.19
  -2  -2  -2 1828.49   45.24
   2  -2  -2 1731.87   47.80
   2   2   2 1720.26   44.80
  -2  -2   2 1804.08   48.23
  -2   2  -2 1713.07   46.91
  -2   2  -2 1777.03   48.38
  -2  -2   2 1828.83   42.79
   2  -2  -2 1850.65   46.68
   2   2   2 1798.53   44.82
  -2   2  -2 1761.95   45.64
   2   2   2 1768.87   43.79
   2  -3   2   -0.13    1.77
   2  -3   2    2.26    1.39
   2   3  -2    1.39    1.52
  -2  -3  -2    1.00    1.82
   2   3  -2   -2.66    1.99
  -2  -3  -2    1.36    1.95
  -2   3   2    3.76    1.53
   2  -3  -2    1.31    2.12
   2   3   2   -1.00    1.99
   2   3   2    1.79    2.06
   2   3   2    3.48    2.54
  -2  -3   2    2.21    2.14
  -2   3  -2    1.33    2.34
   2  -3  -2   -0.41    1.90
  -2  -4  -2 1533.93   47.81
  -2   4   2 1503.44   37.22
   2   4  -2 1483.83   50.11
  -2  -4  -2 1465.01   42.87
   2  -4   2 1451.43   49.01
   2  -4   2 1447.57   44.07
  -2  -4   2 1502.59   45.09
   2   4   2 1415.48   42.70
  -2   4  -2 1462.30   48.49
   2  -4  -2 1525.75   48.48
   2  -4  -2 1502.21   49.61
   2   4   2 1420.54   41.45
   2  -4  -2 1503.98   37.24
  -2  -5  -2   30.01    6.86
  -2  -5  -2   20.11    6.73
  -2   5   2   24.33    5.27
   2  -5   2   24.62    7.66
   2   5  -2   18.21    6.63
   2  -5   2   19.48    6.25
  -2  -5   2   25.53    7.40
   2  -5  -2   24.45    7.47
   2   5   2   23.29    5.85
   2  -5  -2   27.19    7.41
  -2   5  -2   27.79    7.42
  -2   6   2  620.84   25.95
   2  -6   2  610.51   34.58
   2   6  -2  619.34   34.82
  -2  -6  -2  615.72   32.93
   2  -6   2  634.48   29.62
  -2  -6  -2  637.24   27.85
  -2   6  -2  639.06   33.37
   2   6   2  656.30   29.55
   2  -6  -2  598.05   34.57
   2  -6  -2  653.07   32.60
  -2  -6   2  633.06   33.04
  -2   7   2   -0.37    3.47
   2   7  -2    5.11    4.94
   2  -7   2    1.01    4.32
  -2  -7  -2   -1.01    4.00
   2  -7   2   -6.65    3.69
  -2  -7   2   -1.93    4.07
   2   7   2    0.82    4.15
   2  -7  -2   -0.30    4.66
   2  -7  -2   -2.99    4.74
  -2   7  -2    5.44    4.32
   2  -8   2  171.92   19.56
  -2   8   2  154.37   14.73
  -2  -8  -2  141.01   19.12
   2   8  -2  161.92   19.57
   2  -8   2  109.92   13.96
  -2   8  -2  171.74   17.11
  -2  -8   2  131.68   18.50
   2  -8  -2  164.40   16.20
   2  -8  -2  137.21   18.14
   2   8   2  119.32   14.87
   2  -9   2    2.36    8.15
  -2  -9  -2   -6.05    7.28
   2   9  -2   18.46    7.85
  -2  -9  -2    7.47    8.26
   2  -9  -2   10.55    7.37
  -2  -9   2   -4.91    7.92
   2  -9  -2   -6.77    6.77
  -2   0   3    1.23    1.73
  -2   0   3    0.11    1.25
  -2   0  -3    1.17    1.31
  -2   0   3    1.04    1.19
  -2   0  -3    0.12    1.39
   2   0   3    1.68    1.22
   2   0   3    0.36    1.39
  -2   0   3    1.00    1.46
   2   0   3    1.50    1.57
   2   0  -3   -0.11    1.25
   2   0  -3    0.41    1.45
   2   0  -3   -0.30    1.11
  -2   0  -3    0.64    1.27
   2  -1   3 2598.85   62.31
  -2   1   3 2446.48   51.02
  -2   1   3 2390.49   57.93
   2   1  -3 2498.68   56.12
  -2  -1  -3 2430.38   61.00
  -2  -1  -3 2589.88   58.92
   2  -1   3 2433.84   60.86
   2   1  -3 2474.17   60.09
   2  -1   3 2490.98   62.03
   2   1  -3 2457.87   57.13
  -2   1   3 2537.40   61.39
   2  -1   3 2512.52   61.12
  -2  -1  -3 2514.91   61.80
   2  -1  -3 2545.30   50.97
  -2  -1   3 2628.68   58.11
  -2   1  -3 2404.70   61.38
  -2  -1   3 2596.01   60.10
   2  -1  -3 2585.89   62.38
  -2   1  -3 2422.01   61.22
   2  -1  -3 2510.49   58.81
   2   1   3 2447.13   60.66
  -2   1  -3 2483.92   61.45
   2  -1  -3 2532.82   51.20
  -2  -1   3 2380.87   55.19
   2   1   3 2523.99   57.72
   2   1   3 2416.71   60.86
   2  -2   3   33.59    5.77
   2   2  -3   16.12    4.59
   2   2  -3   26.87    3.40
   2  -2   3   28.89    5.07
  -2  -2  -3   25.89    4.73
  -2  -2  -3   27.73    6.13
   2  -2   3   29.93    4.95
  -2  -2  -3   30.74    4.50
  -2   2   3   33.19    4.80
   2   2  -3   21.76    4.63
   2   2   3   38.99    4.11
   2  -2  -3   29.71    5.09
  -2  -2   3   31.44    3.10
  -2  -2   3   28.54    4.66
   2  -2  -3   24.37    5.90
   2   2   3   29.49    6.16
  -2   2  -3   20.84    5.41
   2   2   3   23.96    5.56
   2   3  -3 2143.53   62.15
   2  -3   3 2146.52   60.86
   2  -3   3 2183.41   57.22
  -2  -3  -3 2169.29   58.15
   2   3  -3 2070.26   54.55
  -2  -3  -3 2134.16   59.26
   2  -3  -3 2180.15   60.07
   2   3   3 2155.36   53.06
  -2  -3   3 2173.33   56.34
   2  -3  -3 2177.91   61.01
   2   3   3 2134.61   53.39
  -2   3  -3 2096.98   61.87
  -2  -4  -3   27.88    6.78
   2  -4   3   29.48    6.82
   2   4  -3   21.55    6.73
  -2  -4  -3   36.23    8.29
   2  -4   3   29.74    8.25
   2  -4  -3   27.09    7.15
   2   4   3   33.60    6.76
  -2   4  -3   24.43    6.89
   2  -4  -3   28.54    7.27
  -2  -4   3   30.21    5.50
   2  -5   3   23.76    8.77
  -2  -5  -3   26.91    7.38
  -2  -5  -3   18.12    6.54
   2   5  -3   20.24    7.57
   2  -5   3   13.84    5.35
  -2  -5   3   24.41    7.38
   2  -5  -3   30.57    8.80
   2   5   3   22.21    6.32
  -2   5  -3   11.43    5.65
   2  -5  -3   17.70    6.69
   2  -6   3  194.91   16.13
  -2  -6  -3  217.51   17.29
  -2  -6  -3  209.97   19.62
   2   6  -3  238.93   21.29
   2  -6   3  219.15   20.88
  -2   6   3  230.77   12.16
   2  -6  -3  221.86   20.91
  -2  -6   3  230.14   19.86
   2  -6  -3  215.97   19.54
   2   6   3  257.60   16.64
  -2   6  -3  209.01   20.13
  -2   7   3  603.09   24.08
  -2  -7  -3  658.22   38.42
  -2  -7  -3  641.10   31.52
   2  -7   3  622.50   30.87
   2   7  -3  590.98   37.62
   2  -7   3  615.02   38.06
   2  -7  -3  606.09   34.95
  -2  -7   3  605.90   35.57
   2  -7  -3  622.70   38.63
  -2   7  -3  668.90   38.83
   2   7   3  658.93   30.76
   2   8  -3    9.94    6.90
  -2   8   3    0.09    5.08
  -2  -8  -3   14.37    5.94
  -2  -8  -3    2.87    6.05
   2  -8   3    9.47    6.89
   2  -8  -3   13.05    7.36
  -2   8  -3    4.69    6.89
  -2  -8   3    5.67    5.91
   2   9  -3  234.34   27.99
   2  -9   3  248.83   27.91
  -2  -9  -3  267.09   26.95
   2  -9  -3  244.06   26.56
   2  -9  -3  257.83   22.23
  -2  -9   3  223.69   25.06
  -2   9  -3  286.60   27.10
   2   9   3  255.23   21.70
  -2   0   4 4306.85   95.71
   2   0   4 4215.56   94.84
   2   0  -4 4384.19   91.55
  -2   0  -4 4277.12   98.76
   2   0  -4 4234.29   95.83
   2   0   4 4226.24   99.25
  -2   0  -4 4359.78   96.17
   2   0  -4 4301.70   95.35
  -2   0   4 4282.43   94.75
  -2   0   4 4298.74   93.86
  -2   0   4 4272.83   90.33
   2   1  -4  249.77   13.04
   2   1  -4  205.99   13.44
   2  -1   4  221.77   15.23
  -2  -1  -4  201.68   14.18
  -2  -1  -4  201.34   14.29
   2  -1   4  220.35   14.93
  -2   1   4  220.42   12.86
  -2  -1  -4  227.39   13.00
   2   1  -4  206.09   12.35
  -2   1   4  230.66    9.22
  -2  -1   4  206.65   13.04
   2  -1  -4  204.39   14.14
  -2  -1   4  198.10   11.79
  -2  -1   4  218.95   13.30
   2   1   4  216.05   12.09
  -2   1  -4  211.41   14.17
   2  -1  -4  223.17   13.70
   2   1   4  207.40   14.55
  -2   1  -4  205.98   14.11
   2  -1  -4  222.24    9.72
  -2  -1   4  205.75   12.52
   2   2  -4  106.29   10.71
  -2  -2  -4  115.12   10.85
  -2  -2  -4  121.12   11.26
   2  -2   4  121.45   11.62
  -2  -2  -4  111.96    8.72
   2   2  -4  109.81    8.21
   2  -2   4  109.08   10.17
   2   2  -4   98.98    9.18
  -2   2  -4   95.87   10.58
   2   2   4  125.84    8.48
  -2  -2   4  104.80    7.72
   2  -2  -4  112.67   11.20
   2  -2  -4  110.16   10.41
  -2  -2   4  106.61    9.56
   2  -3   4  327.01   18.77
   2  -3   4  323.21   20.37
   2   3  -4  325.15   20.98
   2   3  -4  333.93   13.64
  -2  -3  -4  334.52   15.89
  -2  -3  -4  320.93   20.02
  -2  -3  -4  332.78   19.64
  -2  -3   4  325.71   13.69
   2   3   4  318.27   15.87
  -2  -3   4  314.15   18.02
   2   3   4  311.25   15.06
  -2   3  -4  326.57   21.33
   2  -3  -4  301.36   19.78
  -2  -3   4  330.94   13.49
   2  -3  -4  333.34   20.09
  -2  -4  -4 2874.74   79.87
   2  -4   4 2861.33   81.14
   2   4  -4 2772.27   82.01
   2  -4   4 2889.94   74.81
  -2  -4  -4 2772.86   76.80
  -2   4  -4 2823.19   82.26
   2  -4  -4 2733.56   78.87
   2  -4  -4 2881.55   80.68
   2   4   4 2821.00   68.04
  -2  -4   4 2980.40   77.41
   2   4   4 2798.55   67.52
  -2  -5  -4   64.96   10.05
   2  -5   4   73.04   11.16
  -2  -5  -4   67.44   11.26
   2  -5   4   81.32   10.02
   2   5  -4   78.12   12.01
   2  -5  -4   74.40   11.45
  -2   5  -4   86.92   13.02
  -2  -5   4   62.98   10.03
   2   5   4   90.75    9.49
   2  -5  -4   82.74   11.81
  -2  -6  -4 1135.84   49.86
   2   6  -4 1157.36   52.92
   2  -6   4 1151.49   42.67
  -2  -6  -4 1173.14   46.13
   2  -6   4 1147.26   52.05
   2  -6  -4 1178.26   50.06
   2   6   4 1113.11   39.16
  -2  -6   4 1151.76   47.75
   2  -6  -4 1114.29   50.81
  -2   6  -4 1124.71   51.59
   2  -7   4   -7.48    4.44
  -2  -7  -4    4.04    5.68
   2   7  -4   -5.44    5.17
   2  -7  -4    0.40    5.44
   2   7   4    3.69    4.57
   2  -7  -4   -4.18    4.11
  -2   7  -4    0.80    5.89
  -2  -7   4   -4.75    5.67
  -2  -8  -4   65.39   16.52
   2  -8   4   66.65   17.45
   2   8  -4   89.07   19.34
   2  -8   4   47.32    7.82
  -2  -8  -4   60.72   13.47
   2  -8  -4   76.41   14.08
   2   8   4   89.60   10.57
  -2   8  -4  111.42   15.20
   2  -8  -4   73.83   17.62
  -2  -8   4  100.74   15.34
  -2   0  -5    1.96    2.39
   2   0  -5   -0.18    2.32
  -2   0  -5   -0.99    1.88
   2   0   5   -2.30    1.55
   2   0  -5    0.86    1.73
  -2   0   5    0.31    1.92
  -2   1   5 1085.99   29.51
   2  -1   5 1053.27   40.67
   2   1  -5 1152.83   38.17
  -2  -1  -5 1130.95   41.55
   2   1  -5 1111.69   36.65
  -2  -1  -5 1125.64   40.94
  -2  -1  -5 1153.06   36.40
   2  -1  -5 1128.56   38.71
   2  -1  -5 1113.12   30.18
  -2   1  -5 1079.88   38.77
   2   1   5 1080.07   34.61
   2   1   5 1073.83   40.79
  -2  -1   5 1110.23   38.04
  -2   1  -5 1151.06   40.34
   2  -1  -5 1050.01   39.39
   2   2  -5    0.28    3.07
   2   2  -5    0.36    2.00
   2  -2   5   -1.00    2.55
  -2  -2  -5    6.46    3.86
  -2  -2  -5    3.91    3.18
  -2  -2  -5    2.65    2.35
  -2   2  -5    3.72    2.53
   2  -2  -5    1.35    2.55
  -2   2  -5    0.18    2.88
   2  -2  -5    1.48    2.68
  -2  -3  -5 1503.35   41.40
   2  -3   5 1411.54   47.65
  -2  -3  -5 1506.70   51.65
  -2  -3  -5 1492.04   50.83
   2   3  -5 1362.91   39.85
   2   3  -5 1468.78   51.87
   2  -3   5 1507.48   52.65
  -2  -3   5 1413.15   39.55
  -2  -3   5 1483.85   48.12
   2   3   5 1386.86   39.75
  -2   3  -5 1444.60   52.78
   2  -3  -5 1368.90   48.93
   2  -3  -5 1407.63   51.51
   2  -4   5   10.58    5.61
  -2  -4  -5    9.49    4.63
   2  -4   5    8.87    4.76
  -2  -4  -5   15.67    6.09
   2   4  -5   14.90    6.10
   2  -4  -5   13.06    6.05
  -2  -4   5   17.86    4.19
  -2   4  -5   15.73    6.76
   2  -4  -5    7.70    5.09
  -2  -4   5   14.29    4.02
  -2  -4   5   14.98    6.26
   2   4   5   16.90    4.38
  -2  -5  -5    2.59    3.77
  -2  -5  -5   11.50    5.73
   2  -5   5    2.26    5.33
   2   5  -5    6.91    5.42
   2  -5   5   13.43    6.21
  -2  -5   5    7.27    5.31
   2  -5  -5    0.11    4.34
   2   5   5    2.96    3.99
   2  -5  -5   10.10    5.68
  -2   5  -5   13.14    5.47
   2   6  -5   84.98   13.95
  -2  -6  -5   64.49   14.17
  -2  -6  -5   61.59   12.81
   2  -6   5   72.91   15.33
   2  -6   5   59.56   11.72
  -2   6  -5   87.33   17.89
  -2  -6   5   59.36   13.43
   2   6   5   55.54    8.41
   2  -6  -5   65.44   11.83
   2  -6  -5   75.60   12.83
   2   7  -5  476.91   34.28
   2  -7   5  440.07   26.30
  -2  -7  -5  484.86   34.31
  -2  -7  -5  452.28   30.34
   2  -7   5  443.62   33.19
  -2  -7   5  437.22   30.89
  -2   7  -5  437.01   34.50
   2  -7  -5  448.06   32.36
   2  -7  -5  440.36   33.06
   2   7   5  428.99   22.38
   2   8  -5   20.47   11.40
   2  -8   5    8.18    7.79
   2  -8   5    8.61    8.74
  -2  -8  -5   22.01    7.75
  -2  -8  -5   36.16   11.15
   2  -8  -5   17.40   10.81
  -2   8  -5   30.35    8.23
  -2  -8   5   21.10    9.28
   2   8   5   14.94   11.45
   2  -8  -5   14.49    8.55
   2   0   6 1384.45   50.04
   2   0  -6 1407.49   42.38
   2   0  -6 1408.03   48.00
  -2   0   6 1342.49   48.33
  -2   0  -6 1376.10   49.20
  -2   0   6 1370.19   47.08
  -2   0  -6 1428.48   45.98
  -2   1   6    5.86    3.76
   2   1  -6    0.33    2.35
   2   1  -6    0.50    2.50
   2  -1   6    5.01    4.32
  -2  -1  -6    2.89    3.46
  -2  -1  -6    2.94    3.78
   2  -1  -6    3.10    3.57
   2   1   6   -1.44    2.70
  -2  -1   6   -3.49    2.73
  -2   1  -6   -3.62    2.73
  -2   1  -6    2.16    3.26
   2  -1  -6    2.03    3.01
   2  -1  -6    3.94    2.37
  -2  -2  -6  259.99   19.91
  -2  -2  -6  259.55   15.65
   2  -2   6  265.47   20.46
   2  -2   6  274.99   19.66
   2   2  -6  263.03   16.70
   2   2  -6  259.32   19.21
  -2  -2  -6  266.53   20.29
   2   2   6  256.09   20.22
  -2   2  -6  258.06   19.11
  -2   2  -6  260.39   19.95
  -2  -2   6  261.20   19.01
   2  -2  -6  266.63   19.43
   2  -2  -6  283.79   20.76
   2  -3   6    0.28    3.39
   2  -3   6   -2.85    2.60
  -2  -3  -6    5.05    1.96
  -2  -3  -6   -2.82    2.35
   2   3  -6    1.44    2.92
   2   3  -6    4.16    4.32
  -2  -3  -6    0.95    3.12
  -2   3  -6   -2.20    2.97
   2  -3  -6   -4.52    2.64
   2   3   6   -3.35    3.00
   2  -4   6  838.81   36.31
   2  -4   6  827.07   41.12
  -2  -4  -6  803.13   39.02
  -2  -4  -6  871.02   41.52
   2   4  -6  789.92   40.73
  -2   4  -6  807.90   41.46
  -2  -4   6  842.55   37.90
  -2  -4   6  773.15   28.06
   2   4   6  777.39   27.33
   2   4   6  784.45   28.16
   2  -4  -6  764.88   38.43
  -2  -4   6  793.37   29.16
   2  -4  -6  825.62   40.90
   2   5  -6  138.05   16.54
   2  -5   6  121.31   16.25
   2  -5   6  126.96   14.74
  -2  -5  -6  134.99   16.38
  -2  -5  -6  143.86   14.99
  -2  -5   6  114.17    9.71
   2  -5  -6  150.22   16.54
   2   5   6  141.57    9.65
   2  -5  -6  134.27   16.91
  -2  -5   6  109.53   15.47
  -2   5  -6   93.90   15.53
   2  -6   6  355.79   29.77
   2   6  -6  393.80   30.60
  -2  -6  -6  366.34   27.33
  -2  -6  -6  363.67   28.67
   2  -6   6  386.84   24.41
   2  -6  -6  368.54   29.37
   2  -6  -6  380.38   29.82
   2   6   6  367.29   17.61
  -2  -6   6  389.46   27.26
  -2   6  -6  411.88   31.20
  -2  -7  -6   29.36   11.33
  -2  -7  -6   12.37    7.39
   2  -7   6   19.03    8.88
   2   7  -6   15.87    9.52
  -2   7  -6   19.25    9.79
  -2  -7   6   21.51   10.33
   2  -7  -6   15.81    8.55
   2  -7  -6   31.79    9.74
   2   8  -6   44.80   14.58
   2  -8   6   27.86   13.88
  -2  -8  -6   67.65   17.46
  -2  -8  -6   59.92   12.14
  -2  -8   6   31.48   11.66
   2  -8  -6   69.86   16.50
   2  -8  -6   54.98   16.94
   2   0   7   -2.87    3.51
   2   0  -7    6.01    4.18
  -2   0  -7    2.49    2.46
  -2   0  -7    2.05    3.55
  -2   0   7   -2.46    3.45
  -2  -1  -7  158.87   16.27
  -2  -1  -7  149.00   13.52
  -2   1   7  188.82   10.97
   2  -1   7  151.54   16.48
   2   1  -7  165.15   14.74
   2   1  -7  163.32   14.69
  -2   1   7  159.54   15.99
   2   1   7  150.78   16.30
   2  -1  -7  150.17   15.06
  -2   1  -7  123.00   14.27
   2  -1  -7  155.17   11.46
   2  -1  -7  163.51   16.62
  -2   1  -7  160.06   15.61
  -2  -1   7  162.24   15.50
   2  -2   7   60.32    9.48
  -2  -2  -7   67.59   10.90
  -2  -2  -7   62.03   10.92
   2   2  -7   60.16    8.83
  -2  -2  -7   52.44    8.17
   2   2  -7   58.72   10.17
   2  -2   7   61.86   12.95
  -2   2  -7   55.53   10.01
  -2  -2   7   61.49   12.16
  -2   2  -7   43.60   10.64
   2   2   7   65.77   11.73
   2  -2  -7   68.77   11.55
   2  -2  -7   56.98   10.38
   2  -3   7  320.82   25.25
  -2  -3  -7  312.95   17.49
   2  -3   7  293.39   22.28
  -2  -3  -7  319.76   24.86
   2   3  -7  290.56   18.80
  -2  -3  -7  308.25   23.66
   2   3  -7  298.98   23.66
  -2  -3   7  280.41   21.90
   2  -3  -7  294.97   24.22
  -2   3  -7  286.26   23.54
   2  -3  -7  320.33   24.17
   2  -4   7   23.05    7.85
  -2  -4  -7   24.13    8.88
   2  -4   7   14.46    7.81
   2   4  -7   19.18    8.24
  -2  -4  -7   17.47    5.38
  -2  -4  -7   15.82    7.07
  -2  -4   7   12.84    5.80
   2  -4  -7   25.61    8.22
  -2  -4   7   13.59    6.64
  -2   4  -7   15.48    8.33
   2  -4  -7    8.59    5.77
  -2  -5  -7  249.94   22.91
  -2  -5  -7  242.22   23.87
   2  -5   7  300.26   26.69
   2  -5   7  252.58   21.16
   2   5  -7  255.33   24.98
  -2  -5   7  263.75   23.34
   2  -5  -7  279.28   23.89
  -2   5  -7  261.76   25.76
   2  -5  -7  289.62   24.97
   2   5   7  263.00   13.81
  -2  -6  -7   -3.60    5.48
  -2  -6  -7    9.81    7.27
   2  -6   7   -5.29    5.26
   2  -6   7   -5.75    5.24
   2   6  -7   -4.75    5.68
  -2  -6   7    3.56    5.31
  -2   6  -7   13.81    4.91
   2  -6  -7    9.16    6.33
   2  -6  -7   17.27    5.88
   2   7  -7  251.73   26.27
  -2  -7  -7  242.75   26.84
   2  -7   7  220.86   25.50
  -2  -7  -7  249.73   25.03
   2  -7  -7  228.85   25.32
  -2  -7   7  254.60   24.98
  -2   7  -7  232.55   24.82
   2  -7  -7  214.80   25.13
   2   0  -8  651.95   35.20
  -2   0  -8  665.58   33.25
   2   0  -8  670.88   29.99
   2   0   8  669.34   37.25
  -2   0   8  619.84   34.14
  -2   0  -8  734.23   37.92
  -2  -1  -8  166.06   17.45
   2  -1   8  140.51   17.28
   2   1  -8  162.29   16.12
  -2   1   8  146.03   16.73
  -2  -1  -8  151.68   14.78
   2   1  -8  141.76   14.73
  -2   1  -8  148.80   16.81
  -2   1  -8  158.86   16.46
   2   1   8  153.92   18.19
   2  -1  -8  150.27   12.30
  -2  -1   8  152.31   16.96
   2  -1  -8  146.37   16.69
   2   2  -8  741.58   34.04
   2  -2   8  723.52   38.04
  -2  -2  -8  721.46   31.32
  -2   2   8  734.99   38.79
   2   2  -8  746.51   37.56
   2  -2   8  709.03   40.13
  -2  -2  -8  737.17   40.06
  -2  -2  -8  752.89   41.04
   2   2   8  716.37   40.49
  -2  -2   8  751.70   38.31
  -2   2  -8  715.27   37.91
   2  -2  -8  745.66   38.83
   2  -2  -8  678.91   38.75
  -2   2  -8  745.27   38.11
   2  -3   8   17.79    7.10
   2   3  -8   23.19    6.12
   2   3  -8   29.04    9.23
  -2  -3  -8   23.39    8.55
  -2  -3  -8   23.85    8.25
  -2  -3  -8   18.77    6.44
   2  -3   8   15.59    8.61
   2   3   8   37.24    6.86
  -2  -3   8   25.69    9.55
   2  -3  -8   15.43    7.53
  -2   3  -8   18.84    7.17
   2  -3  -8   10.48    7.08
  -2  -4  -8  124.86   16.90
   2  -4   8   96.36   15.01
   2  -4   8  131.22   17.84
   2   4  -8  110.73   12.13
   2   4  -8  118.22   16.58
  -2  -4  -8   99.71   16.06
   2  -4  -8  115.67   16.46
   2  -4  -8   91.84   15.32
  -2   4  -8  128.69   17.92
   2   4   8  106.90   10.40
   2   4   8   84.45   12.03
  -2  -4   8  107.02   15.88
  -2  -4   8  119.57   13.48
  -2  -5  -8    4.18    5.58
   2   5  -8   -1.37    5.59
   2  -5   8    5.44    6.90
  -2  -5  -8    5.20    5.78
   2  -5  -8    4.40    7.52
   2  -5  -8    4.05    5.16
  -2  -5   8   14.24    4.56
  -2   5  -8   -4.41    4.69
   2  -6   8   74.46   15.24
   2  -6   8   72.53   19.43
  -2  -6  -8   95.12   16.81
   2   6  -8   86.26   18.51
  -2  -6  -8   95.20   16.43
  -2   6  -8   73.96   19.10
   2  -6  -8   74.95   17.76
  -2  -6   8   80.55   15.05
   2  -6  -8  117.60   18.74
  -2  -7  -8    5.82    7.91
   2  -7   8   -1.39    7.52
   2   7  -8    5.64    8.93
  -2  -7  -8   -0.81    8.28
   2  -7   8    6.53    8.28
   2  -7  -8   -5.67    5.72
  -2  -7   8   -6.72    7.95
  -2   7  -8    4.02    7.92
  -2   0   9    4.80    3.63
   2   0  -9    1.73    4.91
  -2   0  -9    1.86    3.56
   2   0  -9   -0.71    4.11
  -2   0  -9    9.62    5.29
   2  -1   9  117.28   16.15
  -2  -1  -9  115.87   16.21
   2   1  -9  116.69   13.96
  -2  -1  -9  111.51   13.04
  -2   1   9  143.51   17.37
   2   1  -9  154.10   15.41
   2  -1  -9  104.71   15.63
   2   1   9   98.02   15.77
  -2   1  -9   91.98   14.19
   2  -1  -9  123.47   11.64
  -2  -1   9  106.82   15.65
  -2   1  -9  121.25   16.50
  -2  -2  -9   10.55    6.91
   2  -2   9    9.90    7.56
  -2   2   9    9.04    6.34
  -2  -2  -9    5.86    4.84
   2   2  -9    3.91    5.54
   2  -2   9   18.73    4.86
   2   2  -9    9.95    6.46
   2  -2  -9   15.68    8.99
  -2  -2   9    4.90    5.96
  -2   2  -9    2.83    6.27
  -2   2  -9    7.59    6.15
   2   2   9   13.54    5.63
   2  -2  -9    4.48    4.98
  -2  -3  -9  239.64   23.88
  -2   3   9  242.85   24.11
   2   3  -9  234.75   20.08
   2   3  -9  220.68   22.88
  -2  -3  -9  222.48   22.85
   2  -3   9  236.50   23.80
   2  -3   9  252.16   21.22
  -2  -3   9  221.23   23.25
   2  -3  -9  255.36   23.93
  -2   3  -9  240.16   23.48
   2   3   9  268.57   23.97
   2  -3  -9  234.20   24.11
   2  -4   9  110.36   15.46
   2   4  -9   70.07   11.60
  -2  -4  -9   91.94   15.07
   2   4  -9  106.00   15.93
  -2  -4  -9  112.52   15.64
   2  -4   9  108.25   15.16
  -2   4  -9   72.74   16.97
   2   4   9  110.40   17.41
  -2  -4   9   93.33   18.46
   2  -4  -9   86.67   15.42
  -2  -4   9   79.89   12.40
   2  -4  -9   97.38   15.47
   2  -5   9  350.06   31.79
   2   5  -9  343.66   30.69
  -2  -5  -9  392.69   33.38
   2  -5   9  378.81   27.33
  -2  -5  -9  355.91   31.08
  -2   5  -9  362.49   32.33
   2  -5  -9  379.02   32.57
  -2  -5   9  347.14   30.46
   2  -5  -9  385.38   33.19
   2   6  -9   14.37   10.41
  -2  -6  -9    0.57    7.44
  -2  -6  -9   -2.46    6.86
   2  -6   9    4.05    9.08
   2  -6  -9    3.41    7.92
   2  -6  -9    1.76    8.80
  -2   6  -9   24.94    7.93
  -2  -6   9   32.55   11.47
  -2   0 -10  430.96   33.10
  -2   0  10  453.97   31.64
   2   0 -10  482.41   26.99
   2   0  10  486.73   33.04
   2   0 -10  506.24   33.20
  -2   0 -10  459.29   30.13
  -2  -1 -10   25.77    8.50
   2   1 -10   24.76    8.85
   2  -1  10   24.69   10.27
   2   1 -10   26.30   10.00
  -2  -1 -10   40.99    9.54
   2   1  10   27.36   10.62
  -2   1 -10   34.66   10.00
   2  -1 -10   40.20   10.43
  -2   1 -10   40.61   11.73
  -2  -1  10   25.85   11.41
  -2  -2 -10  313.43   21.97
   2   2 -10  313.98   24.99
   2  -2  10  287.35   25.75
  -2  -2 -10  304.44   28.16
   2   2 -10  327.77   26.83
   2  -2  10  309.24   28.23
  -2   2  10  333.61   26.84
  -2   2 -10  285.02   25.61
   2  -2 -10  288.40   27.26
   2   2  10  295.57   28.60
  -2   2 -10  308.25   26.91
  -2  -2  10  306.74   27.27
  -2  -3 -10    9.34    4.65
  -2   3  10    8.12    5.43
   2   3 -10   -0.98    5.74
   2   3 -10    2.37    4.58
  -2  -3 -10    9.91    7.05
   2  -3  10   -8.25    6.03
   2  -3  10   -3.54    6.27
   2  -3 -10    2.06    6.50
   2  -3 -10   -1.20    4.90
  -2   3 -10    6.72    6.23
   2  -4  10  201.58   22.05
   2   4 -10  173.63   18.65
   2   4 -10  168.43   21.73
   2  -4  10  191.15   24.80
  -2  -4 -10  159.83   22.50
  -2  -4 -10  202.79   24.56
   2  -4 -10  221.06   23.70
  -2  -4  10  187.10   22.75
   2   4  10  237.77   23.82
   2  -4 -10  172.95   23.34
  -2  -4  10  188.70   19.88
  -2   4 -10  194.61   23.44
  -2  -5 -10   -2.53    7.58
   2   5 -10    6.02    8.33
   2  -5  10   17.87    6.02
   2  -5  10    8.99    7.20
  -2   5 -10    5.45    7.83
  -2  -5  10    9.95    7.61
   2   5  10   -0.24    6.67
   2  -5 -10   -1.72    7.61
   2  -5 -10    6.23    7.41
   2   0 -11   -6.16    5.79
   2   0  11   -6.28    6.46
  -2   0  11   -6.04    6.42
  -2   0 -11    3.99    7.30
  -2   0 -11   -5.85    5.91
   2   1 -11  198.41   20.64
  -2   1  11  191.08   23.62
  -2  -1 -11  226.33   25.10
   2  -1  11  179.81   23.71
   2   1 -11  196.44   21.77
  -2  -1 -11  194.57   19.96
  -2   1 -11  207.97   22.79
   2   1  11  198.17   23.43
   2  -1 -11  240.33   24.33
  -2   1 -11  201.06   22.52
  -2  -1  11  234.14   22.09
  -2   2  11   -0.49    7.22
   2   2 -11   -6.53    6.35
  -2  -2 -11   -2.85    6.15
   2  -2  11    2.08    6.77
   2   2 -11   -0.99    7.02
   2  -2  11   -0.96    6.52
  -2   2 -11   -1.92    7.05
   2   2  11    3.61    6.45
   2  -2 -11    6.39    7.44
  -2  -2  11    3.50    6.52
   2   3 -11  202.52   24.62
  -2  -3 -11  195.80   23.45
   2  -3  11  192.38   24.31
  -2   3  11  191.58   23.31
   2  -3  11  241.70   26.01
   2   3 -11  217.98   19.96
   2  -3 -11  205.68   23.89
  -2   3 -11  235.72   25.22
   2  -3 -11  198.65   25.14
   2   3  11  277.07   26.66
  -2  -3  11  208.44   24.54
   2   4 -11   -1.57    8.90
  -2  -4 -11   -2.09    7.94
   2  -4  11   14.74    8.25
  -2  -4 -11   14.54    8.48
   2  -4 -11    0.40    6.34
   2  -4 -11    9.93    7.94
   2   4  11   -1.63    8.42
  -2   0 -12  137.76   21.73
  -2   0 -12  176.53   17.74
  -2   0  12  113.45   20.17
   2   0  12  124.10   22.40
   2   0 -12  185.53   22.38
   2  -1  12   -9.96    5.67
   2  -1  12   11.26    6.07
  -2  -1 -12   12.54    9.97
   2   1 -12  -10.72    7.01
  -2   1  12    2.15    8.14
   2   1 -12    8.46    8.24
  -2  -1 -12   17.27    7.06
   2  -1 -12   -7.39    7.95
   2   1  12   -0.90    8.33
   2  -1 -12   -9.86    8.36
  -2   1 -12   -1.02    9.11
  -2  -1  12   14.87    8.62
  -2   1 -12    5.57    8.56
  -2   2  12   26.39   11.55
  -2  -2 -12   45.98   12.24
   2   2 -12   14.92    9.47
  -2   2 -12   32.55   11.39
   2   2  12   31.61   12.05
  -2  -2  12    8.76   10.86
   2  -2 -12   33.73   13.76
  -2   2 -12   15.57    9.95
  -3   0   0    4.66    1.81
  -3   0   0    5.67    2.01
   3   0   0    1.49    1.36
  -3   0   0    4.42    1.07
   3   0   0    2.76    0.95
   3   0   0    0.36    1.22
   3  -1   0 2876.81   60.50
  -3   1   0 2869.98   64.80
  -3  -1   0 2841.42   59.49
  -3  -1   0 2835.80   64.76
   3   1   0 2842.33   59.51
   3   1   0 2881.19   64.78
  -3  -1   0 2805.80   55.13
   3  -1   0 2855.57   62.81
  -3   1   0 2750.76   62.76
   3  -1   0 2702.51   64.29
  -3   1   0 2859.94   60.29
   3  -2   0  268.48   14.78
   3  -2   0  267.08   13.21
  -3   2   0  282.63   13.90
  -3  -2   0  286.54   11.23
   3  -2   0  274.04   13.87
   3   2   0  271.17    9.91
   3   2   0  249.48   14.23
  -3   2   0  271.64   13.21
   3   2   0  267.89    9.73
  -3   2   0  258.38   14.52
   3   2   0  264.00   10.75
   3   2   0  278.07   14.76
   3  -3   0 2883.24   72.34
   3   3   0 2851.67   65.51
  -3  -3   0 2814.84   65.85
   3  -3   0 2842.57   71.36
   3   3   0 2819.30   72.05
  -3   3   0 2905.51   68.02
   3  -3   0 2938.63   68.38
  -3  -3   0 2916.97   58.05
   3  -4   0    6.41    3.31
   3  -4   0    4.25    2.60
  -3  -4   0    1.29    2.55
  -3   4   0   -0.80    2.42
   3   4   0    1.62    2.95
   3  -5   0   21.51    6.69
   3   5   0   27.38    7.74
   3  -5   0   22.59    7.36
  -3   5   0   19.07    5.83
  -3  -5   0   29.63    7.24
   3  -6   0  131.52   15.57
  -3  -6   0  128.61   14.18
   3   6   0  135.83   14.08
  -3   6   0  122.10   13.13
   3  -6   0  113.49   13.38
   3  -7   0  584.95   36.59
   3   7   0  533.43   32.77
  -3   7   0  530.67   29.44
   3  -7   0  524.20   31.28
  -3  -7   0  530.51   32.17
   3  -8   0    3.84    6.23
  -3  -8   0    0.86    5.66
   3  -8   0   -2.71    6.15
   3  -9   0   -5.28    6.53
   3  -9   0    4.50    7.33
  -3  -9   0   10.87    7.24
   3   9   0   11.76    7.71
  -3   0   1 9999.00  180.71
   3   0   1 9350.60  177.12
  -3   0  -1 9192.93  182.54
   3   0   1 8745.20  181.64
   3   0  -1 9447.27  180.51
   3   0  -1 9449.34  180.22
  -3   0  -1 9570.15  181.74
   3   0   1 9739.77  182.27
  -3   0   1 9391.25  180.74
  -3   0  -1 8881.85  177.46
   3   1  -1  190.94   11.03
  -3   1   1  183.98   10.95
  -3   1   1  192.90    9.53
  -3  -1  -1  189.15   11.25
   3  -1   1  177.22   11.11
   3  -1   1  193.02   11.25
  -3   1   1  207.13    9.40
   3   1  -1  187.84    8.43
   3   1  -1  183.03   11.13
  -3  -1  -1  197.95    9.11
   3  -1   1  197.50   10.06
  -3   1  -1  182.22   11.01
  -3  -1   1  198.34   11.36
   3   1   1  201.16   10.27
   3   1   1  198.65   10.17
  -3   1  -1  193.66   11.40
   3  -1  -1  183.17   11.23
   3  -1  -1  194.69    9.57
   3   1   1  177.06   10.87
  -3   1  -1  189.85    9.92
   3   1   1  192.92    8.74
  -3  -1   1  203.99    8.55
   3  -1  -1  190.71    9.17
   3   2  -1  406.56   18.94
  -3  -2  -1  423.69   15.99
  -3   2   1  426.04   15.38
  -3  -2  -1  422.73   18.65
   3   2  -1  424.52   19.52
   3   2  -1  418.53   13.58
  -3  -2  -1  420.32   15.58
   3  -2   1  422.39   18.65
   3  -2   1  433.88   19.26
   3  -2   1  427.34   18.49
  -3   2   1  400.91   18.56
  -3   2   1  418.24   17.52
  -3  -2   1  419.81   13.93
   3   2   1  403.09   18.10
   3  -2  -1  420.46   17.68
   3   2   1  405.99   15.33
   3   2   1  417.55   15.83
  -3  -2   1  406.25   18.84
  -3   2  -1  432.83   18.94
   3  -2  -1  423.17   15.60
  -3   2  -1  402.21   18.04
   3   2   1  405.61   18.64
  -3   2  -1  422.00   18.68
   3  -2  -1  386.91   18.92
   3  -3   1   -0.17    1.50
  -3  -3  -1    2.01    2.27
  -3  -3  -1   -0.57    1.37
   3   3  -1   -1.27    1.67
   3  -3   1    2.83    2.70
   3   3  -1    2.39    2.64
  -3   3   1    2.06    1.85
  -3  -3   1    0.44    1.52
  -3   3  -1    3.05    2.41
   3  -3  -1   -0.53    1.50
   3  -3  -1   -1.01    1.72
   3   3   1    1.62    1.26
   3   3   1    4.06    2.01
   3   3   1    1.68    2.28
   3  -3  -1    1.57    1.85
   3  -4   1  179.69   14.17
   3   4  -1  159.77   14.53
  -3  -4  -1  188.70   10.47
  -3  -4  -1  195.41   13.84
  -3   4   1  191.65   11.79
   3  -4   1  186.90   15.21
   3  -4  -1  185.96   12.27
   3  -4  -1  192.89   15.22
   3   4   1  182.45   10.23
   3   4   1  175.04   14.00
  -3  -4   1  177.93   12.77
   3  -4  -1  193.33   15.35
  -3   4  -1  192.88   14.56
  -3  -5  -1   12.30    4.06
   3   5  -1   14.38    5.44
   3  -5   1    9.30    4.96
  -3  -5  -1    7.52    4.35
  -3   5   1   10.22    4.27
   3  -5   1   13.37    5.83
   3  -5  -1    7.70    4.72
   3  -5  -1    8.98    5.32
  -3   5  -1    6.48    4.23
   3   5   1   13.20    5.29
   3   5   1   11.80    3.85
  -3  -5   1   10.45    5.06
  -3   6   1  141.03   13.08
  -3  -6  -1  172.26   16.71
   3  -6   1  199.79   17.42
  -3  -6  -1  174.18   11.45
   3  -6   1  172.75   18.07
   3   6  -1  173.86   17.41
  -3   6  -1  185.66   16.66
   3   6   1  163.80   11.20
  -3  -6   1  167.37   15.92
   3  -6  -1  183.76   18.35
   3   6   1  172.28   16.73
   3  -6  -1  174.57   16.67
  -3  -7  -1    7.77    6.40
  -3   7   1   14.92    5.12
   3   7  -1    3.28    5.63
   3  -7   1   10.90    7.05
   3  -7   1    2.72    4.99
   3  -7  -1   14.06    7.52
  -3   7  -1   13.76    7.14
   3  -7  -1    7.70    6.11
  -3  -7   1    1.19    5.27
  -3   8   1  124.09   12.78
   3  -8   1   77.93   13.88
  -3  -8  -1   79.31   14.46
   3   8  -1   97.63   15.46
   3  -8   1   86.03   15.76
  -3  -8   1   96.35   15.38
  -3   8  -1  104.68   15.10
   3  -8  -1  117.88   13.77
   3   8   1  110.73   13.96
   3  -8  -1   74.20   17.31
   3   9  -1   25.77    7.44
   3  -9   1   23.32    6.91
  -3   9   1   27.98    6.39
  -3  -9   1    9.49    8.13
   3   9   1   15.40    6.70
  -3   9  -1   23.01    7.50
   3   0   2   -0.26    1.03
  -3   0   2    0.14    0.97
   3   0  -2   -0.22    0.85
   3   0   2   -2.05    1.51
   3   0  -2    0.05    1.35
   3   0   2   -0.94    0.93
  -3   0  -2   -0.51    1.23
  -3   0   2   -0.82    1.31
   3   0  -2   -0.60    0.95
   3   1  -2 1970.76   41.11
  -3  -1  -2 1963.06   49.43
  -3   1   2 1891.14   43.39
  -3   1   2 1918.65   49.75
  -3   1   2 1994.19   45.45
  -3  -1  -2 2002.04   49.21
   3  -1   2 1911.80   50.22
   3  -1   2 1942.99   50.23
  -3  -1  -2 1961.75   47.77
   3   1  -2 1882.29   43.56
   3  -1   2 1885.06   48.45
   3   1  -2 1903.87   49.55
   3  -1   2 1857.93   49.51
   3   1   2 1926.14   49.37
   3   1   2 1905.55   48.81
   3  -1  -2 1859.19   43.53
   3   1   2 1883.25   48.44
   3  -1  -2 1911.78   45.23
  -3   1  -2 1944.45   50.24
   3   1   2 1905.15   47.40
   3  -1  -2 1931.22   43.61
  -3  -1   2 1906.00   43.45
  -3   1  -2 1864.08   50.22
   3   1   2 1889.71   46.75
  -3   1  -2 1913.05   48.73
  -3  -1   2 1958.52   49.34
  -3  -1   2 1964.19   40.72
   3  -1  -2 1939.11   50.30
  -3  -1   2 2015.17   41.10
   3   2  -2    2.92    2.66
  -3  -2  -2    3.37    2.17
  -3   2   2    2.81    1.54
   3  -2   2    8.97    2.73
  -3   2   2    6.20    2.51
  -3  -2  -2    5.47    2.36
   3  -2   2    4.85    2.91
  -3  -2  -2    5.68    2.79
   3   2  -2    3.67    1.84
   3   2   2    6.90    2.70
   3  -2  -2    4.43    1.75
   3  -2  -2    3.64    2.29
   3  -2  -2    4.78    2.75
   3   2   2   -0.35    2.55
  -3  -2   2    6.72    1.65
   3   2   2    7.68    2.59
  -3   2  -2    6.00    3.45
  -3   2  -2    7.29    3.33
   3   3  -2 3724.80   81.78
   3   3  -2 3861.99   93.32
  -3   3   2 3795.01   77.09
   3  -3   2 3823.48   91.93
  -3  -3  -2 3714.12   86.86
  -3  -3  -2 3804.30   84.51
   3  -3   2 3698.72   89.03
   3  -3  -2 3834.33   90.15
   3  -3  -2 3807.99   92.35
  -3  -3   2 3713.82   82.75
   3   3   2 3632.25   83.58
   3   3   2 3743.57   87.71
   3  -3  -2 3761.35   77.76
  -3   3  -2 3875.86   92.10
   3  -4   2    2.37    3.00
   3  -4   2   16.05    5.31
  -3   4   2    3.93    2.40
  -3  -4  -2    9.63    3.45
   3   4  -2   -0.48    2.88
  -3  -4  -2    6.19    3.20
   3  -4  -2    5.04    2.90
  -3   4  -2    4.89    3.52
   3   4   2    8.12    3.78
  -3  -4   2    4.42    3.15
   3  -4  -2    2.81    3.64
   3  -4  -2   13.27    4.83
  -3  -5  -2  543.03   23.34
   3  -5   2  550.50   27.49
   3  -5   2  535.44   30.35
   3   5  -2  547.77   30.74
  -3   5   2  528.62   20.95
  -3  -5  -2  510.72   27.43
   3  -5  -2  534.98   29.32
  -3  -5   2  559.07   26.81
   3  -5  -2  526.46   21.04
   3  -5  -2  535.26   29.92
  -3   5  -2  567.19   29.93
   3   5   2  520.83   26.88
   3  -6   2   -2.83    3.68
   3   6  -2    6.86    5.76
   3  -6   2    7.37    4.93
  -3   6   2   -3.33    3.20
  -3  -6  -2    2.29    4.08
  -3  -6   2    9.22    4.76
   3   6   2   -1.74    4.13
   3  -6  -2    4.05    5.11
  -3   6  -2    7.10    4.29
   3  -6  -2    4.37    4.54
   3   7  -2  481.04   32.81
  -3  -7  -2  515.81   31.75
   3  -7   2  467.12   28.44
  -3   7   2  446.69   22.72
   3  -7   2  469.27   32.79
  -3   7  -2  440.90   30.21
   3  -7  -2  474.78   30.02
   3  -7  -2  446.89   31.03
   3   7   2  447.16   27.92
  -3  -7   2  480.31   30.01
   3  -8   2    0.11    6.52
  -3   8   2   -1.63    5.48
  -3  -8  -2   -3.07    4.98
   3  -8   2    9.66    5.14
   3   8  -2  -11.25    6.19
   3  -8  -2   -7.07    5.23
  -3  -8   2    2.21    5.29
   3  -8  -2    5.03    7.73
  -3   8  -2   -4.62    6.72
   3   9  -2  197.12   23.51
  -3  -9  -2  162.81   21.67
   3  -9   2  204.57   26.08
   3  -9  -2  219.90   22.00
   3  -9  -2  174.19   24.83
   3   9   2  200.40   20.77
  -3  -9   2  162.79   22.46
   3   0   3 3415.42   78.59
   3   0  -3 3427.94   76.27
   3   0  -3 3379.00   73.69
   3   0   3 3301.99   77.57
  -3   0   3 3317.87   72.60
   3   0   3 3256.18   77.96
   3   0   3 3344.06   79.22
  -3   0  -3 3351.11   79.59
  -3   0  -3 3411.54   79.26
   3   0   3 3315.75   79.20
  -3   0   3 3379.80   75.85
  -3   0  -3 3272.57   78.87
  -3   0   3 3406.81   73.71
  -3   0   3 3336.22   71.03
   3   0  -3 3392.07   73.46
   3   0  -3 3356.43   72.13
   3   1  -3   44.39    5.02
   3  -1   3   36.71    5.92
   3   1  -3   41.38    6.08
  -3   1   3   49.99    7.00
  -3  -1  -3   45.44    6.37
  -3  -1  -3   49.52    6.48
  -3   1   3   43.68    5.62
  -3  -1  -3   43.07    6.01
   3  -1   3   39.60    6.12
  -3  -1   3   36.39    5.53
  -3  -1   3   46.96    4.72
  -3   1  -3   37.65    5.90
  -3   1  -3   43.96    6.60
   3   1   3   34.25    5.47
   3  -1  -3   41.35    4.24
   3  -1  -3   50.43    5.65
   3  -1  -3   45.44    4.43
   3  -1  -3   47.33    6.41
  -3  -1   3   43.69    4.90
   3   1   3   42.70    6.02
   3   1   3   41.99    6.12
   3   1   3   35.15    5.76
  -3  -1   3   42.30    4.81
  -3  -2  -3 3533.48   82.86
   3   2  -3 3480.82   84.99
  -3   2   3 3591.85   89.93
   3  -2   3 3388.49   84.03
   3   2  -3 3388.47   74.98
  -3  -2  -3 3418.89   82.04
  -3  -2  -3 3453.60   80.47
   3  -2   3 3446.82   83.51
   3   2  -3 3455.06   71.64
   3  -2  -3 3487.94   85.46
  -3  -2   3 3537.79   75.31
  -3  -2   3 3579.68   71.64
   3   2   3 3497.14   80.08
   3   2   3 3525.76   93.15
   3  -2  -3 3559.01   81.25
  -3   2  -3 3386.64   85.00
  -3  -3  -3  107.41   10.51
  -3  -3  -3  112.02   10.25
   3  -3   3   95.75   10.69
   3  -3   3  112.20   11.01
  -3  -3  -3  103.34    9.61
   3   3  -3   94.34   11.11
   3   3  -3   97.68    8.73
  -3   3  -3  101.35   11.28
   3  -3  -3  110.82   10.68
   3  -3  -3  103.71   11.22
   3   3   3  115.99    9.99
  -3  -3   3  102.05    9.05
   3  -4   3 1488.06   49.08
  -3  -4  -3 1580.62   51.09
   3  -4   3 1544.68   53.84
  -3  -4  -3 1536.87   47.19
   3   4  -3 1515.91   53.85
  -3   4  -3 1561.41   53.61
  -3  -4   3 1589.51   47.36
   3   4   3 1545.94   47.23
   3  -4  -3 1564.99   53.54
   3  -4  -3 1519.89   51.88
  -3  -5  -3   85.69    9.64
  -3  -5  -3   64.90   10.12
   3   5  -3   59.95   12.57
   3  -5   3   58.00   10.55
   3  -5   3   73.47    9.56
   3  -5  -3   69.76   11.02
  -3   5  -3   58.60   11.03
   3  -5  -3   65.72   10.37
  -3  -5   3   86.19   10.27
   3   5   3   75.82    8.89
   3  -6   3 1560.20   61.98
   3   6  -3 1553.30   62.06
  -3  -6  -3 1569.28   58.57
  -3  -6  -3 1608.86   52.04
   3  -6   3 1561.02   54.63
  -3   6  -3 1647.22   61.62
  -3  -6   3 1557.08   55.42
   3  -6  -3 1573.53   60.53
   3  -6  -3 1594.45   59.92
   3   6   3 1628.95   53.69
  -3   7   3   18.00    5.34
   3  -7   3   26.81    8.34
  -3  -7  -3   42.99   10.90
   3  -7   3   30.21    8.45
  -3  -7  -3   23.99    7.24
   3   7  -3   10.17    7.88
   3  -7  -3   45.56    8.51
  -3   7  -3   20.37    7.37
   3   7   3   26.36    8.00
   3  -7  -3   29.36    9.10
  -3  -7   3   10.36    7.38
   3   8  -3  242.53   24.91
  -3  -8  -3  269.91   25.58
   3  -8   3  269.77   22.05
   3  -8   3  243.69   25.85
   3   8   3  237.49   21.57
   3  -8  -3  252.63   23.88
  -3  -8   3  263.45   25.07
   3  -8  -3  247.99   25.17
  -3   8  -3  262.09   25.25
   3   0  -4   -0.89    1.59
   3   0   4    0.31    2.45
  -3   0   4    0.07    1.46
  -3   0   4    5.01    1.82
   3   0  -4    1.74    1.74
  -3   0  -4    0.28    2.04
  -3   0  -4   -0.16    1.84
   3   0  -4    0.29    2.15
  -3   0   4    1.05    1.81
  -3   0   4   -1.89    2.39
   3   0   4   -0.81    1.60
   3   1  -4 4903.03  100.42
   3  -1   4 4703.35  107.41
   3   1  -4 4618.14  103.33
  -3  -1  -4 4575.39  106.58
  -3  -1  -4 4622.61  103.54
  -3  -1  -4 4425.62  106.02
  -3   1   4 4545.62   99.90
   3  -1   4 4483.56  106.17
   3  -1  -4 4428.13   92.42
   3  -1  -4 4597.65   93.50
   3  -1  -4 4588.92  105.99
  -3   1  -4 4576.12  106.62
  -3  -1   4 4682.37   98.90
   3   1   4 4640.17  106.79
  -3  -1   4 4561.21   97.95
   3  -1  -4 4599.54  101.28
  -3  -1   4 4682.82   99.73
  -3   1  -4 4470.39  106.16
   3   2  -4   49.19    7.56
   3   2  -4   43.84    5.23
   3   2  -4   40.74    5.74
  -3  -2  -4   45.44    6.56
   3  -2   4   38.30    6.97
  -3  -2  -4   44.42    7.04
  -3  -2  -4   45.86    7.32
   3  -2   4   39.61    8.32
  -3  -2   4   39.55    5.98
   3   2   4   43.53    7.84
  -3  -2   4   46.99    4.86
   3  -2  -4   45.92    7.60
   3  -2  -4   44.03    6.90
  -3   2  -4   42.04    7.27
  -3  -3  -4 2080.26   55.68
   3  -3   4 1996.35   62.16
  -3  -3  -4 2084.00   60.26
  -3  -3  -4 2082.34   61.33
   3   3  -4 2002.65   45.96
   3  -3   4 2064.79   60.33
   3   3  -4 2034.51   63.34
   3  -3  -4 2040.02   60.05
   3  -3  -4 2014.79   63.01
  -3  -3   4 2061.69   55.23
  -3  -3   4 2000.57   45.59
  -3   3  -4 2055.97   64.07
   3  -4   4   68.06    9.24
  -3  -4  -4   73.63    9.80
   3   4  -4   55.51   10.19
  -3  -4  -4   62.72    9.84
   3  -4   4   57.47   10.13
  -3  -4   4   66.17    8.13
   3  -4  -4   72.90   10.83
   3  -4  -4   65.59   10.16
  -3   4  -4   66.44   10.80
   3   4   4   48.53    7.96
  -3  -5  -4  753.90   36.62
   3  -5   4  675.43   32.42
   3  -5   4  679.70   36.94
  -3  -5  -4  712.27   33.05
   3   5  -4  709.64   38.18
   3  -5  -4  723.71   37.37
   3  -5  -4  699.64   36.53
  -3   5  -4  703.05   37.68
  -3  -5   4  755.55   33.64
   3   5   4  736.08   29.94
  -3  -6  -4    6.21    5.40
   3  -6   4    5.71    5.76
  -3  -6  -4   10.43    4.57
   3   6  -4    2.95    6.03
   3  -6   4    4.01    5.02
   3  -6  -4   15.10    5.30
   3   6   4    6.99    5.22
  -3  -6   4   13.48    4.65
  -3   6  -4    2.13    5.07
   3  -6  -4    5.63    6.06
   3  -7   4  175.52   20.13
  -3  -7  -4  144.94   16.58
   3  -7   4  210.41   17.03
  -3  -7  -4  183.32   20.38
   3   7  -4  177.14   21.72
   3   7   4  178.40   15.75
   3  -7  -4  166.98   19.27
  -3  -7   4  154.31   18.12
   3  -7  -4  185.29   21.07
  -3   7  -4  190.74   20.85
  -3  -8  -4  -10.29    6.42
   3  -8   4   13.88    7.69
   3   8  -4    1.74    7.47
  -3  -8  -4   13.62    6.01
   3   8   4   -4.36    7.05
   3  -8  -4   12.07    5.83
  -3   8  -4   12.81    9.36
  -3  -8   4    6.83    5.64
  -3   0  -5  208.08   15.31
   3   0  -5  188.79   12.58
  -3   0  -5  185.56   15.34
   3   0   5  188.04   15.67
   3   0  -5  186.81   14.14
  -3   0   5  193.10   12.03
  -3   0   5  195.23   14.04
   3  -1   5   59.74    9.01
   3   1  -5   82.65    9.45
   3   1  -5   72.84    8.47
  -3  -1  -5   81.29    9.10
  -3  -1  -5   94.01   10.95
   3  -1   5   91.00   11.06
   3  -1  -5   80.62    6.87
  -3   1  -5   86.59   10.57
  -3   1  -5   76.49   10.02
   3  -1  -5   90.92   10.43
   3   1   5   90.92   11.08
  -3  -1   5   90.22    9.43
   3  -1  -5   90.49    9.67
   3  -2   5  825.72   36.08
  -3  -2  -5  800.74   34.35
   3   2  -5  792.81   34.07
   3  -2   5  773.42   33.80
  -3  -2  -5  771.50   34.19
   3   2  -5  803.34   27.95
  -3  -2  -5  797.39   30.63
   3  -2  -5  795.49   32.67
  -3   2  -5  746.86   34.29
   3   2   5  787.31   34.92
   3  -2  -5  798.92   35.26
  -3  -2   5  823.54   30.72
  -3  -2   5  741.29   26.75
   3  -3   5   16.85    6.53
  -3  -3  -5   14.33    5.18
   3   3  -5   16.82    6.58
  -3  -3  -5   16.31    4.77
   3   3  -5    9.36    3.30
   3  -3   5   18.15    6.56
  -3  -3  -5   19.58    6.73
  -3   3  -5   19.69    6.28
   3  -3  -5   16.02    5.66
  -3  -3   5   16.96    4.43
  -3  -3   5   12.12    5.02
   3  -3  -5   21.56    6.49
  -3  -4  -5  363.94   24.79
  -3  -4  -5  353.25   23.30
   3  -4   5  364.93   25.53
   3   4  -5  332.34   24.84
   3  -4   5  370.72   23.43
   3  -4  -5  367.97   25.57
   3  -4  -5  382.11   24.74
   3   4   5  344.94   19.41
  -3   4  -5  362.12   25.97
  -3  -4   5  349.90   21.74
   3  -5   5    7.77    6.41
   3  -5   5   13.12    6.08
  -3  -5   5   12.73    5.58
  -3   5  -5   18.45    4.19
   3   5   5   16.20    5.25
   3  -5  -5   11.48    6.79
   3   6  -5  914.67   48.86
   3  -6   5  893.00   46.78
  -3  -6  -5  948.20   42.71
  -3  -6  -5  947.86   46.18
   3  -6   5  916.03   41.28
   3   6   5  903.87   35.71
  -3   6  -5  925.41   48.11
   3  -6  -5  949.49   46.80
   3  -6  -5  932.04   47.10
  -3  -6   5  946.24   43.41
   3  -7   5    1.03    5.80
  -3  -7  -5    0.45    6.56
   3  -7   5   -6.31    5.77
  -3  -7  -5    2.44    4.98
  -3   7  -5    3.74    7.24
   3   7   5   -3.48    4.64
   3  -7  -5   -1.34    5.49
   3  -7  -5  -11.25    6.19
  -3  -7   5   10.67    5.30
  -3  -8  -5   88.15   15.45
  -3  -8  -5   92.47   19.67
   3   8  -5  127.37   19.82
   3  -8   5  110.26   19.25
  -3  -8   5   92.51   16.48
  -3   8  -5  109.82   17.71
   3  -8  -5   95.98   20.40
   3  -8  -5   87.16   18.30
  -3   0  -6   -3.24    2.34
   3   0  -6   -2.07    2.12
  -3   0  -6   -0.86    2.17
   3   0   6    2.62    3.30
  -3   0   6   -1.08    3.08
  -3  -1  -6  148.86   14.07
   3   1  -6  116.50   11.94
   3   1  -6  120.34   12.08
  -3  -1  -6  113.82   11.82
   3  -1   6  127.47   13.21
  -3   1   6  125.12    8.57
   3  -1   6  125.02   14.00
  -3   1   6  123.67   12.60
   3  -1  -6  125.10   13.53
  -3   1  -6  139.47   14.16
   3   1   6  114.84   13.58
  -3  -1   6  125.66   12.61
   3  -1  -6  119.08    9.22
   3  -1  -6  129.25   12.84
  -3   1  -6  131.76   13.77
  -3  -2  -6    2.34    3.73
   3   2  -6   -2.87    2.44
   3  -2   6   -4.50    2.57
   3   2  -6   -1.29    2.67
  -3  -2  -6    2.95    2.88
   3  -2   6    0.83    3.05
  -3  -2  -6   -5.02    2.59
  -3  -2   6    0.11    2.57
  -3   2  -6   -0.10    2.92
   3  -2  -6   -0.84    2.89
   3  -2  -6    1.24    2.82
   3   2   6    2.64    3.06
  -3  -3  -6  450.80   27.94
   3   3  -6  459.03   20.96
   3  -3   6  453.65   29.13
  -3  -3  -6  441.75   22.42
   3  -3   6  481.10   27.66
   3   3  -6  458.28   28.45
  -3  -3  -6  454.36   28.04
   3  -3  -6  457.95   27.15
  -3   3  -6  463.18   29.05
   3  -3  -6  458.48   29.08
  -3  -3   6  457.16   25.52
  -3  -3   6  430.95   24.53
  -3  -4  -6   36.25   10.00
  -3  -4  -6   39.25    9.75
   3   4  -6   31.45    9.62
   3  -4   6   33.60    9.82
  -3  -4  -6   39.03    7.39
   3  -4   6   50.13   11.03
  -3  -4   6   32.77    6.22
  -3  -4   6   32.15    8.69
  -3  -4   6   38.04    6.96
   3   4   6   42.62    7.41
   3  -4  -6   42.64   10.51
   3  -4  -6   45.23   11.44
  -3   4  -6   38.12   10.54
  -3  -5  -6   65.52   11.74
   3  -5   6   82.92   15.20
   3   5  -6   67.46   15.21
   3  -5   6   61.42   14.19
  -3  -5  -6   91.55   13.79
  -3   5  -6   99.57   14.71
   3  -5  -6   74.03   12.51
   3  -5  -6   78.76   13.52
  -3  -5   6   66.42   11.90
   3   5   6   72.91   10.43
  -3  -6  -6    8.94    6.38
   3   6  -6   16.76    9.58
  -3  -6  -6    7.38    6.96
   3  -6   6    1.23    7.18
   3  -6   6   15.17    5.91
  -3   6  -6    8.82    7.39
  -3  -6   6    4.83    7.17
   3  -6  -6    3.58    6.19
   3  -6  -6    8.69    6.75
   3   6   6   11.02    6.50
   3   7  -6  134.85   16.32
   3  -7   6   98.91   14.90
  -3  -7  -6   95.83   14.93
   3  -7   6   71.11   17.73
  -3  -7  -6   64.61   16.26
  -3   7  -6   79.06   18.25
   3   7   6  113.16   11.55
  -3  -7   6   91.81   17.80
   3  -7  -6   96.32   19.64
   3  -7  -6   91.79   19.56
  -3  -8  -6   16.05    8.49
  -3  -8  -6   -7.79    7.87
   3  -8   6   -4.84    8.34
   3  -8  -6    0.84    7.81
  -3   8  -6   11.23   11.80
  -3  -8   6    7.02    8.02
   3  -8  -6   12.05   10.45
   3   0  -7 1055.28   37.38
   3   0  -7 1062.03   43.39
  -3   0  -7 1096.54   46.17
  -3   0  -7 1038.39   42.33
  -3   0   7 1071.89   43.02
   3   0   7 1004.52   44.86
  -3  -1  -7    3.78    3.65
   3   1  -7    2.19    3.55
  -3  -1  -7   -1.23    3.76
   3  -1   7   -0.75    4.29
   3   1  -7   -1.86    3.71
   3  -1   7    4.52    4.50
   3  -1  -7    6.12    3.86
  -3   1  -7   11.71    3.88
  -3  -1   7    0.61    3.54
   3  -1  -7    3.72    2.95
  -3   1  -7    3.83    4.14
   3  -1  -7    4.53    4.08
   3   1   7    2.35    5.35
   3   2  -7    3.36    4.21
   3  -2   7   -2.94    3.66
  -3  -2  -7    3.94    3.76
  -3  -2  -7   -0.86    2.91
   3   2  -7    6.21    3.46
   3  -2   7    5.42    4.47
  -3  -2  -7   -4.07    2.87
  -3  -2   7   13.27    7.02
  -3   2  -7    0.54    3.15
   3  -2  -7   -0.14    3.74
   3  -2  -7   -1.28    4.01
  -3   2  -7   -5.20    2.78
   3   2   7    1.83    4.25
   3   3  -7   -4.06    2.86
   3  -3   7   -3.96    4.38
  -3  -3  -7   -1.86    3.29
   3  -3   7   -3.23    3.84
  -3  -3  -7   -5.56    3.41
  -3  -3  -7   -4.68    3.38
  -3  -3   7   -3.43    3.76
   3   3   7   -2.85    3.09
   3  -3  -7   -2.56    3.18
  -3   3  -7   -0.42    3.62
  -3  -4  -7   51.21   12.30
  -3  -4  -7   50.51   11.44
   3   4  -7   57.21   13.51
   3  -4   7   51.80   12.14
   3   4  -7   69.20    7.31
  -3  -4  -7   61.39    9.37
   3  -4   7   64.42    9.44
  -3   4  -7   42.72   12.23
   3   4   7   41.12    9.01
   3  -4  -7   64.69   14.26
   3  -4  -7   71.39   15.04
  -3  -4   7   46.36    8.82
  -3  -4   7   40.60   10.23
  -3  -5  -7   -0.86    5.43
   3  -5   7    5.48    7.09
   3   5  -7   16.35    6.20
  -3  -5  -7    7.58    5.94
   3  -5  -7   -0.56    4.98
   3   5   7    3.45    4.43
  -3  -5   7   11.03    5.57
  -3   5  -7   -0.39    4.93
   3  -5  -7   19.17    5.90
   3   6  -7   50.32   14.05
  -3  -6  -7   58.72   14.00
   3  -6   7   61.03   16.03
  -3  -6  -7   73.98   13.54
   3  -6   7   59.41   14.05
   3  -6  -7   80.89   13.98
  -3   6  -7   58.76   14.10
   3   6   7   84.84    9.42
  -3  -6   7   90.30   12.43
   3  -7   7    4.05    8.32
   3  -7   7    1.97    7.43
  -3  -7  -7   17.72    7.54
   3   7  -7    2.98    8.47
  -3  -7  -7  -10.91    6.96
   3  -7  -7  -10.32    6.71
   3  -7  -7   -0.63    6.14
  -3   7  -7    5.67    8.97
  -3   0  -8   -5.14    3.94
   3   0  -8   -5.00    3.27
   3   0  -8   -5.75    3.50
  -3   0  -8    5.20    4.74
  -3   1   8   20.24    8.78
   3   1  -8    7.47    5.01
  -3  -1  -8   13.12    6.26
   3  -1   8   15.68    6.91
  -3  -1  -8   17.54    6.27
   3   1  -8   20.50    5.37
   3  -1   8    6.70    5.83
   3  -1  -8   15.82    7.33
  -3   1  -8    5.27    5.48
   3   1   8   10.42    6.78
  -3   1  -8   18.67    6.45
   3  -1  -8   11.22    4.19
  -3  -1   8   13.84    6.06
   3   2  -8    0.39    5.34
   3  -2   8   -3.39    4.24
  -3  -2  -8    4.47    5.64
  -3  -2  -8   12.84    3.92
   3  -2   8   -1.34    3.82
   3   2  -8    4.05    4.54
  -3   2  -8    2.14    3.07
  -3  -2   8    4.27    5.66
   3   2   8    9.53    5.54
   3  -2  -8   10.31    6.31
  -3   2  -8   -5.77    3.68
  -3  -3  -8  911.43   36.80
  -3  -3  -8  837.64   45.26
   3  -3   8  895.56   43.84
   3   3  -8  886.65   44.12
   3   3  -8  901.67   37.62
  -3  -3  -8  890.99   46.01
   3  -3   8  849.95   45.71
  -3   3  -8  882.24   45.09
  -3  -3   8  923.39   42.18
   3  -3  -8  904.60   44.50
   3  -3  -8  915.33   46.77
   3   3   8  895.62   46.38
   3   4  -8    3.77    5.81
  -3  -4  -8   -1.42    5.80
  -3  -4  -8   -3.72    4.29
   3   4  -8    8.73    4.93
   3  -4   8   -6.05    5.22
   3  -4   8    9.96    4.16
  -3  -4  -8   -2.88    5.16
  -3  -4   8   -3.95    5.30
  -3   4  -8   13.69    6.19
   3  -4  -8    1.98    4.87
   3   4   8    1.75    3.73
  -3  -4   8   11.00    3.53
   3  -4  -8   12.19    5.93
   3  -5   8  165.86   15.80
  -3  -5  -8  154.41   19.89
   3   5  -8  102.19   18.33
  -3  -5  -8  117.89   16.45
   3  -5   8  125.02   19.28
   3  -5  -8  118.37   17.82
  -3   5  -8  113.51   21.78
   3   5   8  122.68   11.76
   3  -5  -8  130.62   18.96
  -3  -5   8  149.43   16.87
  -3  -6  -8   15.34    8.96
   3   6  -8   16.82   11.21
   3  -6   8   20.67   11.66
   3  -6   8   -5.24    8.19
   3  -6  -8   15.41    7.28
   3  -6  -8   -3.84    8.94
  -3   6  -8   21.75    8.65
  -3  -6   8    9.47    6.18
  -3  -7  -8  312.99   30.40
   3   7  -8  306.07   30.28
  -3  -7  -8  275.15   30.16
   3  -7   8  343.13   31.75
   3  -7  -8  304.03   31.59
  -3  -7   8  282.01   28.35
  -3   7  -8  336.37   34.55
   3  -7  -8  309.01   32.38
   3   0   9 2102.59   76.45
  -3   0  -9 2135.79   71.55
  -3   0  -9 2066.46   76.55
  -3   0   9 2070.07   72.31
   3   0  -9 2106.73   73.97
   3   0  -9 2033.27   62.93
   3  -1   9    6.06    5.91
  -3   1   9   20.32    8.38
  -3  -1  -9    9.64    7.18
  -3  -1  -9   12.19    7.17
   3   1  -9    7.25    5.84
   3   1  -9   13.91    6.22
   3  -1   9   10.44    7.18
  -3   1  -9   26.20    9.29
   3  -1  -9    5.31    5.71
  -3   1  -9   -0.24    5.57
   3  -1  -9   16.75    8.54
   3   1   9   15.98    5.06
  -3  -1   9    2.34    5.93
   3  -2   9   97.69   16.96
   3   2  -9  102.34   14.57
   3  -2   9  111.51   15.89
  -3  -2  -9   87.68   12.99
  -3  -2  -9  105.18   15.66
   3   2  -9   96.95   13.51
  -3   2  -9  116.80   16.14
  -3   2  -9  119.91   15.82
   3  -2  -9  121.43   17.41
  -3  -2   9  108.01   16.30
   3  -2  -9  103.70   15.32
   3  -3   9   -2.78    6.09
   3   3  -9    2.80    5.30
  -3  -3  -9   -1.25    4.77
  -3  -3  -9    9.41    6.44
  -3  -3  -9   -2.83    4.46
   3  -3   9   -3.33    3.12
   3   3   9    0.59    5.90
  -3   3  -9   -7.16    4.23
  -3  -3   9   -0.48    6.23
   3  -3  -9    7.09    4.66
   3   4  -9  222.57   18.12
   3  -4   9  175.24   23.51
   3  -4   9  218.41   23.01
  -3  -4  -9  231.30   24.30
  -3  -4  -9  247.19   25.97
   3   4  -9  250.67   24.65
   3  -4  -9  248.85   24.07
  -3   4  -9  212.11   24.40
   3  -4  -9  216.84   24.76
  -3  -4   9  256.67   21.20
   3   4   9  245.38   24.31
   3   4   9  205.67   16.65
  -3  -5  -9   23.98   11.13
  -3  -5  -9    8.30    9.54
   3  -5   9    9.38    8.18
   3   5  -9    6.33    8.28
   3  -5   9   17.80    9.75
   3  -5  -9   -0.37    7.50
  -3   5  -9   19.53    9.63
   3   5   9   20.32    9.92
  -3  -5   9    6.97    7.70
   3  -5  -9   26.98   11.25
   3  -6   9   92.19   16.33
   3  -6   9   96.46   22.39
   3   6  -9  136.05   20.97
  -3  -6  -9  110.40   22.87
   3  -6  -9  132.33   22.62
  -3  -6   9  102.89   18.74
  -3   6  -9  101.24   22.72
   3  -6  -9  144.16   22.09
  -3   0 -10   -6.14    4.55
   3   0  10    2.30    5.86
  -3   0 -10   -0.64    4.69
   3   0 -10    2.01    5.08
  -3   0  10   -7.91    5.32
   3   0 -10   -6.35    5.09
   3  -1  10  243.91   25.51
  -3  -1 -10  278.18   26.98
   3  -1  10  296.31   25.20
   3   1 -10  216.32   20.86
   3   1 -10  276.02   23.00
  -3   1  10  270.64   25.11
  -3  -1 -10  263.47   22.47
  -3   1 -10  268.82   24.53
   3   1  10  247.54   25.55
  -3  -1  10  252.73   23.68
   3  -1 -10  314.52   26.24
  -3   1 -10  281.63   26.57
  -3  -2 -10   -0.07    5.13
   3   2 -10   -2.88    3.84
  -3  -2 -10    3.77    6.66
   3   2 -10    0.71    5.80
  -3   2  10    6.98    4.57
   3   2  10    6.76    4.54
  -3   2 -10    1.46    4.40
  -3  -2  10   -5.12    6.15
   3  -2 -10    2.42    6.97
   3  -3  10  759.93   42.54
   3   3 -10  719.33   42.65
   3   3 -10  791.16   38.54
  -3  -3 -10  728.85   46.34
   3  -3  10  698.06   46.00
  -3   3  10  723.17   45.21
   3   3  10  737.68   46.27
  -3  -3  10  771.29   43.19
  -3   3 -10  750.44   45.35
   3  -3 -10  723.40   46.56
   3  -3 -10  751.66   44.20
  -3  -4 -10    1.45    6.81
   3   4 -10   -7.64    7.51
  -3  -4 -10   -3.99    6.47
  -3  -4  10    8.66    5.04
   3   4  10    9.56    7.15
   3  -4 -10   -1.23    6.76
  -3   4 -10    7.44    7.78
   3   4  10   13.48    6.13
   3  -5  10  184.17   25.19
  -3  -5 -10  176.43   23.44
   3  -5  10  117.89   20.77
   3   5 -10  182.19   25.25
  -3  -5 -10  190.69   25.01
   3  -5 -10  150.41   23.20
   3   5  10  166.72   27.55
  -3   5 -10  205.04   24.85
   3  -5 -10  150.73   23.05
   3   0  11  269.60   28.29
   3   0 -11  275.22   26.21
  -3   0 -11  285.78   24.28
  -3   0 -11  252.38   27.20
  -3   0  11  314.80   24.87
  -3   1  11    3.34    6.99
  -3  -1 -11   16.18    5.94
   3   1 -11    1.91    6.25
  -3  -1 -11    5.17    6.19
   3  -1  11   -0.85    6.45
   3   1 -11   -6.40    6.87
   3  -1 -11   -2.66    6.22
   3  -1 -11    0.50    5.69
  -3  -1  11    0.97    7.05
   3   1  11   -3.87    6.41
  -3   1 -11    7.71    8.46
   3   2 -11  152.92   19.83
  -3   2  11  135.46   20.09
   3  -2  11  103.23   19.55
  -3  -2 -11  129.93   21.41
   3   2 -11  135.55   17.43
   3  -2  11  138.82   20.76
  -3   2 -11  127.46   18.91
   3  -2 -11  109.36   19.95
  -3  -2  11  155.77   19.77
  -3   2 -11  130.98   18.73
   3   2  11  146.84   21.32
   3  -3  11   -9.46    6.11
   3  -3  11   -6.60    7.83
  -3  -3 -11   13.64    7.89
  -3  -3 -11   -3.70    7.74
   3   3 -11   12.08    7.40
  -3   3  11   16.70    7.99
   3   3 -11   12.94    7.95
   3  -3 -11   -9.58    6.94
  -3  -3  11   12.85    7.06
   3  -3 -11    8.68    6.54
  -3   3 -11   -9.92    6.91
   3   4 -11  137.75   20.79
   3   4 -11  200.60   18.84
  -3   4  11  176.67   25.52
  -3  -4 -11  145.97   23.70
   3  -4  11  140.77   23.33
   3  -4  11  130.77   21.42
   3  -4 -11  173.66   24.62
  -3  -4  11  191.52   21.30
   3   4  11  149.45   24.64
  -3   4 -11  173.66   24.87
   3  -4 -11  175.71   23.55
   3   0 -12   11.66    9.90
  -3   0 -12   26.45    6.09
  -3   0  12    9.84    7.61
   3   0  12   -9.04    7.84
  -3  -1 -12  167.78   19.18
   3   1 -12  151.68   19.74
   3  -1  12  174.92   21.85
  -3   1  12  198.92   22.20
   3  -1  12  112.56   21.04
  -3  -1 -12  149.83   20.18
   3  -1 -12  136.68   22.60
  -3   1 -12  140.04   22.84
  -3   1 -12  138.24   19.98
   3   1  12  117.01   23.94
  -3  -1  12  196.77   20.63
   3  -2  12   10.88    7.62
   3   2 -12   18.04    6.72
  -3  -2 -12    0.98   10.26
  -3   2 -12   14.70    9.19
  -3  -2  12   33.61    7.87
   3  -2 -12   -2.96    9.33
  -3   2 -12   -2.51    9.60
   3   2  12    0.09    8.95
  -4   0   0 1181.02   26.73
   4   0   0 1203.33   26.34
   4   0   0 1120.86   33.04
   4   0   0 1129.45   33.97
  -4   0   0 1151.64   34.58
  -4   0   0 1120.85   33.06
  -4  -1   0 2122.79   55.89
   4  -1   0 2183.32   55.95
   4   1   0 2081.05   54.96
  -4  -1   0 2190.51   50.92
   4  -1   0 2221.31   54.39
   4  -1   0 2179.62   49.84
  -4   1   0 2181.40   55.94
   4   1   0 2234.37   51.14
  -4   1   0 2191.03   49.86
  -4   1   0 2264.10   54.78
   4   2   0   12.86    2.15
  -4  -2   0   12.60    2.60
  -4   2   0   14.64    4.01
   4   2   0   14.16    2.94
   4  -2   0    8.67    3.61
  -4   2   0    6.24    3.01
   4   2   0   10.18    3.99
   4  -2   0    8.93    4.19
   4   2   0    9.13    2.57
   4  -2   0   13.59    3.92
  -4  -3   0  135.01    9.16
   4  -3   0  143.87   12.74
   4  -3   0  145.29   11.88
   4  -3   0  147.92   11.28
   4   3   0  149.42   12.98
   4   3   0  144.21    7.31
  -4   3   0  135.65   10.87
   4   3   0  159.55    7.57
   4   3   0  146.60    9.17
   4  -4   0    4.68    3.03
   4  -4   0    3.25    3.18
  -4   4   0    1.02    2.81
  -4  -4   0    0.60    2.66
   4   4   0    1.02    2.60
  -4   5   0   35.78    7.26
  -4  -5   0   36.50    6.68
   4  -5   0   28.35    8.41
   4  -5   0   24.70    7.50
   4   5   0   25.96    8.01
   4   6   0   55.98   12.30
  -4  -6   0   52.98    9.20
   4  -6   0   70.14   11.93
  -4   6   0   58.69    9.87
   4  -6   0   71.35   12.40
   4  -7   0    0.81    4.04
   4  -7   0    1.14    6.48
  -4   7   0   -0.27    4.54
   4   7   0    7.65    5.62
  -4  -7   0    7.00    5.45
  -4  -8   0   47.60   10.12
   4  -8   0   22.18   10.44
   4  -8   0   65.17   11.46
  -4   8   0   31.42   11.09
   4   8   0   37.15   10.86
  -4  -9   0   16.14    8.59
   4  -9   0   17.58    5.57
   4   9   0   29.96    7.27
  -4   0  -1   -0.01    1.33
   4   0   1   -1.81    1.28
   4   0   1    0.26    1.02
   4   0  -1    4.49    1.40
  -4   0   1    1.41    1.86
   4   0   1    0.97    1.45
   4   0  -1   -1.60    1.12
  -4   0  -1    2.38    1.28
  -4   0   1    3.03    1.75
   4  -1   1   39.47    4.84
   4  -1   1   36.34    5.47
   4   1  -1   38.53    5.91
  -4  -1  -1   45.76    6.14
   4   1  -1   39.33    5.54
  -4   1   1   41.74    5.88
  -4  -1  -1   40.60    5.37
  -4   1   1   47.36    4.55
  -4   1   1   41.30    5.07
   4   1  -1   38.94    4.35
   4  -1   1   42.58    6.07
   4  -1  -1   42.68    5.95
   4   1   1   33.91    4.84
   4   1   1   44.94    6.07
  -4   1  -1   39.67    5.63
   4   1   1   42.02    4.15
  -4  -1   1   36.87    5.59
   4   1   1   43.21    4.18
   4  -1  -1   45.58    5.44
  -4  -1   1   41.49    4.81
  -4   1  -1   41.87    4.88
   4  -1  -1   42.38    4.43
   4   1   1   38.53    5.15
  -4   1  -1   37.31    5.90
   4   2  -1  537.83   16.27
   4   2  -1  547.91   24.80
  -4  -2  -1  564.36   24.40
   4   2  -1  555.20   15.24
  -4  -2  -1  576.03   19.50
   4  -2   1  565.85   24.71
  -4   2   1  575.72   20.89
   4  -2   1  541.49   22.44
  -4   2   1  552.23   21.19
   4   2   1  563.77   20.26
  -4   2  -1  582.79   24.11
  -4  -2   1  547.29   16.38
   4  -2  -1  531.94   24.43
   4  -2  -1  558.97   20.98
   4  -2  -1  557.58   21.53
   4   2   1  573.56   18.73
  -4   2  -1  574.50   22.47
   4   2   1  579.63   24.96
   4   2   1  546.98   19.90
  -4  -2   1  566.32   15.60
  -4  -3  -1  840.08   27.91
   4  -3   1  828.41   32.82
  -4   3   1  877.90   28.20
   4  -3   1  828.92   32.19
  -4  -3  -1  862.49   26.13
   4   3  -1  840.74   24.86
   4   3  -1  834.51   33.90
   4   3   1  842.88   25.71
  -4  -3   1  824.18   25.29
  -4   3  -1  855.44   31.98
   4   3   1  795.06   32.04
   4   3   1  795.57   26.82
   4   3   1  866.12   26.16
   4  -3  -1  836.11   33.72
   4  -3  -1  851.43   31.57
   4  -3  -1  856.10   28.40
   4  -4   1   74.58    9.92
  -4  -4  -1   66.88    6.42
   4   4  -1   61.30    9.94
   4  -4   1   53.11    8.91
  -4   4   1   55.03    7.11
  -4  -4  -1   59.15    7.94
   4   4   1   62.91    9.10
  -4  -4   1   59.64    7.41
   4  -4  -1   85.52    7.57
   4   4   1   66.69    6.51
   4  -4  -1   68.39    9.79
   4  -4  -1   71.29    9.89
  -4   4  -1   63.66    8.72
   4   5  -1  274.61   21.60
   4  -5   1  282.81   20.35
   4  -5   1  282.33   21.57
  -4   5   1  296.37   17.19
  -4  -5  -1  296.87   13.96
  -4  -5  -1  290.47   19.19
   4   5   1  312.94   13.40
  -4  -5   1  291.18   18.42
   4  -5  -1  301.07   21.21
  -4   5  -1  281.18   19.68
   4  -5  -1  263.19   20.64
   4   5   1  286.06   20.98
   4  -6   1   80.61   12.47
  -4   6   1   92.70    9.51
  -4  -6  -1   65.66    6.98
   4   6  -1   91.34   13.95
   4  -6   1   80.99   12.25
  -4  -6  -1   65.95   11.29
   4  -6  -1   80.55   12.41
   4  -6  -1   64.40   11.54
  -4  -6   1   69.64   10.94
  -4   6  -1   83.38   11.29
   4   6   1   77.96   11.91
   4   6   1   98.02    7.45
   4   7  -1  414.69   31.14
  -4  -7  -1  434.02   28.97
   4  -7   1  425.55   28.94
  -4   7   1  410.73   23.45
   4  -7   1  431.73   31.83
   4   7   1  395.44   28.37
  -4  -7   1  441.61   27.53
  -4   7  -1  488.99   27.54
   4  -7  -1  441.11   29.73
   4  -7  -1  422.13   31.23
   4   8  -1    1.85    6.54
   4  -8   1   10.22    4.98
   4  -8   1    2.62    5.12
  -4   8   1    8.06    5.63
   4  -8  -1    0.13    5.54
   4   8   1    5.73    6.57
  -4   8  -1   10.38    6.48
  -4  -8   1   -0.89    6.74
   4  -8  -1    2.79    4.79
  -4   9   1   68.27   13.43
   4   9  -1   41.41   13.10
   4  -9   1   38.16   14.13
   4  -9   1   28.06   11.13
  -4  -9  -1   45.06   14.20
   4  -9  -1   37.62   10.43
   4  -9  -1   38.45   13.00
  -4  -9   1   45.17   13.57
   4   0  -2 2773.02   57.24
  -4   0   2 2773.71   65.58
   4   0   2 2876.45   65.29
   4   0  -2 2863.51   66.67
   4   0   2 2861.01   68.87
   4   0  -2 2688.29   65.30
   4   0   2 2803.06   69.02
   4   0  -2 2875.78   66.96
  -4   0  -2 2839.63   66.22
  -4   0  -2 2809.64   69.33
  -4   0   2 2906.85   57.20
  -4   0  -2 2873.30   70.53
   4   1  -2  132.52    8.42
   4  -1   2  111.83   10.15
   4   1  -2  120.28   10.23
  -4   1   2  116.39    8.27
   4   1  -2  117.73   10.04
  -4   1   2  111.97    7.59
   4  -1   2  108.49    8.91
  -4  -1  -2  116.70   10.10
   4   1   2  119.16    8.90
  -4  -1   2  122.18    7.95
   4   1   2  111.49    9.35
  -4   1  -2  106.62    9.02
   4   1   2  126.50    8.42
   4   1   2  117.26    9.56
  -4   1  -2  127.16   10.94
   4  -1  -2  119.97   10.38
   4  -1  -2  116.60    8.38
  -4  -1   2  128.07   10.18
   4  -1  -2  112.39    7.58
  -4   2   2 1319.45   38.02
  -4  -2  -2 1340.78   38.31
   4  -2   2 1328.50   40.80
  -4   2   2 1385.50   35.19
   4  -2   2 1340.77   43.29
   4   2  -2 1310.31   31.38
   4   2  -2 1386.20   31.49
  -4  -2  -2 1309.65   41.49
  -4  -2  -2 1390.58   39.68
   4  -2  -2 1372.98   43.99
   4  -2  -2 1348.54   38.74
  -4  -2   2 1308.10   31.16
   4   2   2 1295.50   38.67
   4  -2  -2 1321.77   35.30
  -4  -2   2 1359.91   31.74
   4   2   2 1340.38   39.35
   4   2   2 1333.26   37.26
  -4   2  -2 1293.15   42.59
  -4  -3  -2   13.65    4.52
   4  -3   2   15.83    5.21
   4  -3   2   10.09    4.67
  -4   3   2   11.29    2.81
   4   3  -2    5.92    4.15
  -4  -3  -2   17.40    5.39
  -4  -3  -2   15.89    4.67
   4   3  -2   14.31    3.82
   4  -3  -2   17.96    5.43
  -4   3  -2   15.69    5.27
   4  -3  -2   13.78    5.38
   4   3   2    6.10    3.85
   4   3   2   15.60    4.31
   4  -3  -2   17.87    3.99
  -4  -3   2   14.41    3.64
   4   4  -2 1323.24   50.21
   4  -4   2 1360.42   47.59
   4  -4   2 1376.44   49.03
  -4   4   2 1380.70   37.71
  -4  -4  -2 1432.77   41.47
  -4  -4  -2 1412.34   45.20
   4  -4  -2 1373.63   38.31
   4  -4  -2 1404.74   48.59
   4  -4  -2 1368.50   50.15
  -4   4  -2 1417.07   48.82
   4   4   2 1345.61   40.05
   4   4   2 1406.79   47.21
  -4  -4   2 1384.68   41.28
   4   5  -2   -4.73    3.22
  -4  -5  -2    1.73    3.05
   4  -5   2   -3.46    2.15
  -4  -5  -2   -0.94    2.95
   4  -5   2   -4.41    3.08
  -4   5  -2   -4.64    3.08
   4   5   2   -4.29    2.57
  -4  -5   2    0.51    3.25
   4  -5  -2   -1.07    3.05
   4  -5  -2    2.14    3.55
   4  -5  -2    0.51    3.55
  -4   6   2  549.35   23.42
  -4  -6  -2  528.72   23.84
   4  -6   2  564.74   31.57
  -4  -6  -2  570.74   30.95
   4   6  -2  547.48   34.10
   4  -6   2  524.01   32.80
   4   6   2  560.75   30.03
  -4  -6   2  511.61   28.35
   4  -6  -2  548.85   32.84
  -4   6  -2  542.45   31.38
   4  -6  -2  544.10   33.11
   4   7  -2    7.58    5.97
   4  -7   2   -5.22    4.61
  -4   7   2    6.53    4.54
  -4  -7  -2   15.94    4.63
   4  -7   2    0.06    5.46
  -4  -7  -2    0.38    3.37
   4  -7  -2   -5.84    5.54
  -4   7  -2    7.31    5.19
   4  -7  -2    2.80    6.10
   4   7   2   11.73    5.19
  -4  -7   2    5.71    3.97
   4  -8   2  125.14   17.86
  -4  -8  -2  138.93   18.67
  -4   8   2  148.58   14.25
   4   8  -2  189.19   20.01
   4  -8   2  131.67   20.42
   4  -8  -2  143.30   17.73
   4  -8  -2  136.13   18.47
  -4  -8   2  145.97   18.43
   4   8   2  155.95   18.09
   4   0   3    1.45    2.40
  -4   0   3   -1.82    1.41
   4   0   3    0.07    1.72
   4   0  -3    4.28    2.65
  -4   0   3    1.45    2.09
  -4   0  -3    4.81    1.90
   4   0  -3   -0.21    1.97
   4   0   3    3.65    2.37
  -4   0  -3   -1.00    1.48
   4   1  -3 5106.19  107.62
   4   1  -3 5275.31  114.50
  -4   1   3 4987.52  106.36
  -4  -1  -3 5290.12  116.31
   4  -1   3 5096.04  113.62
  -4  -1  -3 5284.99  115.57
   4  -1   3 5247.67  117.08
  -4  -1   3 5134.39  101.94
   4   1   3 5142.17  114.92
   4  -1  -3 5245.74  107.72
   4   1   3 4995.52  111.88
  -4  -1   3 5207.37  107.60
   4   1   3 5087.41  112.39
  -4   1  -3 5225.02  117.88
  -4  -1   3 5257.27  102.49
   4  -1  -3 5399.19  106.66
   4  -1  -3 5083.04  115.05
   4  -1  -3 5066.95  105.84
   4   2  -3   -2.26    1.82
   4   2  -3    0.36    1.69
  -4  -2  -3    1.62    2.30
  -4  -2  -3    1.78    2.36
   4  -2   3   -0.68    1.68
  -4   2   3    0.85    1.70
  -4  -2  -3   -0.33    1.65
   4  -2   3   -2.92    1.61
   4  -2  -3    0.70    1.78
   4  -2  -3    4.62    1.52
   4  -2  -3   -1.04    2.02
  -4   2  -3   -2.67    1.73
   4   3  -3 2243.54   54.99
  -4  -3  -3 2314.41   63.67
  -4  -3  -3 2312.99   62.29
   4  -3   3 2312.26   66.40
   4  -3   3 2312.84   66.59
   4   3  -3 2335.22   68.80
  -4  -3  -3 2333.90   63.36
   4  -3  -3 2291.10   67.96
   4  -3  -3 2309.25   63.49
   4   3   3 2295.03   63.96
  -4  -3   3 2296.14   55.86
  -4   3  -3 2309.50   67.81
   4  -4   3  111.49   12.32
   4  -4   3  104.61   12.25
  -4  -4  -3  111.14   11.77
  -4  -4  -3  118.17   11.32
   4   4  -3  112.57   13.75
   4  -4  -3  113.94   12.50
   4   4   3  122.00   11.70
   4  -4  -3   97.34   12.59
  -4  -4   3  116.14    9.93
  -4   4  -3  109.31   13.06
   4  -5   3  460.11   26.83
  -4  -5  -3  422.28   25.57
   4   5  -3  435.62   28.88
  -4  -5  -3  425.72   22.61
   4  -5   3  430.08   28.14
  -4   5  -3  462.68   28.29
   4  -5  -3  466.35   29.03
   4  -5  -3  445.00   27.83
   4   5   3  443.61   25.61
  -4  -5   3  417.21   22.84
   4   6  -3   15.17    7.27
   4  -6   3   16.08    7.36
   4  -6   3   18.58    7.12
  -4  -6  -3    7.74    5.06
  -4  -6  -3   15.54    7.04
  -4  -6   3   11.15    5.43
   4  -6  -3   14.26    6.89
   4   6   3   22.16    5.83
  -4   6  -3   22.10    8.05
   4  -6  -3   15.56    6.49
   4   7  -3  593.63   39.53
   4  -7   3  615.23   34.52
  -4  -7  -3  622.99   36.36
   4  -7   3  564.43   37.90
   4   7   3  622.22   33.38
  -4  -7   3  628.85   34.60
  -4   7  -3  682.80   38.41
   4  -7  -3  594.86   38.05
   4  -7  -3  623.57   38.02
   4  -8   3   47.37   14.34
   4   8  -3   60.66   14.42
  -4  -8  -3   74.71   13.05
   4  -8   3   51.92   14.01
   4  -8  -3   82.25   13.91
   4  -8  -3   51.40   14.43
  -4   0   4 1319.33   36.83
  -4   0  -4 1349.40   45.19
   4   0  -4 1395.44   43.16
   4   0   4 1384.90   46.60
  -4   0   4 1384.07   40.37
  -4   0  -4 1351.29   45.89
   4   0  -4 1360.58   39.53
   4   0  -4 1435.98   41.26
   4   0   4 1437.37   45.28
   4   0  -4 1391.64   38.95
  -4   0   4 1410.22   39.34
   4  -1   4  376.43   21.18
  -4  -1  -4  361.65   20.28
   4   1  -4  358.54   17.45
   4   1  -4  373.98   20.18
  -4   1   4  332.87   16.73
  -4  -1  -4  382.98   21.63
   4  -1   4  360.66   21.20
  -4  -1   4  384.60   16.65
  -4  -1   4  364.91   15.59
   4  -1  -4  376.51   20.92
  -4  -1   4  374.46   17.57
   4  -1  -4  366.88   15.46
  -4   1  -4  367.64   21.68
   4  -1  -4  399.84   18.34
   4   1   4  366.45   20.55
   4  -1  -4  369.56   15.99
   4   1   4  362.70   21.62
   4  -2   4  878.92   36.11
   4   2  -4  912.79   36.47
   4  -2   4  920.24   36.47
   4   2  -4  886.90   27.61
  -4  -2  -4  914.98   35.62
  -4  -2  -4  894.18   34.93
   4   2  -4  869.82   28.42
  -4  -2  -4  885.42   33.79
   4   2   4  891.51   34.89
   4  -2  -4  878.18   24.18
   4  -2  -4  853.63   36.14
  -4  -2   4  877.14   27.35
   4  -2  -4  931.80   33.29
  -4  -2   4  935.02   28.92
   4  -2  -4  891.68   24.43
  -4   2  -4  883.87   37.13
  -4  -2   4  891.25   28.75
   4   3  -4  382.85   24.18
  -4  -3  -4  372.04   21.03
  -4  -3  -4  387.88   22.23
   4   3  -4  393.17   17.82
   4  -3   4  375.22   23.38
   4  -3   4  366.63   22.78
  -4  -3  -4  383.09   22.46
  -4   3  -4  366.11   23.96
   4  -3  -4  379.56   21.79
   4  -3  -4  359.09   23.86
  -4  -3   4  360.22   17.97
  -4  -4  -4 2361.06   68.50
   4  -4   4 2349.41   71.06
   4  -4   4 2375.71   74.48
  -4  -4  -4 2427.61   71.60
   4   4  -4 2344.87   75.17
   4  -4  -4 2446.87   75.50
   4   4   4 2323.82   66.51
  -4   4  -4 2372.41   74.77
   4  -4  -4 2354.54   71.32
  -4  -4   4 2448.64   64.37
  -4  -5  -4   24.50    7.57
   4   5  -4    9.24    6.47
   4  -5   4   28.76    8.52
  -4  -5  -4   15.87    5.92
   4  -5   4   19.52    7.52
   4  -5  -4   15.15    6.65
  -4   5  -4   21.96    7.84
  -4  -5   4   25.60    6.44
   4  -5  -4   18.15    6.93
   4   5   4   14.74    6.29
   4  -6   4  937.01   47.70
   4   6  -4  925.04   47.82
  -4  -6  -4  928.76   39.30
  -4  -6  -4  940.42   44.41
   4  -6   4  918.24   42.16
   4  -6  -4  940.23   46.50
   4   6   4  889.28   38.80
   4  -6  -4  895.04   45.35
  -4  -6   4  925.43   40.11
  -4   6  -4  872.94   45.60
  -4  -7  -4   -0.47    5.12
   4  -7   4   -6.63    6.02
   4  -7   4   -0.53    4.45
  -4  -7  -4    1.11    5.20
   4   7  -4   -6.76    6.61
  -4   7  -4   -0.72    5.51
   4  -7  -4    1.68    5.86
  -4  -7   4   -2.52    5.05
   4  -7  -4    6.23    6.38
   4  -8   4  186.98   22.66
   4   8  -4  185.06   24.81
  -4  -8  -4  171.64   21.74
   4  -8   4  225.28   19.01
   4  -8  -4  181.21   23.05
   4  -8  -4  186.88   23.06
  -4   8  -4  173.06   22.74
   4   8   4  175.61   19.18
  -4  -8   4  145.03   19.72
   4   0  -5   -0.93    2.06
  -4   0  -5    0.79    2.50
  -4   0   5    0.48    3.15
   4   0   5   -0.88    2.29
   4   0   5   -3.68    2.80
  -4   0  -5    0.60    3.03
   4   0  -5    2.76    3.01
   4  -1   5 1260.70   45.77
  -4  -1  -5 1248.43   44.08
   4   1  -5 1194.83   39.90
   4   1  -5 1267.99   42.16
   4  -1   5 1209.12   45.41
  -4  -1  -5 1277.53   46.77
   4  -1  -5 1229.68   44.15
  -4  -1   5 1208.35   37.26
   4  -1  -5 1147.78   33.99
   4  -1  -5 1262.40   40.73
   4   1   5 1267.98   45.82
  -4  -1   5 1245.66   39.00
   4  -1  -5 1263.47   35.34
  -4   1  -5 1234.84   45.86
   4   2  -5   -0.02    3.37
   4  -2   5    2.72    3.65
   4   2  -5    2.04    2.83
   4   2  -5   13.70    4.42
  -4  -2  -5    2.91    3.52
  -4  -2  -5    2.35    4.28
   4  -2   5    9.44    4.87
  -4  -2  -5    2.04    3.12
  -4   2  -5   -0.28    2.73
   4   2   5    2.27    3.07
  -4  -2   5    9.90    4.56
  -4  -2   5    3.78    2.72
   4  -2  -5    4.54    3.76
   4  -2  -5    0.37    2.96
   4  -3   5  565.64   31.50
   4   3  -5  565.67   31.36
  -4  -3  -5  580.54   30.52
   4  -3   5  579.52   30.48
  -4  -3  -5  575.58   27.04
  -4  -3  -5  579.13   30.34
   4   3  -5  556.25   20.56
   4  -3  -5  540.74   28.39
   4  -3  -5  549.79   31.48
  -4  -3   5  565.05   20.72
  -4  -3   5  565.87   24.65
  -4   3  -5  568.32   32.05
  -4  -4  -5  121.22   13.76
  -4  -4  -5  102.67   11.93
   4  -4   5  114.61   14.76
  -4  -4  -5  114.19   13.55
   4  -4   5  122.84   14.53
   4   4  -5  128.07   15.90
   4  -4  -5  108.56   13.59
   4   4   5  113.96   12.35
  -4  -4   5  110.01   11.94
  -4   4  -5  115.90   14.92
   4  -4  -5  113.37   14.76
   4   5  -5   54.35   13.40
   4  -5   5   39.66   11.49
  -4  -5  -5   29.24    8.75
   4  -5   5   47.17   11.71
  -4  -5  -5   55.48    9.89
   4  -5  -5   56.73   12.81
  -4  -5   5   40.52    9.55
   4   5   5   57.10   11.22
   4  -5  -5   62.61   12.97
  -4   5  -5   41.80   11.47
   4   6  -5   21.10    7.43
  -4  -6  -5   29.31    7.79
  -4  -6  -5   26.10    8.55
   4  -6   5   21.83    9.02
   4  -6  -5   30.60    8.24
  -4   6  -5   10.02    7.79
  -4  -6   5   23.02    6.97
   4  -6  -5   16.55    8.27
   4  -7   5  284.81   28.08
  -4  -7  -5  287.85   23.59
  -4  -7  -5  287.53   26.05
   4   7  -5  305.54   28.87
   4  -7   5  295.23   24.54
  -4  -7   5  291.87   22.71
   4  -7  -5  242.86   25.44
  -4   7  -5  248.64   26.07
   4   7   5  249.21   20.57
   4  -7  -5  268.92   25.99
  -4  -8  -5   67.84   14.65
   4  -8   5   71.84   16.77
  -4  -8   5   48.40   14.20
   4  -8  -5   35.06   13.32
   4  -8  -5   43.62   15.28
  -4   8  -5   57.95   15.31
   4   0   6  151.70   16.03
   4   0  -6  173.69   12.94
  -4   0  -6  184.11   16.31
   4   0   6  161.46   16.01
  -4   0  -6  165.05   16.36
   4   0  -6  163.06   15.01
  -4   0   6  159.54   14.00
   4  -1   6    0.83    3.18
  -4  -1  -6    3.59    3.91
   4   1  -6    3.76    3.55
   4  -1   6    5.23    3.63
  -4  -1  -6    1.34    3.14
   4   1  -6    2.43    3.83
   4  -1  -6    6.91    3.24
  -4  -1   6    2.98    3.38
  -4   1  -6    8.91    4.61
  -4   1  -6    5.36    3.95
   4  -1  -6   -0.66    2.92
   4  -1  -6    5.87    3.17
   4   1   6   -3.00    3.41
   4   2  -6   22.88    7.58
   4  -2   6   36.59   10.16
   4   2  -6   36.77    6.72
   4  -2   6   29.27    8.61
  -4  -2  -6   31.10    8.51
  -4  -2  -6   36.95    9.54
  -4  -2  -6   32.19    7.31
  -4   2  -6   24.17    8.24
   4  -2  -6   23.03    7.51
   4  -2  -6   28.45    7.52
   4   2   6   33.43    9.54
  -4  -2   6   31.88    7.23
   4  -3   6   21.92    8.03
   4  -3   6   29.93    8.82
  -4  -3  -6   40.99    9.27
  -4  -3  -6   39.21   10.73
   4   3  -6   22.29    5.16
  -4  -3  -6   29.73    8.94
   4   3  -6   41.10   10.59
   4  -3  -6   18.51    7.21
   4   3   6   18.31    7.22
  -4  -3   6   27.94    8.00
  -4  -3   6   23.67    5.94
  -4   3  -6   30.94    9.20
   4  -3  -6   18.63    7.09
  -4  -4  -6  278.72   19.29
  -4  -4  -6  271.57   22.94
   4  -4   6  259.63   21.88
   4   4  -6  304.93   13.68
  -4  -4  -6  275.95   22.32
   4   4  -6  284.80   24.35
   4  -4   6  298.77   24.89
   4  -4  -6  286.12   22.22
  -4  -4   6  283.49   19.94
   4  -4  -6  297.74   24.55
   4   4   6  285.84   19.54
  -4   4  -6  305.99   25.61
   4  -5   6    0.78    5.51
  -4  -5  -6    5.31    4.96
  -4  -5  -6   25.12    7.45
   4  -5   6   -1.55    5.56
   4   5  -6    6.65    3.79
   4  -5  -6    9.25    4.97
  -4   5  -6   12.20    5.51
   4   5   6    7.25    4.31
   4  -5  -6    1.28    4.66
  -4  -5   6    8.05    3.47
   4  -6   6  150.53   20.37
  -4  -6  -6  132.21   15.71
  -4  -6  -6  109.82   16.89
   4   6  -6  117.00   18.44
   4  -6  -6  146.61   17.58
  -4  -6   6  127.44   15.44
  -4   6  -6  155.18   19.27
   4  -6  -6  117.41   17.29
   4   6   6  125.70   14.13
   4   7  -6   11.02    6.64
  -4  -7  -6    1.63    5.50
  -4  -7  -6   -9.74    5.64
  -4   7  -6    3.74    7.83
   4  -7  -6    1.96    5.95
   4   7   6   -6.15    6.32
   4  -7  -6   -4.35    6.42
  -4  -7   6   12.40    6.24
   4   0   7    1.82    3.31
  -4   0  -7    1.69    3.82
   4   0  -7   -1.57    3.27
  -4   0  -7    1.96    4.07
   4   0   7   -1.15    3.29
   4  -1   7   60.98   13.14
  -4   1   7   68.79   10.95
   4  -1   7   69.68   12.16
  -4   1   7   80.50    7.50
  -4  -1  -7   57.62   10.24
   4   1  -7   61.87    9.64
   4   1  -7   51.40   10.51
  -4  -1  -7   64.43   11.46
  -4   1  -7   59.56   11.14
  -4   1  -7   58.99   10.74
   4   1   7   64.94   13.39
  -4  -1   7   55.84    9.58
   4  -1  -7   75.37    7.83
   4  -1  -7   50.83    6.97
   4  -1  -7   58.83    8.87
   4  -1  -7   48.49   11.23
  -4  -2  -7   58.70   12.51
   4   2  -7   42.49   10.52
   4   2  -7   45.78    8.26
   4  -2   7   54.64   12.74
   4  -2   7   49.43   11.42
  -4  -2  -7   60.05   10.22
   4   2   7   56.88   12.91
  -4   2  -7   68.10   12.03
   4  -2  -7   46.42   11.13
   4  -2  -7   60.97   10.23
  -4  -2   7   61.51   11.95
   4   3  -7  218.38   15.14
   4  -3   7  187.58   19.29
  -4  -3  -7  224.38   20.95
   4   3  -7  185.81   19.26
  -4  -3  -7  188.48   16.53
  -4  -3  -7  203.91   20.37
   4  -3   7  167.06   19.22
  -4   3  -7  192.66   20.21
   4   3   7  172.01   19.61
  -4  -3   7  200.32   17.61
   4  -3  -7  183.63   19.12
   4  -3  -7  204.79   19.12
  -4  -4  -7    0.63    4.32
   4  -4   7    2.49    5.23
  -4  -4  -7   -5.79    4.26
   4   4  -7    0.00    3.22
   4  -4   7   -3.23    4.76
   4   4  -7   -1.28    4.49
  -4  -4  -7   10.30    6.10
  -4  -4   7   -6.19    6.26
  -4  -4   7    5.25    3.06
  -4   4  -7    1.43    5.11
   4  -4  -7   13.46    5.15
   4   4   7    8.81    5.49
   4  -5   7   83.99   16.56
   4   5  -7  111.38   15.17
   4  -5   7   90.88   15.80
  -4  -5  -7  100.06   14.77
  -4  -5  -7  101.48   14.28
  -4   5  -7   97.70   15.38
   4  -5  -7  121.23   16.39
   4   5   7   92.71   11.62
  -4  -5   7   96.18   14.53
   4  -5  -7  108.46   15.91
   4   6  -7   22.33    9.37
  -4  -6  -7   10.05    7.38
  -4  -6  -7    6.82    6.38
   4  -6   7   21.92    9.07
   4  -6   7   -3.89    7.21
  -4   6  -7    6.11    6.95
  -4  -6   7    3.05    6.33
   4  -6  -7   21.76    7.69
   4   6   7   15.27    6.28
   4  -6  -7   22.22   10.10
  -4  -7  -7  215.13   26.05
   4  -7   7  227.47   23.35
  -4  -7  -7  150.26   20.91
   4  -7   7  241.81   20.22
   4   7  -7  150.47   21.75
   4  -7  -7  167.45   23.91
   4  -7  -7  198.10   24.81
  -4  -7   7  231.67   19.77
  -4   7  -7  200.01   24.78
  -4   0  -8  785.83   38.90
   4   0  -8  799.69   33.52
   4   0  -8  787.93   39.23
  -4   0  -8  744.06   40.50
   4   0   8  779.00   41.10
  -4   0   8  723.21   36.24
   4   0   8  699.69   40.15
   4  -1   8  161.16   18.71
   4   1  -8  192.62   17.45
  -4   1   8  141.67   17.00
  -4  -1  -8  145.93   18.05
  -4  -1  -8  161.17   16.79
   4  -1   8  196.98   19.17
   4   1  -8  165.94   16.58
   4  -1  -8  157.88   12.85
   4   1   8  195.54   19.27
  -4   1  -8  166.44   18.10
  -4  -1   8  168.48   17.12
  -4   1  -8  150.20   17.65
   4  -1  -8  180.77   17.64
  -4   2   8  291.62   24.12
   4   2  -8  285.59   23.32
   4   2  -8  292.21   20.40
   4  -2   8  272.93   23.80
  -4  -2  -8  296.11   24.98
   4  -2   8  286.35   23.59
  -4  -2  -8  285.49   21.56
  -4  -2   8  280.03   21.82
   4   2   8  291.40   25.81
   4  -2  -8  305.10   23.17
   4  -2  -8  261.82   24.00
  -4   2  -8  273.54   24.44
   4   3  -8   20.79    6.73
  -4  -3  -8   19.94    7.11
   4  -3   8   14.07    7.47
  -4  -3  -8   29.38    7.06
   4  -3   8   15.63    7.77
   4   3  -8   16.75    8.30
  -4  -3  -8   15.88    6.77
  -4   3  -8   21.03    7.91
  -4  -3   8   12.66    6.31
   4   3   8   10.41    7.44
   4  -3  -8   21.12    8.84
   4  -3  -8   12.38    7.71
   4  -4   8  112.45   17.67
   4   4  -8   87.28   16.33
  -4  -4  -8  131.48   13.20
  -4  -4  -8  108.29   16.24
   4   4  -8   97.25   11.39
   4  -4   8  143.82   15.99
  -4  -4  -8  132.51   17.24
   4   4   8   99.10   16.95
   4  -4  -8  101.87   16.89
  -4  -4   8  113.92   15.01
   4  -4  -8  144.78   16.69
  -4   4  -8  111.52   17.54
  -4  -5  -8    1.10    7.43
   4  -5   8    5.43    7.63
   4  -5   8    3.48    7.35
  -4  -5  -8    6.79    7.10
   4   5  -8    5.45    8.04
   4  -5  -8   19.05    7.65
   4  -5  -8   17.28    6.79
   4   5   8    5.71    5.61
  -4   5  -8    1.80    7.15
   4  -6   8   85.15   13.04
   4   6  -8   51.82   14.14
  -4  -6  -8   70.94   17.72
   4  -6   8   57.38   17.27
   4  -6  -8   86.91   18.75
  -4   6  -8   86.68   14.93
   4  -6  -8   84.44   15.64
  -4  -6   8   90.58   13.56
  -4   0  -9    6.28    4.54
   4   0  -9   -3.50    4.24
   4   0   9   -3.20    4.26
   4   0   9    0.92    4.45
   4  -1   9  260.90   23.86
   4  -1   9  344.22   25.93
   4   1  -9  248.85   20.41
  -4   1   9  273.34   23.66
  -4  -1  -9  282.92   25.21
   4   1  -9  257.27   22.21
  -4  -1  -9  257.44   22.44
   4  -1  -9  276.18   16.36
  -4   1  -9  281.58   25.93
   4  -1  -9  277.87   25.04
  -4   1  -9  260.51   23.85
   4   1   9  259.91   24.22
  -4  -1   9  246.41   22.23
   4  -2   9   35.56   12.12
  -4   2   9   46.06   12.33
  -4  -2  -9   30.59   10.53
  -4  -2  -9   32.53   10.39
   4  -2   9   57.62   13.33
   4   2  -9   42.65   10.91
   4   2  -9   31.19   10.94
   4  -2  -9   45.25   11.21
   4  -2  -9   33.98   10.95
  -4   2  -9   42.85   10.85
   4   2   9   37.47   12.22
   4   3  -9  527.62   29.69
   4  -3   9  503.80   37.53
  -4  -3  -9  551.58   30.17
   4   3  -9  538.29   35.46
  -4  -3  -9  526.03   36.86
   4  -3   9  517.50   35.46
   4   3   9  507.81   36.71
   4  -3  -9  522.10   37.26
   4  -3  -9  517.05   33.85
  -4  -3   9  529.30   32.60
  -4   3  -9  530.29   36.19
   4  -4   9   12.95    9.37
   4   4  -9   31.36   11.07
  -4  -4  -9    4.97    5.36
   4   4  -9   11.32    7.08
  -4  -4  -9   16.68   10.25
   4  -4  -9   23.36    9.32
  -4  -4   9   18.46    4.19
  -4   4  -9   30.88   10.57
   4  -4  -9   21.17    9.73
   4   4   9   30.47   11.25
   4  -5   9  266.34   25.71
  -4  -5  -9  303.17   30.21
  -4  -5  -9  285.83   28.58
   4   5  -9  305.17   29.40
   4  -5   9  325.99   29.14
   4   5   9  266.92   29.42
   4   5   9  305.04   19.67
   4  -5  -9  293.39   27.79
  -4   5  -9  239.85   28.57
  -4  -5   9  310.77   24.97
   4  -5  -9  256.04   27.49
  -4  -6  -9   17.81   10.58
   4   6  -9   17.91   11.68
  -4  -6  -9   27.91    9.38
   4  -6   9   36.89   10.16
   4  -6   9    6.47    9.65
  -4   6  -9    8.53    9.13
   4  -6  -9   11.93   11.70
  -4  -6   9   20.78    6.55
   4  -6  -9   20.51   10.79
   4   0 -10  478.12   34.33
  -4   0 -10  497.09   33.78
   4   0 -10  503.07   28.19
   4   0  10  527.08   38.15
   4   0  10  569.73   37.90
  -4   0  10  514.61   33.42
  -4   0 -10  532.66   37.33
   4   1 -10   33.96    9.02
  -4  -1 -10   36.60   12.03
   4  -1  10   49.48   11.19
  -4  -1 -10   23.22   10.55
  -4   1  10   43.47   12.49
   4   1 -10   35.74    9.82
   4  -1  10   37.48   10.18
  -4   1 -10   44.71   12.57
   4  -1 -10   33.07    7.90
   4   1  10   58.81   10.42
  -4   1 -10   33.38   11.44
  -4  -1  10   44.30   10.56
   4  -2  10  279.38   27.97
   4  -2  10  322.03   26.35
   4   2 -10  307.10   24.83
   4   2 -10  260.86   24.42
  -4  -2 -10  290.62   28.48
  -4  -2 -10  278.09   24.36
  -4   2  10  311.32   25.22
  -4   2 -10  318.14   28.60
  -4  -2  10  340.52   25.81
   4  -2 -10  304.79   29.27
   4   2  10  363.03   28.67
   4   3 -10    5.43    5.03
  -4   3  10   16.89    7.29
  -4  -3 -10    2.05    6.62
   4  -3  10    8.00    6.38
  -4  -3 -10   -5.67    6.28
   4   3  10    8.40    7.15
   4  -3 -10    0.06    5.52
  -4   3 -10    8.39    6.96
   4  -3 -10    1.62    6.22
   4  -4  10  278.43   29.47
  -4  -4 -10  257.48   28.57
   4   4 -10  254.21   26.67
   4   4 -10  257.28   20.12
   4  -4  10  222.98   26.65
  -4  -4  10  221.20   24.54
   4   4  10  315.12   30.30
   4  -4 -10  247.26   25.71
  -4   4 -10  245.80   27.73
   4  -4 -10  280.14   28.05
   4  -5  10   -6.76    6.88
  -4  -5 -10   11.73    9.31
  -4  -5 -10    3.84    9.73
  -4   5 -10    2.43    7.98
  -4  -5  10    0.67    7.68
   4   5  10   -7.76    9.04
   4  -5 -10   -1.80    6.72
   4  -5 -10   10.20    7.46
   4   0  11    7.35    5.63
   4   0 -11   -7.18    6.87
  -4   0  11   17.01    6.04
  -4   0 -11   11.04    6.50
   4   0  11   17.64    7.51
   4   0 -11    1.65    7.13
  -4   0 -11   -5.16    6.78
  -4  -1 -11  250.73   25.37
  -4   1  11  262.52   25.08
  -4  -1 -11  254.80   24.13
   4  -1  11  280.70   27.00
   4  -1  11  217.21   26.48
   4   1 -11  245.37   24.91
  -4   1 -11  274.91   28.78
  -4  -1  11  323.02   24.83
  -4   1 -11  256.49   26.58
   4  -1 -11  226.20   25.72
   4   1  11  250.02   26.43
  -4  -2 -11   11.86    7.44
   4  -2  11    9.95    6.10
   4   2 -11    3.42    7.91
  -4  -2 -11   -1.68    8.07
   4  -2  11   -5.05    5.93
   4   2 -11   -1.43    6.13
   4  -2 -11    3.39    8.38
  -4   2 -11   -0.13    6.83
   4  -3  11  216.38   22.79
   4  -3  11  175.45   25.73
   4   3 -11  152.05   22.67
  -4   3  11  181.25   22.23
   4   3 -11  168.03   19.15
  -4  -3 -11  156.80   23.13
  -4  -3  11  151.18   21.30
  -4   3 -11  129.99   22.39
   4  -3 -11  184.60   24.79
   4  -3 -11  187.47   24.10
   4   3  11  147.61   23.88
  -4   0  12   29.56    9.71
  -4   0 -12    5.37    9.01
   4   0  12    0.77    9.29
  -4   0 -12   31.12   10.23
   4   0  12    7.56    9.23
   4   0 -12  -13.16    7.41
   4   0 -12   15.44    7.35
  -4  -1 -12   12.04    8.53
  -4   1  12   17.03    8.40
   4   1 -12    6.59   10.65
   4  -1 -12    5.30    8.78
  -4   1 -12   32.40   12.39
   5   0   0   -2.90    1.54
   5   0   0   -1.92    0.97
  -5   0   0    5.30    2.01
  -5   0   0   -0.78    1.73
   5   1   0   97.92    8.03
  -5  -1   0  104.49    8.36
  -5  -1   0  108.54   10.38
  -5   1   0  100.60    9.60
   5  -1   0  107.92    7.69
  -5   1   0  112.12    7.42
   5  -1   0   96.85    9.61
  -5  -2   0  150.24    7.20
  -5   2   0  133.83   10.10
  -5  -2   0  134.14   12.19
   5   2   0  163.50    6.79
  -5   2   0  147.63   11.72
   5   2   0  135.82    9.11
   5  -2   0  157.31   13.22
   5  -2   0  131.95   10.15
   5   2   0  146.27    9.38
   5   2   0  149.35   13.02
  -5  -3   0  474.27   17.65
  -5   3   0  460.09   22.36
   5   3   0  450.20   24.82
   5   3   0  466.46   16.35
   5  -3   0  477.07   25.53
   5  -3   0  484.78   23.31
   5   3   0  455.69   17.29
   5   3   0  452.72   16.79
   5   4   0   47.53   10.76
   5  -4   0   42.28    8.99
   5   4   0   42.85   10.01
  -5   4   0   48.56    7.33
  -5  -4   0   32.38    5.70
   5  -4   0   46.64   10.18
  -5   5   0 1054.32   40.00
   5   5   0 1132.09   47.23
   5  -5   0 1062.43   44.84
   5  -5   0 1084.25   45.78
  -5  -5   0 1059.30   38.21
  -5   6   0    9.97    3.89
   5  -6   0   -5.34    4.06
  -5  -6   0   10.55    3.23
   5  -6   0   -4.43    4.18
   5  -7   0  273.88   24.47
  -5  -7   0  293.18   22.19
   5  -7   0  294.77   26.51
   5   7   0  295.00   25.36
  -5   7   0  298.10   22.16
  -5  -8   0   15.38    6.84
   5  -8   0    6.93    4.99
  -5   8   0   12.89    7.27
   5  -8   0    3.24    6.27
   5   8   0    3.41    7.69
  -5   0  -1 2072.93   57.96
  -5   0   1 2213.88   56.02
  -5   0   1 2141.41   56.77
   5   0   1 2083.78   56.62
  -5   0  -1 2152.83   50.43
   5   0   1 2140.31   48.77
   5   0  -1 2189.08   55.70
   5   1  -1  358.38   16.16
  -5  -1  -1  369.32   17.77
   5  -1   1  349.33   19.34
   5   1  -1  366.36   19.92
  -5  -1  -1  385.51   20.27
  -5   1   1  363.97   17.91
   5  -1   1  376.87   16.21
  -5   1   1  388.74   14.70
   5   1   1  368.38   17.67
  -5  -1   1  374.61   16.52
   5   1   1  376.60   17.86
   5  -1  -1  375.43   17.75
   5   1   1  357.04   13.69
  -5  -1   1  341.30   19.17
   5   1   1  387.46   13.73
  -5   1  -1  352.64   15.91
  -5   1  -1  368.82   19.73
   5  -1  -1  357.43   19.29
   5  -1  -1  391.52   14.76
  -5   2   1 2009.53   52.43
   5  -2   1 1947.43   57.69
   5   2  -1 1896.57   56.59
   5  -2   1 1959.58   52.41
   5   2  -1 1927.47   45.71
  -5   2   1 1941.07   51.25
  -5  -2  -1 1935.69   46.52
  -5  -2  -1 1922.49   56.65
   5  -2  -1 1960.35   57.67
  -5   2  -1 1878.44   55.22
  -5  -2   1 1959.49   46.18
   5   2   1 1914.58   57.37
   5   2   1 1957.09   50.44
   5   2   1 1937.54   45.40
   5   2   1 1987.65   50.08
   5  -2  -1 1916.82   51.75
   5  -2  -1 1996.27   50.89
   5   3  -1    1.85    2.91
  -5  -3  -1   -0.22    1.88
   5  -3   1    2.58    3.21
  -5   3   1    4.55    2.63
   5   3  -1    2.07    1.65
   5  -3   1    2.49    2.77
   5   3   1    2.53    3.08
   5  -3  -1    2.56    3.42
  -5   3  -1    0.17    2.16
   5   3   1    7.09    2.45
   5  -3  -1    1.36    2.66
  -5  -3   1    0.91    1.82
   5  -4   1  241.06   18.09
  -5   4   1  247.08   15.48
   5  -4   1  245.72   19.30
   5   4  -1  231.35   18.97
   5   4  -1  223.82   13.39
  -5  -4  -1  264.84   15.56
   5  -4  -1  249.32   18.38
   5   4   1  226.81   12.52
   5   4   1  251.57   12.99
   5   4   1  255.13   19.29
  -5   4  -1  253.26   18.14
   5  -4  -1  243.98   19.52
  -5  -4   1  257.59   14.32
   5  -5   1   19.17    7.40
   5   5  -1   15.46    7.30
  -5   5   1   19.05    5.83
   5  -5   1   18.51    5.13
  -5  -5  -1   15.64    5.65
  -5  -5   1   12.62    5.23
  -5   5  -1   10.81    5.63
   5   5   1   18.83    4.42
   5  -5  -1    7.00    5.25
   5   5   1   15.33    6.79
   5  -5  -1   12.86    6.05
   5  -6   1  287.90   22.75
   5   6  -1  264.84   22.87
  -5   6   1  254.03   18.10
  -5  -6  -1  271.51   20.27
   5  -6   1  272.39   22.96
   5   6   1  253.37   22.36
   5  -6  -1  240.85   21.67
  -5  -6   1  242.49   18.18
   5  -6  -1  268.97   23.35
  -5   6  -1  232.72   19.85
  -5   7   1   14.57    6.54
   5   7  -1    3.18    4.26
  -5  -7  -1    6.93    4.72
   5  -7   1   19.46    7.04
   5  -7   1   15.63    7.29
  -5   7  -1   13.56    7.49
  -5  -7   1   11.91    6.77
   5  -7  -1    7.43    6.66
   5   7   1    8.79    6.60
   5  -7  -1    5.07    7.33
   5  -8   1  122.94   16.94
   5   8  -1  131.69   21.19
  -5   8   1  140.08   14.40
   5  -8   1  139.73   19.26
  -5  -8  -1  162.37   18.18
   5   8   1  131.44   17.56
   5  -8  -1  132.18   19.87
   5  -8  -1  110.56   18.76
  -5   8  -1  150.60   17.96
  -5  -8   1  125.45   16.05
   5   0   2   -2.46    2.07
   5   0   2   -0.67    1.54
  -5   0   2   -1.46    1.88
  -5   0   2    3.07    2.01
  -5   0  -2    4.34    2.46
   5   0  -2    0.30    1.99
  -5   0  -2    3.70    2.13
   5   0  -2   -0.60    1.98
   5   0   2    0.31    1.81
   5  -1   2  746.86   30.58
  -5   1   2  776.32   27.13
   5   1  -2  744.05   29.62
  -5  -1  -2  744.92   30.55
   5   1  -2  778.89   26.06
  -5   1   2  764.08   23.18
   5  -1   2  745.14   27.08
   5   1   2  765.94   25.61
  -5   1  -2  753.67   31.06
  -5   1  -2  741.34   27.28
   5  -1  -2  743.90   26.64
   5   1   2  752.37   28.91
   5   1   2  746.72   25.12
   5  -1  -2  775.94   23.35
  -5  -1   2  763.77   25.77
   5  -1  -2  745.62   30.06
  -5  -2  -2  103.27   10.79
  -5   2   2  100.42    8.44
  -5   2   2   97.36    8.65
   5   2  -2  110.33   11.46
   5   2  -2  107.73    7.19
   5  -2   2   79.93    9.98
  -5  -2  -2   88.38    8.24
   5  -2   2  100.31    9.85
   5  -2  -2  107.23    8.68
   5   2   2   99.60    8.56
   5   2   2  104.25    8.34
  -5  -2   2   97.81    6.96
   5  -2  -2   92.02   10.72
  -5   2  -2   97.91   10.69
   5  -2  -2  121.20    8.89
   5   2   2   92.29    9.31
   5  -3   2 1078.12   41.73
   5   3  -2 1041.25   28.81
   5  -3   2 1123.34   40.78
  -5   3   2 1073.79   33.24
   5   3  -2 1079.95   42.64
  -5  -3  -2 1066.82   35.48
  -5  -3  -2 1109.01   35.69
  -5  -3  -2 1102.39   41.19
   5  -3  -2 1092.86   33.98
   5   3   2 1126.62   41.76
   5  -3  -2 1125.36   38.89
   5   3   2 1104.20   35.88
   5  -3  -2 1120.62   43.39
  -5   3  -2 1132.25   41.79
   5   3   2 1014.10   49.14
  -5  -3   2 1098.98   29.40
   5  -4   2    6.90    4.03
  -5   4   2   -3.51    2.15
   5   4  -2    2.01    4.07
  -5  -4  -2    0.49    2.67
  -5  -4  -2    0.99    2.68
   5  -4   2    0.41    3.27
   5  -4  -2   -3.51    2.55
  -5  -4   2   -1.14    2.47
   5  -4  -2   -2.05    2.92
   5  -4  -2   -0.15    2.78
   5   4   2   -1.69    2.59
   5   4   2    3.46    2.03
  -5   4  -2   -3.50    2.27
  -5  -5  -2  274.09   16.00
   5  -5   2  295.37   22.42
   5   5  -2  289.21   23.75
  -5   5   2  272.20   15.84
   5  -5   2  293.52   22.98
  -5  -5  -2  288.94   19.74
  -5  -5   2  287.87   17.19
   5  -5  -2  294.99   23.56
  -5   5  -2  304.14   22.21
   5   5   2  265.21   16.28
   5  -5  -2  295.49   22.01
   5   5   2  286.95   21.30
  -5  -6  -2   -4.66    3.29
   5  -6   2   -6.20    3.88
   5   6  -2    3.35    5.04
   5  -6   2    4.46    4.20
  -5   6   2   -3.76    2.79
   5  -6  -2   -0.28    4.26
   5   6   2    2.02    5.21
  -5   6  -2   -0.72    4.33
   5  -6  -2   -5.96    3.31
  -5  -6   2   -5.90    3.49
  -5   7   2  383.89   21.57
   5  -7   2  422.19   30.00
  -5  -7  -2  407.52   28.16
   5   7  -2  404.90   32.47
   5  -7   2  436.27   32.05
   5   7   2  427.59   29.27
   5  -7  -2  404.26   31.30
   5   7   2  421.49   19.14
   5  -7  -2  465.03   32.22
  -5   7  -2  427.42   29.97
  -5  -7   2  422.83   27.12
  -5  -8  -2   35.32   10.42
   5  -8   2   24.72    9.00
   5  -8   2   30.02   10.96
   5   8  -2    5.82    8.98
  -5   8   2   20.46    7.04
   5  -8  -2   19.33   10.30
  -5   8  -2   24.93    8.71
  -5   0   3 2705.03   57.48
  -5   0  -3 2658.23   73.05
   5   0  -3 2739.74   68.88
   5   0  -3 2677.76   58.37
   5   0  -3 2748.00   68.02
   5   0   3 2682.76   72.19
   5   0   3 2691.85   67.71
   5   1  -3    1.84    2.11
  -5   1   3    0.48    1.97
   5  -1   3   -2.16    1.80
   5  -1   3    1.12    2.47
   5  -1  -3   -2.24    1.70
   5   1   3    1.61    2.67
   5  -1  -3    5.18    2.57
  -5   1  -3    2.21    2.66
   5   1   3    2.75    2.75
  -5  -1   3    0.41    2.17
   5  -1  -3   -0.15    2.18
   5   1   3    2.40    3.11
   5  -1  -3   -0.15    1.68
   5  -2   3  241.79   17.65
  -5   2   3  224.82   12.45
   5  -2   3  256.88   16.95
   5   2  -3  246.07   17.20
  -5  -2  -3  241.06   17.11
  -5  -2  -3  247.52   15.54
  -5  -2  -3  247.36   16.36
   5   2  -3  242.03   12.12
   5   2   3  220.55   16.00
   5   2   3  224.23   15.35
   5  -2  -3  236.03   13.02
   5  -2  -3  252.47   14.89
  -5   2  -3  230.74   17.61
   5  -2  -3  220.64   17.03
  -5  -2   3  241.69   12.05
   5  -2  -3  236.38   13.14
   5   3  -3   44.00    5.47
   5   3  -3   45.05   10.09
  -5  -3  -3   44.68    7.94
   5  -3   3   51.07    8.88
  -5  -3  -3   48.80    7.51
   5  -3   3   47.63    8.61
  -5   3   3   61.94    5.64
  -5  -3  -3   44.58    7.29
   5   3   3   51.59    7.99
   5  -3  -3   42.95    6.30
   5   3   3   52.33    8.74
   5  -3  -3   46.33   10.26
  -5  -3   3   32.48    4.98
   5  -3  -3   39.69    7.33
  -5   3  -3   47.70    8.50
  -5  -4  -3 1763.13   52.21
  -5   4   3 1666.77   42.01
   5   4  -3 1666.77   60.67
   5   4  -3 1590.86   45.94
   5  -4   3 1669.70   58.30
  -5  -4  -3 1679.16   53.77
   5  -4   3 1680.61   57.97
   5  -4  -3 1676.34   43.24
   5   4   3 1664.11   55.94
  -5  -4   3 1674.84   46.13
   5  -4  -3 1651.34   55.34
   5  -4  -3 1668.57   60.13
  -5   4  -3 1685.00   59.12
   5   5  -3   57.19   13.16
  -5  -5  -3   42.44    8.72
  -5  -5  -3   52.67   11.10
   5  -5   3   49.73   11.69
   5  -5   3   46.61   11.30
  -5   5   3   39.83    5.78
   5   5   3   43.37   10.97
   5  -5  -3   64.02    6.42
   5  -5  -3   44.63   11.49
   5  -5  -3   54.43   11.71
  -5   5  -3   51.15   11.69
  -5  -5   3   48.18    7.86
  -5  -6  -3  698.93   30.65
  -5  -6  -3  674.18   35.77
   5  -6   3  707.51   37.44
   5   6  -3  739.74   41.51
   5  -6   3  709.02   40.34
   5  -6  -3  688.31   38.59
  -5   6  -3  695.85   39.09
   5   6   3  696.12   35.53
  -5  -6   3  679.61   32.53
   5  -6  -3  712.45   40.62
  -5  -7  -3   -1.08    5.14
  -5  -7  -3   18.45    6.38
   5   7  -3    6.58    5.64
   5  -7   3    5.67    5.58
  -5   7  -3    5.16    7.05
   5  -7  -3    9.34    7.21
  -5  -7   3    1.04    5.82
   5   7   3   24.16    6.85
   5  -7  -3    9.75    6.70
   5  -8   3   79.28   14.58
  -5  -8  -3   51.99   12.40
   5   8  -3   35.92   12.73
   5  -8   3   35.03   11.91
  -5   8  -3   82.61   14.12
  -5  -8   3   50.30   12.35
   5  -8  -3   81.27   13.50
   5  -8  -3   31.45   13.72
   5   0  -4    0.70    2.85
   5   0   4   -0.70    2.10
   5   0   4   -2.98    2.28
  -5   0  -4    2.16    2.94
   5   0  -4    0.73    1.91
   5   0  -4   -0.98    2.08
   5   1  -4  924.18   32.01
   5  -1   4  844.33   37.03
  -5  -1  -4  954.77   37.74
  -5  -1  -4  880.67   36.72
  -5   1   4  901.35   29.31
   5   1  -4  914.48   35.57
   5  -1   4  917.60   35.94
   5  -1  -4  886.30   29.29
   5   1   4  900.61   37.04
   5  -1  -4  847.80   29.33
   5  -1  -4  892.55   30.25
  -5  -1   4  902.39   25.66
  -5  -1   4  894.27   26.68
   5   1   4  906.29   35.06
  -5   1  -4  900.95   37.82
   5  -1  -4  910.23   36.31
   5  -2   4   42.39    9.12
  -5  -2  -4   42.44    7.53
  -5  -2  -4   39.73    7.37
   5  -2   4   50.97    8.86
   5   2  -4   43.58    9.51
   5   2  -4   36.69    5.81
  -5  -2  -4   61.95    8.99
   5   2   4   53.43    7.82
  -5  -2   4   47.63    5.92
   5  -2  -4   47.51    8.47
   5  -2  -4   36.75    5.66
  -5  -2   4   38.72    5.22
   5  -2  -4   51.40    5.61
  -5   2  -4   37.44    9.07
   5   2   4   46.90    9.78
  -5  -2   4   45.32    5.27
   5  -2  -4   46.81    7.23
   5   3  -4 1311.09   38.39
  -5  -3  -4 1435.38   49.04
   5  -3   4 1428.86   51.19
  -5  -3  -4 1389.12   48.54
   5  -3   4 1327.70   50.98
  -5  -3  -4 1395.25   48.16
   5   3  -4 1408.93   52.66
   5  -3  -4 1386.89   52.54
  -5  -3   4 1366.89   38.49
   5  -3  -4 1404.83   46.83
  -5   3  -4 1430.42   53.13
  -5  -3   4 1394.63   34.33
  -5  -4  -4   11.13    5.55
  -5  -4  -4   13.85    5.88
   5  -4   4   10.02    5.77
  -5  -4  -4   11.37    5.69
   5  -4   4   18.48    6.44
   5   4  -4    6.64    5.40
   5  -4  -4    7.63    4.81
   5   4   4    7.60    5.12
  -5   4  -4   11.71    4.87
  -5  -4   4    4.16    3.79
   5  -4  -4   15.82    6.27
  -5  -5  -4   21.62    6.95
   5  -5   4   16.33    7.20
   5   5  -4   26.00    9.28
   5  -5   4   19.38    8.36
  -5  -5  -4   27.96    8.83
   5  -5  -4   28.07    8.92
   5  -5  -4   35.55   10.80
  -5   5  -4   21.01    8.88
   5   5   4   22.94    6.28
  -5  -5   4   26.53    7.35
   5   6  -4   14.78    6.35
   5  -6   4    2.73    5.21
  -5  -6  -4   16.01    6.78
  -5  -6  -4    3.55    4.89
   5  -6   4    1.45    5.01
  -5   6  -4    9.11    7.45
   5   6   4   -2.00    5.43
   5  -6  -4    9.14    7.12
  -5  -6   4    7.48    4.40
   5  -6  -4    2.17    5.23
  -5  -7  -4  487.26   33.13
   5  -7   4  480.22   35.41
   5   7  -4  469.04   36.50
   5  -7   4  467.38   31.84
   5  -7  -4  488.71   34.84
  -5   7  -4  485.93   35.31
   5  -7  -4  468.76   35.07
   5   7   4  482.95   29.10
  -5  -7   4  427.22   28.16
  -5  -8  -4   47.74   11.70
   5   8  -4   44.72   15.58
   5  -8   4   41.42   13.18
   5  -8   4   42.12   12.63
   5   8   4   41.81   10.62
   5  -8  -4   35.13   13.39
  -5   8  -4   34.65   13.25
   5  -8  -4   22.47   10.50
   5   0  -5 1523.37   46.47
   5   0  -5 1457.67   48.55
  -5   0   5 1465.97   43.51
   5   0   5 1429.10   52.46
  -5   0   5 1427.73   41.06
   5   0   5 1491.61   51.26
  -5   0  -5 1480.04   52.22
   5   1  -5   -1.21    2.52
   5   1  -5    4.01    3.90
  -5  -1  -5    1.42    3.02
   5  -1   5    1.00    2.82
  -5  -1  -5   -3.77    2.44
   5  -1   5   -3.92    2.84
  -5  -1   5   -2.63    1.88
  -5   1  -5   -1.00    2.70
   5  -1  -5   -0.67    2.81
   5  -1  -5   -4.80    2.73
   5  -1  -5    4.36    2.63
  -5  -1   5   -3.21    2.39
  -5  -2  -5    8.87    4.54
  -5  -2  -5    5.88    4.47
   5   2  -5   14.22    4.27
   5   2  -5   10.40    5.57
   5  -2   5    7.79    5.39
   5  -2   5    4.36    4.77
  -5  -2   5   16.51    5.42
   5  -2  -5   16.74    5.75
   5   2   5    6.73    4.98
   5  -2  -5    9.88    4.55
   5  -2  -5   12.80    3.96
   5  -2  -5   11.89    3.79
   5   2   5   15.00    6.15
  -5  -2   5   13.67    3.59
  -5  -2   5   21.28    4.32
  -5  -3  -5  110.66   12.73
  -5  -3  -5  114.29   13.35
   5   3  -5   95.75    8.20
   5  -3   5   72.33   11.58
  -5  -3  -5   91.99   12.43
   5   3  -5   91.37   13.05
   5  -3   5   97.36   13.25
   5  -3  -5   94.61   13.05
   5   3   5  110.82   12.66
   5  -3  -5  126.84   12.71
  -5  -3   5   94.56    8.11
  -5   3  -5   99.67   13.66
  -5  -3   5   90.82    9.51
  -5  -4  -5 1088.15   45.07
  -5  -4  -5 1114.85   46.47
   5  -4   5 1133.00   48.61
  -5  -4  -5 1086.13   43.50
   5   4  -5 1122.05   50.50
   5  -4   5 1098.89   48.14
  -5  -4   5 1115.31   37.77
   5  -4  -5 1096.58   45.49
   5  -4  -5 1083.08   49.85
   5   4   5 1093.90   43.72
  -5   4  -5 1096.85   50.14
   5   5  -5    9.68    6.95
   5  -5   5    6.15    6.36
  -5  -5  -5    7.15    5.70
  -5  -5  -5    0.71    4.96
   5  -5   5    2.28    5.50
  -5  -5   5    1.02    3.71
   5  -5  -5   22.63    6.24
   5   5   5    7.57    5.31
   5  -5  -5    4.40    6.01
  -5   5  -5   10.02    6.41
  -5  -6  -5  486.00   30.04
   5  -6   5  549.86   36.67
   5  -6   5  504.92   33.35
   5   6  -5  511.92   37.03
  -5  -6  -5  544.08   34.21
   5   6   5  524.61   30.52
   5  -6  -5  546.49   36.66
   5  -6  -5  527.67   34.47
  -5  -6   5  496.48   28.40
  -5   6  -5  510.74   36.28
   5   7  -5   25.61    9.17
   5  -7   5   27.43   11.26
   5  -7   5   52.59   14.01
  -5  -7  -5   35.29   10.81
  -5  -7  -5   37.05   10.47
  -5   7  -5   32.35   11.56
   5  -7  -5   36.24   13.47
  -5  -7   5   41.18   10.30
   5  -7  -5   31.47   11.81
   5   7   5   41.43   10.30
   5   8  -5   32.62   13.60
  -5  -8  -5   27.21    9.02
   5   8   5    3.37    9.86
  -5  -8   5   26.97   10.90
   5  -8  -5   17.13   11.05
   5  -8  -5    7.29    8.02
  -5   8  -5   24.31   11.11
  -5   0  -6   -0.30    2.84
  -5   0   6   -5.39    3.42
   5   0  -6   -1.82    2.91
  -5   0  -6   -1.57    2.74
   5   0   6    6.76    3.50
   5   0  -6   -4.15    2.33
  -5  -1  -6  267.23   21.36
  -5  -1  -6  261.07   20.16
   5  -1   6  274.76   20.97
   5  -1   6  252.02   20.53
   5   1  -6  267.89   18.17
   5   1  -6  248.00   18.58
   5  -1  -6  262.39   17.54
   5  -1  -6  250.18   15.32
   5   1   6  252.33   21.20
   5  -1  -6  217.29   17.94
  -5  -1   6  256.45   16.95
   5  -1  -6  267.73   20.40
   5   1   6  243.25   19.85
   5   2  -6   12.70    5.17
  -5  -2  -6   10.39    5.43
  -5  -2  -6   14.42    5.60
   5  -2   6    8.19    5.58
   5   2  -6   10.76    5.98
   5  -2   6    3.82    4.76
   5  -2  -6    9.18    5.39
   5   2   6   10.61    6.47
  -5  -2   6    8.15    4.38
  -5   2  -6    3.81    4.50
   5  -2  -6    8.39    2.84
   5  -2  -6   12.00    4.54
   5   3  -6  461.59   20.75
   5   3  -6  430.90   29.36
  -5  -3  -6  464.93   29.47
  -5  -3  -6  454.99   26.40
  -5  -3  -6  458.58   29.01
   5  -3   6  458.09   29.44
   5  -3   6  455.06   29.91
  -5  -3   6  464.45   22.52
  -5   3  -6  454.51   30.86
   5  -3  -6  451.05   30.31
   5   3   6  433.63   29.09
   5  -3  -6  426.70   26.01
  -5  -3   6  446.67   19.95
  -5  -4  -6   13.01    6.59
   5  -4   6   13.75    4.70
  -5  -4  -6    6.09    5.96
   5  -4   6   16.81    8.69
  -5  -4  -6   15.27    6.15
   5   4  -6   13.21    8.31
  -5  -4   6    3.79    5.62
   5  -4  -6    6.31    4.96
  -5   4  -6    1.19    4.89
   5  -4  -6    9.84    5.98
   5  -5   6   21.65    9.50
  -5  -5  -6   35.26   10.38
   5  -5   6   29.72   11.26
  -5  -5  -6   39.85   10.16
   5   5  -6   33.88   11.35
   5   5   6   24.57    8.71
  -5  -5   6   17.15    7.34
   5  -5  -6   34.15   10.56
  -5   5  -6   22.69    8.34
   5  -5  -6   27.25    9.28
   5  -6   6   10.33    7.54
   5   6  -6    8.25    8.40
  -5  -6  -6   13.31    7.92
  -5  -6  -6   31.80    8.44
  -5   6  -6   12.62    8.98
   5  -6  -6   21.63    9.19
   5   6   6   16.50    6.66
  -5  -6   6   12.52    7.00
   5  -6  -6   27.34    9.99
   5  -7   6  241.98   28.64
   5   7  -6  273.86   27.68
  -5  -7  -6  256.32   24.35
   5  -7   6  271.68   25.66
  -5  -7  -6  255.14   26.78
  -5  -7   6  298.49   22.37
   5  -7  -6  259.42   28.00
   5   7   6  306.92   21.49
   5  -7  -6  262.80   26.93
  -5   7  -6  262.92   29.34
   5   0  -7  671.82   30.22
  -5   0   7  659.32   31.10
   5   0  -7  662.82   33.82
   5   0   7  686.94   36.91
  -5   0  -7  650.64   35.04
   5   0   7  635.73   36.60
  -5   0  -7  637.65   36.68
   5   1  -7   48.77   10.77
  -5  -1  -7   43.39   11.18
   5   1  -7   30.91    8.71
  -5   1   7   50.21   10.48
   5  -1   7   39.44   10.69
  -5  -1  -7   49.43   11.29
  -5   1  -7   48.16   11.82
   5  -1  -7   46.87    8.61
   5   1   7   40.87   11.50
   5   1   7   43.10   10.60
  -5  -1   7   45.76    9.98
   5  -1  -7   44.21   10.93
   5  -1  -7   41.70    8.40
  -5  -2  -7  451.24   28.17
   5  -2   7  455.98   31.28
   5   2  -7  474.32   29.20
   5  -2   7  459.05   31.18
  -5  -2  -7  449.78   30.82
   5   2  -7  466.80   25.00
   5  -2  -7  465.74   27.65
  -5   2  -7  469.17   31.42
   5  -2  -7  460.25   30.80
  -5  -2   7  504.87   25.40
   5   2   7  463.85   30.76
  -5  -3  -7   10.83    7.43
   5  -3   7   13.88    5.71
   5   3  -7    7.41    4.37
  -5  -3  -7    0.69    4.90
   5  -3   7   11.44    6.65
  -5  -3  -7    7.82    6.27
   5  -3  -7   -1.50    4.66
   5  -3  -7    5.65    4.85
  -5  -3   7    4.72    5.06
  -5   3  -7    6.13    6.06
   5   3   7    0.36    6.07
   5  -4   7  226.11   20.74
  -5  -4  -7  189.76   20.55
  -5  -4  -7  216.73   21.36
  -5  -4  -7  219.30   17.90
   5  -4   7  177.44   19.77
   5   4  -7  217.48   22.13
   5   4  -7  169.58   12.05
  -5  -4   7  182.50   15.70
   5   4   7  155.35   17.32
   5  -4  -7  204.82   22.00
   5  -4  -7  204.92   20.09
   5   4   7  169.65   20.34
  -5   4  -7  177.55   21.66
  -5  -5  -7    9.17    6.74
  -5  -5  -7   23.64    6.66
   5  -5   7   11.04    5.75
   5  -5   7   -2.42    5.45
  -5   5  -7   15.81    7.60
   5  -5  -7    9.14    6.01
   5  -5  -7    9.07    5.36
   5   5   7    1.66    4.15
   5  -6   7  148.13   22.04
   5   6  -7  142.08   22.13
   5  -6   7  151.76   17.23
  -5  -6  -7  134.81   17.73
  -5  -6  -7  174.53   21.66
   5   6   7  179.70   17.54
   5  -6  -7  176.02   22.72
  -5  -6   7  126.38   16.89
   5  -6  -7  149.18   19.95
  -5   6  -7  133.02   19.40
   5  -7   7   22.85    9.10
   5   7  -7    8.94   10.02
  -5  -7  -7   36.98    9.91
   5  -7   7    3.58    9.34
  -5   7  -7   10.18   11.29
   5  -7  -7   16.01    9.86
   5  -7  -7    6.96    8.09
   5   7   7   26.61    7.39
  -5   0   8   -6.05    3.92
  -5   0  -8    3.15    4.94
  -5   0  -8    4.56    5.84
   5   0   8    1.84    6.00
   5   0   8   12.20    3.82
   5   0  -8   -3.66    4.02
  -5  -1  -8  133.03   16.60
   5   1  -8  180.20   17.43
  -5   1   8  141.40   16.08
   5  -1   8  183.48   17.95
   5  -1   8  158.66   18.41
  -5  -1  -8  148.89   18.28
   5   1  -8  166.11   15.59
   5   1   8  180.51   18.68
  -5   1  -8  139.96   17.57
   5  -1  -8  163.74   13.33
   5   1   8  166.87   19.07
  -5  -1   8  157.12   14.87
   5  -1  -8  138.19   16.95
  -5  -2  -8   33.28    9.58
  -5   2   8   24.23    9.67
  -5  -2  -8   37.85    9.91
   5  -2   8   20.72    8.80
   5   2  -8   44.31   11.73
   5   2  -8   45.33    9.96
  -5   2  -8   43.11   10.97
  -5  -2   8   33.48    8.00
   5  -2  -8   38.89    9.54
   5  -2  -8   25.85    9.67
   5   2   8   61.71    9.94
   5  -3   8  223.60   21.19
  -5  -3  -8  249.96   21.41
   5   3  -8  234.36   18.01
   5  -3   8  242.46   24.60
   5   3  -8  217.67   22.55
  -5  -3  -8  211.77   23.06
   5  -3  -8  228.98   21.33
   5   3   8  231.16   22.45
  -5  -3   8  286.17   19.40
  -5   3  -8  244.59   25.15
   5  -3  -8  280.74   23.26
   5   4  -8   -6.88    4.01
   5   4  -8   -3.25    6.33
   5  -4   8   -2.04    4.60
  -5  -4  -8   -5.10    5.44
  -5  -4  -8    4.50    4.92
   5  -4   8   15.82    5.00
   5   4   8   -2.17    5.34
  -5  -4   8    1.50    5.82
  -5   4  -8   18.21    6.62
   5  -4  -8    2.97    6.01
   5  -4  -8   -2.02    4.00
   5   5  -8  413.70   34.20
  -5  -5  -8  435.51   33.46
   5  -5   8  407.99   31.32
   5  -5   8  446.47   34.08
  -5  -5  -8  382.17   32.37
  -5   5  -8  407.86   35.12
   5  -5  -8  447.22   32.31
  -5  -5   8  392.47   27.46
   5   5   8  389.11   25.64
   5   5   8  462.73   34.27
   5  -5  -8  417.94   33.45
  -5  -6  -8    1.08    8.55
   5   6  -8    0.00    7.55
   5  -6   8   28.25   12.79
   5   6   8  -14.47    8.23
  -5   6  -8    4.06    7.84
   5  -6  -8    6.09    7.91
   5  -6  -8    1.42    7.64
   5   0  -9  504.39   28.24
   5   0  -9  473.55   32.14
  -5   0   9  477.24   30.48
  -5   0  -9  457.39   33.74
   5   0   9  486.71   34.80
  -5   0  -9  457.70   31.59
   5   0   9  498.01   33.53
   5   1  -9   29.38    8.80
  -5   1   9   41.74   11.79
  -5  -1  -9   36.70   11.51
   5   1  -9   15.37    7.97
   5  -1   9   45.37   11.18
   5  -1   9   22.73    9.79
   5  -1  -9   37.32    9.29
  -5  -1   9   23.83    9.36
   5   1   9   30.65   10.02
   5   1   9   28.56    8.78
  -5   1  -9   19.04    9.44
   5  -2   9  575.78   35.55
   5  -2   9  576.68   37.85
  -5  -2  -9  518.80   32.94
   5   2  -9  536.76   30.65
  -5  -2  -9  512.50   35.99
  -5   2   9  538.22   33.81
   5   2  -9  545.47   34.22
   5  -2  -9  555.25   33.66
   5  -2  -9  505.60   35.74
  -5  -2   9  539.95   31.36
   5   2   9  511.35   37.03
  -5   2  -9  517.45   35.87
   5  -3   9   17.17    7.07
  -5  -3  -9   14.26    6.99
   5   3  -9   19.42    6.66
  -5  -3  -9    2.27    7.35
   5   3   9    7.13    6.12
  -5   3  -9    4.16    7.23
   5  -3  -9    2.73    6.89
  -5  -3   9    4.15    6.03
  -5  -4  -9   79.61   15.57
   5   4  -9  112.92   13.06
   5  -4   9   98.77   15.90
   5   4  -9   83.90   17.53
  -5  -4  -9  110.74   18.96
  -5  -4  -9  113.84   18.54
  -5   4  -9  103.78   19.07
   5   4   9  112.86   18.90
   5  -4  -9  122.67   16.47
   5  -4  -9  119.73   16.45
  -5  -4   9   82.16   13.80
  -5  -5  -9   -6.87    7.40
   5  -5   9   -4.00    9.04
  -5  -5  -9   18.27    8.72
   5  -5   9    5.09    7.29
   5   5  -9    7.30    8.03
   5   5   9   -7.07    6.95
  -5   5  -9    0.02    5.84
   5  -5  -9   -8.16    7.63
   5  -5  -9    9.62    7.63
   5   0  10    5.06    5.43
   5   0 -10    3.81    6.17
  -5   0 -10  -10.32    5.39
   5   0  10    0.93    6.03
   5   0 -10    4.37    5.98
  -5   0  10    0.35    5.53
   5  -1  10  156.48   19.96
   5   1 -10  153.68   16.72
  -5  -1 -10  129.11   19.12
  -5   1  10  164.50   16.79
   5   1 -10  126.39   15.49
  -5  -1 -10  124.97   17.33
   5  -1  10  120.59   18.03
  -5   1 -10  143.46   19.29
   5   1  10  131.01   19.28
   5   1  10  121.45   19.82
   5  -1 -10  148.92   20.55
  -5  -1  10  161.95   15.34
  -5  -2 -10   29.13   11.45
   5  -2  10   32.04   10.31
  -5  -2 -10   10.51    8.57
   5   2 -10   12.01    7.39
  -5   2  10   26.40    9.86
   5   2 -10   32.26    8.05
   5   2  10   16.48    7.40
  -5   2 -10    9.94    9.05
   5  -2 -10    5.85    8.83
  -5  -2  10   19.29    9.16
   5   3 -10  192.68   23.48
   5  -3  10  196.69   22.10
   5   3 -10  169.15   18.20
  -5  -3 -10  202.22   20.73
   5  -3  10  212.07   24.87
  -5   3  10  164.97   21.97
  -5  -3 -10  189.44   24.06
   5  -3 -10  209.47   25.04
   5   3  10  190.72   23.93
  -5  -3  10  179.37   20.53
   5  -3 -10  193.75   21.66
  -5   3 -10  161.73   23.50
  -5  -4 -10   -3.38    7.90
   5   4 -10   16.07    6.92
   5  -4  10   -8.80    7.81
   5  -4 -10    8.44    6.73
  -5   4 -10    4.62    7.62
  -5  -4  10    7.99    6.70
   5   4  10   -7.65    8.18
  -5   0 -11  177.87   23.15
   5   0 -11  235.43   22.93
   5   0  11  228.67   22.02
   5   0  11  211.90   24.38
  -5   0 -11  167.05   20.70
  -5   0  11  154.85   19.61
  -5  -1 -11    1.75    7.61
  -5   1  11    3.45    7.08
   5  -1  11   14.64    7.76
  -5  -1  11    1.26    7.81
  -5   1 -11   -3.81    6.98
   5  -1 -11   -1.39    6.59
   5   1  11    2.88    8.09
   5  -1 -11   -3.22    7.17
  -5  -2 -11   45.18   12.06
   5  -2  11   31.81   12.87
  -5   2  11   34.70   12.52
   5   2 -11   65.00   12.25
   5   2 -11   46.77   14.16
   5  -2  11   52.03   10.69
  -5  -2 -11   27.08   14.19
  -5   2 -11   24.34   12.60
   5   2  11   54.99   15.12
   5  -2 -11   36.05   13.46
   5  -3  11   -0.51   10.71
   5   3 -11   21.45    8.54
  -5  -3 -11    7.63    8.05
   5   3 -11   11.86    7.29
  -5  -3 -11    6.98    8.33
   5  -3  11   -3.79    9.34
   5   3  11   -3.52    9.90
  -5   3 -11  -11.68    8.84
   5  -3 -11   14.24   11.09
  -5  -3  11    4.95    7.64
   5  -3 -11    6.49   10.53
  -6   0   0 8476.31  179.79
   6   0   0 8512.97  161.26
  -6   0   0 8309.25  162.62
   6   0   0 8862.79  177.83
  -6  -1   0  200.57   15.48
   6   1   0  202.98   13.34
  -6   1   0  191.93   10.65
   6  -1   0  181.27   10.60
  -6   1   0  194.53   14.49
   6  -1   0  188.52   14.62
  -6   2   0  361.57   20.19
   6  -2   0  368.73   17.99
  -6  -2   0  348.55   17.61
   6   2   0  340.81   16.61
  -6  -2   0  369.71   22.42
   6  -2   0  369.80   22.06
   6   2   0  356.02   16.75
   6   2   0  337.65   21.75
  -6   3   0   17.99    5.06
   6  -3   0   21.56    6.38
   6   3   0   21.54    6.64
   6   3   0   23.76    5.00
   6   3   0   27.23    3.68
   6  -3   0   24.37    6.22
   6   3   0   21.21    3.99
  -6  -3   0   18.88    3.96
   6  -4   0  747.09   36.86
   6  -4   0  785.69   34.62
  -6  -4   0  740.98   26.56
   6   4   0  728.13   25.59
  -6   4   0  770.82   32.78
   6   4   0  710.94   35.74
   6   5   0   45.23   11.27
   6  -5   0   30.30    8.93
   6  -5   0   27.12    8.74
  -6   5   0   31.82    8.14
   6  -6   0  338.97   25.14
  -6   6   0  319.17   22.29
   6   6   0  350.12   27.92
  -6  -6   0  328.92   21.04
   6  -6   0  348.43   25.90
  -6  -7   0   36.12    8.07
   6  -7   0   46.21   12.38
   6   7   0   36.68   10.74
   6  -7   0   30.17   11.12
  -6   7   0   31.60    9.25
   6  -8   0  289.70   27.25
  -6   8   0  294.94   22.28
   6  -8   0  266.19   27.08
   6   8   0  298.81   27.40
  -6  -8   0  266.43   23.14
  -6   0  -1   -0.47    1.84
   6   0   1   -1.71    1.58
   6   0  -1    1.07    2.27
  -6   0  -1   -2.33    1.93
   6   0   1    2.35    2.80
  -6   0   1    1.98    2.06
   6   1  -1  750.28   32.45
   6  -1   1  796.98   26.39
  -6   1   1  778.14   23.67
  -6  -1  -1  722.91   31.73
   6  -1   1  754.94   31.90
  -6   1   1  721.38   29.40
   6   1  -1  774.03   27.79
  -6  -1   1  705.20   31.08
   6  -1  -1  764.72   31.60
   6  -1  -1  772.18   23.53
   6   1   1  749.26   21.89
  -6  -1   1  766.30   27.67
  -6   1  -1  786.04   32.40
  -6   1  -1  764.97   26.49
   6   1   1  752.64   21.84
   6   1   1  767.31   29.54
  -6   2   1   -0.11    2.73
   6   2  -1    7.03    2.67
   6   2  -1   -0.24    1.62
   6  -2   1    0.55    2.62
   6  -2   1    1.13    2.42
  -6  -2  -1    3.66    2.76
  -6   2   1    1.25    2.72
  -6  -2   1   -1.70    2.14
  -6   2  -1    0.79    3.09
   6  -2  -1   -0.40    2.06
   6   2   1    1.50    2.04
   6   2   1    0.78    2.54
   6  -2  -1    1.91    2.40
   6   2   1    3.55    2.29
   6   2   1    0.54    2.93
   6   3  -1 3179.04   67.45
  -6  -3  -1 3246.53   72.11
   6   3  -1 3029.54   67.43
  -6   3   1 3194.81   78.21
   6  -3   1 3040.81   80.19
   6   3  -1 3224.48   87.99
   6  -3   1 3052.41   85.59
   6  -3  -1 3144.22   79.26
   6   3   1 3106.98   85.91
   6  -3  -1 3083.07   86.70
   6   3   1 3053.71   73.77
  -6   3  -1 3140.89   83.37
   6   3   1 3225.08   73.55
   6   3   1 3051.65   70.29
   6   4  -1   90.75   13.12
  -6  -4  -1   89.75    9.27
   6  -4   1   78.73   10.89
  -6   4   1   84.83    9.62
   6   4  -1   92.10    7.71
   6  -4   1   89.90   12.12
  -6   4  -1   81.53   10.52
   6   4   1   88.87   12.43
   6  -4  -1  104.18   11.16
   6  -4  -1   99.08   13.35
   6   4   1   79.17    7.85
  -6  -4   1   84.77    7.95
   6   4   1   77.88    8.65
   6  -5   1  529.35   30.85
   6   5  -1  528.24   33.48
  -6  -5  -1  517.83   25.20
  -6   5   1  542.93   25.92
   6  -5   1  521.39   31.97
  -6   5  -1  530.14   29.62
  -6  -5   1  535.36   24.11
   6   5   1  534.15   19.94
   6  -5  -1  558.41   33.80
   6   5   1  505.04   19.39
   6  -5  -1  501.14   30.10
   6   5   1  545.36   32.70
   6  -6   1   -3.77    4.27
  -6   6   1    5.98    4.49
   6   6  -1   -8.86    4.48
  -6  -6  -1    1.03    3.80
   6  -6   1   -1.53    3.72
   6  -6  -1    0.13    4.83
   6  -6  -1    7.29    4.57
  -6  -6   1   -3.90    3.85
   6   6   1   -6.09    4.94
   6   7  -1  558.47   38.30
   6  -7   1  578.41   37.29
  -6   7   1  529.74   28.53
  -6  -7  -1  551.03   31.48
   6  -7   1  560.01   35.76
  -6   7  -1  549.69   33.09
   6  -7  -1  561.75   37.81
   6   7   1  551.07   36.17
  -6  -7   1  541.27   29.98
   6  -7  -1  565.75   37.20
   6  -8   1   32.74   12.71
  -6   8   1   49.09   10.60
  -6  -8  -1   77.97   12.35
   6  -8   1   54.66   11.58
   6  -8  -1   33.11   10.81
   6  -8  -1   42.18   12.86
  -6  -8   1   71.41   11.85
  -6   0   2 1350.68   43.58
   6   0  -2 1331.13   42.74
   6   0   2 1307.04   44.28
  -6   0  -2 1303.50   46.31
   6   0  -2 1333.48   43.94
   6   0   2 1323.11   38.13
   6   0   2 1298.84   39.04
  -6   0  -2 1316.97   40.00
  -6   1   2    6.91    2.29
   6   1  -2    1.64    3.06
  -6   1   2    4.16    3.04
   6  -1   2    4.06    2.36
  -6  -1  -2    3.87    3.26
   6   1  -2    2.03    2.63
   6  -1   2    5.16    3.40
   6  -1  -2    5.42    2.38
  -6  -1   2   10.07    2.82
   6  -1  -2   -0.43    1.95
  -6   1  -2    7.42    4.28
   6   1   2    3.15    2.16
  -6  -2  -2   91.70   11.22
   6   2  -2   85.40    7.65
  -6   2   2   88.97    9.15
   6   2  -2   91.86   11.55
   6  -2   2   95.64   11.69
   6  -2   2   96.81    9.77
   6   2   2   86.23    8.33
   6  -2  -2   87.67   11.16
   6  -2  -2   84.27    8.47
  -6  -2   2  101.08    7.66
   6   2   2   90.63    8.08
   6   2   2   77.77    8.64
  -6   2  -2   93.03   11.16
  -6  -3  -2    4.48    2.75
   6  -3   2    6.74    4.42
  -6   3   2    4.66    3.14
   6   3  -2    6.32    3.87
  -6  -3  -2    8.72    4.77
   6  -3   2    1.83    3.20
   6   3   2    3.38    3.86
   6  -3  -2    2.88    3.54
   6   3   2   -0.46    3.07
  -6   3  -2    6.62    4.38
   6  -3  -2    3.64    3.91
   6   4  -2  238.58   21.15
  -6   4   2  252.78   15.58
  -6  -4  -2  232.70   16.28
   6  -4   2  273.90   20.04
   6   4  -2  248.86   12.64
   6  -4   2  263.07   21.06
  -6  -4   2  232.60   12.69
   6   4   2  240.51   19.51
   6   4   2  240.14   14.88
  -6   4  -2  229.77   19.46
   6  -4  -2  236.17   20.80
   6  -4  -2  252.25   18.69
   6  -5   2   -4.19    3.54
  -6  -5  -2   -3.95    2.82
   6  -5   2    0.67    3.99
   6   5  -2   -3.99    2.79
  -6  -5   2   -2.63    3.21
   6  -5  -2   -4.16    3.09
  -6   5  -2    1.01    4.32
   6   5   2    0.27    4.49
   6  -6   2  342.47   27.08
   6  -6   2  382.00   27.48
  -6  -6  -2  372.65   24.46
   6   6  -2  336.34   28.00
  -6   6   2  343.60   20.01
   6  -6  -2  340.16   28.17
   6   6   2  339.37   17.66
   6   6   2  371.67   25.08
  -6  -6   2  350.26   21.67
   6  -6  -2  376.12   27.45
  -6   6  -2  342.83   26.13
   6  -7   2    7.44    6.18
  -6   7   2    9.04    4.43
   6   7  -2   -1.06    6.63
   6  -7   2   10.34    7.67
  -6   7  -2   11.69    6.11
   6  -7  -2    7.30    6.73
   6  -7  -2   -3.83    5.30
  -6  -7   2   -5.83    5.52
   6   7   2   20.63    7.60
   6  -8   2  100.72   22.22
  -6  -8  -2  134.32   16.49
   6  -8   2   99.79   17.18
   6   8  -2  160.21   21.95
  -6  -8   2  116.83   16.16
  -6   8  -2  156.03   17.41
   6  -8  -2  128.28   24.31
   6  -8  -2  105.71   21.38
   6   0   3    0.20    2.56
  -6   0  -3   -0.13    2.26
   6   0  -3   -2.50    1.78
  -6  -1  -3  469.04   25.83
  -6   1   3  440.07   17.53
   6   1  -3  465.30   24.78
   6  -1   3  456.59   25.67
   6   1  -3  418.31   20.57
  -6   1   3  490.46   22.24
   6  -1   3  463.55   22.57
   6   1   3  455.87   21.38
   6  -1  -3  483.40   25.18
   6   1   3  463.96   24.59
   6  -1  -3  432.36   21.48
   6  -1  -3  474.29   18.49
  -6   1  -3  459.06   26.35
   6  -2   3   25.86    7.71
   6   2  -3   34.95    5.15
   6   2  -3   29.35    7.98
  -6  -2  -3   31.71    7.98
  -6   2   3   35.10    5.79
   6  -2   3   30.14    7.26
   6  -2  -3   30.13    6.46
   6   2   3   31.46    7.17
   6  -2  -3   35.22    8.40
   6  -2  -3   40.58    9.70
   6   2   3   37.73    7.87
  -6   2  -3   38.83    9.52
  -6  -2   3   29.29    6.18
   6  -2  -3   27.74    6.31
   6  -3   3  542.22   30.47
  -6   3   3  579.48   22.38
  -6  -3  -3  524.37   28.86
  -6  -3  -3  524.80   25.04
   6  -3   3  533.57   28.58
   6   3  -3  505.24   30.04
   6  -3  -3  546.14   31.31
   6  -3  -3  490.11   22.08
   6   3   3  548.75   26.25
   6   3   3  555.63   29.92
  -6   3  -3  567.31   31.23
   6   3   3  521.06   25.32
   6  -3  -3  535.02   25.73
   6  -4   3   66.11   11.48
   6  -4   3   57.24   10.44
   6   4  -3   71.75    7.66
   6   4  -3   59.60   13.45
  -6  -4  -3   51.54    8.25
  -6  -4  -3   50.22    9.90
  -6   4   3   76.90    7.91
  -6  -4   3   71.40    7.44
   6   4   3   58.86    9.14
   6   4   3   92.13   12.64
   6  -4  -3   71.88   10.54
  -6   4  -3   61.56   11.39
   6  -4  -3   73.77   12.03
   6  -5   3  103.65   11.78
  -6   5   3   98.57    7.13
   6   5  -3   76.94   13.53
  -6  -5  -3   77.78   11.50
   6  -5   3   62.96   13.85
  -6  -5  -3   72.52    9.65
   6  -5  -3   81.35   12.32
   6  -5  -3   72.98   15.11
  -6  -5   3   74.35    9.48
  -6   5  -3   73.51   14.89
   6   5   3   66.58   13.84
   6   5   3   69.08   10.59
   6  -6   3    1.97    4.97
   6  -6   3   -0.91    4.15
  -6  -6  -3    8.20    4.31
  -6  -6  -3   11.43    6.15
   6  -6  -3    1.37    4.78
  -6   6  -3    0.92    4.59
   6   6   3    1.11    5.51
   6   6   3    2.54    3.87
  -6  -6   3   -3.69    4.61
   6  -6  -3   -0.02    5.96
  -6  -7  -3   40.45   10.11
   6   7  -3   42.68   13.32
   6  -7   3   39.88   12.55
   6  -7   3   40.22   13.24
  -6  -7   3   52.78   10.28
   6  -7  -3   23.50    9.86
  -6   7  -3   44.80   10.40
   6   7   3   53.12    9.64
   6  -7  -3   31.75   11.73
   6  -8   3   -7.68    8.00
  -6  -8  -3    3.89    8.04
   6   8  -3   -2.35    8.15
   6  -8   3    7.25    8.58
  -6  -8   3   22.54    6.46
   6  -8  -3   10.58    9.36
   6  -8  -3    9.31    7.02
  -6   8  -3   19.00    7.85
   6   0   4    0.25    2.44
  -6   0  -4    5.39    4.08
   6   0  -4   -0.88    3.21
   6   0  -4    4.66    3.12
   6   0   4    5.32    4.06
  -6   0   4    8.53    2.70
  -6   1   4  175.44   11.69
   6  -1   4  178.21   15.29
   6   1  -4  189.95   15.89
   6   1  -4  186.47   13.70
   6  -1   4  172.20   16.48
  -6  -1  -4  208.68   17.88
   6  -1  -4  181.09   13.44
  -6   1  -4  197.70   17.72
   6   1   4  228.52   16.69
   6   1   4  200.76   14.99
   6  -1  -4  173.47   11.87
   6  -1  -4  189.73   16.38
  -6  -2  -4  116.49   13.49
   6   2  -4  140.85   10.62
   6   2  -4  127.72   14.54
   6  -2   4  128.07   14.80
   6  -2   4  138.10   13.66
   6   2   4  124.56   13.66
   6  -2  -4  135.62   14.18
  -6  -2   4  138.64   10.51
  -6   2  -4  135.66   15.10
   6  -2  -4  142.30   11.03
   6  -2  -4  150.45   10.44
   6   2   4  131.43   13.05
   6  -2  -4  117.21   11.20
   6  -3   4   19.34    7.77
   6  -3   4   22.20    6.57
  -6  -3  -4   20.24    6.77
   6   3  -4   13.14    4.31
  -6  -3  -4   14.56    6.29
   6   3  -4   17.11    4.21
   6   3  -4   15.23    6.76
  -6  -3  -4   24.57    7.26
  -6  -3   4   19.84    3.95
  -6  -3   4   13.48    3.37
   6  -3  -4   10.40    4.81
   6  -3  -4   12.26    4.23
   6  -3  -4   16.82    5.73
   6   3   4   17.32    5.12
   6   3   4   19.54    4.83
  -6   3  -4   21.02    7.38
  -6  -3   4    7.78    3.50
   6   4  -4   73.97   12.39
   6   4  -4   74.71    8.47
   6  -4   4   67.50   12.24
   6  -4   4   84.64   12.50
  -6  -4  -4   70.56   11.56
  -6  -4  -4   75.67   10.83
  -6  -4  -4   68.61   10.91
  -6  -4   4   77.45    8.04
   6   4   4   60.16   11.22
  -6   4  -4   64.45   13.97
   6   4   4   66.74   10.73
   6  -4  -4   83.83   11.77
   6  -4  -4   69.08   12.81
   6  -5   4    0.21    4.66
  -6  -5  -4    1.01    3.89
  -6  -5  -4    2.77    4.61
   6   5  -4   -5.16    4.18
   6  -5   4   -4.09    3.92
   6   5   4    5.01    3.58
   6  -5  -4   10.40    6.84
  -6   5  -4   -1.68    4.33
  -6  -5   4    5.11    4.31
   6  -5  -4   -4.60    3.64
   6   6  -4  512.69   36.35
   6  -6   4  553.98   36.95
   6  -6   4  525.41   34.44
  -6  -6  -4  546.66   33.19
  -6  -6  -4  543.96   28.77
   6   6   4  583.37   33.69
   6   6   4  508.65   29.15
  -6  -6   4  524.82   27.07
   6  -6  -4  526.24   37.06
   6  -6  -4  542.54   34.46
  -6   6  -4  554.57   36.44
   6  -7   4   18.66    9.00
  -6  -7  -4    5.90    5.54
   6   7  -4   16.10    9.62
  -6  -7  -4   22.90    8.88
   6  -7   4   14.40    8.81
  -6  -7   4    1.00    6.24
  -6   7  -4   15.90    9.39
   6   7   4   18.98    7.54
   6  -7  -4    8.10    7.38
   6  -8  -4   79.18   14.30
  -6   0  -5    1.39    4.19
   6   0   5   -2.96    2.96
   6   0  -5   -1.60    2.66
   6   0   5   -0.05    3.17
   6   0  -5    0.62    2.75
  -6   0   5   -2.10    2.95
  -6   0   5    4.36    2.90
   6   1  -5  799.92   32.36
   6  -1   5  841.90   37.02
   6   1  -5  807.58   35.72
  -6  -1  -5  764.50   37.51
   6  -1   5  817.73   38.71
   6  -1  -5  816.32   36.74
  -6  -1   5  770.15   26.25
   6   1   5  764.51   37.01
   6  -1  -5  759.73   29.99
  -6   1  -5  814.78   39.05
   6   1   5  789.89   35.09
   6  -1  -5  814.82   30.08
  -6  -1   5  759.63   25.06
   6  -2   5   68.22   11.68
  -6  -2  -5   74.67   10.18
   6   2  -5   72.64    8.23
   6   2  -5   69.31   10.12
   6  -2   5   96.23   10.67
  -6  -2  -5   69.03   10.58
  -6  -2   5   81.79    7.00
  -6  -2   5   67.22    6.94
  -6   2  -5   70.10   11.95
   6  -2  -5   67.31    7.48
   6  -2  -5   84.69    8.64
   6  -2  -5   90.71    9.63
   6  -2  -5   89.17   12.41
   6   3  -5  691.13   36.89
  -6  -3  -5  668.01   34.19
  -6  -3  -5  665.38   33.87
   6  -3   5  647.34   36.06
   6  -3   5  671.34   35.40
   6   3  -5  674.39   24.00
  -6  -3  -5  654.44   33.75
  -6  -3   5  618.79   23.02
  -6   3  -5  657.26   36.93
   6  -3  -5  679.98   37.05
   6   3   5  661.42   34.45
   6   3   5  645.41   33.45
  -6  -3   5  645.82   24.08
   6  -3  -5  666.77   31.75
  -6  -3   5  664.44   24.23
   6  -4   5   11.61    7.17
   6   4  -5   13.44    6.63
   6  -4   5    8.78    6.43
  -6  -4  -5   12.46    6.65
  -6  -4  -5   15.72    6.34
  -6  -4  -5   11.66    5.90
   6   4   5   13.36    5.65
  -6  -4   5   12.27    5.35
   6  -4  -5   13.03    5.66
  -6  -5  -5  127.88   15.53
  -6  -5  -5  124.91   16.68
   6  -5   5  147.68   18.18
   6  -5   5  124.59   17.42
   6   5  -5  175.61   18.58
   6  -5  -5  121.03   14.90
   6   5   5  170.43   15.32
  -6   5  -5  146.29   18.61
  -6  -5   5  118.18   12.03
   6  -5  -5  134.55   18.25
  -6  -6  -5   54.39   11.71
  -6  -6  -5   42.67   11.37
   6  -6   5   56.48   13.14
   6  -6   5   27.02   10.45
   6   6  -5   54.71   15.36
   6  -6  -5   50.57   12.50
  -6   6  -5   51.58   14.89
   6  -6  -5   41.97   12.86
   6  -7   5   83.06   14.63
   6   7  -5   95.21   16.58
  -6  -7  -5   50.94   12.73
   6  -7  -5   51.26   12.89
  -6   7  -5   70.82   16.22
   6  -7  -5   60.29   15.21
   6   0   6  836.22   39.64
   6   0   6  803.41   40.40
  -6   0  -6  887.77   42.02
  -6   0   6  859.66   32.95
   6   0  -6  838.47   37.62
   6   0  -6  861.94   35.08
   6  -1   6    4.35    5.23
   6   1  -6    4.28    4.38
  -6  -1  -6    9.59    5.90
  -6   1   6    8.59    5.04
   6  -1   6   -1.73    4.14
  -6  -1  -6   15.95    5.94
   6   1  -6   10.81    5.49
   6   1   6    2.62    4.75
  -6   1  -6    9.42    6.00
   6  -1  -6   14.75    5.22
   6  -1  -6    6.20    4.61
  -6  -1   6    4.66    4.14
   6  -1  -6   13.02    4.87
   6   1   6   10.95    6.04
   6   2  -6  325.28   19.57
   6   2  -6  362.74   25.15
   6  -2   6  343.52   25.37
   6  -2   6  326.44   25.42
  -6  -2  -6  358.11   24.95
  -6  -2  -6  370.50   26.38
   6   2   6  336.40   25.10
  -6   2  -6  340.11   26.42
  -6  -2   6  347.48   17.92
   6  -2  -6  350.87   26.06
   6   2   6  356.42   25.03
   6  -2  -6  350.35   17.25
   6  -2  -6  347.04   21.94
   6  -2  -6  323.62   16.62
  -6  -3  -6   14.07    6.57
   6   3  -6    9.35    4.68
  -6  -3  -6    7.23    4.89
   6   3  -6    7.48    7.42
  -6  -3  -6    3.51    5.06
   6  -3   6    8.17    6.27
   6  -3   6    8.65    6.76
   6  -3  -6   10.13    6.44
  -6   3  -6   19.92    6.50
  -6  -3   6    7.80    4.72
   6   3   6    5.41    5.99
   6   3   6    8.21    4.97
   6  -4   6  292.01   24.39
   6   4  -6  320.42   25.57
  -6  -4  -6  258.14   22.16
  -6  -4  -6  247.42   22.77
  -6  -4  -6  290.49   23.12
   6  -4   6  232.59   22.91
  -6  -4   6  260.87   17.07
  -6   4  -6  274.43   25.93
   6  -4  -6  260.39   21.66
   6   4   6  265.93   22.51
   6  -4  -6  268.30   24.24
   6   4   6  260.52   21.41
   6   5  -6   20.28    7.08
   6  -5   6   11.24    8.44
  -6  -5  -6   21.46    8.41
  -6  -5  -6   13.90    8.14
   6  -5   6   15.54    7.77
  -6  -5   6   13.32    6.53
   6  -5  -6   10.88    6.59
  -6   5  -6    6.32    6.22
   6  -5  -6   17.60    8.58
   6   5   6   16.78    7.02
   6  -6   6  439.27   34.47
  -6  -6  -6  401.03   29.36
  -6  -6  -6  379.04   30.63
   6   6  -6  437.72   34.50
   6  -6   6  438.24   32.50
   6   6   6  489.21   29.40
   6  -6  -6  434.05   31.55
   6  -6  -6  410.66   34.85
  -6   6  -6  426.11   35.53
   6  -7   6   11.36    7.94
  -6  -7  -6   -5.50    7.36
  -6  -7  -6   20.23    7.10
   6  -7  -6    1.72    7.82
  -6   7  -6   -6.10    8.25
  -6  -7   6  -12.74    6.91
   6  -7  -6    5.58    6.91
   6   0  -7    0.03    3.76
   6   0   7    0.07    2.63
   6   0  -7   -1.95    2.97
   6   0   7   -6.14    3.82
  -6  -1  -7  352.76   27.24
   6   1  -7  380.25   25.37
  -6   1   7  389.19   23.89
  -6  -1  -7  401.64   27.99
   6  -1   7  376.99   27.84
   6   1  -7  359.00   23.60
   6  -1   7  347.96   27.13
   6   1   7  390.87   26.81
   6  -1  -7  384.26   27.08
   6   1   7  353.84   27.43
   6  -1  -7  362.33   20.63
   6  -1  -7  373.75   23.46
  -6  -1   7  358.67   21.01
  -6   1  -7  383.84   28.75
   6  -2   7    2.34    5.33
  -6  -2  -7   -5.09    4.03
   6   2  -7   -2.10    4.53
   6  -2   7    6.25    4.97
  -6  -2  -7    3.47    5.03
   6   2   7   -1.95    4.91
   6  -2  -7   -4.88    3.42
   6  -2  -7   -4.48    4.06
   6  -2  -7   -3.42    4.09
   6  -2  -7    5.20    4.24
  -6   2  -7   -2.59    3.82
   6   2   7    8.54    4.69
   6  -3   7 1130.44   53.43
   6  -3   7 1091.33   52.25
  -6  -3  -7 1081.20   50.66
  -6  -3  -7 1105.83   48.34
   6   3  -7 1039.62   37.98
   6   3  -7 1113.66   50.88
   6  -3  -7 1104.27   47.08
   6   3   7 1162.19   51.23
  -6  -3   7 1080.53   39.32
  -6   3  -7 1083.80   53.54
   6  -3  -7 1111.16   52.76
   6   3   7 1163.34   53.70
  -6  -4  -7   13.79    7.87
   6  -4   7   11.68    5.60
   6  -4   7    7.50    8.14
  -6  -4  -7   25.34    8.75
   6   4  -7   17.31    8.51
  -6  -4  -7   12.39    7.58
  -6   4  -7    9.55    6.73
   6   4   7   -2.38    5.35
   6  -4  -7   11.80    6.84
  -6  -4   7    2.09    5.90
   6  -4  -7    3.82    6.42
   6   5  -7  341.42   31.44
  -6  -5  -7  336.96   28.18
   6  -5   7  313.42   27.97
   6  -5   7  311.61   28.21
  -6  -5  -7  324.31   27.85
   6  -5  -7  319.47   26.21
  -6   5  -7  281.18   27.71
   6   5   7  359.24   23.82
   6  -5  -7  319.41   29.30
   6   5   7  390.58   28.90
   6  -6   7    4.12    6.48
   6  -6   7   -3.76    7.18
  -6  -6  -7   17.15    7.34
  -6  -6  -7   -6.65    7.32
   6   6  -7    2.82    8.49
  -6  -6   7  -11.89    6.46
   6  -6  -7   -6.28    5.54
   6  -6  -7   -0.59    7.74
  -6   6  -7   -2.48    7.94
  -6   0   8 1380.31   51.08
  -6   0  -8 1400.84   59.57
   6   0   8 1366.21   58.72
   6   0   8 1413.64   61.11
   6   0  -8 1416.75   56.40
   6   0  -8 1432.02   50.69
   6  -1   8   10.01    6.32
  -6  -1  -8    7.84    6.59
   6  -1   8    3.80    6.02
  -6   1   8   16.27    7.27
  -6  -1  -8   13.53    7.14
   6   1  -8   -0.54    5.58
   6   1  -8    8.02    5.91
  -6   1  -8   18.58    8.47
   6  -1  -8   16.53    4.91
  -6  -1   8    9.50    6.01
   6  -1  -8    8.50    7.15
   6   1   8   13.05    7.29
   6   1   8   10.61    6.17
  -6   2   8  113.54   14.64
  -6  -2  -8   97.33   14.67
   6   2  -8   72.07   13.30
   6  -2   8  112.68   15.21
  -6  -2  -8   78.70   12.48
   6  -2   8   95.37   19.20
   6   2  -8   92.62   12.40
   6   2   8   76.94   17.11
   6  -2  -8  101.88   15.15
  -6  -2   8   85.90   12.32
  -6   2  -8  115.51   15.83
   6  -2  -8  101.17   12.88
   6   2   8  129.01   16.49
  -6  -3  -8    7.50    8.12
   6  -3   8   11.54    7.66
   6   3  -8   18.96    9.11
  -6  -3  -8   26.91    7.19
   6   3  -8   14.02    6.17
   6  -3   8   19.46    8.66
  -6  -3   8   12.05    6.01
   6   3   8   34.15    9.04
   6  -3  -8    9.64    6.38
  -6   3  -8    9.27    5.84
   6   3   8   35.18   10.24
   6   4  -8  130.56   19.91
   6  -4   8  183.40   22.07
   6   4  -8  142.17   12.75
  -6  -4  -8  143.62   17.00
   6  -4   8  170.18   20.75
  -6  -4  -8  150.58   19.75
   6  -4  -8  155.54   16.93
  -6   4  -8  147.01   20.78
   6   4   8  206.10   20.59
   6  -4  -8  133.66   20.02
   6  -5   8   -4.31    6.52
  -6  -5  -8    1.77    7.84
  -6  -5  -8  -10.97    6.40
   6  -5  -8    6.97    8.15
   6  -5  -8  -10.11    6.38
   6   5   8   14.16    5.95
  -6   5  -8   -7.03    6.22
  -6  -6  -8   66.58   18.24
   6  -6   8   76.67   18.27
  -6  -6  -8  101.64   15.78
   6   6  -8   88.64   18.72
   6  -6  -8   48.74   15.79
   6  -6  -8   59.22   16.32
  -6   6  -8   69.32   18.51
   6   6   8   50.32   17.20
   6   0  -9    0.46    5.70
   6   0   9   -1.62    5.37
   6   0   9   -4.77    5.58
  -6   0   9    6.12    4.86
  -6   0  -9   -1.88    5.53
  -6  -1  -9   32.37   10.06
   6   1  -9   29.56   10.90
  -6  -1  -9   31.84   12.69
   6  -1   9   12.18    7.80
  -6   1   9   52.64   12.39
   6  -1   9   28.74   10.19
   6   1  -9   26.11    9.69
   6   1   9   53.86   13.07
   6  -1  -9   39.56   12.27
   6   1   9   42.69   12.38
  -6   1  -9   22.16    9.86
   6   2  -9    5.15    6.17
   6  -2   9   20.53    7.02
  -6   2   9   15.73    5.41
  -6  -2  -9    6.25    6.86
   6  -2   9   10.16    5.70
   6   2  -9    3.86    6.16
   6  -2  -9   14.75    7.47
   6  -2  -9   17.41    4.90
  -6  -2   9   16.66    6.01
   6   2   9    3.30    7.15
   6   2   9   -1.31    6.60
  -6  -3  -9  454.61   34.89
   6   3  -9  481.41   26.84
  -6  -3  -9  475.01   32.52
   6   3  -9  470.93   34.17
   6  -3   9  548.20   35.16
   6  -3   9  396.23   34.15
   6   3   9  532.88   35.64
   6   3   9  427.15   35.37
  -6   3  -9  445.34   36.37
  -6  -3   9  424.64   27.80
   6  -3  -9  459.14   36.00
   6  -3  -9  422.09   30.94
  -6  -4  -9   14.74    7.26
   6  -4   9    7.77    7.86
   6   4  -9   -2.81    5.51
   6   4  -9   -4.04    8.00
  -6  -4   9   -1.83    5.32
   6   4   9   -4.84    7.69
   6  -4  -9   -9.37    6.91
  -6   4  -9    2.21    7.89
   6  -4  -9   27.22    8.01
   6   5  -9  115.61   23.81
  -6  -5  -9  102.19   18.12
   6  -5   9  158.87   21.17
   6  -5   9   75.06   19.52
  -6  -5  -9  101.99   21.36
   6   5   9  132.32   16.21
  -6   5  -9  106.04   22.52
   6  -5  -9   75.44   16.85
   6   5   9  162.87   21.76
   6  -5  -9  108.31   18.66
   6   0 -10  256.79   24.38
   6   0  10  205.79   25.05
   6   0  10  249.86   27.17
  -6   0 -10  233.36   24.81
  -6   0  10  250.84   22.69
  -6  -1 -10   -4.79    7.13
   6   1 -10   11.16    6.62
  -6   1  10   29.63    7.50
   6  -1  10   13.79    6.25
  -6   1 -10    8.98    6.62
   6   1  10   -2.27    6.86
   6  -1 -10    1.23    7.11
   6   1  10   14.80    5.80
   6   2 -10   15.02    7.62
   6   2 -10    9.56    7.80
  -6  -2 -10    9.91    8.92
  -6  -2 -10    4.38    7.19
   6  -2  10    5.03    8.20
   6   2  10    1.72    6.93
  -6  -2  10    9.40    7.81
  -6   2 -10    8.23   10.05
   6  -2 -10    9.70    7.81
   6  -3  10   -0.59    7.02
   6   3 -10    1.48    7.12
  -6   3  10    7.86    7.40
  -6  -3 -10    0.17    8.16
   6  -3  10   16.82    9.54
  -6   3 -10   -1.18    6.94
   6  -3 -10   31.83    7.87
   6  -3 -10   16.61    7.79
  -6  -4 -10   49.12   14.25
  -6   4 -10   36.78   11.18
   6  -4 -10   42.47   14.10
   6  -4 -10   43.82   12.44
   6   4  10   34.50   13.26
   6   0  11   14.58    6.77
   6   0 -11   23.80    9.16
   6   0 -11    4.45    8.78
  -6   0 -11   -3.07    8.82
   6   0  11   -3.75    8.09
  -6  -1 -11   85.15   14.45
  -6  -1 -11   88.51   19.75
   6  -1  11  112.83   17.65
  -6   1  11  117.21   16.60
   6   1 -11  138.57   15.18
   6   1 -11  115.33   15.10
   6  -1  11   59.84   17.53
   6   1  11   59.74   17.46
   6   1  11  111.16   19.27
   6  -1 -11   80.98   18.89
  -6  -1  11  125.89   16.96
  -6  -2 -11   10.17    7.51
  -6  -2 -11    1.85    9.97
   6   2 -11   19.76    7.86
   6  -2  11    7.73    8.93
   6   2  11    8.29    7.87
   6   2  11   29.89    7.67
   7   0   0    0.11    1.43
   7   0   0   -0.23    2.42
  -7  -1   0  679.58   32.59
   7   1   0  700.23   29.03
   7  -1   0  702.58   32.08
  -7   1   0  735.33   24.32
  -7   1   0  732.18   32.11
   7  -1   0  683.39   23.41
  -7   2   0  180.77   15.66
   7  -2   0  174.45   12.59
  -7  -2   0  184.87   16.80
   7  -2   0  207.38   17.43
   7   2   0  179.61   16.95
   7   2   0  175.99   12.88
   7   3   0 1993.18   52.28
   7   3   0 1990.77   51.61
   7  -3   0 1948.55   65.95
   7  -3   0 1968.07   57.99
  -7   3   0 1993.13   60.67
   7   3   0 1931.22   65.67
   7   4   0   27.84    4.46
  -7   4   0   19.43    6.82
   7   4   0   21.05    7.91
  -7  -4   0   15.61    4.46
   7  -4   0   21.33    7.66
   7  -4   0   16.81    5.05
   7   4   0   26.25    4.50
   7   4   0   14.92    4.24
   7  -5   0  580.37   35.61
  -7   5   0  607.83   30.83
   7   5   0  628.35   36.62
  -7  -5   0  600.71   25.63
   7  -5   0  604.15   33.63
   7  -6   0   84.36   14.97
  -7  -6   0   71.39   12.18
  -7   6   0   65.88   12.03
   7   6   0   78.04   16.77
   7  -6   0  103.34   14.15
  -7   7   0  747.01   38.18
   7  -7   0  782.34   44.51
  -7  -7   0  748.16   36.27
   7   7   0  851.58   46.66
   7  -7   0  778.17   46.02
  -7   8   0   26.23    8.22
   7   8   0    4.62    8.42
   7  -8   0   -7.56    7.33
  -7  -8   0   17.40    7.56
   7  -8   0   -4.32    7.69
   7   0   1 3434.66   77.40
  -7   0   1 3481.20   90.12
   7   0   1 3633.32   90.46
   7   0   1 3432.38   75.40
   7   0  -1 3611.49   88.52
  -7   0  -1 3475.26   78.28
  -7   0  -1 3519.70   92.32
  -7   1   1  201.71   15.64
  -7  -1  -1  212.00   17.50
  -7   1   1  207.69   10.99
   7   1  -1  199.50   17.25
   7  -1   1  199.50   12.64
   7   1  -1  194.19   14.09
   7  -1   1  210.35   16.82
  -7   1  -1  224.98   12.76
   7  -1  -1  207.50   16.65
   7  -1  -1  213.66   11.00
   7   1   1  190.95    9.92
   7   1   1  200.27    9.82
  -7   1  -1  217.59   17.31
   7   1   1  189.08   14.74
  -7  -1   1  212.30   16.96
   7   2  -1 1175.69   46.83
   7  -2   1 1209.39   46.75
  -7   2   1 1232.63   42.45
   7   2  -1 1225.79   37.46
   7  -2   1 1243.22   39.90
  -7  -2  -1 1196.83   46.67
   7   2   1 1203.14   31.28
  -7   2  -1 1233.22   45.63
   7  -2  -1 1207.01   46.20
  -7  -2   1 1202.34   52.56
   7   2   1 1214.71   31.59
   7   2   1 1161.93   39.59
   7  -2  -1 1191.80   37.34
   7   2   1 1149.50   46.87
   7  -3   1   63.08    9.28
   7   3  -1   52.31   11.49
   7  -3   1   51.76   11.22
   7   3  -1   66.04    6.98
  -7   3   1   69.32    9.52
   7   3  -1   68.88    6.13
  -7  -3  -1   57.07    6.63
   7   3   1   60.64    6.53
   7   3   1   78.64    7.57
   7  -3  -1   71.22   10.27
   7   3   1   55.80   12.02
   7   3   1   53.45    6.26
   7  -3  -1   60.70    7.93
  -7   3  -1   55.96    9.62
   7  -4   1  889.71   42.10
  -7   4   1  907.12   35.46
   7  -4   1  884.82   38.19
   7   4  -1  872.54   43.02
  -7  -4  -1  863.33   30.63
   7   4  -1  807.85   25.18
   7   4   1  798.51   34.99
   7   4   1  858.04   30.01
   7  -4  -1  894.50   42.43
  -7   4  -1  863.23   38.65
   7  -4  -1  856.74   37.43
   7   4   1  840.71   40.52
  -7  -4   1  844.94   25.69
   7  -5   1   -2.01    4.17
  -7  -5  -1    2.51    4.48
   7   5  -1    5.66    5.48
   7  -5   1    5.89    5.40
   7   5   1   -3.74    3.92
  -7  -5   1    3.83    3.39
  -7   5  -1    8.96    4.70
   7  -5  -1    4.51    4.81
   7  -5  -1   -3.34    3.30
   7   5   1   -2.86    4.17
  -7   6   1  394.68   23.58
   7  -6   1  370.90   27.65
   7  -6   1  394.53   29.06
   7   6  -1  342.17   29.80
  -7  -6  -1  376.74   23.24
   7  -6  -1  361.47   27.61
  -7   6  -1  403.91   27.01
   7  -6  -1  406.95   31.50
   7   6   1  431.43   29.57
  -7  -6   1  338.14   20.16
  -7  -7  -1   10.55    5.89
   7  -7   1   24.02    9.45
   7   7  -1   -6.65    7.37
   7  -7   1    0.38    8.15
  -7   7   1   21.56    8.01
   7  -7  -1   22.16    8.14
   7   7   1   14.01    8.54
   7  -7  -1   17.85    8.47
  -7  -8  -1  132.02   15.23
   7  -8   1  105.50   20.55
   7   8  -1  153.85   18.61
  -7   8   1   84.00   15.07
   7  -8   1   93.43   20.10
   7   8   1  124.25   17.86
  -7   8  -1  147.78   15.82
   7  -8  -1  117.61   16.66
   7  -8  -1   92.06   19.64
   7   0  -2    1.92    3.35
  -7   0   2    1.95    3.08
   7   0  -2   -1.39    2.29
   7   0   2   -3.02    2.20
  -7   0  -2    3.43    3.20
  -7   1   2  186.59    9.69
   7  -1   2  170.37   12.39
  -7  -1  -2  188.90   16.77
   7   1  -2  175.60   13.52
  -7   1   2  179.33   14.23
   7   1  -2  170.38   16.00
   7  -1   2  199.08   16.84
   7   1   2  185.34   15.02
  -7   1  -2  172.17   15.91
   7   1   2  166.65   11.52
   7   1   2  169.94   11.20
   7  -1  -2  184.97   10.19
   7  -1  -2  196.23   16.24
  -7  -2  -2    8.61    4.53
  -7   2   2   12.55    4.56
   7   2  -2   10.97    5.32
   7  -2   2   15.15    5.80
   7   2  -2   16.29    4.18
   7  -2   2    5.35    4.17
   7  -2  -2   16.20    5.46
  -7   2  -2   14.65    5.58
   7  -2  -2   14.07    4.49
   7   2   2   16.74    3.86
   7   2   2   14.52    4.57
   7   3  -2  246.11   12.49
   7   3  -2  229.37   12.18
  -7  -3  -2  267.22   20.93
  -7   3   2  226.80   15.99
   7   3  -2  222.91   20.23
   7  -3   2  255.92   17.73
   7  -3   2  245.05   20.51
  -7  -3  -2  250.60   15.34
   7  -3  -2  249.22   21.08
   7   3   2  245.82   16.49
   7   3   2  239.27   20.71
   7   3   2  218.15   14.60
   7  -3  -2  228.47   16.55
  -7  -3   2  257.35   12.72
  -7   3  -2  243.78   19.72
   7  -4   2   -0.61    3.72
   7  -4   2    0.77    3.97
  -7   4   2   -0.21    2.84
  -7  -4  -2   -0.37    3.29
   7   4   2    6.33    3.50
   7  -4  -2   -0.10    3.84
   7   4   2   -4.80    4.47
  -7   4  -2    8.28    5.12
   7  -4  -2   -0.47    4.22
   7  -5   2   89.62   11.90
  -7   5   2   55.42    8.88
   7  -5   2   92.60   13.11
  -7  -5  -2   70.85   10.42
   7   5   2   66.81    8.79
   7  -5  -2   77.75   12.12
  -7   5  -2   75.65   12.32
  -7  -5   2   60.87    8.29
   7   5   2   68.87   15.15
   7  -5  -2   63.02   14.32
  -7   6   2   -8.02    4.46
   7   6  -2    4.14    4.39
   7  -6   2   -3.10    4.21
  -7  -6  -2   -7.98    4.30
   7   6   2   -3.44    3.62
  -7   6  -2    2.53    5.37
   7   6   2   12.79    5.16
  -7  -6   2    0.14    4.86
   7  -6  -2    6.53    4.64
   7  -7   2  245.29   24.71
   7  -7   2  261.61   26.09
   7   7  -2  270.36   26.73
  -7   7   2  246.50   18.85
  -7  -7  -2  259.81   21.90
  -7   7  -2  249.96   24.69
   7   7   2  252.22   25.66
   7  -7  -2  299.09   26.06
   7  -7  -2  275.79   27.76
   7  -8   2    5.98    8.63
   7   8  -2   -3.99    9.23
   7  -8   2   -7.36    9.28
  -7  -8  -2    4.65    8.90
  -7  -8   2   -8.73    8.88
   7  -8  -2    4.40    6.51
   7  -8  -2   -9.97    8.49
   7   0   3   22.42    6.95
   7   0   3   27.05    4.96
   7   0  -3   24.68    6.13
  -7   0  -3   29.48    8.23
   7   0  -3   32.58    8.26
   7   1  -3   34.40    6.97
   7  -1   3   45.37    6.42
   7   1  -3   37.92    9.09
  -7   1   3   26.80    4.90
   7  -1   3   39.29    9.55
  -7   1   3   23.41    6.44
  -7  -1  -3   23.60    7.31
   7  -1  -3   30.49    8.49
  -7   1  -3   28.10    8.22
   7  -1  -3   31.76    5.12
   7  -1  -3   30.19    7.47
   7   1   3   34.61    7.29
   7   1   3   37.77    9.27
  -7   2   3   80.77    9.47
   7  -2   3   75.96   10.02
  -7  -2  -3   78.28   11.25
   7  -2   3   73.69   11.46
   7   2  -3   79.74   11.70
   7   2  -3   69.55    7.89
   7  -2  -3   82.04   11.80
   7   2   3   78.04    9.32
   7   2   3   94.63    9.85
   7  -2  -3   91.27    9.23
   7  -2  -3   77.25    7.96
  -7   2  -3   80.73   11.95
  -7  -3  -3   88.29   12.47
   7   3  -3   78.05    6.80
  -7   3   3   70.17    8.64
   7  -3   3   74.07   11.54
   7   3  -3   72.64   12.00
  -7  -3  -3   82.13   10.11
   7  -3   3   80.01   12.46
   7  -3  -3   92.62    9.82
  -7  -3   3   57.20    7.23
  -7   3  -3   90.98   13.02
   7   3   3   75.76   10.70
   7   3   3   79.12    9.77
   7   3   3   75.93   12.07
   7  -3  -3   86.45   12.43
   7  -4   3  391.55   28.34
   7   4  -3  386.64   29.20
  -7  -4  -3  389.63   22.71
   7  -4   3  446.81   26.16
  -7   4   3  383.31   19.35
   7   4   3  404.38   22.51
   7  -4  -3  391.98   29.10
   7  -4  -3  415.24   24.90
   7   4   3  365.48   26.63
  -7   4  -3  395.18   27.69
   7   5  -3    4.00    5.71
  -7   5   3    0.91    3.80
  -7  -5  -3    2.42    4.19
   7  -5   3   -2.44    5.81
   7  -5   3   -0.07    5.51
   7  -5  -3   -3.86    4.35
   7   5   3    4.48    5.46
  -7   5  -3    1.14    5.64
   7  -5  -3    6.96    5.23
  -7  -5   3   -3.87    3.35
  -7  -6  -3  121.65   15.49
  -7   6   3  126.58   11.64
   7  -6   3  158.15   18.65
   7  -6   3  166.82   17.84
   7   6  -3  151.56   17.54
   7  -6  -3  160.42   19.77
   7   6   3  152.37   13.08
   7  -6  -3  158.41   17.76
  -7   6  -3  137.51   18.55
   7   6   3  133.97   20.16
  -7  -7  -3    4.84    7.02
   7   7  -3   -4.41    6.86
   7  -7  -3   21.37    6.83
   7  -7  -3   13.18    6.39
  -7  -7   3   -2.12    6.49
  -7   7  -3    3.41    5.44
   7   7   3   21.19    8.32
  -7   0  -4    0.48    3.32
   7   0   4   -5.05    3.04
   7   0  -4   -1.46    3.04
   7   0   4   -0.14    3.05
   7   1  -4  328.01   22.42
  -7  -1  -4  350.28   24.57
  -7   1   4  315.00   15.94
   7  -1   4  353.60   21.73
   7  -1   4  337.08   24.22
   7   1  -4  349.75   20.17
  -7   1  -4  318.20   24.24
   7  -1  -4  341.78   16.71
   7  -1  -4  357.71   20.70
   7  -1  -4  340.60   23.11
   7   1   4  339.73   23.47
   7   1   4  393.66   21.54
   7   2  -4   -1.33    3.77
   7  -2   4    8.16    4.51
  -7  -2  -4   -0.80    3.63
   7   2   4    7.21    3.33
   7  -2  -4    4.15    3.98
   7  -2  -4   -1.38    3.11
   7   2   4   -0.96    3.75
  -7   2  -4    4.78    4.69
   7  -2  -4    5.30    4.10
   7  -3   4    4.23    4.19
  -7  -3  -4    5.89    5.53
   7  -3   4    3.37    4.30
   7   3  -4    6.44    5.80
   7   3  -4    6.23    3.20
   7  -3  -4    1.16    3.09
   7  -3  -4   10.74    4.78
  -7   3  -4   16.12    5.07
   7   3   4    8.01    4.83
   7  -3  -4    7.08    5.61
   7   3   4    4.46    5.29
   7   4  -4   48.49   12.21
  -7  -4  -4   61.79    9.44
  -7   4   4   45.39    6.00
   7  -4   4   37.76   11.01
  -7  -4  -4   37.43   10.46
   7  -4   4   39.27   10.75
   7   4   4   48.83    7.84
   7  -4  -4   62.56    6.78
  -7   4  -4   49.27   12.07
   7  -4  -4   37.26    8.74
   7   4   4   48.19   10.83
   7  -4  -4   41.13   11.46
   7  -5   4   13.22    6.08
   7  -5   4   -3.52    4.40
  -7  -5  -4    0.61    4.53
   7  -5  -4    3.72    4.37
  -7   5  -4    8.41    6.09
   7   5   4   -2.05    3.79
  -7  -5   4    6.87    3.38
   7   6  -4   84.73   14.55
   7  -6   4   49.94   13.12
   7  -6  -4   44.40   14.26
   7  -6  -4   75.22   11.29
   7   6   4   79.98   10.18
  -7  -7  -4   96.23   15.18
   7  -7   4   61.98   15.97
   7  -7   4   92.54   17.09
   7   7  -4   62.82   15.61
   7  -7  -4   84.63   19.51
  -7   7  -4   72.17   17.84
   7  -7  -4   62.42   14.06
   7   7   4   73.80   12.66
   7   0   5  275.16   22.88
   7   0  -5  273.32   19.48
  -7   0  -5  261.70   22.27
  -7   0   5  275.90   15.11
   7   0   5  284.93   20.60
  -7   0   5  287.33   13.96
   7   0  -5  307.81   20.54
  -7  -1  -5   70.26   11.95
   7  -1   5   90.51   10.83
   7   1  -5   69.96    9.98
   7  -1   5   69.52   12.08
   7   1  -5   64.47   12.54
   7  -1  -5   80.94    8.83
  -7   1  -5   84.19   12.41
   7   1   5   73.97   12.29
   7  -1  -5   61.68    9.16
   7  -1  -5   77.78   11.45
   7  -2   5  423.09   26.90
   7   2  -5  414.53   21.18
   7  -2   5  401.31   28.35
   7   2  -5  406.87   27.65
  -7  -2  -5  427.34   28.52
   7   2   5  440.84   24.94
   7   2   5  415.96   27.42
   7  -2  -5  426.16   28.51
   7  -2  -5  398.35   20.67
   7  -2  -5  400.01   22.09
  -7   2  -5  415.50   29.44
   7  -3   5   60.55   10.60
   7   3  -5   43.22    6.13
   7   3  -5   36.21   10.68
   7  -3   5   63.97   13.44
  -7  -3  -5   49.39   11.25
   7  -3  -5   45.45   10.93
   7  -3  -5   47.79    6.67
   7  -3  -5   38.06    9.12
  -7   3  -5   59.61    9.91
   7   3   5   41.74    9.93
   7  -3  -5   31.35    7.47
   7   3   5   54.06   12.33
   7  -4   5  777.19   41.96
  -7  -4  -5  729.93   37.50
   7   4  -5  738.88   42.22
  -7  -4  -5  803.65   41.21
   7  -4   5  814.57   43.61
  -7  -4  -5  751.73   38.01
   7   4   5  768.31   38.87
   7  -4  -5  765.54   37.12
  -7   4  -5  719.79   42.26
   7  -4  -5  785.68   44.03
   7   4   5  793.19   40.21
   7   4   5  752.91   38.07
   7  -5   5   28.43   11.26
  -7  -5  -5   35.29   10.34
  -7  -5  -5   21.53    7.83
   7  -5   5   33.23   11.59
   7   5  -5   40.37   10.43
   7  -5  -5   47.14   11.47
   7   5   5   16.49    8.59
  -7   5  -5   31.97   10.58
   7  -5  -5   37.24   10.15
   7   5   5   17.20    8.82
  -7  -6  -5  269.93   24.74
   7   6  -5  275.15   29.25
   7  -6   5  292.39   28.37
  -7  -6  -5  256.92   22.14
   7  -6   5  268.09   25.64
  -7   6  -5  274.63   28.32
   7   6   5  248.12   22.52
   7  -6  -5  309.17   25.46
   7  -6  -5  265.59   27.33
  -7  -7  -5    6.45    9.25
   7  -7   5   19.84    7.85
   7  -7   5   -6.06    6.82
   7  -7  -5    7.79    9.24
  -7   7  -5   -6.42    6.89
   7  -7  -5   -5.99    6.49
   7   0   6    0.56    3.65
   7   0  -6    0.51    3.54
  -7   0  -6    0.79    3.98
   7  -1   6  667.01   35.61
  -7  -1  -6  691.17   38.56
  -7   1   6  723.41   30.40
   7   1  -6  716.68   35.77
   7   1  -6  699.60   32.88
   7  -1   6  678.69   38.80
  -7  -1   6  686.11   25.56
   7  -1  -6  649.04   29.02
   7  -1  -6  700.47   30.60
   7   1   6  712.22   38.78
   7   1   6  704.95   35.37
   7  -1  -6  688.15   36.69
  -7  -1   6  641.93   24.21
  -7   1  -6  703.36   39.59
   7  -2   6   -4.45    4.38
   7   2  -6    1.16    4.59
  -7  -2  -6    4.44    5.47
   7  -2   6    7.41    6.63
   7   2  -6    1.66    4.43
   7   2   6    4.11    3.69
   7  -2  -6   13.50    5.44
   7  -2  -6   -3.26    4.04
  -7   2  -6    9.46    7.09
  -7  -2   6   -0.10    4.09
   7  -2  -6    5.91    5.94
   7   2   6   -6.03    3.94
   7  -3   6  460.03   31.14
   7  -3   6  446.94   31.48
   7   3  -6  439.63   21.24
  -7  -3  -6  446.84   30.19
   7   3  -6  444.74   31.47
  -7  -3  -6  417.60   29.58
   7  -3  -6  451.54   32.15
   7   3   6  487.10   28.30
   7   3   6  440.27   30.73
  -7   3  -6  451.90   32.76
   7  -3  -6  446.37   26.52
   7  -4   6   20.87    7.72
  -7  -4  -6    9.13    8.08
   7   4  -6   15.55    7.09
   7  -4   6    3.46    6.66
  -7  -4  -6    8.53    7.22
  -7  -4  -6    7.61    6.86
   7  -4  -6   21.70    7.74
   7  -4  -6   18.62    8.34
  -7   4  -6   16.78    7.01
   7   4   6   10.90    6.44
   7   4   6   16.53    8.01
   7  -5   6  182.79   22.19
   7   5  -6  184.99   22.39
   7  -5   6  178.90   21.77
  -7  -5  -6  176.96   20.42
  -7  -5  -6  196.54   20.41
   7   5   6  193.75   19.47
   7  -5  -6  195.83   23.79
  -7   5  -6  147.39   20.42
   7   5   6  200.55   19.52
   7  -5  -6  218.59   19.11
   7   6  -6   -3.65    7.24
   7  -6   6   -3.88    5.88
  -7  -6  -6   17.70    7.68
  -7  -6  -6   -8.30    6.29
  -7   6  -6    6.34    8.12
  -7  -6   6   -4.09    6.59
   7  -6  -6   25.70    7.83
   7  -6  -6    9.97    9.26
  -7   0  -7 1167.67   53.31
  -7   0   7 1116.88   40.53
   7   0  -7 1034.51   42.41
   7   0   7 1136.56   49.92
   7   0  -7 1136.06   48.18
   7   0   7 1154.19   52.33
  -7   1   7   33.89    5.81
   7   1  -7   28.21    9.16
   7  -1   7   20.53    8.97
  -7  -1  -7   15.54    8.76
   7  -1   7   29.38    9.35
   7   1  -7   33.63    8.38
   7   1   7   25.63   10.04
   7  -1  -7   20.65    9.10
  -7   1  -7   22.08    6.40
   7  -1  -7   24.79    7.35
  -7  -1   7    9.98    6.09
   7  -1  -7   20.16    5.78
   7   2  -7  559.76   34.38
   7   2  -7  589.42   29.06
   7  -2   7  577.46   36.95
  -7  -2  -7  531.98   35.26
  -7  -2  -7  536.36   34.15
   7  -2   7  551.09   34.55
   7  -2  -7  540.76   35.31
   7   2   7  560.81   35.88
  -7   2  -7  548.04   36.62
   7  -2  -7  536.14   29.87
   7   2   7  587.52   33.16
   7  -3   7    9.79    5.90
   7   3  -7    7.85    7.48
  -7  -3  -7    0.28    5.18
  -7  -3  -7   13.59    6.92
   7   3  -7   10.22    4.90
   7  -3   7   20.82    5.80
   7   3   7   -1.88    5.80
  -7   3  -7    4.91    6.40
  -7  -4  -7  461.54   31.87
   7  -4   7  504.91   36.15
   7  -4   7  523.22   36.26
  -7  -4  -7  456.20   33.24
   7   4  -7  476.36   35.43
   7  -4  -7  531.65   36.91
   7   4   7  549.14   32.34
   7   4   7  563.06   32.92
   7   4   7  526.46   33.11
  -7   4  -7  505.00   36.89
   7  -4  -7  505.47   31.60
   7   5  -7   -1.95    8.52
  -7  -5  -7    2.79    6.59
   7  -5   7  -12.34    6.36
   7  -5   7    1.11    6.26
  -7  -5  -7   -2.55    6.05
   7   5   7    0.54    6.17
  -7  -5   7    4.97    5.90
   7  -5  -7    0.63    6.98
   7  -5  -7   14.95    5.78
   7   5   7    5.95    6.39
  -7   5  -7   19.18    8.49
  -7  -6  -7  187.24   23.65
   7  -6   7  218.34   26.44
   7   6  -7  192.73   26.93
   7  -6   7  195.02   25.22
  -7  -6  -7  201.17   22.46
   7  -6  -7  239.86   24.15
  -7   6  -7  249.37   29.09
   7   6   7  255.08   21.79
   7  -6  -7  175.41   25.60
   7   6   7  275.33   21.99
   7   0   8   11.67    4.00
  -7   0  -8    0.59    5.15
   7   0   8    3.73    5.71
  -7   0   8    6.87    4.70
   7   0  -8    7.76    4.86
   7   0  -8   -0.99    5.20
   7   1  -8   70.42   11.92
  -7  -1  -8   56.04   13.47
   7  -1   8   89.22   13.18
   7   1  -8   80.42   11.75
   7  -1   8   68.52   16.29
   7   1   8   71.54   12.05
   7   1   8   85.01   13.24
   7  -1  -8   58.94   13.42
  -7  -1   8   67.44   10.25
   7  -1  -8   44.27    9.66
  -7   1  -8   66.79   16.70
  -7  -2  -8   28.45    9.17
   7  -2   8   17.56    8.87
  -7   2   8   15.24    7.24
   7   2  -8   16.64    8.31
  -7  -2  -8    8.88    7.85
   7   2  -8    9.70    7.10
  -7   2  -8   10.10    7.21
   7   2   8   11.39    8.10
   7  -2  -8   24.47    8.21
   7  -2  -8   19.37    9.21
  -7  -2   8   13.93    4.48
  -7  -3  -8  262.82   24.58
   7   3  -8  280.41   26.37
   7   3  -8  286.82   20.15
   7  -3   8  292.62   27.40
  -7  -3  -8  308.04   28.21
   7  -3   8  297.59   27.59
  -7   3  -8  283.59   28.36
   7  -3  -8  312.99   28.54
   7  -3  -8  289.49   23.30
   7   3   8  312.37   28.09
   7   3   8  295.58   25.58
  -7  -4  -8   13.68    8.56
  -7  -4  -8   21.36    9.85
   7   4  -8    3.83    7.60
   7  -4   8   -1.38    6.20
  -7   4  -8   11.41    7.77
   7  -4  -8   20.57    8.22
   7   4   8    9.11    9.89
   7  -4  -8   12.04    8.92
   7  -5   8  175.85   18.85
  -7  -5  -8  137.24   18.40
   7   5  -8  102.26   22.72
   7  -5   8  126.13   20.38
  -7  -5  -8  167.61   21.21
   7   5   8   88.89   19.07
   7   5   8  177.68   19.25
   7  -5  -8  130.43   17.93
   7  -5  -8   92.32   21.35
  -7   5  -8  151.85   20.82
   7   0   9  352.98   28.65
   7   0  -9  310.82   23.44
   7   0  -9  351.03   26.28
  -7   0  -9  300.64   28.86
  -7   0   9  310.30   23.01
   7   0   9  319.91   28.86
   7   1  -9   60.18   14.13
  -7   1   9   46.28    9.88
   7  -1   9   34.50   11.09
   7   1  -9   65.00   12.08
  -7  -1  -9   52.31   14.10
   7  -1  -9   30.50   10.32
  -7   1  -9   50.34   14.06
   7   1   9   53.28   12.97
   7   1   9   32.29   11.87
   7   2  -9   65.57   13.83
  -7  -2  -9   63.33   15.77
   7   2  -9   62.47   15.12
   7  -2   9   66.64   15.27
   7  -2   9   74.84   17.63
  -7  -2  -9   81.19   14.46
  -7   2   9   75.64   15.50
   7  -2  -9   88.11   14.04
   7   2   9   81.70   19.10
   7  -2  -9   91.37   14.01
  -7   2  -9   61.14   15.63
  -7  -3  -9   13.02    8.03
   7   3  -9   13.80    7.43
  -7  -3  -9   10.22    9.69
   7  -3   9   17.23    9.03
   7   3  -9   10.57    9.31
  -7   3   9    4.31    7.95
   7  -3   9   22.37   10.16
  -7  -3   9    8.44    6.59
   7   3   9   35.96    9.09
  -7   3  -9   14.40    6.58
   7  -3  -9   15.42    7.27
   7  -3  -9   -2.64    7.05
   7   3   9   17.66    9.06
  -7  -4  -9   62.26   13.86
   7  -4   9   84.89   15.02
   7  -4   9   71.47   19.52
   7   4  -9   67.12   17.77
  -7  -4  -9   89.77   15.56
   7  -4  -9   48.47   14.90
   7   4   9   68.01   16.11
  -7   4  -9   86.49   20.55
   7   0  10    4.75    7.98
   7   0 -10  -12.80    7.73
   7   0 -10   -4.86    6.31
   7   0  10    4.90    6.29
   7   1 -10   12.65    8.14
   7  -1  10   15.39   10.44
   7   1  10   32.25    9.10
   7  -1 -10    9.77    9.53
  -7  -2 -10  -10.00    7.70
   7  -2  10    7.03    9.57
  -7  -2 -10    3.65    7.39
   7   2 -10   -5.39    6.99
   7   2 -10   -1.25    7.33
   7  -2  10   -7.48    7.17
   7  -2 -10   16.54    8.77
   7   2  10   14.28    8.84
  -7  -2  10   10.24    6.87
  -7   2 -10   11.34    7.94
   7   2  10    7.15    7.61
  -7   3  10   30.10   10.77
  -7  -3 -10   40.63   13.93
   7   3 -10   42.56   12.75
  -7  -3 -10   48.25   14.14
   7   3 -10   31.67   13.06
   7  -3  10   28.99   14.39
  -7   3 -10   21.47   12.72
   7  -3 -10   57.98   11.98
   7   3  10   50.96   15.83
   7  -3 -10   61.39   16.48
  -8   0   0  855.01   38.50
   8   0   0  903.41   37.08
   8   1   0   46.50    9.16
   8  -1   0   46.79    6.19
  -8  -1   0   52.00    8.45
  -8   1   0   41.28    9.22
   8  -1   0   65.97   10.08
  -8   2   0 1206.47   45.85
   8   2   0 1147.33   39.63
   8   2   0 1168.30   49.19
   8  -2   0 1140.92   37.42
  -8  -2   0 1164.47   48.74
   8  -2   0 1112.04   46.82
   8   3   0   11.66    4.25
   8  -3   0   15.15    5.52
   8  -3   0    5.95    4.79
  -8   3   0   18.49    5.39
   8   4   0  130.00   16.54
  -8   4   0  141.64   14.30
   8   4   0  143.24    9.56
   8  -4   0  135.97   16.88
   8   4   0  153.89   11.33
   8  -4   0  157.35   14.93
   8  -5   0   11.74    5.97
   8   5   0    9.19    6.70
  -8   5   0   13.50    5.11
   8   6   0  224.72   25.06
   8  -6   0  243.40   24.14
  -8   6   0  250.54   20.92
   8  -6   0  254.42   22.32
  -8  -7   0   11.04    5.21
   8  -7   0   -6.78    6.75
   8  -7   0   -4.65    5.23
   8   0  -1    5.02    4.03
  -8   0  -1    1.65    3.23
   8   0   1    2.67    2.75
  -8   0  -1   -4.24    2.44
   8   0   1    0.72    2.43
  -8   0   1   -0.38    3.01
   8   0   1    6.53    2.95
   8  -1   1  605.15   23.83
  -8   1   1  685.28   32.22
   8   1  -1  623.61   33.37
   8  -1   1  622.47   32.56
  -8  -1  -1  632.84   33.11
  -8   1   1  617.30   21.91
   8   1  -1  631.07   28.72
   8  -1  -1  620.01   21.20
   8  -1  -1  667.60   33.00
  -8   1  -1  613.46   32.22
  -8   1  -1  644.26   32.37
   8   1   1  648.30   30.05
  -8  -1   1  646.70   33.22
   8   2  -1   24.29    7.93
  -8  -2  -1   19.75    7.42
  -8   2   1   21.36    6.76
   8   2  -1   29.32    5.54
   8  -2   1    6.23    5.24
   8  -2   1   11.40    4.77
   8  -2  -1   16.97    5.56
   8   2   1   11.80    6.18
   8   2   1    9.42    4.86
   8  -2  -1   18.44    5.20
   8  -3   1  819.76   40.76
  -8   3   1  786.08   34.85
   8   3  -1  715.78   40.07
   8   3  -1  776.92   28.04
   8  -3   1  799.66   33.44
   8   3  -1  779.41   40.33
   8  -3  -1  821.36   32.84
   8   3   1  787.04   30.69
   8   3   1  785.16   24.46
   8   3   1  800.36   40.89
  -8   3  -1  820.68   38.32
   8   3   1  743.80   23.80
   8  -3  -1  816.92   40.96
   8   4  -1    1.71    4.86
  -8  -4  -1   -1.13    3.02
   8   4  -1   -4.34    2.57
   8  -4   1    1.62    4.44
   8  -4   1   -4.11    3.23
   8  -4  -1   -0.54    4.74
   8   4   1   -3.27    4.36
  -8   4  -1   -1.88    4.27
   8   4   1   -4.31    3.45
   8  -4  -1    0.89    4.02
   8  -5   1  616.46   37.92
   8  -5   1  636.58   34.94
  -8   5   1  621.92   31.72
   8   5  -1  607.64   37.60
   8   5   1  620.63   37.84
  -8   5  -1  665.33   36.12
   8  -5  -1  674.22   35.35
   8   5   1  624.54   23.96
   8  -5  -1  630.62   39.08
   8   6  -1    2.15    7.43
   8  -6   1    8.17    5.10
   8  -6   1    5.93    5.65
  -8   6   1   19.19    6.36
   8  -6  -1    7.20    6.09
  -8   6  -1   18.99    6.05
   8   6   1    8.40    8.21
   8  -6  -1    6.92    5.98
   8  -7   1  216.16   23.96
   8  -7   1  255.37   25.56
   8   7  -1  175.75   24.77
  -8   7   1  249.01   20.20
   8  -7  -1  227.38   26.54
   8  -7  -1  234.83   23.34
   8   7   1  291.16   26.30
  -8   7  -1  235.94   21.25
   8   0  -2  443.46   24.95
   8   0   2  382.85   23.29
  -8   0  -2  356.98   24.13
  -8   0  -2  401.10   26.26
   8   0   2  406.99   18.58
  -8   0   2  405.31   24.81
   8   0   2  396.13   24.77
   8   0  -2  400.04   25.31
   8   1  -2   19.00    5.95
  -8   1   2   32.02    7.53
  -8  -1  -2   32.17    8.75
   8  -1   2   27.11    6.63
   8  -1   2   14.69    6.37
   8   1  -2   19.77    7.78
   8   1   2   24.15    5.58
   8  -1  -2   26.16    6.87
  -8   1  -2   24.31    7.52
   8   1   2   30.30    8.10
   8   1   2   32.39    5.99
   8  -1  -2   30.93    4.85
   8   2  -2   79.92   12.72
  -8   2   2   99.62   11.95
   8   2  -2   89.47    9.78
  -8  -2  -2   91.35   13.14
   8  -2   2   91.92   13.25
  -8   2  -2  119.26   14.63
   8   2   2   76.89    8.76
   8   2   2  107.44    8.59
   8   2   2   94.57   11.85
   8  -2  -2   88.77    9.15
   8  -2  -2   84.20   12.78
   8   3  -2   17.03    7.97
   8   3  -2   20.99    5.02
   8  -3   2   15.77    7.02
   8   3  -2   10.45    3.92
  -8  -3  -2   22.30    7.95
   8  -3   2   11.32    5.60
  -8   3   2    9.83    5.00
   8   3   2   12.62    4.97
  -8   3  -2   10.69    6.02
   8   3   2   23.71    6.64
   8   3   2   10.99    5.73
   8  -3  -2   13.91    7.62
   8   3   2   15.74    7.69
   8  -3  -2   22.84    6.43
  -8   4   2  184.06   15.27
   8  -4   2  173.86   19.17
   8   4  -2  198.90   20.74
   8  -4   2  180.80   16.96
  -8  -4  -2  180.74   13.85
   8  -4  -2  153.51   15.90
   8  -4  -2  165.66   19.58
   8   4   2  163.30   14.07
   8   4   2  155.08   18.74
   8   4   2  172.42   14.94
  -8   4  -2  178.64   18.06
   8  -5   2   -4.93    4.78
   8   5  -2   -7.16    5.36
  -8   5   2   -2.42    3.48
   8  -5  -2    1.13    5.59
   8  -5  -2    8.01    4.94
  -8   5  -2   -5.90    5.31
   8   5   2    4.04    3.52
   8   6  -2  196.94   22.50
   8  -6   2  186.66   20.92
  -8   6   2  185.55   16.48
   8  -6   2  202.91   21.15
  -8  -6  -2  143.48   15.91
   8  -6  -2  181.55   22.93
   8   6   2  168.34   21.30
   8  -6  -2  233.61   20.32
   8   6   2  174.47   13.31
  -8   6  -2  177.87   20.01
   8  -7   2    3.90    7.34
  -8  -7  -2    8.75    6.65
  -8   7   2   23.27    7.58
   8   7  -2    3.32    9.05
   8   7   2   22.48   10.42
  -8  -7   2    2.29    7.39
   8  -7  -2    6.15    7.23
   8  -7  -2   15.90    7.00
  -8   0  -3   -0.45    3.57
   8   0   3   -0.56    3.73
   8   0  -3    0.31    3.41
   8  -1   3  279.64   22.80
  -8  -1  -3  307.63   23.87
  -8   1   3  300.05   20.44
   8   1  -3  298.49   19.28
   8  -1   3  318.88   19.29
  -8   1   3  317.29   13.57
   8   1  -3  297.09   22.02
   8   1   3  317.45   22.50
  -8   1  -3  310.20   23.89
   8   1   3  297.18   17.55
   8  -1  -3  291.09   22.13
   8  -1  -3  304.41   14.05
   8  -1  -3  313.58   21.22
   8  -2   3   33.97    8.54
   8   2  -3   37.55    7.08
  -8  -2  -3   40.71   10.70
   8  -2   3   37.75    8.92
   8   2  -3   29.43    8.80
  -8   2   3   56.89    8.40
   8   2   3   51.81    6.73
   8  -2  -3   40.75   10.82
   8  -2  -3   43.33    9.57
   8   2   3   59.40    8.53
   8  -2  -3   39.57    7.53
  -8   2  -3   31.89    9.51
   8  -3   3  494.98   32.62
   8   3  -3  530.01   33.25
   8  -3   3  563.26   30.07
  -8   3   3  517.66   25.44
  -8  -3  -3  561.25   33.82
   8   3  -3  533.84   21.13
   8   3   3  515.40   32.82
  -8  -3   3  559.20   20.91
   8  -3  -3  548.91   26.35
   8   3   3  538.88   28.26
   8   3   3  478.07   24.82
   8  -3  -3  509.47   32.08
  -8   3  -3  527.87   33.08
  -8   4   3    4.68    4.73
   8  -4   3    3.62    5.46
  -8  -4  -3    8.63    4.79
   8  -4   3    5.04    5.28
   8   4  -3    1.87    5.54
   8   4   3   -1.57    4.55
   8   4   3   -7.00    4.51
  -8   4  -3   -1.41    4.53
   8  -4  -3    4.40    4.64
   8  -4  -3    3.30    5.23
   8   4   3    1.40    4.74
   8   5  -3   -0.04    5.39
   8  -5   3   -0.68    4.77
  -8  -5  -3    1.36    5.26
  -8   5   3   -3.07    4.00
   8  -5   3   11.69    5.01
  -8   5  -3    2.30    6.72
   8   5   3    6.34    4.51
   8   5   3    6.74    5.87
   8  -5  -3   18.41    5.12
   8  -5  -3   11.80    5.59
   8  -6   3   20.35    6.04
  -8  -6  -3   -6.33    5.80
  -8   6   3   16.02    5.64
   8   6  -3   15.38    9.31
   8   6   3   -5.69    6.01
   8  -6  -3   -2.07    5.18
  -8   6  -3   -1.00    6.32
   8  -6  -3    0.85    6.40
   8  -7   3  236.62   25.58
   8  -7   3  245.43   24.20
  -8  -7  -3  169.45   19.96
   8   7  -3  187.45   25.52
  -8   7  -3  211.86   23.08
   8  -7  -3  246.22   24.79
   8   7   3  248.78   25.03
   8  -7  -3  231.88   27.17
   8   0   4  514.61   31.05
   8   0  -4  514.19   28.10
  -8   0  -4  516.70   32.45
   8   0  -4  461.70   27.37
   8   0   4  490.22   25.83
  -8  -1  -4   16.87    7.29
   8  -1   4    6.27    5.27
   8   1  -4    9.22    5.29
   8   1  -4   16.23    5.49
   8  -1   4   10.32    5.47
   8  -1  -4   13.01    4.06
   8   1   4   16.50    5.16
   8  -1  -4    5.35    5.42
   8  -1  -4    2.57    4.33
  -8   1  -4   15.14    7.26
   8   1   4   13.54    4.90
   8   2  -4   24.59    8.63
   8   2  -4   19.79    5.86
   8  -2   4   19.26    8.65
   8  -2   4   28.61    7.69
  -8  -2  -4   27.83    9.63
   8   2   4   19.07    6.67
  -8   2  -4   14.26    6.37
   8  -2  -4   19.21    7.36
   8   2   4   20.87    7.97
   8  -2  -4   15.56    6.22
   8  -2  -4   20.39    5.85
   8  -3   4   14.56    8.71
  -8  -3  -4   26.08    9.17
   8  -3   4   37.11    9.05
   8   3  -4   27.74    9.67
   8   3  -4   39.02    5.59
  -8   3  -4   27.28    9.42
   8  -3  -4   18.09    6.87
   8  -3  -4   42.70    8.11
   8   3   4   43.36    7.97
   8  -3  -4   28.59    9.67
   8   3   4   25.49    8.26
   8  -4   4  498.82   31.47
  -8  -4  -4  456.97   31.25
  -8   4   4  469.63   22.27
   8   4  -4  477.68   33.21
  -8  -4  -4  442.89   26.57
   8  -4   4  453.38   32.49
   8   4   4  454.66   27.79
   8   4   4  443.95   26.42
  -8   4  -4  439.35   32.52
   8   4   4  459.97   32.29
   8  -4  -4  498.57   33.93
   8  -4  -4  451.77   27.00
  -8   5   4   18.02    5.24
   8  -5   4   16.80    8.12
   8  -5   4   11.57    7.51
   8   5  -4   15.35    8.36
  -8  -5  -4   12.53    6.29
   8  -5  -4    4.62    5.64
   8   5   4   14.12    7.14
   8   5   4   11.96    7.39
   8  -5  -4    4.20    6.42
   8  -5  -4   14.47    3.69
   8   5   4    7.40    6.70
  -8   5  -4    8.02    7.67
  -8  -6  -4  250.53   22.01
   8   6  -4  283.48   27.60
   8  -6   4  270.55   25.24
   8  -6   4  279.92   27.20
   8  -6  -4  236.58   26.56
  -8   6  -4  281.88   25.94
   8  -6  -4  292.73   23.98
   8   6   4  320.49   24.16
   8   6   4  288.10   20.60
   8  -7   4   38.46   10.70
  -8  -7  -4   28.16   12.17
   8  -7   4   28.10   11.89
   8   7  -4   31.61   12.41
  -8   7  -4   41.25   12.17
   8  -7  -4    3.09   11.53
   8   0   5   -1.85    3.60
   8   0  -5   -5.80    3.16
   8   0  -5    1.40    4.40
   8  -1   5  578.02   35.44
  -8  -1  -5  597.52   35.68
   8   1  -5  561.79   32.12
   8   1  -5  557.67   29.21
   8  -1   5  584.25   31.37
   8   1   5  579.84   30.27
  -8   1  -5  572.39   35.67
   8   1   5  598.92   33.67
   8  -1  -5  587.48   33.58
   8  -1  -5  586.89   24.02
   8  -1  -5  568.34   28.92
  -8  -2  -5   31.93   10.97
   8   2  -5   19.08    6.65
   8   2  -5   16.94    8.19
   8  -2   5   36.84   11.29
   8   2   5   18.51    8.43
   8  -2  -5   26.49    7.61
   8  -2  -5   14.77    6.14
  -8   2  -5   32.79   11.04
   8  -2  -5   15.33    7.14
   8   2   5   28.19    8.07
   8  -3   5  777.38   43.72
   8  -3   5  740.04   39.07
  -8  -3  -5  775.77   41.84
   8   3  -5  746.23   28.11
   8   3  -5  761.17   42.59
   8   3   5  801.11   39.90
   8  -3  -5  800.64   43.78
  -8   3  -5  859.83   45.42
   8  -3  -5  786.89   35.03
   8   3   5  811.91   36.71
  -8  -4  -5    6.72    6.07
   8  -4   5    9.76    7.52
   8   4  -5    9.93    3.89
   8  -4   5   13.32    5.51
  -8   4  -5   -1.32    5.78
   8  -4  -5    8.82    5.08
   8   4   5   12.60    5.22
   8   4   5   -0.67    5.58
   8   4   5   12.74    7.32
   8  -5   5    5.36    6.12
   8   5  -5    2.55    7.13
  -8  -5  -5   13.12    8.92
   8   5   5   14.10    6.29
  -8   5  -5    5.33    7.02
   8  -5  -5    7.03    6.25
   8   5   5   17.84    7.10
   8   6  -5  -12.11    7.62
   8  -6   5   -9.88    7.63
  -8  -6  -5    7.03    6.80
   8  -6   5   -2.52    7.38
  -8   6  -5    3.75    6.08
   8  -6  -5    5.58    7.61
   8   0   6  674.93   35.50
   8   0  -6  665.91   33.63
   8   0  -6  630.73   34.15
   8   0   6  632.15   38.22
  -8   0  -6  654.95   38.98
   8  -1   6    2.90    5.30
  -8  -1  -6   -5.93    4.81
   8   1  -6    9.78    5.32
   8   1  -6   10.15    6.86
   8  -1   6   13.35    6.12
   8   1   6    4.28    5.16
   8  -1  -6    2.56    4.55
  -8   1  -6   -2.47    5.72
   8   1   6   10.16    7.15
   8  -1  -6   -5.45    5.63
   8  -1  -6    2.10    5.23
   8   2  -6  161.17   19.08
   8   2  -6  156.98   14.37
   8  -2   6  140.75   18.78
  -8  -2  -6  156.20   18.29
   8  -2   6  167.72   18.22
   8   2   6  149.95   18.48
   8  -2  -6  148.66   14.48
  -8   2  -6  151.90   19.25
   8  -2  -6  157.11   18.10
   8   2   6  154.00   16.85
  -8  -3  -6   10.62    7.04
   8  -3   6   25.29    6.05
   8   3  -6   10.99    6.54
   8   3  -6   10.95    5.56
   8  -3   6    8.23    4.25
  -8   3  -6   15.73    7.15
   8  -3  -6    2.37    5.77
   8  -3  -6   14.05    7.22
   8   3   6   11.32    7.06
   8   3   6   24.79    6.89
   8  -4   6  349.77   29.07
   8  -4   6  334.57   28.64
  -8  -4  -6  329.62   28.47
   8   4  -6  346.29   29.96
   8  -4  -6  375.07   25.22
   8   4   6  377.86   29.30
   8   4   6  446.73   26.76
   8  -4  -6  366.23   30.79
  -8   4  -6  353.81   30.86
   8   4   6  346.98   25.78
  -8  -5  -6   19.63    8.41
   8  -5   6   -1.11    6.33
   8   5  -6   15.11    9.11
   8  -5  -6   13.75    7.20
   8  -5  -6    3.88    7.27
  -8   5  -6   16.52    6.88
   8   6  -6  218.95   28.38
   8  -6   6  253.66   27.17
   8  -6   6  293.03   26.01
   8  -6  -6  294.17   24.53
   8   6   6  321.33   21.50
  -8   6  -6  243.94   29.15
   8  -6  -6  223.60   27.91
   8   6   6  278.06   23.97
  -8   0   7   -6.65    3.53
  -8   0  -7    2.70    4.99
   8   0   7    3.76    4.81
   8   0  -7   -2.29    4.53
   8   0   7   -1.92    5.42
   8   0  -7    0.23    4.81
   8  -1   7  300.20   24.07
   8   1  -7  290.01   22.71
  -8  -1  -7  271.84   25.29
  -8   1   7  304.46   19.57
   8   1  -7  309.16   23.04
   8  -1   7  286.34   26.14
   8  -1  -7  307.45   19.40
   8  -1  -7  299.30   24.41
   8   1   7  246.35   25.20
  -8   1  -7  279.54   26.61
   8   1   7  285.38   22.74
  -8  -2  -7    2.14    6.60
   8  -2   7    2.24    7.06
   8  -2   7   11.61    7.30
   8   2  -7   15.49    7.88
   8  -2  -7   11.82    6.70
   8  -2  -7    9.45    7.12
  -8   2  -7   22.47    8.65
   8   2   7    2.24    6.18
   8   3  -7  407.68   22.20
   8  -3   7  353.84   31.59
   8   3  -7  365.01   30.57
   8  -3   7  369.87   30.73
  -8  -3  -7  367.19   30.52
   8  -3  -7  407.20   33.11
   8  -3  -7  428.62   26.43
   8   3   7  466.56   28.95
   8   3   7  394.63   28.24
  -8   3  -7  438.42   34.88
  -8  -4  -7   -7.58    6.53
   8   4  -7    1.58    7.79
   8  -4   7   -4.73    5.82
   8  -4   7   14.70    6.66
   8   4   7   14.01    7.73
   8  -4  -7   -5.29    7.03
  -8   4  -7   13.22    6.41
   8   4   7    4.91    7.06
   8  -5   7  237.13   27.08
   8   5  -7  270.07   28.86
   8  -5   7  289.66   27.37
   8  -5  -7  239.72   28.44
   8   5   7  248.89   24.25
  -8   5  -7  224.26   25.80
   8  -5  -7  281.86   23.67
   8   0   8  159.98   18.79
   8   0  -8  179.61   19.27
  -8   0  -8  114.83   17.84
   8   0  -8  158.95   17.16
   8   0   8  179.01   17.77
   8   1  -8    2.34    6.76
  -8  -1  -8    6.92    7.57
   8   1  -8   17.58    6.34
   8  -1   8   15.65    7.20
  -8   1   8   13.23    6.43
   8   1   8   29.62    7.38
   8  -1  -8   19.08    8.93
  -8   1  -8   12.02    6.60
   8   2  -8  221.37   17.56
  -8   2   8  185.40   19.14
  -8  -2  -8  179.82   21.54
   8   2  -8  159.63   20.69
   8  -2   8  177.72   21.43
   8  -2   8  205.90   22.47
  -8   2  -8  177.90   21.92
   8  -2  -8  200.64   22.13
   8  -2  -8  180.48   18.35
   8   2   8  184.76   20.78
   8   3  -8   -1.62    7.86
  -8  -3  -8    0.04    6.88
   8  -3   8   -1.28    7.71
   8  -3   8    2.89    6.02
  -8   3  -8   10.38    8.91
   8   3   8    1.87    6.73
   8  -3  -8   15.40    6.91
   8  -4   8   19.27   10.52
   8  -4   8    5.01    9.30
  -8  -4  -8   16.25    9.20
  -8   4  -8   14.48   11.04
   8  -4  -8   -0.04    8.06
   8   0   9  -11.81    6.10
   8   0   9   14.68    8.09
   8   0  -9    8.94    6.67
   8   0  -9    9.01    5.97
  -8   0   9   -6.43    6.69
  -8   0  -9   -9.65    5.71
   8   1  -9   30.91   12.63
   8   1  -9   31.59   10.16
  -8  -1  -9   39.01   13.35
   8  -1   9   21.37   11.36
   8   1   9   46.11   15.23
   8  -1  -9   38.54   11.48
  -8  -2  -9  -11.95    6.52
  -8   2   9    2.24    7.79
   8  -2   9   -9.80    7.46
   8  -2   9    6.68    7.27
   8   2  -9    0.24    7.06
  -8  -2   9   11.32    6.60
  -8   2  -9   -0.79    7.04
   8   2   9   10.27    6.26
   8  -2  -9    5.65    7.91
   8   2   9   -4.63    7.23
  -8  -3  -9   71.19   18.46
   8  -3   9  106.39   17.45
   8  -3   9   78.15   18.53
   8   3  -9   96.74   19.65
   8   3  -9  124.45   13.16
   8   3   9   78.91   19.06
  -8   3  -9   57.18   18.17
   8  -3  -9  120.54   13.56
   8   3   9  127.72   17.80
   8  -3  -9   71.79   18.47
   8   0 -10   82.59   14.46
   8   0  10  112.96   16.18
   8   0  10   98.89   15.42
  -8  -1 -10   15.73    7.45
   8  -1  10   22.37    8.72
   8   1 -10   20.63    9.30
   8  -1  10   42.97    9.62
   8   1 -10   12.47    8.63
   8  -1 -10   28.93    7.65
  -8   1 -10   17.08   10.54
   8   1  10   24.01    7.94
   9   0   0    1.76    2.21
  -9   0   0    2.73    4.28
  -9  -1   0   10.28    5.35
  -9   1   0    9.21    5.98
   9   1   0   14.17    5.60
   9  -1   0    5.18    3.46
  -9   1   0   15.44    4.82
   9  -1   0   19.98    7.31
   9   1   0    8.53    5.42
  -9   2   0   -2.70    3.65
   9  -2   0    0.73    3.31
  -9  -2   0   -2.50    3.18
   9   2   0    5.55    4.33
   9  -2   0    3.07    4.33
   9   2   0   -0.32    4.04
  -9   3   0  458.01   28.72
   9   3   0  472.37   31.89
   9   3   0  494.95   23.62
   9  -3   0  482.35   31.95
   9  -3   0  470.25   24.91
  -9   4   0   45.59   10.91
   9   4   0   32.98   10.54
   9  -4   0   62.35    9.81
   9   4   0   44.82    6.71
   9  -4   0   38.89   10.77
   9  -5   0  120.69   18.44
   9   5   0  150.81   19.64
  -9   5   0  130.77   16.07
   9  -5   0  122.16   15.78
   9  -6   0    8.67    8.01
   9  -6   0   13.37    9.33
  -9   7   0  182.40   18.26
   9  -7   0  172.83   18.51
   9  -7   0  157.45   23.08
   9   7   0  126.49   26.13
   9   0   1 1468.89   53.92
   9   0   1 1397.12   37.13
  -9   0   1 1409.00   53.50
  -9   0  -1 1407.02   55.31
   9   0   1 1401.14   38.51
   9   0  -1 1372.47   54.14
   9   0  -1 1449.80   52.34
   9  -1   1   10.31    6.23
  -9   1   1   13.18    4.24
  -9   1   1   10.27    6.02
   9  -1   1   11.91    4.47
   9   1  -1   23.78    8.80
  -9  -1  -1   11.57    5.87
   9   1  -1   19.03    6.55
   9  -1  -1    8.89    5.51
  -9   1  -1    8.80    5.62
  -9  -1   1   16.61    6.64
   9  -1  -1   14.82    3.55
   9   1   1   12.40    5.01
   9   2  -1  151.60   17.94
   9   2  -1  138.72   13.50
  -9   2   1  151.45   16.13
  -9  -2  -1  148.29   17.46
   9  -2   1  138.02   12.62
   9  -2   1  156.09   16.46
  -9   2  -1  153.35   16.82
   9   2   1  135.13   17.02
   9   2   1  157.36   14.46
   9  -2  -1  172.22   12.18
   9  -2  -1  164.22   17.70
   9   3  -1   37.17    7.43
   9  -3   1   31.13    9.92
  -9   3   1   45.61   10.79
   9   3   1   37.84    8.30
  -9   3  -1   45.31   11.17
   9  -3  -1   33.22    7.96
   9  -3  -1   29.82    9.55
  -9   4   1  192.85   17.60
   9   4  -1  166.87   20.37
   9  -4   1  218.76   22.10
   9   4  -1  176.07   11.80
   9  -4   1  178.11   17.51
   9   4   1  164.91   13.98
   9  -4  -1  216.61   18.28
   9  -4  -1  202.80   21.87
  -9   4  -1  188.45   18.90
   9   4   1  182.41   19.99
   9  -5   1   -2.65    3.41
   9  -5   1   -2.24    5.74
  -9   5   1    7.18    5.77
  -9  -5  -1   -6.68    4.62
   9   5   1   -5.00    5.07
   9  -5  -1   -0.56    5.00
   9   5   1   -4.85    4.26
   9   5   1   -4.63    4.50
  -9   5  -1    0.58    4.82
   9  -5  -1    4.08    4.71
   9   6  -1  120.18   18.58
  -9   6   1  108.13   14.59
   9  -6   1  105.54   16.43
   9  -6   1  112.23   16.32
   9  -6  -1   87.42   12.96
   9   6   1   91.43   16.94
   9  -6  -1   99.90   18.33
  -9   6  -1  110.50   15.40
   9   7  -1    9.94   10.92
   9   7   1   35.44    8.56
   9  -7  -1   29.95    9.05
   9   0   2    1.13    3.27
  -9   0  -2    3.51    4.42
   9   0  -2   -5.44    3.69
  -9   0   2   -1.04    2.90
   9   0  -2    0.79    3.64
  -9  -1  -2  154.59   17.60
  -9   1   2  162.90   16.15
   9   1  -2  138.88   16.98
   9   1  -2  125.65   13.71
   9  -1   2  157.35   12.80
   9  -1   2  149.68   16.69
  -9   1  -2  164.27   17.75
   9   1   2  149.83   10.50
   9  -1  -2  149.47   16.70
   9   1   2  159.63   10.52
   9   1   2  170.57   15.32
   9  -1  -2  163.75   17.13
   9  -2   2   23.15    6.61
   9  -2   2   28.48    7.51
  -9  -2  -2   23.81    8.21
   9   2  -2   15.13    7.34
   9  -2  -2   13.26    7.29
   9   2   2   23.43    4.29
   9   2   2   16.96    4.88
   9   2   2   26.77    6.37
   9  -2  -2   22.44    5.53
  -9   2  -2   19.17    7.69
  -9  -3  -2  456.46   31.85
   9   3  -2  480.02   31.42
   9  -3   2  459.74   31.79
   9  -3   2  453.48   26.77
  -9   3   2  502.42   26.83
   9   3  -2  447.15   21.42
   9  -3  -2  469.06   24.49
   9   3   2  441.11   31.74
   9   3   2  411.58   18.99
  -9   3  -2  446.04   30.18
   9  -3  -2  480.94   31.68
   9   3   2  440.06   19.21
   9   3   2  469.82   26.43
   9  -4   2   16.76    7.36
  -9   4   2    5.42    5.17
   9  -4   2    2.44    5.25
   9   4  -2    0.06    6.57
  -9   4  -2   14.63    7.08
   9  -4  -2   -1.25    6.43
   9   4   2   15.87    6.29
   9  -4  -2   11.30    6.99
   9   4   2   14.36    4.71
   9   5  -2  128.58   17.65
   9  -5   2   92.96   16.94
   9  -5   2  117.06   15.94
   9  -5  -2  105.78   13.47
  -9   5  -2  104.31   14.48
   9   5   2  112.13   12.38
   9  -5  -2  108.99   15.87
   9   5   2   85.21   14.82
   9   5   2   77.31   11.22
   9  -6   2   12.47    7.71
   9  -6   2   15.13   11.08
   9   6  -2    6.90    7.89
  -9   6   2   16.46    6.90
  -9   6  -2    5.21    7.32
   9   6   2   21.76    9.09
   9  -6  -2   15.51    8.48
   9  -6  -2   24.69    8.93
   9  -7   2  101.83   22.54
   9   7  -2  110.28   24.17
   9  -7   2  107.97   17.69
   9  -7  -2  113.57   20.41
  -9   7  -2  113.17   16.87
   9   7   2  131.50   20.94
   9  -7  -2  126.74   18.27
   9   0  -3  581.23   31.74
   9   0   3  553.21   32.65
   9   0   3  501.32   24.49
  -9   0  -3  531.14   33.48
   9   0  -3  539.07   29.90
  -9  -1  -3   41.68   11.68
   9   1  -3   48.10    9.99
   9   1  -3   43.65   10.50
   9  -1   3   34.30   10.24
  -9   1   3   44.19   10.25
   9  -1   3   55.09    9.78
   9   1   3   45.03   10.17
  -9   1  -3   46.20   12.07
   9  -1  -3   44.99   10.71
   9   1   3   44.30    8.30
   9  -1  -3   59.39   10.53
   9   2  -3  329.59   25.94
   9  -2   3  307.32   21.79
   9   2  -3  314.17   19.79
  -9  -2  -3  339.37   26.85
   9  -2   3  306.99   25.38
  -9   2   3  328.90   22.09
   9   2   3  308.39   17.94
   9  -2  -3  351.92   23.05
   9  -2  -3  371.56   27.59
  -9   2  -3  339.54   26.60
   9   2   3  346.47   23.74
   9  -2  -3  319.01   17.26
  -9   3   3    2.36    4.49
   9   3  -3   16.45    7.63
  -9  -3  -3   11.03    5.51
   9  -3   3    5.58    5.83
   9  -3   3    4.03    5.49
   9   3  -3    6.16    4.57
   9   3   3    5.44    5.81
  -9   3  -3    1.97    5.88
   9  -3  -3   10.52    4.62
   9   3   3   16.22    8.21
   9  -3  -3    9.76    7.47
  -9   4   3  307.55   20.23
   9  -4   3  313.55   27.34
   9  -4   3  254.55   22.78
   9   4  -3  303.80   26.59
   9   4   3  303.29   20.85
   9  -4  -3  294.39   27.20
   9   4   3  295.40   19.17
   9   4   3  313.38   26.31
   9  -4  -3  314.43   21.93
  -9   4  -3  320.74   27.28
  -9   5   3   11.75    6.48
   9  -5   3    6.05    7.03
   9   5  -3   -8.96    6.54
   9   5   3   14.11    5.63
   9  -5  -3    9.13    6.31
   9   5   3    4.73    6.81
  -9   5  -3    0.10    5.96
   9   5   3    1.59    6.03
   9  -5  -3   -1.59    6.14
   9   6  -3  527.11   39.25
   9  -6   3  549.83   35.40
  -9   6   3  489.04   25.12
   9  -6   3  474.36   36.68
  -9   6  -3  524.79   36.07
   9   6   3  572.88   36.62
   9  -6  -3  458.43   32.12
   9   6   3  507.58   25.79
   9   6   3  413.24   28.10
   9  -6  -3  489.84   39.40
   9   0   4    3.90    3.61
  -9   0  -4   -0.68    5.35
   9   0  -4    5.59    4.81
   9   0   4    4.20    4.77
   9   0  -4   -0.81    3.95
   9   1  -4  330.02   25.68
   9   1  -4  372.55   23.27
  -9  -1  -4  398.62   29.65
   9  -1   4  396.55   29.06
   9  -1   4  399.56   22.90
   9   1   4  372.50   21.88
   9   1   4  362.86   26.93
  -9   1  -4  371.60   29.05
   9  -1  -4  398.98   23.92
   9  -1  -4  380.11   27.12
   9   2  -4   52.49    9.35
   9  -2   4   51.60   11.81
   9  -2   4   62.98   13.33
   9   2  -4   71.51   12.53
   9  -2  -4   54.78   10.06
   9  -2  -4   48.75    8.55
  -9   2  -4   74.85   12.54
   9   2   4   59.72   13.14
   9  -2  -4   66.35   12.37
   9   3  -4  391.37   30.57
  -9  -3  -4  404.56   30.49
   9   3  -4  387.90   19.62
   9  -3   4  426.31   29.06
   9  -3   4  432.25   31.96
   9   3   4  448.34   31.01
  -9   3  -4  416.65   31.64
   9   3   4  440.44   23.14
   9  -3  -4  398.40   24.09
   9  -3  -4  427.66   31.87
   9  -3  -4  379.50   23.17
   9   3   4  406.84   27.61
   9   4  -4   -2.84    7.45
  -9  -4  -4    8.03    7.61
   9  -4   4    8.48    6.90
  -9   4   4   -0.05    5.33
   9   4   4    8.58    6.41
   9   4   4    7.04    5.19
   9  -4  -4    3.64    6.08
   9   4   4    3.00    3.90
  -9   4  -4    2.69    6.86
   9  -4  -4    9.01    4.71
   9  -4  -4    6.32    4.76
   9  -5   4   58.21   14.23
   9   5  -4   50.31   14.80
   9  -5   4   59.68   13.41
  -9   5   4   54.00    9.90
   9   5   4   55.42   13.04
   9   5   4   62.04   12.55
   9  -5  -4   61.13   11.16
   9  -5  -4   63.29   13.47
  -9   5  -4   69.85   11.87
   9   6  -4   62.65   17.13
   9  -6   4   74.50   17.13
   9  -6  -4   72.04   18.96
  -9   6  -4   79.00   17.67
   9   6   4   97.28   15.65
  -9   0  -5  309.63   27.50
   9   0  -5  308.01   23.87
   9   0   5  390.58   23.73
   9   0   5  348.85   27.75
   9   0  -5  346.62   25.11
   9   1  -5   45.94   12.20
   9   1  -5   79.34    9.73
   9  -1   5   91.52   12.85
   9  -1   5   75.84   14.32
  -9  -1  -5   72.11   15.19
   9   1   5   57.34   13.47
   9   1   5   74.61   10.74
   9  -1  -5   72.63   11.47
   9  -1  -5   62.37   13.97
   9  -1  -5   66.92    7.82
  -9   1  -5   52.90   12.82
   9   2  -5  261.24   18.35
  -9  -2  -5  271.22   25.04
   9  -2   5  265.17   22.42
   9   2  -5  286.46   24.62
   9  -2   5  271.35   25.07
   9   2   5  268.82   21.22
   9   2   5  258.05   22.88
   9  -2  -5  299.21   25.64
  -9   2  -5  282.20   25.51
   9  -2  -5  254.38   17.26
   9  -2  -5  260.81   18.87
   9   3  -5   16.55    6.08
   9  -3   5   17.92    5.97
   9  -3   5    4.51    4.59
   9   3   5   24.00    5.37
  -9   3  -5    7.05    5.25
   9   3   5   13.40    5.56
   9  -4   5  229.30   23.30
   9   4  -5  209.53   24.62
   9  -4   5  258.52   23.74
  -9  -4  -5  192.22   22.95
   9   4   5  237.56   20.82
  -9   4  -5  214.96   24.47
   9   4   5  226.69   22.71
   9  -4  -5  203.19   23.56
   9   4   5  269.32   19.12
   9  -4  -5  188.99   18.39
   9  -5   5   11.53    8.91
   9  -5   5    2.39    7.42
   9   5  -5   -7.85    7.85
   9  -5  -5    2.64    7.49
   9  -5  -5   16.24    6.56
  -9   5  -5   -5.24    7.95
   9   5   5    3.31    6.76
   9   6  -5  452.81   34.19
  -9  -6  -5  383.55   28.07
   9  -6   5  486.74   34.69
   9  -6   5  442.76   34.56
  -9   6  -5  420.90   35.80
   9  -6  -5  486.49   31.91
   9   6   5  458.37   28.91
   9  -6  -5  459.58   35.39
   9   6   5  513.95   33.29
   9   0  -6   11.22    6.13
   9   0  -6   11.80    4.94
  -9   0  -6   -3.18    5.50
   9   0   6    1.51    4.59
   9   0   6   -1.86    4.99
  -9  -1  -6  109.11   15.87
   9   1  -6   97.09   15.43
   9  -1   6  125.51   14.37
   9  -1   6  131.12   17.14
   9   1  -6   76.92   12.44
   9  -1  -6  101.58   13.74
   9   1   6  143.94   16.99
  -9   1  -6  115.22   16.72
   9  -1  -6  119.84   16.29
  -9  -2  -6    4.23    7.13
   9   2  -6    2.79    5.33
   9  -2   6    4.00    5.75
   9   2  -6    6.01    5.66
   9  -2   6    6.42    7.21
  -9   2  -6    6.84    6.84
   9  -2  -6   -3.59    4.89
   9  -2  -6   -2.34    6.32
   9  -2  -6   -1.21    5.60
   9   2   6    6.68    6.41
   9   2   6   -1.56    5.72
  -9  -3  -6  210.22   24.00
   9  -3   6  287.54   23.07
   9   3  -6  231.84   16.19
   9   3  -6  216.38   24.38
   9  -3   6  236.28   25.74
   9   3   6  250.66   23.23
   9  -3  -6  255.20   20.08
   9  -3  -6  213.78   24.69
  -9   3  -6  245.61   25.40
   9   3   6  302.57   20.86
   9  -4   6   -2.95    6.99
   9   4  -6    7.87    7.27
  -9  -4  -6    4.82    6.34
   9  -4   6   -7.35    6.28
   9   4   6   14.64    6.88
   9   4   6    6.34    7.14
   9  -4  -6    6.52    5.64
  -9   4  -6   -1.51    6.70
   9  -5   6   87.04   12.73
   9  -5   6   62.38   16.70
   9  -5  -6  123.20   12.44
   9   5   6  110.63   13.13
   9   0   7  436.59   30.25
   9   0  -7  480.58   31.25
   9   0   7  465.72   33.91
  -9   0  -7  464.12   35.87
   9   0  -7  418.00   28.70
  -9   1   7   17.90    5.22
   9   1  -7   -0.96    6.01
   9   1  -7    6.40    5.60
   9  -1   7    9.31    5.78
   9  -1   7    8.83    5.66
   9  -1  -7   -3.51    4.88
   9   1   7    1.37    6.83
   9  -1  -7   -6.90    5.68
  -9   1  -7    5.79    4.36
   9  -2   7  108.10   15.64
  -9   2   7   77.36    8.43
   9  -2   7   72.29   16.14
  -9  -2  -7   62.41   15.03
   9   2  -7   91.46   14.76
   9   2  -7   91.20   12.19
   9  -2  -7   60.32   11.26
   9  -2  -7  106.96   15.63
  -9   2  -7   53.93   15.42
   9   2   7   83.92   14.70
   9   3  -7   15.36    7.94
   9   3  -7   30.73    7.79
  -9  -3  -7    4.33    9.03
   9  -3   7    4.33    8.72
   9  -3   7    4.40    6.41
   9  -3  -7   22.91    4.79
  -9   3  -7   19.81    9.56
   9  -3  -7   12.98    7.41
   9  -3  -7    5.82    7.22
   9   3   7    8.83    5.84
   9  -4   7  104.82   16.47
   9   4  -7   63.92   17.02
  -9  -4  -7   58.16   16.11
   9  -4   7   82.29   15.46
   9   4   7  120.96   15.78
   9  -4  -7  122.68   13.76
   9   4   7   90.21   14.84
   9   0  -8   11.43    7.01
  -9   0  -8   12.20    6.65
  -9   1   8   -9.41    5.95
   9  -1   8    9.49    7.33
   9   1  -8   18.74    7.67
   9  -1   8   14.10    9.66
  -9  -1  -8    2.07    7.43
   9   1   8    5.85    6.86
   9   1   8   -9.68    5.73
  -9   1  -8    3.98    7.49
   9  -1  -8   -6.29    6.76
   9   2  -8   11.28    5.92
  -9  -2  -8   -1.16    6.62
   9  -2   8   16.74    6.97
   9   2   8   11.04    6.17
  -9   2  -8   14.69    8.02
   9  -2  -8   27.46    6.92
   9  -3   8  185.40   22.14
  -9  -3  -8  153.09   22.32
   9  -3   8  176.06   20.10
   9   3  -8  138.12   21.39
   9  -3  -8  189.67   18.02
   9   3   8  203.99   20.53
   9  -3  -8  156.45   22.17
  -9   3  -8  185.31   21.67
   9   3   8  176.36   21.82
  -9   0  -9  347.41   33.68
   9   0  -9  359.84   28.95
   9   0   9  439.73   32.84
   9   0   9  342.26   31.74
  -9   1   9  -12.49    6.81
   9   1  -9    6.52    7.25
   9  -1   9   15.78    9.26
   9  -1   9   -6.68    8.90
  -9  -1  -9    4.12    8.62
   9  -1  -9   -5.22    7.71
  -9   1  -9    2.67    9.53
   9   1   9   13.17    8.42
   9  -2   9   46.06   11.97
   9   2  -9   44.87   13.26
   9   2  -9   67.82   12.36
  -9  -2  -9   40.66   12.96
   9  -2  -9   42.94   13.03
  -9   2  -9   46.75   16.65
   9   2   9   35.05   14.79
  10   0   0  411.81   27.17
 -10   0   0  443.61   30.07
  10  -1   0   49.01    5.98
  10   1   0   62.00    9.62
 -10   1   0   45.81   11.20
  10  -1   0   32.73   10.02
 -10  -1   0   52.28   12.82
  10   1   0   48.89   12.93
 -10   2   0   -3.83    4.44
  10   2   0    5.33    6.15
  10  -2   0    6.30    6.18
 -10  -2   0    7.82    5.06
  10   2   0    4.84    5.12
  10  -2   0    8.89    4.29
  10  -3   0    3.03    6.36
  10  -3   0   21.76    6.62
 -10   3   0   17.27    7.87
  10  -4   0   39.92   12.42
  10   4   0   58.02    8.24
  10   4   0   56.80   13.88
 -10   4   0   53.62   11.87
  10  -4   0   33.09    9.26
  10  -5   0   10.87    8.27
  10   5   0   16.35    6.88
 -10   5   0   13.73    7.06
  10  -5   0   14.92    5.59
  10  -6   0   38.01    7.42
  10  -6   0   33.30    8.00
 -10   6   0   63.30   10.57
  10   0   1   -2.07    4.07
 -10   0   1    5.20    4.70
  10   0  -1   11.93    3.06
  10   1  -1   47.25   12.29
  10   1  -1   54.61   11.71
 -10  -1  -1   71.80   12.49
 -10   1   1   62.87   11.10
  10  -1   1   51.31   12.31
  10  -1   1   46.38    6.75
  10   1   1   57.30   12.14
  10  -1  -1   50.56   12.34
 -10  -1   1   45.91   11.69
 -10   1  -1   66.59   11.95
  10   2  -1    0.68    4.36
  10  -2   1   -2.80    3.34
 -10  -2  -1   -2.88    4.12
  10  -2   1    3.17    5.11
  10   2  -1   11.20    4.70
 -10   2   1    4.30    3.95
  10   2   1    5.61    5.52
  10  -2  -1    0.76    4.37
  10   2   1   -5.26    4.33
 -10   2  -1    0.00    4.08
  10  -2  -1   -3.93    3.01
  10   3  -1  264.57   17.91
  10  -3   1  278.01   25.61
  10  -3   1  264.62   19.88
  10   3  -1  266.26   23.75
 -10   3   1  280.62   22.06
  10   3   1  327.98   26.52
  10   3   1  295.26   20.21
  10  -3  -1  296.54   18.83
  10  -3  -1  311.20   24.83
 -10   3  -1  308.54   25.62
 -10   4   1   23.22    8.70
  10   4  -1   13.54    5.82
  10   4  -1   28.24    9.85
  10  -4   1   25.39    8.35
  10  -4   1   14.74    7.27
  10  -4  -1   10.60    7.96
  10   4   1    7.71    6.45
  10  -4  -1   33.05    7.65
 -10   4  -1    0.32    5.61
 -10   5   1   65.69   10.68
  10  -5   1   72.89   10.16
  10  -5   1   33.37   13.31
  10   5   1   62.38    9.46
  10  -5  -1   52.88   13.21
  10  -5  -1   48.87   13.00
 -10   5  -1   61.04   14.91
  10  -6   1   20.11    7.03
  10   6  -1   -8.26    7.31
  10  -6   1   10.05    9.38
 -10   6  -1    2.55    5.32
  10  -6  -1   10.98    7.14
  10  -6  -1   11.87    7.83
 -10   0  -2  375.05   28.38
 -10   0   2  410.33   28.06
  10   0   2  356.50   26.88
  10   0  -2  371.19   28.21
  10   0   2  373.57   18.69
  10   0  -2  378.41   25.48
 -10   1   2    0.66    5.14
  10   1  -2   -3.84    4.15
 -10  -1  -2   -2.81    3.88
  10  -1   2   -0.91    5.35
  10   1  -2   -6.19    4.50
  10  -1   2    2.78    3.27
  10   1   2   -7.38    3.84
  10  -1  -2   -5.73    4.31
 -10   1  -2    5.39    5.38
  10   1   2   -2.11    4.01
  10   2  -2  218.55   19.91
 -10   2   2  202.30   18.87
 -10  -2  -2  218.19   21.72
  10  -2   2  195.38   16.46
  10  -2   2  202.21   21.11
  10   2  -2  193.98   16.48
  10   2   2  196.32   18.44
 -10   2  -2  208.55   21.25
  10  -2  -2  197.31   13.62
  10   2   2  185.17   21.67
  10  -2  -2  195.29   20.73
  10  -3   2    5.32    5.50
  10   3  -2   21.43    8.71
 -10   3   2   14.96    6.69
  10  -3   2    3.60    4.74
 -10  -3  -2    5.14    5.48
  10   3  -2   11.74    4.16
  10  -3  -2    8.86    5.72
  10   3   2   -1.67    5.27
 -10   3  -2   11.48    6.41
  10  -3  -2    8.12    6.35
  10   3   2    8.44    6.98
 -10   4   2  292.11   21.68
  10  -4   2  314.44   22.00
  10   4  -2  264.97   26.72
  10  -4   2  264.13   26.24
  10  -4  -2  253.99   25.69
  10   4   2  267.65   20.17
  10  -4  -2  239.19   20.70
 -10   4  -2  278.27   25.85
  10   4   2  291.75   27.92
  10  -5   2   28.94    9.88
  10  -5   2   24.07    8.05
 -10   5   2   23.30    9.05
  10   5  -2   36.35   11.23
  10  -5  -2   19.55    9.69
  10   5   2   20.74   11.09
 -10   5  -2   21.76    9.83
  10  -5  -2   25.62    7.00
  10  -6   2  166.09   15.34
  10  -6   2  111.41   17.28
  10   6  -2   98.62   21.56
 -10   6   2  156.32   15.53
  10   6   2  112.44   23.25
 -10   6  -2  120.48   18.12
  10  -6  -2  162.25   22.50
  10  -6  -2  152.93   17.37
  10   0   3    8.47    3.40
  10   0  -3   -0.59    5.37
  10   0   3   -2.28    4.95
 -10   0  -3    3.41    6.01
  10  -1   3  762.70   32.54
  10   1  -3  791.48   36.04
  10  -1   3  752.73   41.70
  10   1  -3  734.82   39.33
 -10  -1  -3  731.42   42.15
  10   1   3  744.49   29.11
  10  -1  -3  723.55   39.34
  10   1   3  761.06   39.04
 -10   1  -3  698.76   41.05
  10  -1  -3  763.57   39.20
  10  -2   3    5.52    5.67
 -10   2   3    0.86    4.35
 -10  -2  -3    2.02    5.68
  10   2  -3    9.98    5.56
  10   2  -3   -4.88    4.65
  10   2   3    0.92    3.65
 -10   2  -3   14.47    5.60
  10   2   3    7.33    7.20
  10  -2  -3    5.01    5.01
  10  -2  -3   -1.85    3.25
  10  -2  -3   -1.66    4.80
  10   3  -3  334.18   19.36
  10   3  -3  370.62   28.91
  10  -3   3  300.88   26.89
  10  -3   3  345.29   24.82
 -10   3   3  313.62   22.74
 -10  -3  -3  365.23   29.00
  10  -3  -3  413.64   23.55
 -10   3  -3  339.98   28.72
  10  -3  -3  367.89   21.53
  10   3   3  354.14   24.86
  10   3   3  327.30   17.89
  10   3   3  344.76   29.16
  10  -3  -3  308.27   27.54
  10  -4   3    7.90    8.01
  10   4  -3   20.57    8.27
  10  -4   3   20.83    7.66
  10   4   3    7.41    7.77
 -10   4  -3   28.98    8.77
  10  -4  -3   23.93    7.80
  10   4   3   17.21    6.22
  10   4   3    5.54    7.74
  10  -5   3  230.63   20.87
 -10   5   3  216.90   17.55
  10   5  -3  176.04   24.52
  10  -5   3  207.88   23.86
  10  -5  -3  198.20   24.32
  10   5   3  193.98   17.40
  10  -5  -3  236.99   19.38
 -10   5  -3  205.61   23.17
  10   6  -3  -13.41    7.33
  10  -6   3   -0.46    6.08
  10  -6   3   31.49   10.79
 -10   6  -3   -9.05    5.88
  10   6   3   21.52    9.92
  10   0  -4  121.80   15.73
  10   0   4  135.08   13.25
 -10   0  -4  137.45   18.21
  10   0  -4  127.53   15.68
  10   0   4  117.55   16.54
 -10  -1  -4   37.05    9.97
  10  -1   4   27.69    9.45
  10  -1   4   28.68    8.86
  10   1  -4   38.10   11.32
  10  -1  -4   42.55   10.29
  10  -1  -4   27.88    7.77
  10   1   4   42.54    8.93
 -10   1  -4   29.74   11.02
  10   1   4   41.48   12.23
  10   2  -4  345.74   27.32
  10  -2   4  324.96   23.00
  10  -2   4  345.95   28.11
 -10  -2  -4  337.54   28.43
  10   2  -4  322.35   21.38
  10  -2  -4  314.47   26.61
  10   2   4  358.00   24.71
 -10   2  -4  310.55   27.96
  10  -2  -4  306.65   17.34
  10  -2  -4  339.51   22.52
  10   2   4  324.18   20.94
  10   3  -4   -6.81    5.08
  10  -3   4   11.01    6.63
 -10  -3  -4    4.76    7.68
  10  -3   4    2.36    5.13
  10   3  -4   -0.48    4.33
  10  -3  -4    3.92    7.32
  10   3   4    1.84    4.95
  10   3   4    0.67    6.75
  10  -3  -4   19.06    6.60
 -10   3  -4    5.71    5.60
  10   3   4    5.34    6.14
  10  -4   4  468.01   36.14
 -10  -4  -4  455.23   35.99
  10  -4   4  458.79   31.67
  10   4  -4  450.39   36.78
  10   4   4  409.30   25.21
  10  -4  -4  454.97   35.65
  10  -4  -4  448.52   28.05
  10   4   4  454.03   35.83
 -10   4  -4  442.53   35.52
  10   5  -4   65.93   14.92
 -10   5   4   69.16   11.61
  10  -5   4  107.49   14.53
  10  -5  -4  101.51   12.34
 -10   5  -4   72.80   16.28
  10   5   4   63.91   13.93
  10   5   4   79.48   13.08
  10  -5  -4   71.91   18.35
 -10   0  -5    0.09    4.73
  10   0  -5    6.54    5.02
  10   0  -5   -0.82    5.57
  10   1  -5  370.16   24.80
  10  -1   5  345.19   29.44
  10  -1   5  380.76   25.42
 -10  -1  -5  323.49   28.70
  10   1  -5  347.94   27.26
  10  -1  -5  326.14   25.09
  10  -1  -5  384.46   29.05
  10   1   5  364.70   23.38
  10   1   5  349.61   28.12
 -10   1  -5  347.84   30.85
 -10  -2  -5    1.09    5.89
  10  -2   5   -0.56    4.43
  10   2  -5   -0.43    5.65
  10  -2  -5   -4.45    5.35
  10  -2  -5    3.26    5.34
  10   2   5   12.49    5.23
  10  -2  -5   -5.84    5.47
 -10   2  -5    1.11    4.31
 -10  -3  -5  127.29   17.90
  10   3  -5  119.51   19.09
  10  -3   5   93.11   16.41
  10  -3   5  113.63   16.10
  10   3  -5   91.06   11.23
 -10   3  -5  115.83   17.48
  10  -3  -5  100.46   15.62
  10   3   5   85.54   15.79
  10  -3  -5  117.65   13.65
  10   3   5   85.96   13.92
  10  -4   5   13.13    7.49
  10   4  -5   23.66    8.60
 -10  -4  -5   -3.28    6.48
  10  -4  -5   -5.48    7.79
  10   4   5   28.77    6.11
 -10   4  -5   -0.77    7.74
  10  -4  -5    1.11    5.85
  10  -4  -5   -0.89    7.03
  10  -5   5   88.87   17.91
  10  -5   5   85.95   16.05
  10   5  -5   87.30   16.27
  10   5   5  106.60   16.08
 -10   5  -5   75.74   18.33
  10  -5  -5  123.84   17.60
 -10   0  -6   42.27   12.58
  10   0   6   29.74   11.92
  10   0  -6   56.01   12.04
  10   0   6   61.73   12.94
  10   0  -6   72.39   11.32
  10   1  -6   15.16    5.94
  10  -1   6    1.58    5.83
 -10  -1  -6    5.24    7.74
  10  -1   6   12.07    4.90
  10   1  -6   -2.90    5.52
  10  -1  -6  -11.06    6.57
  10  -1  -6   -3.17    5.39
  10   1   6   -4.70    4.99
  10   1   6   -7.37    5.08
 -10   1  -6    2.23    7.04
  10  -2   6   34.95   13.12
  10  -2   6   37.52   10.99
  10   2  -6   47.52    9.57
  10   2  -6   35.73   11.72
 -10  -2  -6   45.21   12.28
  10   2   6   50.43   11.26
  10  -2  -6   25.40    7.66
  10  -2  -6   34.94   11.47
 -10   2  -6   42.16   13.35
  10   3  -6    4.11    7.97
  10  -3   6   18.18    6.08
  10  -3   6   10.30    6.53
  10  -3  -6   18.83    8.78
 -10   3  -6   11.93    8.09
  10   4  -6   86.83   15.90
  10  -4   6  103.47   17.35
 -10  -4  -6   95.57   19.85
  10  -4   6   77.52   17.79
  10   4   6   97.70   16.79
  10  -4  -6   80.27   18.71
 -10   4  -6   95.54   19.64
  10   0   7   -2.91    6.37
  10   0  -7   -0.45    6.89
  10   0   7   -3.83    5.42
 -10   0  -7    6.17    7.83
 -10  -1  -7    9.71    9.31
  10  -1   7   19.30    7.58
  10   1  -7    5.10    9.20
  10  -1  -7   26.01    8.10
  10  -1  -7    8.24    6.66
 -10   1  -7    7.27    8.13
  10   1   7   22.78    9.63
 -10  -2  -7    0.04    6.99
  10  -2   7   -3.36    5.45
  10   2  -7   -5.35    7.21
  10  -2   7   -1.82    7.62
  10   2  -7   -5.12    7.21
 -10   2   7   14.04    7.22
 -10   2  -7   -6.64    6.79
  10  -2  -7    1.10    7.21
  10  -2  -7    2.44    6.32
  10  -2  -7    2.48    6.34
  10  -3   7   94.29   16.33
 -10  -3  -7   57.51   16.38
  10   3  -7   94.54   16.22
  10  -3  -7   81.48   18.85
 -10   3  -7   84.03   19.80
  10  -3  -7   58.41   11.88
  10   3   7  112.64   15.91
  10   0  -8  283.17   23.56
  10   0   8  295.60   22.43
  10   0   8  238.17   27.18
 -10   0  -8  257.37   28.92
  10   0  -8  258.99   21.12
  10   1  -8   34.65    8.80
  10  -1   8   35.62    8.65
  10  -1   8    5.68    9.08
 -10  -1  -8   18.06    9.52
  10  -1  -8    7.42    7.42
  10   2  -8   29.23    9.66
 -10  -2  -8   11.88   11.90
  10  -2   8   31.12   13.48
  10  -2  -8    8.79   10.38
 -10   2  -8   36.83   13.88
  10  -2  -8   53.34   12.86
  11   0   0   -7.12    3.82
 -11   0   0   -4.20    4.68
  11  -1   0   26.38    8.63
  11   1   0    8.38    7.16
 -11  -1   0   21.76    7.99
 -11   1   0    1.96    6.58
  11   1   0   10.43    5.65
  11  -2   0   -6.58    4.14
 -11  -2   0   -0.92    4.39
  11  -2   0    3.82    6.13
  11   2   0    2.11    4.87
  11   3   0   83.79   11.01
  11  -3   0   69.53   11.73
 -11   3   0  105.25   15.35
  11   3   0   89.75   16.83
  11  -3   0  113.39   16.92
 -11   4   0   -3.66    5.44
  11   4   0   -3.85    6.47
  11  -4   0   -1.83    5.30
  11   4   0   -3.90    5.34
  11  -5   0  109.45   14.79
  11  -5   0  108.70   18.61
  11   5   0  120.83   17.95
 -11   5   0  140.76   15.54
 -11   0   1  195.29   21.13
  11   0   1  167.85   18.36
 -11   0  -1  150.56   19.39
  11   0  -1  172.63   17.97
  11   0  -1  178.19   19.43
 -11  -1  -1    4.57    5.18
  11  -1   1    3.05    3.33
 -11   1   1    2.42    5.40
  11  -1   1   -6.23    4.61
  11   1  -1    0.96    5.52
  11   1  -1    0.53    3.71
 -11  -1   1   -0.91    5.40
 -11   1  -1    7.24    6.73
  11   1   1    1.12    4.99
  11   2  -1  155.51   18.74
  11   2  -1  107.52   13.92
 -11   2   1  104.64   15.82
 -11  -2  -1  126.48   18.37
  11  -2   1  102.81   17.51
  11  -2   1   90.78   11.87
 -11   2  -1  122.14   16.45
  11  -2  -1  145.24   17.79
  11  -2  -1  135.58   11.07
  11   2   1  108.51   18.04
  11   2   1  122.64   14.57
  11   3  -1    1.28    4.66
  11  -3   1   14.69    4.28
  11   3  -1   11.39    4.57
  11  -3   1    0.83    6.82
 -11   3   1   -0.48    5.01
  11  -3  -1   10.52    4.85
  11   3   1   16.84    4.46
 -11   3  -1    8.14    5.83
  11  -3  -1   -0.81    6.33
  11   4  -1   27.22   13.15
  11  -4   1   16.18   10.06
 -11   4   1   28.97    9.96
  11   4   1   29.78    8.70
  11  -4  -1   18.84    8.91
  11  -5   1   25.22    8.83
  11   5  -1   17.55   10.15
  11   0  -2    0.23    4.58
 -11   0   2   -7.42    4.07
  11   0   2    0.46    3.03
  11   0  -2   -1.85    4.80
  11   0   2    4.48    4.15
 -11   0  -2    9.88    5.91
 -11   1   2  203.88   21.15
  11  -1   2  191.38   15.44
  11   1  -2  246.67   23.13
 -11  -1  -2  237.35   24.48
  11  -1   2  241.15   21.22
  11   1  -2  195.86   19.05
  11  -1  -2  253.60   22.40
  11   1   2  290.13   21.76
 -11   1  -2  221.98   23.56
  11  -1  -2  231.51   22.92
  11  -2   2   -4.52    5.11
 -11   2   2   -0.35    5.34
  11  -2   2   -7.19    4.66
  11   2  -2   -0.74    5.19
 -11  -2  -2    0.83    5.97
  11   2  -2    6.48    3.89
  11  -2  -2    0.68    5.52
  11  -2  -2    9.75    6.66
 -11   2  -2    8.32    6.73
  11  -2  -2    8.60    3.26
  11   2   2    4.36    5.40
  11   2   2    5.41    5.68
  11  -3   2  270.49   27.40
 -11  -3  -2  320.50   29.56
 -11   3   2  291.49   23.43
  11   3  -2  334.68   29.63
  11  -3   2  340.50   22.28
  11   3  -2  344.74   21.56
  11   3   2  334.58   29.01
  11  -3  -2  307.45   28.30
  11  -3  -2  305.16   19.96
 -11   3  -2  355.29   28.59
  11   3   2  356.84   23.24
  11  -4   2   25.55    7.60
 -11   4   2   13.77    6.86
  11   4  -2    8.62    7.64
  11  -4   2   10.43    8.99
 -11   4  -2   16.02    9.82
  11  -4  -2    1.88    5.77
  11  -4  -2   10.22    8.40
  11   4   2   12.09    9.78
  11   4   2   22.27    8.76
  11   5  -2   71.06   17.56
  11  -5   2   72.62   14.69
  11  -5   2   73.98   17.45
  11  -5  -2  115.58   12.71
  11   5   2   83.59   20.30
 -11   5  -2  121.53   16.10
  11  -5  -2   76.72   18.69
  11   5   2   92.81   13.50
  11   0   3  497.22   24.86
  11   0  -3  511.66   34.31
 -11   0  -3  558.94   37.58
  11   0   3  524.84   34.34
  11   0  -3  493.60   31.91
  11  -1   3   14.58    8.28
  11   1  -3   12.70    7.15
 -11  -1  -3    1.61    6.32
  11   1  -3   25.40    7.70
 -11   1  -3    3.60    6.33
  11   1   3    3.21    4.84
  11  -1  -3   10.89    8.47
  11   1   3    1.33    7.46
 -11   2   3  155.87   15.15
  11   2  -3  122.67   17.59
  11  -2   3  120.56   16.25
  11   2  -3  133.66   12.84
 -11  -2  -3  137.96   18.03
  11  -2   3  124.36   13.81
  11  -2  -3   87.77   15.71
  11   2   3  107.24    9.74
  11  -2  -3  112.56   16.48
  11   2   3  128.76   15.79
 -11   2  -3  130.67   17.48
  11   3  -3    1.32    6.31
  11   3  -3   15.98    7.14
  11  -3   3    5.88    7.42
 -11   3   3   -1.17    6.30
 -11  -3  -3    3.80    6.38
  11  -3   3    2.58    6.48
  11  -3  -3   -2.02    5.57
  11  -3  -3   -3.12    6.39
  11   3   3    7.39    4.42
 -11   3  -3   -3.14    6.32
  11  -3  -3   -6.50    4.42
  11   4  -3  418.35   34.19
  11  -4   3  373.38   33.96
  11  -4   3  462.06   28.12
 -11   4   3  439.80   28.13
  11   4   3  434.42   27.01
  11  -4  -3  448.47   34.80
  11   4   3  392.01   33.91
  11  -4  -3  422.07   26.50
 -11   4  -3  414.04   34.28
  11  -5   3   10.44   10.50
 -11   5   3    9.67    7.80
  11   5   3    1.71   10.26
  11  -5  -3    6.83    7.32
  11   0   4   -0.71    5.26
 -11   0  -4   -4.44    5.62
  11   0  -4  -10.13    5.53
  11   0  -4    2.68    5.55
  11  -1   4  310.87   28.54
  11   1  -4  301.81   23.36
  11   1  -4  316.26   27.35
 -11  -1  -4  335.57   29.37
  11  -1   4  319.73   21.85
  11  -1  -4  323.60   26.85
 -11   1  -4  305.15   27.47
  11   1   4  329.51   25.99
  11  -1  -4  344.96   25.19
  11   1   4  291.14   20.31
  11   2  -4   13.46    6.65
  11  -2   4   28.93    8.16
  11  -2   4   13.68    8.41
 -11  -2  -4   14.78    8.99
  11   2  -4    1.41    6.51
  11  -2  -4   22.72    7.75
 -11   2  -4   11.78    7.50
  11   2   4    8.56    6.66
  11  -2  -4    5.21    7.15
  11   2   4    2.18    6.11
  11  -3   4  363.83   31.53
 -11  -3  -4  336.20   32.32
  11   3  -4  324.25   21.40
  11  -3   4  396.04   26.40
  11   3  -4  370.55   32.01
  11   3   4  315.17   21.39
 -11   3  -4  390.93   33.20
  11  -3  -4  345.25   25.06
  11  -3  -4  344.41   21.52
  11   3   4  351.24   31.82
  11   3   4  419.70   28.81
  11  -3  -4  377.78   31.86
  11   4  -4   41.75   12.53
  11  -4   4   23.12   10.63
 -11  -4  -4   30.04   12.52
  11   4   4   41.08    9.92
  11   4   4   36.73   14.83
 -11   4  -4   35.11   13.16
  11  -4  -4   29.81    9.56
  11  -4  -4   19.80   12.13
  11   0  -5  195.04   19.93
  11   0  -5  186.87   20.63
 -11   0  -5  216.96   23.97
  11   0   5  179.97   22.67
  11   0   5  184.86   18.64
  11  -1   5   16.37    6.73
 -11  -1  -5   14.13    8.17
  11   1  -5   16.31    9.10
 -11   1  -5    2.97    6.56
  11  -1  -5   24.59    7.10
  11  -1  -5    9.81    7.25
  11   1   5   27.47    8.57
  11   1   5   12.00    6.86
 -11  -2  -5    1.65    6.80
  11   2  -5   16.75    7.67
  11  -2   5   23.72    8.76
  11  -2   5    3.86    7.24
  11   2  -5   -4.96    6.32
  11   2   5    8.93    6.61
  11   2   5   11.35    5.67
 -11   2  -5   22.17    7.68
  11  -2  -5    4.74    7.05
  11  -2  -5   -0.07    6.40
  11   3  -5   16.06    5.69
  11  -3   5    2.29    8.96
  11   3  -5    8.63    7.68
 -11  -3  -5   -0.63    7.44
  11  -3  -5   -6.58    7.42
  11   3   5   -4.74    5.22
 -11  -4  -5  211.37   25.86
  11   4  -5  222.25   25.56
  11  -4   5  243.07   24.90
  11   4   5  269.71   22.19
  11   4   5  198.20   20.28
 -11   4  -5  208.26   27.11
  11   4   5  232.02   27.17
  11  -4  -5  236.36   27.20
  11  -4  -5  215.68   19.73
  11   0  -6    2.31    7.00
 -11   0  -6   -2.10    6.47
 -11  -1  -6   40.71   13.51
  11  -1   6   45.08   12.03
  11   1  -6   65.61   10.91
  11   1   6   95.00   11.52
  11  -1  -6   81.96   11.48
  11   2  -6    9.79    6.91
 -11  -2  -6    1.42    7.75
  11   2  -6   -0.52    8.74
  11  -2   6   -7.84    6.68
  11   2   6    9.83    8.67
 -11   2  -6    1.46    6.38
  11  -3   6   91.09   19.81
 -11  -3  -6   95.48   20.65
  11   3  -6   85.48   20.35
 -11   3  -6   69.92   16.91
  11  -3  -6   66.79   18.83
  11   0  -7  135.34   16.09
 -11   0  -7   91.84   19.76
  11   0   7  135.82   14.31
  11   0  -7  152.27   17.12
  11  -1   7   -8.00    6.99
  11  -1   7   -7.92    8.63
  11  -1  -7    9.22    7.86
 -11  -2  -7   27.75   12.37
  11   2  -7   28.97   11.96
  11   2  -7   61.97   12.72
 -11   2  -7   45.42   13.06
  11  -2  -7   32.55   11.23
  11   2   7   48.97   13.57
  11  -2  -7   13.02    8.20
  12   0   0  460.42   35.52
 -12   0   0  452.18   33.91
  12   0   0  432.76   31.28
  12  -1   0    3.95    8.22
  12   1   0    4.02    6.65
 -12  -1   0    7.83    8.34
 -12   1   0   18.64    7.93
  12  -2   0  104.40   15.99
 -12   2   0   92.44   16.57
  12   2   0   96.33   16.19
  12  -2   0   74.21   10.64
  12   3   0   21.18    5.59
  12  -3   0   12.15    8.58
 -12   3   0   14.87    7.25
  12   3   0    6.61    6.37
  12  -4   0   70.19   16.78
  12   4   0   64.48   12.16
  12  -4   0   72.11   12.11
  12   4   0   54.05   16.65
 -12   4   0   81.70   14.16
  12   0  -1    7.27    4.33
 -12   0  -1    6.35    6.53
  12   0  -1    5.31    5.36
 -12   0   1   12.43    5.96
  12  -1   1   49.18   10.80
  12   1  -1   44.46   11.52
 -12   1   1   26.43   10.16
  12   1  -1   44.26   10.82
 -12  -1  -1   43.02   13.25
  12   1   1   30.65   11.97
 -12   1  -1   34.63   11.00
  12   1   1   31.37   10.42
  12  -1  -1   20.76   10.11
  12  -1  -1   35.14   11.15
 -12   2   1   17.18    7.14
 -12  -2  -1   14.20    4.93
  12  -2  -1   20.52    6.56
 -12   2  -1    9.43    6.82
  12   3  -1  175.61   17.02
 -12   3   1  186.18   20.21
  12  -3   1  192.04   23.47
  12   3  -1  172.53   24.27
  12  -3   1  174.27   17.47
  12   3   1  195.47   23.67
  12  -3  -1  131.26   15.61
 -12   3  -1  162.27   20.90
  12  -3  -1  169.23   23.47
  12   3   1  210.73   18.58
  12   4  -1   -6.75    8.48
  12  -4  -1    9.50    9.49
 -12   4  -1   22.58    8.43
  12   4   1   -2.86    7.65
  12   4   1    7.38    7.91
  12   0  -2  378.68   26.52
 -12   0  -2  341.84   30.07
  12   0  -2  337.95   30.07
  12   0   2  346.13   28.89
  12   1  -2    3.02    5.55
 -12  -1  -2    2.47    6.79
  12  -1   2   -2.14    4.13
  12   1  -2   -2.16    5.27
 -12   1   2   -3.53    6.57
 -12   1  -2   -2.27    5.66
  12   1   2   -7.58    6.24
  12  -1  -2   -3.81    5.45
  12  -1  -2    6.08    4.50
 -12   2   2   88.03   17.06
  12   2  -2  112.71   15.90
  12  -2   2  100.08   20.00
  12   2  -2  117.67   19.57
  12  -2   2   86.63   13.79
 -12  -2  -2  117.98   19.22
  12   2   2  144.00   21.79
  12   2   2  120.76   15.60
 -12   2  -2  113.22   18.61
  12  -2  -2  122.86   17.71
  12  -2  -2  106.86   18.36
 -12  -3  -2   11.91    5.64
  12  -3   2   -4.58    6.60
  12   3  -2   11.99    5.03
 -12   3   2    6.57    6.56
  12  -3  -2   -6.06    7.00
  12   3   2   10.75    7.90
  12  -4   2  143.13   16.22
 -12   4   2  100.82   13.47
  12   4  -2   91.76   20.10
  12  -4   2  107.32   16.89
  12   4   2  141.90   14.32
  12  -4  -2   98.98   16.31
  12  -4  -2   82.47   18.87
  12   4   2   73.93   19.28
 -12   4  -2  123.69   17.88
  12   0  -3   18.92    4.72
  12   0  -3   -0.27    5.41
 -12   0  -3    7.09    5.08
  12   1  -3  108.15   18.47
 -12  -1  -3  120.24   18.94
  12  -1   3  114.69   18.67
  12  -1   3   99.03   13.27
  12   1  -3   86.60   15.08
 -12   1  -3  106.35   21.20
  12  -1  -3  112.00   17.39
  12   1   3  132.01   17.21
  12  -1  -3   81.50   17.86
  12   1   3   92.49   12.32
 -12  -2  -3   18.09    8.23
  12   2  -3   -1.81    7.68
  12  -2   3    5.23    8.25
  12   2  -3    0.00    6.21
 -12   2   3   14.59    6.47
  12  -2  -3   12.42    7.03
  12  -2  -3   16.40    7.51
 -12   2  -3    5.25    6.89
  12   3  -3  164.73   24.56
  12   3  -3  205.04   18.15
  12  -3   3  279.66   25.20
 -12   3   3  267.27   20.51
  12  -3   3  250.72   19.57
 -12  -3  -3  217.75   25.75
  12  -3  -3  193.95   25.05
  12   3   3  231.66   24.13
 -12   3  -3  172.67   22.90
  12  -3  -3  284.27   21.58
  12   3   3  271.25   20.80
  12   4  -3   25.72   10.89
  12  -4   3   23.39    8.47
 -12   4   3   23.49    9.19
  12  -4  -3   24.80   11.88
  12   4   3   17.43    8.58
 -12   4  -3   15.79   10.75
  12   0   4  185.24   20.62
  12   0   4  126.78   15.26
  12   0  -4  171.81   20.57
 -12   0  -4  166.73   21.11
  12   0  -4  202.52   19.04
  12   1  -4   47.78    9.91
  12  -1   4   28.53    9.72
 -12  -1  -4    6.60    8.63
  12  -1   4   19.60   10.13
 -12   1  -4   35.99   11.13
  12  -1  -4   45.86    9.63
  12   1   4   44.77   12.14
  12   1   4   11.35    7.77
  12   2  -4   65.89   17.83
 -12  -2  -4   71.75   17.69
  12  -2   4   95.46   19.64
  12  -2   4   99.25   13.70
  12  -2  -4   87.54   15.73
 -12   2  -4   54.05   16.03
  12  -2  -4   93.40   12.98
 -12  -3  -4   16.17   10.23
  12  -3   4   -0.72    9.06
  12   3  -4   15.02   10.18
  12   3   4   24.29    7.94
  12  -3  -4    1.23    7.47
  12   3   4   14.46    8.50
 -12   3  -4   10.01    9.71
  12   0  -5    3.35    6.59
  12   0   5   12.95    7.24
  12   0   5  -11.40    6.37
 -12  -1  -5   41.97   13.59
  12  -1   5   45.34   14.36
  12   1  -5   29.63   12.48
  12   1   5   27.76   10.22
  12   1   5   24.01   12.44
 -12   1  -5   40.50   14.67
  12  -1  -5   32.03   10.74
  12  -2   5    3.04    8.21
  12   2  -5   29.11    7.89
  12   2  -5   25.84   10.82
 -12   2  -5    4.99    8.01
  12   2   5   22.27    8.96
  12  -2  -5   16.01    6.64
  12   0  -6  197.39   18.09
  12   0  -6  163.67   18.04
  12   0   6  145.51   17.78
  12   0   6  126.82   24.54
 -12   0  -6  139.24   22.43
  12   1  -6    9.08    7.36
 -12  -1  -6   11.64    9.59
  12   1  -6   13.41    9.53
  12  -1   6   12.96    7.25
 -12   1  -6   12.84    8.32
  12  -1  -6   16.03   10.05
  12   1   6   18.31    7.94
  12  -1  -6    7.74    9.13
 -13   0   0    0.41    7.17
  13   0   0   18.56    5.09
  13   0   0    9.97    6.56
 -13   1   0  156.76   20.87
  13  -1   0  116.25   19.53
  13   1   0  172.49   17.45
 -13  -1   0  160.86   20.92
  13   1   0  151.19   20.22
  13   2   0   -5.45    7.08
 -13   2   0    9.28    6.41
  13  -3   0  309.47   29.93
  13   3   0  316.23   29.42
  13   3   0  303.52   22.37
  13   0  -1  232.93   25.91
 -13   0   1  209.00   24.33
 -13   0  -1  279.59   27.20
  13   0  -1  216.02   21.91
  13   0   1  243.14   22.20
  13   1  -1   13.01    6.94
  13  -1   1    7.87    6.60
 -13  -1  -1   -7.66    7.59
  13   1  -1   13.05    7.19
 -13   1  -1    5.07    6.03
  13  -1  -1    7.57    6.93
  13   1   1  -10.16    7.42
  13  -1  -1   -2.67    8.76
  13   1   1    8.01    5.92
 -13   2   1   74.53   13.18
  13  -2   1   60.47   15.28
 -13  -2  -1   52.77   15.16
  13   2  -1   76.16   12.79
 -13   2  -1   38.03   12.19
  13   2   1   53.46   12.56
  13  -2  -1   52.56   14.45
  13   2   1   36.27   13.48
  13  -2  -1   47.28   13.52
  13   3  -1   -2.44    8.46
 -13   3   1   12.49    8.48
  13   3  -1   -6.19    8.55
  13  -3   1    2.49    8.55
  13   3   1   13.19    7.92
  13   3   1    2.35    6.98
 -13   3  -1    5.49    9.33
  13   0  -2  -10.82    7.26
 -13   0  -2    4.21    8.20
  13   0   2   -7.26    6.45
  13   0  -2   13.33    5.57
  13  -1   2   99.50   18.05
 -13   1   2  148.11   18.95
 -13  -1  -2  128.90   19.78
  13   1  -2  102.30   20.54
  13   1  -2  152.16   17.34
  13   1   2  128.15   19.58
  13  -1  -2   88.55   19.58
  13  -1  -2  123.96   18.25
 -13   1  -2  146.03   21.82
  13   1   2  152.08   17.70
  13  -2   2   -8.28    7.89
 -13  -2  -2    2.17    8.88
 -13   2   2   14.37    7.19
  13   2  -2    7.62    8.39
  13   2   2   -1.29    8.22
  13   2   2    9.90    6.10
  13  -2  -2   26.50    8.52
  13  -2  -2   10.49    9.60
 -13   2  -2   -1.56    6.47
 -13   0  -3   -3.99    6.68
  13   0  -3   -2.91    7.96
  13   0   3    6.16    8.66
  13  -1   3    4.16    9.46
  13   1  -3   -3.78    8.67
 -13  -1  -3    7.46    6.03
  13   1   3    1.70    6.24
 -13   1  -3   -3.72    6.50
  13  -1  -3    8.17    6.02
  13  -1  -3   25.58    8.98
  13   2  -3   14.44   10.81
  13  -2   3   22.24   11.45
 -13  -2  -3   29.74   11.02
  13  -2   3   10.29    9.67
 -13   2  -3   13.92   10.93
  13   2   3   22.68   14.65
  13  -2  -3   12.77    9.84
  13   2   3   41.26   11.54
  13   0   4   -0.15    8.35
  13   0  -4   -7.27    6.51
  13   0  -4    7.87    7.41
 -13   0  -4   21.99    8.11
   0   0   0    0.00    0.00

_computing_structure_solution     'SHELXT 2014/5 (Sheldrick, 2014)'
;
_shelx_hkl_checksum              38732
loop_
_space_group_symop_operation_xyz
'x, y, z'
'-x, -y, z'
'-x+1/2, y+1/2, -z+1/2'
'x+1/2, -y+1/2, -z+1/2'
'-x, -y, -z'
'x, y, -z'
'x-1/2, -y-1/2, z-1/2'
'-x-1/2, y-1/2, z-1/2'
loop_
_atom_site_label
_atom_site_type_symbol
_atom_site_fract_x
_atom_site_fract_y
_atom_site_fract_z
_atom_site_U_iso_or_equiv
_atom_site_adp_type
_atom_site_occupancy
_atom_site_site_symmetry_order
_atom_site_calc_flag
_atom_site_refinement_flags_posn
_atom_site_refinement_flags_adp
_atom_site_refinement_flags_occupancy
_atom_site_disorder_assembly
_atom_site_disorder_group
Co1 Co 0.500000 0.500000 0.500000 0.01565(16) Uani 1 4 d S T P . .
N1 N 0.5002(2) 0.1956(3) 0.500000 0.0211(5) Uani 1 2 d S T P . .
C1 C 0.5003(2) 0.0974(3) 0.3799(2) 0.0257(4) Uani 1 1 d . . . . .
H1 H 0.500741 0.161184 0.294088 0.031 Uiso 1 1 calc R U . . .
O1 O 0.64301(17) 0.5097(3) 0.65176(19) 0.0350(4) Uani 1 1 d . . . . .
H1A H 0.694(3) 0.586(5) 0.6312(19) 0.053 Uiso 1 1 calc R U . . .
O2 O 0.81343(16) 0.7870(2) 0.61753(17) 0.0342(4) Uani 1 1 d . . . . .
C2 C 0.8445(3) 0.8549(5) 0.500000 0.0298(7) Uani 1 2 d S T P . .
C3 C 0.9296(3) 1.0302(5) 0.500000 0.0362(8) Uani 1 2 d S T P . .
H3A H 0.911554 1.105606 0.416847 0.043 Uiso 0.5 1 calc R U P . .
H3AB H 0.911554 1.105606 0.583153 0.043 Uiso 0.5 1 calc R U P . .
H2 H 0.661(3) 0.442(5) 0.713(3) 0.050(9) Uiso 1 1 d . . . . .
loop_
_atom_site_aniso_label
_atom_site_aniso_U_11
_atom_site_aniso_U_22
_atom_site_aniso_U_33
_atom_site_aniso_U_23
_atom_site_aniso_U_13
_atom_site_aniso_U_12
Co1 0.0206(3) 0.0097(2) 0.0167(3) 0.000 0.000 -0.0033(2)
N1 0.0263(11) 0.0127(10) 0.0243(11) 0.000 0.000 -0.0026(10)
C1 0.0414(12) 0.0151(10) 0.0207(9) 0.0027(7) 0.0000(10) -0.0001(9)
O1 0.0376(9) 0.0317(9) 0.0358(9) 0.0150(8) -0.0168(8) -0.0163(8)
O2 0.0414(9) 0.0365(9) 0.0247(8) 0.0017(7) -0.0016(7) -0.0218(7)
C2 0.0273(16) 0.0320(17) 0.0302(16) 0.000 0.000 -0.0139(13)
C3 0.0386(19) 0.0306(19) 0.0394(19) 0.000 0.000 -0.0150(15)
loop_
_atom_type_symbol
_atom_type_description
_atom_type_scat_dispersion_real
_atom_type_scat_dispersion_imag
_atom_type_scat_source
C C 0.0033 0.0016 'International Tables Vol C Tables 4.2.6.8 and 6.1.1.4'
H H 0.0000 0.0000 'International Tables Vol C Tables 4.2.6.8 and 6.1.1.4'
Co Co 0.3494 0.9721 'International Tables Vol C Tables 4.2.6.8 and 6.1.1.4'
N N 0.0061 0.0033 'International Tables Vol C Tables 4.2.6.8 and 6.1.1.4'
O O 0.0106 0.0060 'International Tables Vol C Tables 4.2.6.8 and 6.1.1.4'
loop_
_geom_angle_atom_site_label_1
_geom_angle_atom_site_label_2
_geom_angle_atom_site_label_3
_geom_angle
_geom_angle_site_symmetry_1
_geom_angle_site_symmetry_3
_geom_angle_publ_flag
O1 Co1 O1 91.63(11) 5_666 6_556 ?
O1 Co1 O1 88.37(11) 5_666 2_665 ?
O1 Co1 O1 180.0 6_556 2_665 ?
O1 Co1 O1 180.0 5_666 . ?
O1 Co1 O1 88.37(11) 6_556 . ?
O1 Co1 O1 91.63(11) 2_665 . ?
O1 Co1 N1 91.88(7) 5_666 5_666 ?
O1 Co1 N1 88.12(7) 6_556 5_666 ?
O1 Co1 N1 91.88(7) 2_665 5_666 ?
O1 Co1 N1 88.12(7) . 5_666 ?
O1 Co1 N1 88.12(7) 5_666 . ?
O1 Co1 N1 91.88(7) 6_556 . ?
O1 Co1 N1 88.12(7) 2_665 . ?
O1 Co1 N1 91.88(7) . . ?
N1 Co1 N1 180.0 5_666 . ?
C1 N1 C1 116.8(2) 6_556 . ?
C1 N1 Co1 121.59(12) 6_556 . ?
C1 N1 Co1 121.59(12) . . ?
N1 C1 C1 121.59(12) . 2_655 ?
N1 C1 H1 119.2 . . ?
C1 C1 H1 119.2 2_655 . ?
Co1 O1 H1A 109.5 . . ?
Co1 O1 H2 132(2) . . ?
H1A O1 H2 117.2 . . ?
O2 C2 O2 124.9(3) 6_556 . ?
O2 C2 C3 117.54(14) 6_556 . ?
O2 C2 C3 117.54(14) . . ?
C3 C3 C2 108.6(4) 5_776 . ?
C3 C3 H3A 110.0 5_776 . ?
C2 C3 H3A 110.0 . . ?
C3 C3 H3AB 110.0 5_776 . ?
C2 C3 H3AB 110.0 . . ?
H3A C3 H3AB 108.3 . . ?
loop_
_geom_bond_atom_site_label_1
_geom_bond_atom_site_label_2
_geom_bond_distance
_geom_bond_site_symmetry_2
_geom_bond_publ_flag
Co1 O1 2.0593(17) 5_666 ?
Co1 O1 2.0593(17) 6_556 ?
Co1 O1 2.0593(17) 2_665 ?
Co1 O1 2.0594(17) . ?
Co1 N1 2.166(2) 5_666 ?
Co1 N1 2.166(2) . ?
N1 C1 1.333(2) 6_556 ?
N1 C1 1.333(2) . ?
C1 C1 1.386(4) 2_655 ?
C1 H1 0.9300 . ?
O1 H1A 0.78(3) . ?
O1 H2 0.78(3) . ?
O2 C2 1.254(2) . ?
C2 C3 1.525(4) . ?
C3 C3 1.514(7) 5_776 ?
C3 H3A 0.9700 . ?
C3 H3AB 0.9700 . ?
