#------------------------------------------------------------------------------
#$Date: 2022-03-03 23:15:34 +0200 (Thu, 03 Mar 2022) $
#$Revision: 273268 $
#$URL: file:///home/coder/svn-repositories/cod/cif/4/51/93/4519361.cif $
#------------------------------------------------------------------------------
#
# This file is available in the Crystallography Open Database (COD),
# http://www.crystallography.net/
#
# All data on this site have been placed in the public domain by the
# contributors.
#
data_4519361
loop_
_publ_author_name
'D'souza, Luann R.'
'Harmalkar, Nikita N.'
'Harmalkar, Sarvesh S.'
'Tayade, Sakharam B.'
'Dhuri, Sunder N.'
_publ_section_title
;
 Construction of Pyrazine-Appended 1D and 3D Cobalt(II) Succinate
 Coordination Polymers: Influence of Solvent on Architectures and
 Applications in Gas Adsorption and NAC Detection.
;
_journal_issue                   7
_journal_name_full               'ACS omega'
_journal_page_first              5698
_journal_page_last               5712
_journal_paper_doi               10.1021/acsomega.1c05216
_journal_volume                  7
_journal_year                    2022
_chemical_formula_sum            'C6 H6 Co N2 O4'
_chemical_formula_weight         229.06
_space_group_crystal_system      monoclinic
_space_group_IT_number           15
_space_group_name_Hall           '-C 2yc'
_space_group_name_H-M_alt        'C 1 2/c 1'
_atom_sites_solution_hydrogens   geom
_audit_creation_method           SHELXL-2018/3
_cell_angle_alpha                90
_cell_angle_beta                 90.5280(10)
_cell_angle_gamma                90
_cell_formula_units_Z            4
_cell_length_a                   12.1608(5)
_cell_length_b                   7.5544(3)
_cell_length_c                   8.6393(4)
_cell_measurement_reflns_used    9903
_cell_measurement_temperature    296(2)
_cell_measurement_theta_max      28.27
_cell_measurement_theta_min      2.36
_cell_volume                     793.64(6)
_computing_structure_refinement  'SHELXL-2018/3 (Sheldrick, 2018)'
_computing_structure_solution    'SHELXT 2014/5 (Sheldrick, 2014)'
_diffrn_ambient_temperature      296(2)
_diffrn_measured_fraction_theta_full 1.000
_diffrn_measured_fraction_theta_max 1.000
_diffrn_measurement_device_type  'Bruker D8 Quest Eco'
_diffrn_measurement_method       '\f and \w scans'
_diffrn_radiation_type           MoK\a
_diffrn_radiation_wavelength     0.71073
_diffrn_reflns_av_R_equivalents  0.0227
_diffrn_reflns_av_unetI/netI     0.0088
_diffrn_reflns_Laue_measured_fraction_full 1.000
_diffrn_reflns_Laue_measured_fraction_max 1.000
_diffrn_reflns_limit_h_max       16
_diffrn_reflns_limit_h_min       -16
_diffrn_reflns_limit_k_max       10
_diffrn_reflns_limit_k_min       -10
_diffrn_reflns_limit_l_max       11
_diffrn_reflns_limit_l_min       -11
_diffrn_reflns_number            12721
_diffrn_reflns_point_group_measured_fraction_full 1.000
_diffrn_reflns_point_group_measured_fraction_max 1.000
_diffrn_reflns_theta_full        25.242
_diffrn_reflns_theta_max         28.285
_diffrn_reflns_theta_min         3.175
_exptl_absorpt_coefficient_mu    2.143
_exptl_absorpt_correction_type   multi-scan
_exptl_absorpt_process_details   SADABS
_exptl_crystal_colour            orange
_exptl_crystal_density_diffrn    1.917
_exptl_crystal_description       plate
_exptl_crystal_F_000             460
_exptl_crystal_size_max          0.4
_exptl_crystal_size_mid          0.3
_exptl_crystal_size_min          0.1
_exptl_transmission_factor_max   0.7457
_exptl_transmission_factor_min   0.6101
_refine_diff_density_max         0.403
_refine_diff_density_min         -0.551
_refine_diff_density_rms         0.096
_refine_ls_extinction_method     none
_refine_ls_goodness_of_fit_ref   1.224
_refine_ls_hydrogen_treatment    constr
_refine_ls_matrix_type           full
_refine_ls_number_parameters     61
_refine_ls_number_reflns         979
_refine_ls_number_restraints     0
_refine_ls_restrained_S_all      1.224
_refine_ls_R_factor_all          0.0306
_refine_ls_R_factor_gt           0.0298
_refine_ls_shift/su_max          0.000
_refine_ls_shift/su_mean         0.000
_refine_ls_structure_factor_coef Fsqd
_refine_ls_weighting_details
'w=1/[\s^2^(Fo^2^)+(0.0310P)^2^+2.6596P] where P=(Fo^2^+2Fc^2^)/3'
_refine_ls_weighting_scheme      calc
_refine_ls_wR_factor_gt          0.0817
_refine_ls_wR_factor_ref         0.0822
_reflns_Friedel_coverage         0.000
_reflns_number_gt                949
_reflns_number_total             979
_reflns_threshold_expression     'I > 2\s(I)'
_cod_data_source_file            ao1c05216_si_006.cif
_cod_data_source_block           05
_cod_original_sg_symbol_H-M      'C 2/c'
_cod_database_code               4519361
_shelx_shelxl_version_number     2018/3
_shelx_space_group_comment
;
The symmetry employed for this shelxl refinement is uniquely defined
by the following loop, which should always be used as a source of
symmetry information in preference to the above space-group names.
They are only intended as comments.
;
_shelx_res_file
;
TITL r127b_0m_a.res in C2/c
    shelx.res
    created by SHELXL-2018/3 at 16:15:39 on 11-Sep-2019
CELL  0.71073  12.1608   7.5544   8.6393   90.000   90.528   90.000
ZERR     8.00   0.0005   0.0003   0.0004    0.000    0.001    0.000
LATT   7
SYMM  - X,   Y, 1/2 - Z
SFAC  C    H    CO   N    O
UNIT  24 24 4 8 16
MERG   2
FMAP   2
PLAN   20
ACTA
BOND   $H
LIST   6
L.S.  10
TEMP    23.00
WGHT    0.031000    2.659600
FVAR       0.62554
CO1   3    0.250000    0.750000    0.500000    10.50000    0.02087    0.01263 =
         0.01538   -0.00014   -0.00250    0.00187
O1    5    0.297528    0.837186    0.718204    11.00000    0.05473    0.02316 =
         0.02177   -0.00305   -0.00806   -0.00387
C1    1    0.499050    0.674855    0.509793    11.00000    0.02408    0.01667 =
         0.06130   -0.00411   -0.00167    0.00178
AFIX  43
H1    2    0.501492    0.797632    0.516916    11.00000   -1.20000
AFIX   0
N1    4    0.401641    0.594730    0.497527    11.00000    0.02125    0.01823 =
         0.02953   -0.00189   -0.00279    0.00323
O2    5    0.328952    1.032135    0.902944    11.00000    0.03444    0.02294 =
         0.02380   -0.00587   -0.00441    0.00410
C2    1    0.403539    0.419346    0.487775    11.00000    0.02053    0.02036 =
         0.06038   -0.00440   -0.00394    0.00035
AFIX  43
H2    2    0.337414    0.358148    0.479060    11.00000   -1.20000
AFIX   0
C3    1    0.319410    0.985122    0.765645    11.00000    0.04700    0.02129 =
         0.02107   -0.00128   -0.00040    0.00038
AFIX  43
H3    2    0.330108    1.072109    0.691114    11.00000   -1.20000
AFIX   0
HKLF    4




REM  r127b_0m_a.res in C2/c
REM wR2 = 0.0822, GooF = S = 1.224, Restrained GooF = 1.224 for all data
REM R1 = 0.0298 for 949 Fo > 4sig(Fo) and 0.0306 for all 979 data
REM 61 parameters refined using 0 restraints

END

WGHT      0.0310      2.6596

REM Highest difference peak  0.403,  deepest hole -0.551,  1-sigma level  0.096
Q1    1   0.1986  0.8428  0.7200  11.00000  0.05    0.40
Q2    1   0.3349  0.9764  0.6014  11.00000  0.05    0.34
Q3    1   0.3290  0.5341  0.5997  11.00000  0.05    0.30
Q4    1   0.3035  1.1673  0.7832  11.00000  0.05    0.26
Q5    1   0.4317  0.6345  0.3360  11.00000  0.05    0.25
Q6    1   0.1921  0.9709  0.7826  11.00000  0.05    0.24
Q7    1   0.4536  0.3797  0.4701  11.00000  0.05    0.22
Q8    1   0.3829  1.0719  0.6315  11.00000  0.05    0.22
Q9    1   0.3310  0.3370  0.4034  11.00000  0.05    0.21
Q10   1   0.4198  0.5012  0.4342  11.00000  0.05    0.21
Q11   1   0.4728  0.9906  0.8361  11.00000  0.05    0.21
Q12   1   0.2652  0.3578  0.3857  11.00000  0.05    0.20
Q13   1   0.2625  0.9440  0.7752  11.00000  0.05    0.20
Q14   1   0.2609  1.0857  0.6681  11.00000  0.05    0.20
Q15   1   0.4409  1.1116  0.6339  11.00000  0.05    0.19
Q16   1   0.4634  0.6343  0.4382  11.00000  0.05    0.17
Q17   1   0.4961  0.8938  0.6279  11.00000  0.05    0.17
Q18   1   0.4945  0.8003  0.3807  11.00000  0.05    0.17
Q19   1   0.5555  0.6923  0.6827  11.00000  0.05    0.16
Q20   1   0.3978  0.9940  0.8397  11.00000  0.05    0.16
;
_shelx_res_checksum              27676
_shelx_hkl_file
;
   2   0   0 5493.75  127.19
  -2   0   0 5445.46  127.29
  -2   0   0 5555.44  127.29
   4   0   0 1220.88   30.10
   4   0   0 1182.68   29.70
  -4   0   0 1255.37   29.30
  -4   0   0 1240.28   29.60
  -4   0   0 1197.18   30.10
   4   0   0 1233.48   29.90
  -4   0   0 1215.68   29.90
  -4   0   0 1255.47   29.60
   4   0   0 1252.87   29.50
  -4   0   0 1198.58   29.90
   4   0   0 1221.68   29.50
  -4   0   0 1132.19   29.30
   4   0   0 1285.57   29.30
   4   0   0 1235.48   29.50
   4   0   0 1262.07   29.40
   6   0   0  351.66   10.40
  -6   0   0  342.87    9.50
   6   0   0  355.96    9.40
   6   0   0  345.67    9.70
   6   0   0  349.57   10.70
   6   0   0  348.47    9.80
  -6   0   0  342.07   10.30
   6   0   0  344.57    9.50
  -6   0   0  330.77    9.60
   6   0   0  353.06    9.80
  -6   0   0  332.17    9.80
   8   0   0  585.54   15.70
   8   0   0  591.24   16.60
   8   0   0  588.64   17.00
  -8   0   0  569.04   15.80
  -8   0   0  578.54   15.50
   8   0   0  566.34   15.30
  -8   0   0  542.45   15.40
  -8   0   0  559.54   16.40
   8   0   0  585.04   15.70
 -10   0   0    7.80    1.80
 -10   0   0    9.70    1.80
  10   0   0    8.40    1.90
 -10   0   0    7.80    1.70
  10   0   0    5.20    1.90
  10   0   0    6.00    1.40
  10   0   0    5.60    1.30
  12   0   0 1443.86   35.20
 -12   0   0 1347.87   37.40
  12   0   0 1370.96   35.70
 -12   0   0 1412.16   35.60
 -12   0   0 1340.07   36.10
  12   0   0 1359.26   37.90
  12   0   0 1417.56   37.50
  14   0   0  509.75   18.10
 -14   0   0  528.35   15.70
  14   0   0  475.65   15.50
  14   0   0  486.25   17.20
  14   0   0  512.85   14.90
 -14   0   0  521.85   16.70
 -14   0   0  504.05   17.70
  16   0   0   85.19    6.70
 -16   0   0   89.99    7.40
  16   0   0   73.49    6.80
 -16   0   0   88.99    6.40
  -1  -1   0  291.37    7.60
   1  -1   0  282.67    7.30
  -1  -1   0  287.57    7.40
  -1  -1   0  295.57    7.20
  -1  -1   0  291.57    7.20
   1  -1   0  289.07    7.40
   1  -1   0  281.77    7.10
   1  -1   0  284.37    7.40
   1   1   0  288.27    7.60
   1   1   0  289.37    7.40
   1   1   0  284.87    7.30
  -1   1   0  307.47    7.60
  -1   1   0  294.77    7.50
   1   1   0  289.27    7.40
  -1   1   0  282.77    7.10
  -1   1   0  298.77    7.40
   1   1   0  295.47    7.20
  -1   1   0  276.07    7.30
   1   1   0  301.37    7.20
   3  -1   0 3888.01   85.59
   3  -1   0 3752.72   84.39
  -3  -1   0 3433.96   84.69
   3  -1   0 3492.15   85.49
  -3  -1   0 3745.43   84.69
   3  -1   0 3503.45   84.89
  -3  -1   0 3635.14   85.39
   3  -1   0 3718.83   85.29
  -3  -1   0 3712.23   85.29
   3  -1   0 3693.83   85.19
  -3  -1   0 3615.94   85.49
   3  -1   0 3652.53   85.69
  -3  -1   0 3559.94   85.39
  -3  -1   0 3747.32   85.29
   3   1   0 3764.02   85.49
   3   1   0 3627.84   84.59
   3   1   0 3574.64   85.39
  -3   1   0 3671.03   85.39
   3   1   0 3753.52   85.39
  -3   1   0 3505.35   84.89
   3   1   0 3854.31   85.29
  -3   1   0 3661.83   84.39
   3   1   0 3604.84   84.79
  -3   1   0 3915.11   85.69
  -3   1   0 3381.86   85.59
  -3   1   0 3739.13   85.29
  -3   1   0 3552.34   85.49
   3   1   0 3585.74   85.19
  -5  -1   0 3578.34   87.29
  -5  -1   0 3795.02   87.39
   5  -1   0 3636.04   86.49
  -5  -1   0 3812.62   86.59
  -5  -1   0 3793.42   86.59
   5  -1   0 3682.83   87.89
  -5  -1   0 3768.02   87.09
   5  -1   0 3959.30   86.09
   5  -1   0 3631.34   87.09
   5  -1   0 3695.33   87.29
  -5  -1   0 3763.62   87.19
   5  -1   0 3580.84   87.59
   5  -1   0 3788.82   87.19
  -5  -1   0 3558.14   87.49
  -5   1   0 3742.13   87.59
   5   1   0 3776.32   86.59
   5   1   0 3676.73   87.59
  -5   1   0 3645.24   87.29
  -5   1   0 3582.64   86.59
   5   1   0 3859.31   87.29
  -5   1   0 3717.13   87.39
   5   1   0 3667.03   87.39
   5   1   0 3835.02   86.59
   5   1   0 3832.62   86.99
   5   1   0 3637.04   87.19
  -5   1   0 3487.45   87.59
  -5   1   0 3418.46   87.69
   5   1   0 3788.42   86.39
  -5   1   0 3789.22   86.19
  -7  -1   0    3.70    1.10
  -7  -1   0    5.70    1.10
  -7  -1   0    4.20    1.00
   7  -1   0    5.40    1.50
   7  -1   0    6.40    0.90
   7  -1   0    4.60    1.20
   7  -1   0    3.90    0.90
  -7  -1   0    5.90    1.40
  -7   1   0    4.60    1.00
  -7   1   0    2.50    1.00
   7   1   0    6.00    1.00
  -7   1   0    4.20    0.90
  -7   1   0    5.50    1.30
  -7   1   0    4.80    1.20
   7   1   0    6.00    1.50
   7   1   0    5.20    1.10
   7   1   0    7.20    1.20
   7   1   0    4.30    1.20
   9  -1   0  709.43   20.40
   9  -1   0  687.63   18.10
   9  -1   0  714.13   17.90
  -9  -1   0  693.03   19.90
  -9  -1   0  705.43   18.70
   9  -1   0  698.93   19.30
  -9  -1   0  711.13   19.10
   9  -1   0  699.43   19.90
  -9   1   0  691.43   18.10
   9   1   0  712.83   18.40
   9   1   0  675.93   20.10
  -9   1   0  656.13   19.30
  -9   1   0  674.43   19.70
   9   1   0  706.83   19.00
  -9   1   0  711.53   19.70
   9   1   0  707.03   18.50
   9   1   0  707.93   19.90
  -9   1   0  659.63   18.40
  -9   1   0  710.83   18.00
  11  -1   0    9.40    2.30
  11  -1   0   13.90    2.20
 -11  -1   0   15.30    2.40
 -11  -1   0   11.50    2.10
  11  -1   0   10.60    2.20
 -11  -1   0    9.30    2.20
  11  -1   0   12.50    1.70
 -11   1   0   11.00    2.30
  11   1   0   13.00    2.00
  11   1   0   11.80    2.30
 -11   1   0   12.30    1.90
  11   1   0   12.50    2.00
  11   1   0   15.90    3.00
 -11   1   0   16.00    3.00
  13  -1   0    5.40    2.20
  13  -1   0    7.80    2.00
 -13  -1   0    4.10    1.80
  13  -1   0    9.50    2.60
 -13  -1   0   15.10    2.90
 -13  -1   0    7.60    2.20
  13  -1   0    9.80    1.90
 -13   1   0    8.70    2.50
 -13   1   0    8.20    1.90
  13   1   0   11.90    2.30
  13   1   0    9.10    2.40
  13   1   0    6.30    2.30
  13   1   0    6.30    1.80
 -13   1   0   11.30    2.80
 -15  -1   0   10.30    2.80
  15  -1   0    2.90    2.50
 -15  -1   0    8.30    2.70
  15  -1   0    7.70    2.80
  15  -1   0    6.30    2.70
 -15  -1   0    8.60    3.10
 -15   1   0    3.30    2.50
 -15   1   0   10.00    3.40
  15   1   0    6.20    2.80
 -15   1   0    0.40    2.10
  15   1   0    6.60    2.30
  15   1   0    8.40    2.90
   0  -2   0  200.58    5.90
   0  -2   0  194.88    5.10
   0  -2   0  206.28    6.10
   0  -2   0  205.18    5.10
   0  -2   0  203.18    5.40
   0  -2   0  209.28    5.50
   0  -2   0  210.38    5.90
   0  -2   0  199.78    5.90
   0  -2   0  198.98    6.00
   0   2   0  215.48    6.00
   0   2   0  201.88    5.10
   0   2   0  195.08    5.80
   0   2   0  208.88    5.40
   0   2   0  200.18    5.90
   0   2   0  209.38    5.50
  -2  -2   0  996.70   24.80
  -2  -2   0 1006.50   23.80
  -2  -2   0  958.60   24.60
   2  -2   0  982.70   24.40
   2  -2   0  956.60   23.50
  -2  -2   0  985.60   24.30
   2  -2   0  992.70   24.10
  -2  -2   0  994.70   24.20
  -2  -2   0  996.00   23.70
   2  -2   0  962.60   24.00
  -2  -2   0  999.10   24.20
   2  -2   0  995.30   24.50
  -2   2   0 1034.80   24.60
   2   2   0  994.10   24.70
   2   2   0  951.90   24.20
  -2   2   0  971.10   23.60
   2   2   0  990.90   23.70
  -2   2   0  998.20   24.50
   2   2   0 1006.40   24.10
   2   2   0 1030.80   23.80
  -2   2   0 1011.20   24.10
   2   2   0  999.60   24.40
  -2   2   0  935.21   24.20
  -2   2   0  977.90   24.10
  -4  -2   0 7425.96  168.68
   4  -2   0 6894.11  168.88
  -4  -2   0 7072.09  168.78
   4  -2   0 6973.90  168.98
  -4  -2   0 7402.86  168.68
   4  -2   0 7061.49  167.98
  -4  -2   0 7342.27  168.38
   4  -2   0 7405.16  168.18
   4  -2   0 7475.35  168.58
  -4  -2   0 7199.68  168.88
   4  -2   0 7642.54  168.98
  -4  -2   0 7224.88  167.68
   4  -2   0 7074.89  168.78
  -4   2   0 7415.46  169.18
  -4   2   0 7299.17  168.28
   4   2   0 7294.37  168.18
   4   2   0 7200.88  168.78
   4   2   0 7313.37  168.58
  -4   2   0 7055.89  167.98
   4   2   0 7377.56  168.98
   4   2   0 7034.00  167.58
  -4   2   0 6915.51  168.68
  -4   2   0 7183.68  168.58
   4   2   0 7620.64  168.58
   6  -2   0 2008.80   49.80
  -6  -2   0 2051.69   48.10
  -6  -2   0 2057.49   49.50
   6  -2   0 2003.00   50.09
   6  -2   0 2045.20   48.50
  -6  -2   0 2041.30   48.20
  -6  -2   0 1986.80   49.50
  -6   2   0 1963.40   48.50
   6   2   0 2025.80   49.90
   6   2   0 2114.59   49.80
  -6   2   0 2077.39   50.19
  -6   2   0 1988.20   49.30
  -6   2   0 2015.10   49.60
   6   2   0 2008.30   48.20
   6   2   0 2013.60   47.90
   6   2   0 2159.48   49.90
   8  -2   0 2306.57   57.39
  -8  -2   0 2314.47   55.39
  -8  -2   0 2394.56   56.89
   8  -2   0 2374.06   57.99
   8  -2   0 2321.27   55.39
  -8  -2   0 2306.87   57.09
  -8   2   0 2407.76   57.59
  -8   2   0 2244.48   56.89
  -8   2   0 2308.67   57.09
   8   2   0 2384.76   55.49
   8   2   0 2277.57   56.79
   8   2   0 2371.36   57.19
  -8   2   0 2278.07   54.39
   8   2   0 2353.26   57.59
   8   2   0 2277.07   55.09
  -8   2   0 2249.27   54.59
  -8   2   0 2245.58   55.49
   8   2   0 2376.16   55.39
  10  -2   0  640.74   19.20
 -10  -2   0  632.74   19.20
  10  -2   0  648.64   16.90
 -10  -2   0  654.43   18.70
 -10  -2   0  650.93   17.40
  10  -2   0  647.34   19.80
 -10   2   0  626.94   16.40
  10   2   0  630.94   17.00
 -10   2   0  683.43   19.50
 -10   2   0  662.83   19.10
 -10   2   0  618.64   17.10
  10   2   0  650.93   19.20
 -10   2   0  622.24   18.90
  10   2   0  644.24   17.10
 -10   2   0  612.94   16.20
  10   2   0  648.54   18.50
  10   2   0  623.54   19.40
  12  -2   0  162.08    7.40
 -12  -2   0  170.68    7.60
 -12  -2   0  158.28    7.90
  12  -2   0  156.58    5.70
  12  -2   0  161.38    7.80
 -12  -2   0  162.28    6.60
  12  -2   0  170.28    8.50
  12   2   0  172.68    8.00
  12   2   0  168.28    8.30
 -12   2   0  173.68    8.10
 -12   2   0  156.68    7.60
  12   2   0  137.09    6.00
 -12   2   0  170.08    8.10
  12   2   0  155.28    7.10
  14  -2   0   21.60    3.50
 -14  -2   0   20.20    3.30
  14  -2   0   21.90    4.00
  14  -2   0   21.20    3.70
 -14  -2   0   30.20    4.20
 -14  -2   0   27.00    3.90
 -14  -2   0   27.70    3.50
 -14   2   0   24.30    4.10
  14   2   0   26.70    4.40
  14   2   0   26.20    3.40
 -14   2   0   23.90    4.20
  14   2   0   26.50    4.00
   1  -3   0  830.62   21.50
  -1  -3   0  857.21   21.20
   1  -3   0  804.52   20.10
  -1  -3   0  859.51   20.20
  -1  -3   0  836.12   21.30
  -1  -3   0  852.21   21.50
   1  -3   0  887.01   20.40
   1  -3   0  829.82   21.60
  -1  -3   0  823.72   21.70
   1  -3   0  861.61   20.80
   1  -3   0  848.02   20.50
  -1  -3   0  859.71   20.20
  -1  -3   0  822.32   21.00
   1  -3   0  832.42   21.50
  -1  -3   0  845.82   20.10
   1  -3   0  814.02   21.30
   1  -3   0  862.31   21.50
   1  -3   0  792.02   21.30
  -1  -3   0  858.31   22.00
   1   3   0  872.01   21.30
  -1   3   0  856.61   21.70
   1   3   0  854.51   20.20
   1   3   0  856.91   21.60
   1   3   0  876.41   21.00
   1   3   0  826.62   21.40
  -1   3   0  822.32   21.50
  -1   3   0  858.31   20.80
  -1   3   0  823.82   20.10
  -1   3   0  889.51   20.50
  -1   3   0  808.22   21.40
  -1   3   0  831.02   21.60
   3  -3   0   20.60    1.60
   3  -3   0   17.90    1.50
  -3  -3   0   17.90    1.40
  -3  -3   0   17.70    1.80
   3  -3   0   16.20    1.20
   3  -3   0   25.00    1.80
  -3  -3   0   17.80    1.60
  -3  -3   0   18.90    1.40
   3   3   0   20.40    1.70
   3   3   0   19.10    1.30
  -3   3   0   17.80    1.70
   3   3   0   18.60    1.60
   3   3   0   19.30    1.80
  -3   3   0   19.60    1.60
  -3   3   0   18.80    1.70
  -3   3   0   17.70    1.20
   3   3   0   18.60    1.40
  -3   3   0   19.20    1.60
  -5  -3   0   79.29    3.50
  -5  -3   0   75.39    3.80
  -5  -3   0   79.99    3.20
   5  -3   0   75.79    4.00
   5  -3   0   73.89    3.30
   5  -3   0   75.29    3.30
   5  -3   0   79.39    3.90
   5   3   0   84.29    3.90
  -5   3   0   80.49    3.90
  -5   3   0   78.59    3.40
  -5   3   0   76.29    4.10
  -5   3   0   79.49    3.50
   5   3   0   80.29    3.10
   5   3   0   82.89    4.20
   5   3   0   77.69    3.90
   7  -3   0  453.35   13.90
  -7  -3   0  429.66   11.80
   7  -3   0  442.86   12.20
  -7  -3   0  437.66   13.30
   7  -3   0  441.16   13.60
  -7  -3   0  435.56   13.10
   7   3   0  419.86   11.70
   7   3   0  435.06   11.10
   7   3   0  438.46   13.60
  -7   3   0  453.15   14.00
  -7   3   0  454.35   13.00
   7   3   0  444.36   13.40
   7   3   0  472.45   13.90
  -7   3   0  443.56   13.50
  -7   3   0  403.66   12.10
  -9  -3   0   71.79    4.40
   9  -3   0   73.59    4.80
  -9  -3   0   71.99    3.20
  -9  -3   0   75.59    3.50
   9  -3   0   73.29    4.60
   9  -3   0   73.79    3.40
  -9  -3   0   67.59    4.40
  -9   3   0   73.09    4.80
  -9   3   0   65.89    3.50
  -9   3   0   75.09    4.60
   9   3   0   72.49    4.70
   9   3   0   69.19    3.20
   9   3   0   79.59    4.50
   9   3   0   70.89    3.40
  -9   3   0   76.19    4.50
   9   3   0   74.79    4.60
   9   3   0   69.09    3.00
  11  -3   0  172.88    8.10
 -11  -3   0  167.28    7.70
  11  -3   0  175.08    6.00
  11  -3   0  174.08    8.60
 -11  -3   0  170.48    8.00
 -11  -3   0  165.88    6.10
  11   3   0  173.38    8.40
  11   3   0  179.38    8.10
 -11   3   0  175.68    7.90
  11   3   0  179.98    7.90
 -11   3   0  155.78    7.80
 -11   3   0  181.48    8.50
 -13  -3   0   25.70    3.70
 -13  -3   0   28.00    4.20
 -13  -3   0   29.70    3.10
  13  -3   0   25.30    3.90
  13  -3   0   24.10    4.20
 -13  -3   0   30.10    3.70
  13  -3   0   27.20    3.70
 -13   3   0   29.40    4.20
  13   3   0   25.60    4.20
  13   3   0   25.60    3.40
 -13   3   0   22.50    3.70
  13   3   0   24.90    3.90
 -13   3   0   21.80    3.90
 -15  -3   0    3.90    2.80
 -15  -3   0    0.80    2.80
 -15  -3   0   -1.10    2.30
  15  -3   0    7.10    2.80
  15  -3   0    0.80    2.70
 -15  -3   0    0.20    2.30
  15   3   0    0.80    2.30
  15   3   0   -0.30    2.30
  15   3   0   -0.60    2.90
 -15   3   0    9.90    3.60
 -15   3   0   -0.50    2.60
   0  -4   0 1141.59   27.80
   0  -4   0 1160.88   27.70
   0  -4   0 1089.29   26.80
   0  -4   0 1134.49   29.20
   0  -4   0 1129.89   26.80
   0  -4   0 1119.89   27.40
   0   4   0 1094.09   28.60
   0   4   0 1158.68   28.80
   0   4   0 1184.58   27.80
   0   4   0 1133.99   27.50
   0   4   0 1098.09   28.80
   2  -4   0 3082.89   76.29
   2  -4   0 3136.69   74.59
   2  -4   0 3366.86   77.09
   2  -4   0 3254.67   74.69
  -2  -4   0 3220.78   75.89
  -2  -4   0 3301.77   74.89
   2  -4   0 3103.59   76.49
  -2  -4   0 3177.68   75.99
   2  -4   0 3228.88   74.79
  -2  -4   0 3251.87   74.89
  -2  -4   0 3194.58   77.39
   2   4   0 3265.37   76.09
  -2   4   0 3070.29   76.69
   2   4   0 3170.68   76.39
   2   4   0 3291.67   74.99
  -2   4   0 3010.30   74.49
  -2   4   0 3209.88   76.89
   2   4   0 3210.38   76.69
  -2   4   0 3258.37   75.79
  -4  -4   0 1520.05   36.40
   4  -4   0 1459.35   35.80
   4  -4   0 1485.85   37.50
  -4  -4   0 1511.05   36.40
   4  -4   0 1487.25   37.90
  -4  -4   0 1476.95   37.30
   4  -4   0 1466.85   37.00
  -4  -4   0 1492.85   38.40
  -4   4   0 1498.25   38.20
   4   4   0 1521.55   37.60
   4   4   0 1531.85   36.50
  -4   4   0 1497.65   35.90
   4   4   0 1453.95   36.20
  -4   4   0 1440.66   37.10
   4   4   0 1478.85   37.30
  -4   4   0 1448.96   37.90
   4   4   0 1530.85   38.30
   6  -4   0  194.98    7.90
   6  -4   0  202.18    7.70
  -6  -4   0  187.38    7.50
  -6  -4   0  205.68    7.10
  -6  -4   0  198.88    6.50
   6  -4   0  202.08    6.90
  -6  -4   0  198.78    8.20
   6   4   0  201.38    7.70
  -6   4   0  193.18    8.10
   6   4   0  202.08    8.00
   6   4   0  201.48    6.40
  -6   4   0  195.38    6.80
   6   4   0  200.18    7.60
  -6   4   0  195.28    7.60
  -8  -4   0  352.36   12.60
  -8  -4   0  339.97    9.90
   8  -4   0  335.67   12.10
   8  -4   0  354.66   12.00
  -8  -4   0  341.37   11.40
   8  -4   0  355.36   10.60
  -8  -4   0  338.37   11.80
  -8   4   0  341.97   11.10
   8   4   0  355.36   11.80
  -8   4   0  324.57   12.30
   8   4   0  339.87    9.90
   8   4   0  347.37   12.00
  -8   4   0  339.97   11.90
   8   4   0  349.47   12.20
  10  -4   0 1040.00   29.90
 -10  -4   0 1064.59   29.00
  10  -4   0 1007.70   26.60
 -10  -4   0 1031.20   26.30
 -10  -4   0 1044.10   29.90
 -10  -4   0 1055.59   29.20
  10  -4   0 1053.39   29.40
  10   4   0 1079.19   29.40
  10   4   0  964.20   26.00
 -10   4   0 1008.30   29.20
  10   4   0 1084.99   29.50
 -10   4   0 1078.09   30.30
  10   4   0 1055.89   29.60
 -10   4   0 1073.79   28.70
  12  -4   0  397.76   15.20
 -12  -4   0  375.46   14.20
  12  -4   0  402.36   11.50
 -12  -4   0  401.56   14.40
 -12  -4   0  407.46   14.90
  12  -4   0  398.96   14.70
 -12   4   0  399.86   15.20
  12   4   0  398.96   14.40
 -12   4   0  408.56   14.30
  12   4   0  408.36   15.00
 -12   4   0  395.26   14.80
  12   4   0  383.66   14.50
 -14  -4   0  272.27   12.00
  14  -4   0  247.58   12.10
  14  -4   0  258.07   11.70
 -14  -4   0  248.08   11.40
 -14  -4   0  249.78   11.70
  14  -4   0  259.77   11.50
  14   4   0  259.87   11.80
 -14   4   0  268.67   12.40
  14   4   0  274.07   12.40
 -14   4   0  277.67   11.70
 -14   4   0  263.57   12.00
  14   4   0  253.87   11.10
  -1  -5   0  431.36   11.20
  -1  -5   0  442.86   12.60
  -1  -5   0  439.46   11.40
   1  -5   0  432.96   13.60
   1  -5   0  450.65   12.10
  -1  -5   0  422.96   13.80
  -1  -5   0  436.96   11.30
   1  -5   0  453.95   11.90
   1  -5   0  445.96   13.30
   1   5   0  423.26   13.20
  -1   5   0  440.16   13.60
  -1   5   0  433.86   13.30
  -1   5   0  454.35   12.30
  -1   5   0  435.46   13.60
   1   5   0  442.56   11.50
   1   5   0  444.16   13.20
   1   5   0  442.96   13.50
   3  -5   0  868.11   23.60
   3  -5   0  857.51   21.30
   3  -5   0  862.51   23.60
  -3  -5   0  880.31   21.80
   3  -5   0  899.41   21.20
  -3  -5   0  862.01   21.80
   3  -5   0  859.11   21.30
  -3  -5   0  857.91   24.50
  -3  -5   0  876.21   23.20
  -3   5   0  896.81   23.10
  -3   5   0  855.41   21.30
   3   5   0  897.51   23.00
  -3   5   0  872.61   24.20
  -3   5   0  847.62   23.90
   3   5   0  866.11   23.80
   3   5   0  865.11   21.80
   3   5   0  860.41   23.50
  -5  -5   0   39.10    3.60
   5  -5   0   40.50    3.40
  -5  -5   0   41.70    2.70
   5  -5   0   35.80    2.40
   5  -5   0   39.40    3.20
  -5  -5   0   39.60    3.20
   5  -5   0   40.60    2.90
  -5   5   0   35.80    3.50
  -5   5   0   42.30    3.50
   5   5   0   43.30    2.70
  -5   5   0   39.80    3.10
  -5   5   0   43.20    2.50
   5   5   0   41.70    3.20
   5   5   0   39.60    3.10
  -7  -5   0  160.08    6.40
   7  -5   0  160.48    7.20
   7  -5   0  158.58    7.50
  -7  -5   0  147.69    6.90
  -7  -5   0  157.98    7.80
   7  -5   0  148.59    6.20
  -7   5   0  149.88    7.00
  -7   5   0  157.18    6.10
   7   5   0  144.69    6.80
   7   5   0  154.58    7.00
   7   5   0  157.78    7.60
   7   5   0  148.59    5.60
  -7   5   0  152.38    7.70
   9  -5   0    1.50    1.60
   9  -5   0   -0.10    1.30
  -9  -5   0    4.50    1.80
  -9  -5   0    0.00    1.40
  -9  -5   0    1.10    1.70
   9  -5   0    3.90    1.70
   9   5   0    3.80    2.00
  -9   5   0    4.90    1.90
   9   5   0    4.00    1.80
   9   5   0    1.50    1.20
  -9   5   0    1.00    1.70
  -9   5   0    2.00    1.70
   9   5   0    3.10    1.70
 -11  -5   0  103.89    6.20
  11  -5   0   92.39    6.30
 -11  -5   0   99.29    6.80
  11  -5   0   95.99    4.60
  11  -5   0   99.59    6.70
 -11  -5   0   91.69    6.30
 -11   5   0   99.49    7.00
  11   5   0   97.09    6.40
  11   5   0   93.09    6.30
 -11   5   0   99.89    6.60
 -11   5   0  101.79    6.00
  11   5   0   96.59    6.40
 -13  -5   0   33.90    4.70
  13  -5   0   33.70    4.70
 -13  -5   0   30.70    4.60
 -13  -5   0   30.90    5.10
  13  -5   0   28.80    4.30
  13   5   0   31.90    4.60
 -13   5   0   37.90    5.00
  13   5   0   34.50    4.90
 -13   5   0   24.80    4.50
 -13   5   0   30.40    4.80
   0  -6   0  369.86   11.10
   0  -6   0  360.26   12.30
   0  -6   0  371.26   12.90
   0   6   0  362.46   12.30
   0   6   0  369.26   10.50
   0   6   0  360.96   12.20
   0   6   0  377.16   12.50
   2  -6   0  354.36   10.20
  -2  -6   0  353.66    9.80
  -2  -6   0  352.96    9.80
   2  -6   0  370.26   12.50
   2  -6   0  355.46   12.00
  -2  -6   0  348.37   12.80
  -2  -6   0  365.16   11.40
   2   6   0  356.56   11.70
  -2   6   0  347.77   12.30
  -2   6   0  354.96   12.50
  -2   6   0  372.56   11.10
   2   6   0  358.16   12.30
   2   6   0  367.96   12.10
   4  -6   0   99.89    5.40
  -4  -6   0  100.69    6.10
   4  -6   0   97.69    3.80
  -4  -6   0  105.69    4.20
   4  -6   0   99.79    5.30
  -4  -6   0  101.39    5.20
   4   6   0   97.89    5.30
  -4   6   0   95.39    5.80
   4   6   0   95.49    5.50
  -4   6   0   99.59    3.70
   4   6   0  101.09    4.90
  -4   6   0  100.19    5.80
  -4   6   0  103.79    5.20
  -6  -6   0 2591.94   65.99
   6  -6   0 2574.94   64.89
   6  -6   0 2604.54   63.29
  -6  -6   0 2577.34   62.29
  -6  -6   0 2577.14   64.09
   6  -6   0 2637.44   64.39
  -6   6   0 2577.34   61.49
   6   6   0 2612.24   64.29
  -6   6   0 2480.45   65.19
  -6   6   0 2501.45   65.49
  -6   6   0 2618.24   63.99
   6   6   0 2488.45   64.09
   6   6   0 2542.75   62.39
   8  -6   0  808.52   22.40
  -8  -6   0  809.42   22.60
   8  -6   0  798.22   23.90
   8  -6   0  827.92   24.60
  -8  -6   0  797.32   23.80
  -8  -6   0  825.92   25.50
  -8   6   0  811.92   23.90
  -8   6   0  765.22   24.90
   8   6   0  773.72   23.70
   8   6   0  788.82   23.90
  -8   6   0  810.32   21.80
   8   6   0  803.42   21.40
 -10  -6   0  327.07   12.80
 -10  -6   0  312.17   11.80
  10  -6   0  321.97   13.10
  10  -6   0  309.17   12.60
  10  -6   0  319.77   10.70
 -10  -6   0  324.77   13.80
 -10   6   0  323.87   13.80
 -10   6   0  318.77   12.80
  10   6   0  326.77   12.60
 -10   6   0  317.07   11.30
  10   6   0  309.27   12.80
  12  -6   0  208.58   10.80
  12  -6   0  204.78   10.20
 -12  -6   0  208.48   10.20
 -12  -6   0  209.38    9.80
 -12  -6   0  202.08   11.00
 -12   6   0  199.88   10.40
 -12   6   0  203.48   11.20
  12   6   0  204.98   10.20
  12   6   0  196.98   10.10
 -12   6   0  204.38    9.30
   1  -7   0   97.29    5.60
  -1  -7   0   90.59    4.70
  -1  -7   0   81.99    3.60
  -1  -7   0   92.29    6.00
   1  -7   0   89.19    5.60
  -1  -7   0   87.29    5.50
   1  -7   0   89.39    4.30
  -1   7   0   91.09    5.60
  -1   7   0   85.29    4.30
   1   7   0   95.39    5.70
  -1   7   0   85.89    5.50
   1   7   0   84.19    5.20
   1   7   0   92.09    5.40
   1   7   0   93.79    3.70
  -3  -7   0  158.78    7.00
  -3  -7   0  156.98    5.40
  -3  -7   0  147.79    8.10
   3  -7   0  160.78    5.50
   3  -7   0  158.18    7.60
   3  -7   0  159.28    7.50
  -3  -7   0  155.38    6.70
   3   7   0  162.08    7.80
  -3   7   0  148.99    7.70
   3   7   0  154.88    7.40
  -3   7   0  161.98    8.20
   3   7   0  164.88    7.20
  -3   7   0  167.08    6.80
  -5  -7   0    2.80    1.70
   5  -7   0    3.70    1.50
  -5  -7   0    7.90    2.40
   5  -7   0    7.30    2.20
  -5  -7   0    6.40    1.50
   5  -7   0    5.00    1.80
   5  -7   0    2.30    1.60
   5   7   0    4.70    1.80
   5   7   0    4.90    1.90
  -5   7   0    3.20    1.90
  -5   7   0    5.00    2.10
   5   7   0    4.50    1.70
  -5   7   0    6.30    2.20
  -7  -7   0   39.70    3.50
  -7  -7   0   40.60    4.70
   7  -7   0   44.70    3.90
   7  -7   0   43.50    4.30
   7  -7   0   44.30    4.60
  -7  -7   0   41.70    4.20
  -7   7   0   48.20    5.20
   7   7   0   46.90    4.40
   7   7   0   43.80    4.30
   7   7   0   41.60    3.60
  -7   7   0   43.20    4.20
  -9  -7   0    5.50    2.40
   9  -7   0    3.30    2.30
  -9  -7   0    8.10    2.40
   9  -7   0    7.90    2.50
   9  -7   0   10.10    2.60
  -9  -7   0    5.10    2.90
   9   7   0    2.20    2.00
  -9   7   0    7.20    2.70
  -9   7   0    5.90    2.50
   9   7   0    7.80    2.60
  11  -7   0   67.69    5.10
  11  -7   0   71.39    6.20
 -11  -7   0   69.09    6.00
 -11  -7   0   61.09    5.80
 -11  -7   0   71.69    6.90
  11  -7   0   65.39    6.00
 -11   7   0   63.69    6.10
 -11   7   0   75.39    7.00
  11   7   0   71.09    6.20
  11   7   0   67.99    6.30
   0  -8   0  293.57   11.70
   0  -8   0  288.67    9.90
   0  -8   0  299.97   12.30
   0   8   0  314.07   11.90
   0   8   0  253.37    8.90
   0   8   0  287.77   11.90
   0   8   0  286.47   11.80
   2  -8   0  784.62   21.20
  -2  -8   0  797.22   25.30
  -2  -8   0  814.12   24.50
   2  -8   0  812.52   24.60
   2  -8   0  782.62   24.00
  -2  -8   0  804.92   22.80
  -2   8   0  792.62   24.70
  -2   8   0  816.12   22.10
   2   8   0  798.42   24.10
   2   8   0  796.92   23.80
  -2   8   0  773.12   24.60
   2   8   0  776.62   24.30
   4  -8   0  321.77   12.60
  -4  -8   0  315.67    9.70
  -4  -8   0  313.17   13.70
  -4  -8   0  334.97   12.10
   4  -8   0  320.77   12.60
   4   8   0  332.57   13.00
  -4   8   0  315.77   13.50
  -4   8   0  321.07   11.60
   4   8   0  316.17   11.80
   4   8   0  322.77   12.70
  -4   8   0  329.27   13.40
  -6  -8   0  369.46   13.70
   6  -8   0  363.66   14.50
   6  -8   0  358.66   13.30
  -6  -8   0  351.06   11.50
   6  -8   0  376.46   14.10
  -6  -8   0  363.26   15.40
   6   8   0  361.66   12.60
   6   8   0  367.16   14.20
  -6   8   0  345.47   15.10
  -6   8   0  354.86   14.70
   6   8   0  370.86   14.00
  -6   8   0  368.26   13.40
  -8  -8   0  111.49    7.20
  -8  -8   0  104.59    8.10
   8  -8   0  114.09    7.80
   8  -8   0  110.99    6.60
  -8  -8   0  112.89    6.00
   8  -8   0  103.59    7.10
   8   8   0  109.09    7.20
  -8   8   0  111.59    7.20
   8   8   0  115.49    7.50
  -8   8   0  110.99    8.10
  -1  -9   0    5.50    2.60
   1  -9   0    6.00    2.00
   1  -9   0    1.40    2.30
   1  -9   0   -2.30    1.70
  -1  -9   0   -0.80    1.80
  -1  -9   0    1.80    2.00
   1   9   0    0.40    2.10
  -1   9   0   -3.00    1.90
   1   9   0    1.10    2.00
  -1   9   0    2.30    2.20
  -1   9   0    2.80    2.50
   1   9   0    4.80    2.50
  -3  -9   0   45.70    5.30
   3  -9   0   41.80    3.40
   3  -9   0   50.99    5.10
  -3  -9   0   45.60    5.00
   3  -9   0   49.70    4.90
  -3  -9   0   47.60    4.50
  -3   9   0   46.50    5.20
   3   9   0   53.69    5.20
   3   9   0   50.49    5.00
  -3   9   0   39.90    5.10
  -3   9   0   47.00    4.40
   3   9   0   54.19    5.10
  -5  -9   0   22.60    4.00
   5  -9   0   24.10    4.20
   5  -9   0   25.80    4.20
  -5  -9   0   20.90    4.40
   5  -9   0   20.00    4.00
   5   9   0   23.60    3.70
   5   9   0   22.50    4.20
  -5   9   0   24.80    4.60
  -5   9   0   25.80    4.10
  -5   9   0   19.30    4.10
   5   9   0   28.50    4.50
   7  -9   0   31.90    4.60
   7  -9   0   44.90    5.20
  -7  -9   0   36.60    5.40
   7  -9   0   24.80    4.40
  -7  -9   0   33.90    5.00
  -7   9   0   37.50    4.80
  -7   9   0   36.10    5.60
   7   9   0   30.50    4.80
   7   9   0   33.90    5.00
   0 -10   0  160.18    9.40
   0 -10   0  140.39    7.30
   0 -10   0  167.68   10.00
   0  10   0  165.48    9.70
   0  10   0  150.08    9.60
 -16   0   1   -2.10    2.60
 -16   0   1    8.80    2.90
 -16   0   1    4.70    3.40
  16   0  -1    1.20    2.50
  16   0  -1   -0.90    2.60
  16   0  -1    4.20    2.70
  16   0  -1   -2.60    3.10
  14   0  -1   -1.20    1.90
  14   0  -1    1.90    2.00
  14   0  -1    1.00    1.70
 -14   0   1   -0.60    1.90
  14   0  -1    0.30    1.60
 -14   0   1    5.20    2.00
 -14   0   1    1.20    2.20
 -12   0   1    2.20    1.60
 -12   0   1   -1.10    1.20
 -12   0   1    3.60    1.90
  12   0  -1   -0.30    1.50
  12   0  -1    2.90    1.40
  12   0  -1    2.70    1.60
  12   0  -1    2.70    1.50
 -10   0   1   -1.00    0.90
 -10   0   1    1.70    1.10
  10   0  -1    2.30    1.00
  10   0  -1    0.60    1.20
  10   0  -1   -1.10    1.10
 -10   0   1    3.20    1.40
  10   0  -1    2.70    1.10
   8   0  -1    0.40    0.80
   8   0  -1    2.40    1.00
   8   0  -1   -0.10    0.90
   8   0  -1    2.50    0.80
  -8   0   1    3.60    0.90
  -8   0   1    1.60    0.80
   8   0  -1    2.70    1.00
  -6   0   1    1.40    0.60
  -6   0   1   -0.20    0.80
   6   0  -1    1.20    0.60
   6   0  -1    2.10    0.70
   6   0  -1    1.00    0.80
  -6   0   1    0.80    0.60
   6   0  -1    2.80    1.00
  -6   0   1    1.00    0.60
  -6   0   1    1.60    0.70
  -6   0   1    3.00    0.80
  -6   0   1    0.70    0.80
   6   0  -1    0.10    0.90
  -4   0   1    3.20    0.70
   4   0  -1    4.20    0.80
  -4   0   1    3.20    0.70
   4   0  -1    3.90    0.80
   4   0  -1    3.80    0.70
  -4   0   1    3.50    0.70
  -4   0   1    3.30    0.80
  -4   0   1    2.50    0.50
  -4   0   1    5.20    0.60
  -4   0   1    4.90    0.90
  -4   0   1    4.50    0.60
   4   0  -1    3.50    0.80
   4   0  -1    2.60    0.60
  -2   0   1    0.60    0.20
   2   0  -1    0.60    0.30
   2   0  -1    0.80    0.30
  -2   0   1    1.30    0.30
  -2   0   1    0.10    0.30
  -2   0   1    1.10    0.40
   2   0  -1    0.50    0.30
   2   0  -1    0.30    0.20
  -2   0   1    0.50    0.30
  -2   0   1    0.90    0.20
   2   0  -1    0.70    0.30
  -2   0  -1    1.70    0.30
   2   0   1    2.70    0.40
   2   0   1    2.30    0.30
  -2   0  -1    3.50    0.50
  -2   0  -1    2.40    0.40
  -2   0  -1    1.30    0.40
   2   0   1    2.30    0.40
  -2   0  -1    2.00    0.50
  -2   0  -1    2.00    0.40
   2   0   1    1.80    0.40
   2   0   1    1.20    0.40
  -4   0  -1    2.40    0.40
   4   0   1    2.50    0.40
  -4   0  -1    1.60    0.50
  -4   0  -1    1.60    0.60
   4   0   1    2.10    0.60
  -4   0  -1    3.30    0.70
   4   0   1    2.00    0.50
   4   0   1    2.30    0.60
   4   0   1    3.10    0.70
   4   0   1    3.20    0.70
   6   0   1    3.10    0.90
  -6   0  -1    1.90    0.90
  -6   0  -1    3.00    1.00
  -6   0  -1    3.80    0.90
   6   0   1    1.70    0.80
   6   0   1    2.40    0.60
   6   0   1    1.30    0.70
   6   0   1    0.70    0.70
  -6   0  -1    2.00    0.60
   6   0   1    1.50    0.70
   6   0   1    2.40    0.90
   8   0   1   -0.90    0.70
  -8   0  -1    1.90    1.10
   8   0   1    0.40    0.60
  -8   0  -1    2.80    1.00
  -8   0  -1    0.20    0.70
  -8   0  -1    0.80    0.80
   8   0   1    1.40    0.80
 -10   0  -1    0.50    1.10
 -10   0  -1    0.00    1.20
  10   0   1    2.40    1.20
  10   0   1    1.00    0.90
 -10   0  -1    6.00    1.50
 -10   0  -1    5.50    1.60
  10   0   1   -0.60    1.10
  10   0   1    0.10    1.20
  12   0   1    2.50    1.70
  12   0   1    0.60    1.10
 -12   0  -1    2.80    1.80
 -12   0  -1    2.40    1.50
  12   0   1    4.10    1.70
 -12   0  -1    3.50    2.00
  12   0   1    0.90    1.40
 -14   0  -1    3.90    2.30
  14   0   1    0.30    2.00
 -14   0  -1    0.80    1.50
 -14   0  -1   -0.60    1.90
  14   0   1   -1.60    1.80
 -14   0  -1   -0.20    1.70
  14   0   1    1.10    1.90
 -16   0  -1   -1.30    2.50
  16   0   1   -0.40    2.60
  16   0   1    2.00    2.60
 -16   0  -1    3.40    3.20
 -16   0  -1    0.00    2.60
  15  -1  -1  124.59    6.20
  15  -1  -1  142.99    8.50
 -15  -1   1  140.89    7.30
 -15  -1   1  130.99    7.20
  15  -1  -1  132.09    8.10
 -15  -1   1  138.29    8.70
 -15   1   1  147.39    7.90
  15   1  -1  130.99    6.90
 -15   1   1  154.68    8.80
  15   1  -1  137.19    8.20
  15   1  -1  141.59    8.40
 -13  -1   1  321.47   11.40
  13  -1  -1  326.77   11.20
 -13  -1   1  319.07   11.40
 -13  -1   1  327.17   12.90
  13  -1  -1  322.07   12.70
  13  -1  -1  332.17   13.00
  13  -1  -1  319.37   10.70
  13   1  -1  318.57   12.70
 -13   1   1  327.97   12.20
  13   1  -1  328.87   12.90
 -13   1   1  328.97   10.40
  13   1  -1  342.77   11.60
 -13   1   1  323.57   12.60
 -11  -1   1  455.45   14.00
 -11  -1   1  441.66   13.70
  11  -1  -1  462.25   15.30
  11  -1  -1  447.76   13.80
  11  -1  -1  471.85   13.60
 -11  -1   1  445.66   15.10
  11  -1  -1  438.76   15.00
 -11   1   1  459.85   14.20
  11   1  -1  451.05   15.10
  11   1  -1  443.76   12.50
 -11   1   1  460.75   15.00
  11   1  -1  453.95   12.80
  11   1  -1  452.25   15.10
 -11   1   1  464.45   13.00
 -11   1   1  440.36   14.40
  11   1  -1  470.55   14.20
   9  -1  -1 1065.69   29.10
   9  -1  -1 1119.89   27.80
   9  -1  -1 1053.09   29.00
  -9  -1   1 1113.59   29.10
  -9  -1   1 1075.69   28.00
  -9  -1   1 1076.69   27.70
  -9   1   1 1079.89   28.80
   9   1  -1 1092.99   28.40
  -9   1   1 1019.00   26.70
   9   1  -1 1051.69   28.80
  -9   1   1 1092.29   26.90
  -9   1   1 1089.89   28.50
  -9   1   1 1141.09   28.40
   9   1  -1 1076.29   29.10
   9   1  -1 1084.39   26.80
   9   1  -1 1063.29   26.60
   7  -1  -1 2347.77   55.09
  -7  -1   1 2411.46   55.19
   7  -1  -1 2351.86   54.89
   7  -1  -1 2250.27   55.99
  -7  -1   1 2209.38   54.59
  -7  -1   1 2322.67   55.69
   7  -1  -1 2242.78   55.99
  -7   1   1 2323.97   55.59
   7   1  -1 2223.78   55.79
   7   1  -1 2253.77   53.79
  -7   1   1 2387.06   54.09
   7   1  -1 2359.66   53.79
  -7   1   1 2334.67   55.29
   7   1  -1 2296.17   55.59
  -7   1   1 2283.47   55.39
   7   1  -1 2162.98   55.49
  -7   1   1 2214.48   53.89
  -7   1   1 2154.88   55.19
  -5  -1   1 3638.34   90.19
   5  -1  -1 3567.34   90.69
  -5  -1   1 3830.92   90.19
   5  -1  -1 3900.21   89.99
   5  -1  -1 3721.33   90.59
  -5  -1   1 3731.63   90.59
   5  -1  -1 3745.13   90.29
  -5  -1   1 3909.41   90.49
   5  -1  -1 3996.10   90.79
  -5  -1   1 4026.50   89.79
  -5  -1   1 3775.12   89.99
   5  -1  -1 3981.40   90.19
  -5   1   1 3949.60   89.19
  -5   1   1 3494.15   90.39
   5   1  -1 3978.60   89.69
  -5   1   1 3660.13   90.39
   5   1  -1 4061.89   90.19
  -5   1   1 4002.80   89.29
  -5   1   1 3933.91   90.29
  -5   1   1 3909.31   90.49
   5   1  -1 3753.42   90.39
   5   1  -1 3732.93   90.59
   5   1  -1 3850.91   90.59
  -5   1   1 3987.70   90.39
  -3  -1   1 4232.28  103.09
  -3  -1   1 4488.65  103.19
   3  -1  -1 4795.02  103.29
  -3  -1   1 4462.25  102.79
   3  -1  -1 4310.07  103.59
  -3  -1   1 4600.84  103.29
   3  -1  -1 4355.46  103.29
   3  -1  -1 4690.43  102.99
   3  -1  -1 4134.69  103.39
   3  -1  -1 4630.84  103.29
   3  -1  -1 4355.66  103.29
   3  -1  -1 4631.24  102.39
  -3  -1   1 4692.73  103.29
  -3  -1   1 4256.37  103.39
  -3   1   1 4291.87  103.59
  -3   1   1 4651.23  103.29
  -3   1   1 4643.84  103.09
   3   1  -1 4354.36  103.59
   3   1  -1 4203.08  102.99
   3   1  -1 4583.94  103.09
  -3   1   1 4133.09  102.39
   3   1  -1 4506.45  103.19
   3   1  -1 4322.07  102.69
  -3   1   1 4565.84  103.29
  -3   1   1 4135.49  103.29
  -3   1   1 4348.27  103.49
   3   1  -1 4284.77  103.39
  -1  -1   1 5920.41  133.99
   1  -1  -1 5620.54  133.89
  -1  -1   1 5759.62  133.59
   1  -1  -1 5887.51  133.49
  -1  -1   1 5669.73  133.59
  -1  -1   1 5972.20  133.59
  -1  -1   1 5615.84  133.39
  -1   1   1 5927.01  133.99
  -1   1   1 5895.41  133.29
   1   1  -1 5877.51  133.99
   1   1  -1 5850.71  133.59
  -1   1   1 5492.15  133.69
   1   1  -1 5746.72  133.29
   1   1  -1 5624.64  133.59
  -1  -1  -1 4141.39   90.59
  -1  -1  -1 3952.50   89.89
   1  -1   1 3709.53   90.29
   1  -1   1 3761.12   90.09
  -1  -1  -1 3888.81   90.19
   1  -1   1 3861.31   90.19
   1  -1   1 3859.51   90.39
   1  -1   1 3734.43   90.49
  -1  -1  -1 3919.61   90.09
  -1  -1  -1 3921.21   90.59
   1  -1   1 3796.02   90.09
   1  -1   1 3864.51   90.09
   1  -1   1 3847.52   90.49
   1  -1   1 3976.90   90.69
   1   1   1 3969.90   89.89
  -1   1  -1 3849.61   90.09
   1   1   1 4157.18   90.59
   1   1   1 3816.12   90.09
  -1   1  -1 3774.82   90.49
   1   1   1 4038.60   90.59
   1   1   1 4048.80   90.59
   1   1   1 3923.41   90.19
  -1   1  -1 3808.72   90.09
  -1   1  -1 3978.70   90.69
  -1   1  -1 3765.42   90.19
  -1   1  -1 3805.22   90.29
  -1   1  -1 3960.30   90.39
  -3  -1  -1 1547.25   38.00
   3  -1   1 1652.73   38.20
   3  -1   1 1683.23   37.70
  -3  -1  -1 1550.44   37.70
   3  -1   1 1538.75   37.70
   3  -1   1 1681.43   38.30
  -3  -1  -1 1530.35   37.70
  -3  -1  -1 1515.55   37.60
  -3  -1  -1 1589.14   37.70
   3  -1   1 1509.55   37.70
  -3  -1  -1 1531.65   37.00
  -3  -1  -1 1583.84   37.60
   3  -1   1 1581.54   37.10
  -3  -1  -1 1596.64   37.50
   3   1   1 1555.94   37.60
  -3   1  -1 1529.15   37.80
  -3   1  -1 1572.94   37.60
   3   1   1 1627.44   37.70
   3   1   1 1599.94   37.00
   3   1   1 1585.54   37.70
   3   1   1 1623.74   38.10
  -3   1  -1 1556.14   37.10
   3   1   1 1658.63   37.50
  -3   1  -1 1569.34   38.30
  -3   1  -1 1515.95   37.80
   5  -1   1  889.51   22.30
  -5  -1  -1  823.62   21.20
  -5  -1  -1  814.22   22.00
   5  -1   1  928.11   22.50
   5  -1   1  983.00   23.00
   5  -1   1  828.22   21.80
   5  -1   1  817.82   20.90
  -5  -1  -1  824.82   21.60
  -5  -1  -1  836.12   21.50
  -5  -1  -1  874.01   21.60
   5  -1   1  804.22   21.90
  -5  -1  -1  848.22   21.70
  -5  -1  -1  845.62   21.80
  -5   1  -1  830.02   22.40
   5   1   1  864.21   21.50
  -5   1  -1  827.62   22.10
   5   1   1  975.90   21.90
   5   1   1  992.10   22.00
  -5   1  -1  825.92   21.00
   5   1   1  847.02   21.70
  -5   1  -1  820.02   22.00
  -5   1  -1  883.21   22.00
   5   1   1  962.70   22.70
   5   1   1  828.52   21.10
   5   1   1  825.32   21.90
  -7  -1  -1  799.92   22.00
   7  -1   1  848.32   22.10
   7  -1   1  888.41   22.90
   7  -1   1  798.32   20.50
  -7  -1  -1  802.12   21.00
   7  -1   1  894.71   22.10
  -7  -1  -1  769.92   20.90
  -7  -1  -1  805.42   21.50
  -7  -1  -1  821.12   21.40
   7   1   1  859.61   21.40
  -7   1  -1  791.52   20.60
  -7   1  -1  812.22   22.20
   7   1   1  871.01   21.50
   7   1   1  824.62   21.10
   7   1   1  855.01   22.70
   7   1   1  802.62   20.80
  -7   1  -1  785.12   21.70
  -7   1  -1  763.72   21.90
   7   1   1  882.41   21.80
  -9  -1  -1  607.64   16.60
  -9  -1  -1  601.64   17.70
   9  -1   1  620.34   17.50
   9  -1   1  635.04   18.60
   9  -1   1  590.34   15.10
   9  -1   1  633.44   17.60
  -9  -1  -1  543.55   17.20
  -9  -1  -1  600.04   17.00
   9   1   1  622.94   16.90
   9   1   1  594.24   16.30
  -9   1  -1  571.04   17.20
   9   1   1  597.14   18.20
  -9   1  -1  595.14   16.10
  -9   1  -1  584.24   17.70
   9   1   1  620.14   17.40
  11  -1   1  551.74   16.70
 -11  -1  -1  552.74   16.30
 -11  -1  -1  524.65   17.20
 -11  -1  -1  541.05   15.90
 -11  -1  -1  539.65   15.70
  11  -1   1  559.04   18.00
  11  -1   1  546.25   16.90
  11   1   1  552.34   15.40
 -11   1  -1  552.54   15.30
 -11   1  -1  527.05   16.60
  11   1   1  540.05   16.00
  11   1   1  554.44   17.00
 -11   1  -1  541.65   17.40
  11   1   1  533.15   17.70
 -13  -1  -1  495.45   15.40
 -13  -1  -1  462.75   16.60
  13  -1   1  465.15   15.90
  13  -1   1  477.55   15.60
  13  -1   1  469.15   17.10
 -13  -1  -1  456.45   14.90
  13   1   1  471.65   15.00
 -13   1  -1  488.35   16.80
 -13   1  -1  485.05   15.90
  13   1   1  468.85   15.90
 -13   1  -1  477.65   14.20
  13   1   1  479.45   14.00
  13   1   1  471.95   17.10
  15  -1   1  244.38   10.30
 -15  -1  -1  253.37   11.80
  15  -1   1  249.18   11.00
  15  -1   1  231.38   11.70
 -15  -1  -1  242.58   10.10
 -15  -1  -1  257.97   10.30
 -15   1  -1  263.97   12.00
  15   1   1  241.78   10.90
  15   1   1  229.68   11.70
 -15   1  -1  251.97   10.80
 -14  -2   1    3.70    2.40
  14  -2  -1    5.60    1.90
 -14  -2   1    7.80    2.30
 -14  -2   1    1.40    2.10
  14  -2  -1    3.20    1.90
  14  -2  -1    1.20    2.00
  14  -2  -1   -2.30    2.10
  14   2  -1    6.50    2.50
 -14   2   1    1.10    2.40
  14   2  -1    4.00    2.00
 -14   2   1    1.50    1.70
 -14   2   1    4.30    2.60
  14   2  -1    2.50    2.30
  12  -2  -1   27.80    3.50
 -12  -2   1   33.70    3.20
  12  -2  -1   31.80    3.30
 -12  -2   1   34.60    3.50
 -12  -2   1   36.20    3.90
  12  -2  -1   30.80    3.70
  12  -2  -1   31.50    2.80
  12   2  -1   32.80    3.70
 -12   2   1   33.70    3.80
 -12   2   1   42.30    3.90
 -12   2   1   36.90    3.90
  12   2  -1   37.40    3.50
  12   2  -1   32.00    3.80
  10  -2  -1   11.40    2.30
 -10  -2   1   11.70    1.90
  10  -2  -1   13.80    2.60
 -10  -2   1    8.90    2.10
  10  -2  -1   10.80    1.90
 -10  -2   1    6.80    1.80
 -10   2   1    9.80    2.20
 -10   2   1    7.20    1.40
  10   2  -1   13.30    2.40
  10   2  -1    7.70    1.90
 -10   2   1    9.50    2.10
 -10   2   1    9.70    2.00
  10   2  -1   11.00    2.30
  -8  -2   1    3.20    1.20
  -8  -2   1    3.80    1.20
   8  -2  -1    9.10    1.90
  -8   2   1    6.60    1.40
  -8   2   1    2.30    1.20
   8   2  -1    6.00    1.50
   8   2  -1    7.80    1.60
  -8   2   1    4.70    0.80
  -8   2   1    3.60    1.20
  -6  -2   1   34.40    1.80
   6  -2  -1   34.60    2.60
  -6  -2   1   35.50    2.50
   6  -2  -1   36.50    2.30
   6  -2  -1   36.50    2.60
  -6  -2   1   35.80    2.40
   6   2  -1   37.00    2.50
  -6   2   1   34.50    2.30
  -6   2   1   34.50    2.40
  -6   2   1   31.40    2.40
  -6   2   1   35.40    2.50
   6   2  -1   35.60    2.60
   6   2  -1   33.70    1.80
   6   2  -1   36.40    2.50
   4  -2  -1   41.40    2.00
  -4  -2   1   41.00    2.90
   4  -2  -1   43.20    2.40
  -4   2   1   41.30    2.10
  -4   2   1   49.50    3.30
   4   2  -1   39.00    2.40
   4   2  -1   44.10    2.20
   2  -2  -1  227.08    6.80
   2  -2  -1  227.18    5.70
  -2  -2   1  224.28    5.90
  -2  -2   1  229.58    5.90
   2  -2  -1  226.58    5.80
  -2  -2   1  210.48    6.40
  -2  -2   1  214.98    6.90
  -2  -2   1  217.98    6.60
   2  -2  -1  219.58    6.40
  -2  -2   1  228.88    6.60
   2  -2  -1  233.78    6.70
  -2  -2   1  227.08    6.00
  -2  -2   1  220.08    6.50
   2  -2  -1  227.48    6.90
   2  -2  -1  238.38    6.80
  -2  -2   1  224.48    6.40
   2   2  -1  231.88    6.70
   2   2  -1  233.78    7.10
  -2   2   1  219.38    5.70
   2   2  -1  226.68    6.40
  -2   2   1  223.88    6.90
   2   2  -1  233.18    6.00
  -2   2   1  233.58    6.80
  -2   2   1  236.78    6.90
  -2   2   1  213.38    5.80
  -2   2   1  228.88    6.60
  -2   2   1  227.38    6.80
   2   2  -1  232.38    6.60
   0  -2  -1  441.36   11.40
   0  -2  -1  435.46   11.80
   0  -2  -1  427.96   11.30
   0  -2  -1  435.26   11.00
   0  -2   1  430.96   11.30
   0  -2  -1  440.96   11.40
   0  -2   1  407.96   11.20
   0  -2   1  415.06   10.90
   0  -2   1  448.66   11.30
   0  -2  -1  441.36   10.70
   0  -2   1  419.66   10.90
   0  -2  -1  416.76   11.20
   0  -2   1  425.76   10.90
   0  -2   1  434.46   11.50
   0   2   1  453.85   11.50
   0   2   1  458.35   11.60
   0   2  -1  424.56   10.90
   0   2  -1  446.46   11.00
   0   2   1  431.36   10.80
   0   2  -1  420.36   11.40
   0   2   1  435.46   11.30
   0   2   1  438.36   11.00
   0   2  -1  436.36   11.30
   0   2  -1  418.36   11.20
   0   2   1  432.76   11.70
   0   2  -1  457.95   11.40
   0   2  -1  441.56   11.00
   2  -2   1  667.33   17.30
  -2  -2  -1  693.83   17.80
   2  -2   1  682.23   16.70
   2  -2   1  689.03   17.40
  -2  -2  -1  713.33   17.80
   2  -2   1  703.73   17.20
  -2  -2  -1  708.83   17.50
   2  -2   1  673.23   17.10
   2  -2   1  690.83   17.90
  -2  -2  -1  703.93   16.90
   2  -2   1  679.63   17.80
  -2  -2  -1  709.33   17.40
   2  -2   1  663.03   17.30
  -2  -2  -1  721.73   17.50
   2  -2   1  701.93   17.80
  -2  -2  -1  703.43   17.90
   2  -2   1  671.83   17.10
  -2   2  -1  688.13   17.40
   2   2   1  685.43   17.70
  -2   2  -1  707.23   17.90
  -2   2  -1  683.73   17.20
  -2   2  -1  696.93   18.00
  -2   2  -1  680.63   16.70
   2   2   1  699.33   17.50
   2   2   1  717.13   17.50
   2   2   1  703.73   17.90
  -2   2  -1  687.03   17.50
   2   2   1  708.83   17.50
   2   2   1  696.73   16.90
   4  -2   1  667.13   16.40
  -4  -2  -1  724.03   19.40
   4  -2   1  647.94   16.40
   4  -2   1  643.84   17.40
   4  -2   1  694.43   18.70
   4  -2   1  663.83   18.00
  -4  -2  -1  681.33   17.70
  -4  -2  -1  679.23   17.60
  -4  -2  -1  689.73   17.90
   4  -2   1  660.13   19.20
   4  -2   1  656.93   17.30
   4  -2   1  645.84   18.00
  -4  -2  -1  687.13   17.30
  -4  -2  -1  677.83   17.40
   4  -2   1  671.93   16.20
  -4  -2  -1  691.93   17.30
  -4   2  -1  668.33   19.50
  -4   2  -1  676.53   17.70
   4   2   1  684.73   17.40
   4   2   1  679.03   17.30
   4   2   1  668.43   17.90
  -4   2  -1  679.33   18.30
   4   2   1  738.13   18.80
  -4   2  -1  673.33   16.30
   4   2   1  676.93   17.20
  -4   2  -1  678.63   17.40
  -4   2  -1  648.54   16.40
  -4   2  -1  647.54   17.40
  -6  -2  -1   52.99    3.00
  -6  -2  -1   48.20    2.10
  -6  -2  -1   49.80    3.00
  -6  -2  -1   51.39    3.00
  -6  -2  -1   52.99    3.00
   6  -2   1   46.80    2.00
   6  -2   1   53.89    3.30
  -6  -2  -1   49.70    2.60
   6  -2   1   53.49    3.00
  -6   2  -1   54.29    3.40
  -6   2  -1   50.59    3.10
   6   2   1   49.80    2.90
   6   2   1   51.19    2.10
  -6   2  -1   51.49    2.10
  -6   2  -1   51.29    3.00
   6   2   1   53.19    2.90
   6   2   1   53.49    3.20
   6   2   1   53.49    2.70
  -8  -2  -1  113.39    4.30
   8  -2   1  112.09    3.80
  -8  -2  -1  112.49    5.10
   8  -2   1  110.79    5.20
  -8  -2  -1  115.89    5.40
   8  -2   1  103.79    5.60
  -8  -2  -1  113.99    5.10
   8  -2   1  112.39    5.50
  -8   2  -1  109.19    3.90
   8   2   1  109.79    5.10
  -8   2  -1  115.09    5.40
  -8   2  -1  116.29    5.40
   8   2   1  117.69    5.00
   8   2   1  111.79    4.60
  -8   2  -1  106.09    5.50
   8   2   1  107.79    4.10
   8   2   1  119.79    5.70
  10  -2   1   83.99    5.00
 -10  -2  -1   86.59    5.10
  10  -2   1   84.79    5.40
 -10  -2  -1   85.79    4.60
 -10  -2  -1   89.39    4.10
  10  -2   1   83.29    4.90
  10  -2   1   86.29    3.50
 -10  -2  -1   90.59    4.90
  10   2   1   89.69    4.50
 -10   2  -1   87.79    3.60
 -10   2  -1   89.79    5.40
  10   2   1   87.09    4.90
  10   2   1   83.29    4.30
  10   2   1   82.59    5.30
 -10   2  -1   79.99    5.00
 -10   2  -1   85.29    5.00
  12  -2   1   12.60    2.60
 -12  -2  -1   11.70    2.60
  12  -2   1   10.70    2.40
 -12  -2  -1   10.60    2.30
 -12  -2  -1   10.80    2.10
 -12  -2  -1   12.40    2.70
  12  -2   1    8.40    2.60
  12   2   1   14.40    2.50
 -12   2  -1   13.30    2.80
  12   2   1   12.50    2.20
  12   2   1    8.20    2.20
  12   2   1    9.90    2.50
 -12   2  -1   11.10    2.50
 -12   2  -1    6.70    1.60
  14  -2   1    1.70    2.00
 -14  -2  -1   -1.20    1.90
  14  -2   1    5.00    2.20
 -14  -2  -1    2.90    2.10
  14  -2   1    2.00    2.20
 -14  -2  -1    1.00    2.00
 -14  -2  -1    3.20    2.60
 -14   2  -1    2.70    2.70
  14   2   1    1.00    2.40
 -14   2  -1   -3.10    1.50
  14   2   1   -1.50    2.00
 -14   2  -1    3.90    2.30
 -15  -3   1  152.18    9.20
 -15  -3   1  150.68    7.10
  15  -3  -1  147.19    9.00
  15  -3  -1  152.78    8.90
  15  -3  -1  138.19    7.90
 -15  -3   1  153.98    8.50
  15   3  -1  159.28    9.20
 -15   3   1  151.18    8.90
 -15   3   1  147.39    8.80
 -15   3   1  154.48    9.00
  15   3  -1  142.49    8.10
  15   3  -1  148.59    9.00
 -13  -3   1  222.28    8.20
  13  -3  -1  211.28    7.90
  13  -3  -1  217.88    9.60
  13  -3  -1  217.68   10.40
 -13  -3   1  223.78   10.20
  13  -3  -1  210.78   10.00
 -13  -3   1  224.98    9.70
  13   3  -1  208.48   10.10
  13   3  -1  206.28   10.00
 -13   3   1  229.38   10.20
 -13   3   1  237.08   10.20
 -13   3   1  224.88   10.20
  13   3  -1  224.18    9.70
  11  -3  -1  408.16   12.50
 -11  -3   1  410.06   12.00
  11  -3  -1  406.46   14.60
 -11  -3   1  403.96   14.20
 -11  -3   1  399.46   13.70
  11  -3  -1  399.36   14.40
 -11   3   1  399.26   13.70
  11   3  -1  407.06   14.20
  11   3  -1  421.36   14.20
  11   3  -1  402.66   14.30
 -11   3   1  410.46   14.30
 -11   3   1  423.86   14.50
  -9  -3   1  663.13   19.40
  -9  -3   1  677.03   17.40
   9  -3  -1  693.23   18.50
   9  -3  -1  684.53   20.10
  -9  -3   1  644.84   19.40
   9  -3  -1  670.93   20.00
  -9   3   1  658.83   19.00
   9   3  -1  649.64   17.40
   9   3  -1  692.23   19.90
  -9   3   1  647.94   19.80
  -9   3   1  633.44   19.40
   9   3  -1  673.53   19.90
   9   3  -1  704.73   19.90
  -7  -3   1 1086.49   28.70
  -7  -3   1 1093.59   26.60
   7  -3  -1 1124.09   29.20
   7  -3  -1 1119.69   28.20
   7  -3  -1 1100.79   29.10
  -7  -3   1 1105.49   28.50
   7   3  -1 1091.79   26.50
   7   3  -1 1105.19   29.30
  -7   3   1 1049.40   28.70
   7   3  -1 1125.69   28.90
   7   3  -1 1087.69   28.70
  -7   3   1 1061.69   28.00
  -7   3   1 1102.79   29.20
   5  -3  -1 2258.57   54.39
   5  -3  -1 2154.28   53.29
   5  -3  -1 2309.17   54.99
  -5  -3   1 2295.47   52.49
  -5  -3   1 2237.08   54.09
   5  -3  -1 2263.57   54.89
  -5  -3   1 2225.88   52.69
  -5  -3   1 2263.27   54.49
   5   3  -1 2314.47   54.79
   5   3  -1 2287.27   55.29
  -5   3   1 2229.08   54.59
   5   3  -1 2247.68   54.39
  -5   3   1 2201.78   53.59
  -5   3   1 2245.08   54.99
  -5   3   1 2211.58   54.39
   5   3  -1 2181.58   52.49
   3  -3  -1 2781.62   66.29
   3  -3  -1 2826.92   66.69
  -3  -3   1 2711.23   64.49
  -3  -3   1 2822.62   64.49
  -3  -3   1 2776.32   64.99
  -3  -3   1 2740.93   65.99
  -3  -3   1 2819.22   65.49
   3  -3  -1 2749.12   66.29
  -3  -3   1 2744.03   65.99
   3  -3  -1 2705.73   64.59
  -3   3   1 2773.22   64.79
   3   3  -1 2784.62   65.49
  -3   3   1 2826.02   66.59
   3   3  -1 2774.02   65.99
   3   3  -1 2851.81   65.09
  -3   3   1 2776.72   65.89
   3   3  -1 2669.83   66.09
  -3   3   1 2745.03   66.49
  -3   3   1 2692.33   66.29
   3   3  -1 2862.61   66.89
  -1  -3   1 1679.53   39.70
  -1  -3   1 1631.04   40.90
  -1  -3   1 1713.13   39.70
   1  -3  -1 1658.33   40.50
  -1  -3   1 1657.63   40.40
   1  -3  -1 1723.73   39.80
   1  -3  -1 1631.44   40.90
   1  -3  -1 1706.83   40.70
   1  -3  -1 1681.53   39.60
  -1  -3   1 1691.43   40.00
   1  -3  -1 1639.04   40.50
   1  -3  -1 1630.84   40.40
  -1  -3   1 1615.94   39.40
  -1  -3   1 1642.14   40.40
  -1  -3   1 1688.33   40.10
  -1  -3   1 1696.93   40.10
   1   3  -1 1601.74   40.30
   1   3  -1 1667.63   40.50
  -1   3   1 1626.24   40.90
  -1   3   1 1695.73   40.90
   1   3  -1 1660.53   39.40
  -1   3   1 1729.33   39.90
  -1   3   1 1668.03   40.70
   1   3  -1 1722.43   40.20
   1   3  -1 1676.23   41.00
  -1   3   1 1684.63   39.50
   1  -3   1 1352.56   31.90
   1  -3   1 1401.56   32.10
   1  -3   1 1282.97   31.90
  -1  -3  -1 1313.27   33.30
  -1  -3  -1 1367.06   31.50
   1  -3   1 1309.87   32.30
   1  -3   1 1328.97   32.80
  -1  -3  -1 1346.37   32.80
   1  -3   1 1311.97   32.80
   1  -3   1 1283.47   32.60
  -1  -3  -1 1352.26   33.00
   1  -3   1 1263.27   32.90
  -1  -3  -1 1370.96   32.60
   1  -3   1 1344.67   33.00
  -1  -3  -1 1396.26   32.90
   1  -3   1 1365.96   33.00
   1   3   1 1314.07   33.40
   1   3   1 1349.96   33.10
  -1   3  -1 1339.47   32.00
   1   3   1 1345.57   32.50
  -1   3  -1 1307.27   33.00
  -1   3  -1 1322.17   32.80
   1   3   1 1399.96   33.00
   1   3   1 1283.77   32.70
  -1   3  -1 1377.96   33.20
   1   3   1 1369.16   31.60
  -1   3  -1 1350.96   32.00
  -1   3  -1 1365.46   32.50
   3  -3   1 2078.69   49.80
   3  -3   1 2076.29   48.80
   3  -3   1 2119.99   50.89
  -3  -3  -1 2036.10   50.29
  -3  -3  -1 2178.18   50.19
  -3  -3  -1 2035.80   50.99
   3  -3   1 2061.39   50.49
   3  -3   1 2062.79   49.90
   3  -3   1 2030.30   50.19
  -3  -3  -1 2122.39   49.50
   3  -3   1 2057.89   49.60
   3   3   1 2090.69   50.69
  -3   3  -1 2116.69   50.79
  -3   3  -1 2096.69   49.70
   3   3   1 2111.19   50.39
  -3   3  -1 2092.99   51.19
   3   3   1 2113.19   49.40
  -3   3  -1 2008.60   50.89
  -3   3  -1 2119.29   48.90
  -3   3  -1 2107.99   50.39
   3   3   1 2163.38   50.19
   5  -3   1 2118.99   50.29
  -5  -3  -1 2128.29   51.09
   5  -3   1 2106.29   52.29
   5  -3   1 2088.69   51.49
  -5  -3  -1 2175.78   52.39
   5  -3   1 2057.39   50.29
  -5  -3  -1 2076.89   51.69
  -5  -3  -1 2198.48   50.99
  -5   3  -1 2063.29   51.09
  -5   3  -1 2123.39   51.79
  -5   3  -1 2094.79   52.59
   5   3   1 2163.18   52.09
   5   3   1 2197.78   51.59
  -5   3  -1 2062.99   50.39
   5   3   1 2138.89   50.99
   7  -3   1 1552.54   40.30
   7  -3   1 1572.74   39.60
  -7  -3  -1 1536.75   39.50
  -7  -3  -1 1590.84   39.30
  -7  -3  -1 1587.54   40.00
   7  -3   1 1542.55   37.50
  -7  -3  -1 1491.15   39.70
  -7   3  -1 1558.14   39.30
  -7   3  -1 1532.15   37.50
  -7   3  -1 1557.34   40.50
   7   3   1 1593.34   39.40
  -7   3  -1 1566.04   39.80
   7   3   1 1590.34   40.20
   7   3   1 1621.14   39.80
   7   3   1 1570.54   38.50
   9  -3   1 1008.30   27.30
  -9  -3  -1  976.70   27.10
  -9  -3  -1  985.10   27.00
  -9  -3  -1  997.30   27.10
  -9  -3  -1  992.30   24.50
   9  -3   1  986.00   28.10
   9   3   1 1032.30   27.00
  -9   3  -1  996.70   27.00
   9   3   1  966.50   24.30
   9   3   1  990.20   26.90
  -9   3  -1  997.90   28.10
   9   3   1  988.20   25.70
   9   3   1 1010.70   27.90
  -9   3  -1  960.80   27.20
 -11  -3  -1  455.65   13.20
 -11  -3  -1  485.45   15.70
 -11  -3  -1  475.45   15.50
  11  -3   1  474.75   16.00
 -11  -3  -1  479.75   15.80
  11  -3   1  475.35   15.60
  11  -3   1  481.15   16.70
  11   3   1  474.85   14.10
 -11   3  -1  473.55   15.70
  11   3   1  475.05   15.10
  11   3   1  486.15   15.60
 -11   3  -1  446.36   15.70
 -11   3  -1  495.55   16.70
  11   3   1  470.05   16.50
 -13  -3  -1  207.98    9.30
  13  -3   1  204.08    9.40
  13  -3   1  199.88    9.20
 -13  -3  -1  190.38    8.90
  13  -3   1  198.38   10.00
 -13  -3  -1  199.28    7.40
 -13  -3  -1  209.58    9.80
  13   3   1  200.88    9.30
 -13   3  -1  203.48    9.70
  13   3   1  198.18   10.20
 -13   3  -1  199.18    9.50
  15  -3   1  133.89    8.80
 -15  -3  -1  135.49    8.00
 -15  -3  -1  143.89    8.80
 -15  -3  -1  133.29    6.60
  15  -3   1  143.39    8.10
  15  -3   1  128.29    7.80
  15   3   1  134.89    8.90
  15   3   1  140.99    8.40
 -15   3  -1  145.59    8.70
 -15   3  -1  128.49    8.20
  14  -4  -1    9.30    3.30
  14  -4  -1    3.40    2.40
 -14  -4   1    6.40    2.90
 -14  -4   1    4.90    2.90
 -14  -4   1    7.90    3.10
  14  -4  -1    9.40    3.10
 -14   4   1   14.80    3.50
  14   4  -1    8.00    3.10
 -14   4   1    5.70    3.10
 -14   4   1   16.00    3.70
  14   4  -1    7.10    3.20
  14   4  -1    6.70    2.80
  12  -4  -1    7.10    1.90
 -12  -4   1    8.30    2.90
 -12  -4   1    5.50    2.30
  12  -4  -1    5.20    2.40
  12  -4  -1    7.40    2.40
 -12   4   1    9.30    2.50
 -12   4   1    3.80    2.20
  12   4  -1    9.30    2.60
 -12   4   1    8.80    2.80
  12   4  -1    8.40    2.40
  12   4  -1    5.90    2.20
  10  -4  -1   53.19    4.40
 -10  -4   1   55.49    4.30
  10  -4  -1   55.09    4.40
  10  -4  -1   52.99    3.50
 -10  -4   1   55.09    4.30
  10   4  -1   57.09    4.40
 -10   4   1   58.79    4.80
  10   4  -1   52.89    4.40
  10   4  -1   55.59    4.50
 -10   4   1   52.09    4.40
 -10   4   1   60.29    4.20
  -8  -4   1  113.89    5.80
   8  -4  -1  114.49    6.00
   8  -4  -1  113.39    6.00
  -8  -4   1  109.69    5.40
   8  -4  -1  109.09    5.20
  -8   4   1  116.39    5.20
   8   4  -1  115.09    6.10
   8   4  -1  114.99    5.80
   8   4  -1  112.69    5.80
  -8   4   1  113.19    6.20
  -8   4   1  106.69    5.70
  -6  -4   1   28.40    2.70
   6  -4  -1   31.90    2.60
   6  -4  -1   31.50    2.80
  -6  -4   1   29.70    1.90
  -6  -4   1   35.40    2.60
   6  -4  -1   31.10    2.90
   6   4  -1   31.20    2.90
   6   4  -1   33.20    1.80
  -6   4   1   30.10    2.90
  -6   4   1   29.70    2.70
  -6   4   1   33.00    2.30
   6   4  -1   33.10    2.80
   6   4  -1   32.30    2.70
   4  -4  -1   19.40    1.40
   4  -4  -1   18.00    2.00
  -4  -4   1   20.30    2.00
  -4  -4   1   22.60    1.80
  -4  -4   1   21.10    1.70
   4  -4  -1   18.90    2.00
  -4   4   1   21.00    2.20
  -4   4   1   20.90    2.20
   4   4  -1   18.20    1.90
  -4   4   1   18.00    1.90
   4   4  -1   20.00    2.00
   4   4  -1   21.40    1.60
   4   4  -1   20.70    2.30
  -4   4   1   19.30    1.40
   2  -4  -1  433.76   12.70
  -2  -4   1  433.76   12.30
  -2  -4   1  417.26   11.00
   2  -4  -1  429.36   12.90
  -2  -4   1  441.56   13.40
   2  -4  -1  427.76   11.10
  -2  -4   1  436.36   11.50
  -2  -4   1  428.26   11.90
  -2  -4   1  428.66   11.50
  -2  -4   1  437.66   11.00
   2   4  -1  402.06   12.40
  -2   4   1  449.56   11.10
  -2   4   1  441.46   13.10
  -2   4   1  435.66   12.00
   2   4  -1  438.26   13.20
   2   4  -1  433.26   12.60
   2   4  -1  407.76   10.90
   2   4  -1  444.76   12.10
  -2   4   1  427.96   12.80
   0  -4   1  503.35   12.80
   0  -4   1  479.75   12.70
   0  -4   1  500.15   13.00
   0  -4   1  501.25   13.30
   0  -4  -1  485.75   14.60
   0  -4   1  499.05   14.40
   0  -4  -1  506.35   13.20
   0  -4  -1  499.25   12.60
   0  -4   1  497.55   13.00
   0  -4  -1  483.35   14.00
   0   4   1  500.65   14.20
   0   4   1  494.45   12.70
   0   4  -1  482.65   13.80
   0   4  -1  486.15   12.70
   0   4  -1  486.05   12.90
   0   4   1  501.25   13.10
   0   4  -1  492.95   13.90
   0   4   1  483.15   14.10
   0   4  -1  507.25   14.10
   0   4   1  488.05   14.00
  -2  -4  -1   88.59    4.00
   2  -4   1   97.79    4.30
  -2  -4  -1   91.09    3.10
   2  -4   1   95.09    3.30
   2  -4   1   93.19    3.40
   2  -4   1   99.29    4.30
   2  -4   1   92.39    3.30
  -2  -4  -1   92.69    4.70
   2   4   1   98.39    4.30
   2   4   1   94.29    3.00
  -2   4  -1   88.29    4.30
  -2   4  -1   95.19    4.00
  -2   4  -1   93.49    4.60
   2   4   1   94.99    4.20
  -2   4  -1   93.49    3.40
   2   4   1   95.39    4.40
   4  -4   1   10.50    0.90
   4  -4   1   12.40    1.90
   4  -4   1   13.50    1.50
   4  -4   1   15.50    1.60
  -4  -4  -1   12.40    1.40
   4  -4   1    9.40    1.60
  -4  -4  -1   10.70    1.70
   4  -4   1   12.10    1.60
  -4  -4  -1   10.40    1.70
   4   4   1   14.00    1.60
   4   4   1   13.70    1.40
  -4   4  -1   15.00    1.90
  -4   4  -1   11.20    1.80
   4   4   1   12.60    1.70
  -4   4  -1   13.10    1.40
   4   4   1   13.70    1.70
  -4   4  -1   12.60    1.70
  -6  -4  -1   24.60    2.10
   6  -4   1   15.30    2.30
  -6  -4  -1   26.40    2.50
   6  -4   1   14.10    1.70
   6  -4   1   21.60    1.80
   6  -4   1   16.60    2.10
  -6  -4  -1   19.00    2.40
  -6   4  -1   13.60    1.80
  -6   4  -1   19.20    2.20
   6   4   1   19.30    2.20
   6   4   1   18.50    2.20
   6   4   1   17.90    1.80
  -6   4  -1   17.40    2.00
  -6   4  -1   17.80    2.50
  -8  -4  -1    1.90    1.30
  -8  -4  -1   -0.40    1.10
   8  -4   1    1.60    1.10
  -8  -4  -1    0.30    1.30
   8  -4   1    6.30    1.90
  -8   4  -1    2.20    1.30
  -8   4  -1    2.50    1.40
   8   4   1    1.90    1.10
   8   4   1    7.20    2.00
   8   4   1    6.20    1.60
  -8   4  -1    1.50    1.00
 -10  -4  -1    6.90    2.10
 -10  -4  -1    2.80    1.90
 -10  -4  -1    1.20    1.60
  10  -4   1    7.00    2.10
  10  -4   1    4.60    2.00
 -10   4  -1    5.30    2.10
  10   4   1    4.70    1.50
  10   4   1    5.40    1.80
 -10   4  -1    4.80    2.10
 -10   4  -1    6.40    1.90
  10   4   1    3.50    2.00
  12  -4   1    1.20    1.70
  12  -4   1    0.90    2.10
 -12  -4  -1   -2.90    1.90
  12  -4   1    0.20    1.50
 -12  -4  -1   -1.30    1.90
 -12  -4  -1   -0.70    1.80
 -12   4  -1    1.90    2.10
  12   4   1    2.50    1.80
  12   4   1   -2.30    1.30
  12   4   1    0.70    2.20
 -12   4  -1    1.50    2.00
 -12   4  -1   -0.10    2.20
 -14  -4  -1    5.80    3.00
 -14  -4  -1   10.30    3.00
  14  -4   1    9.50    3.20
  14  -4   1    8.70    2.70
 -14  -4  -1    4.00    3.10
  14  -4   1    4.20    2.40
 -14   4  -1   10.90    3.40
 -14   4  -1   10.40    3.20
 -14   4  -1    5.90    3.10
  14   4   1    3.00    2.90
  14   4   1    4.90    2.70
  13  -5  -1  209.88   10.70
 -13  -5   1  218.38   10.50
 -13  -5   1  209.58   11.00
  13  -5  -1  204.58   10.50
 -13  -5   1  222.58   10.50
  13  -5  -1  208.68    8.10
 -13   5   1  208.48   11.00
 -13   5   1  222.48   10.90
  13   5  -1  222.08   10.60
 -13   5   1  216.48    9.80
  13   5  -1  213.78   10.40
  13   5  -1  214.18   10.50
  11  -5  -1  494.05   17.20
 -11  -5   1  494.05   16.90
  11  -5  -1  485.15   14.90
 -11  -5   1  480.85   16.50
 -11  -5   1  516.25   18.40
  11  -5  -1  496.55   17.40
 -11   5   1  488.15   15.80
  11   5  -1  497.55   17.00
  11   5  -1  516.65   17.60
  11   5  -1  493.05   17.10
 -11   5   1  471.15   17.50
 -11   5   1  495.45   17.20
   9  -5  -1  556.74   18.30
   9  -5  -1  570.74   16.80
   9  -5  -1  560.04   18.20
  -9  -5   1  572.84   17.40
  -9  -5   1  566.34   18.00
  -9  -5   1  557.84   19.30
   9   5  -1  553.74   18.00
  -9   5   1  538.85   17.90
  -9   5   1  581.44   18.90
   9   5  -1  556.84   17.80
  -9   5   1  568.44   16.60
   9   5  -1  567.84   18.70
   7  -5  -1  314.17   11.40
   7  -5  -1  306.67   11.10
  -7  -5   1  282.07   11.80
  -7  -5   1  295.97   10.10
   7  -5  -1  302.27   10.40
  -7  -5   1  289.57    8.70
  -7  -5   1  284.07   10.70
  -7   5   1  287.47   11.50
   7   5  -1  288.77    8.60
   7   5  -1  309.27   10.80
   7   5  -1  311.97   11.70
  -7   5   1  315.57   11.00
  -7   5   1  295.37    9.40
   7   5  -1  294.67   10.70
   5  -5  -1  221.68    8.20
   5  -5  -1  238.98    8.90
  -5  -5   1  206.28    9.10
  -5  -5   1  206.58    7.00
  -5  -5   1  214.28    8.20
   5  -5  -1  243.58    8.70
   5  -5  -1  193.68    6.30
  -5  -5   1  209.28    7.40
  -5   5   1  196.28    8.60
   5   5  -1  210.18    7.00
   5   5  -1  232.58    8.50
  -5   5   1  210.78    8.10
  -5   5   1  190.98    8.40
   5   5  -1  243.78    8.50
  -5   5   1  209.28    6.50
   5   5  -1  214.18    8.90
   3  -5  -1  812.12   18.30
  -3  -5   1  710.23   21.40
  -3  -5   1  728.63   19.10
  -3  -5   1  745.93   20.30
   3  -5  -1  735.03   18.30
   3  -5  -1  746.23   20.70
   3  -5  -1  765.12   21.00
   3   5  -1  762.52   20.60
  -3   5   1  721.83   21.00
   3   5  -1  732.73   19.70
   3   5  -1  747.73   20.70
   3   5  -1  721.23   21.30
  -3   5   1  721.73   19.90
  -3   5   1  711.43   21.20
   1  -5  -1 1338.77   34.30
  -1  -5   1 1318.07   33.40
   1  -5  -1 1337.97   32.70
  -1  -5   1 1375.66   35.20
   1  -5  -1 1363.36   35.00
  -1  -5   1 1345.47   32.40
  -1  -5   1 1279.87   32.40
  -1  -5   1 1290.37   32.30
  -1   5   1 1371.86   33.00
  -1   5   1 1344.77   34.60
   1   5  -1 1359.26   34.00
   1   5  -1 1291.17   34.00
  -1   5   1 1360.76   32.60
   1   5  -1 1347.77   34.40
   1   5  -1 1319.97   32.30
  -1   5   1 1323.17   34.50
   1  -5   1 2097.89   52.89
  -1  -5  -1 2219.28   55.99
  -1  -5  -1 2246.58   54.09
   1  -5   1 2302.97   53.69
   1  -5   1 2198.58   53.09
   1  -5   1 2221.18   55.19
  -1  -5  -1 2274.07   52.69
   1  -5   1 2219.48   54.99
  -1   5  -1 2099.49   52.89
  -1   5  -1 2263.07   55.39
   1   5   1 2241.68   55.49
  -1   5  -1 2344.47   53.99
  -1   5  -1 2258.07   55.09
   1   5   1 2285.57   55.19
  -1   5  -1 2278.47   55.39
   1   5   1 2322.77   52.89
   1   5   1 2188.08   54.89
  -3  -5  -1 2420.76   60.39
   3  -5   1 2339.77   57.29
   3  -5   1 2416.66   59.09
   3  -5   1 2327.87   56.79
   3  -5   1 2410.96   58.99
  -3  -5  -1 2456.05   57.09
  -3  -5  -1 2432.96   58.79
   3  -5   1 2463.45   56.99
  -3   5  -1 2279.57   59.79
  -3   5  -1 2391.96   57.29
   3   5   1 2361.36   59.09
  -3   5  -1 2533.85   58.89
   3   5   1 2393.16   56.89
   3   5   1 2429.26   59.59
   3   5   1 2492.85   58.89
  -3   5  -1 2430.16   59.89
  -5  -5  -1 1227.08   29.90
   5  -5   1 1124.29   31.10
  -5  -5  -1 1190.08   31.30
  -5  -5  -1 1182.28   32.50
   5  -5   1 1181.08   30.50
   5  -5   1 1175.08   31.90
   5   5   1 1204.68   31.30
  -5   5  -1 1199.78   31.20
  -5   5  -1 1190.58   29.80
  -5   5  -1 1223.68   32.40
   5   5   1 1206.68   30.60
  -5   5  -1 1154.48   32.30
   5   5   1 1195.48   31.80
  -7  -5  -1  552.24   17.20
   7  -5   1  575.54   17.30
  -7  -5  -1  587.24   16.30
  -7  -5  -1  563.44   18.20
   7  -5   1  569.14   17.90
   7  -5   1  546.65   15.60
  -7   5  -1  556.14   16.00
   7   5   1  555.84   17.60
  -7   5  -1  571.34   17.40
   7   5   1  574.34   17.10
   7   5   1  561.44   15.90
  -7   5  -1  530.55   18.20
  -9  -5  -1  595.54   18.80
   9  -5   1  586.84   16.20
  -9  -5  -1  599.94   18.00
   9  -5   1  581.84   19.30
  -9  -5  -1  619.34   19.70
   9  -5   1  606.44   18.70
   9   5   1  586.74   16.80
  -9   5  -1  597.24   19.90
   9   5   1  599.64   18.50
   9   5   1  599.74   19.20
  -9   5  -1  596.74   18.90
  -9   5  -1  608.44   17.90
 -11  -5  -1  446.06   15.90
 -11  -5  -1  444.66   15.20
 -11  -5  -1  449.26   16.30
  11  -5   1  441.46   15.60
  11  -5   1  451.95   16.70
 -11   5  -1  452.55   17.10
  11   5   1  437.16   16.30
 -11   5  -1  430.26   15.90
 -11   5  -1  450.75   15.10
  11   5   1  460.35   15.70
  13  -5   1  208.18   10.50
 -13  -5  -1  210.48   10.40
 -13  -5  -1  226.38   10.90
 -13  -5  -1  208.88   10.00
  13  -5   1  207.38   10.20
  13  -5   1  224.78   11.20
 -13   5  -1  215.78   10.20
 -13   5  -1  211.68   11.30
  13   5   1  212.08   10.10
 -13   5  -1  197.68   10.30
  13   5   1  201.18   10.70
  12  -6  -1    1.20    2.40
  12  -6  -1    4.60    2.30
 -12  -6   1    2.40    2.80
 -12  -6   1    3.60    2.70
 -12  -6   1    0.60    2.40
  12   6  -1    5.30    2.90
  12   6  -1   -1.50    2.50
  12   6  -1    0.30    2.20
 -12   6   1    3.10    2.90
 -12   6   1    2.80    3.00
 -12   6   1    4.10    2.70
 -10  -6   1    5.50    2.20
  10  -6  -1   10.50    2.70
 -10  -6   1    5.40    2.90
  10  -6  -1    5.60    2.20
  10  -6  -1    9.60    2.70
 -10  -6   1    8.80    2.60
 -10   6   1    3.40    2.10
  10   6  -1    6.80    2.50
 -10   6   1    5.80    2.50
  10   6  -1    7.00    2.80
  10   6  -1    6.70    2.50
 -10   6   1    3.30    2.10
   8  -6  -1   -2.70    1.10
  -8  -6   1    0.00    1.50
   8  -6  -1    0.10    1.60
   8  -6  -1    4.30    1.80
  -8  -6   1    0.60    1.70
  -8  -6   1   -0.10    1.30
   8   6  -1    0.20    1.60
  -8   6   1    0.70    1.50
   8   6  -1    0.90    1.80
   8   6  -1   -2.00    1.50
  -8   6   1    3.70    1.90
  -8   6   1   -0.70    1.50
  -6  -6   1    7.70    1.80
   6  -6  -1   11.30    2.50
   6  -6  -1    8.20    2.10
   6  -6  -1    3.40    1.60
   6  -6  -1    5.30    1.40
  -6  -6   1    5.30    1.80
  -6  -6   1    3.40    1.80
  -6   6   1    3.00    1.70
   6   6  -1    5.10    2.10
  -6   6   1    4.40    1.70
  -6   6   1    3.40    1.20
   6   6  -1    5.30    1.80
  -6   6   1    7.10    2.20
   6   6  -1    8.00    1.70
   6   6  -1    4.80    1.90
   4  -6  -1    2.70    1.60
   4  -6  -1    1.90    1.30
  -4  -6   1    3.70    1.70
  -4  -6   1    6.70    1.40
  -4  -6   1    4.60    1.60
  -4   6   1    6.10    1.80
   4   6  -1    5.20    1.80
   4   6  -1    4.30    1.40
   4   6  -1    5.00    1.70
  -4   6   1    4.40    1.60
   4   6  -1    3.90    1.80
  -4   6   1    4.00    1.70
  -2  -6   1  151.48    6.30
   2  -6  -1  159.98    7.30
  -2  -6   1  159.08    5.00
   2  -6  -1  158.48    5.40
  -2  -6   1  160.68    5.40
   2  -6  -1  154.68    7.00
  -2  -6   1  154.08    5.00
  -2  -6   1  157.38    7.60
  -2   6   1  156.78    7.30
   2   6  -1  152.48    6.90
   2   6  -1  154.38    5.00
  -2   6   1  163.88    6.10
   2   6  -1  159.88    6.60
  -2   6   1  156.18    7.20
   2   6  -1  157.08    6.80
   0  -6  -1   23.00    2.70
   0  -6  -1   16.40    2.30
   0  -6  -1   21.00    2.70
   0  -6  -1   18.30    1.90
   0  -6   1   16.90    1.70
   0  -6   1   19.60    2.00
   0  -6   1   17.90    2.30
   0  -6   1   18.60    1.50
   0  -6   1   20.40    2.50
   0   6   1   18.20    2.30
   0   6  -1   19.10    2.30
   0   6  -1   18.90    2.40
   0   6   1   17.90    2.40
   0   6   1   19.60    2.50
   0   6  -1   19.50    1.90
   0   6  -1   22.80    2.60
   0   6   1   15.60    1.70
  -2  -6  -1   82.39    5.20
   2  -6   1   83.39    4.80
  -2  -6  -1   79.09    4.20
   2  -6   1   85.49    3.70
   2  -6   1   79.49    4.60
   2  -6   1   80.59    3.40
  -2   6  -1   79.09    5.00
   2   6   1   82.09    4.70
  -2   6  -1   79.49    4.10
  -2   6  -1   83.79    3.30
   2   6   1   85.59    4.70
  -2   6  -1   78.99    4.90
   2   6   1   82.39    4.90
   4  -6   1   19.60    1.60
  -4  -6  -1   19.70    1.80
   4  -6   1   19.80    1.70
  -4  -6  -1   23.10    2.50
  -4  -6  -1   17.50    2.70
   4  -6   1   15.90    2.40
  -4  -6  -1   15.90    2.00
   4  -6   1   16.40    2.50
   4  -6   1   22.60    2.60
  -4   6  -1   14.00    2.60
  -4   6  -1   21.50    2.50
   4   6   1   18.30    2.60
   4   6   1   19.30    2.40
  -4   6  -1   20.00    1.90
  -4   6  -1   22.40    2.90
   4   6   1   15.40    1.90
   4   6   1   18.60    2.50
   6  -6   1    0.70    1.30
  -6  -6  -1    5.30    2.20
  -6  -6  -1    2.10    1.50
   6  -6   1    4.10    1.50
  -6  -6  -1    1.60    1.10
   6  -6   1    1.20    1.30
  -6   6  -1    0.90    1.50
   6   6   1    3.20    1.40
  -6   6  -1    1.10    1.60
  -6   6  -1    4.10    1.40
   6   6   1    2.50    1.60
   8  -6   1    3.60    1.70
   8  -6   1    0.50    1.70
  -8  -6  -1    4.90    1.80
  -8  -6  -1    1.90    1.80
  -8  -6  -1    3.50    1.80
   8  -6   1    0.60    1.40
   8   6   1    1.40    1.50
  -8   6  -1    4.50    2.30
  -8   6  -1    0.20    1.50
   8   6   1    1.60    1.70
  -8   6  -1    1.60    1.60
   8   6   1    2.30    1.60
 -10  -6  -1   27.80    3.70
  10  -6   1   22.40    3.90
  10  -6   1   20.70    2.70
 -10  -6  -1   21.10    3.40
  10  -6   1   25.90    3.80
 -10  -6  -1   24.20    4.50
 -10   6  -1   21.90    4.00
 -10   6  -1   20.50    3.50
  10   6   1   18.30    3.50
  10   6   1   17.50    3.30
 -10   6  -1   19.60    3.80
  12  -6   1   13.30    3.50
 -12  -6  -1   14.20    3.30
 -12  -6  -1   15.70    3.80
  12  -6   1    9.40    2.80
 -12  -6  -1    9.90    3.10
  12   6   1    9.90    3.30
 -12   6  -1    9.10    3.70
  12   6   1   12.10    3.30
 -12   6  -1   15.90    3.70
 -12   6  -1   10.40    3.30
  11  -7  -1  161.08    9.20
 -11  -7   1  163.78    9.20
 -11  -7   1  171.68   10.50
 -11  -7   1  156.68    8.40
  11  -7  -1  164.68    7.90
  11  -7  -1  157.78    9.30
 -11   7   1  155.48    9.00
  11   7  -1  155.78    9.10
 -11   7   1  167.48   10.20
  11   7  -1  148.19    8.80
   9  -7  -1  194.38    9.60
  -9  -7   1  185.68    8.40
  -9  -7   1  186.78   10.50
  -9  -7   1  194.28    9.40
   9  -7  -1  191.98    8.70
   9  -7  -1  195.88    9.90
  -9   7   1  173.48   10.00
   9   7  -1  182.68    9.10
  -9   7   1  184.78    9.30
   9   7  -1  199.98    9.60
  -7  -7   1  577.94   17.00
  -7  -7   1  548.85   18.40
   7  -7  -1  573.84   18.00
   7  -7  -1  575.54   19.10
  -7  -7   1  554.24   20.20
   7  -7  -1  560.54   18.60
  -7   7   1  553.14   19.80
   7   7  -1  569.54   18.50
   7   7  -1  561.64   18.60
  -7   7   1  573.54   18.40
   5  -7  -1  513.15   16.70
   5  -7  -1  531.55   17.00
  -5  -7   1  509.15   16.50
  -5  -7   1  487.55   18.00
   5  -7  -1  516.65   17.40
  -5  -7   1  510.45   14.80
  -5   7   1  492.85   17.60
   5   7  -1  501.85   16.80
  -5   7   1  492.25   17.30
   5   7  -1  508.95   16.70
  -5   7   1  526.15   16.30
   5   7  -1  511.35   15.40
  -3  -7   1  324.07    9.70
  -3  -7   1  325.07   11.30
   3  -7  -1  330.77   12.30
   3  -7  -1  318.07    9.30
   3  -7  -1  320.47   11.90
  -3  -7   1  316.17   12.80
   3   7  -1  319.57   11.80
  -3   7   1  323.27   10.80
   3   7  -1  328.47   12.00
  -3   7   1  323.67   12.40
   3   7  -1  324.67   11.20
  -3   7   1  302.47   12.30
   1  -7  -1  433.66   12.70
  -1  -7   1  416.16   11.70
   1  -7  -1  424.86   14.40
   1  -7  -1  441.96   15.20
  -1  -7   1  430.96   15.20
  -1  -7   1  421.96   13.30
  -1   7   1  447.16   12.70
   1   7  -1  437.56   14.40
   1   7  -1  422.86   14.60
   1   7  -1  431.16   12.00
   1   7  -1  422.56   14.30
  -1   7   1  422.46   14.80
  -1   7   1  431.16   14.90
  -1  -7  -1  580.54   16.50
  -1  -7  -1  558.54   17.70
  -1  -7  -1  541.15   14.40
   1  -7   1  577.24   18.10
   1  -7   1  567.34   17.70
   1  -7   1  540.85   14.50
   1  -7   1  524.45   14.50
  -1  -7  -1  549.54   18.50
   1  -7   1  567.94   15.80
   1   7   1  578.94   14.70
   1   7   1  541.85   17.90
  -1   7  -1  553.34   17.90
   1   7   1  562.34   17.70
  -1   7  -1  557.64   18.00
   1   7   1  548.25   17.50
  -1   7  -1  575.84   15.80
  -1   7  -1  555.44   17.60
   3  -7   1  587.34   15.60
  -3  -7  -1  579.84   19.40
   3  -7   1  586.24   15.30
   3  -7   1  573.24   18.20
  -3  -7  -1  574.14   17.40
   3  -7   1  524.35   16.40
   3  -7   1  580.24   18.10
   3   7   1  573.24   17.70
  -3   7  -1  573.14   18.90
  -3   7  -1  572.74   18.80
   3   7   1  585.34   18.70
  -3   7  -1  619.64   17.30
  -3   7  -1  582.34   15.20
   3   7   1  590.24   18.20
   5  -7   1 1088.39   30.20
  -5  -7  -1 1102.49   27.50
   5  -7   1 1096.39   29.70
   5  -7   1 1084.79   31.20
  -5  -7  -1 1080.09   29.90
  -5  -7  -1 1063.39   31.70
  -5   7  -1 1066.79   31.20
  -5   7  -1 1033.70   31.40
   5   7   1 1095.19   30.30
   5   7   1 1077.29   30.80
  -5   7  -1 1133.69   29.80
   5   7   1 1069.89   29.40
  -5   7  -1 1076.59   27.40
  -7  -7  -1 1076.79   27.30
   7  -7   1 1038.20   30.30
   7  -7   1 1035.80   29.40
  -7  -7  -1 1003.80   29.30
  -7  -7  -1 1023.50   31.10
   7  -7   1 1023.30   27.90
  -7   7  -1  941.41   26.70
   7   7   1 1046.40   30.00
  -7   7  -1  974.10   30.90
   7   7   1 1025.90   27.90
  -7   7  -1 1068.69   29.50
   7   7   1 1043.20   29.30
   9  -7   1  354.36   14.40
  -9  -7  -1  355.46   15.10
   9  -7   1  352.06   11.80
  -9  -7  -1  369.36   12.40
  -9  -7  -1  351.56   13.90
   9  -7   1  350.26   13.70
  -9   7  -1  338.67   15.00
   9   7   1  353.46   14.20
  -9   7  -1  361.36   14.00
   9   7   1  359.86   13.70
 -11  -7  -1  139.69    9.10
 -11  -7  -1  125.39    8.20
  11  -7   1  128.19    8.50
  11  -7   1  138.79    8.20
 -11  -7  -1  131.79    7.60
  11   7   1  130.89    8.40
  11   7   1  140.29    8.40
 -11   7  -1  124.49    9.10
 -11   7  -1  127.59    8.30
  -8  -8   1    6.60    3.10
   8  -8  -1    0.80    2.40
   8  -8  -1    4.50    2.70
   8  -8  -1    4.80    2.60
  -8  -8   1    2.60    2.80
  -8  -8   1    6.50    2.60
   8   8  -1    3.40    2.60
  -8   8   1   10.80    3.60
   8   8  -1   -0.40    2.00
   8   8  -1    4.00    2.50
  -8   8   1    3.60    2.80
  -6  -8   1   -1.50    2.30
   6  -8  -1   -0.70    1.80
   6  -8  -1    2.80    2.00
  -6  -8   1    1.10    1.70
  -6  -8   1    2.00    2.20
   6  -8  -1   -1.50    1.50
   6   8  -1   -0.40    1.70
   6   8  -1   -0.10    1.80
  -6   8   1    3.30    2.70
   6   8  -1    1.60    2.40
  -6   8   1   -1.20    1.90
  -6   8   1    3.50    2.50
  -4  -8   1    3.50    1.60
   4  -8  -1    8.00    2.30
  -4  -8   1    3.60    1.90
   4  -8  -1    9.30    2.60
  -4  -8   1    5.10    2.40
   4   8  -1    5.30    2.10
  -4   8   1    9.20    2.90
  -4   8   1    4.80    2.60
   4   8  -1    4.50    2.00
  -4   8   1    2.60    1.90
   4   8  -1    3.40    2.20
   2  -8  -1    4.70    2.00
  -2  -8   1    4.20    1.70
   2  -8  -1    6.70    1.60
  -2  -8   1    7.40    2.40
   2  -8  -1    8.00    2.00
  -2  -8   1    5.10    1.40
  -2   8   1    6.60    2.40
   2   8  -1    5.50    2.20
  -2   8   1    2.60    1.80
  -2   8   1    2.10    1.80
   2   8  -1    6.10    2.20
   0  -8   1   34.90    3.20
   0  -8   1   40.90    4.30
   0  -8   1   35.10    3.90
   0  -8  -1   36.00    4.30
   0  -8  -1   32.70    3.70
   0  -8  -1   36.80    3.30
   0   8  -1   34.20    3.80
   0   8   1   33.90    3.90
   0   8  -1   39.30    3.00
   0   8  -1   33.90    4.00
   0   8   1   35.30    4.00
   0   8  -1   31.20    4.00
  -2  -8  -1  137.79    6.60
  -2  -8  -1  128.89    7.30
   2  -8   1  138.89    7.50
  -2  -8  -1  130.29    7.90
   2  -8   1  138.59    5.70
   2  -8   1  126.39    7.10
   2   8   1  135.19    7.20
   2   8   1  131.19    7.60
  -2   8  -1  138.29    6.20
   2   8   1  129.19    7.20
  -2   8  -1  123.19    7.50
  -2   8  -1  132.19    7.60
   4  -8   1   36.60    2.70
  -4  -8  -1   48.00    4.90
   4  -8   1   49.00    4.80
   4  -8   1   39.30    4.30
   4  -8   1   40.10    4.10
  -4  -8  -1   46.30    4.10
  -4   8  -1   34.40    4.50
   4   8   1   44.10    4.60
   4   8   1   45.70    4.30
  -4   8  -1   41.40    4.90
   4   8   1   43.70    4.40
  -4   8  -1   42.00    3.90
  -6  -8  -1    3.70    2.40
   6  -8   1    3.50    2.10
  -6  -8  -1    2.20    2.30
  -6  -8  -1   -0.70    1.60
   6  -8   1    4.70    2.00
  -6   8  -1    1.30    2.30
  -6   8  -1   -1.60    2.10
  -6   8  -1    1.90    2.50
  -6   8  -1   -1.80    1.60
   6   8   1    2.10    2.40
   6   8   1    0.30    2.00
   6   8   1    0.30    1.70
   8  -8   1   19.30    3.90
   8  -8   1   19.80    3.90
  -8  -8  -1   18.50    4.10
  -8  -8  -1   21.60    4.00
  -8  -8  -1   18.90    3.30
   8  -8   1   17.60    3.20
   8   8   1   13.10    3.50
   8   8   1   15.80    3.70
  -8   8  -1   16.50    3.90
  -8   8  -1   19.50    4.30
   7  -9  -1  166.88    9.80
  -7  -9   1  171.98   10.70
   7  -9  -1  187.38    9.50
  -7  -9   1  181.18    8.00
   7  -9  -1  175.18    9.60
  -7  -9   1  177.08    9.50
   7   9  -1  168.08    9.50
  -7   9   1  174.78   10.40
   7   9  -1  172.58    9.50
  -7   9   1  176.18    9.20
  -7   9   1  158.08   10.40
  -5  -9   1  251.47   11.00
   5  -9  -1  262.37   12.30
  -5  -9   1  244.68   12.60
   5  -9  -1  251.27   11.40
  -5  -9   1  238.58    8.80
   5  -9  -1  253.77   11.50
  -5   9   1  261.67   12.80
   5   9  -1  250.97   11.70
  -5   9   1  260.47   10.70
   5   9  -1  256.37   11.60
  -5   9   1  253.37   12.30
   5   9  -1  203.78    9.90
   3  -9  -1  351.06   13.80
  -3  -9   1  337.47   14.70
   3  -9  -1  334.47   10.20
   3  -9  -1  341.97   14.10
  -3  -9   1  324.37   10.10
  -3  -9   1  328.37   12.60
   3   9  -1  342.47   13.20
   3   9  -1  331.97   13.70
  -3   9   1  345.87   11.90
  -3   9   1  323.67   14.00
   3   9  -1  329.87   13.50
  -3   9   1  329.37   14.30
  -1  -9   1  500.75   14.10
   1  -9  -1  526.25   15.50
  -1  -9   1  503.35   18.00
  -1  -9   1  503.25   16.10
   1  -9  -1  495.85   17.90
  -1  -9   1  517.35   18.90
   1  -9  -1  517.45   18.80
   1   9  -1  511.15   17.90
  -1   9   1  502.05   18.50
   1   9  -1  512.85   18.30
   1   9  -1  495.75   17.80
  -1   9   1  510.35   18.60
  -1  -9  -1  510.65   19.20
  -1  -9  -1  520.35   18.20
   1  -9   1  521.35   18.50
   1  -9   1  507.55   15.40
   1  -9   1  508.55   17.90
  -1  -9  -1  500.45   16.00
   1   9   1  513.95   18.50
   1   9   1  505.65   18.00
  -1   9  -1  502.05   18.40
  -1   9  -1  503.95   18.30
  -3  -9  -1  296.87   12.80
   3  -9   1  290.67   12.40
   3  -9   1  292.97    9.50
   3  -9   1  298.87   12.40
  -3  -9  -1  289.97   11.50
  -3  -9  -1  288.87   13.50
   3   9   1  289.77   12.50
  -3   9  -1  287.07   13.20
   3   9   1  289.77   12.20
  -3   9  -1  281.47   12.90
  -3   9  -1  300.37   11.00
   3   9   1  295.27   12.90
  -5  -9  -1  176.78    9.00
   5  -9   1  175.28    9.00
   5  -9   1  171.98    9.90
  -5  -9  -1  178.28   10.60
   5  -9   1  173.58    9.20
  -5   9  -1  169.98    9.90
   5   9   1  179.08    9.70
  -5   9  -1  173.58   10.10
   5   9   1  184.48    9.50
   5   9   1  170.68    8.80
  -5   9  -1  180.58    8.80
   7  -9   1  119.49    8.40
  -7  -9  -1  119.89    7.80
   7  -9   1  126.79    7.40
  -7  -9  -1  118.19    8.90
   7  -9   1  123.99    7.90
   7   9   1  114.19    7.70
  -7   9  -1  119.19    8.80
  -7   9  -1  121.79    7.70
   7   9   1  118.99    8.10
   0 -10  -1    8.50    3.30
   0 -10  -1    5.70    2.70
   0 -10   1    1.40    2.80
   0 -10   1    4.80    2.60
   0 -10  -1    2.50    2.40
   0 -10   1    5.30    3.00
   0  10  -1    9.70    3.60
   0  10   1   -0.30    2.70
   0  10   1    2.50    2.90
   0  10  -1    4.30    2.90
  14   0  -2  192.88    8.40
 -14   0   2  190.08    8.70
 -14   0   2  193.68    7.90
 -14   0   2  184.28    9.50
  14   0  -2  198.48    9.70
  14   0  -2  192.28    9.30
 -12   0   2 1304.77   35.50
  12   0  -2 1227.48   32.50
 -12   0   2 1314.57   33.40
 -12   0   2 1306.77   34.40
  12   0  -2 1258.97   35.70
  12   0  -2 1320.47   34.30
  12   0  -2 1310.67   35.40
  10   0  -2  508.15   16.70
 -10   0   2  535.85   16.40
  10   0  -2  537.95   14.50
  10   0  -2  504.45   14.10
 -10   0   2  523.35   15.70
  10   0  -2  528.55   15.80
 -10   0   2  537.45   15.10
  10   0  -2  535.55   16.40
  -8   0   2 4268.97  101.99
   8   0  -2 4280.57  102.49
  -8   0   2 4377.56  101.39
   8   0  -2 4382.96  100.59
   8   0  -2 4169.68  102.29
  -8   0   2 4282.97  102.49
  -8   0   2 4402.46  101.09
   8   0  -2 4242.78  103.09
  -6   0   2 3623.74   82.09
   6   0  -2 3462.85   83.69
  -6   0   2 3473.65   82.89
  -6   0   2 3432.66   82.29
  -6   0   2 3250.57   82.69
  -6   0   2 3561.74   82.39
  -6   0   2 3614.84   83.29
   6   0  -2 3572.64   83.59
   6   0  -2 3430.86   82.89
   6   0  -2 3597.64   81.79
   4   0  -2  344.67    9.30
  -4   0   2  286.57    7.80
   4   0  -2  279.27    8.40
   4   0  -2  269.77    7.70
   4   0  -2  293.27    8.40
  -4   0   2  293.97    9.10
   4   0  -2  347.67    9.20
  -4   0   2  294.87    8.50
  -4   0   2  275.57    8.10
  -4   0   2  295.37    8.90
   4   0  -2  299.47    8.10
   4   0  -2  332.67    8.30
  -4   0   2  278.77    8.40
  -2   0   2 1343.97   33.30
   2   0  -2 1342.67   33.90
  -2   0   2 1437.76   32.90
   2   0  -2 1418.26   32.90
  -2   0   2 1462.05   33.20
   2   0  -2 1411.46   33.20
   2   0  -2 1401.06   33.10
  -2   0   2 1381.36   33.20
  -2   0   2 1362.26   33.10
   2   0  -2 1379.46   33.30
  -2   0   2 1309.07   33.80
   2   0  -2 1418.26   33.20
  -2   0   2 1427.36   33.20
   0   0   2 7815.02  172.18
   0   0  -2 7377.26  172.18
   0   0  -2 7735.83  172.08
   0   0  -2 7035.80  172.38
   0   0   2 7222.78  172.38
   0   0  -2 7096.29  171.48
   0   0   2 7812.52  172.08
   2   0   2  198.38    5.60
   2   0   2  201.38    5.70
   2   0   2  194.18    5.80
   2   0   2  203.48    5.40
  -2   0  -2  175.58    5.50
  -4   0  -2 1679.83   41.60
  -4   0  -2 1699.23   41.20
   4   0   2 1694.23   42.30
  -4   0  -2 1716.03   42.10
  -4   0  -2 1703.03   42.30
   4   0   2 1720.53   41.50
   4   0   2 1710.73   42.10
   4   0   2 1821.22   41.60
  -4   0  -2 1720.53   42.00
   4   0   2 1768.32   42.20
  -4   0  -2 1782.32   40.70
   4   0   2 1781.92   41.10
  -4   0  -2 1752.02   41.60
   4   0   2 1737.93   41.90
  -6   0  -2 2810.02   68.59
   6   0   2 3034.90   68.59
   6   0   2 2930.11   69.39
  -6   0  -2 2830.82   68.69
  -6   0  -2 2807.82   69.29
   6   0   2 2890.31   69.79
  -6   0  -2 2909.51   68.69
   8   0   2 2362.06   56.49
   8   0   2 2303.47   57.49
  -8   0  -2 2285.07   55.59
   8   0   2 2401.66   55.89
  -8   0  -2 2252.97   55.79
  -8   0  -2 2159.68   56.49
 -10   0  -2   40.90    3.00
 -10   0  -2   37.60    3.50
 -10   0  -2   41.00    3.20
  12   0   2 1154.68   31.10
 -12   0  -2 1103.49   31.80
  12   0   2 1142.29   32.80
 -12   0  -2 1154.68   30.60
  12   0   2 1104.29   30.70
 -12   0  -2 1128.39   30.00
  14   0   2  493.15   18.20
  14   0   2  474.65   16.20
 -14   0  -2  509.95   17.80
  14   0   2  473.35   16.30
 -14   0  -2  490.25   15.50
 -14   0  -2  497.15   16.30
 -15  -1   2    7.90    3.10
  15  -1  -2    7.50    2.50
 -15  -1   2    1.90    2.60
  15  -1  -2    6.40    3.00
  15  -1  -2    5.00    2.80
 -15  -1   2   12.10    2.80
  15   1  -2    9.50    3.00
  15   1  -2    9.50    2.90
 -15   1   2    4.00    2.80
  15   1  -2   10.10    3.00
 -15   1   2    5.50    2.70
 -13  -1   2   40.20    3.80
  13  -1  -2   33.90    3.20
  13  -1  -2   38.20    4.30
  13  -1  -2   28.40    3.80
  13  -1  -2   37.60    3.60
 -13  -1   2   36.00    4.50
 -13  -1   2   36.20    3.70
 -13   1   2   36.90    3.90
  13   1  -2   30.60    4.00
  13   1  -2   39.20    3.90
 -13   1   2   40.80    4.40
  13   1  -2   37.90    4.20
 -13   1   2   27.90    3.00
 -11  -1   2  394.96   12.50
 -11  -1   2  391.26   13.50
  11  -1  -2  372.46   13.60
  11  -1  -2  392.36   13.50
  11  -1  -2  389.56   12.60
 -11  -1   2  379.76   12.40
 -11   1   2  376.16   13.00
 -11   1   2  403.06   11.50
 -11   1   2  387.26   13.30
  11   1  -2  398.06   13.10
  11   1  -2  389.36   13.30
 -11   1   2  381.86   12.30
  11   1  -2  371.46   13.60
   9  -1  -2  201.28    7.50
  -9  -1   2  206.88    7.30
   9  -1  -2  197.78    7.80
   9  -1  -2  191.68    8.00
  -9  -1   2  191.78    7.80
  -9  -1   2  196.58    7.10
  -9   1   2  187.28    7.50
   9   1  -2  190.08    8.00
  -9   1   2  201.08    7.20
   9   1  -2  196.18    7.80
   9   1  -2  188.88    7.50
  -9   1   2  193.78    7.70
  -9   1   2  194.88    6.40
  -7  -1   2  645.64   16.90
  -7  -1   2  620.04   17.10
   7  -1  -2  617.94   17.60
   7  -1  -2  624.94   18.10
   7  -1  -2  629.74   16.70
  -7  -1   2  646.44   17.70
   7  -1  -2  638.24   17.70
   7   1  -2  647.14   18.00
   7   1  -2  637.04   17.30
   7   1  -2  597.54   17.90
  -7   1   2  654.93   17.60
  -7   1   2  621.14   17.50
  -7   1   2  646.54   16.30
  -7   1   2  684.73   17.20
  -7   1   2  617.14   16.20
  -5  -1   2  135.39    5.70
   5  -1  -2  158.58    5.20
   5  -1  -2  139.39    4.90
  -5  -1   2  135.69    5.20
  -5  -1   2  142.39    4.90
   5  -1  -2  143.79    4.40
  -5  -1   2  149.39    5.20
   5  -1  -2  161.98    5.90
   5  -1  -2  161.68    5.70
  -5  -1   2  146.69    5.00
   5  -1  -2  147.79    5.20
   5  -1  -2  143.99    5.00
   5   1  -2  154.08    5.00
   5   1  -2  160.38    5.70
   5   1  -2  149.88    5.00
  -5   1   2  137.49    5.20
  -5   1   2  149.19    5.00
  -5   1   2  148.79    5.10
  -5   1   2  141.99    5.70
  -5   1   2  143.99    4.50
   5   1  -2  142.99    4.80
   5   1  -2  157.68    5.80
  -5   1   2  144.79    5.20
   3  -1  -2  374.86   10.40
   3  -1  -2  396.56   10.20
   3  -1  -2  389.56   10.80
  -3  -1   2  392.26   10.60
  -3  -1   2  381.06    9.90
  -3  -1   2  375.06   10.20
   3  -1  -2  388.36   10.10
   3  -1  -2  397.26    9.90
   3  -1  -2  388.66   11.10
  -3  -1   2  370.76   10.50
   3  -1  -2  406.66   10.40
   3  -1  -2  398.16   10.20
  -3  -1   2  384.76   11.10
  -3   1   2  392.16   10.00
   3   1  -2  380.66   10.40
   3   1  -2  382.86   10.20
  -3   1   2  389.66   10.80
  -3   1   2  385.16   10.60
   3   1  -2  389.36    9.90
  -3   1   2  408.86   10.50
   3   1  -2  395.56   11.10
  -3   1   2  396.26   11.20
   3   1  -2  391.76   10.60
  -3   1   2  399.26   10.30
  -1  -1   2 1228.88   30.00
  -1  -1   2 1186.28   29.10
   1  -1  -2 1274.97   29.70
   1  -1  -2 1292.37   29.50
  -1  -1   2 1067.69   28.70
  -1  -1   2 1154.58   29.30
   1  -1  -2 1279.77   30.20
  -1  -1   2 1189.18   29.60
   1  -1  -2 1272.77   29.10
  -1  -1   2 1228.28   29.40
   1  -1  -2 1274.57   29.10
  -1  -1   2 1182.68   29.40
   1  -1  -2 1258.07   29.30
  -1  -1   2 1288.17   29.30
  -1  -1   2 1188.78   29.20
   1  -1  -2 1263.87   29.40
   1   1  -2 1195.38   29.40
  -1   1   2 1222.48   29.10
  -1   1   2 1212.18   29.70
  -1   1   2 1282.47   30.20
   1   1  -2 1218.18   29.20
  -1   1   2 1276.77   29.40
   1   1  -2 1234.48   28.80
   1   1  -2 1192.98   29.30
   1   1  -2 1251.57   29.30
  -1   1   2 1181.68   29.10
  -1   1   2 1194.68   29.00
  -1   1   2 1257.07   29.40
  -1   1   2 1242.38   29.50
   1   1  -2 1237.38   29.50
   1   1  -2 1266.17   30.00
   1  -1   2 4398.36  106.69
  -1  -1  -2 4699.93  106.19
   1  -1   2 4340.17  106.59
   1  -1   2 4407.76  106.69
  -1  -1  -2 4797.02  106.79
   1  -1   2 4265.87  106.49
  -1  -1  -2 4690.93  106.49
  -1  -1  -2 4683.13  107.09
  -1  -1  -2 4464.65  107.09
   1  -1   2 4642.64  107.09
  -1  -1  -2 4655.23  106.89
   1  -1   2 4374.36  106.59
  -1  -1  -2 4917.11  106.49
   1  -1   2 4601.44  106.09
  -1   1  -2 4594.44  106.79
  -1   1  -2 4388.66  106.69
   1   1   2 4683.93  106.89
   1   1   2 4912.61  106.79
  -1   1  -2 4457.65  106.09
   1   1   2 4730.23  106.29
   1   1   2 4742.43  106.49
  -1   1  -2 4473.75  106.59
   1   1   2 4752.22  107.09
  -1   1  -2 4380.56  106.69
   1   1   2 4819.52  106.49
  -1   1  -2 4525.55  107.09
  -1   1  -2 4561.94  106.79
   1   1   2 4588.04  107.19
  -3  -1  -2  575.14   14.40
   3  -1   2  572.74   14.50
  -3  -1  -2  585.24   15.00
  -3  -1  -2  579.04   14.80
   3  -1   2  562.94   14.90
  -3  -1  -2  585.14   15.20
   3  -1   2  574.24   14.90
  -3  -1  -2  590.34   15.20
   3  -1   2  580.04   14.30
  -3  -1  -2  564.74   14.80
   3  -1   2  588.94   15.50
   3  -1   2  579.44   15.30
   3  -1   2  574.94   15.40
  -3  -1  -2  574.74   14.30
  -3   1  -2  565.54   15.30
   3   1   2  593.54   14.40
   3   1   2  593.34   14.90
   3   1   2  583.84   15.20
   3   1   2  580.54   14.70
  -3   1  -2  593.14   15.10
  -3   1  -2  582.04   14.60
  -3   1  -2  557.94   15.00
   3   1   2  593.14   14.30
   3   1   2  538.75   15.10
   3   1   2  587.34   15.00
  -3   1  -2  550.54   14.20
   5  -1   2  507.75   14.10
  -5  -1  -2  496.95   12.80
  -5  -1  -2  488.95   13.00
  -5  -1  -2  503.75   13.60
   5  -1   2  479.75   12.80
   5  -1   2  494.25   13.10
   5  -1   2  498.35   14.30
  -5  -1  -2  495.25   13.70
  -5  -1  -2  513.45   13.00
  -5  -1  -2  484.95   13.60
  -5  -1  -2  495.25   13.00
   5   1   2  462.05   12.90
   5   1   2  494.55   14.10
   5   1   2  492.85   12.80
  -5   1  -2  483.55   13.70
  -5   1  -2  505.75   13.00
   5   1   2  500.05   13.70
  -5   1  -2  464.75   13.50
  -5   1  -2  480.75   13.10
  -7  -1  -2   21.40    2.10
  -7  -1  -2   19.30    1.70
  -7   1  -2   17.00    2.00
  -9  -1  -2  165.48    6.00
   9  -1   2  182.58    7.90
  -9  -1  -2  180.88    6.50
  -9  -1  -2  159.18    6.00
   9  -1   2  184.58    7.50
   9  -1   2  181.28    7.00
  -9  -1  -2  176.58    7.00
  -9  -1  -2  171.68    7.40
  -9   1  -2  155.18    6.90
   9   1   2  177.18    6.80
  -9   1  -2  173.98    6.30
   9   1   2  185.38    7.90
   9   1   2  179.38    7.00
  -9   1  -2  168.78    7.30
  11  -1   2   97.99    6.00
  11  -1   2   98.89    5.40
 -11  -1  -2   76.79    3.90
 -11  -1  -2   79.59    5.30
  11  -1   2   92.49    5.10
 -11  -1  -2   89.49    5.00
 -11  -1  -2   86.59    4.70
 -11   1  -2   74.59    4.90
 -11   1  -2   88.59    5.60
  11   1   2   93.99    5.20
  11   1   2   91.39    5.00
  11   1   2   90.09    5.80
 -11   1  -2   84.39    4.40
  13  -1   2   10.70    2.40
 -13  -1  -2   15.10    3.30
  13  -1   2   11.40    2.60
  13  -1   2    9.90    3.10
 -13  -1  -2    9.50    2.30
 -13  -1  -2   14.80    2.60
  13   1   2   10.40    2.40
  13   1   2    9.30    2.80
 -13   1  -2   11.30    2.60
 -13   1  -2   11.00    2.30
 -13   1  -2   10.60    3.10
  13   1   2   12.60    2.60
 -15  -1  -2   40.10    4.50
 -15  -1  -2   37.50    4.60
  15  -1   2   38.40    4.40
  15  -1   2   37.60    4.60
  15  -1   2   29.90    5.10
 -15  -1  -2   39.80    5.30
  15   1   2   36.70    4.50
  15   1   2   27.00    4.10
  15   1   2   39.00    5.30
 -15   1  -2   36.90    5.00
 -15   1  -2   33.40    4.50
 -14  -2   2  173.68    7.80
 -14  -2   2  167.78    9.10
 -14  -2   2  186.28    8.50
  14  -2  -2  170.18    7.80
  14  -2  -2  176.28    9.10
  14  -2  -2  166.28    9.00
  14  -2  -2  173.68    7.60
  14   2  -2  177.68    8.60
 -14   2   2  176.98    9.00
  14   2  -2  166.98    8.80
  14   2  -2  171.38    9.30
 -14   2   2  176.38    8.50
 -14   2   2  172.58    8.90
 -12  -2   2  359.76   12.60
 -12  -2   2  389.46   11.90
  12  -2  -2  356.56   13.30
  12  -2  -2  364.36   12.10
 -12  -2   2  353.06   13.50
  12  -2  -2  351.26   13.40
 -12   2   2  366.16   13.20
  12   2  -2  367.16   13.10
 -12   2   2  348.57   13.10
  12   2  -2  371.56   13.20
 -12   2   2  373.16   12.90
  12   2  -2  348.07   13.50
  10  -2  -2  457.45   13.70
  10  -2  -2  470.35   14.70
 -10  -2   2  427.46   13.70
 -10  -2   2  421.36   14.30
  10  -2  -2  443.36   14.80
 -10  -2   2  424.26   12.90
 -10   2   2  410.76   11.70
 -10   2   2  422.86   14.20
  10   2  -2  436.26   14.70
 -10   2   2  420.26   11.70
 -10   2   2  475.75   14.20
  10   2  -2  435.66   14.00
 -10   2   2  434.16   14.00
  10   2  -2  446.76   14.50
  -8  -2   2  879.61   22.50
  -8  -2   2  860.11   23.40
   8  -2  -2  903.11   24.10
   8  -2  -2  871.51   24.40
   8  -2  -2  911.21   23.70
  -8  -2   2  857.11   23.80
  -8   2   2  868.51   21.50
   8   2  -2  847.92   24.10
  -8   2   2  878.61   23.50
  -8   2   2  850.51   23.80
   8   2  -2  887.91   23.50
   8   2  -2  889.71   24.30
  -8   2   2  851.51   21.40
  -8   2   2  901.71   23.70
   6  -2  -2  682.93   19.10
   6  -2  -2  692.73   18.60
  -6  -2   2  706.33   17.60
  -6  -2   2  684.63   18.60
  -6  -2   2  698.63   18.40
   6  -2  -2  687.83   18.80
  -6   2   2  679.83   18.60
  -6   2   2  671.23   16.70
  -6   2   2  706.83   18.60
   6   2  -2  677.43   18.10
   6   2  -2  680.63   17.40
  -6   2   2  668.13   16.80
   6   2  -2  680.23   18.80
  -6   2   2  667.93   18.00
   6   2  -2  687.03   19.20
   4  -2  -2 6678.53  152.48
   4  -2  -2 6409.16  153.08
   4  -2  -2 6238.78  153.68
  -4  -2   2 6625.24  153.38
  -4  -2   2 6792.92  153.48
  -4  -2   2 6513.35  152.48
   4  -2  -2 6327.37  153.88
  -4  -2   2 6510.85  152.88
   4  -2  -2 6616.84  151.88
   4  -2  -2 6903.11  153.48
   4  -2  -2 6444.56  153.28
  -4   2   2 6601.24  153.48
  -4   2   2 6315.37  153.38
   4   2  -2 6850.71  153.38
  -4   2   2 6556.34  152.08
   4   2  -2 6626.74  154.28
  -4   2   2 7059.49  153.68
  -4   2   2 6829.12  152.68
   4   2  -2 6308.17  152.38
   4   2  -2 6492.65  153.58
   4   2  -2 6331.97  152.78
  -4   2   2 6601.44  154.08
  -2  -2   2 4256.97   98.79
   2  -2  -2 4465.65   99.39
  -2  -2   2 4362.26   98.69
  -2  -2   2 4127.19   98.99
   2  -2  -2 4316.57   99.39
  -2  -2   2 4157.48   99.09
  -2  -2   2 4091.29   99.39
   2  -2  -2 4573.04   99.89
  -2  -2   2 4167.48  100.19
   2  -2  -2 4090.39  100.09
  -2  -2   2 4165.48   99.39
  -2  -2   2 4213.78   99.49
   2  -2  -2 4232.58   98.49
  -2  -2   2 4175.58   99.39
  -2  -2   2 4251.07   98.99
   2  -2  -2 4135.99   98.79
   2  -2  -2 4128.19   99.69
   2   2  -2 4230.18  100.19
   2   2  -2 4110.59   98.99
   2   2  -2 4447.46   98.79
  -2   2   2 4248.17   98.79
   2   2  -2 4055.99   99.49
  -2   2   2 4419.96   98.59
   2   2  -2 4194.88   98.99
  -2   2   2 4153.78   99.69
  -2   2   2 4296.67   99.49
  -2   2   2 4525.65   99.49
  -2   2   2 4587.34   99.99
   2   2  -2 4200.88   99.49
  -2   2   2 4210.38   98.49
  -2   2   2 4273.37  100.29
   0  -2  -2 2026.40   50.69
   0  -2  -2 2171.78   49.99
   0  -2   2 2062.89   49.90
   0  -2   2 2120.19   49.99
   0  -2  -2 2164.68   49.70
   0  -2   2 2168.28   50.29
   0  -2   2 2107.29   50.39
   0  -2  -2 2202.28   50.49
   0  -2  -2 2074.89   49.10
   0  -2   2 2086.39   49.99
   0  -2  -2 2099.89   50.09
   0  -2   2 2037.90   49.80
   0  -2   2 2060.29   49.80
   0  -2  -2 2153.48   49.99
   0  -2  -2 2092.09   49.90
   0   2  -2 2104.49   49.90
   0   2  -2 1974.80   49.70
   0   2   2 2126.99   50.79
   0   2   2 2106.99   50.09
   0   2  -2 2128.19   50.39
   0   2  -2 2084.59   49.90
   0   2   2 2183.28   49.99
   0   2   2 2094.69   49.10
   0   2  -2 2013.90   49.90
   0   2   2 2157.68   49.70
   0   2  -2 2235.28   50.39
   0   2   2 2177.48   50.59
   0   2  -2 2101.29   49.90
   2  -2   2  515.15   12.90
  -2  -2  -2  471.15   12.70
  -2  -2  -2  459.25   13.30
   2  -2   2  515.65   12.80
   2  -2   2  531.05   13.60
   2  -2   2  522.95   13.40
  -2  -2  -2  484.75   13.80
   2  -2   2  528.05   12.80
   2  -2   2  521.35   13.20
   2  -2   2  556.14   13.00
   2   2   2  562.04   12.50
  -2   2  -2  448.16   13.70
   2   2   2  493.75   12.80
  -2   2  -2  445.06   13.20
  -2   2  -2  434.16   12.70
   2   2   2  550.64   13.80
   2   2   2  550.64   13.10
  -4  -2  -2 1883.51   47.40
   4  -2   2 2056.19   46.80
   4  -2   2 2082.89   47.30
  -4  -2  -2 1926.71   47.70
  -4  -2  -2 1867.11   47.80
  -4  -2  -2 1935.41   47.20
  -4  -2  -2 1877.81   47.80
   4  -2   2 2041.90   48.40
  -4  -2  -2 1963.60   47.80
  -4  -2  -2 1967.90   46.40
  -4   2  -2 1941.91   48.60
  -4   2  -2 1951.60   46.80
   4   2   2 2148.29   47.40
   4   2   2 2053.29   47.90
  -4   2  -2 1908.41   47.10
  -4   2  -2 1892.81   47.60
   4   2   2 2024.70   46.40
   4   2   2 2060.69   48.30
   4   2   2 1946.51   47.30
  -4   2  -2 1796.02   47.70
   4   2   2 2026.60   47.90
   4   2   2 2102.59   46.40
  -6  -2  -2  264.17    8.80
  -6  -2  -2  277.37    7.80
   6  -2   2  285.07    9.70
  -6  -2  -2  270.67    8.80
   6  -2   2  265.17    7.70
  -6  -2  -2  263.97    9.00
  -6  -2  -2  270.27    8.70
   6  -2   2  294.07    9.80
   6  -2   2  302.47    8.80
  -6   2  -2  271.47    9.10
  -6   2  -2  259.57    9.60
   6   2   2  305.37    9.70
   6   2   2  290.87    8.60
  -6   2  -2  266.87    9.10
   6   2   2  296.07    9.10
   6   2   2  267.17    7.70
  -6   2  -2  281.57    8.00
   8  -2   2 1748.43   42.80
  -8  -2  -2 1716.23   42.50
  -8  -2  -2 1754.32   43.20
   8  -2   2 1686.83   44.20
   8  -2   2 1782.22   41.20
   8  -2   2 1703.53   43.70
  -8  -2  -2 1785.32   41.50
  -8  -2  -2 1690.53   43.10
   8   2   2 1695.33   42.50
   8   2   2 1636.64   43.80
  -8   2  -2 1698.43   44.10
  -8   2  -2 1672.23   43.20
  -8   2  -2 1704.03   43.30
  -8   2  -2 1689.83   41.40
   8   2   2 1698.93   41.20
   8   2   2 1693.03   42.70
 -10  -2  -2 1287.37   33.10
 -10  -2  -2 1189.18   32.20
  10  -2   2 1304.37   35.40
 -10  -2  -2 1296.17   34.40
  10  -2   2 1251.67   34.40
  10  -2   2 1338.47   33.80
 -10  -2  -2 1341.37   34.00
  10   2   2 1260.17   33.30
 -10   2  -2 1281.87   34.40
  10   2   2 1292.57   33.60
 -10   2  -2 1292.37   31.90
 -10   2  -2 1279.17   34.20
  10   2   2 1257.67   35.10
 -12  -2  -2  595.94   17.60
 -12  -2  -2  628.04   17.90
  12  -2   2  618.74   19.00
 -12  -2  -2  659.93   19.50
  12  -2   2  627.84   20.60
  12  -2   2  629.24   19.60
 -12  -2  -2  604.44   19.70
  12   2   2  617.64   20.50
  12   2   2  615.84   18.50
  12   2   2  613.44   18.90
 -12   2  -2  604.94   17.00
 -12   2  -2  624.64   19.90
 -12   2  -2  619.34   19.50
  14  -2   2  101.79    7.10
 -14  -2  -2  103.99    6.50
  14  -2   2  105.69    6.60
  14  -2   2   99.79    6.40
 -14  -2  -2   99.29    5.60
 -14  -2  -2   99.59    7.00
  14   2   2  100.79    6.50
 -14   2  -2   93.59    6.80
  14   2   2   84.79    5.70
  14   2   2  109.89    7.80
 -14   2  -2  106.09    6.70
  15  -3  -2    5.10    2.60
  15  -3  -2    7.50    3.10
  15  -3  -2   12.50    3.50
 -15  -3   2    9.10    2.90
 -15  -3   2   10.30    3.30
 -15  -3   2   12.60    3.60
  15  -3  -2    5.20    2.60
  15   3  -2   12.20    3.40
 -15   3   2    4.70    3.10
 -15   3   2    6.30    3.30
  15   3  -2   11.50    3.50
  15   3  -2   15.50    3.70
 -15   3   2    6.10    3.20
 -13  -3   2   35.00    3.50
 -13  -3   2   40.20    4.60
 -13  -3   2   32.10    4.10
  13  -3  -2   43.20    4.60
  13  -3  -2   39.20    4.40
  13  -3  -2   35.90    3.70
  13   3  -2   36.30    4.40
 -13   3   2   35.80    4.30
 -13   3   2   43.90    4.70
  13   3  -2   35.10    4.30
  13   3  -2   38.50    4.30
 -13   3   2   35.40    4.30
  11  -3  -2   12.80    2.40
  11  -3  -2    8.60    2.30
 -11  -3   2    9.60    2.60
 -11  -3   2   12.70    2.60
  11  -3  -2   11.80    2.70
 -11  -3   2    9.50    1.80
 -11   3   2    7.60    2.30
  11   3  -2    6.70    2.10
 -11   3   2    8.20    2.20
  11   3  -2    9.20    2.40
  11   3  -2    9.50    2.40
 -11   3   2    8.40    2.40
  -9  -3   2   23.20    2.10
   9  -3  -2   30.00    3.20
   9  -3  -2   35.40    3.20
   9  -3  -2   28.70    2.70
  -9  -3   2   25.80    2.80
  -9  -3   2   18.20    2.60
  -9   3   2   24.40    2.80
   9   3  -2   27.40    2.80
  -9   3   2   21.70    2.80
   9   3  -2   27.00    3.00
  -9   3   2   26.60    2.80
   9   3  -2   35.70    3.30
   7  -3  -2  166.68    7.10
  -7  -3   2  174.88    5.60
   7  -3  -2  182.88    7.10
  -7  -3   2  165.78    6.80
  -7  -3   2  167.08    6.80
   7  -3  -2  175.28    6.90
   7   3  -2  169.18    5.50
   7   3  -2  174.08    7.10
  -7   3   2  179.58    7.10
   7   3  -2  176.68    6.70
  -7   3   2  170.48    6.30
  -7   3   2  162.98    6.90
   7   3  -2  178.08    7.50
   5  -3  -2   54.39    2.60
   5  -3  -2   77.79    3.80
   5   3  -2   68.29    2.70
   5   3  -2   66.29    3.30
   5   3  -2   56.39    3.70
   3  -3  -2   57.89    2.10
   3  -3  -2   58.69    3.10
  -3  -3   2   57.79    2.30
  -3  -3   2   57.49    2.80
  -3  -3   2   58.79    3.10
  -3  -3   2   54.39    2.40
   3  -3  -2   59.39    3.30
  -3  -3   2   56.89    2.30
  -3  -3   2   55.09    2.80
   3  -3  -2   58.99    2.10
   3   3  -2   58.49    2.90
  -3   3   2   56.89    2.20
  -3   3   2   60.79    3.30
  -3   3   2   61.69    3.20
  -3   3   2   56.89    2.20
   3   3  -2   64.89    2.40
   3   3  -2   53.39    2.90
   3   3  -2   57.69    2.80
   3   3  -2   57.59    3.40
  -3   3   2   56.49    2.90
   1  -3  -2 2139.09   53.19
  -1  -3   2 2168.28   51.99
  -1  -3   2 2116.49   52.19
   1  -3  -2 2117.89   51.69
  -1  -3   2 2235.88   52.09
  -1  -3   2 2157.18   51.79
  -1  -3   2 2187.18   51.79
   1  -3  -2 2218.68   52.59
  -1  -3   2 2189.68   52.39
  -1  -3   2 2091.29   51.99
   1  -3  -2 2261.77   51.79
  -1  -3   2 2248.97   54.69
   1  -3  -2 2187.48   53.69
   1  -3  -2 2208.88   52.49
  -1  -3   2 2196.28   52.09
   1   3  -2 2250.87   52.29
  -1   3   2 2202.38   51.99
   1   3  -2 2167.88   51.69
   1   3  -2 2171.98   52.29
   1   3  -2 2228.88   53.09
  -1   3   2 2188.18   52.59
   1   3  -2 2150.98   51.99
  -1   3   2 2217.08   51.79
   1   3  -2 2162.38   52.39
  -1   3   2 2176.28   52.99
   1   3  -2 2221.18   52.19
  -1  -3  -2  138.79    5.20
   1  -3   2  165.08    5.30
   1  -3   2  169.88    5.00
   1  -3   2  158.98    5.40
  -3  -3  -2   52.89    3.10
   3  -3   2   49.90    2.20
  -3  -3  -2   49.60    2.80
   3  -3   2   47.30    2.60
   3  -3   2   52.49    2.40
   3  -3   2   49.30    2.40
   3  -3   2   50.89    3.00
   3  -3   2   49.30    2.60
   3  -3   2   52.09    2.60
  -3  -3  -2   52.19    2.40
  -3   3  -2   53.59    3.30
  -3   3  -2   50.49    2.60
   3   3   2   51.19    2.60
   3   3   2   53.79    2.90
   3   3   2   50.09    2.90
  -3   3  -2   55.39    2.30
   3   3   2   50.59    2.30
  -3   3  -2   50.09    2.80
   5  -3   2  741.13   18.40
  -5  -3  -2  784.32   19.70
  -5  -3  -2  745.03   20.40
   5  -3   2  742.83   19.80
   5  -3   2  713.73   18.40
  -5  -3  -2  775.62   20.70
   5  -3   2  742.23   20.70
   5  -3   2  736.23   18.50
   5   3   2  758.02   19.80
  -5   3  -2  738.33   19.90
   5   3   2  750.62   20.60
  -5   3  -2  754.32   18.60
   5   3   2  772.02   20.10
  -5   3  -2  745.13   20.40
  -5   3  -2  749.42   21.30
  -7  -3  -2  158.58    6.50
   7  -3   2  162.18    6.30
  -7  -3  -2  158.38    6.30
  -7  -3  -2  152.58    4.60
  -7  -3  -2  151.38    6.50
   7  -3   2  166.68    7.20
   7  -3   2  156.38    4.80
  -7   3  -2  161.38    7.30
   7   3   2  150.68    6.10
   7   3   2  165.68    6.30
   7   3   2  150.18    6.80
  -7   3  -2  156.78    4.90
  -7   3  -2  152.48    6.30
  -7   3  -2  136.49    6.40
   9  -3   2  196.38    6.10
  -9  -3  -2  215.98    8.30
  -9  -3  -2  212.98    6.40
   9  -3   2  210.58    8.90
  -9  -3  -2  201.48    8.30
   9  -3   2  205.38    8.20
   9  -3   2  205.68    9.00
  -9  -3  -2  206.18    8.30
   9   3   2  196.08    8.80
   9   3   2  195.58    7.70
   9   3   2  210.88    8.00
  -9   3  -2  209.38    9.20
  -9   3  -2  202.08    8.50
  -9   3  -2  201.58    6.30
  -9   3  -2  209.38    8.40
   9   3   2  202.48    6.30
 -11  -3  -2   32.40    3.70
 -11  -3  -2   36.10    3.40
  11  -3   2   34.60    4.00
  11  -3   2   39.00    3.80
  11  -3   2   36.80    3.70
 -11  -3  -2   32.60    3.70
 -11  -3  -2   33.90    2.70
  11  -3   2   34.50    2.40
 -11   3  -2   41.50    3.90
 -11   3  -2   39.40    3.80
 -11   3  -2   42.60    4.50
  11   3   2   34.70    3.40
  11   3   2   33.90    4.00
  11   3   2   34.70    3.30
  13  -3   2    4.30    2.50
  13  -3   2    4.40    1.90
 -13  -3  -2    1.90    1.80
 -13  -3  -2    3.70    2.20
 -13  -3  -2    3.70    2.30
  13  -3   2    1.70    2.00
 -13  -3  -2    5.40    2.40
 -13   3  -2    1.10    2.20
 -13   3  -2   -1.10    2.10
  13   3   2    2.60    1.90
  13   3   2    0.10    1.90
  13   3   2    2.00    2.00
 -15  -3  -2   34.20    5.10
 -15  -3  -2   36.10    5.30
  15  -3   2   33.80    4.80
  15  -3   2   32.60    4.60
  15  -3   2   33.50    5.60
 -15   3  -2   36.50    5.40
  15   3   2   33.60    4.90
 -15   3  -2   34.70    5.00
  15   3   2   31.10    5.10
 -14  -4   2   78.39    6.70
 -14  -4   2   84.39    6.40
  14  -4  -2   82.89    6.50
  14  -4  -2   73.89    5.20
  14  -4  -2   77.39    6.40
 -14  -4   2   73.89    6.70
 -14   4   2   75.39    6.20
  14   4  -2   71.99    6.40
 -14   4   2   73.69    6.80
  14   4  -2   77.29    6.30
 -14   4   2   82.39    6.60
  14   4  -2   76.39    6.60
  12  -4  -2  168.48    8.80
  12  -4  -2  167.58    7.40
 -12  -4   2  171.28    6.50
  12  -4  -2  160.48    8.50
 -12  -4   2  175.18    8.70
 -12  -4   2  163.28    8.60
  12   4  -2  170.38    8.90
 -12   4   2  185.38    9.20
  12   4  -2  185.28    9.10
 -12   4   2  172.18    8.20
 -12   4   2  181.98    9.00
  12   4  -2  173.38    8.40
  10  -4  -2 1037.10   27.90
  10  -4  -2 1006.20   29.30
  10  -4  -2 1017.50   29.00
 -10  -4   2 1028.60   28.70
 -10  -4   2 1028.90   28.60
 -10  -4   2 1032.10   25.80
  10   4  -2  990.30   28.90
 -10   4   2 1051.39   27.80
  10   4  -2 1059.49   29.80
  10   4  -2 1010.00   28.30
 -10   4   2  985.10   28.90
 -10   4   2 1032.20   29.30
  -8  -4   2  744.43   21.70
   8  -4  -2  758.72   22.00
   8  -4  -2  740.83   22.10
   8  -4  -2  756.52   21.40
  -8  -4   2  759.42   19.10
  -8  -4   2  788.02   21.60
   8   4  -2  756.22   22.00
  -8   4   2  761.72   22.30
   8   4  -2  762.72   21.30
  -8   4   2  733.03   21.80
  -8   4   2  764.82   20.60
   8   4  -2  713.53   19.00
   8   4  -2  793.22   22.90
  -6  -4   2  530.75   13.70
   6  -4  -2  517.85   14.20
   6  -4  -2  560.24   16.20
   6  -4  -2  554.84   16.40
  -6  -4   2  523.85   15.40
  -6  -4   2  528.25   15.90
  -6  -4   2  536.25   13.80
   6  -4  -2  545.95   16.10
  -6   4   2  536.25   16.00
  -6   4   2  524.85   16.40
   6   4  -2  540.65   16.00
  -6   4   2  535.95   14.50
   6   4  -2  553.14   15.60
   6   4  -2  531.75   16.80
  -4  -4   2 1183.18   31.40
  -4  -4   2 1237.48   29.70
   4  -4  -2 1205.48   29.30
   4  -4  -2 1230.88   31.90
  -4  -4   2 1216.68   29.70
  -4  -4   2 1208.58   30.80
   4  -4  -2 1254.57   31.90
  -4  -4   2 1207.48   29.60
  -4   4   2 1248.28   31.40
   4   4  -2 1257.37   31.30
   4   4  -2 1221.08   32.50
   4   4  -2 1266.27   31.60
   4   4  -2 1259.17   30.00
  -4   4   2 1227.38   32.10
  -4   4   2 1252.37   29.60
  -4   4   2 1188.88   31.90
   2  -4  -2 1779.62   43.80
   2  -4  -2 1791.02   42.20
  -2  -4   2 1769.82   42.80
  -2  -4   2 1758.32   43.30
  -2  -4   2 1706.93   42.10
  -2  -4   2 1816.42   42.80
  -2  -4   2 1790.22   42.30
   2  -4  -2 1766.02   44.40
   2   4  -2 1729.53   43.00
  -2   4   2 1790.42   43.00
   2   4  -2 1790.22   43.40
  -2   4   2 1769.42   42.20
  -2   4   2 1773.62   43.90
   2   4  -2 1724.13   44.30
  -2   4   2 1739.13   44.20
   2   4  -2 1792.52   43.70
   0  -4   2  688.93   17.80
   0  -4  -2  700.73   18.00
   0  -4   2  658.83   17.60
   0  -4   2  700.43   18.10
   0  -4  -2  682.43   18.60
   0  -4   2  688.63   19.10
   0  -4  -2  667.93   19.30
   0  -4  -2  694.33   17.30
   0   4  -2  683.13   17.70
   0   4  -2  683.53   18.60
   0   4  -2  686.03   17.80
   0   4   2  713.63   17.50
   0   4   2  703.63   19.00
   0   4  -2  713.63   18.80
   0   4   2  691.13   18.90
   0   4  -2  661.83   18.30
   0   4   2  702.73   18.70
   0   4   2  682.63   17.90
   0   4  -2  689.73   19.00
   0   4  -2  701.33   18.00
  -2  -4  -2 4059.89   95.39
   2  -4   2 4020.50   97.19
   2  -4   2 4152.98   97.39
  -2  -4  -2 4136.89   98.49
   2  -4   2 3950.90   95.99
  -2  -4  -2 4168.88   95.29
  -2  -4  -2 4204.38   97.29
   2  -4   2 3904.81   96.69
  -2   4  -2 4232.38   97.89
  -2   4  -2 4291.17   97.19
  -2   4  -2 4216.48   96.29
  -2   4  -2 4019.10   97.19
   2   4   2 4246.58   97.79
  -2   4  -2 4027.10   97.99
   2   4   2 4079.79   97.79
   2   4   2 4086.09   95.29
  -2   4  -2 3985.00   96.49
   2   4   2 4161.88   95.39
   2   4   2 4099.39   97.29
   4  -4   2 3779.82   88.09
   4  -4   2 3663.83   88.79
  -4  -4  -2 3747.53   90.29
   4  -4   2 3581.34   87.19
   4  -4   2 3670.13   89.69
  -4  -4  -2 3846.62   89.39
   4  -4   2 3663.83   88.09
  -4  -4  -2 3848.81   87.89
  -4   4  -2 3643.44   87.19
  -4   4  -2 3878.11   89.29
   4   4   2 3748.02   88.89
   4   4   2 3785.92   87.69
   4   4   2 3727.93   88.99
   4   4   2 3757.82   89.59
  -4   4  -2 3719.33   88.39
  -4   4  -2 3677.73   90.29
   6  -4   2 1036.60   26.40
  -6  -4  -2 1081.79   27.60
  -6  -4  -2 1132.29   29.40
   6  -4   2 1055.79   26.40
   6  -4   2 1070.09   28.10
  -6  -4  -2 1082.19   28.70
   6  -4   2 1018.90   25.70
   6  -4   2 1080.69   29.20
  -6   4  -2 1103.19   28.80
  -6   4  -2 1025.10   29.60
   6   4   2 1093.49   29.10
  -6   4  -2 1032.90   25.80
   6   4   2 1092.29   28.00
  -6   4  -2 1074.99   27.90
   6   4   2 1116.39   28.20
  -8  -4  -2  464.95   14.30
   8  -4   2  480.85   14.60
  -8  -4  -2  446.26   14.80
   8  -4   2  477.55   15.60
  -8  -4  -2  455.35   15.10
  -8   4  -2  442.56   15.80
  -8   4  -2  461.25   14.40
   8   4   2  467.25   15.40
   8   4   2  471.95   14.40
  -8   4  -2  456.45   15.00
   8   4   2  478.05   14.10
 -10  -4  -2  603.84   19.10
  10  -4   2  617.74   20.20
  10  -4   2  629.54   18.80
 -10  -4  -2  617.54   18.80
  10  -4   2  617.44   19.90
 -10  -4  -2  603.34   19.10
 -10   4  -2  585.54   19.30
 -10   4  -2  599.74   20.20
  10   4   2  619.54   17.90
 -10   4  -2  624.14   18.90
  10   4   2  611.14   19.90
  10   4   2  616.34   18.70
 -12  -4  -2  115.09    6.90
 -12  -4  -2  110.29    6.80
  12  -4   2  109.79    6.50
  12  -4   2  113.79    7.40
  12  -4   2  112.09    7.00
 -12  -4  -2  105.29    6.50
 -12   4  -2  106.39    7.50
 -12   4  -2  112.39    6.90
 -12   4  -2  103.19    6.70
  12   4   2  108.99    5.70
  12   4   2  104.99    7.00
  12   4   2  105.79    6.40
 -14  -4  -2   95.29    6.60
 -14  -4  -2  118.79    7.80
  14  -4   2  101.89    6.70
  14  -4   2  115.89    7.40
 -14  -4  -2  105.89    7.40
  14  -4   2  110.29    7.90
 -14   4  -2  110.99    7.50
  14   4   2  104.49    7.80
  14   4   2  105.19    6.90
 -14   4  -2  101.19    7.50
 -13  -5   2    1.30    2.30
 -13  -5   2    4.70    3.00
  13  -5  -2    6.10    2.40
  13  -5  -2    9.50    3.20
  13  -5  -2    1.50    2.50
 -13   5   2    3.70    2.80
  13   5  -2    0.60    2.30
  13   5  -2    8.10    3.40
 -13   5   2    6.10    3.10
 -13   5   2    7.10    3.00
  13   5  -2    7.30    3.30
  11  -5  -2   -0.60    1.80
  11  -5  -2    5.60    2.10
  11  -5  -2   -2.30    1.70
 -11  -5   2    0.60    2.20
 -11  -5   2    1.20    1.80
  11   5  -2    0.40    2.30
 -11   5   2   -3.40    1.80
 -11   5   2    1.80    2.20
 -11   5   2   -1.90    1.80
  11   5  -2    0.50    1.70
  11   5  -2    0.10    1.90
  -9  -5   2   13.70    2.70
   9  -5  -2   19.00    3.20
   9  -5  -2   16.80    2.90
  -9  -5   2   13.30    2.60
   9  -5  -2   15.80    3.10
   9   5  -2   11.80    2.40
  -9   5   2   17.60    2.90
  -9   5   2   21.40    3.30
   9   5  -2   19.20    3.30
   9   5  -2   16.80    3.40
  -9   5   2   15.10    2.50
   7  -5  -2   15.80    2.50
  -7  -5   2    9.10    1.90
  -7  -5   2    9.50    2.10
   7  -5  -2   11.50    2.50
   7  -5  -2   14.60    2.60
  -7   5   2    9.50    1.70
   7   5  -2   11.80    2.70
  -7   5   2    9.00    2.10
   7   5  -2   10.30    2.20
   7   5  -2   16.10    2.30
  -7   5   2    8.60    2.10
   5  -5  -2  860.81   24.30
   5  -5  -2  868.41   24.40
  -5  -5   2  865.71   21.20
  -5  -5   2  868.61   21.90
   5  -5  -2  847.82   24.30
  -5  -5   2  867.91   24.00
   5  -5  -2  887.21   21.30
  -5  -5   2  861.81   23.10
  -5   5   2  899.91   24.70
   5   5  -2  877.01   24.10
   5   5  -2  882.01   23.80
   5   5  -2  882.91   25.20
  -5   5   2  866.41   21.50
   5   5  -2  884.21   22.10
  -5   5   2  852.61   23.70
  -5   5   2  855.31   24.80
  -3  -5   2    2.10    0.80
  -3  -5   2    3.80    1.10
  -3  -5   2    4.40    1.10
   3  -5  -2    6.40    1.70
   3  -5  -2    3.70    0.90
  -3  -5   2    1.30    0.90
   3  -5  -2    8.80    1.90
  -3   5   2    3.10    1.40
   3   5  -2    3.60    1.20
  -3   5   2    3.10    0.90
  -3   5   2    3.60    1.30
   3   5  -2    3.50    1.10
   3   5  -2    3.30    1.30
   3   5  -2    3.00    1.30
  -3   5   2    4.10    1.30
  -1  -5   2  195.08    8.00
  -1  -5   2  186.68    6.60
  -1  -5   2  193.88    6.90
   1  -5  -2  197.08    8.00
   1  -5  -2  188.88    7.40
  -1  -5   2  198.78    6.50
   1  -5  -2  196.98    6.40
   1   5  -2  194.58    6.30
  -1   5   2  197.58    7.90
  -1   5   2  199.58    7.70
   1   5  -2  199.78    7.40
  -1   5   2  197.58    6.50
   1   5  -2  194.48    7.80
   1   5  -2  190.78    7.30
   1   5  -2  202.68    7.30
  -1  -5  -2    7.80    1.40
   1  -5   2    8.00    1.30
   1  -5   2   11.80    1.70
  -1  -5  -2    6.90    1.70
   1  -5   2    9.20    1.80
  -1  -5  -2    9.00    1.20
  -1  -5  -2    7.70    1.60
  -1   5  -2    8.30    1.40
  -1   5  -2   12.30    2.00
  -1   5  -2    6.20    1.40
   1   5   2    7.60    1.50
   1   5   2    6.60    1.40
  -3  -5  -2   11.60    1.20
  -3  -5  -2    9.70    1.80
   3  -5   2   12.00    1.50
   3  -5   2   10.20    1.80
   3  -5   2   12.80    1.40
   3  -5   2   12.40    2.10
   3  -5   2    9.80    2.00
  -3  -5  -2   11.50    2.30
   3   5   2    9.60    1.90
  -3   5  -2   12.20    1.70
   3   5   2   10.90    1.80
  -3   5  -2   12.40    2.00
  -3   5  -2   13.50    2.20
  -3   5  -2   12.70    1.30
  -3   5  -2    9.30    1.80
   3   5   2   14.90    1.90
   3   5   2   10.10    1.20
  -5  -5  -2  484.85   15.60
   5  -5   2  460.75   12.00
   5  -5   2  450.25   13.30
   5  -5   2  472.95   15.10
  -5  -5  -2  462.65   13.00
   5  -5   2  454.95   12.00
  -5  -5  -2  462.15   14.50
   5  -5   2  474.25   14.30
  -5   5  -2  462.55   14.40
  -5   5  -2  445.16   12.00
  -5   5  -2  448.16   15.40
   5   5   2  468.25   14.10
   5   5   2  458.25   14.90
   5   5   2  493.15   14.40
  -5   5  -2  456.85   13.40
   7  -5   2  102.49    4.40
  -7  -5  -2  103.79    5.70
  -7  -5  -2  100.59    6.00
   7  -5   2   98.19    5.30
   7  -5   2  106.09    6.00
   7  -5   2   95.29    4.20
  -7  -5  -2  107.29    5.00
  -7   5  -2   99.89    6.30
   7   5   2  104.79    5.20
   7   5   2  102.59    5.90
  -7   5  -2   97.39    5.60
  -7   5  -2  108.09    5.20
   7   5   2  101.19    5.40
  -9  -5  -2   44.10    4.10
  -9  -5  -2   42.60    4.20
   9  -5   2   36.40    3.60
  -9  -5  -2   41.40    3.70
   9  -5   2   40.00    4.00
  -9   5  -2   39.70    3.70
   9   5   2   40.30    4.10
   9   5   2   37.50    3.30
   9   5   2   38.10    3.60
  -9   5  -2   41.30    4.60
  -9   5  -2   50.19    4.30
  11  -5   2   20.70    3.80
 -11  -5  -2   12.00    2.70
  11  -5   2    8.80    2.50
 -11  -5  -2   12.50    3.20
  11  -5   2    8.70    2.60
 -11   5  -2    9.00    3.00
  11   5   2    8.30    2.70
 -11   5  -2    8.40    2.70
 -11   5  -2   21.50    3.70
  11   5   2    9.00    2.40
  11   5   2    9.00    2.50
 -13  -5  -2   19.90    3.80
 -13  -5  -2   16.50    3.60
  13  -5   2   14.10    3.40
  13  -5   2   13.80    3.50
 -13  -5  -2   18.30    4.00
  13  -5   2   13.10    3.30
 -13   5  -2    9.20    3.30
  13   5   2   13.80    3.50
 -13   5  -2   15.20    3.90
  13   5   2   20.70    4.10
 -13   5  -2   12.00    3.70
 -12  -6   2  158.68   10.00
  12  -6  -2  154.08    8.90
 -12  -6   2  141.89    8.50
 -12  -6   2  152.28    8.80
  12  -6  -2  154.38    9.00
  12  -6  -2  147.59    7.50
  12   6  -2  154.08    8.90
  12   6  -2  149.88    9.20
 -12   6   2  152.68    8.90
  12   6  -2  143.99    8.30
 -12   6   2  152.88    9.60
 -10  -6   2   41.70    4.50
  10  -6  -2   45.70    4.70
  10  -6  -2   42.40    4.50
  10  -6  -2   41.10    4.10
 -10  -6   2   40.30    4.30
 -10  -6   2   41.90    5.20
 -10   6   2   42.00    4.50
  10   6  -2   36.20    4.20
 -10   6   2   33.80    4.90
  10   6  -2   49.40    5.20
  10   6  -2   43.80    4.40
  -8  -6   2   78.99    5.00
   8  -6  -2   82.99    5.70
  -8  -6   2   82.39    5.50
   8  -6  -2   80.99    5.30
   8  -6  -2   87.69    5.70
  -8  -6   2   76.99    6.20
   8   6  -2   84.59    6.10
   8   6  -2   77.49    5.10
  -8   6   2   72.89    5.90
   8   6  -2   88.09    5.60
  -8   6   2   79.69    5.50
   6  -6  -2 1280.27   33.60
  -6  -6   2 1195.88   35.20
  -6  -6   2 1176.98   32.30
   6  -6  -2 1243.98   33.80
   6  -6  -2 1227.98   33.70
  -6  -6   2 1223.88   32.00
  -6  -6   2 1242.88   33.40
   6   6  -2 1215.98   30.70
  -6   6   2 1251.87   34.20
   6   6  -2 1240.08   33.50
   6   6  -2 1246.08   33.10
  -6   6   2 1207.08   34.40
   6   6  -2 1244.78   34.80
  -6   6   2 1209.28   32.80
  -4  -6   2  240.68    9.10
   4  -6  -2  241.78    9.70
   4  -6  -2  233.58    9.40
  -4  -6   2  245.08    8.20
  -4  -6   2  230.48   10.20
  -4   6   2  227.28    9.80
  -4   6   2  235.38    9.60
   4   6  -2  246.18    9.40
  -4   6   2  243.98    8.80
   4   6  -2  240.18    9.20
   4   6  -2  247.38    8.40
   4   6  -2  239.48   10.10
   2  -6  -2 1828.32   43.70
   2  -6  -2 1800.42   46.10
   2  -6  -2 1804.92   46.80
  -2  -6   2 1832.92   45.30
  -2  -6   2 1813.72   44.10
  -2  -6   2 1594.24   44.80
  -2  -6   2 1851.41   47.20
  -2  -6   2 1793.32   43.40
   2   6  -2 1850.21   47.00
   2   6  -2 1766.12   45.80
   2   6  -2 1836.42   45.40
  -2   6   2 1845.52   46.50
  -2   6   2 1758.92   46.60
   2   6  -2 1827.72   46.00
  -2   6   2 1832.02   44.50
   2   6  -2 1801.52   43.40
   0  -6  -2 2760.22   65.39
   0  -6  -2 2715.93   67.99
   0  -6   2 2741.63   64.79
   0  -6   2 2651.73   65.49
   0  -6  -2 2721.43   66.89
   0  -6   2 2761.62   67.59
   0   6   2 2731.53   64.59
   0   6  -2 2608.94   66.49
   0   6  -2 2755.02   64.99
   0   6   2 2695.53   67.29
   0   6   2 2699.53   67.29
   0   6  -2 2654.13   66.79
   0   6  -2 2740.23   67.09
   0   6   2 2703.23   66.89
   2  -6   2 1799.42   45.50
   2  -6   2 1796.12   43.50
  -2  -6  -2 1722.93   46.60
  -2  -6  -2 1812.12   44.70
   2  -6   2 1786.52   45.20
  -2   6  -2 1753.72   46.00
  -2   6  -2 1827.42   44.40
  -2   6  -2 1731.53   45.70
   2   6   2 1744.83   45.80
   2   6   2 1780.72   45.30
  -2   6  -2 1800.22   43.40
   2   6   2 1782.42   45.50
  -4  -6  -2  168.98    5.50
  -4  -6  -2  158.28    8.00
   4  -6   2  164.58    7.20
   4  -6   2  164.08    7.70
   4  -6   2  165.68    5.60
   4  -6   2  169.68    5.50
   4  -6   2  166.08    6.90
  -4  -6  -2  176.18    7.30
   4   6   2  172.58    7.30
  -4   6  -2  166.48    6.20
  -4   6  -2  167.38    7.90
   4   6   2  168.48    7.70
   4   6   2  161.68    5.30
  -4   6  -2  170.08    7.10
   4   6   2  172.48    7.30
  -4   6  -2  158.38    8.00
   6  -6   2 1417.06   37.40
   6  -6   2 1442.66   38.60
  -6  -6  -2 1426.36   35.60
  -6  -6  -2 1467.55   39.40
   6  -6   2 1397.06   36.10
  -6  -6  -2 1394.76   37.70
  -6   6  -2 1361.76   39.20
  -6   6  -2 1433.26   37.70
   6   6   2 1411.66   38.30
   6   6   2 1439.66   37.10
   6   6   2 1445.86   37.50
  -6   6  -2 1413.46   36.10
  -8  -6  -2  248.48   11.10
  -8  -6  -2  257.17    9.20
   8  -6   2  242.18   10.70
   8  -6   2  243.08    8.30
   8  -6   2  249.68   10.10
  -8  -6  -2  246.98   10.40
  -8   6  -2  251.77    9.40
   8   6   2  249.88   10.80
  -8   6  -2  252.57   10.50
  -8   6  -2  237.88   11.30
   8   6   2  254.57   10.10
   8   6   2  253.37    9.50
  10  -6   2  101.29    6.90
  10  -6   2  105.69    6.50
 -10  -6  -2   94.89    6.90
 -10  -6  -2  114.59    7.00
 -10  -6  -2  106.29    6.10
 -10   6  -2  105.39    6.20
  10   6   2  100.69    5.70
  10   6   2  110.89    7.10
  10   6   2  102.09    6.50
 -10   6  -2  107.49    6.90
 -10   6  -2  106.99    7.60
  12  -6   2  154.08    9.50
  12  -6   2  154.48    9.30
 -12  -6  -2  165.28    9.50
 -12  -6  -2  152.88    8.40
 -12  -6  -2  156.78    9.10
  12  -6   2  164.58    8.70
 -12   6  -2  160.58    9.30
  12   6   2  144.89    9.10
 -12   6  -2  167.88   10.20
  12   6   2  154.68    8.70
 -12   6  -2  169.78    8.80
  11  -7  -2    7.20    3.10
 -11  -7   2   11.30    3.40
 -11  -7   2   14.10    3.50
 -11  -7   2    9.70    3.70
  11  -7  -2   12.90    3.40
  11  -7  -2   12.50    3.30
  11   7  -2   11.80    3.40
  11   7  -2   12.50    3.60
  11   7  -2    6.90    3.10
 -11   7   2    7.30    3.60
 -11   7   2   14.80    3.70
   9  -7  -2   17.50    3.60
  -9  -7   2    8.90    3.20
  -9  -7   2   10.30    2.60
   9  -7  -2   13.10    3.10
  -9  -7   2   12.60    3.00
   9  -7  -2   10.30    3.00
  -9   7   2   12.50    3.40
   9   7  -2   11.40    3.40
   9   7  -2   12.80    3.30
  -9   7   2    9.90    3.00
   9   7  -2    6.00    2.30
   7  -7  -2    2.20    2.00
  -7  -7   2   -1.20    2.00
  -7  -7   2    6.00    2.30
  -7  -7   2    0.90    1.80
   7  -7  -2   -1.10    1.80
   7  -7  -2    2.00    2.10
   7   7  -2    1.60    2.00
   7   7  -2    0.10    1.80
  -7   7   2    2.40    2.20
  -7   7   2    2.10    2.20
   7   7  -2    1.70    2.30
  -7   7   2    8.70    2.90
   5  -7  -2  258.57   10.80
  -5  -7   2  261.57   11.90
  -5  -7   2  264.47   10.40
  -5  -7   2  272.37    9.40
   5  -7  -2  261.47   10.80
   5   7  -2  271.97    9.40
  -5   7   2  259.57   11.40
   5   7  -2  266.97   10.80
  -5   7   2  265.67   11.20
   5   7  -2  261.17   11.70
   5   7  -2  272.67   10.70
  -5   7   2  283.27   10.40
  -3  -7   2   27.50    3.70
   3  -7  -2   29.20    3.30
  -3  -7   2   28.30    2.10
  -3  -7   2   27.70    2.50
   3  -7  -2   21.60    3.30
  -3  -7   2   26.90    3.10
   3  -7  -2   26.00    2.20
  -3   7   2   27.10    3.50
   3   7  -2   29.20    3.40
   3   7  -2   24.30    2.90
  -3   7   2   34.20    3.10
  -3   7   2   25.00    3.40
   3   7  -2   38.30    3.70
  -1  -7   2    7.10    1.50
   1  -7  -2   11.80    2.80
  -1  -7   2   10.30    2.00
   1  -7  -2    7.10    1.60
  -1  -7   2    6.90    2.30
   1  -7  -2   10.80    2.50
  -1   7   2   11.70    2.60
   1   7  -2   12.00    2.40
   1   7  -2    7.60    2.10
   1   7  -2    7.30    1.60
  -1   7   2    9.20    1.80
   1   7  -2   11.60    2.40
  -1   7   2   10.30    2.60
  -1  -7  -2    6.80    1.80
   1  -7   2    4.90    1.40
  -1  -7  -2    4.70    1.40
   1  -7   2    3.60    1.40
  -1  -7  -2    1.40    1.60
   1  -7   2    7.00    2.20
  -1  -7  -2    5.00    1.60
   1  -7   2    3.20    1.50
  -1   7  -2    6.10    2.00
   1   7   2    5.90    2.00
  -1   7  -2    2.90    1.70
  -1   7  -2    5.80    1.90
   1   7   2    5.40    1.90
   1   7   2    6.10    1.40
   1   7   2    5.00    1.70
  -1   7  -2    6.60    1.70
   3  -7   2    6.70    2.00
   3  -7   2    6.50    1.40
  -3  -7  -2    4.10    2.10
   3  -7   2    9.10    2.20
  -3  -7  -2    8.40    2.10
   3   7   2    8.40    2.10
  -3   7  -2    7.90    1.70
  -3   7  -2    7.50    2.40
   3   7   2    7.40    2.10
   3   7   2   11.30    2.50
  -3   7  -2    8.30    2.00
  -3   7  -2    4.50    1.90
   5  -7   2  230.58    8.90
   5  -7   2  217.08    6.70
   5  -7   2  228.68    9.30
  -5  -7  -2  219.48   10.60
  -5  -7  -2  222.88    9.40
   5  -7   2  221.38   10.00
  -5  -7  -2  223.38    7.10
  -5   7  -2  218.78    9.10
  -5   7  -2  206.78   10.00
   5   7   2  229.78    9.40
  -5   7  -2  226.38    8.00
  -5   7  -2  210.88   10.30
   5   7   2  217.28    9.90
   5   7   2  228.48    9.20
  -7  -7  -2    2.90    1.70
   7  -7   2    3.80    1.80
  -7  -7  -2    1.70    2.20
   7  -7   2    0.30    1.80
  -7  -7  -2    3.00    2.30
   7  -7   2    1.10    1.70
   7   7   2    1.50    1.80
  -7   7  -2    0.80    1.90
  -7   7  -2   -0.50    2.10
  -7   7  -2    2.60    1.80
   7   7   2    3.00    2.10
   7   7   2   -0.10    1.50
   9  -7   2   19.20    2.90
  -9  -7  -2   19.00    4.20
  -9  -7  -2   19.70    3.60
   9  -7   2   20.60    3.60
   9  -7   2   18.90    3.70
  -9  -7  -2   14.10    2.90
  -9   7  -2   18.80    4.10
   9   7   2   22.30    3.50
   9   7   2   19.40    3.50
  -9   7  -2   20.80    3.90
   9   7   2   20.70    4.00
  -9   7  -2   19.50    3.40
 -11  -7  -2   14.70    4.10
  11  -7   2   16.30    3.70
 -11  -7  -2   16.70    3.90
  11  -7   2   13.00    3.60
 -11  -7  -2   14.70    3.70
 -11   7  -2   14.00    3.50
 -11   7  -2   19.30    4.50
  11   7   2   17.40    3.60
 -11   7  -2   13.50    3.90
  11   7   2   18.30    4.20
  -8  -8   2  142.69    9.70
  -8  -8   2  157.58    8.80
   8  -8  -2  151.88    8.50
  -8  -8   2  156.18    7.60
   8  -8  -2  150.78    8.60
   8  -8  -2  164.28    9.10
   8   8  -2  154.98    8.70
  -8   8   2  145.79    8.40
  -8   8   2  151.58    9.60
   8   8  -2  145.49    8.40
  -6  -8   2  399.66   14.80
   6  -8  -2  409.66   15.40
   6  -8  -2  396.36   15.00
   6  -8  -2  429.86   15.80
  -6  -8   2  391.46   16.60
  -6  -8   2  398.96   13.20
   6   8  -2  417.46   15.30
  -6   8   2  382.46   16.10
  -6   8   2  401.26   15.90
   6   8  -2  402.26   14.90
  -6   8   2  422.26   14.60
   4  -8  -2  291.77   12.00
  -4  -8   2  289.07   13.10
   4  -8  -2  301.67   12.40
  -4  -8   2  294.77   10.00
  -4  -8   2  292.97   11.50
   4   8  -2  296.07   12.00
  -4   8   2  297.47   12.60
  -4   8   2  305.77   11.10
  -4   8   2  290.57   12.70
   4   8  -2  292.97   11.00
   4   8  -2  310.97   12.20
   2  -8  -2  650.63   21.50
   2  -8  -2  636.74   17.70
  -2  -8   2  630.34   17.70
  -2  -8   2  656.03   21.80
  -2  -8   2  647.44   19.60
   2  -8  -2  647.24   20.60
  -2  -8   2  644.94   17.20
   2   8  -2  654.33   20.60
  -2   8   2  640.44   21.20
   2   8  -2  654.63   20.20
   2   8  -2  646.74   20.70
  -2   8   2  647.34   21.50
  -2   8   2  682.33   18.70
   0  -8  -2  212.38    9.60
   0  -8  -2  203.08   10.20
   0  -8   2  208.68    8.30
   0  -8   2  207.68    7.20
   0  -8   2  212.88   10.00
   0  -8   2  223.98    9.80
   0  -8  -2  220.38    8.20
   0   8  -2  214.78    9.50
   0   8   2  217.38    9.90
   0   8   2  214.28   10.00
   0   8  -2  214.18    7.70
   0   8  -2  208.48    9.60
   0   8  -2  206.28    9.50
  -2  -8  -2  681.53   22.90
  -2  -8  -2  702.33   21.70
   2  -8   2  701.93   19.10
   2  -8   2  663.83   18.20
   2  -8   2  696.43   21.30
   2  -8   2  703.13   21.60
  -2  -8  -2  677.43   20.10
  -2   8  -2  665.93   22.00
  -2   8  -2  663.93   22.00
   2   8   2  668.63   21.40
  -2   8  -2  705.23   19.80
   2   8   2  697.23   21.60
   2   8   2  665.43   21.80
  -4  -8  -2  426.36   14.50
   4  -8   2  413.06   14.80
  -4  -8  -2  415.66   16.50
   4  -8   2  396.26   12.10
   4  -8   2  419.06   11.90
   4  -8   2  409.16   15.50
   4  -8   2  418.66   14.60
  -4   8  -2  426.86   14.10
   4   8   2  395.26   15.30
  -4   8  -2  421.36   15.90
   4   8   2  422.76   15.00
  -4   8  -2  392.06   15.90
   4   8   2  413.26   14.70
   6  -8   2  522.75   16.80
  -6  -8  -2  520.15   14.50
  -6  -8  -2  530.45   17.90
  -6  -8  -2  515.65   19.60
   6  -8   2  539.45   17.90
   6  -8   2  521.05   18.80
   6   8   2  529.55   18.70
  -6   8  -2  522.45   19.60
   6   8   2  527.45   17.40
   6   8   2  532.45   18.00
  -6   8  -2  532.55   17.80
  -8  -8  -2  163.18    7.10
   8  -8   2  156.88    8.60
  -8  -8  -2  174.88    9.10
  -8  -8  -2  150.98    9.70
   8  -8   2  174.28    9.70
   8  -8   2  167.68    7.60
   8   8   2  166.28    9.30
  -8   8  -2  158.18   10.00
   8   8   2  164.78    8.20
  -8   8  -2  156.18    8.70
   8   8   2  169.28    9.00
  -5  -9   2   85.79    6.40
  -5  -9   2   80.99    5.10
   5  -9  -2   75.99    6.20
   5  -9  -2   82.19    6.60
   5  -9  -2   82.29    6.60
  -5  -9   2   82.39    7.30
  -5   9   2   75.69    6.90
  -5   9   2   81.09    6.80
   5   9  -2   72.49    6.30
  -5   9   2   80.29    6.10
   5   9  -2   77.39    6.30
   3  -9  -2    3.90    2.60
  -3  -9   2    3.80    2.50
   3  -9  -2    5.50    2.70
  -3  -9   2    5.70    2.10
   3  -9  -2    5.50    1.90
  -3  -9   2    3.50    2.70
   3   9  -2    7.50    2.70
  -3   9   2    4.20    2.50
   3   9  -2    6.60    2.80
  -3   9   2    9.00    3.10
  -3   9   2    3.50    2.70
   3   9  -2   -1.20    2.50
   1  -9  -2   14.90    3.30
  -1  -9   2   14.50    3.40
  -1  -9   2   18.20    2.50
   1  -9  -2   13.50    2.50
  -1  -9   2   17.50    3.10
  -1  -9   2   13.40    2.20
  -1  -9   2   17.50    3.80
   1  -9  -2   11.50    3.40
   1   9  -2   17.10    3.70
   1   9  -2   13.10    3.40
  -1   9   2   15.40    3.40
  -1   9   2   16.00    3.60
   1   9  -2   17.00    3.60
   1  -9   2    0.20    1.50
   1  -9   2    3.60    2.40
  -1  -9  -2    0.40    1.90
   1  -9   2    0.60    2.10
   1  -9   2   -0.10    1.90
  -1  -9  -2   -0.10    2.20
  -1  -9  -2    1.60    2.10
   1   9   2    5.90    2.50
  -1   9  -2    2.30    2.30
  -1   9  -2    6.70    3.00
   1   9   2   -2.70    2.00
  -1   9  -2   -3.30    1.70
  -3  -9  -2   22.80    4.70
   3  -9   2   24.70    4.20
   3  -9   2   18.00    3.70
  -3  -9  -2   30.00    4.30
   3  -9   2   19.30    3.70
   3  -9   2   21.20    3.00
   3  -9   2   20.70    3.00
  -3  -9  -2   20.70    4.00
  -3   9  -2   22.60    4.30
   3   9   2   24.60    4.00
  -3   9  -2   19.30    4.00
   3   9   2   20.10    3.90
  -3   9  -2   22.60    3.50
   3   9   2   20.00    4.10
  -5  -9  -2   62.19    6.50
   5  -9   2   59.59    5.60
  -5  -9  -2   57.59    5.40
   5  -9   2   59.89    5.80
   5  -9   2   60.49    5.50
   5   9   2   68.19    6.00
  -5   9  -2   64.59    6.40
  -5   9  -2   66.69    5.60
   5   9   2   57.69    5.70
  -5   9  -2   62.89    6.20
   5   9   2   65.79    5.80
  14   0  -3    3.70    2.30
 -14   0   3    2.50    2.50
  14   0  -3    0.90    2.20
 -14   0   3    1.60    2.50
  14   0  -3    5.80    2.50
 -14   0   3    2.40    2.10
  12   0  -3    2.70    1.70
 -12   0   3    2.10    1.60
  12   0  -3    2.30    1.80
  12   0  -3   -2.50    1.60
  12   0  -3    1.10    1.70
 -12   0   3    0.90    2.00
 -12   0   3    6.90    2.10
  12   0  -3    0.30    1.10
  10   0  -3    1.80    0.90
  10   0  -3    0.50    1.20
  10   0  -3    1.00    1.10
 -10   0   3    0.10    1.00
  10   0  -3    2.40    1.20
 -10   0   3   -0.10    1.10
 -10   0   3    1.10    1.30
  10   0  -3    2.10    1.50
 -10   0   3    1.20    1.10
  -8   0   3    0.30    1.10
  -8   0   3    1.30    0.80
  -8   0   3    3.30    1.30
   8   0  -3    0.20    1.00
  -8   0   3   -0.10    0.80
   8   0  -3    1.60    0.90
   8   0  -3    1.00    0.80
   8   0  -3    1.80    1.10
   6   0  -3    1.70    0.90
  -6   0   3    0.70    0.80
   6   0  -3    0.40    0.50
  -6   0   3    1.80    0.60
   6   0  -3    0.20    0.60
   6   0  -3    0.00    0.80
   6   0  -3    5.40    1.10
  -6   0   3    2.20    0.80
  -6   0   3    0.00    0.80
  -4   0   3    1.50    0.90
  -4   0   3    0.90    0.60
  -4   0   3    0.20    0.40
  -4   0   3    1.10    0.70
   4   0  -3    1.80    0.60
   4   0  -3    1.90    0.80
   4   0  -3    2.00    0.80
  -4   0   3    1.40    0.50
  -4   0   3    0.60    0.50
   4   0  -3    0.60    0.40
   4   0  -3    0.90    0.50
  -2   0   3    1.60    0.60
  -2   0   3    1.70    0.60
   2   0  -3    2.30    0.70
  -2   0   3    2.20    0.80
   2   0  -3    1.10    0.70
  -2   0   3    1.90    0.70
   2   0  -3    2.00    0.60
  -2   0   3    0.70    0.50
  -2   0   3    2.30    0.70
   2   0  -3    1.40    0.50
   2   0  -3    2.40    0.60
   0   0   3    2.80    0.60
   0   0   3    1.10    0.30
   0   0  -3    1.30    0.50
   0   0  -3    0.70    0.50
   0   0   3    0.40    0.50
   0   0  -3    1.00    0.40
   0   0  -3    1.90    0.40
   0   0   3    1.20    0.70
   0   0   3    1.50    0.50
   0   0   3    3.50    0.70
   0   0   3    0.30    0.40
   0   0  -3    1.60    0.30
   0   0  -3    1.40    0.50
   2   0   3    1.40    0.60
   2   0   3    0.80    0.60
   2   0   3    2.50    0.80
  -2   0  -3    3.10    0.70
  -2   0  -3    1.10    0.50
   2   0   3    1.20    0.60
  -2   0  -3    0.70    0.50
  -2   0  -3    1.30    0.50
  -2   0  -3    0.60    0.60
   2   0   3    0.80    0.50
  -2   0  -3    1.20    0.50
   2   0   3    0.30    0.40
  -4   0  -3    1.50    1.00
   4   0   3    0.60    0.60
  -4   0  -3    2.90    0.80
  -4   0  -3    1.90    0.50
   4   0   3    1.10    0.70
   4   0   3    2.10    0.50
   4   0   3    1.50    0.90
  -4   0  -3    2.70    0.70
   4   0   3    1.50    0.50
  -4   0  -3    0.70    0.60
   6   0   3    1.80    0.90
  -6   0  -3    2.90    0.90
  -6   0  -3    2.40    0.90
   6   0   3    0.70    0.80
  -6   0  -3    0.80    0.80
  -6   0  -3    1.30    0.80
   8   0   3    0.70    0.90
   8   0   3   -0.60    0.90
  -8   0  -3    2.70    1.10
  -8   0  -3    0.10    0.90
   8   0   3   -0.20    0.80
  -8   0  -3    1.40    1.10
 -10   0  -3   -1.10    1.20
  10   0   3    2.20    1.60
 -10   0  -3   -1.70    1.00
  10   0   3   -0.10    1.20
 -10   0  -3   -2.00    1.20
  10   0   3    1.00    1.10
 -12   0  -3    1.50    1.70
  12   0   3    0.90    1.50
 -12   0  -3    2.00    1.90
  12   0   3    2.90    1.70
  12   0   3    0.20    1.10
 -12   0  -3   -1.30    1.50
  14   0   3    4.30    2.70
 -14   0  -3    1.30    2.40
 -14   0  -3   -0.30    2.20
 -14   0  -3    0.20    2.30
  14   0   3    4.10    2.30
  14   0   3    4.30    2.00
  15  -1  -3  154.78    7.90
 -15  -1   3  160.58    8.00
 -15  -1   3  155.08    9.30
  15  -1  -3  163.68    9.30
  15  -1  -3  154.28    8.80
 -15  -1   3  161.08    8.10
  15   1  -3  166.38    8.50
 -15   1   3  163.38    8.60
 -15   1   3  153.68    9.00
  15   1  -3  150.08    9.00
  15   1  -3  151.68    8.60
 -13  -1   3  386.06   13.20
  13  -1  -3  404.86   13.90
 -13  -1   3  386.26   13.40
 -13  -1   3  408.66   15.00
  13  -1  -3  398.06   14.30
  13  -1  -3  384.36   14.80
  13   1  -3  382.26   14.70
  13   1  -3  400.76   14.20
 -13   1   3  404.26   12.80
 -13   1   3  386.66   14.50
  13   1  -3  382.56   13.70
 -13   1   3  399.86   14.20
 -11  -1   3  507.55   15.30
  11  -1  -3  484.35   16.60
  11  -1  -3  498.15   15.80
 -11  -1   3  502.65   15.30
 -11  -1   3  500.05   16.50
  11   1  -3  477.85   16.70
 -11   1   3  510.85   16.30
 -11   1   3  505.35   14.30
 -11   1   3  506.75   14.90
  11   1  -3  507.55   16.40
  11   1  -3  491.35   15.60
 -11   1   3  503.15   16.00
  -9  -1   3  965.40   26.50
   9  -1  -3  974.20   26.60
   9  -1  -3  971.50   26.00
   9  -1  -3  934.61   26.80
  -9  -1   3  943.01   25.40
  -9  -1   3  981.20   25.60
  -9   1   3  997.20   24.70
  -9   1   3  977.90   26.20
  -9   1   3  982.00   25.30
   9   1  -3  968.40   26.80
   9   1  -3  955.40   25.60
   9   1  -3  943.41   26.80
  -9   1   3  952.60   26.10
   7  -1  -3 1127.49   28.40
   7  -1  -3 1089.19   27.70
  -7  -1   3 1090.69   28.10
  -7  -1   3 1102.29   28.30
   7  -1  -3 1170.98   29.50
   7  -1  -3 1172.68   29.60
  -7  -1   3 1078.19   28.70
  -7  -1   3 1034.50   27.80
   7  -1  -3 1119.29   27.20
  -7   1   3 1058.99   27.50
  -7   1   3 1077.89   28.60
   7   1  -3 1171.78   29.80
   7   1  -3 1085.49   27.90
   7   1  -3 1149.98   29.40
  -7   1   3 1107.19   27.50
   7   1  -3 1087.69   27.80
  -7   1   3 1086.79   28.50
  -7   1   3 1107.29   27.90
  -5  -1   3  896.31   23.30
   5  -1  -3  928.41   23.60
  -5  -1   3  906.71   24.00
  -5  -1   3  929.71   24.40
   5  -1  -3 1000.10   25.40
   5  -1  -3 1013.90   23.50
   5  -1  -3  994.30   23.90
   5  -1  -3  936.41   23.80
   5  -1  -3 1017.80   25.10
  -5   1   3  944.11   24.10
  -5   1   3  962.60   23.90
   5   1  -3  942.81   23.30
  -5   1   3  910.61   23.50
  -5   1   3  891.21   24.30
   5   1  -3  943.71   24.00
   5   1  -3  998.40   24.80
  -3  -1   3  407.96   11.30
   3  -1  -3  418.56   10.60
   3  -1  -3  444.46   11.00
   3  -1  -3  457.55   11.80
  -3  -1   3  365.76   11.10
   3  -1  -3  428.06   11.10
   3  -1  -3  403.86   11.20
  -3  -1   3  397.96   11.40
   3  -1  -3  461.55   10.80
  -3  -1   3  366.66   10.40
   3   1  -3  441.26   11.40
   3   1  -3  402.86   11.20
   3   1  -3  435.16   12.30
  -3   1   3  398.06   11.00
   3   1  -3  416.26   10.50
   3   1  -3  420.16   11.30
  -3   1   3  384.36   11.20
   3   1  -3  421.36   10.20
   1  -1  -3 1383.56   32.90
   1  -1  -3 1402.96   33.10
   1  -1  -3 1409.66   33.30
  -1  -1   3 1338.27   33.30
  -1  -1   3 1336.87   33.90
  -1  -1   3 1344.27   33.10
   1  -1  -3 1417.76   34.30
   1  -1  -3 1414.96   33.30
   1  -1  -3 1372.26   32.60
  -1  -1   3 1327.17   33.30
  -1  -1   3 1334.97   33.30
  -1  -1   3 1392.96   32.80
   1  -1  -3 1441.56   33.60
  -1  -1   3 1376.36   33.40
   1   1  -3 1327.57   33.10
  -1   1   3 1393.76   33.30
  -1   1   3 1393.26   34.20
   1   1  -3 1437.36   34.20
   1   1  -3 1397.76   33.40
   1   1  -3 1347.57   32.80
  -1   1   3 1350.46   32.60
  -1   1   3 1386.56   33.30
  -1   1   3 1343.27   33.50
  -1   1   3 1373.96   32.90
   1   1  -3 1376.96   33.40
  -1   1   3 1401.06   33.00
   1   1  -3 1342.97   33.20
  -1  -1  -3 2096.89   49.30
  -1  -1  -3 2157.98   47.80
   1  -1   3 2012.30   48.40
   1  -1   3 2045.00   48.80
   1  -1   3 2007.10   48.80
   1  -1   3 1973.30   48.70
  -1  -1  -3 2075.49   49.30
   1  -1   3 2034.30   48.80
  -1  -1  -3 2042.00   48.90
   1  -1   3 2109.29   49.30
  -1  -1  -3 2005.00   48.40
   1  -1   3 1988.00   48.80
   1  -1   3 1991.90   48.40
  -1  -1  -3 2022.90   48.50
   1  -1   3 2016.20   49.10
  -1  -1  -3 2121.79   48.60
  -1  -1  -3 2076.59   47.90
   1   1   3 2023.70   49.30
   1   1   3 2081.79   48.60
  -1   1  -3 1945.51   48.40
  -1   1  -3 2029.90   49.10
  -1   1  -3 2058.79   48.90
   1   1   3 2073.39   48.90
   1   1   3 2084.79   48.50
   1   1   3 2001.80   49.20
  -1   1  -3 2035.50   48.80
   1   1   3 2154.58   48.60
  -1   1  -3 2029.10   48.80
   1   1   3 2067.69   48.50
  -1   1  -3 2051.19   48.90
   3  -1   3 3162.58   76.09
  -3  -1  -3 3236.18   74.59
  -3  -1  -3 3226.88   75.99
   3  -1   3 3103.59   74.79
  -3  -1  -3 3257.67   75.99
   3  -1   3 3130.89   75.49
  -3  -1  -3 3353.46   75.39
  -3  -1  -3 3281.47   75.69
   3  -1   3 2948.30   74.39
  -3  -1  -3 3312.37   75.79
   3  -1   3 3074.69   74.49
   3  -1   3 3162.48   76.39
  -3   1  -3 3173.98   75.89
   3   1   3 3250.67   76.39
   3   1   3 3361.66   75.39
   3   1   3 3283.87   75.89
  -3   1  -3 3247.88   75.89
   3   1   3 3173.08   74.59
   3   1   3 3227.28   75.69
  -3   1  -3 3238.48   75.69
  -3   1  -3 3112.89   75.99
  -3   1  -3 3053.29   74.69
  -3   1  -3 3043.50   74.39
   3   1   3 3436.26   75.29
   3   1   3 3299.67   75.69
   5  -1   3 3033.80   76.69
  -5  -1  -3 3217.28   75.39
  -5  -1  -3 3244.98   76.29
  -5  -1  -3 3130.69   76.09
  -5  -1  -3 3274.57   75.49
  -5  -1  -3 3210.98   75.29
   5  -1   3 3222.18   76.39
   5  -1   3 3201.38   76.89
   5  -1   3 3130.09   74.99
  -5  -1  -3 3168.08   75.09
   5   1   3 3251.97   74.99
  -5   1  -3 3161.08   75.69
  -5   1  -3 3106.69   74.99
   5   1   3 3112.59   76.69
   5   1   3 3362.56   75.39
   5   1   3 3287.67   75.39
  -5   1  -3 3277.67   76.29
   5   1   3 3117.09   76.59
   7  -1   3 2469.95   59.49
  -7  -1  -3 2511.95   60.49
  -7  -1  -3 2518.45   59.19
   7  -1   3 2456.05   61.19
  -7  -1  -3 2477.55   59.69
  -7  -1  -3 2515.65   60.79
   7  -1   3 2430.46   61.49
  -7  -1  -3 2521.05   58.99
   7   1   3 2500.35   59.39
  -7   1  -3 2518.75   60.49
   7   1   3 2458.65   60.89
  -7   1  -3 2455.95   60.89
  -7   1  -3 2418.66   59.69
   7   1   3 2449.05   61.29
  -7   1  -3 2548.65   61.09
   9  -1   3  986.30   25.40
  -9  -1  -3  931.41   24.10
  -9  -1  -3  944.21   24.40
   9  -1   3  964.10   27.40
  -9  -1  -3  967.80   26.60
  -9  -1  -3  982.90   25.40
   9  -1   3  994.80   26.90
  -9  -1  -3  967.90   26.00
   9   1   3  976.00   26.50
   9   1   3  973.40   27.30
  -9   1  -3  955.40   26.10
   9   1   3  975.70   25.30
  -9   1  -3  940.61   26.60
  -9   1  -3  921.91   25.10
  11  -1   3  560.84   17.70
  11  -1   3  533.35   16.30
 -11  -1  -3  542.35   16.10
 -11  -1  -3  557.44   16.80
 -11  -1  -3  537.35   17.60
  11  -1   3  545.85   18.30
  11   1   3  557.24   17.30
 -11   1  -3  532.75   17.70
  11   1   3  547.65   16.30
  11   1   3  539.65   18.40
 -11   1  -3  542.75   15.90
 -11   1  -3  534.15   16.90
  13  -1   3  322.17   12.40
  13  -1   3  303.47   13.20
 -13  -1  -3  295.27   11.00
  13  -1   3  304.87   11.40
 -13  -1  -3  313.37   11.60
 -13  -1  -3  298.67   12.60
 -13   1  -3  330.77   12.10
  13   1   3  314.47   11.50
 -13   1  -3  307.27   12.80
 -13   1  -3  306.97   10.80
  13   1   3  321.87   12.10
  13   1   3  309.27   13.30
 -15  -1  -3  181.48    8.80
  15  -1   3  173.48   10.10
 -15  -1  -3  171.48    8.40
  15  -1   3  168.68    9.10
  15  -1   3  179.98    8.50
 -15  -1  -3  164.68    9.60
 -15   1  -3  173.28    9.70
 -15   1  -3  154.98    8.70
  15   1   3  175.98    8.90
  15   1   3  168.58    8.60
  15   1   3  172.48   10.20
  14  -2  -3   -1.30    1.90
 -14  -2   3    1.00    2.10
 -14  -2   3   -2.50    2.40
  14  -2  -3    2.00    2.30
  14  -2  -3   -0.50    2.00
 -14  -2   3    4.70    2.40
  14  -2  -3   -0.50    1.70
  14   2  -3   -1.00    2.20
 -14   2   3    4.20    2.50
 -14   2   3    2.50    2.60
  14   2  -3   -3.00    2.20
  14   2  -3    2.40    2.10
 -14   2   3    0.70    2.40
 -14   2   3   -2.30    1.80
 -12  -2   3   17.10    2.60
  12  -2  -3   11.30    2.40
 -12  -2   3   21.30    3.20
  12  -2  -3   16.80    3.20
  12  -2  -3   14.60    2.80
 -12  -2   3   18.10    3.40
  12   2  -3   13.40    2.80
  12   2  -3   12.20    2.80
 -12   2   3   15.50    2.90
  12   2  -3   12.50    2.80
 -12   2   3   18.30    3.10
 -12   2   3   15.40    2.90
  10  -2  -3   17.80    2.70
 -10  -2   3   21.70    2.90
 -10  -2   3   22.30    2.70
  10  -2  -3   23.20    3.00
  10  -2  -3   21.40    3.00
 -10  -2   3   25.70    2.60
  10   2  -3   24.10    3.10
 -10   2   3   25.90    3.00
 -10   2   3   23.10    3.00
 -10   2   3   26.00    2.00
  10   2  -3   19.50    2.60
 -10   2   3   25.90    2.90
  10   2  -3   28.50    3.20
   8  -2  -3  124.99    5.70
   8  -2  -3  127.59    6.20
   8  -2  -3  120.89    5.80
  -8  -2   3  126.89    5.10
  -8  -2   3  128.89    5.90
  -8  -2   3  128.29    5.60
  -8   2   3  120.79    5.80
   8   2  -3  125.19    5.30
  -8   2   3  128.09    4.40
  -8   2   3  133.19    5.70
   8   2  -3  120.29    6.00
  -8   2   3  130.69    5.60
   8   2  -3  120.89    6.20
  -8   2   3  122.99    4.50
   6  -2  -3  147.69    6.40
  -6  -2   3  162.18    5.60
  -6  -2   3  161.88    6.30
   6  -2  -3  155.78    6.60
  -6  -2   3  157.28    6.10
  -6  -2   3  152.98    5.50
   6  -2  -3  150.18    5.80
   6  -2  -3  165.68    4.90
  -6   2   3  155.18    6.00
   6   2  -3  159.98    5.90
   6   2  -3  154.88    5.40
  -6   2   3  161.88    5.10
  -6   2   3  164.88    5.80
  -6   2   3  156.98    6.20
   6   2  -3  157.08    6.80
   6   2  -3  153.28    6.30
   4  -2  -3   14.40    1.40
  -4  -2   3   14.00    1.30
   4  -2  -3   15.70    1.80
   4  -2  -3   15.10    1.40
   4  -2  -3   16.50    1.20
  -4  -2   3   13.50    1.60
  -4  -2   3   13.30    1.30
   4  -2  -3   19.20    1.60
   4  -2  -3   14.60    1.60
  -4   2   3   14.50    1.30
  -4   2   3   11.70    1.30
   4   2  -3   15.50    1.20
   4   2  -3   14.70    1.80
  -4   2   3   14.00    1.50
  -4   2   3   14.70    1.60
   4   2  -3   14.30    1.40
   4   2  -3   17.80    1.70
   4   2  -3   16.30    1.60
  -4   2   3   13.50    1.40
   2  -2  -3   82.49    3.80
   2  -2  -3   79.99    3.10
   2  -2  -3   80.29    3.40
   2   2  -3   81.89    3.50
   0  -2  -3 1214.28   29.00
   0  -2   3 1198.88   29.30
   0  -2  -3 1282.57   30.90
   0  -2   3 1205.18   30.00
   0  -2   3 1172.88   29.90
   0  -2  -3 1191.08   30.70
   0  -2   3 1163.38   30.20
   0  -2   3 1173.28   29.70
   0  -2   3 1223.48   29.80
   0  -2  -3 1235.58   29.90
   0  -2  -3 1231.18   29.60
   0  -2   3 1208.98   29.90
   0  -2  -3 1207.98   29.50
   0  -2   3 1242.78   30.10
   0  -2   3 1189.28   29.40
   0  -2  -3 1248.28   29.50
   0  -2  -3 1233.88   29.70
   0  -2   3 1220.68   29.50
   0   2   3 1258.97   30.50
   0   2   3 1208.28   29.70
   0   2   3 1226.78   30.70
   0   2  -3 1189.78   29.80
   0   2  -3 1205.18   29.90
   0   2  -3 1219.18   30.20
   0   2  -3 1233.68   29.50
   0   2  -3 1216.28   29.90
   0   2   3 1213.88   29.10
   0   2   3 1287.17   30.00
   0   2  -3 1186.28   29.30
   0   2   3 1230.78   29.60
   2  -2   3  924.81   24.70
  -2  -2  -3  956.70   24.80
  -2  -2  -3  978.10   24.30
  -2  -2  -3  965.40   24.40
   2  -2   3  944.41   23.30
   2  -2   3  931.11   23.80
   2  -2   3  960.50   24.20
  -2  -2  -3  962.60   23.60
   2  -2   3  965.90   24.30
   2  -2   3  918.41   23.30
  -2  -2  -3  974.50   23.50
   2  -2   3  935.01   23.70
  -2  -2  -3  993.50   23.50
   2   2   3  988.00   24.80
  -2   2  -3  961.60   23.70
   2   2   3  970.10   24.70
  -2   2  -3  948.51   24.20
   2   2   3  990.00   23.60
   2   2   3  963.30   23.60
   2   2   3 1003.80   23.50
  -2   2  -3  944.31   24.90
   2   2   3  975.10   24.40
  -2   2  -3  962.30   24.00
   2   2   3  974.60   23.50
  -2   2  -3  953.40   24.30
  -4  -2  -3   72.49    3.20
  -4  -2  -3   66.59    2.90
   4  -2   3   63.99    2.80
  -4  -2  -3   60.29    3.40
  -4  -2  -3   66.69    3.40
   4  -2   3   71.89    3.80
   4  -2   3   68.09    2.90
   4  -2   3   61.89    2.70
   4  -2   3   65.29    3.50
   4   2   3   61.89    2.60
   4   2   3   68.49    2.70
   4   2   3   65.39    3.50
   4   2   3   62.19    3.50
   4   2   3   69.39    2.90
  -4   2  -3   70.19    3.50
   4   2   3   66.59    3.40
  -4   2  -3   72.89    3.10
  -4   2  -3   63.79    2.80
   4   2   3   67.19    3.40
  -4   2  -3   76.49    4.10
  -4   2  -3   63.29    3.40
   6  -2   3   37.00    2.90
   6  -2   3   39.20    2.40
  -6  -2  -3   31.00    2.50
  -6  -2  -3   28.80    2.50
   6  -2   3   35.10    2.90
  -6  -2  -3   35.10    2.00
  -6  -2  -3   32.90    2.50
   6  -2   3   34.90    2.30
  -6   2  -3   37.40    2.70
  -6   2  -3   28.00    2.20
   6   2   3   37.40    2.10
   6   2   3   35.40    2.90
   6   2   3   38.50    2.30
  -6   2  -3   30.50    2.10
  -6   2  -3   29.60    2.60
   6   2   3   35.40    2.80
  -8  -2  -3   10.40    2.00
   8  -2   3   15.20    2.00
   8  -2   3   10.30    2.10
  -8  -2  -3   13.10    1.70
   8  -2   3   12.60    2.40
  -8  -2  -3   10.90    2.00
  -8   2  -3    9.50    1.60
   8   2   3   16.30    2.20
   8   2   3   14.00    2.20
  -8   2  -3    6.00    1.70
  -8   2  -3    9.30    2.00
   8   2   3   13.60    1.80
  10  -2   3   25.40    3.10
 -10  -2  -3   27.60    3.10
 -10  -2  -3   24.00    2.30
  10  -2   3   25.10    2.60
 -10  -2  -3   23.30    3.00
 -10  -2  -3   23.90    2.50
  10  -2   3   21.90    3.10
  10   2   3   22.50    2.90
  10   2   3   19.00    3.00
  10   2   3   22.30    2.60
 -10   2  -3   24.00    2.90
 -10   2  -3   23.70    2.50
 -10   2  -3   23.90    3.20
 -12  -2  -3    7.10    1.90
 -12  -2  -3    5.50    2.50
  12  -2   3    8.20    2.70
  12  -2   3    9.60    2.60
  12  -2   3    5.50    2.00
 -12  -2  -3   11.20    2.60
  12   2   3    8.60    2.20
 -12   2  -3    5.60    1.90
 -12   2  -3    5.00    2.40
  12   2   3    8.20    2.30
  12   2   3    7.90    2.60
 -12   2  -3    2.30    1.90
 -14  -2  -3    0.00    2.40
 -14  -2  -3    1.30    2.40
 -14  -2  -3   -1.50    2.10
  14  -2   3    2.40    2.20
  14  -2   3    0.10    2.10
 -14  -2  -3   -0.20    1.90
  14  -2   3   -1.70    2.30
 -14   2  -3    0.40    2.40
  14   2   3   -1.70    2.10
  14   2   3   -0.50    2.00
 -14   2  -3    7.20    3.10
  14   2   3    4.60    2.60
  13  -3  -3  234.68   10.50
 -13  -3   3  230.48   10.70
  13  -3  -3  234.28    9.60
 -13  -3   3  233.68   10.30
 -13  -3   3  238.58    8.90
  13  -3  -3  218.98   10.60
 -13   3   3  246.68   10.50
 -13   3   3  233.78   10.20
  13   3  -3  236.78   11.00
 -13   3   3  233.98   10.60
  13   3  -3  218.88    9.80
  13   3  -3  238.58   11.00
 -11  -3   3  355.36   12.90
 -11  -3   3  364.86   11.50
 -11  -3   3  352.96   13.30
  11  -3  -3  368.66   13.80
  11  -3  -3  385.06   13.40
  11  -3  -3  368.56   12.80
 -11   3   3  362.46   13.40
 -11   3   3  373.76   12.80
  11   3  -3  359.56   13.70
 -11   3   3  375.16   13.10
  11   3  -3  375.76   13.90
  11   3  -3  364.56   12.50
  -9  -3   3  425.86   14.10
   9  -3  -3  426.16   14.50
  -9  -3   3  411.46   13.70
  -9  -3   3  409.36   12.30
   9  -3  -3  426.26   13.90
   9  -3  -3  430.76   13.90
   9   3  -3  430.06   13.20
  -9   3   3  431.76   13.30
   9   3  -3  424.66   14.30
   9   3  -3  438.76   14.90
  -9   3   3  417.46   13.90
  -9   3   3  421.66   14.10
  -7  -3   3  621.24   16.70
   7  -3  -3  646.84   18.00
  -7  -3   3  607.24   17.90
  -7  -3   3  622.04   18.00
   7  -3  -3  650.13   18.60
   7  -3  -3  610.74   18.50
  -7   3   3  650.63   15.50
   7   3  -3  607.14   17.10
  -7   3   3  610.24   18.10
  -7   3   3  616.34   18.10
  -7   3   3  629.44   17.20
   7   3  -3  626.04   18.40
   7   3  -3  639.04   19.20
  -5  -3   3 1937.61   46.80
  -5  -3   3 1955.20   45.40
   5  -3  -3 1895.81   46.40
  -5  -3   3 1856.01   47.00
   5  -3  -3 1922.51   44.50
   5  -3  -3 1906.31   47.50
   5  -3  -3 1852.61   47.00
  -5  -3   3 1869.51   46.40
   5  -3  -3 1909.31   45.10
   5   3  -3 1845.12   45.60
   5   3  -3 1920.01   46.40
  -5   3   3 1904.61   45.30
   5   3  -3 1877.91   47.70
  -5   3   3 1965.10   46.70
  -5   3   3 1790.92   46.70
  -5   3   3 1875.01   44.70
  -5   3   3 1860.41   46.60
   5   3  -3 1840.42   46.60
   5   3  -3 1820.22   46.60
   3  -3  -3 3170.48   73.89
  -3  -3   3 3186.48   74.39
   3  -3  -3 3094.29   76.09
  -3  -3   3 3032.40   74.29
  -3  -3   3 3106.09   74.99
  -3  -3   3 3146.09   73.79
   3  -3  -3 3108.69   75.39
  -3  -3   3 3145.89   74.29
  -3  -3   3 3129.79   73.79
   3   3  -3 3184.98   75.09
   3   3  -3 3185.98   74.39
  -3   3   3 3100.59   73.49
   3   3  -3 3147.39   76.29
  -3   3   3 3168.38   75.09
  -3   3   3 3085.59   74.89
  -3   3   3 3222.98   75.79
  -3   3   3 3233.58   74.09
   3   3  -3 3084.79   75.09
  -3   3   3 3340.57   73.69
  -1  -3   3 2372.16   57.69
  -1  -3   3 2337.07   57.69
  -1  -3   3 2322.47   57.59
  -1  -3   3 2378.86   58.09
   1  -3  -3 2370.96   59.19
  -1  -3   3 2466.85   58.09
   1  -3  -3 2390.26   57.59
  -1  -3   3 2456.75   57.99
  -1  -3   3 2452.25   58.19
   1  -3  -3 2400.86   58.19
   1  -3  -3 2582.94   57.69
   1   3  -3 2399.46   57.89
   1   3  -3 2373.86   57.89
   1   3  -3 2401.96   58.79
  -1   3   3 2455.85   58.89
  -1   3   3 2435.56   58.19
  -1   3   3 2469.35   57.79
   1   3  -3 2554.04   58.19
   1   3  -3 2373.76   57.69
   1   3  -3 2389.96   58.09
  -1   3   3 2527.85   57.79
   1   3  -3 2439.16   57.69
  -1  -3  -3 1611.74   38.20
   1  -3   3 1562.54   39.10
  -1  -3  -3 1540.05   38.40
  -1  -3  -3 1591.94   37.00
   1  -3   3 1542.05   38.40
  -1  -3  -3 1572.84   39.50
   1  -3   3 1516.55   38.50
   1  -3   3 1556.04   38.50
  -1  -3  -3 1579.54   38.30
  -1  -3  -3 1560.74   37.50
   1  -3   3 1519.05   37.90
  -1   3  -3 1496.45   37.90
   1   3   3 1597.84   38.70
   1   3   3 1619.84   37.20
  -1   3  -3 1588.24   38.50
  -1   3  -3 1557.04   38.40
   1   3   3 1592.64   39.20
   1   3   3 1582.64   38.30
  -1   3  -3 1627.64   39.20
  -1   3  -3 1539.95   38.40
  -1   3  -3 1587.84   38.20
   1   3   3 1605.44   37.60
  -1   3  -3 1554.24   38.60
  -3  -3  -3 1290.17   32.80
   3  -3   3 1314.47   32.50
  -3  -3  -3 1264.47   32.80
  -3  -3  -3 1242.28   32.20
   3  -3   3 1296.07   31.30
   3  -3   3 1249.77   33.00
   3  -3   3 1262.57   31.30
  -3  -3  -3 1201.48   31.00
   3  -3   3 1302.87   31.50
   3  -3   3 1265.17   31.30
  -3   3  -3 1281.37   31.40
  -3   3  -3 1266.47   32.00
   3   3   3 1332.77   32.60
   3   3   3 1296.27   30.70
   3   3   3 1333.37   31.70
  -3   3  -3 1255.17   31.30
   3   3   3 1344.17   30.70
   3   3   3 1302.07   31.20
   3   3   3 1282.17   32.60
  -3   3  -3 1253.97   32.20
  -3   3  -3 1232.98   33.00
   5  -3   3  802.02   20.40
  -5  -3  -3  793.32   21.90
   5  -3   3  808.32   22.80
  -5  -3  -3  805.82   21.20
   5  -3   3  837.02   21.10
   5  -3   3  822.02   22.40
  -5  -3  -3  822.32   22.30
  -5   3  -3  770.52   22.00
   5   3   3  824.12   22.30
   5   3   3  841.92   19.90
   5   3   3  845.62   22.20
   5   3   3  828.52   21.10
   5   3   3  828.62   19.90
  -5   3  -3  783.22   20.50
  -5   3  -3  763.52   22.80
  -5   3  -3  770.62   21.50
  -7  -3  -3  885.51   24.50
  -7  -3  -3  891.61   24.30
   7  -3   3  890.51   25.20
   7  -3   3  907.81   25.20
  -7  -3  -3  938.51   24.00
   7  -3   3  861.41   22.30
   7  -3   3  867.91   23.40
  -7   3  -3  873.31   24.50
  -7   3  -3  874.51   22.50
  -7   3  -3  843.82   25.30
   7   3   3  909.91   24.40
   7   3   3  885.21   25.00
   7   3   3  890.41   22.00
  -7   3  -3  909.41   24.40
   7   3   3  900.81   23.40
   7   3   3  893.01   21.90
  -9  -3  -3  973.50   26.80
  -9  -3  -3  987.00   26.50
   9  -3   3  951.60   27.90
   9  -3   3  980.80   27.90
  -9  -3  -3  965.60   24.40
   9  -3   3  962.40   26.10
  -9  -3  -3  968.80   27.10
  -9   3  -3  954.50   27.10
   9   3   3  987.90   26.10
  -9   3  -3  966.10   24.70
  -9   3  -3  997.70   27.20
   9   3   3  969.80   27.90
   9   3   3  969.80   26.70
 -11  -3  -3  589.64   18.80
  11  -3   3  600.84   19.40
 -11  -3  -3  599.44   16.20
 -11  -3  -3  601.34   18.00
  11  -3   3  586.04   17.90
 -11  -3  -3  597.24   18.90
  11  -3   3  578.24   19.70
 -11   3  -3  586.44   19.00
  11   3   3  591.24   18.00
  11   3   3  603.94   18.30
  11   3   3  605.94   20.10
 -11   3  -3  579.14   18.90
  13  -3   3  227.68   11.30
 -13  -3  -3  242.38    8.40
 -13  -3  -3  238.38   10.50
  13  -3   3  244.98   11.00
  13  -3   3  231.68    9.80
 -13  -3  -3  237.78   10.80
  13   3   3  239.08   11.60
  13   3   3  226.78    9.80
 -13   3  -3  238.48   10.70
 -13   3  -3  241.78   11.00
  13   3   3  230.58    9.90
 -14  -4   3    4.40    2.80
 -14  -4   3    6.80    3.30
 -14  -4   3    7.10    3.50
  14  -4  -3    8.70    3.00
  14  -4  -3   10.60    3.00
  14  -4  -3    9.90    3.10
 -14   4   3    7.00    3.30
 -14   4   3   10.20    3.50
  14   4  -3    9.20    3.40
  14   4  -3   11.40    3.40
 -14   4   3    9.90    3.50
  14   4  -3   10.30    3.30
  12  -4  -3   18.10    3.10
 -12  -4   3   12.00    2.50
  12  -4  -3   16.40    3.40
 -12  -4   3   12.40    3.10
 -12  -4   3   12.30    3.00
  12  -4  -3   14.10    3.20
  12   4  -3   12.40    3.50
 -12   4   3   13.80    3.10
 -12   4   3   13.20    3.10
 -12   4   3   19.90    3.40
  12   4  -3   14.70    3.20
  12   4  -3   23.60    3.50
 -10  -4   3   16.10    2.30
 -10  -4   3   18.80    3.20
  10  -4  -3   13.20    2.80
 -10  -4   3   16.00    2.70
  10  -4  -3   20.10    3.50
  10  -4  -3   17.70    2.90
 -10   4   3   19.20    2.90
  10   4  -3   12.70    2.50
 -10   4   3   18.90    3.30
  10   4  -3   17.30    3.40
 -10   4   3   18.10    3.10
  10   4  -3   17.40    3.10
   8  -4  -3    2.70    1.40
  -8  -4   3    3.40    1.60
   8  -4  -3    0.60    1.30
  -8  -4   3    0.80    1.00
   8  -4  -3    2.80    1.30
  -8  -4   3   -0.30    1.30
  -8   4   3    2.80    1.50
  -8   4   3    1.40    1.50
   8   4  -3    1.00    1.30
   8   4  -3    2.50    1.20
  -8   4   3    4.40    1.50
  -6  -4   3    2.10    0.90
   6  -4  -3    4.30    1.60
  -6  -4   3    2.20    1.00
  -6  -4   3    3.60    1.20
   6  -4  -3    4.10    1.40
   6  -4  -3    6.80    1.70
   6  -4  -3    5.00    1.40
  -6   4   3    2.60    1.30
  -6   4   3    5.40    1.60
   6   4  -3    6.10    1.40
   6   4  -3    3.70    1.50
  -6   4   3    1.00    0.90
   6   4  -3    6.10    1.50
  -4  -4   3   42.40    2.40
  -4  -4   3   40.60    2.10
   4  -4  -3   43.00    1.90
  -4  -4   3   37.60    2.90
   4  -4  -3   44.60    3.40
  -4  -4   3   38.40    2.10
   4  -4  -3   44.70    2.00
  -4  -4   3   39.50    2.80
  -4  -4   3   39.30    2.40
   4  -4  -3   47.30    3.30
   4   4  -3   43.70    3.00
  -4   4   3   41.10    1.90
   4   4  -3   44.50    2.80
  -4   4   3   43.20    2.10
   4   4  -3   43.60    2.20
  -4   4   3   39.30    2.80
   4   4  -3   43.80    3.40
   4   4  -3   43.70    2.90
  -4   4   3   39.90    3.20
  -4   4   3   37.50    2.90
  -4   4   3   42.50    2.00
   2  -4  -3    1.80    0.80
  -2  -4   3    3.50    1.10
   2  -4  -3    3.30    1.20
  -2  -4   3    4.80    1.00
   2  -4  -3    3.20    1.10
  -2  -4   3    3.70    1.10
  -2  -4   3    3.20    1.10
  -2   4   3    6.10    1.40
   2   4  -3    2.70    1.00
   2   4  -3    4.30    1.20
   2   4  -3    3.60    1.20
   2   4  -3    5.20    1.20
  -2   4   3    3.70    1.10
  -2   4   3    1.80    0.90
   2   4  -3    5.90    1.20
   0  -4  -3   17.30    1.60
   0  -4  -3   23.20    1.80
   0  -4  -3   19.80    1.90
   0  -4  -3   21.40    2.30
   0   4  -3   22.60    2.10
   0   4  -3   19.80    1.90
   0   4  -3   20.70    1.80
   0   4  -3   19.50    1.80
   0   4   3   18.80    2.10
   0   4  -3   15.70    1.80
   0   4  -3   20.20    2.10
   0   4   3   18.50    2.00
   0   4   3   20.50    1.60
   0   4  -3   26.00    2.00
   2  -4   3    4.30    1.20
   2  -4   3    3.80    1.00
  -2  -4  -3    5.50    0.90
  -2  -4  -3    4.00    1.20
  -2  -4  -3    3.80    1.50
   2  -4   3    4.50    1.20
  -2  -4  -3    4.50    0.80
   2   4   3    5.50    0.80
  -2   4  -3    8.20    1.50
   2   4   3    7.40    1.40
   2   4   3    3.60    0.80
  -2   4  -3    3.60    1.10
  -2   4  -3    8.00    1.70
  -2   4  -3    3.00    1.00
   2   4   3    4.50    1.30
  -2   4  -3    4.90    1.10
  -2   4  -3    3.20    0.80
  -2   4  -3    8.40    1.70
   4  -4   3  171.58    6.30
   4  -4   3  174.08    7.10
  -4  -4  -3  181.58    5.80
   4  -4   3  169.68    5.90
   4  -4   3  164.78    5.70
  -4  -4  -3  182.28    7.00
   4  -4   3  169.48    5.90
  -4  -4  -3  178.38    7.50
   4   4   3  169.88    6.40
   4   4   3  166.58    5.70
   4   4   3  174.48    7.00
  -4   4  -3  184.88    7.00
  -4   4  -3  169.38    6.50
  -4   4  -3  178.38    7.70
  -4   4  -3  177.18    5.80
   4   4   3  170.98    7.00
   6  -4   3   99.89    3.70
  -6  -4  -3  111.39    4.80
   6  -4   3   97.59    3.90
   6  -4   3  102.59    3.70
   6  -4   3  103.79    4.80
   6  -4   3  108.09    5.60
  -6  -4  -3  104.49    5.40
  -6  -4  -3  115.79    5.80
   6   4   3  100.29    4.80
  -6   4  -3  100.69    5.90
  -6   4  -3  103.79    5.30
  -6   4  -3   98.59    5.00
  -6   4  -3  100.79    3.90
   6   4   3  106.59    5.30
   6   4   3  104.09    5.50
   8  -4   3   23.90    3.00
  -8  -4  -3   28.70    3.20
  -8  -4  -3   28.00    2.90
   8  -4   3   22.20    2.10
   8  -4   3   23.20    3.20
  -8  -4  -3   26.50    3.20
   8  -4   3   22.90    2.60
   8   4   3   24.40    2.90
  -8   4  -3   26.70    3.10
   8   4   3   25.60    3.20
  -8   4  -3   23.80    2.80
  -8   4  -3   25.70    2.00
   8   4   3   23.60    2.70
  -8   4  -3   29.50    3.60
 -10  -4  -3   18.50    3.10
 -10  -4  -3   16.50    2.90
  10  -4   3   16.70    2.80
  10  -4   3   25.50    3.50
  10  -4   3   21.00    3.20
 -10  -4  -3   18.40    3.20
  10   4   3   19.40    2.80
  10   4   3   20.70    3.60
  10   4   3   17.50    2.90
 -10   4  -3   26.40    3.40
 -10   4  -3   13.80    3.30
 -10   4  -3   22.00    3.30
 -12  -4  -3   43.50    4.40
  12  -4   3   46.60    4.80
 -12  -4  -3   41.90    4.70
  12  -4   3   42.00    4.50
  12  -4   3   46.70    4.30
 -12  -4  -3   47.20    4.80
  12   4   3   48.00    4.40
 -12   4  -3   51.89    5.10
 -12   4  -3   37.50    4.40
  12   4   3   39.50    4.20
  12   4   3   39.30    4.60
  14  -4   3   19.10    3.60
  14  -4   3   31.80    4.70
 -14  -4  -3   21.80    4.20
  14  -4   3   19.80    4.20
 -14  -4  -3   19.80    4.20
  14   4   3   22.50    3.80
  14   4   3   21.10    4.80
 -14   4  -3   21.10    4.40
 -14   4  -3   19.00    4.40
 -13  -5   3   67.99    6.10
  13  -5  -3   75.29    6.40
  13  -5  -3   77.29    5.70
  13  -5  -3   65.99    6.30
 -13  -5   3   82.49    6.60
 -13   5   3   77.29    6.60
 -13   5   3   73.29    6.10
 -13   5   3   79.09    6.60
  13   5  -3   72.29    5.90
  13   5  -3   73.99    6.60
  13   5  -3   81.39    6.90
  11  -5  -3  308.47   13.00
 -11  -5   3  311.77   12.40
  11  -5  -3  308.67   11.90
 -11  -5   3  297.47   12.40
 -11  -5   3  319.97    9.50
  11  -5  -3  310.77   12.50
  11   5  -3  302.57   12.80
  11   5  -3  321.57   13.50
 -11   5   3  308.77   13.10
  11   5  -3  301.47   11.70
 -11   5   3  318.37   12.80
 -11   5   3  328.97   11.50
  -9  -5   3  675.63   20.30
   9  -5  -3  657.73   20.40
   9  -5  -3  664.73   21.10
  -9  -5   3  689.33   17.50
  -9  -5   3  643.04   20.60
   9  -5  -3  683.23   20.80
  -9   5   3  691.33   21.50
  -9   5   3  664.23   20.80
   9   5  -3  644.74   19.70
   9   5  -3  680.53   22.10
  -9   5   3  692.63   19.00
   9   5  -3  645.34   20.80
   7  -5  -3  878.81   24.70
  -7  -5   3  902.21   21.80
  -7  -5   3  857.71   24.00
  -7  -5   3  803.52   22.60
   7  -5  -3  861.21   25.10
   7  -5  -3  875.81   25.10
  -7  -5   3  866.01   24.70
   7   5  -3  870.01   26.10
  -7   5   3  865.41   24.60
   7   5  -3  851.01   23.70
  -7   5   3  873.21   22.40
   7   5  -3  831.72   24.60
  -7   5   3  863.81   25.30
  -5  -5   3  695.23   18.10
   5  -5  -3  722.03   21.00
   5  -5  -3  728.73   21.30
  -5  -5   3  699.03   19.90
  -5  -5   3  736.43   18.40
  -5  -5   3  709.23   20.60
  -5  -5   3  693.93   18.70
  -5   5   3  707.43   21.30
   5   5  -3  728.33   20.70
   5   5  -3  732.53   20.10
  -5   5   3  732.43   21.10
  -5   5   3  729.53   20.40
   5   5  -3  717.73   21.90
   5   5  -3  720.03   18.40
   3  -5  -3 1199.08   31.20
  -3  -5   3 1168.78   29.10
  -3  -5   3 1175.08   30.20
  -3  -5   3 1175.08   30.70
   3  -5  -3 1159.58   31.80
   3  -5  -3 1157.78   28.80
   3   5  -3 1201.28   30.50
  -3   5   3 1202.78   30.30
   3   5  -3 1153.68   30.90
  -3   5   3 1194.28   31.20
   3   5  -3 1191.08   29.80
   3   5  -3 1178.28   32.00
  -3   5   3 1154.78   28.90
  -3   5   3 1138.79   31.70
  -1  -5   3 1240.48   31.20
   1  -5  -3 1252.17   31.20
   1  -5  -3 1261.67   32.50
  -1  -5   3 1279.77   32.10
  -1  -5   3 1235.68   31.50
   1  -5  -3 1238.28   33.60
  -1   5   3 1231.68   31.20
  -1   5   3 1245.28   33.10
   1   5  -3 1220.98   31.00
   1   5  -3 1244.98   33.10
   1   5  -3 1198.08   32.10
  -1   5   3 1280.57   32.80
   1   5  -3 1253.97   32.20
   1   5  -3 1242.08   32.10
   1   5  -3 1279.57   31.80
  -1  -5  -3 1812.92   42.20
  -1  -5  -3 1787.52   44.30
  -1  -5  -3 1813.52   43.80
   1  -5   3 1764.72   44.10
  -1  -5  -3 1771.02   45.60
   1  -5   3 1802.92   44.60
   1  -5   3 1797.52   43.50
  -1   5  -3 1768.42   43.60
   1   5   3 1765.32   42.40
   1   5   3 1757.92   44.60
  -1   5  -3 1719.93   43.90
   1   5   3 1733.73   44.80
  -1   5  -3 1697.53   44.20
  -1   5  -3 1722.43   44.70
  -1   5  -3 1739.93   43.20
  -1   5  -3 1735.73   44.30
  -1   5  -3 1757.72   43.20
   1   5   3 1761.72   44.20
   3  -5   3 1852.21   47.40
  -3  -5  -3 1895.81   48.40
  -3  -5  -3 1847.82   44.50
   3  -5   3 1861.11   46.50
   3  -5   3 1871.41   46.60
  -3  -5  -3 1939.51   47.00
  -3   5  -3 1835.82   47.50
  -3   5  -3 1873.71   48.20
   3   5   3 1869.51   46.70
   3   5   3 1888.61   47.50
  -3   5  -3 1853.01   46.20
  -3   5  -3 1851.81   45.50
   3   5   3 1847.52   47.40
  -3   5  -3 1968.50   47.00
   3   5   3 1859.91   44.40
   5  -5   3 1013.80   26.90
  -5  -5  -3 1017.60   27.70
   5  -5   3 1003.00   26.00
  -5  -5  -3 1029.90   25.70
   5  -5   3 1022.50   28.20
  -5  -5  -3 1006.00   28.60
  -5   5  -3  989.90   25.30
  -5   5  -3 1009.40   27.50
   5   5   3 1060.29   27.30
  -5   5  -3  994.00   28.90
   5   5   3 1030.70   28.20
   5   5   3  977.20   27.40
  -5   5  -3 1005.20   26.70
   7  -5   3  259.97   10.30
   7  -5   3  240.58    7.20
   7  -5   3  245.68    7.40
  -7  -5  -3  240.98    8.60
  -7  -5  -3  242.48    9.70
  -7  -5  -3  240.48   10.20
   7  -5   3  279.87    9.60
   7  -5   3  238.38    7.50
   7   5   3  266.87    9.40
  -7   5  -3  224.88    7.10
  -7   5  -3  224.28   10.50
  -7   5  -3  232.08    9.60
  -7   5  -3  239.28    9.10
   7   5   3  255.07    9.50
   7   5   3  264.17   10.40
   9  -5   3  175.28    9.00
  -9  -5  -3  161.28    8.20
  -9  -5  -3  161.88    7.40
   9  -5   3  180.68    7.80
  -9  -5  -3  170.78    8.40
   9  -5   3  183.78    8.90
   9   5   3  177.68    7.80
  -9   5  -3  171.68    7.90
   9   5   3  182.68    8.90
  -9   5  -3  164.48    9.00
   9   5   3  177.28    7.80
  -9   5  -3  153.88    8.00
 -11  -5  -3  152.78    7.70
 -11  -5  -3  152.18    8.30
  11  -5   3  144.69    8.40
  11  -5   3  145.69    8.50
 -11  -5  -3  152.78    8.30
  11  -5   3  143.89    7.50
 -11   5  -3  148.59    9.00
 -11   5  -3  151.98    8.40
  11   5   3  145.69    7.50
 -11   5  -3  153.78    8.00
  11   5   3  154.68    8.70
  11   5   3  149.59    7.40
 -13  -5  -3  148.99    8.80
  13  -5   3  149.29    8.10
 -13  -5  -3  144.99    8.40
 -13  -5  -3  162.58    8.80
  13  -5   3  144.39    9.20
  13  -5   3  154.18    9.20
  13   5   3  154.58    8.30
  13   5   3  148.99    9.30
 -13   5  -3  154.08    8.70
 -13   5  -3  145.49    8.90
  12  -6  -3    9.60    3.10
  12  -6  -3    9.70    3.20
 -12  -6   3    9.40    3.30
  12  -6  -3   14.20    3.80
 -12  -6   3    9.40    3.30
  12   6  -3   11.40    3.40
  12   6  -3    9.50    3.20
 -12   6   3   14.40    3.70
  12   6  -3   13.50    3.80
 -12   6   3    1.00    2.90
 -12   6   3    8.70    3.30
  10  -6  -3    2.50    2.10
  10  -6  -3   -0.30    1.90
 -10  -6   3    3.00    2.10
 -10  -6   3    3.40    2.40
  10  -6  -3    1.10    2.20
  10   6  -3    1.10    1.90
 -10   6   3    1.70    2.20
 -10   6   3   10.90    3.00
  10   6  -3    2.80    2.10
  10   6  -3    5.50    2.90
 -10   6   3    1.30    2.40
  -8  -6   3    2.30    1.80
   8  -6  -3    8.60    2.40
   8  -6  -3    6.80    2.30
  -8  -6   3   -1.60    1.60
   8  -6  -3    4.00    1.90
  -8   6   3    4.60    1.90
   8   6  -3    0.90    1.80
   8   6  -3    3.50    2.20
  -8   6   3    2.80    1.90
   8   6  -3    5.50    2.10
  -6  -6   3   64.09    4.60
  -6  -6   3   57.39    4.00
  -6  -6   3   60.09    3.20
   6  -6  -3   60.89    4.60
   6  -6  -3   62.79    4.70
  -6  -6   3   61.29    2.80
   6  -6  -3   56.99    4.60
  -6   6   3   66.39    5.00
  -6   6   3   62.29    4.60
   6   6  -3   62.39    4.60
   6   6  -3   57.39    5.00
   6   6  -3   60.79    4.30
  -6   6   3   55.29    4.70
  -4  -6   3   42.10    2.50
  -4  -6   3   46.50    3.70
   4  -6  -3   43.50    2.30
   4  -6  -3   44.10    3.90
   4  -6  -3   46.30    3.80
  -4  -6   3   48.40    3.40
  -4   6   3   45.10    3.90
   4   6  -3   51.29    3.90
  -4   6   3   46.60    2.50
  -4   6   3   43.00    4.00
   4   6  -3   46.30    3.60
  -4   6   3   43.00    3.50
   4   6  -3   43.80    4.20
   4   6  -3   53.89    3.30
  -2  -6   3   76.39    3.70
   2  -6  -3   75.89    3.70
  -2  -6   3   77.19    5.30
   2  -6  -3   78.89    5.30
  -2  -6   3   76.39    4.40
  -2  -6   3   77.59    4.00
   2  -6  -3   78.79    4.70
   2   6  -3   75.89    4.60
   2   6  -3   81.09    4.70
   2   6  -3   76.29    4.40
  -2   6   3   74.99    5.10
  -2   6   3   75.49    4.80
  -2   6   3   81.29    4.20
   2   6  -3   76.19    5.10
   0  -6  -3  145.09    5.80
   0  -6   3  150.08    7.00
   0  -6   3  140.59    5.90
   0  -6  -3  141.39    6.60
   0  -6  -3  147.29    7.40
   0  -6   3  139.89    5.70
   0   6  -3  139.09    6.60
   0   6  -3  143.39    5.70
   0   6  -3  143.39    5.70
   0   6  -3  142.99    6.80
   0   6   3  138.39    6.90
   0   6   3  142.39    6.80
   0   6  -3  137.79    6.60
   0   6  -3  143.29    6.40
   0   6   3  141.89    5.30
  -2  -6  -3    7.00    1.70
  -2  -6  -3    7.60    1.30
   2  -6   3    8.80    1.80
  -2  -6  -3    8.00    1.90
   2  -6   3   12.50    1.80
   2  -6   3   10.50    2.20
  -2  -6  -3   12.50    2.60
   2   6   3   10.60    2.20
   2   6   3   12.20    2.30
  -2   6  -3   10.50    2.20
  -2   6  -3   16.40    2.60
  -2   6  -3    9.40    1.70
  -2   6  -3   11.20    2.00
   2   6   3    8.90    1.90
   4  -6   3    6.50    1.70
   4  -6   3    6.70    1.40
  -4  -6  -3    8.60    2.20
  -4  -6  -3    4.40    1.60
   4  -6   3    7.70    2.00
   4  -6   3   11.00    2.10
  -4   6  -3    6.40    1.40
   4   6   3    7.20    1.40
   4   6   3    8.30    2.20
  -4   6  -3    6.10    1.90
  -4   6  -3    6.40    1.70
  -4   6  -3    3.10    1.70
  -4   6  -3    6.80    2.20
   4   6   3    7.60    2.00
   4   6   3    6.90    2.10
  -6  -6  -3   74.99    3.80
  -6  -6  -3   73.69    5.00
   6  -6   3   73.19    3.20
   6  -6   3   67.29    3.40
   6  -6   3   69.09    3.90
  -6  -6  -3   69.69    5.40
   6  -6   3   77.69    5.30
   6  -6   3   65.69    4.50
   6   6   3   71.79    4.70
  -6   6  -3   71.79    5.60
   6   6   3   72.39    4.80
   6   6   3   76.39    5.30
  -6   6  -3   76.69    5.00
  -6   6  -3   66.89    4.30
  -8  -6  -3   97.39    6.60
  -8  -6  -3  102.59    5.30
  -8  -6  -3   94.79    6.10
   8  -6   3   95.89    6.40
   8  -6   3   97.99    5.80
   8   6   3  106.19    5.90
  -8   6  -3   97.19    5.60
   8   6   3  101.29    5.90
  -8   6  -3   97.69    7.10
   8   6   3   97.09    6.50
  -8   6  -3  109.69    6.40
  10  -6   3    0.50    1.90
  10  -6   3    0.40    1.90
 -10  -6  -3    3.50    2.20
 -10  -6  -3    3.30    2.30
  10  -6   3    2.40    2.30
 -10  -6  -3   -0.30    2.40
  10   6   3    1.40    2.00
 -10   6  -3   -0.30    2.20
 -10   6  -3    3.10    2.40
  10   6   3   -1.10    2.00
  10   6   3    0.90    2.30
 -10   6  -3    4.40    2.70
  12  -6   3   21.00    4.20
 -12  -6  -3   23.30    4.60
 -12  -6  -3   21.40    4.00
 -12  -6  -3   23.90    4.30
  12  -6   3   30.70    4.60
  12  -6   3   23.70    4.80
  12   6   3   24.60    4.70
  12   6   3   26.70    4.30
 -12   6  -3   27.00    5.30
 -12   6  -3   30.10    4.80
 -12   6  -3   30.10    4.60
   9  -7  -3   63.49    5.70
  -9  -7   3   65.89    5.50
  -9  -7   3   62.09    6.40
  -9  -7   3   74.29    5.90
   9  -7  -3   75.29    5.80
   9  -7  -3   64.69    5.80
  -9   7   3   70.69    6.00
   9   7  -3   58.59    5.80
   9   7  -3   58.19    6.20
   9   7  -3   71.69    5.60
  -9   7   3   63.69    6.30
   7  -7  -3  428.36   15.80
   7  -7  -3  442.06   15.80
  -7  -7   3  435.76   17.50
  -7  -7   3  451.05   14.50
   7  -7  -3  435.86   15.80
  -7  -7   3  446.46   15.70
  -7   7   3  431.46   15.10
   7   7  -3  444.66   15.80
  -7   7   3  409.56   16.40
   7   7  -3  436.76   15.00
  -7   7   3  450.95   16.40
   7   7  -3  426.46   16.80
  -5  -7   3  823.52   26.30
  -5  -7   3  828.02   23.00
  -5  -7   3  825.92   24.30
   5  -7  -3  829.12   24.80
   5  -7  -3  835.52   25.20
  -5   7   3  848.82   23.80
  -5   7   3  795.52   25.50
  -5   7   3  829.62   25.20
   5   7  -3  814.42   24.50
   5   7  -3  813.52   24.00
   5   7  -3  827.42   25.80
   3  -7  -3 1228.58   30.70
  -3  -7   3 1232.58   35.20
  -3  -7   3 1224.48   33.20
   3  -7  -3 1222.08   33.80
  -3  -7   3 1232.38   31.90
   3  -7  -3 1245.68   34.80
  -3  -7   3 1259.97   30.80
   3   7  -3 1247.88   32.60
   3   7  -3 1268.47   35.20
  -3   7   3 1218.48   34.10
  -3   7   3 1270.67   32.50
   3   7  -3 1225.18   33.50
   3   7  -3 1200.38   33.60
  -3   7   3 1184.78   34.60
  -1  -7   3 1228.88   31.70
   1  -7  -3 1250.57   33.90
  -1  -7   3 1270.97   31.60
  -1  -7   3 1217.68   32.70
  -1  -7   3 1282.67   35.00
   1  -7  -3 1267.17   31.70
   1  -7  -3 1214.48   35.00
  -1   7   3 1239.08   34.20
   1   7  -3 1219.48   33.50
  -1   7   3 1206.88   34.40
  -1   7   3 1231.28   31.60
   1   7  -3 1249.57   33.50
   1   7  -3 1228.38   31.40
   1   7  -3 1230.68   33.60
  -1  -7  -3  656.23   21.60
  -1  -7  -3  670.43   19.20
   1  -7   3  659.93   18.90
   1  -7   3  671.13   20.20
   1  -7   3  665.03   18.50
   1  -7   3  693.13   20.80
  -1  -7  -3  679.43   20.40
  -1   7  -3  651.93   20.50
   1   7   3  677.13   20.90
  -1   7  -3  692.63   19.00
   1   7   3  657.73   20.80
  -1   7  -3  649.64   20.60
  -1   7  -3  675.43   18.40
   1   7   3  666.53   17.50
  -1   7  -3  647.14   19.90
  -3  -7  -3  100.29    6.80
   3  -7   3  113.69    5.10
   3  -7   3  142.89    6.70
  -3  -7  -3  120.69    6.20
   3  -7   3  139.49    6.70
   3  -7   3  122.39    6.80
   3   7   3  133.69    6.70
  -3   7  -3  107.09    5.80
  -3   7  -3  104.09    6.50
  -3   7  -3  108.89    6.80
  -5  -7  -3  164.88    9.10
   5  -7   3  183.48    8.10
   5  -7   3  168.28    6.00
   5  -7   3  181.88    8.80
  -5  -7  -3  162.08    8.00
   5  -7   3  187.78    7.60
  -5   7  -3  162.28    8.90
   5   7   3  174.78    8.20
   5   7   3  185.48    8.30
  -5   7  -3  167.78    7.10
  -5   7  -3  157.48    7.80
   5   7   3  173.68    8.60
  -7  -7  -3  324.37   10.50
  -7  -7  -3  328.37   12.90
   7  -7   3  339.57   13.50
  -7  -7  -3  327.17   14.00
   7  -7   3  325.37   12.30
   7  -7   3  319.77   10.80
   7   7   3  323.67   13.30
  -7   7  -3  337.27   11.70
   7   7   3  342.27   12.60
   7   7   3  331.77   12.40
  -7   7  -3  339.47   13.00
  -7   7  -3  321.97   14.10
   9  -7   3  324.47   13.80
   9  -7   3  316.67   12.50
  -9  -7  -3  331.77   14.30
  -9  -7  -3  311.67   13.20
  -9  -7  -3  330.07   11.30
   9   7   3  326.67   12.70
  -9   7  -3  314.37   11.90
  -9   7  -3  298.57   14.20
  -9   7  -3  314.17   13.20
   9   7   3  299.67   13.40
   9   7   3  314.17   12.20
   8  -8  -3   29.10    4.50
  -8  -8   3   31.60    4.60
   8  -8  -3   28.10    4.60
  -8  -8   3   32.40    4.60
   8  -8  -3   32.10    4.60
  -8  -8   3   33.60    5.40
   8   8  -3   31.80    4.40
  -8   8   3   32.40    4.80
   8   8  -3   31.10    5.50
   8   8  -3   31.90    4.70
  -8   8   3   34.10    5.30
   6  -8  -3  159.48    8.60
  -6  -8   3  131.99    9.00
   6  -8  -3  140.59    8.20
   6  -8  -3  138.89    8.10
  -6  -8   3  147.99    8.00
  -6  -8   3  136.59    6.90
   6   8  -3  149.49    9.10
   6   8  -3  140.89    8.00
   6   8  -3  141.49    8.00
  -6   8   3  132.89    8.70
  -6   8   3  141.59    7.60
  -6   8   3  140.29    8.50
   4  -8  -3   21.30    2.20
  -4  -8   3   19.30    3.00
   4  -8  -3   23.90    3.90
  -4  -8   3   25.70    4.30
  -4  -8   3   19.50    3.40
   4  -8  -3   26.20    4.40
   4   8  -3   28.10    3.80
   4   8  -3   19.80    3.20
   4   8  -3   21.00    3.70
  -4   8   3   22.30    4.10
  -4   8   3   29.50    4.20
  -4   8   3   22.80    3.30
   2  -8  -3   48.10    3.50
  -2  -8   3   46.50    3.60
   2  -8  -3   51.09    4.80
  -2  -8   3   51.09    4.30
  -2  -8   3   54.69    5.40
   2  -8  -3   54.39    5.20
  -2  -8   3   52.39    3.40
  -2   8   3   56.29    4.00
   2   8  -3   56.29    4.60
   2   8  -3   55.89    4.90
  -2   8   3   51.79    5.10
  -2   8   3   57.29    5.20
   2   8  -3   58.69    4.90
   0  -8   3  200.68    9.70
   0  -8  -3  191.88    7.80
   0  -8   3  192.48    7.30
   0  -8   3  196.58    8.10
   0  -8   3  191.38    7.50
   0  -8  -3  191.58   10.00
   0  -8  -3  203.28    9.40
   0  -8   3  208.98    9.40
   0   8   3  188.48    9.40
   0   8  -3  193.38    7.50
   0   8  -3  192.28    9.30
   0   8  -3  197.58    9.30
   0   8  -3  203.28    9.20
   0   8   3  191.78    9.50
   2  -8   3   77.49    4.40
   2  -8   3   86.69    4.70
   2  -8   3   83.89    5.80
  -2  -8  -3   87.49    6.60
  -2  -8  -3   87.89    5.30
  -2  -8  -3   82.69    5.90
   2  -8   3   89.09    5.80
  -2   8  -3   77.09    6.00
   2   8   3   87.39    6.20
  -2   8  -3   72.69    4.80
   2   8   3   83.49    6.00
  -2   8  -3   84.19    6.10
   2   8   3   83.39    5.90
   4  -8   3   20.00    3.90
   4  -8   3   23.40    3.80
  -4  -8  -3   24.30    4.40
   4  -8   3   21.40    3.50
   4  -8   3   21.50    2.70
  -4  -8  -3   14.80    3.20
  -4  -8  -3   22.00    3.50
   4   8   3   23.90    4.10
  -4   8  -3   17.70    2.80
   4   8   3   25.70    3.80
   4   8   3   22.50    3.80
  -4   8  -3   23.40    4.10
  -4   8  -3   24.70    3.70
  -4   8  -3   18.30    3.90
  -6  -8  -3   23.20    4.70
   6  -8   3   25.10    3.80
   6  -8   3   26.20    3.60
   6  -8   3   24.60    4.20
  -6  -8  -3   19.70    3.60
   6   8   3   20.50    3.60
  -6   8  -3   13.10    3.70
   6   8   3   17.80    3.80
  -6   8  -3   22.40    3.80
   6   8   3   21.00    3.70
   8  -8   3   44.60    4.80
  -8  -8  -3   45.00    6.50
   8  -8   3   35.70    4.90
   8  -8   3   31.60    4.80
  -8  -8  -3   31.20    5.20
  -8  -8  -3   40.30    5.10
   8   8   3   37.90    4.80
  -8   8  -3   35.60    5.00
  -8   8  -3   41.30    5.70
   8   8   3   32.00    4.90
   8   8   3   41.90    5.20
  -5  -9   3  164.18    7.50
  -5  -9   3  148.79    9.90
   5  -9  -3  149.09    9.20
  -5  -9   3  150.28    8.50
   5  -9  -3  148.89    8.80
   5   9  -3  146.09    8.60
  -5   9   3  145.49    8.10
   5   9  -3  153.58    8.60
  -5   9   3  145.09    9.20
  -5   9   3  140.59    9.40
  -3  -9   3  102.19    6.50
   3  -9  -3  109.19    5.40
   3  -9  -3   98.59    6.90
  -3  -9   3  109.19    7.90
  -3  -9   3   98.79    5.40
   3  -9  -3  103.79    7.40
   3   9  -3   91.39    6.30
  -3   9   3   92.49    5.90
  -3   9   3   91.69    7.20
  -3   9   3   90.99    7.00
   3   9  -3   93.69    6.80
   3   9  -3  100.89    7.10
  -1  -9   3  164.78    6.90
  -1  -9   3  175.58    9.80
  -1  -9   3  175.78    9.30
  -1  -9   3  165.08    8.00
  -1  -9   3  166.48    6.80
   1  -9  -3  172.78    9.20
   1  -9  -3  164.18    7.30
   1  -9  -3  162.18    9.80
   1   9  -3  177.98    9.20
   1   9  -3  175.18    9.30
   1   9  -3  160.38    8.80
  -1   9   3  171.68    9.50
  -1   9   3  167.38    9.50
  -1  -9  -3  429.86   17.40
   1  -9   3  442.46   16.00
  -1  -9  -3  441.96   14.40
  -1  -9  -3  441.06   16.20
   1  -9   3  430.26   13.00
   1  -9   3  431.36   16.40
   1  -9   3  423.16   14.00
   1   9   3  436.56   16.70
  -1   9  -3  395.46   13.60
   1   9   3  415.16   16.40
  -1   9  -3  430.96   16.40
  -1   9  -3  426.46   16.40
   3  -9   3  544.05   19.60
   3  -9   3  540.25   18.70
   3  -9   3  528.65   15.60
   3  -9   3  535.95   15.80
   3  -9   3  548.65   18.60
  -3  -9  -3  526.45   20.30
  -3  -9  -3  536.75   17.70
  -3  -9  -3  537.05   19.00
   3   9   3  532.35   19.40
   3   9   3  533.75   18.80
  -3   9  -3  533.95   19.50
   3   9   3  564.24   19.20
  -3   9  -3  541.75   17.30
  -3   9  -3  512.35   19.50
   5  -9   3  403.36   13.10
   5  -9   3  439.06   17.00
  -5  -9  -3  411.96   17.60
  -5  -9  -3  424.86   16.30
  -5  -9  -3  426.46   15.60
   5  -9   3  413.36   15.70
   5  -9   3  427.16   15.20
   5   9   3  407.66   15.70
  -5   9  -3  401.46   17.10
   5   9   3  428.36   16.20
  -5   9  -3  423.56   15.20
   5   9   3  430.96   16.90
 -14   0   4  190.38    8.20
  14   0  -4  188.28    9.20
 -14   0   4  192.28   10.00
  14   0  -4  185.88    8.70
  14   0  -4  186.38    9.80
 -14   0   4  175.28    8.90
  12   0  -4  568.44   19.30
 -12   0   4  584.54   17.10
  12   0  -4  581.24   18.90
 -12   0   4  572.44   18.10
  12   0  -4  562.94   17.50
 -12   0   4  583.14   18.80
  10   0  -4   19.50    2.40
 -10   0   4   14.80    2.20
 -10   0   4   12.70    1.90
 -10   0   4   20.80    2.60
  10   0  -4   21.60    2.90
  10   0  -4   13.30    2.00
   8   0  -4  978.70   27.40
   8   0  -4  987.90   27.10
  -8   0   4  979.10   26.30
  -8   0   4  992.70   25.70
   8   0  -4  966.30   25.30
   8   0  -4  982.40   25.30
  -8   0   4  991.50   26.60
   8   0  -4  966.10   24.30
  -8   0   4 1020.20   24.70
   6   0  -4 1508.55   38.10
   6   0  -4 1531.15   37.30
   6   0  -4 1441.76   35.10
  -6   0   4 1453.45   36.70
  -6   0   4 1409.26   35.10
   6   0  -4 1488.35   35.90
  -6   0   4 1447.66   35.20
  -6   0   4 1430.56   36.60
   6   0  -4 1471.35   35.20
   6   0  -4 1398.66   35.10
  -4   0   4  667.23   18.90
   4   0  -4  753.82   18.70
  -4   0   4  684.83   18.90
   4   0  -4  700.23   18.10
   4   0  -4  732.03   20.20
   4   0  -4  778.42   19.20
  -4   0   4  694.13   18.20
   2   0  -4  298.47    9.00
   2   0  -4  292.97    9.00
   2   0  -4  355.06    9.00
   0   0   4 9307.07  220.88
   0   0  -4 9693.43  221.08
   0   0  -4 9752.02  220.78
   0   0   4 9549.94  221.58
   0   0   4 9644.24  221.18
   0   0  -4 9093.09  219.78
   0   0   4 9630.74  219.58
   0   0  -4 9131.19  221.58
   0   0   4 9999.00  220.88
   0   0  -4 9372.56  221.08
   2   0   4 3371.86   80.69
  -2   0  -4 3276.87   79.79
   2   0   4 3325.87   79.89
   2   0   4 3498.45   79.99
  -2   0  -4 3326.17   80.19
  -2   0  -4 3347.06   80.19
   2   0   4 3480.35   79.69
  -2   0  -4 3443.56   80.09
   4   0   4 3517.05   85.29
   4   0   4 3467.95   83.49
  -4   0  -4 3571.74   84.39
   4   0   4 3604.14   84.89
  -4   0  -4 3669.83   84.79
  -4   0  -4 3551.04   84.59
  -4   0  -4 3531.15   83.79
  -6   0  -4 3062.69   70.89
   6   0   4 2990.10   71.99
   6   0   4 2896.91   71.99
  -6   0  -4 2919.91   69.09
   6   0   4 2913.61   68.99
  -6   0  -4 2841.52   69.19
   6   0   4 2988.10   69.19
  -6   0  -4 2901.11   69.39
  -6   0  -4 2941.81   71.39
  -6   0  -4 3027.30   71.09
   8   0   4 1372.26   34.40
  -8   0  -4 1438.06   35.90
  -8   0  -4 1396.36   35.80
  -8   0  -4 1350.66   36.50
   8   0   4 1411.66   37.10
   8   0   4 1435.56   37.40
 -10   0  -4   13.10    2.60
  10   0   4   16.90    2.90
 -10   0  -4   14.10    2.50
 -10   0  -4   18.60    2.80
  10   0   4   13.60    2.00
  10   0   4   14.50    2.90
  12   0   4  418.06   13.30
  12   0   4  406.06   15.70
 -12   0  -4  411.86   14.10
 -12   0  -4  422.16   13.90
  12   0   4  432.46   15.20
 -12   0  -4  406.76   15.20
 -14   0  -4  276.67   11.00
 -14   0  -4  279.47   11.40
  14   0   4  282.97   12.30
  14   0   4  299.47   13.30
 -14   0  -4  284.47   12.70
  14   0   4  274.67   10.70
  15  -1  -4   26.30    4.40
  15  -1  -4   33.00    4.90
 -15  -1   4   30.10    4.40
  15  -1  -4   38.20    4.90
 -15  -1   4   26.90    4.10
 -15  -1   4   36.70    5.60
  15   1  -4   26.70    4.50
  15   1  -4   26.90    4.20
 -15   1   4   39.00    5.50
  15   1  -4   31.20    4.70
 -15   1   4   33.80    4.90
 -13  -1   4    6.70    2.10
 -13  -1   4    9.90    2.60
  13  -1  -4   10.70    2.90
 -13  -1   4   12.20    3.30
  13  -1  -4    8.20    2.50
  13  -1  -4    2.30    1.50
  13  -1  -4   12.80    3.00
  13   1  -4    6.00    2.20
  13   1  -4    5.80    2.30
 -13   1   4    4.90    2.00
 -13   1   4    4.80    2.70
 -13   1   4    9.40    2.40
  13   1  -4   12.90    3.00
 -13   1   4   10.50    3.00
 -11  -1   4  105.59    5.60
  11  -1  -4  109.99    5.70
  11  -1  -4  111.99    6.60
 -11  -1   4  107.59    6.20
  11  -1  -4  111.09    6.30
 -11  -1   4  109.09    5.60
  11   1  -4  104.59    6.40
  11   1  -4  104.09    6.30
 -11   1   4  114.49    5.10
  11   1  -4   98.39    5.30
 -11   1   4  106.99    6.10
 -11   1   4  106.39    6.00
 -11   1   4  111.09    5.30
   9  -1  -4   39.70    3.60
  -9  -1   4   45.60    3.70
  -9  -1   4   45.10    3.30
  -9  -1   4   46.40    3.30
   9  -1  -4   42.50    3.70
   9  -1  -4   44.00    3.20
  -9   1   4   45.70    3.10
  -9   1   4   46.20    2.90
  -9   1   4   43.10    3.40
   9   1  -4   43.30    3.70
  -9   1   4   45.10    3.50
   9   1  -4   37.90    2.80
   9   1  -4   42.60    3.80
  -7  -1   4   20.20    2.30
  -7  -1   4   20.40    2.20
   7  -1  -4   32.30    3.00
  -7  -1   4   21.20    2.10
   7  -1  -4   23.10    1.80
  -7  -1   4   24.80    2.10
   7  -1  -4   29.10    2.20
   7  -1  -4   25.40    2.10
  -7   1   4   22.80    2.40
   7   1  -4   30.40    3.00
   7   1  -4   22.60    1.80
   7   1  -4   26.20    2.60
   7   1  -4   25.60    2.20
  -7   1   4   21.20    2.00
  -7   1   4   22.40    2.30
  -5  -1   4  179.28    6.90
   5  -1  -4  187.18    6.40
  -5  -1   4  192.48    6.80
   5  -1  -4  207.68    6.10
   5  -1  -4  194.48    5.80
   5  -1  -4  199.28    6.30
  -5  -1   4  185.88    5.50
  -5  -1   4  193.28    5.50
   5  -1  -4  207.48    7.30
   5  -1  -4  208.88    7.90
  -5   1   4  183.58    6.90
  -5   1   4  198.28    6.80
   5   1  -4  188.58    5.40
  -5   1   4  191.48    6.50
   5   1  -4  205.78    7.20
   5   1  -4  205.28    6.80
   5   1  -4  191.78    5.60
   5   1  -4  198.58    7.90
   3  -1  -4   56.69    2.00
   3  -1  -4   50.29    2.60
   3  -1  -4   49.80    2.80
  -3  -1   4   46.70    2.80
  -3  -1   4   53.59    2.80
  -3  -1   4   46.10    2.60
   3  -1  -4   47.70    3.20
  -3  -1   4   47.10    2.30
   3  -1  -4   51.99    2.80
   3  -1  -4   49.60    2.00
   3   1  -4   51.39    2.40
   3   1  -4   49.60    2.60
  -3   1   4   46.50    2.80
  -3   1   4   54.39    2.90
  -3   1   4   49.99    2.70
  -3   1   4   49.20    2.50
   3   1  -4   53.29    2.80
   3   1  -4   54.99    3.40
   1  -1  -4  214.58    6.00
  -1  -1   4  203.08    5.70
   1  -1  -4  187.98    5.90
   1  -1  -4  215.48    7.80
   1  -1  -4  188.78    5.40
   1   1  -4  197.28    5.60
  -1   1   4  163.98    6.30
  -1   1   4  176.58    5.90
   1   1  -4  180.08    6.20
   1   1  -4  197.28    7.00
  -1  -1  -4 1696.43   41.00
   1  -1   4 1611.64   40.90
   1  -1   4 1615.34   40.90
   1  -1   4 1672.73   40.20
   1  -1   4 1690.83   41.30
  -1  -1  -4 1718.63   39.50
  -1  -1  -4 1714.63   40.60
  -1  -1  -4 1721.23   41.60
  -1  -1  -4 1729.63   40.40
   1   1   4 1761.82   40.80
   1   1   4 1610.24   41.40
   1   1   4 1683.33   40.30
  -1   1  -4 1684.33   41.00
   1   1   4 1714.53   41.50
  -1   1  -4 1685.63   41.00
  -1   1  -4 1681.53   41.20
  -1   1  -4 1627.04   40.20
  -1   1  -4 1661.43   40.90
   1   1   4 1661.73   40.50
  -3  -1  -4   96.69    5.00
   3  -1   4   97.19    3.60
   3  -1   4   95.39    4.50
  -3  -1  -4   93.99    4.00
  -3  -1  -4   98.59    4.20
   3  -1   4   97.89    4.20
  -3  -1  -4   92.29    4.20
  -3   1  -4   90.79    4.10
   3   1   4   99.79    3.90
  -3   1  -4   95.69    4.10
   3   1   4   94.99    4.00
  -3   1  -4   99.19    3.70
   3   1   4   99.19    4.10
  -3   1  -4  100.39    4.30
   3   1   4   93.29    4.50
  -3   1  -4   89.09    4.10
  -5  -1  -4  673.53   17.80
  -5  -1  -4  692.33   18.60
  -5  -1  -4  671.53   16.90
   5  -1   4  682.03   19.30
   5  -1   4  655.43   18.80
  -5  -1  -4  676.33   17.90
  -5  -1  -4  677.83   18.60
  -5   1  -4  669.73   18.50
   5   1   4  677.63   16.80
  -5   1  -4  687.53   18.30
  -5   1  -4  671.43   18.70
   5   1   4  669.73   17.80
   5   1   4  691.83   18.90
   5   1   4  663.53   17.60
   5   1   4  675.53   19.10
   7  -1   4  186.98    7.90
  -7  -1  -4  176.78    6.10
   7  -1   4  185.98    7.80
  -7  -1  -4  186.28    6.10
   7  -1   4  182.48    5.90
  -7  -1  -4  178.58    7.10
  -7  -1  -4  195.98    7.40
  -7  -1  -4  193.28    6.70
  -7  -1  -4  173.88    6.10
  -7   1  -4  186.38    6.90
   7   1   4  173.48    5.80
  -7   1  -4  176.88    6.00
  -7   1  -4  178.08    7.40
   7   1   4  180.98    7.70
   7   1   4  186.88    7.70
  -7   1  -4  182.18    7.10
   9  -1   4   25.00    2.30
  -9  -1  -4   23.60    2.80
  -9  -1  -4   18.70    2.60
   9  -1   4   24.80    3.00
  -9  -1  -4   31.80    2.70
  -9  -1  -4   20.10    2.10
  -9  -1  -4   17.00    1.80
   9  -1   4   25.50    3.10
  -9   1  -4   23.60    2.40
   9   1   4   27.90    3.20
   9   1   4   23.20    3.00
   9   1   4   22.90    2.20
  -9   1  -4   25.40    2.80
  -9   1  -4   23.70    2.90
  11  -1   4   72.79    5.60
 -11  -1  -4   79.69    4.70
 -11  -1  -4   78.89    5.40
  11  -1   4   76.99    4.40
  11  -1   4   83.09    5.70
 -11  -1  -4   83.09    5.20
  11   1   4   80.79    5.40
 -11   1  -4   77.49    5.00
  11   1   4   78.79    5.80
  11   1   4   76.99    4.40
 -11   1  -4   76.49    5.50
 -11   1  -4   77.09    4.60
 -13  -1  -4   12.00    2.70
 -13  -1  -4   12.40    3.00
 -13  -1  -4   10.40    3.10
  13  -1   4   12.80    2.60
  13  -1   4    7.80    2.70
  13  -1   4    9.90    3.20
 -13   1  -4   16.50    3.20
 -13   1  -4    8.60    2.80
  13   1   4   10.00    2.70
  13   1   4    8.60    2.40
 -13   1  -4   10.60    2.50
  13   1   4    9.00    2.90
  15  -1   4   47.90    5.60
  15  -1   4   51.59    5.90
  15  -1   4   53.99    5.00
 -15  -1  -4   53.19    5.90
 -15  -1  -4   61.49    5.40
 -15  -1  -4   46.60    5.30
  15   1   4   51.99    5.70
 -15   1  -4   50.39    6.00
 -15   1  -4   51.69    5.70
  15   1   4   50.09    5.30
  15   1   4   61.89    6.00
 -14  -2   4  120.79    7.80
 -14  -2   4  125.09    7.30
  14  -2  -4  108.79    7.00
  14  -2  -4  120.09    7.20
  14  -2  -4  111.99    7.70
 -14  -2   4  117.79    6.80
 -14   2   4  120.79    7.60
 -14   2   4  122.29    7.00
  14   2  -4  108.69    6.70
  14   2  -4  123.29    7.80
  14   2  -4  114.39    7.90
 -14   2   4  119.59    7.60
 -12  -2   4  301.97   12.40
 -12  -2   4  292.67   11.50
  12  -2  -4  314.77   12.90
 -12  -2   4  319.47   11.30
  12  -2  -4  322.37   12.20
  12  -2  -4  323.87   11.90
 -12   2   4  334.77   12.40
  12   2  -4  319.47   13.00
  12   2  -4  316.17   11.30
 -12   2   4  315.77   12.40
 -12   2   4  328.97   11.50
  12   2  -4  324.47   12.90
 -10  -2   4  458.05   15.50
 -10  -2   4  474.35   15.00
  10  -2  -4  483.85   15.70
  10  -2  -4  469.75   15.90
  10  -2  -4  467.35   14.70
 -10  -2   4  471.85   14.30
 -10   2   4  453.85   13.10
 -10   2   4  459.95   15.40
  10   2  -4  481.45   16.30
  10   2  -4  466.35   15.90
 -10   2   4  456.35   14.90
 -10   2   4  483.25   14.70
  10   2  -4  454.65   14.00
   8  -2  -4  637.34   17.60
  -8  -2   4  621.84   17.90
   8  -2  -4  634.74   16.10
  -8  -2   4  593.24   18.20
   8  -2  -4  623.14   18.80
  -8  -2   4  594.74   17.20
   8  -2  -4  622.34   18.80
   8   2  -4  640.64   18.70
   8   2  -4  634.54   19.30
  -8   2   4  610.34   17.50
  -8   2   4  605.84   17.60
  -8   2   4  598.34   18.10
   8   2  -4  584.34   16.50
  -8   2   4  629.54   16.40
   6  -2  -4  231.98    7.30
   6  -2  -4  220.08    6.60
  -6  -2   4  210.68    7.30
  -6  -2   4  196.38    6.60
  -6  -2   4  208.08    7.80
   6  -2  -4  226.58    8.40
   6  -2  -4  222.68    8.70
  -6  -2   4  210.08    7.90
   6   2  -4  219.38    7.60
  -6   2   4  214.98    7.30
   6   2  -4  224.28    8.10
  -6   2   4  203.58    7.80
   6   2  -4  214.78    6.60
   6   2  -4  223.48    8.80
  -6   2   4  212.68    7.60
  -4  -2   4 2412.76   58.89
   4  -2  -4 2433.16   57.59
   4  -2  -4 2375.46   59.99
   4  -2  -4 2358.86   58.89
  -4  -2   4 2436.46   57.09
  -4  -2   4 2458.05   58.39
   4  -2  -4 2458.95   57.89
  -4  -2   4 2374.26   57.09
   4  -2  -4 2467.35   57.79
  -4  -2   4 2364.26   56.89
  -4   2   4 2462.75   57.99
  -4   2   4 2452.15   58.89
  -4   2   4 2420.06   58.89
  -4   2   4 2494.95   57.99
   4   2  -4 2540.25   57.09
  -4   2   4 2356.56   57.99
   4   2  -4 2439.86   58.69
   4   2  -4 2454.85   60.19
   4   2  -4 2399.16   58.69
  -2  -2   4 2503.95   59.39
  -2  -2   4 2450.95   58.59
  -2  -2   4 2473.55   59.59
   2  -2  -4 2473.95   59.99
   2  -2  -4 2626.44   59.19
   2  -2  -4 2513.55   59.69
  -2  -2   4 2430.56   60.19
  -2  -2   4 2422.06   59.79
   2  -2  -4 2515.15   61.49
  -2  -2   4 2534.05   59.59
  -2   2   4 2486.35   59.89
  -2   2   4 2482.75   59.19
   2   2  -4 2482.45   60.09
   2   2  -4 2486.85   59.59
   2   2  -4 2498.35   58.59
  -2   2   4 2648.03   59.29
  -2   2   4 2486.95   59.99
  -2   2   4 2552.04   60.59
  -2   2   4 2502.45   59.29
   2   2  -4 2500.75   60.19
   2   2  -4 2522.25   61.19
   0  -2  -4 2521.95   59.69
   0  -2   4 2484.85   60.39
   0  -2  -4 2555.24   61.49
   0  -2   4 2516.85   59.39
   0  -2  -4 2455.25   59.59
   0  -2   4 2478.95   59.39
   0  -2  -4 2537.55   60.39
   0  -2   4 2589.84   60.79
   0  -2   4 2527.75   60.49
   0  -2   4 2503.05   59.59
   0  -2  -4 2634.04   59.99
   0  -2  -4 2625.94   59.49
   0   2   4 2548.74   59.89
   0   2   4 2538.25   60.09
   0   2   4 2560.94   59.59
   0   2  -4 2415.96   59.29
   0   2   4 2495.45   61.09
   0   2  -4 2458.95   60.39
   0   2  -4 2461.55   60.39
   0   2  -4 2515.25   60.89
   2  -2   4 1644.14   39.40
   2  -2   4 1669.33   41.50
  -2  -2  -4 1711.53   40.20
   2  -2   4 1634.44   40.40
  -2  -2  -4 1622.24   41.00
  -2  -2  -4 1686.43   40.20
  -2  -2  -4 1673.33   39.80
   2  -2   4 1696.43   40.70
   2  -2   4 1619.34   40.50
  -2  -2  -4 1646.04   41.40
  -2  -2  -4 1671.53   39.60
   2  -2   4 1653.63   39.40
  -2   2  -4 1629.84   40.30
  -2   2  -4 1633.94   40.90
  -2   2  -4 1620.34   41.00
  -2   2  -4 1637.04   40.70
   2   2   4 1711.73   41.80
   2   2   4 1688.83   40.20
   2   2   4 1677.43   40.20
   2   2   4 1712.73   40.20
   2   2   4 1703.53   40.70
  -4  -2  -4 2534.35   62.69
  -4  -2  -4 2620.94   62.99
   4  -2   4 2618.34   63.69
  -4  -2  -4 2669.03   62.29
   4  -2   4 2637.14   63.09
   4  -2   4 2467.25   60.89
  -4  -2  -4 2667.13   61.29
   4  -2   4 2593.04   61.09
   4  -2   4 2512.95   61.09
   4   2   4 2624.44   61.59
   4   2   4 2764.32   63.09
   4   2   4 2620.54   63.39
   4   2   4 2617.54   61.29
  -4   2  -4 2541.35   62.89
  -4   2  -4 2544.75   62.19
  -4   2  -4 2482.15   60.99
   4   2   4 2619.54   61.59
  -4   2  -4 2565.84   62.79
  -6  -2  -4  538.95   15.30
  -6  -2  -4  547.45   15.90
  -6  -2  -4  534.05   14.40
   6  -2   4  531.45   16.60
  -6  -2  -4  539.55   15.50
   6  -2   4  484.05   13.90
  -6  -2  -4  543.85   14.50
   6  -2   4  543.35   14.30
   6  -2   4  532.45   16.40
   6   2   4  529.45   14.40
  -6   2  -4  546.15   15.10
   6   2   4  553.14   16.40
   6   2   4  551.44   14.30
  -6   2  -4  537.05   14.30
  -6   2  -4  516.85   15.80
   6   2   4  560.14   16.30
  -6   2  -4  535.65   15.90
  -8  -2  -4 1138.69   28.70
  -8  -2  -4 1144.29   30.30
  -8  -2  -4 1127.49   30.10
  -8  -2  -4 1110.19   29.10
   8  -2   4 1107.69   31.10
   8  -2   4 1105.49   28.60
   8  -2   4 1137.89   31.20
  -8   2  -4 1150.28   29.20
  -8   2  -4 1126.89   30.30
   8   2   4 1130.59   31.00
   8   2   4 1130.39   28.70
   8   2   4 1124.49   30.60
  -8   2  -4 1128.89   30.50
  10  -2   4  816.82   24.80
 -10  -2  -4  813.12   22.30
  10  -2   4  832.02   22.50
  10  -2   4  815.32   25.00
 -10  -2  -4  846.02   24.30
 -10  -2  -4  861.91   22.40
 -10  -2  -4  832.02   23.90
 -10   2  -4  811.22   22.50
  10   2   4  833.42   24.30
 -10   2  -4  832.82   24.40
 -10   2  -4  839.92   24.10
  10   2   4  828.02   25.10
  10   2   4  841.92   22.60
  12  -2   4  386.36   13.10
 -12  -2  -4  411.16   14.30
 -12  -2  -4  401.66   14.80
 -12  -2  -4  396.26   12.80
  12  -2   4  397.26   15.50
  12  -2   4  404.66   15.00
  12   2   4  391.26   15.50
 -12   2  -4  414.66   14.60
 -12   2  -4  404.66   12.90
 -12   2  -4  397.96   14.90
  12   2   4  402.26   13.20
  12   2   4  411.46   14.60
  14  -2   4   51.79    4.60
  14  -2   4   57.79    6.10
 -14  -2  -4   56.49    5.30
  14  -2   4   54.59    5.50
 -14  -2  -4   54.39    4.80
 -14  -2  -4   57.19    5.90
 -14   2  -4   55.69    5.40
  14   2   4   56.69    5.00
  14   2   4   53.29    5.40
 -14   2  -4   51.29    5.70
  14   2   4   57.89    6.00
  13  -3  -4   22.00    4.00
  13  -3  -4   20.30    3.80
 -13  -3   4   18.90    3.50
  13  -3  -4   20.10    3.50
 -13  -3   4   23.00    3.50
 -13  -3   4   26.50    4.50
  13   3  -4   23.20    4.20
  13   3  -4   24.20    4.40
 -13   3   4   24.50    4.10
 -13   3   4   17.90    3.70
 -13   3   4   19.50    4.00
  13   3  -4   19.80    3.50
 -11  -3   4    3.80    1.80
 -11  -3   4    1.80    1.70
 -11  -3   4    4.20    2.20
  11  -3  -4    6.50    2.40
  11  -3  -4    5.80    2.10
  11  -3  -4    5.20    2.10
  11   3  -4    2.60    1.80
 -11   3   4    0.40    2.00
  11   3  -4    5.70    2.40
 -11   3   4    2.80    2.10
  11   3  -4    2.50    1.70
 -11   3   4    1.10    1.90
  -9  -3   4   58.49    3.60
  -9  -3   4   52.59    4.10
  -9  -3   4   52.69    4.20
   9  -3  -4   50.59    4.10
   9  -3  -4   54.09    4.00
   9  -3  -4   54.99    4.50
   9   3  -4   56.19    4.30
  -9   3   4   58.89    2.70
  -9   3   4   55.49    4.00
   9   3  -4   52.79    3.40
   9   3  -4   56.49    4.70
  -9   3   4   56.49    4.20
  -9   3   4   51.89    4.20
   7  -3  -4   61.89    4.20
   7  -3  -4   62.29    3.80
   7  -3  -4   63.99    4.50
  -7  -3   4   59.59    3.90
  -7  -3   4   57.39    4.00
  -7  -3   4   60.39    3.30
   7  -3  -4   62.29    2.70
  -7   3   4   62.39    4.00
  -7   3   4   60.99    4.00
   7   3  -4   59.59    3.20
  -7   3   4   59.49    3.10
   7   3  -4   62.39    3.70
  -7   3   4   61.29    3.50
   7   3  -4   62.79    4.50
   7   3  -4   56.39    4.00
   5  -3  -4   50.99    3.80
  -5  -3   4   50.69    2.90
   5  -3  -4   52.79    3.10
   5  -3  -4   49.60    3.50
   5  -3  -4   50.49    2.50
  -5  -3   4   46.80    2.80
  -5  -3   4   54.09    3.50
  -5  -3   4   55.99    3.50
  -5   3   4   47.70    2.80
  -5   3   4   54.59    3.60
   5   3  -4   57.59    4.10
   5   3  -4   50.39    3.30
  -5   3   4   48.90    3.30
  -5   3   4   53.19    3.30
  -5   3   4   54.59    2.80
   5   3  -4   51.49    2.60
   5   3  -4   50.99    3.20
   3  -3  -4  493.35   15.40
   3  -3  -4  499.85   13.30
   3  -3  -4  489.35   14.40
  -3  -3   4  491.55   13.70
  -3  -3   4  501.65   13.20
  -3  -3   4  491.85   13.20
  -3  -3   4  489.75   14.30
  -3  -3   4  480.65   13.00
  -3   3   4  524.95   14.90
   3   3  -4  489.75   14.20
  -3   3   4  500.25   12.90
  -3   3   4  491.35   14.20
   3   3  -4  489.15   14.00
   3   3  -4  493.25   13.10
  -3   3   4  491.45   12.90
   3   3  -4  492.85   15.30
  -3   3   4  517.35   14.00
  -3   3   4  522.45   14.90
  -1  -3   4    4.40    1.00
   1  -3  -4    4.30    1.30
  -1  -3   4    7.00    1.30
  -1  -3   4    2.70    0.90
   1   3  -4    5.90    1.30
  -1   3   4    4.40    0.90
  -1   3   4    5.60    1.20
  -1   3   4    3.50    0.90
   1  -3   4  167.18    5.50
   1  -3   4  166.28    5.90
  -1  -3  -4  172.58    7.00
  -1  -3  -4  170.78    5.80
   1  -3   4  157.68    6.00
  -1  -3  -4  168.08    5.90
  -1  -3  -4  168.18    6.10
   1  -3   4  165.78    6.40
  -1  -3  -4  173.28    5.20
   1   3   4  173.78    5.30
  -1   3  -4  167.88    5.50
  -1   3  -4  169.58    6.20
   1   3   4  174.88    5.60
  -1   3  -4  166.38    6.20
   1   3   4  165.48    6.70
  -1   3  -4  162.08    6.00
   1   3   4  164.08    6.10
  -1   3  -4  161.58    6.10
   3  -3   4  111.69    4.10
   3  -3   4  111.69    5.30
  -3  -3  -4  109.59    4.40
   3  -3   4  114.69    4.10
  -3  -3  -4  100.99    4.10
  -3  -3  -4   99.59    4.80
   3  -3   4  115.09    5.00
   3  -3   4  114.19    4.40
  -3  -3  -4  105.69    5.20
  -3   3  -4  100.49    4.80
   3   3   4  119.09    4.30
   3   3   4  116.79    4.10
   3   3   4  110.19    5.00
  -3   3  -4  111.09    4.90
   3   3   4  103.49    5.10
  -3   3  -4  109.29    4.50
  -3   3  -4   97.29    4.10
   3   3   4  112.29    4.10
   3   3   4  118.29    4.30
   5  -3   4    4.40    1.30
  -5  -3  -4    2.80    1.40
   5  -3   4    4.50    1.50
   5  -3   4    4.20    1.10
   5  -3   4    7.00    1.20
  -5  -3  -4    3.50    1.30
  -5  -3  -4    3.30    1.10
  -5   3  -4    3.50    1.20
   5   3   4    7.10    1.20
   5   3   4    6.50    1.20
  -5   3  -4    5.10    1.60
  -5   3  -4    6.70    1.30
   5   3   4    5.00    1.00
   5   3   4    6.90    1.60
   5   3   4    3.80    1.30
  -7  -3  -4   78.09    4.40
  -7  -3  -4   77.99    4.70
   7  -3   4   78.19    5.00
  -7  -3  -4   80.09    4.50
   7  -3   4   78.19    5.00
   7  -3   4   74.29    3.80
  -7   3  -4   77.79    3.80
   7   3   4   77.89    4.90
   7   3   4   79.09    4.00
  -7   3  -4   73.29    4.60
  -7   3  -4   76.19    4.60
   7   3   4   83.69    4.90
   7   3   4   74.89    3.30
  -9  -3  -4    0.70    1.40
  -9  -3  -4    2.50    1.60
  -9  -3  -4    1.20    1.30
   9  -3   4    3.10    1.30
  -9  -3  -4    2.00    1.50
   9  -3   4    2.40    1.60
   9  -3   4    2.80    1.50
   9   3   4    0.00    1.40
  -9   3  -4   -0.50    1.20
   9   3   4    1.60    1.20
  -9   3  -4    1.30    1.60
   9   3   4    2.30    1.20
  -9   3  -4    0.10    1.30
 -11  -3  -4  113.89    6.50
  11  -3   4   93.89    5.30
 -11  -3  -4  104.49    6.30
  11  -3   4  107.59    7.00
 -11  -3  -4  104.19    4.70
 -11  -3  -4  103.69    5.60
  11  -3   4  102.39    6.70
 -11   3  -4   80.79    4.70
  11   3   4  102.59    6.90
 -11   3  -4  100.09    6.30
  11   3   4  104.29    6.30
 -11   3  -4  107.19    6.60
  11   3   4  105.59    5.50
 -13  -3  -4    0.10    2.00
 -13  -3  -4    3.10    2.20
  13  -3   4    5.20    2.40
 -13  -3  -4    3.30    2.50
 -13  -3  -4   -0.30    2.20
  13  -3   4    0.80    2.10
  13  -3   4    2.70    2.50
  13   3   4   -2.80    2.00
 -13   3  -4    0.80    2.30
 -13   3  -4    7.20    3.00
  13   3   4    0.30    2.30
  13   3   4   -0.80    1.90
 -13   3  -4   -2.50    2.00
  12  -4  -4  137.09    8.10
  12  -4  -4  132.89    7.40
  12  -4  -4  131.69    7.40
 -12  -4   4  133.99    6.20
 -12  -4   4  132.99    7.80
 -12  -4   4  124.29    7.50
  12   4  -4  128.89    8.00
  12   4  -4  130.09    6.80
 -12   4   4  138.69    7.90
 -12   4   4  136.79    7.20
 -12   4   4  128.59    7.80
  12   4  -4  139.19    8.40
  10  -4  -4  676.03   21.00
 -10  -4   4  674.83   20.80
 -10  -4   4  678.73   21.10
  10  -4  -4  663.73   21.50
 -10  -4   4  697.73   18.70
  10  -4  -4  669.23   20.40
 -10   4   4  671.83   21.00
  10   4  -4  669.03   19.40
 -10   4   4  669.23   19.60
  10   4  -4  672.73   21.30
  10   4  -4  698.13   22.40
 -10   4   4  647.54   21.00
  -8  -4   4  616.84   18.90
   8  -4  -4  615.44   18.50
   8  -4  -4  621.44   19.50
  -8  -4   4  630.94   19.00
   8  -4  -4  607.54   19.40
  -8  -4   4  657.13   17.20
  -8   4   4  619.74   17.50
  -8   4   4  617.54   19.10
   8   4  -4  624.34   20.30
   8   4  -4  608.84   17.50
  -8   4   4  632.44   19.10
   8   4  -4  615.24   19.20
   6  -4  -4  698.13   17.00
   6  -4  -4  667.73   19.20
   6  -4  -4  675.73   20.50
  -6  -4   4  670.43   19.40
   6  -4  -4  690.73   20.10
  -6  -4   4  676.53   18.10
  -6  -4   4  664.03   19.70
  -6   4   4  671.93   19.60
  -6   4   4  679.63   17.90
   6   4  -4  669.03   18.30
  -6   4   4  696.53   19.60
   6   4  -4  675.43   20.90
   6   4  -4  657.43   19.60
  -6   4   4  655.83   17.30
  -6   4   4  680.33   20.10
  -4  -4   4 1439.26   35.50
   4  -4  -4 1432.26   35.80
  -4  -4   4 1506.65   37.60
   4  -4  -4 1504.95   39.10
  -4  -4   4 1441.56   37.80
   4  -4  -4 1493.35   38.00
  -4  -4   4 1482.85   35.50
  -4  -4   4 1481.05   36.50
  -4   4   4 1431.56   38.30
  -4   4   4 1538.65   37.60
  -4   4   4 1461.15   36.10
  -4   4   4 1503.95   37.50
   4   4  -4 1484.85   37.50
  -4   4   4 1456.05   35.40
   4   4  -4 1460.25   36.50
   4   4  -4 1465.75   39.00
   4   4  -4 1483.25   37.60
  -4   4   4 1494.35   35.40
   2  -4  -4 1510.15   39.90
  -2  -4   4 1507.85   37.80
   2  -4  -4 1518.95   38.70
  -2  -4   4 1495.65   40.60
   2  -4  -4 1544.65   37.60
  -2  -4   4 1519.35   37.80
  -2  -4   4 1555.04   38.60
   2   4  -4 1551.04   39.70
  -2   4   4 1537.75   38.10
  -2   4   4 1507.95   39.50
   2   4  -4 1543.35   38.50
   2   4  -4 1522.95   38.30
   2   4  -4 1558.94   37.90
  -2   4   4 1579.04   38.60
   0  -4  -4  273.37    9.10
   0  -4  -4  274.97   10.20
   0  -4   4  280.37    9.00
   0  -4   4  285.47    9.40
   0  -4  -4  275.87    8.90
   0   4  -4  275.87    9.00
   0   4   4  279.97    9.30
   0   4   4  271.67    9.80
   0   4  -4  275.87    9.10
   0   4  -4  277.47    8.80
   0   4  -4  277.07    9.60
   0   4  -4  278.57    9.00
   0   4  -4  282.87    9.40
   0   4  -4  273.67    8.90
   0   4   4  283.67    8.60
  -2  -4  -4 1314.57   31.70
   2  -4   4 1333.27   34.10
   2  -4   4 1305.87   33.30
  -2  -4  -4 1291.87   34.50
   2  -4   4 1302.47   32.50
  -2  -4  -4 1301.27   32.80
  -2  -4  -4 1287.67   31.30
  -2  -4  -4 1311.87   33.30
   2   4   4 1276.07   34.00
   2   4   4 1325.27   31.50
  -2   4  -4 1267.17   32.90
  -2   4  -4 1287.47   33.10
  -2   4  -4 1248.98   32.40
   2   4   4 1315.57   31.80
   2   4   4 1318.47   32.80
   2   4   4 1322.27   33.60
  -2   4  -4 1275.47   33.10
  -2   4  -4 1294.57   32.60
  -2   4  -4 1312.47   34.20
   4  -4   4 1322.07   32.90
  -4  -4  -4 1312.47   32.70
   4  -4   4 1355.96   34.70
   4  -4   4 1345.37   33.20
   4  -4   4 1296.07   35.20
  -4  -4  -4 1355.16   34.50
   4  -4   4 1265.87   32.80
  -4  -4  -4 1364.16   35.40
   4   4   4 1365.06   32.10
  -4   4  -4 1310.47   35.50
   4   4   4 1384.96   33.60
  -4   4  -4 1340.27   34.10
  -4   4  -4 1300.27   34.30
  -4   4  -4 1290.37   32.80
   4   4   4 1276.97   34.50
   4   4   4 1340.87   34.90
   4   4   4 1356.26   32.10
  -4   4  -4 1282.87   33.00
  -6  -4  -4  419.46   14.00
   6  -4   4  441.26   14.30
   6  -4   4  431.46   14.70
  -6  -4  -4  441.46   12.90
  -6  -4  -4  439.76   14.40
   6  -4   4  434.46   12.80
  -6   4  -4  406.46   14.80
  -6   4  -4  423.16   13.60
  -6   4  -4  422.86   12.30
   6   4   4  432.26   11.40
   6   4   4  435.56   12.90
   6   4   4  442.06   14.40
  -6   4  -4  425.96   14.10
   6   4   4  440.96   14.20
   6   4   4  432.06   11.40
   8  -4   4  327.17   12.70
  -8  -4  -4  322.77   12.00
   8  -4   4  340.77   10.90
  -8  -4  -4  331.17   11.20
   8  -4   4  336.27   12.60
  -8  -4  -4  320.57   11.90
  -8   4  -4  315.57    9.90
  -8   4  -4  318.07   11.60
   8   4   4  338.07   12.50
   8   4   4  342.87   12.00
  -8   4  -4  307.07   11.80
  -8   4  -4  298.87   12.70
   8   4   4  344.97   11.00
  10  -4   4  641.74   18.60
  10  -4   4  648.54   21.00
 -10  -4  -4  627.54   19.20
 -10  -4  -4  621.54   19.90
  10  -4   4  595.14   20.40
 -10  -4  -4  610.74   19.30
 -10   4  -4  619.94   19.80
  10   4   4  633.04   19.60
  10   4   4  629.24   20.70
  10   4   4  617.94   18.40
 -10   4  -4  605.14   19.90
 -12  -4  -4  198.58    9.60
 -12  -4  -4  196.68    9.40
 -12  -4  -4  201.48    9.00
  12  -4   4  182.68   10.00
  12  -4   4  187.28    8.30
  12  -4   4  189.78    9.90
 -12   4  -4  198.98    9.70
  12   4   4  191.68    9.10
  12   4   4  180.38    8.30
 -12   4  -4  179.58    9.50
  12   4   4  184.78   10.00
 -11  -5   4   30.90    3.20
 -11  -5   4   29.00    4.40
  11  -5  -4   25.80    4.00
 -11  -5   4   23.10    3.80
  11  -5  -4   19.80    3.70
  11  -5  -4   27.60    4.00
  11   5  -4   30.70    5.20
  11   5  -4   24.10    3.70
 -11   5   4   25.60    4.40
  11   5  -4   21.70    4.00
 -11   5   4   26.50    4.10
 -11   5   4   26.40    4.00
  -9  -5   4    6.80    2.40
   9  -5  -4   12.00    2.60
  -9  -5   4    4.40    2.00
  -9  -5   4    5.50    1.60
   9  -5  -4   12.10    2.80
   9  -5  -4    2.20    2.00
   9   5  -4    5.90    2.50
  -9   5   4    5.90    2.00
  -9   5   4    5.70    2.30
   9   5  -4    6.50    2.00
  -9   5   4    8.90    2.60
   9   5  -4    3.60    2.00
  -7  -5   4   94.79    5.70
   7  -5  -4   93.89    5.90
  -7  -5   4   96.49    5.40
   7  -5  -4  101.89    6.00
  -7  -5   4   91.89    4.20
   7  -5  -4   93.09    5.40
   7   5  -4   91.49    5.60
   7   5  -4   89.29    4.80
  -7   5   4   90.39    4.20
  -7   5   4   96.19    6.00
  -7   5   4   88.69    5.40
   7   5  -4   93.69    6.40
   5  -5  -4  131.99    7.00
  -5  -5   4  137.79    6.20
   5  -5  -4  134.59    4.50
  -5  -5   4  133.99    4.60
   5  -5  -4  129.19    6.50
  -5  -5   4  136.69    5.20
  -5  -5   4  131.49    6.40
   5   5  -4  130.89    6.30
   5   5  -4  133.49    7.20
  -5   5   4  131.69    6.20
  -5   5   4  137.29    6.50
  -5   5   4  129.19    4.70
   5   5  -4  132.79    5.70
  -5   5   4  129.19    6.70
  -3  -5   4  130.59    5.20
   3  -5  -4  139.69    7.00
   3  -5  -4  127.59    4.90
   3  -5  -4  130.39    6.10
  -3  -5   4  128.59    5.70
  -3  -5   4  128.49    6.00
  -3  -5   4  136.49    5.30
   3   5  -4  129.89    6.00
   3   5  -4  136.09    5.60
  -3   5   4  137.49    6.20
   3   5  -4  130.69    5.90
  -3   5   4  130.49    6.60
   3   5  -4  132.59    6.80
  -3   5   4  125.79    5.70
   3   5  -4  128.29    5.20
  -1  -5   4  195.88    7.00
  -1  -5   4  199.58    7.70
  -1  -5   4  198.58    7.40
   1  -5  -4  207.58    7.10
   1  -5  -4  196.58    8.70
   1  -5  -4  199.98    7.80
  -1  -5   4  195.08    7.50
   1   5  -4  193.48    7.40
   1   5  -4  196.08    7.60
  -1   5   4  182.68    8.10
   1   5  -4  200.68    7.50
  -1   5   4  200.88    7.00
   1   5  -4  198.98    8.30
   1   5  -4  201.08    7.50
   1   5  -4  192.98    7.20
  -1   5   4  192.28    7.80
   1  -5   4   26.00    2.40
  -1  -5  -4   25.90    2.50
  -1  -5  -4   22.20    2.90
   1  -5   4   24.60    2.50
  -1  -5  -4   25.00    2.50
  -1   5  -4   28.90    2.70
   1   5   4   22.70    2.80
   1   5   4   28.20    2.80
  -1   5  -4   26.30    2.30
  -1   5  -4   26.50    2.40
   1   5   4   24.90    2.00
  -1   5  -4   22.30    2.70
  -1   5  -4   25.70    2.40
  -1   5  -4   23.80    2.50
  -1   5  -4   26.00    2.40
   3  -5   4  164.58    6.60
  -3  -5  -4  163.88    6.90
   3  -5   4  162.98    6.50
  -3  -5  -4  165.98    6.80
   3  -5   4  162.88    7.60
   3  -5   4  161.18    7.10
  -3  -5  -4  161.48    5.10
  -3  -5  -4  165.78    7.90
  -3   5  -4  158.98    6.50
   3   5   4  168.88    5.30
  -3   5  -4  167.38    6.20
   3   5   4  172.78    7.60
  -3   5  -4  152.98    7.50
  -3   5  -4  163.88    6.70
   3   5   4  160.98    7.20
  -3   5  -4  165.38    7.00
   3   5   4  165.28    5.30
   3   5   4  160.88    5.30
   3   5   4  169.78    6.80
  -5  -5  -4   86.89    5.60
   5  -5   4   92.19    5.50
   5  -5   4   83.39    4.00
   5  -5   4   90.29    5.70
  -5  -5  -4   85.99    4.00
  -5  -5  -4   88.59    5.20
   5  -5   4   89.39    4.60
   5   5   4   95.59    4.80
  -5   5  -4   84.79    4.10
  -5   5  -4   92.99    5.30
   5   5   4   89.19    5.40
  -5   5  -4   92.09    4.90
   5   5   4   94.19    5.40
  -5   5  -4   92.09    5.90
   7  -5   4  147.59    6.50
  -7  -5  -4  153.58    7.80
   7  -5   4  151.68    7.60
  -7  -5  -4  151.78    7.40
  -7  -5  -4  144.19    6.20
   7  -5   4  144.79    7.80
   7   5   4  145.69    7.20
   7   5   4  148.09    7.50
  -7   5  -4  142.49    6.80
  -7   5  -4  139.39    5.40
   7   5   4  146.89    6.60
  -7   5  -4  140.69    8.00
  -7   5  -4  141.29    7.20
  -9  -5  -4   39.60    3.80
   9  -5   4   43.20    3.80
   9  -5   4   34.30    4.40
   9  -5   4   36.90    4.50
  -9  -5  -4   44.90    4.50
  -9  -5  -4   42.20    4.30
   9   5   4   33.40    4.30
  -9   5  -4   55.39    4.70
  -9   5  -4   39.20    4.80
   9   5   4   42.60    3.80
   9   5   4   42.70    4.20
  -9   5  -4   45.80    4.20
  11  -5   4   24.10    3.50
 -11  -5  -4   24.50    3.90
  11  -5   4   28.70    4.10
 -11  -5  -4   23.10    4.10
 -11  -5  -4   24.30    3.90
  11  -5   4   19.30    3.80
  11   5   4   17.90    3.50
  11   5   4   22.10    3.60
  11   5   4   21.90    4.10
 -11   5  -4   22.70    3.90
 -11   5  -4   18.10    3.70
 -10  -6   4  191.28    9.20
 -10  -6   4  196.08    9.80
  10  -6  -4  186.78    9.80
  10  -6  -4  189.48    9.50
  10  -6  -4  192.78    9.50
  10   6  -4  184.48    8.50
  10   6  -4  189.38   10.60
 -10   6   4  202.68   10.30
 -10   6   4  197.38    9.80
  10   6  -4  192.18    9.80
  -8  -6   4  418.76   14.50
   8  -6  -4  429.36   15.60
   8  -6  -4  417.66   14.90
  -8  -6   4  428.96   12.00
  -8  -6   4  416.16   15.20
   8  -6  -4  423.46   15.60
   8   6  -4  433.86   16.60
   8   6  -4  414.56   13.90
  -8   6   4  429.86   15.20
  -8   6   4  428.26   16.00
   8   6  -4  427.66   15.40
  -6  -6   4 1581.84   43.00
  -6  -6   4 1595.24   42.20
   6  -6  -4 1625.94   43.00
   6  -6  -4 1634.44   43.50
   6  -6  -4 1658.63   44.20
  -6  -6   4 1654.53   40.00
   6   6  -4 1601.54   41.80
  -6   6   4 1699.73   43.60
  -6   6   4 1660.53   44.40
   6   6  -4 1623.04   43.10
  -6   6   4 1601.94   42.50
   6   6  -4 1616.24   44.70
  -4  -6   4  258.37    9.90
  -4  -6   4  258.07    9.40
   4  -6  -4  255.77   10.20
  -4  -6   4  250.57    8.50
   4  -6  -4  241.28   10.60
   4  -6  -4  253.47    7.70
  -4  -6   4  263.97    8.30
   4   6  -4  262.07   11.00
  -4   6   4  248.38   10.60
   4   6  -4  257.47    9.90
   4   6  -4  259.07    8.60
   4   6  -4  255.37    9.40
  -4   6   4  245.38    9.40
  -4   6   4  259.77   10.20
  -2  -6   4  536.45   15.80
   2  -6  -4  528.35   16.70
  -2  -6   4  531.75   15.10
   2  -6  -4  533.05   17.80
   2  -6  -4  531.85   14.90
  -2  -6   4  519.55   16.20
   2   6  -4  527.35   16.10
  -2   6   4  529.15   15.60
   2   6  -4  547.25   17.70
   2   6  -4  528.15   16.40
  -2   6   4  512.75   17.30
  -2   6   4  547.85   17.00
   2   6  -4  557.04   16.10
   0  -6   4  610.24   17.20
   0  -6  -4  608.24   17.30
   0  -6  -4  589.24   19.50
   0  -6  -4  609.04   18.20
   0  -6   4  612.74   17.70
   0  -6   4  591.64   17.30
   0  -6   4  621.44   19.10
   0   6  -4  600.84   17.20
   0   6  -4  595.14   18.60
   0   6  -4  597.44   17.40
   0   6  -4  604.04   18.10
   0   6   4  601.04   16.60
   0   6  -4  606.64   17.90
   0   6   4  605.74   19.10
   0   6  -4  597.04   18.40
   0   6  -4  593.74   17.30
   0   6   4  622.24   18.70
   2  -6   4  373.46   12.30
  -2  -6  -4  364.36   13.90
  -2  -6  -4  373.16   12.30
  -2  -6  -4  371.86   11.80
   2  -6   4  365.76   12.60
  -2  -6  -4  380.56   12.70
   2  -6   4  380.56   13.00
   2  -6   4  377.36   11.70
   2   6   4  383.06   13.40
   2   6   4  371.96   10.50
   2   6   4  365.76   13.00
  -2   6  -4  366.76   11.80
  -2   6  -4  386.56   12.80
  -2   6  -4  365.06   12.90
  -2   6  -4  375.46   11.60
   2   6   4  380.56   12.70
  -2   6  -4  374.56   13.40
  -2   6  -4  367.46   12.10
  -4  -6  -4   20.20    1.90
   4  -6   4   30.80    3.20
  -4  -6  -4   24.50    3.10
   4  -6   4   34.10    3.10
   4  -6   4   29.20    2.80
  -4  -6  -4   19.80    3.20
   4   6   4   28.00    3.40
  -4   6  -4   26.90    2.90
  -4   6  -4   26.70    2.40
  -4   6  -4   27.50    3.50
   4   6   4   31.20    3.40
  -4   6  -4   24.30    3.00
   4   6   4   29.90    3.00
   6  -6   4 1141.79   30.20
   6  -6   4 1116.09   32.50
  -6  -6  -4 1134.59   32.50
   6  -6   4 1130.29   28.80
   6  -6   4 1132.09   31.80
  -6  -6  -4 1112.29   31.20
  -6  -6  -4 1118.69   28.50
   6   6   4 1148.29   31.40
  -6   6  -4 1086.79   30.30
   6   6   4 1136.89   31.90
  -6   6  -4 1109.19   31.10
   6   6   4 1145.39   30.50
  -6   6  -4 1079.89   32.60
  -6   6  -4 1049.70   28.20
  -8  -6  -4  463.15   14.30
  -8  -6  -4  467.05   17.00
   8  -6   4  472.45   15.20
   8  -6   4  450.65   16.50
   8  -6   4  454.05   17.10
  -8  -6  -4  458.05   16.20
  -8   6  -4  438.46   17.40
  -8   6  -4  459.15   15.40
  -8   6  -4  466.05   16.40
   8   6   4  454.85   16.60
   8   6   4  470.65   16.10
   8   6   4  485.35   15.50
  10  -6   4  234.08   11.50
  10  -6   4  229.48   11.30
 -10  -6  -4  231.18   11.20
 -10  -6  -4  235.68    9.60
 -10  -6  -4  219.88   10.70
  10  -6   4  231.98    9.80
 -10   6  -4  237.88   10.50
 -10   6  -4  224.58   11.90
 -10   6  -4  234.58   10.90
  10   6   4  220.28    9.80
  10   6   4  230.88   10.20
  10   6   4  227.18   11.20
  -9  -7   4    4.50    2.50
   9  -7  -4    0.40    2.20
   9  -7  -4    5.30    2.80
   9  -7  -4    1.60    2.40
  -9  -7   4    6.50    2.70
   9   7  -4   -0.20    2.20
  -9   7   4    3.10    2.80
  -9   7   4    0.80    2.30
   9   7  -4    1.00    2.70
   9   7  -4    0.00    2.50
   7  -7  -4   13.30    3.60
   7  -7  -4   13.50    3.00
   7  -7  -4   12.00    2.80
  -7  -7   4   18.00    3.30
  -7  -7   4   17.80    3.40
   7   7  -4   16.20    3.00
  -7   7   4   12.80    3.40
   7   7  -4   14.90    3.20
   7   7  -4   12.70    3.20
  -7   7   4   12.50    3.10
  -7   7   4   12.10    3.00
   5  -7  -4    6.10    2.60
  -5  -7   4    5.20    2.10
  -5  -7   4    5.70    1.70
   5  -7  -4    6.90    2.30
  -5  -7   4    6.20    1.70
  -5  -7   4    3.90    2.00
   5   7  -4    8.80    2.90
   5   7  -4    8.40    2.40
  -5   7   4    8.00    2.60
   5   7  -4   13.40    2.80
  -5   7   4   11.40    2.60
  -5   7   4   10.90    3.00
  -3  -7   4   52.59    3.90
  -3  -7   4   50.39    5.10
   3  -7  -4   53.19    4.90
   3  -7  -4   56.29    4.60
  -3  -7   4   53.49    3.50
  -3  -7   4   54.39    4.40
   3  -7  -4   57.29    3.30
   3   7  -4   53.19    4.30
   3   7  -4   53.69    4.40
  -3   7   4   59.59    4.80
   3   7  -4   53.49    4.00
  -3   7   4   59.89    4.20
   3   7  -4   55.29    4.90
  -3   7   4   54.79    4.90
  -1  -7   4  106.59    5.10
  -1  -7   4   98.79    5.50
   1  -7  -4  101.29    6.00
   1  -7  -4  108.79    6.90
   1  -7  -4  104.19    5.00
  -1  -7   4  109.39    6.60
  -1  -7   4  100.99    5.30
   1   7  -4   97.29    5.70
  -1   7   4  106.79    5.10
   1   7  -4  101.69    5.90
   1   7  -4  103.39    6.00
  -1   7   4   99.89    6.50
  -1   7   4  109.69    6.40
   1   7  -4  102.89    6.40
   1  -7   4   22.20    3.20
  -1  -7  -4   19.70    2.70
   1  -7   4   18.90    2.80
   1  -7   4   16.50    2.50
   1  -7   4   16.80    2.60
  -1  -7  -4   12.30    2.50
  -1  -7  -4   14.30    3.00
   1   7   4   21.90    3.10
  -1   7  -4   11.10    2.40
   1   7   4   14.30    2.10
  -1   7  -4   16.70    3.10
  -1   7  -4   16.40    2.60
  -1   7  -4   12.10    2.70
   1   7   4   13.70    2.80
   3  -7   4   49.60    3.40
  -3  -7  -4   45.70    4.10
   3  -7   4   46.40    4.00
  -3  -7  -4   45.20    4.00
  -3  -7  -4   50.29    4.90
   3  -7   4   46.80    4.30
   3  -7   4   43.80    3.90
  -3   7  -4   39.70    4.20
   3   7   4   49.99    4.40
  -3   7  -4   44.90    4.60
  -3   7  -4   44.00    3.90
  -3   7  -4   47.30    3.80
   3   7   4   49.30    4.30
   3   7   4   52.99    4.60
  -5  -7  -4   11.70    3.20
   5  -7   4   17.70    2.80
   5  -7   4   13.90    2.00
   5  -7   4   15.80    2.90
   5  -7   4   14.60    3.20
  -5  -7  -4   16.00    3.00
   5   7   4   15.10    2.90
  -5   7  -4   16.30    2.90
   5   7   4   13.60    3.00
  -5   7  -4   15.30    3.10
  -5   7  -4   11.10    3.20
   5   7   4   13.30    2.90
  -7  -7  -4   18.40    3.30
  -7  -7  -4   15.50    3.90
   7  -7   4   13.40    2.80
   7  -7   4   13.40    2.00
  -7  -7  -4   15.40    2.40
   7  -7   4   15.90    3.50
   7  -7   4   10.70    3.20
   7  -7   4   12.40    2.30
   7   7   4   12.90    2.80
  -7   7  -4   16.60    3.40
  -7   7  -4   18.60    3.50
   7   7   4   13.20    3.20
   7   7   4   10.10    2.80
  -7   7  -4   14.80    3.60
  -9  -7  -4   22.20    4.50
   9  -7   4   19.40    4.00
  -9  -7  -4   22.70    3.30
  -9  -7  -4   13.10    3.40
   9  -7   4   18.60    4.00
   9  -7   4   25.10    3.90
   9   7   4   22.40    4.10
  -9   7  -4   21.50    4.40
  -9   7  -4   17.10    3.80
  -9   7  -4   16.60    3.70
   9   7   4   25.70    4.40
   9   7   4   23.40    3.90
  -8  -8   4  108.19    7.60
  -8  -8   4  101.59    8.50
   8  -8  -4  106.89    7.50
  -8  -8   4  101.39    6.90
   8  -8  -4  104.69    7.60
   8  -8  -4  109.79    7.80
   8   8  -4  103.39    8.30
  -8   8   4  114.29    7.50
   8   8  -4  113.39    7.70
  -8   8   4  106.39    8.10
   8   8  -4  109.89    7.10
  -6  -8   4  263.17   13.30
  -6  -8   4  274.17   10.90
   6  -8  -4  265.57   12.00
   6  -8  -4  282.67   12.70
  -6  -8   4  268.27   11.80
   6  -8  -4  282.17   12.20
   6   8  -4  257.07   12.90
   6   8  -4  266.47   11.30
   6   8  -4  268.37   11.80
  -6   8   4  283.77   11.40
  -6   8   4  284.77   12.60
  -6   8   4  270.77   12.90
  -4  -8   4  258.77    8.60
  -4  -8   4  243.38   10.60
  -4  -8   4  244.28   12.20
   4  -8  -4  257.37   12.00
   4  -8  -4  246.08    8.00
  -4  -8   4  249.28    9.70
   4  -8  -4  251.97   11.20
   4   8  -4  252.37   12.00
   4   8  -4  253.77   11.00
  -4   8   4  238.58   11.70
  -4   8   4  265.07   10.20
  -4   8   4  260.77   11.50
   4   8  -4  246.78   10.60
  -2  -8   4  653.43   20.40
  -2  -8   4  663.53   19.40
  -2  -8   4  671.43   22.60
   2  -8  -4  660.23   21.30
   2  -8  -4  664.63   18.60
   2  -8  -4  676.73   22.80
  -2  -8   4  683.33   18.70
   2   8  -4  653.23   21.00
   2   8  -4  689.43   21.20
  -2   8   4  644.14   22.10
   2   8  -4  658.63   20.40
  -2   8   4  679.23   21.80
  -2   8   4  671.53   19.40
   0  -8  -4  281.57   11.80
   0  -8   4  297.67   12.50
   0  -8  -4  296.37   10.40
   0  -8  -4  289.77   13.10
   0  -8   4  273.37   10.10
   0  -8   4  282.97   10.70
   0  -8   4  295.47   11.90
   0  -8   4  290.17   10.20
   0   8   4  289.17   12.20
   0   8  -4  294.47   12.00
   0   8  -4  285.27   11.80
   0   8   4  290.27   12.50
   0   8  -4  286.57   10.20
   0   8  -4  301.47   11.80
   2  -8   4  496.95   15.30
   2  -8   4  500.15   15.40
  -2  -8  -4  488.05   17.10
   2  -8   4  500.45   17.60
  -2  -8  -4  504.35   16.20
   2  -8   4  526.35   17.00
  -2  -8  -4  496.25   18.80
   2  -8   4  521.75   17.40
  -2   8  -4  487.65   15.20
   2   8   4  515.65   17.90
   2   8   4  478.05   17.60
  -2   8  -4  489.05   17.50
  -2   8  -4  484.95   17.70
  -2   8  -4  509.65   16.00
  -4  -8  -4  198.68    9.40
   4  -8   4  198.48    9.20
  -4  -8  -4  192.38    9.10
   4  -8   4  190.68    9.80
   4  -8   4  195.58    8.80
   4  -8   4  188.28    7.40
  -4  -8  -4  194.58   10.60
  -4   8  -4  174.68    9.90
   4   8   4  214.38    9.60
  -4   8  -4  178.88    7.90
  -4   8  -4  195.58    8.90
   4   8   4  195.68    9.80
   4   8   4  190.48    9.80
   6  -8   4  240.98    9.60
   6  -8   4  249.97   10.50
  -6  -8  -4  238.28   10.90
  -6  -8  -4  236.78   10.90
   6  -8   4  252.37   11.80
  -6  -8  -4  242.48   12.30
  -6   8  -4  253.57    9.90
   6   8   4  237.98   10.80
   6   8   4  243.88   11.20
  -6   8  -4  238.38   10.70
   6   8   4  243.58   11.60
  -6   8  -4  233.48   12.20
  -8  -8  -4   87.99    7.60
   8  -8   4   95.89    6.60
   8  -8   4   98.79    7.50
   8  -8   4  106.39    8.00
  -8   8  -4   96.29    7.90
   8   8   4   95.09    7.00
  -8   8  -4   93.99    7.10
   8   8   4   95.39    6.80
   8   8   4   91.09    7.30
  -8   8  -4   90.79    6.50
   3  -9  -4   21.40    4.00
  -3  -9   4   14.10    3.40
  -3  -9   4   14.60    3.10
  -3  -9   4   16.00    4.40
   3  -9  -4   16.60    4.10
  -3   9   4    8.60    3.10
  -3   9   4   15.00    3.80
   3   9  -4   20.90    3.90
  -3   9   4   18.50    4.30
   3   9  -4   14.70    3.50
   1  -9  -4    6.00    2.80
   1  -9  -4    0.70    2.20
  -1  -9   4    4.90    3.20
  -1  -9   4    7.30    2.70
   1  -9  -4    5.10    3.20
  -1  -9   4    7.80    2.30
  -1  -9   4    6.70    2.30
  -1  -9   4    7.40    2.90
   1   9  -4   12.10    3.40
   1   9  -4   10.60    3.10
  -1   9   4    9.70    3.20
   1   9  -4    5.30    2.80
  -1   9   4   11.60    3.40
  -1  -9  -4   29.50    4.20
   1  -9   4   27.40    4.60
   1  -9   4   31.90    4.60
   1  -9   4   29.50    4.10
  -1  -9  -4   31.90    5.20
   1  -9   4   33.40    5.00
   1  -9   4   32.20    3.80
  -1  -9  -4   29.60    4.90
   1  -9   4   32.00    3.90
   1   9   4   36.20    4.90
  -1   9  -4   38.50    4.90
   1   9   4   37.30    5.00
  -1   9  -4   29.70    4.80
  -1   9  -4   30.50    4.00
   3  -9   4   -3.30    2.10
   3  -9   4    4.50    2.90
   3  -9   4   -0.80    2.10
  -3  -9  -4    5.30    3.00
  -3  -9  -4    2.80    2.60
   3  -9   4    0.40    2.40
   3  -9   4    1.30    2.60
  -3  -9  -4    4.80    2.70
  -3   9  -4    6.00    2.90
   3   9   4    2.30    2.50
   3   9   4   -0.70    2.40
  -3   9  -4    4.40    3.00
  -3   9  -4   -1.40    3.00
  14   0  -5    0.40    2.50
 -14   0   5    1.20    2.40
 -14   0   5   -2.30    2.70
 -14   0   5    1.70    3.00
  14   0  -5    0.80    2.40
  14   0  -5    0.60    2.20
 -12   0   5    0.50    1.90
  12   0  -5    1.20    2.30
 -12   0   5    5.70    2.70
  12   0  -5   -0.60    1.70
  12   0  -5    1.20    2.10
 -12   0   5    3.40    1.80
 -10   0   5    0.40    1.20
 -10   0   5    2.30    1.80
  10   0  -5    0.10    1.50
  10   0  -5    3.90    1.90
  10   0  -5    2.20    1.40
 -10   0   5   -0.30    1.60
 -10   0   5    0.90    1.20
  -8   0   5    3.20    1.30
   8   0  -5   -0.80    1.00
  -8   0   5    0.70    1.00
  -8   0   5    3.10    1.50
   8   0  -5    0.50    1.40
   8   0  -5    1.80    0.90
   8   0  -5    0.10    1.10
   8   0  -5    1.70    1.30
   8   0  -5    1.10    1.00
  -6   0   5    1.30    0.80
   6   0  -5   -0.10    1.00
  -6   0   5    0.80    1.10
   6   0  -5    4.30    1.10
  -6   0   5    1.80    1.10
   6   0  -5    1.90    1.20
   6   0  -5    0.50    0.80
   4   0  -5    0.30    0.90
   4   0  -5    0.60    0.80
  -4   0   5    3.10    0.90
  -4   0   5    1.90    0.80
   4   0  -5    0.40    1.00
   4   0  -5    5.60    1.30
  -4   0   5    2.60    1.00
  -2   0   5    1.10    0.90
   2   0  -5    1.50    0.70
   2   0  -5   -0.20    0.80
   2   0  -5    0.00    0.60
  -2   0   5    0.30    0.70
  -2   0   5    0.30    0.70
  -2   0   5    0.00    0.90
   2   0  -5    2.50    0.80
   0   0  -5    0.70    0.60
   0   0   5    1.20    0.50
   0   0   5    1.50    0.90
   0   0  -5    0.30    0.90
   0   0  -5    0.40    0.50
   0   0  -5    1.80    0.70
   0   0   5    1.90    0.90
  -2   0  -5    1.00    0.70
  -2   0  -5    0.40    0.90
  -2   0  -5    1.50    0.90
   2   0   5    1.10    0.80
  -2   0  -5    1.10    0.80
   2   0   5    1.50    0.90
   2   0   5    1.30    0.70
   4   0   5   -0.90    0.70
   4   0   5    1.70    1.10
   4   0   5   -0.10    0.80
  -4   0  -5    0.40    0.90
   4   0   5   -0.90    0.90
  -4   0  -5    1.20    0.80
  -4   0  -5    0.50    0.90
  -4   0  -5    0.50    0.80
   6   0   5   -0.40    0.80
  -6   0  -5    1.60    1.20
   6   0   5    4.70    1.50
  -6   0  -5   -0.80    0.80
  -6   0  -5   -0.40    0.90
   6   0   5    1.20    1.10
  -6   0  -5    2.70    1.20
  -8   0  -5    0.90    1.40
  -8   0  -5    2.00    1.30
   8   0   5    2.00    1.40
   8   0   5    5.10    1.70
  -8   0  -5    1.00    1.20
   8   0   5    3.40    0.90
  -8   0  -5    1.70    1.30
 -10   0  -5   -1.90    1.40
  10   0   5    1.50    1.20
 -10   0  -5    0.70    1.60
  10   0   5    2.80    1.80
 -10   0  -5    0.60    1.50
 -12   0  -5    3.00    2.20
  12   0   5   -0.20    1.70
 -12   0  -5    0.70    2.10
  12   0   5   -1.00    1.70
  12   0   5   -1.90    1.90
 -12   0  -5    0.90    2.10
  14   0   5    0.40    2.20
  14   0   5   -4.30    2.30
  14   0   5    1.00    2.60
 -14   0  -5    3.20    3.00
 -14   0  -5    1.70    2.70
 -14   0  -5   -2.80    2.40
 -13  -1   5  172.78    9.20
 -13  -1   5  181.48    8.30
  13  -1  -5  184.48    9.60
  13  -1  -5  183.38    9.40
 -13  -1   5  175.68    8.60
  13   1  -5  184.28    9.50
 -13   1   5  179.48    9.00
 -13   1   5  180.48    9.20
 -13   1   5  181.48    7.40
  13   1  -5  175.78    9.60
  11  -1  -5  152.28    6.80
 -11  -1   5  153.68    7.90
 -11  -1   5  145.99    7.00
  11  -1  -5  151.58    8.00
  11  -1  -5  157.78    8.20
 -11  -1   5  142.79    7.20
 -11   1   5  162.28    7.80
 -11   1   5  159.48    6.50
  11   1  -5  160.88    8.40
 -11   1   5  163.28    6.60
  11   1  -5  145.99    6.30
  11   1  -5  162.28    8.20
 -11   1   5  161.48    7.80
   9  -1  -5  448.76   12.80
  -9  -1   5  444.26   13.90
   9  -1  -5  435.16   15.30
   9  -1  -5  441.66   14.90
   9  -1  -5  429.86   12.80
  -9  -1   5  433.36   13.90
  -9  -1   5  446.46   14.60
  -9   1   5  434.16   14.30
   9   1  -5  417.96   12.30
   9   1  -5  453.75   15.10
  -9   1   5  419.96   13.00
   9   1  -5  460.35   15.70
  -9   1   5  458.15   13.20
  -9   1   5  427.86   14.30
   9   1  -5  440.46   13.50
  -7  -1   5  896.91   23.20
   7  -1  -5  946.91   26.80
   7  -1  -5  932.21   23.70
   7  -1  -5  903.81   23.40
  -7  -1   5  916.31   25.10
   7  -1  -5  931.81   25.90
  -7  -1   5  949.80   25.70
   7  -1  -5  981.10   24.30
  -7   1   5  969.00   25.30
  -7   1   5  940.11   24.40
   7   1  -5  958.80   24.90
   7   1  -5  969.10   27.30
  -7   1   5  959.60   25.70
   7   1  -5  945.71   25.90
   7   1  -5  904.71   23.00
   5  -1  -5 1887.81   46.70
   5  -1  -5 1813.72   44.40
  -5  -1   5 1839.72   46.30
   5  -1  -5 1835.12   47.90
   5  -1  -5 1865.51   44.20
  -5  -1   5 1907.11   46.60
  -5  -1   5 1888.61   44.70
   5  -1  -5 1892.61   45.60
  -5   1   5 1845.82   46.50
   5   1  -5 1864.31   46.40
   5   1  -5 1838.92   48.00
  -5   1   5 1939.71   46.20
   5   1  -5 1881.11   46.20
   5   1  -5 1784.42   44.80
  -5   1   5 2011.40   46.10
  -3  -1   5 1953.00   48.50
  -3  -1   5 2017.70   48.80
   3  -1  -5 2044.70   48.20
   3  -1  -5 1982.80   50.09
  -3  -1   5 1937.51   47.70
   3  -1  -5 1996.50   48.20
   3   1  -5 1996.10   48.50
  -3   1   5 2024.30   48.50
  -3   1   5 2063.99   48.20
  -3   1   5 1909.41   48.60
   3   1  -5 1919.21   47.80
   3   1  -5 1901.01   47.70
   3   1  -5 2002.20   50.09
   1  -1  -5 3098.79   73.09
  -1  -1   5 3071.99   72.79
   1  -1  -5 3136.79   73.49
   1  -1  -5 3080.89   75.29
  -1  -1   5 3150.68   73.99
   1  -1  -5 3140.49   72.39
   1  -1  -5 3139.79   74.09
  -1  -1   5 3112.79   74.09
   1   1  -5 3036.30   73.99
   1   1  -5 3087.09   72.69
  -1   1   5 3147.49   74.09
  -1   1   5 3036.10   72.29
  -1   1   5 3115.49   74.39
  -1   1   5 3152.28   72.89
   1   1  -5 3030.80   74.99
   1   1  -5 3040.70   74.09
   1  -1   5 2039.90   47.90
  -1  -1  -5 2040.90   49.30
  -1  -1  -5 2025.50   49.90
   1  -1   5 1985.30   49.00
   1  -1   5 2034.00   49.50
   1  -1   5 1967.20   47.80
  -1  -1  -5 1978.80   48.10
  -1  -1  -5 2017.20   48.60
  -1   1  -5 2029.30   49.50
   1   1   5 2002.20   49.70
  -1   1  -5 2028.40   49.20
  -1   1  -5 1982.70   49.10
   1   1   5 2023.60   48.00
  -1   1  -5 2005.60   47.90
   1   1   5 1986.10   48.70
   3  -1   5 1421.06   36.50
   3  -1   5 1441.86   37.30
   3  -1   5 1474.35   36.20
  -3  -1  -5 1447.36   36.20
  -3  -1  -5 1447.46   36.70
  -3  -1  -5 1500.05   36.80
   3  -1   5 1461.15   35.80
   3   1   5 1503.85   36.20
  -3   1  -5 1463.05   36.60
  -3   1  -5 1403.06   35.90
   3   1   5 1422.16   37.20
  -3   1  -5 1428.96   36.50
   3   1   5 1485.55   36.00
  -3   1  -5 1436.36   36.60
   5  -1   5  954.00   23.80
  -5  -1  -5  959.00   25.80
   5  -1   5  986.60   26.00
   5  -1   5  960.80   26.70
  -5  -1  -5  959.50   25.10
  -5  -1  -5  950.00   25.10
  -5  -1  -5  963.50   25.70
  -5   1  -5  972.80   25.60
  -5   1  -5  969.60   26.00
  -5   1  -5  949.11   23.90
   5   1   5  980.30   26.60
   5   1   5  989.90   25.80
  -5   1  -5  938.61   25.60
   5   1   5 1002.40   25.10
  -7  -1  -5  783.12   20.50
   7  -1   5  829.72   23.80
  -7  -1  -5  809.32   21.00
   7  -1   5  817.22   20.20
  -7  -1  -5  824.82   22.00
  -7  -1  -5  812.42   22.80
   7  -1   5  845.72   23.40
  -7  -1  -5  815.72   22.80
  -7  -1  -5  795.72   21.30
  -7   1  -5  810.92   22.70
   7   1   5  808.82   21.00
   7   1   5  823.32   23.20
   7   1   5  785.42   20.20
   7   1   5  818.02   21.90
  -7   1  -5  796.72   22.90
  -7   1  -5  817.52   22.40
   7   1   5  826.52   23.60
  -9  -1  -5  305.57   11.00
   9  -1   5  289.37    9.00
   9  -1   5  313.87   12.00
  -9  -1  -5  297.77   11.20
   9  -1   5  306.57   12.00
  -9  -1  -5  290.47    9.00
  -9  -1  -5  306.17   10.30
  -9   1  -5  299.07   11.40
  -9   1  -5  298.57   10.50
   9   1   5  310.47    9.20
   9   1   5  300.77   11.70
   9   1   5  302.97   11.70
  -9   1  -5  296.37   10.90
 -11  -1  -5  293.67   10.50
 -11  -1  -5  295.07   11.80
  11  -1   5  280.77    9.50
 -11  -1  -5  285.07   11.00
  11  -1   5  286.67   12.10
  11  -1   5  294.77   12.40
  11   1   5  294.27    9.60
 -11   1  -5  276.27   11.00
 -11   1  -5  297.87   12.10
  11   1   5  289.27   12.30
  11   1   5  289.07   11.90
 -11   1  -5  277.87   10.50
  13  -1   5  201.18    8.30
 -13  -1  -5  217.18   10.50
  13  -1   5  213.98   11.00
 -13  -1  -5  239.98   10.10
 -13  -1  -5  222.98    9.20
  13  -1   5  207.28   10.40
 -13   1  -5  218.88   10.70
 -13   1  -5  209.48    9.10
  13   1   5  209.98   10.40
  13   1   5  201.08    8.30
  13   1   5  206.18   10.90
 -13   1  -5  222.68    9.90
  14  -2  -5   10.90    3.50
  14  -2  -5    7.80    3.10
 -14  -2   5    8.60    3.20
 -14  -2   5    8.80    2.90
 -14  -2   5    5.20    3.10
  14   2  -5    8.10    3.50
  14   2  -5   15.10    3.80
 -14   2   5    2.60    2.60
 -14   2   5    5.40    3.30
 -14   2   5    9.10    3.50
 -14   2   5    8.40    3.20
  12  -2  -5   12.50    2.80
  12  -2  -5   17.30    3.40
  12  -2  -5   12.20    3.00
 -12  -2   5   19.60    3.20
 -12  -2   5   13.50    3.10
 -12  -2   5   14.60    3.00
 -12   2   5   21.70    3.60
  12   2  -5   14.90    3.30
 -12   2   5   18.00    3.40
 -12   2   5   14.50    3.30
  12   2  -5   15.40    3.50
 -10  -2   5   17.20    3.00
 -10  -2   5   12.20    2.70
  10  -2  -5    9.40    2.10
 -10  -2   5   16.10    2.60
  10  -2  -5    9.60    2.50
  10  -2  -5   12.60    2.90
 -10   2   5   10.40    2.30
  10   2  -5   13.50    2.10
  10   2  -5   11.70    2.70
 -10   2   5   14.70    2.10
  10   2  -5   16.20    3.20
 -10   2   5    9.90    2.50
 -10   2   5   15.90    2.80
   8  -2  -5   67.89    3.70
   8  -2  -5   57.79    3.10
  -8  -2   5   62.89    4.30
  -8  -2   5   51.49    3.30
  -8  -2   5   61.69    3.90
   8  -2  -5   55.99    4.20
  -8  -2   5   53.79    3.90
   8  -2  -5   59.59    4.50
   8   2  -5   57.29    2.90
   8   2  -5   61.19    4.80
  -8   2   5   55.49    4.10
  -8   2   5   57.79    3.90
   8   2  -5   61.19    4.30
  -8   2   5   56.59    3.80
   8   2  -5   60.29    3.80
   6  -2  -5   83.89    3.70
  -6  -2   5   83.89    4.70
   6  -2  -5   88.89    3.80
   6  -2  -5   88.29    4.90
  -6  -2   5   84.19    4.40
  -6  -2   5   81.59    3.30
   6  -2  -5   91.79    5.40
   6  -2  -5   84.79    3.70
  -6   2   5   84.99    4.20
  -6   2   5   83.99    4.40
   6   2  -5   80.99    5.30
   6   2  -5   88.69    4.40
   6   2  -5   81.49    4.50
  -6   2   5   80.29    4.60
   4  -2  -5   23.90    1.70
  -4  -2   5   20.30    2.20
   4  -2  -5   23.90    1.90
   4  -2  -5   24.40    2.30
   4  -2  -5   27.10    1.80
  -4  -2   5   25.20    2.00
   4  -2  -5   23.80    2.70
  -4  -2   5   24.00    1.70
  -4  -2   5   21.00    2.10
  -4   2   5   24.30    2.10
   4   2  -5   23.10    2.20
  -4   2   5   25.10    2.40
   4   2  -5   24.60    2.70
  -4   2   5   25.30    1.80
   4   2  -5   25.50    2.20
  -4   2   5   21.60    2.20
   2  -2  -5  200.98    8.00
   2  -2  -5  194.08    6.70
  -2  -2   5  190.08    6.40
   2  -2  -5  194.28    6.00
  -2  -2   5  192.68    6.60
  -2  -2   5  191.18    7.10
  -2  -2   5  186.58    6.80
   2  -2  -5  191.38    6.60
  -2  -2   5  190.98    6.70
  -2   2   5  192.88    7.20
  -2   2   5  200.18    6.40
   2   2  -5  184.28    6.60
  -2   2   5  184.88    5.90
   2   2  -5  193.88    7.70
  -2   2   5  193.18    6.90
   2   2  -5  186.78    6.90
   2   2  -5  192.98    7.00
   2   2  -5  185.28    6.20
   0  -2  -5   44.10    2.30
   0  -2   5   36.80    2.70
   0  -2   5   38.40    2.10
   0  -2  -5   37.20    3.00
   0  -2  -5   39.90    2.60
   0  -2  -5   39.10    2.20
   0  -2  -5   36.10    2.10
   0  -2   5   34.80    2.00
   0  -2  -5   39.00    2.30
   0  -2   5   36.10    2.00
   0  -2   5   36.30    2.60
   0   2   5   43.60    2.30
   0   2  -5   37.20    2.50
   0   2  -5   38.40    2.80
   0   2   5   38.90    2.50
   0   2  -5   37.20    2.60
   0   2  -5   37.40    1.90
   0   2   5   37.30    2.90
  -2  -2  -5   36.40    1.90
  -2  -2  -5   34.40    2.70
   2  -2   5   39.80    2.50
  -2  -2  -5   40.90    2.00
   2  -2   5   45.80    3.10
   2  -2   5   38.60    2.70
   2  -2   5   37.00    2.50
   2  -2   5   37.80    2.90
  -2  -2  -5   40.00    2.40
  -2  -2  -5   38.80    3.00
  -2   2  -5   38.60    2.70
  -2   2  -5   36.70    2.50
   2   2   5   36.50    3.00
  -2   2  -5   39.70    2.80
   2   2   5   41.20    2.60
  -2   2  -5   39.50    2.70
   2   2   5   35.00    2.30
   4  -2   5   64.59    3.90
  -4  -2  -5   72.29    3.70
   4  -2   5   71.79    4.30
  -4  -2  -5   69.99    2.80
  -4  -2  -5   67.89    4.00
   4  -2   5   67.29    3.10
  -4  -2  -5   65.69    2.70
  -4  -2  -5   68.19    3.90
   4   2   5   68.89    2.80
  -4   2  -5   69.29    4.00
  -4   2  -5   68.29    3.00
  -4   2  -5   65.69    3.90
   4   2   5   69.99    4.30
   4   2   5   68.89    3.40
  -4   2  -5   67.09    3.70
   4   2   5   66.09    3.80
  -6  -2  -5   72.19    4.00
   6  -2   5   63.89    2.80
   6  -2   5   60.59    2.70
   6  -2   5   59.79    4.40
  -6  -2  -5   62.29    3.00
  -6  -2  -5   66.89    4.20
   6  -2   5   64.29    4.30
  -6  -2  -5   67.49    4.00
   6   2   5   68.09    3.50
   6   2   5   70.19    3.00
   6   2   5   64.79    4.40
  -6   2  -5   63.89    3.80
  -6   2  -5   70.39    4.30
  -6   2  -5   66.29    4.20
   6   2   5   63.69    4.10
  -8  -2  -5    4.70    1.40
  -8  -2  -5    4.20    1.70
   8  -2   5    3.00    1.50
   8  -2   5   -0.90    1.20
  -8  -2  -5    0.60    1.30
  -8  -2  -5    0.40    1.20
   8   2   5    7.70    1.50
   8   2   5    5.00    1.70
  -8   2  -5   -0.70    1.20
  -8   2  -5   -1.00    1.10
   8   2   5    2.30    1.40
   8   2   5    2.60    1.00
  -8   2  -5   -0.30    1.30
 -10  -2  -5   16.00    3.00
 -10  -2  -5    9.90    2.70
  10  -2   5   10.70    1.90
 -10  -2  -5    3.20    1.70
 -10  -2  -5    9.70    2.10
  10  -2   5    4.80    2.20
  10  -2   5    7.90    2.40
  10   2   5    6.50    1.70
 -10   2  -5    7.30    2.50
 -10   2  -5    5.70    1.90
 -10   2  -5    8.80    2.40
  10   2   5   14.00    2.90
  10   2   5    9.80    2.50
  10   2   5    6.30    1.70
 -12  -2  -5    5.60    2.70
 -12  -2  -5    5.50    2.40
  12  -2   5    2.90    2.10
 -12  -2  -5    5.40    2.20
  12  -2   5    5.70    2.50
 -12  -2  -5    0.40    1.70
  12  -2   5    0.80    1.70
  12   2   5    4.50    2.30
 -12   2  -5    2.90    2.20
  12   2   5   -0.50    1.60
  12   2   5   -0.80    2.20
 -12   2  -5    8.40    2.60
 -12   2  -5    0.00    2.10
 -14  -2  -5    8.50    3.50
  14  -2   5   10.50    2.80
 -14  -2  -5    3.50    2.90
  14  -2   5    7.80    3.40
  14  -2   5    8.20    3.30
 -14  -2  -5    4.30    2.90
  14   2   5   15.20    3.70
  14   2   5   10.40    2.90
 -14   2  -5    7.20    3.00
 -14   2  -5   11.50    3.90
  14   2   5   16.20    3.90
 -13  -3   5  201.08    8.80
 -13  -3   5  203.88    9.70
  13  -3  -5  186.68    9.90
  13  -3  -5  201.68   10.10
  13  -3  -5  195.08    9.10
 -13  -3   5  203.38   10.30
  13   3  -5  189.98   10.30
 -13   3   5  215.28    9.90
  13   3  -5  192.38   10.50
 -13   3   5  193.08    9.40
 -13   3   5  197.48   10.10
 -11  -3   5  429.36   15.60
 -11  -3   5  435.76   15.00
  11  -3  -5  422.66   15.60
  11  -3  -5  412.86   14.10
  11  -3  -5  418.16   15.40
 -11  -3   5  436.26   13.80
 -11   3   5  423.16   14.70
 -11   3   5  433.66   14.60
  11   3  -5  430.36   16.30
 -11   3   5  401.86   15.10
  11   3  -5  424.06   15.60
   9  -3  -5  424.16   11.80
   9  -3  -5  429.86   13.60
  -9  -3   5  419.26   14.30
  -9  -3   5  432.06   13.40
   9  -3  -5  439.26   15.30
  -9  -3   5  427.96   14.80
   9  -3  -5  426.76   15.10
   9   3  -5  451.75   16.00
   9   3  -5  399.36   12.40
  -9   3   5  433.76   13.70
   9   3  -5  435.16   14.90
  -9   3   5  453.95   14.40
  -9   3   5  420.96   14.70
  -9   3   5  418.86   12.20
  -7  -3   5  269.57   10.30
  -7  -3   5  276.77    9.50
  -7  -3   5  283.07   10.50
   7  -3  -5  288.07   11.30
   7  -3  -5  286.17   10.80
   7  -3  -5  299.17    8.50
   7  -3  -5  278.07    9.40
  -7  -3   5  268.17    8.70
   7   3  -5  288.27   10.40
  -7   3   5  287.57    9.40
   7   3  -5  292.77   11.60
  -7   3   5  274.97   10.40
   7   3  -5  278.47   10.00
   7   3  -5  280.47    8.50
  -7   3   5  298.17   10.40
   5  -3  -5  551.34   16.70
   5  -3  -5  566.64   15.60
   5  -3  -5  569.44   15.10
  -5  -3   5  551.24   15.80
   5  -3  -5  570.44   17.90
  -5  -3   5  533.75   14.60
  -5  -3   5  551.54   16.60
   5   3  -5  583.74   14.60
  -5   3   5  554.64   16.80
   5   3  -5  565.54   16.50
  -5   3   5  570.24   15.30
  -5   3   5  551.14   16.50
   5   3  -5  546.55   17.80
   5   3  -5  550.44   16.30
  -5   3   5  580.14   15.80
  -3  -3   5 1145.19   29.60
  -3  -3   5 1156.78   30.40
   3  -3  -5 1134.99   31.70
   3  -3  -5 1181.48   30.10
  -3  -3   5 1159.28   29.00
  -3  -3   5 1118.39   28.20
  -3  -3   5 1125.39   28.80
   3  -3  -5 1182.18   29.30
   3   3  -5 1133.69   30.10
  -3   3   5 1222.98   28.80
   3   3  -5 1166.38   29.60
  -3   3   5 1108.19   28.70
   3   3  -5 1176.38   28.30
  -3   3   5 1188.98   30.80
  -3   3   5 1182.88   30.20
  -3   3   5 1189.08   29.30
   3   3  -5 1170.18   31.40
  -1  -3   5 1421.16   36.10
  -1  -3   5 1468.05   37.20
   1  -3  -5 1571.34   36.00
  -1  -3   5 1491.25   37.10
   1  -3  -5 1498.65   39.00
   1  -3  -5 1505.85   37.00
   1  -3  -5 1532.65   37.10
  -1  -3   5 1448.56   35.90
  -1  -3   5 1486.55   37.80
  -1   3   5 1474.65   36.00
  -1   3   5 1478.45   36.80
   1   3  -5 1494.95   37.50
  -1   3   5 1503.85   38.20
  -1   3   5 1464.65   36.00
   1   3  -5 1446.26   37.40
  -1   3   5 1502.75   37.10
   1   3  -5 1481.15   38.20
   1   3  -5 1488.85   36.50
   1  -3   5 1880.21   46.40
   1  -3   5 1900.01   47.20
   1  -3   5 1925.21   47.50
  -1  -3  -5 1945.71   45.80
  -1  -3  -5 1928.01   48.50
   1  -3   5 1869.71   45.70
  -1  -3  -5 1916.61   47.10
  -1  -3  -5 1902.21   46.20
   1   3   5 1973.50   48.20
  -1   3  -5 1813.62   45.60
  -1   3  -5 1882.91   47.20
  -1   3  -5 1925.51   47.10
   1   3   5 1901.01   46.80
  -1   3  -5 1850.41   47.10
   1   3   5 1927.11   45.90
   1   3   5 1948.80   46.40
  -1   3  -5 1916.41   47.30
  -3  -3  -5 1706.13   40.30
   3  -3   5 1622.54   41.20
   3  -3   5 1624.04   39.80
  -3  -3  -5 1673.83   40.50
   3  -3   5 1638.84   39.80
  -3  -3  -5 1698.53   42.60
  -3  -3  -5 1642.24   40.30
   3  -3   5 1683.33   42.70
   3  -3   5 1645.34   41.50
  -3  -3  -5 1642.94   41.90
   3   3   5 1625.44   42.50
  -3   3  -5 1673.03   41.40
   3   3   5 1649.04   41.60
  -3   3  -5 1686.73   41.90
  -3   3  -5 1631.34   41.90
   3   3   5 1710.33   40.60
  -3   3  -5 1620.24   40.70
   5  -3   5  615.64   18.90
  -5  -3  -5  616.64   18.20
   5  -3   5  623.94   18.30
  -5  -3  -5  620.74   17.10
  -5  -3  -5  620.64   18.20
   5  -3   5  562.84   15.70
   5  -3   5  605.44   15.80
   5  -3   5  618.94   16.10
  -5   3  -5  582.14   15.70
   5   3   5  624.04   16.30
  -5   3  -5  645.34   17.40
   5   3   5  611.14   16.30
  -5   3  -5  594.84   17.90
  -5   3  -5  608.84   18.10
   5   3   5  607.54   18.00
   5   3   5  625.64   18.70
   7  -3   5  414.26   14.20
  -7  -3  -5  403.56   13.00
   7  -3   5  408.86   11.70
  -7  -3  -5  406.16   13.30
  -7  -3  -5  399.86   13.80
   7  -3   5  397.76   14.50
   7   3   5  401.36   11.80
   7   3   5  417.36   11.70
  -7   3  -5  399.86   13.50
   7   3   5  409.86   14.10
   7   3   5  400.66   13.80
  -7   3  -5  405.86   12.50
  -7   3  -5  397.66   13.60
  -9  -3  -5  518.95   15.90
   9  -3   5  509.05   17.60
   9  -3   5  502.65   14.60
   9  -3   5  518.35   17.50
  -9  -3  -5  520.45   16.90
  -9  -3  -5  530.85   16.50
  -9   3  -5  507.75   15.20
   9   3   5  495.75   14.30
   9   3   5  519.55   14.90
   9   3   5  512.15   17.10
  -9   3  -5  466.05   16.50
  -9   3  -5  519.55   16.90
   9   3   5  509.25   17.30
  11  -3   5  423.46   15.90
 -11  -3  -5  410.56   14.80
  11  -3   5  416.96   13.10
 -11  -3  -5  421.26   15.20
  11  -3   5  412.46   15.80
 -11   3  -5  417.76   15.20
 -11   3  -5  428.76   15.50
  11   3   5  415.66   13.20
  11   3   5  418.06   15.20
  11   3   5  419.06   16.00
 -11   3  -5  404.36   13.20
  13  -3   5  236.38    9.40
 -13  -3  -5  236.58    8.90
  13  -3   5  236.88   11.80
  13  -3   5  239.58   11.80
 -13  -3  -5  249.08   11.30
 -13  -3  -5  241.48   11.30
  13   3   5  239.98   12.10
  13   3   5  239.98   11.20
 -13   3  -5  243.98   11.50
 -13   3  -5  244.78   11.30
  13   3   5  235.18    9.50
 -12  -4   5    0.10    2.30
  12  -4  -5    1.70    2.60
  12  -4  -5    0.00    2.40
 -12  -4   5    2.40    2.40
  12  -4  -5    2.10    2.30
 -12  -4   5   -1.30    2.20
 -12   4   5   -0.40    2.50
 -12   4   5    2.60    2.70
  12   4  -5    0.70    2.80
 -12   4   5   -0.80    2.40
  12   4  -5    4.30    2.60
  12   4  -5   -1.70    1.90
  10  -4  -5    1.50    2.10
 -10  -4   5    4.60    1.90
 -10  -4   5    6.70    2.30
  10  -4  -5    5.90    2.20
 -10  -4   5    1.00    2.00
  10  -4  -5    4.20    2.20
  10   4  -5    5.50    2.40
 -10   4   5    6.10    2.40
  10   4  -5    3.90    2.30
  10   4  -5    5.30    1.80
 -10   4   5    2.90    2.20
 -10   4   5    3.90    2.30
   8  -4  -5    4.00    1.90
   8  -4  -5    1.40    1.60
   8  -4  -5    4.90    1.90
  -8  -4   5    1.70    1.60
  -8  -4   5    4.10    1.80
  -8  -4   5    2.10    1.50
   8  -4  -5    4.10    1.10
   8   4  -5    0.40    1.30
  -8   4   5    3.90    1.90
   8   4  -5    3.80    2.20
  -8   4   5    3.90    1.90
  -8   4   5    2.60    1.70
   8   4  -5    3.10    1.40
   6  -4  -5    7.80    2.10
  -6  -4   5   11.90    2.30
   6  -4  -5    8.30    1.70
  -6  -4   5    8.70    1.80
   6  -4  -5    7.20    1.80
   6  -4  -5   10.70    1.50
  -6   4   5   10.30    2.10
  -6   4   5    6.90    1.50
   6   4  -5    8.30    1.50
   6   4  -5   10.60    2.00
   6   4  -5    8.90    2.00
   6   4  -5   14.20    2.80
  -6   4   5    6.40    1.90
   4  -4  -5  222.38    8.60
  -4  -4   5  217.28    6.90
  -4  -4   5  220.78    7.70
   4  -4  -5  227.18    7.30
  -4  -4   5  227.18    8.50
  -4  -4   5  225.58    6.90
   4  -4  -5  217.08    9.50
   4   4  -5  217.18    8.20
   4   4  -5  224.58    9.50
  -4   4   5  222.78    9.00
  -4   4   5  229.18    8.20
  -4   4   5  214.38    6.80
   4   4  -5  223.18    7.20
  -4   4   5  221.08    8.30
  -4   4   5  223.38    6.80
   4   4  -5  219.48    8.40
  -2  -4   5  133.49    6.00
  -2  -4   5  135.39    5.40
  -2  -4   5  135.49    5.70
   2  -4  -5  131.79    5.90
   2  -4  -5  140.19    5.50
   2  -4  -5  136.59    7.00
  -2   4   5  133.69    4.50
  -2   4   5  138.99    5.80
   2   4  -5  139.19    5.70
   2   4  -5  142.59    6.00
   2   4  -5  141.69    5.30
  -2   4   5  128.89    6.40
   2   4  -5  138.09    6.70
  -2   4   5  132.99    4.40
  -2   4   5  137.19    5.70
   2   4  -5  141.29    6.00
   0  -4  -5    9.30    1.60
   0  -4  -5    9.30    1.20
   0  -4  -5    7.90    1.60
   0  -4   5    6.80    1.50
   0  -4  -5    9.30    2.10
   0  -4   5    8.70    1.70
   0  -4   5   10.20    1.80
   0   4   5    8.90    1.20
   0   4   5    7.90    1.90
   0   4   5   11.00    1.60
   0   4  -5    8.50    1.80
   0   4  -5    9.40    1.70
   0   4  -5   11.40    1.90
   0   4   5   10.10    1.90
   0   4  -5   10.10    1.70
   0   4   5    8.20    1.30
   0   4  -5   10.30    1.90
   2  -4   5  327.87   10.60
   2  -4   5  317.87    9.70
  -2  -4  -5  334.67    9.10
  -2  -4  -5  312.77   10.00
  -2  -4  -5  331.77   10.80
   2  -4   5  312.27   11.10
  -2  -4  -5  328.37   11.80
   2   4   5  324.57    9.60
  -2   4  -5  325.87   10.70
   2   4   5  322.67   11.50
  -2   4  -5  316.27   10.70
  -2   4  -5  317.27    9.70
   2   4   5  318.47    9.30
   2   4   5  311.77   10.70
  -2   4  -5  319.57   10.30
  -2   4  -5  311.87   10.40
  -4  -4  -5  202.48    6.90
   4  -4   5  199.18    8.70
   4  -4   5  206.38    7.00
   4  -4   5  208.98    8.20
  -4  -4  -5  212.58    8.30
  -4  -4  -5  207.38    7.40
  -4  -4  -5  205.38    8.80
   4   4   5  204.98    6.60
  -4   4  -5  207.48    8.20
  -4   4  -5  207.38    7.50
  -4   4  -5  194.98    7.00
  -4   4  -5  202.88    8.10
   4   4   5  205.98    8.60
   4   4   5  209.38    7.30
   4   4   5  213.48    8.30
  -6  -4  -5   96.89    5.70
  -6  -4  -5   88.19    5.30
  -6  -4  -5   94.29    4.60
   6  -4   5   99.09    6.00
   6  -4   5   89.79    4.30
   6  -4   5   89.39    5.50
   6   4   5   94.99    5.60
   6   4   5   93.09    5.60
  -6   4  -5   95.29    5.50
  -6   4  -5  100.99    5.50
   6   4   5   91.09    4.40
   6   4   5   88.29    3.80
  -6   4  -5   89.09    4.50
   8  -4   5    1.00    1.60
  -8  -4  -5    6.00    2.00
   8  -4   5    3.20    1.50
   8  -4   5    5.90    2.20
  -8  -4  -5    6.10    1.90
  -8  -4  -5    5.60    2.20
   8   4   5    5.20    1.70
  -8   4  -5    6.00    2.00
  -8   4  -5    7.80    1.80
   8   4   5    3.50    1.20
   8   4   5    5.30    2.00
   8   4   5    7.60    2.30
  -8   4  -5    1.10    1.60
 -10  -4  -5   24.00    3.60
  10  -4   5   23.70    3.10
 -10  -4  -5   23.70    3.90
  10  -4   5   23.30    4.10
  10  -4   5   25.50    3.90
 -10  -4  -5   28.50    3.80
 -10   4  -5   23.20    3.70
  10   4   5   21.50    3.10
 -10   4  -5   24.40    4.00
  10   4   5   24.00    3.80
  10   4   5   29.00    4.10
 -12  -4  -5   13.20    3.60
 -12  -4  -5   24.00    3.80
  12  -4   5   12.40    3.40
  12  -4   5   15.80    3.80
  12  -4   5   13.70    2.80
 -12   4  -5   17.90    4.00
  12   4   5   12.00    3.50
 -12   4  -5   16.00    3.60
  12   4   5    9.80    3.30
  12   4   5   16.60    3.10
  11  -5  -5  168.18    9.00
  11  -5  -5  170.18    8.50
 -11  -5   5  171.98    9.20
  11  -5  -5  178.28    9.60
 -11  -5   5  166.58    7.00
 -11  -5   5  165.48    9.00
  11   5  -5  166.08   10.00
 -11   5   5  169.08    9.20
 -11   5   5  177.68    9.50
  11   5  -5  155.58    9.10
  -9  -5   5  405.76   12.50
   9  -5  -5  405.76   15.10
   9  -5  -5  409.56   15.30
   9  -5  -5  397.46   14.00
  -9  -5   5  403.26   14.90
  -9  -5   5  407.86   14.70
  -9   5   5  413.16   15.20
  -9   5   5  406.66   14.80
   9   5  -5  410.76   16.30
   9   5  -5  395.16   12.90
   9   5  -5  411.16   15.00
  -7  -5   5  745.83   22.20
   7  -5  -5  767.12   18.90
   7  -5  -5  750.52   22.80
  -7  -5   5  717.03   22.40
   7  -5  -5  776.02   22.00
  -7  -5   5  760.72   20.50
   7  -5  -5  742.33   23.50
   7   5  -5  760.32   24.30
  -7   5   5  754.42   22.50
  -7   5   5  742.43   23.00
   7   5  -5  743.23   20.60
   7   5  -5  748.43   22.50
   5  -5  -5  662.43   20.80
   5  -5  -5  634.94   16.70
   5  -5  -5  659.73   19.60
  -5  -5   5  618.24   18.90
  -5  -5   5  633.74   17.70
  -5  -5   5  599.54   19.20
  -5   5   5  653.23   19.10
   5   5  -5  628.14   19.00
   5   5  -5  622.64   20.60
   5   5  -5  649.34   17.80
  -5   5   5  640.34   19.00
  -5   5   5  623.24   20.00
   5   5  -5  633.04   19.00
   3  -5  -5  543.45   16.90
  -3  -5   5  562.64   15.60
  -3  -5   5  536.65   17.10
   3  -5  -5  565.64   15.40
   3  -5  -5  570.14   18.50
  -3  -5   5  550.14   16.70
  -3  -5   5  552.74   15.80
  -3   5   5  555.74   16.70
   3   5  -5  552.04   16.60
   3   5  -5  552.44   16.70
  -3   5   5  554.04   16.40
  -3   5   5  547.85   17.70
   3   5  -5  548.85   15.70
   3   5  -5  551.94   18.00
  -1  -5   5  126.99    5.70
  -1  -5   5  136.59    6.10
   1  -5  -5  121.69    6.90
   1  -5  -5  140.39    5.70
   1  -5  -5  131.49    6.00
  -1  -5   5  134.59    5.90
  -1   5   5  135.79    5.60
   1   5  -5  125.99    5.90
   1   5  -5  134.19    5.70
  -1   5   5  125.09    6.10
   1   5  -5  131.09    6.60
   1   5  -5  129.89    5.70
   1   5  -5  128.69    5.90
  -1   5   5  116.99    6.50
  -1  -5  -5  149.99    6.40
   1  -5   5  150.18    6.90
   1  -5   5  144.49    6.40
  -1  -5  -5  147.29    7.60
   1  -5   5  148.99    6.20
  -1  -5  -5  148.59    6.40
   1  -5   5  144.49    6.40
  -1   5  -5  150.98    6.10
   1   5   5  150.08    5.70
  -1   5  -5  142.99    6.60
  -1   5  -5  145.09    6.30
   1   5   5  141.69    7.10
   1   5   5  149.79    6.70
  -1   5  -5  149.99    6.50
  -1   5  -5  144.99    6.30
  -1   5  -5  147.69    6.40
  -1   5  -5  146.49    6.90
  -3  -5  -5  540.15   16.30
  -3  -5  -5  527.55   13.90
   3  -5   5  522.45   16.20
  -3  -5  -5  525.95   17.50
   3  -5   5  515.65   16.90
   3  -5   5  537.85   15.80
   3  -5   5  521.45   15.20
  -3  -5  -5  512.25   15.60
   3   5   5  542.55   15.70
   3   5   5  527.75   17.00
   3   5   5  523.35   16.40
  -3   5  -5  512.95   16.10
  -3   5  -5  532.45   15.60
  -3   5  -5  508.45   17.10
   3   5   5  551.84   14.40
   3   5   5  514.25   14.00
  -3   5  -5  538.25   16.10
  -3   5  -5  513.95   15.40
  -5  -5  -5 1153.38   29.50
  -5  -5  -5 1145.19   31.80
   5  -5   5 1147.69   32.80
   5  -5   5 1173.78   30.30
   5  -5   5 1138.19   31.90
  -5  -5  -5 1234.68   33.20
   5  -5   5 1145.29   29.70
  -5   5  -5 1171.28   31.50
  -5   5  -5 1144.39   30.10
   5   5   5 1172.18   30.70
   5   5   5 1172.08   32.50
  -5   5  -5 1216.08   32.10
   5   5   5 1190.98   28.80
   5   5   5 1172.68   32.20
  -5   5  -5 1151.18   33.20
   7  -5   5  880.91   27.40
   7  -5   5  922.01   24.70
  -7  -5  -5  954.80   27.30
  -7  -5  -5  910.41   26.50
   7  -5   5  899.31   26.80
  -7  -5  -5  934.71   24.70
  -7   5  -5  886.61   24.00
  -7   5  -5  912.41   26.00
   7   5   5  900.81   26.80
   7   5   5  895.81   26.70
  -7   5  -5  891.71   26.50
   7   5   5  944.41   25.00
  -9  -5  -5  673.93   21.40
   9  -5   5  657.93   19.30
  -9  -5  -5  676.53   21.50
   9  -5   5  662.33   22.20
  -9  -5  -5  685.73   19.90
   9  -5   5  649.54   21.80
  -9   5  -5  641.84   21.30
  -9   5  -5  685.13   21.10
   9   5   5  656.33   19.60
   9   5   5  662.53   21.30
   9   5   5  655.63   21.70
 -11  -5  -5  285.27   11.80
 -11  -5  -5  276.57   11.20
  11  -5   5  250.57   10.10
  11  -5   5  267.67   12.50
  11  -5   5  265.27   12.50
 -11  -5  -5  258.57   11.80
  11   5   5  261.07   10.30
 -11   5  -5  265.57   11.60
 -11   5  -5  258.87   11.90
  11   5   5  256.47   11.70
  11   5   5  266.67   12.50
 -10  -6   5   14.10    3.50
 -10  -6   5   16.10    3.50
  10  -6  -5   15.90    3.70
  10  -6  -5   14.20    3.60
 -10  -6   5    9.60    2.50
  10  -6  -5   18.30    3.70
 -10   6   5   12.70    3.40
  10   6  -5   16.70    3.70
 -10   6   5   16.00    3.80
  10   6  -5   13.80    3.90
   8  -6  -5   48.80    4.60
   8  -6  -5   54.39    5.40
  -8  -6   5   49.80    4.80
   8  -6  -5   56.49    5.00
  -8  -6   5   54.29    4.80
  -8  -6   5   51.49    3.80
  -8   6   5   58.69    5.40
   8   6  -5   45.50    4.70
  -8   6   5   56.79    5.00
   8   6  -5   50.39    4.10
   8   6  -5   51.29    5.30
   6  -6  -5    1.50    1.60
  -6  -6   5    0.60    1.40
  -6  -6   5   -0.70    1.60
   6  -6  -5    0.10    1.70
   6  -6  -5    1.50    2.10
   6  -6  -5    2.90    1.20
  -6  -6   5   -2.90    1.30
  -6   6   5   -2.80    1.80
  -6   6   5    4.50    2.10
   6   6  -5    0.00    1.80
  -6   6   5    5.10    2.20
   6   6  -5    2.90    1.90
   6   6  -5    2.90    1.70
   4  -6  -5   84.09    3.90
  -4  -6   5   81.09    4.20
   4  -6  -5   87.39    6.10
  -4  -6   5   89.89    5.20
   4  -6  -5   88.79    5.50
  -4  -6   5   82.29    4.40
  -4  -6   5   88.29    5.50
  -4   6   5   84.09    5.40
  -4   6   5   79.99    5.80
   4   6  -5   88.89    4.90
  -4   6   5   86.59    5.10
   4   6  -5   82.49    5.20
   4   6  -5   82.29    5.90
   2  -6  -5   43.80    3.90
  -2  -6   5   39.60    3.70
  -2  -6   5   43.40    3.50
  -2  -6   5   43.00    3.40
  -2  -6   5   41.80    3.60
   2  -6  -5   43.90    3.20
   2  -6  -5   45.60    4.40
   2   6  -5   41.00    3.60
  -2   6   5   46.20    4.30
   2   6  -5   47.20    3.60
  -2   6   5   48.70    4.00
   2   6  -5   44.40    3.70
  -2   6   5   45.30    3.50
   2   6  -5   45.90    4.20
   0  -6  -5    1.50    1.40
   0  -6   5   -0.90    1.20
   0  -6   5    2.70    1.60
   0  -6   5    1.80    1.20
   0  -6   5    1.00    1.40
   0  -6  -5   -0.40    1.70
   0  -6  -5    3.00    1.40
   0  -6   5   -0.30    1.30
   0   6  -5    1.20    1.70
   0   6  -5    2.70    1.40
   0   6   5    6.50    2.10
   0   6  -5    1.80    1.60
   0   6   5    2.80    1.70
   0   6  -5    2.00    1.50
   0   6   5    3.20    1.50
   0   6  -5    4.00    1.50
   0   6  -5    0.70    1.40
   0   6  -5    4.80    1.50
   2  -6   5   16.30    2.90
   2  -6   5   15.50    2.80
   2  -6   5   15.90    2.50
  -2  -6  -5   13.90    2.40
  -2  -6  -5   21.00    3.20
  -2  -6  -5   12.90    2.30
   2  -6   5   17.40    2.50
   2   6   5   15.30    2.80
  -2   6  -5   15.60    2.70
   2   6   5   14.70    2.80
  -2   6  -5   16.50    2.50
  -2   6  -5   16.30    2.60
  -2   6  -5   12.50    2.50
  -2   6  -5    9.90    2.40
   2   6   5   15.60    2.00
  -4  -6  -5   90.19    5.50
  -4  -6  -5  101.99    6.60
  -4  -6  -5   95.89    5.40
   4  -6   5   91.49    5.00
   4  -6   5   84.19    5.60
  -4  -6  -5   94.19    3.70
   4  -6   5   97.29    6.20
   4  -6   5   91.29    5.00
   4   6   5   90.09    6.00
  -4   6  -5   92.59    4.80
   4   6   5   96.49    5.30
  -4   6  -5   83.89    5.20
  -4   6  -5   94.49    6.30
   4   6   5   94.19    5.80
  -4   6  -5   96.89    5.60
   6  -6   5   19.30    3.10
   6  -6   5   22.00    3.90
  -6  -6  -5   26.10    3.60
   6  -6   5   24.70    3.60
   6  -6   5   20.90    2.60
  -6  -6  -5   19.90    3.80
  -6  -6  -5   23.60    2.60
  -6   6  -5   17.90    2.60
  -6   6  -5   28.50    3.50
  -6   6  -5   23.50    4.10
  -6   6  -5   18.70    3.30
   6   6   5   27.20    3.70
   6   6   5   21.80    3.60
   8  -6   5   23.50    3.50
   8  -6   5   27.50    4.60
  -8  -6  -5   18.90    3.50
  -8  -6  -5   25.00    3.30
  -8  -6  -5   25.70    4.40
   8  -6   5   23.30    3.90
  -8   6  -5   20.10    3.80
  -8   6  -5   25.70    4.00
   8   6   5   21.40    3.70
   8   6   5   28.30    3.60
   8   6   5   28.00    4.00
 -10  -6  -5   27.90    4.00
  10  -6   5   21.50    3.50
  10  -6   5   27.10    4.80
  10  -6   5   18.10    3.90
 -10  -6  -5   23.20    4.50
 -10  -6  -5   20.00    4.00
  10   6   5   20.40    4.00
 -10   6  -5   20.60    4.20
 -10   6  -5   26.80    4.40
  10   6   5   18.30    3.50
  10   6   5   19.80    3.90
  -9  -7   5  148.19    8.30
  -9  -7   5  137.49    8.40
   9  -7  -5  140.59    8.60
   9  -7  -5  146.79    8.30
   9  -7  -5  145.69    8.90
   9   7  -5  117.59    7.10
  -9   7   5  146.39    8.40
   9   7  -5  140.89    9.40
  -9   7   5  153.88    9.60
   9   7  -5  134.29    8.40
  -7  -7   5  189.68    7.20
  -7  -7   5  190.08    9.60
   7  -7  -5  211.58   10.60
   7  -7  -5  194.78    9.80
   7  -7  -5  189.08    9.30
  -7  -7   5  193.68    9.10
  -7   7   5  197.28    9.40
   7   7  -5  192.98   10.70
  -7   7   5  207.28   10.10
   7   7  -5  194.18    8.70
  -7   7   5  189.18   10.30
   7   7  -5  192.98    9.60
  -5  -7   5   87.19    4.80
  -5  -7   5   95.59    4.80
  -5  -7   5   99.99    5.90
  -5  -7   5   89.19    6.10
   5  -7  -5   98.79    4.10
   5  -7  -5   99.39    6.40
   5  -7  -5   98.29    7.00
  -5   7   5  105.29    6.10
  -5   7   5   98.49    6.50
   5   7  -5   98.39    7.10
  -5   7   5   89.99    6.80
   5   7  -5   92.29    6.10
   5   7  -5   98.39    5.80
  -3  -7   5  187.28    7.80
   3  -7  -5  189.58   10.00
   3  -7  -5  198.08    9.00
  -3  -7   5  193.38    8.40
  -3  -7   5  191.08    7.40
  -3  -7   5  189.28    8.60
   3  -7  -5  187.88    7.00
   3   7  -5  187.48    9.70
   3   7  -5  192.78    8.40
  -3   7   5  188.98    8.90
   3   7  -5  191.58    8.70
  -3   7   5  209.08    8.40
  -3   7   5  184.48    9.60
  -1  -7   5  521.75   16.80
  -1  -7   5  548.95   18.70
  -1  -7   5  530.05   16.90
   1  -7  -5  524.45   19.00
   1  -7  -5  539.35   17.50
  -1  -7   5  541.05   16.10
  -1  -7   5  517.05   16.50
   1  -7  -5  531.05   15.90
  -1   7   5  529.75   17.70
  -1   7   5  557.84   16.00
   1   7  -5  521.05   18.00
   1   7  -5  535.15   17.10
   1   7  -5  528.35   17.00
   1   7  -5  548.05   17.20
  -1   7   5  516.55   18.40
  -1  -7  -5  853.11   24.60
   1  -7   5  820.52   24.90
   1  -7   5  833.22   24.70
   1  -7   5  832.22   24.90
  -1  -7  -5  870.51   23.80
   1  -7   5  812.72   23.70
   1  -7   5  834.42   23.70
   1  -7   5  851.81   24.20
   1  -7   5  832.92   23.70
  -1  -7  -5  830.42   26.50
  -1   7  -5  832.62   24.70
  -1   7  -5  836.52   25.10
  -1   7  -5  836.02   23.60
  -1   7  -5  817.02   24.50
  -1   7  -5  829.72   24.00
   1   7   5  827.72   25.70
  -1   7  -5  836.22   23.60
   1   7   5  837.52   25.10
  -1   7  -5  835.92   23.60
  -3  -7  -5  359.86   13.10
   3  -7   5  367.26   13.00
   3  -7   5  373.26   12.90
  -3  -7  -5  376.76   13.30
  -3  -7  -5  385.26   15.30
   3  -7   5  356.46   12.00
   3  -7   5  367.36   13.70
   3  -7   5  372.96   14.30
   3   7   5  369.56   14.20
  -3   7  -5  359.66   13.00
  -3   7  -5  366.46   14.40
   3   7   5  375.36   14.00
  -3   7  -5  362.36   12.00
  -3   7  -5  362.06   12.60
  -5  -7  -5  357.86   13.10
   5  -7   5  359.86   14.40
  -5  -7  -5  368.16   13.40
  -5  -7  -5  364.06   14.90
   5  -7   5  351.96   11.40
   5  -7   5  352.86   12.50
   5  -7   5  348.07   12.00
   5  -7   5  350.76   13.90
  -5   7  -5  354.26   14.70
   5   7   5  343.77   13.80
  -5   7  -5  370.76   13.60
  -5   7  -5  350.66   12.60
   5   7   5  359.76   13.00
   5   7   5  331.47   13.70
   7  -7   5  294.27   13.00
   7  -7   5  271.27    9.10
   7  -7   5  270.47   10.70
   7  -7   5  268.87   10.00
   7  -7   5  271.57   12.10
  -7  -7  -5  277.27    9.20
  -7  -7  -5  287.67   13.00
  -7  -7  -5  274.97   11.80
   7   7   5  288.57   11.30
  -7   7  -5  286.17   11.30
  -7   7  -5  263.47   13.00
   7   7   5  273.57   12.10
   7   7   5  283.77   12.50
  -7   7  -5  277.87   11.90
  -9  -7  -5  207.18   11.40
   9  -7   5  222.58   11.30
   9  -7   5  218.28    9.80
  -9  -7  -5  223.58   10.90
   9  -7   5  228.48   11.80
  -9  -7  -5  223.38    8.90
  -9   7  -5  210.58   11.90
   9   7   5  214.48    9.90
   9   7   5  223.68   11.30
  -9   7  -5  234.18   11.20
   9   7   5  228.08   11.00
  -9   7  -5  224.48   10.50
  -6  -8   5   -3.10    2.20
  -6  -8   5    2.90    2.70
  -6  -8   5   -4.50    2.30
   6  -8  -5    2.20    2.20
   6  -8  -5    1.70    2.30
   6  -8  -5    0.10    2.70
   6   8  -5    0.70    2.50
   6   8  -5   -4.30    2.60
  -6   8   5    7.60    3.10
  -6   8   5   -1.00    2.30
  -6   8   5    1.50    3.00
   6   8  -5   -1.30    2.20
   4  -8  -5   11.50    2.10
   4  -8  -5   10.20    3.10
  -4  -8   5   10.10    2.50
  -4  -8   5    9.80    2.60
  -4  -8   5    7.50    2.60
  -4  -8   5   13.20    2.90
  -4  -8   5   11.80    3.30
   4  -8  -5    5.80    2.90
   4   8  -5    9.20    3.40
   4   8  -5   16.60    3.20
  -4   8   5   11.90    3.40
  -4   8   5   10.10    3.30
  -4   8   5   13.00    3.10
   4   8  -5   12.60    3.10
   2  -8  -5   34.40    4.30
   2  -8  -5   29.80    4.60
  -2  -8   5   28.30    3.90
  -2  -8   5   29.70    5.00
  -2  -8   5   28.80    4.00
   2  -8  -5   27.90    3.30
  -2  -8   5   26.80    3.50
  -2  -8   5   26.50    3.70
   2   8  -5   33.70    4.10
   2   8  -5   28.20    4.00
   2   8  -5   27.90    4.10
  -2   8   5   26.40    4.20
  -2   8   5   26.20    3.80
   2   8  -5   31.00    5.00
  -2   8   5   30.20    4.30
   0  -8   5   15.80    2.80
   0  -8  -5   17.30    3.10
   0  -8  -5   18.30    3.50
   0  -8   5   14.30    3.20
   0  -8   5   12.30    3.10
   0  -8  -5   13.80    3.50
   0  -8   5   13.10    3.60
   0  -8   5   22.30    3.40
   0  -8   5   15.60    2.90
   0  -8   5   15.50    3.20
   0   8  -5   20.80    3.60
   0   8   5   26.30    4.00
   0   8   5   20.30    3.90
   0   8  -5   13.10    3.10
   0   8  -5   22.90    3.90
   2  -8   5    8.60    2.40
   2  -8   5    9.80    2.70
   2  -8   5   13.90    3.20
   2  -8   5   12.90    2.80
  -2  -8  -5    5.30    3.20
   2  -8   5    6.10    2.30
   2  -8   5    7.30    2.70
  -2  -8  -5    5.30    2.40
   2  -8   5    5.70    2.20
  -2   8  -5   11.40    3.40
  -2   8  -5    7.20    2.90
   2   8   5    6.60    2.60
   2   8   5    9.30    3.00
  -2   8  -5    7.20    2.50
  -2   8  -5    8.40    2.70
  -4  -8  -5   16.00    3.30
   4  -8   5   15.20    3.50
   4  -8   5   15.70    3.40
  -4  -8  -5   25.10    4.70
   4  -8   5   16.50    2.70
  -4  -8  -5   18.30    3.40
   4  -8   5   13.90    3.50
   4  -8   5   15.90    3.50
   4   8   5   20.10    4.00
   4   8   5   13.00    3.50
  -4   8  -5   13.60    3.70
  -4   8  -5   19.00    3.70
  -4   8  -5   14.00    3.00
  -6  -8  -5   -0.10    2.50
  -6  -8  -5    1.30    2.30
   6  -8   5    3.50    2.50
   6  -8   5    1.10    2.40
  -6  -8  -5    1.60    2.50
   6  -8   5   -3.10    2.30
   6  -8   5   -2.30    2.70
   6  -8   5    8.90    3.10
   6   8   5    0.90    2.40
  -6   8  -5   -3.40    2.70
  -6   8  -5    3.40    3.10
   6   8   5   -0.50    2.60
  -6   8  -5    2.80    2.60
   6   8   5    1.00    2.40
  -1  -9   5  122.59    8.50
  -1  -9   5  107.49    6.80
  -1  -9   5  120.99    6.30
   1  -9  -5  117.19    8.60
  -1  -9   5  115.79    7.70
   1  -9  -5  115.99    7.60
  -1  -9   5  117.79    7.50
  -1  -9   5  104.09    6.30
   1  -9  -5  118.59    6.30
  -1   9   5  111.19    8.00
   1   9  -5  111.99    7.60
  -1   9   5  116.79    8.10
   1   9  -5  107.49    7.50
   1   9  -5  107.19    7.50
   1  -9   5  126.59    6.90
   1  -9   5  134.99    8.50
   1  -9   5  128.79    7.20
  -1  -9  -5  124.99    7.90
  -1  -9  -5  132.09    7.20
   1  -9   5  138.49    7.30
  -1  -9  -5  127.59    9.20
   1  -9   5  132.79    8.30
   1  -9   5  123.69    8.10
   1  -9   5  139.69    8.30
  -1   9  -5  128.69    8.30
   1   9   5  129.69    8.90
  -1   9  -5  125.79    8.30
   1   9   5  135.09    8.60
  -1   9  -5  141.09    7.40
  12   0  -6  293.17   12.80
 -12   0   6  285.47   12.00
  12   0  -6  278.87   12.20
 -12   0   6  287.27   10.60
 -12   0   6  277.97   11.60
 -10   0   6   98.69    6.00
  10   0  -6   85.19    6.30
 -10   0   6   86.99    5.50
 -10   0   6   82.49    5.10
  10   0  -6   90.39    6.00
  10   0  -6   87.59    4.90
  -8   0   6 1437.06   34.80
  -8   0   6 1360.96   36.90
   8   0  -6 1404.86   35.90
   8   0  -6 1414.66   37.40
   8   0  -6 1422.96   39.10
  -8   0   6 1384.56   37.00
  -6   0   6 2828.72   65.39
  -6   0   6 2706.83   66.79
  -6   0   6 2737.23   66.69
   6   0  -6 2672.03   66.69
   6   0  -6 2716.53   65.99
   6   0  -6 2665.83   68.69
  -4   0   6 1697.93   42.30
   4   0  -6 1674.63   42.10
  -4   0   6 1675.43   42.60
  -4   0   6 1727.73   41.80
   4   0  -6 1693.23   41.90
   4   0  -6 1655.53   44.20
  -2   0   6  209.88    7.70
   2   0  -6  214.98    6.80
  -2   0   6  211.88    7.80
  -2   0   6  216.98    7.70
   2   0  -6  217.58    8.80
  -2   0   6  208.58    6.80
   2   0  -6  215.38    7.70
   2   0  -6  214.68    7.50
   0   0  -6 1165.58   28.10
   0   0   6 1134.79   27.90
   0   0  -6 1199.68   29.80
   0   0  -6 1161.78   30.10
   0   0   6 1151.68   30.40
   0   0   6 1166.88   30.00
   0   0  -6 1172.28   31.00
  -2   0  -6   18.10    2.00
  -2   0  -6   18.70    2.20
   2   0   6   20.20    2.40
  -2   0  -6   18.20    2.00
   2   0   6   19.70    2.10
   2   0   6   23.60    1.80
  -4   0  -6  312.57   10.20
  -4   0  -6  304.57   10.70
   4   0   6  320.47   11.50
   4   0   6  338.07   10.60
   4   0   6  348.37   10.50
  -4   0  -6  295.27   10.50
  -6   0  -6 1535.75   38.80
   6   0   6 1528.05   38.50
   6   0   6 1633.64   40.70
  -6   0  -6 1574.54   40.60
   6   0   6 1550.64   40.10
  -6   0  -6 1608.84   40.30
   6   0   6 1606.74   41.80
  -6   0  -6 1571.54   40.70
  -8   0  -6 1656.93   43.70
  -8   0  -6 1643.84   42.80
   8   0   6 1677.23   44.60
   8   0   6 1660.53   43.80
  -8   0  -6 1695.03   43.30
 -10   0  -6   99.09    5.90
 -10   0  -6  102.29    6.40
  10   0   6   96.39    4.10
 -10   0  -6   99.09    5.80
  10   0   6  103.19    6.70
  10   0   6   95.29    6.40
  12   0   6  333.97   14.10
 -12   0  -6  344.77   12.70
 -12   0  -6  341.77   13.60
  12   0   6  332.27   14.00
  12   0   6  318.67   10.30
 -12   0  -6  326.07   12.50
  13  -1  -6    4.80    2.80
 -13  -1   6   -0.60    2.40
 -13  -1   6   -2.60    2.60
 -13  -1   6   -0.10    2.30
  13  -1  -6    2.80    2.40
 -13   1   6    2.50    3.00
  13   1  -6    2.10    2.50
  13   1  -6   -0.80    2.00
 -13   1   6    4.20    2.20
  13   1  -6    1.80    2.70
 -13   1   6    4.90    3.00
 -11  -1   6  150.08    7.30
 -11  -1   6  154.68    7.60
 -11  -1   6  152.18    8.20
  11  -1  -6  167.48    8.70
  11  -1  -6  152.48    8.50
  11   1  -6  149.88    8.80
 -11   1   6  156.88    6.80
 -11   1   6  154.48    7.90
  11   1  -6  148.09    8.30
 -11   1   6  146.59    7.80
 -11   1   6  141.69    6.50
   9  -1  -6    9.60    2.40
   9  -1  -6   10.30    2.70
  -9  -1   6   12.80    2.50
  -9  -1   6    9.60    2.10
   9  -1  -6   11.20    1.90
  -9  -1   6    8.60    2.40
   9   1  -6   11.80    2.50
   9   1  -6    9.80    1.90
  -9   1   6   12.00    2.10
  -9   1   6   11.10    2.40
   9   1  -6   11.70    2.80
  -9   1   6    9.50    2.40
   7  -1  -6    4.00    1.80
  -7  -1   6    4.50    1.80
   7  -1  -6    2.40    1.30
   7  -1  -6    1.40    1.50
  -7  -1   6   -0.30    1.20
  -7   1   6    3.10    1.40
   7   1  -6    2.00    1.60
   7   1  -6    2.10    1.50
  -7   1   6    2.20    1.50
   7   1  -6   -0.60    1.00
   7   1  -6    1.70    1.20
  -7   1   6    1.40    1.20
   5  -1  -6    4.80    1.30
  -5  -1   6    2.30    1.30
   5  -1  -6    1.80    1.20
  -5  -1   6    4.10    1.30
   5  -1  -6    3.80    1.60
  -5  -1   6    3.10    1.00
   5   1  -6    4.70    1.60
   5   1  -6    3.70    1.10
   5   1  -6    2.80    1.10
   5   1  -6    2.50    1.20
  -5   1   6    1.70    1.20
  -5   1   6    2.80    1.10
  -5   1   6    4.00    1.40
  -3  -1   6  369.46   11.90
   3  -1  -6  390.96   11.70
   3  -1  -6  378.56   13.30
  -3  -1   6  387.46   12.10
  -3  -1   6  366.76   11.20
   3  -1  -6  383.56   11.40
   3   1  -6  372.66   13.20
   3   1  -6  382.26   11.90
  -3   1   6  378.76   11.80
  -3   1   6  395.56   11.70
   3   1  -6  385.96   11.10
  -3   1   6  364.46   11.90
  -1  -1   6 1010.40   25.90
   1  -1  -6 1070.09   27.50
   1  -1  -6 1068.49   26.10
   1  -1  -6 1061.09   25.60
   1  -1  -6 1062.39   28.90
  -1  -1   6 1061.99   27.40
   1  -1  -6 1083.89   27.00
  -1  -1   6 1021.70   27.40
  -1   1   6 1066.89   27.50
   1   1  -6 1050.69   28.70
   1   1  -6 1009.90   27.50
   1   1  -6 1041.30   27.40
  -1   1   6 1063.09   27.90
  -1   1   6 1093.29   26.10
  -1   1   6 1057.09   25.40
   1   1  -6 1037.10   25.70
   1  -1   6  182.78    5.80
  -1  -1  -6  209.38    6.30
   1  -1   6  186.28    7.30
  -1  -1  -6  182.68    7.50
  -1  -1  -6  177.48    6.60
   1  -1   6  191.38    5.90
  -1  -1  -6  181.68    7.10
   1  -1   6  167.88    6.80
   1   1   6  172.08    7.30
  -1   1  -6  181.98    7.40
  -1   1  -6  188.68    7.10
  -1   1  -6  180.98    5.90
  -1   1  -6  180.88    7.00
   1   1   6  172.98    5.90
   1   1   6  179.58    6.70
   3  -1   6  414.06   11.90
   3  -1   6  390.86   12.30
   3  -1   6  388.06   13.00
  -3  -1  -6  403.96   12.20
  -3  -1  -6  396.26   12.60
  -3  -1  -6  401.96   12.70
  -3   1  -6  385.76   12.00
  -3   1  -6  397.56   12.50
   3   1   6  379.56   13.00
   3   1   6  404.86   12.10
   3   1   6  400.26   11.80
  -3   1  -6  385.26   12.50
   5  -1   6   24.00    2.50
  -5  -1  -6   22.40    2.50
  -5  -1  -6   22.80    2.60
   5  -1   6   24.90    2.90
   5  -1   6   23.30    2.50
   5  -1   6   22.20    2.10
  -5  -1  -6   25.00    2.50
  -5   1  -6   22.70    2.10
   5   1   6   24.00    2.50
  -5   1  -6   27.00    2.70
   5   1   6   24.30    2.80
  -5   1  -6   21.10    2.40
  -5   1  -6   23.10    2.60
   5   1   6   21.00    2.30
  -7  -1  -6    4.40    1.60
  -7  -1  -6    8.50    1.80
  -7  -1  -6    4.20    1.40
  -7  -1  -6    4.30    1.70
   7  -1   6    9.70    2.20
   7   1   6    5.60    1.60
   7   1   6    7.60    2.00
  -7   1  -6    5.30    1.80
  -7   1  -6    9.10    2.20
   7   1   6    7.30    1.90
  -7   1  -6    3.70    1.80
  -9  -1  -6   12.10    2.40
   9  -1   6    9.70    2.50
  -9  -1  -6    9.50    2.50
  -9  -1  -6    7.60    2.10
   9  -1   6    9.30    2.60
  -9   1  -6   11.30    2.30
   9   1   6   12.70    2.80
  -9   1  -6   13.80    2.90
   9   1   6    8.00    2.20
  -9   1  -6    8.20    2.20
   9   1   6    9.00    2.00
 -11  -1  -6  137.09    7.80
 -11  -1  -6  158.88    7.30
  11  -1   6  148.29    5.70
 -11  -1  -6  142.89    7.60
  11  -1   6  147.29    8.50
  11  -1   6  149.99    8.50
  11   1   6  161.98    8.60
 -11   1  -6  151.78    7.40
 -11   1  -6  150.58    7.80
  11   1   6  144.39    8.50
 -11   1  -6  150.78    8.10
  11   1   6  141.49    5.70
  13  -1   6    2.90    2.80
 -13  -1  -6    1.30    2.70
 -13  -1  -6    6.80    3.00
  13  -1   6    2.20    2.10
  13  -1   6    7.00    3.10
 -13  -1  -6    3.60    2.90
  13   1   6    1.40    2.10
 -13   1  -6    0.70    2.70
 -13   1  -6    4.20    2.90
 -13   1  -6    9.30    3.00
  13   1   6    4.60    2.60
  13   1   6    6.00    3.10
  12  -2  -6  288.57   12.50
 -12  -2   6  276.87   11.60
  12  -2  -6  311.77   13.20
 -12  -2   6  275.17   11.20
 -12  -2   6  296.07   12.60
 -12   2   6  305.97   12.10
  12   2  -6  307.17   13.40
 -12   2   6  275.17   12.10
 -12   2   6  280.97   10.90
  12   2  -6  294.57   12.70
  10  -2  -6  416.06   12.10
  10  -2  -6  393.66   15.00
  10  -2  -6  395.56   14.50
 -10  -2   6  405.96   13.90
 -10  -2   6  390.66   13.40
 -10  -2   6  378.76   14.30
 -10   2   6  418.56   13.40
 -10   2   6  409.16   13.80
  10   2  -6  410.26   15.70
 -10   2   6  364.56   14.00
 -10   2   6  394.26   12.40
  10   2  -6  389.96   14.50
   8  -2  -6  396.56   14.80
  -8  -2   6  411.86   13.20
  -8  -2   6  407.56   13.80
  -8  -2   6  397.36   13.80
   8  -2  -6  397.36   13.90
   8  -2  -6  410.56   12.00
   8  -2  -6  382.66   11.70
  -8   2   6  392.66   13.00
  -8   2   6  394.46   13.70
   8   2  -6  407.46   13.10
  -8   2   6  410.86   13.00
   8   2  -6  393.66   15.10
   8   2  -6  409.06   13.90
   6  -2  -6  152.38    5.10
  -6  -2   6  152.48    6.50
  -6  -2   6  143.99    6.80
   6  -2  -6  150.68    7.80
   6  -2  -6  150.98    6.80
   6  -2  -6  161.78    6.00
   6  -2  -6  139.79    5.20
  -6   2   6  151.58    6.50
   6   2  -6  146.39    7.80
  -6   2   6  143.69    6.80
  -6   2   6  156.38    6.30
   6   2  -6  147.89    6.60
   6   2  -6  150.68    6.50
  -4  -2   6 1155.28   30.50
   4  -2  -6 1202.98   28.40
  -4  -2   6 1153.08   29.40
   4  -2  -6 1164.48   32.40
  -4  -2   6 1168.58   30.90
   4  -2  -6 1139.29   30.40
   4  -2  -6 1189.78   29.90
  -4  -2   6 1164.68   29.10
   4  -2  -6 1157.38   28.50
  -4   2   6 1153.68   30.70
  -4   2   6 1207.58   29.90
   4   2  -6 1110.29   29.30
   4   2  -6 1186.98   32.40
  -4   2   6 1173.88   30.90
   4   2  -6 1189.68   30.70
   4   2  -6 1166.28   30.00
  -2  -2   6 1698.03   43.40
  -2  -2   6 1717.83   42.40
   2  -2  -6 1693.43   42.10
   2  -2  -6 1679.33   44.50
   2  -2  -6 1676.83   41.10
  -2  -2   6 1702.33   42.90
   2  -2  -6 1752.02   42.70
  -2   2   6 1766.52   42.20
   2   2  -6 1666.23   43.00
   2   2  -6 1702.13   44.30
   2   2  -6 1714.43   43.00
  -2   2   6 1701.73   41.20
  -2   2   6 1716.53   43.00
   2   2  -6 1743.33   41.70
  -2   2   6 1760.12   43.60
   0  -2  -6 2139.79   49.90
   0  -2  -6 2095.99   52.89
   0  -2  -6 2051.19   50.19
   0  -2  -6 2082.29   49.99
   0  -2   6 2007.60   49.50
   0  -2   6 1977.40   49.40
   0  -2   6 2107.49   51.69
   0  -2  -6 2167.38   50.59
   0  -2   6 2071.89   49.70
   0  -2   6 2048.50   51.49
   0  -2  -6 2120.19   51.59
   0   2  -6 2101.89   52.29
   0   2   6 2116.29   51.29
   0   2  -6 2130.19   51.89
   0   2   6 2104.59   50.19
   0   2  -6 1971.20   51.39
   0   2   6 2172.38   52.39
   0   2  -6 2113.19   49.50
  -2  -2  -6 1446.66   34.90
   2  -2   6 1343.87   35.60
   2  -2   6 1399.26   36.30
  -2  -2  -6 1418.06   36.70
  -2  -2  -6 1372.06   35.80
   2  -2   6 1398.76   34.70
   2   2   6 1411.36   36.70
  -2   2  -6 1347.27   35.30
  -2   2  -6 1366.56   35.80
  -2   2  -6 1381.76   35.70
   2   2   6 1392.16   34.80
   2   2   6 1424.76   35.10
   4  -2   6  991.90   27.50
  -4  -2  -6  980.50   26.70
  -4  -2  -6 1000.70   26.80
   4  -2   6  984.80   26.10
  -4  -2  -6  999.70   25.90
   4  -2   6  964.50   25.10
   4  -2   6  983.10   26.60
   4   2   6 1002.80   26.20
   4   2   6  989.50   25.50
  -4   2  -6  931.51   26.10
  -4   2  -6  985.60   26.70
  -4   2  -6  947.31   25.00
  -4   2  -6  961.80   26.60
   4   2   6  991.80   27.50
  -6  -2  -6   36.10    3.10
   6  -2   6   40.30    3.80
  -6  -2  -6   40.40    3.50
   6  -2   6   42.70    3.60
  -6  -2  -6   34.70    3.10
  -6   2  -6   40.10    3.40
   6   2   6   36.50    3.60
  -6   2  -6   35.70    3.30
   6   2   6   39.50    2.80
   6   2   6   40.70    3.50
  -6   2  -6   35.70    3.30
   8  -2   6  193.28    8.90
  -8  -2  -6  187.68    7.50
  -8  -2  -6  180.78    8.40
  -8  -2  -6  187.78    8.20
   8  -2   6  194.38    9.20
   8   2   6  194.18    7.30
   8   2   6  189.58    8.60
   8   2   6  194.88    9.00
   8   2   6  188.38    6.10
  -8   2  -6  190.78    8.60
  -8   2  -6  190.38    7.90
  -8   2  -6  178.88    8.20
 -10  -2  -6  459.55   15.90
 -10  -2  -6  441.76   15.60
 -10  -2  -6  446.96   14.20
  10  -2   6  436.66   16.70
  10  -2   6  445.26   16.30
  10   2   6  474.85   14.20
  10   2   6  467.55   16.60
  10   2   6  444.56   13.00
 -10   2  -6  459.55   15.90
  10   2   6  458.65   16.50
 -10   2  -6  438.96   14.60
 -10   2  -6  501.15   16.60
 -12  -2  -6  534.55   18.60
 -12  -2  -6  543.55   16.60
  12  -2   6  535.75   19.40
  12  -2   6  542.65   19.50
 -12  -2  -6  542.35   18.30
  12  -2   6  510.95   15.20
  12   2   6  514.75   19.20
 -12   2  -6  528.55   18.30
  12   2   6  508.55   15.40
 -12   2  -6  534.15   16.90
 -12   2  -6  553.54   19.10
  12   2   6  524.25   16.30
  12   2   6  539.65   19.00
 -13  -3   6    4.30    2.90
 -13  -3   6    1.90    3.30
 -13  -3   6   -0.10    2.50
  13  -3  -6    0.40    2.70
  13  -3  -6    4.10    2.80
  13  -3  -6   -4.50    2.30
 -13   3   6   -0.80    2.90
  13   3  -6    6.70    2.80
 -13   3   6   -0.30    3.00
 -13   3   6   -2.00    2.90
  13   3  -6    4.70    3.30
 -11  -3   6    6.60    2.80
 -11  -3   6    4.50    2.20
  11  -3  -6    7.10    2.80
 -11  -3   6    3.40    2.10
  11  -3  -6    7.40    2.50
  11  -3  -6   -1.30    1.90
 -11   3   6    2.30    2.40
 -11   3   6    4.00    2.50
 -11   3   6    0.00    1.70
  11   3  -6    0.30    1.60
  11   3  -6    5.70    2.70
 -11   3   6    6.60    2.80
  11   3  -6    8.10    2.80
  -9  -3   6   31.80    3.50
  -9  -3   6   27.30    3.90
   9  -3  -6   40.50    4.20
   9  -3  -6   38.00    2.80
   9  -3  -6   36.00    3.30
  -9  -3   6   33.80    3.80
   9  -3  -6   40.10    4.10
   9   3  -6   40.40    4.10
  -9   3   6   31.00    3.60
  -9   3   6   44.70    4.20
  -9   3   6   34.00    3.60
   9   3  -6   30.40    3.40
   9   3  -6   39.20    4.50
   7  -3  -6   12.10    2.00
   7  -3  -6   14.80    3.10
   7  -3  -6    9.60    2.10
  -7  -3   6   11.80    2.20
  -7  -3   6    9.40    2.20
  -7  -3   6    8.80    2.30
   7  -3  -6   11.60    1.70
  -7   3   6   10.00    2.30
  -7   3   6   12.40    2.30
   7   3  -6    9.20    2.00
  -7   3   6   11.60    2.10
   7   3  -6   15.70    3.20
   7   3  -6   10.80    2.30
  -5  -3   6    6.70    1.80
   5  -3  -6    4.20    1.50
  -5  -3   6    3.50    1.40
   5  -3  -6    3.60    1.90
   5  -3  -6    3.60    1.20
   5  -3  -6    7.60    1.40
  -5  -3   6    6.60    1.20
  -5  -3   6    2.30    1.30
   5   3  -6    3.00    1.30
  -5   3   6    4.00    1.40
   5   3  -6    3.50    1.70
  -5   3   6    4.70    1.70
  -5   3   6    4.70    1.50
   5   3  -6    4.60    1.40
   3  -3  -6   77.19    5.20
  -3  -3   6   71.29    3.70
  -3  -3   6   73.79    4.10
  -3  -3   6   70.99    4.40
   3  -3  -6   84.39    4.30
   3  -3  -6   80.99    4.00
  -3   3   6   75.29    3.60
  -3   3   6   73.49    4.60
   3   3  -6   82.09    4.60
   3   3  -6   75.99    5.00
  -3   3   6   76.19    3.70
   3   3  -6   87.69    4.10
  -3   3   6   73.29    4.20
   1  -3  -6  122.79    5.10
  -1  -3   6  121.79    5.90
  -1  -3   6  124.09    5.50
   1  -3  -6  117.59    5.30
  -1  -3   6  121.49    5.50
   1  -3  -6  125.79    4.70
  -1  -3   6  111.89    4.20
   1  -3  -6  116.69    6.50
  -1  -3   6  121.79    4.40
  -1   3   6  122.59    5.40
   1   3  -6  118.69    4.70
  -1   3   6  124.09    4.70
   1   3  -6  120.89    5.60
   1   3  -6  125.99    6.20
   1   3  -6  122.99    5.60
  -1   3   6  123.19    4.90
  -1   3   6  124.09    6.10
   1  -3   6   89.29    4.80
  -1  -3  -6   83.49    3.80
  -1  -3  -6   85.09    3.80
   1  -3   6   80.69    4.50
   1  -3   6   78.59    3.90
  -1  -3  -6   79.49    5.10
  -1  -3  -6   84.59    4.60
   1  -3   6   84.39    3.50
  -1   3  -6   81.39    4.50
   1   3   6   86.89    4.20
   1   3   6   86.89    4.20
   1   3   6   82.69    5.00
  -1   3  -6   89.69    4.70
  -1   3  -6   84.99    4.60
  -1   3  -6   84.19    3.40
  -3  -3  -6  455.15   14.20
   3  -3   6  436.16   11.70
  -3  -3  -6  464.15   13.00
  -3  -3  -6  438.56   14.70
  -3  -3  -6  456.55   12.20
  -3  -3  -6  447.46   12.30
   3  -3   6  431.96   13.60
   3  -3   6  455.45   14.20
   3  -3   6  453.05   14.70
  -3   3  -6  445.16   14.10
   3   3   6  456.25   14.90
   3   3   6  443.26   13.10
  -3   3  -6  435.46   13.10
  -3   3  -6  452.35   14.20
   3   3   6  445.56   13.70
  -3   3  -6  445.06   13.80
  -5  -3  -6   20.20    2.40
   5  -3   6   18.40    2.80
  -5  -3  -6   19.60    1.80
   5  -3   6   26.20    2.90
  -5  -3  -6   19.10    2.60
  -5  -3  -6   20.00    2.70
   5  -3   6   17.70    2.20
  -5  -3  -6   19.20    2.80
  -5   3  -6   20.00    1.90
   5   3   6   20.80    2.60
   5   3   6   21.90    2.10
  -5   3  -6   23.00    2.70
   5   3   6   19.00    1.80
  -5   3  -6   21.50    2.70
  -5   3  -6   21.50    2.50
   5   3   6   18.20    2.80
  -7  -3  -6   10.70    2.40
  -7  -3  -6   11.80    2.50
   7  -3   6   14.60    2.90
  -7  -3  -6   13.00    2.50
   7  -3   6   10.50    2.60
  -7   3  -6   14.70    2.90
   7   3   6   12.80    2.60
   7   3   6   12.30    2.70
  -7   3  -6   14.30    2.70
   7   3   6   13.80    1.90
   7   3   6   15.60    2.20
  -7   3  -6   11.50    2.20
  -9  -3  -6  245.28    9.50
   9  -3   6  230.88   11.00
  -9  -3  -6  253.97   10.10
  -9  -3  -6  242.28   10.50
   9  -3   6  243.28    8.00
   9  -3   6  228.68   10.50
   9   3   6  243.78   10.70
   9   3   6  257.87    8.60
  -9   3  -6  238.88   10.40
   9   3   6  242.28    8.20
  -9   3  -6  246.48   10.50
  -9   3  -6  259.17    9.50
   9   3   6  246.98   10.90
  11  -3   6   27.10    3.10
  11  -3   6   29.20    4.70
  11  -3   6   31.40    4.30
 -11  -3  -6   27.60    4.20
 -11  -3  -6   24.70    3.90
 -11   3  -6   31.10    4.40
  11   3   6   24.90    3.10
 -11   3  -6   26.20    3.80
  11   3   6   25.50    4.30
  11   3   6   28.80    4.70
 -11   3  -6   33.10    4.30
  12  -4  -6   58.99    5.80
  12  -4  -6   51.59    5.70
 -12  -4   6   56.79    6.00
 -12  -4   6   53.09    4.80
 -12  -4   6   54.39    5.60
  12   4  -6   55.59    5.80
 -12   4   6   44.90    5.40
 -12   4   6   61.49    5.80
  12   4  -6   59.09    6.20
 -12   4   6   55.39    6.20
 -10  -4   6  383.06   13.00
 -10  -4   6  395.36   14.70
  10  -4  -6  392.76   14.90
  10  -4  -6  373.76   13.20
  10  -4  -6  393.16   11.00
  10  -4  -6  392.36   15.30
 -10  -4   6  375.86   14.40
  10   4  -6  395.26   14.70
  10   4  -6  392.66   16.10
 -10   4   6  385.16   14.30
 -10   4   6  387.06   14.70
 -10   4   6  400.36   13.40
   8  -4  -6  434.56   14.10
  -8  -4   6  451.35   15.70
   8  -4  -6  454.55   12.70
   8  -4  -6  435.76   15.70
  -8  -4   6  451.15   14.20
   8  -4  -6  470.05   16.80
  -8  -4   6  448.86   15.60
  -8   4   6  457.25   15.70
  -8   4   6  454.25   13.90
   8   4  -6  460.55   17.20
   8   4  -6  437.26   15.00
  -8   4   6  453.35   15.60
   8   4  -6  465.55   15.50
  -6  -4   6  440.36   15.20
  -6  -4   6  429.66   12.80
   6  -4  -6  465.35   15.20
  -6  -4   6  441.06   15.00
   6  -4  -6  475.05   16.40
   6  -4  -6  457.55   12.90
   6  -4  -6  475.25   14.00
  -6  -4   6  451.85   14.00
   6   4  -6  441.26   16.40
   6   4  -6  452.55   14.60
  -6   4   6  453.05   15.50
   6   4  -6  443.86   14.70
  -6   4   6  464.95   13.30
  -6   4   6  458.35   15.00
  -4  -4   6  786.32   22.20
   4  -4  -6  801.02   20.70
  -4  -4   6  750.32   20.00
  -4  -4   6  725.23   19.70
   4  -4  -6  775.52   22.10
  -4  -4   6  764.42   21.40
  -4  -4   6  756.42   20.30
   4  -4  -6  770.32   23.80
   4   4  -6  763.72   23.50
  -4   4   6  782.02   21.20
  -4   4   6  739.63   22.60
   4   4  -6  802.82   19.90
  -4   4   6  766.92   20.00
  -4   4   6  770.42   21.90
   4   4  -6  789.02   22.20
   4   4  -6  782.22   21.50
   2  -4  -6  596.74   16.60
  -2  -4   6  579.24   15.70
  -2  -4   6  588.84   16.90
   2  -4  -6  581.14   17.00
   2  -4  -6  584.64   19.00
  -2  -4   6  594.24   17.70
  -2  -4   6  585.64   16.50
   2   4  -6  580.94   15.70
   2   4  -6  585.74   16.50
   2   4  -6  580.54   17.30
  -2   4   6  570.64   16.90
   2   4  -6  601.64   17.50
  -2   4   6  583.54   16.60
  -2   4   6  575.34   18.20
  -2   4   6  584.84   15.30
  -2   4   6  513.45   16.00
   2   4  -6  566.94   18.20
   0  -4  -6  101.59    4.80
   0  -4   6  101.09    5.30
   0  -4  -6  109.59    4.00
   0  -4   6  105.09    4.70
   0  -4  -6  103.29    5.10
   0  -4  -6  106.19    6.20
   0  -4   6  102.19    5.20
   0   4  -6  104.29    5.60
   0   4  -6  103.19    4.50
   0   4   6  100.49    4.00
   0   4   6  100.39    4.90
   0   4   6  101.89    5.80
   0   4   6  100.89    4.80
   0   4  -6  103.19    5.30
   0   4  -6   97.09    5.10
  -2  -4  -6  815.92   20.60
   2  -4   6  809.42   23.10
   2  -4   6  811.72   21.90
   2  -4   6  775.32   20.70
  -2  -4  -6  806.02   21.30
  -2  -4  -6  791.02   23.80
  -2  -4  -6  803.92   22.50
   2  -4   6  782.52   22.50
  -2   4  -6  789.52   22.50
  -2   4  -6  798.52   22.60
   2   4   6  812.42   21.30
   2   4   6  797.52   22.20
  -2   4  -6  798.72   22.20
  -2   4  -6  775.22   22.00
   2   4   6  789.02   23.40
   4  -4   6 1580.84   42.10
   4  -4   6 1560.74   38.60
  -4  -4  -6 1600.54   42.00
  -4  -4  -6 1650.73   39.30
  -4  -4  -6 1632.84   39.30
  -4  -4  -6 1543.05   41.10
   4  -4   6 1568.24   40.80
  -4   4  -6 1615.64   41.40
   4   4   6 1568.84   39.10
  -4   4  -6 1544.75   39.30
   4   4   6 1541.35   42.00
  -4   4  -6 1465.05   40.10
   4   4   6 1638.84   41.00
  -4   4  -6 1565.24   41.10
  -6  -4  -6 1064.89   27.10
   6  -4   6 1017.40   26.40
  -6  -4  -6 1000.10   29.00
  -6  -4  -6 1062.19   29.50
   6  -4   6 1043.60   30.20
   6  -4   6 1003.20   29.00
  -6  -4  -6 1091.09   27.70
   6   4   6 1034.70   26.60
   6   4   6 1045.00   26.90
  -6   4  -6 1023.20   27.80
   6   4   6 1037.30   29.80
   6   4   6 1058.49   29.20
  -6   4  -6 1038.00   29.10
  -6   4  -6  995.20   29.00
   8  -4   6  649.04   18.00
   8  -4   6  667.53   21.20
  -8  -4  -6  653.73   21.00
  -8  -4  -6  692.43   19.70
   8  -4   6  644.14   21.70
  -8  -4  -6  659.33   20.50
  -8   4  -6  675.13   19.20
  -8   4  -6  650.83   21.00
   8   4   6  660.53   21.40
   8   4   6  651.23   18.40
  -8   4  -6  650.43   20.60
   8   4   6  665.03   21.10
 -10  -4  -6  504.15   17.90
  10  -4   6  511.25   18.80
 -10  -4  -6  513.05   16.90
  10  -4   6  506.95   15.00
 -10  -4  -6  516.85   17.00
  10  -4   6  517.75   18.50
 -10   4  -6  521.95   17.90
  10   4   6  522.35   18.30
 -10   4  -6  496.85   17.90
  10   4   6  516.95   18.40
  10   4   6  495.85   15.40
 -12  -4  -6   67.79    6.00
  12  -4   6   58.59    6.10
 -12  -4  -6   61.69    6.10
  12  -4   6   62.49    4.70
  12  -4   6   61.09    6.20
  12   4   6   59.79    6.30
  12   4   6   57.19    4.80
 -12   4  -6   58.19    5.80
 -12   4  -6   67.69    6.20
  12   4   6   62.29    6.10
 -11  -5   6    2.70    2.60
  11  -5  -6    6.90    3.30
 -11  -5   6    6.70    3.20
 -11  -5   6    3.80    2.60
  11  -5  -6    1.20    2.50
  11  -5  -6    4.80    2.80
  11   5  -6   -2.00    2.30
 -11   5   6    8.70    3.20
  11   5  -6   -1.70    3.00
 -11   5   6    1.50    2.70
 -11   5   6    3.10    3.00
  -9  -5   6   47.50    4.70
   9  -5  -6   43.10    4.80
   9  -5  -6   44.90    5.00
  -9  -5   6   48.80    4.70
   9  -5  -6   45.80    4.20
  -9  -5   6   42.90    3.90
   9   5  -6   39.50    4.70
  -9   5   6   44.60    4.50
  -9   5   6   46.70    5.10
   9   5  -6   43.60    5.40
   7  -5  -6   47.30    2.90
   7  -5  -6   45.10    4.40
   7  -5  -6   51.09    4.90
  -7  -5   6   56.59    4.90
   7  -5  -6   49.30    4.00
  -7  -5   6   49.80    3.80
  -7  -5   6   44.50    4.40
   7   5  -6   48.20    5.10
   7   5  -6   46.80    4.30
  -7   5   6   47.40    4.50
  -7   5   6   47.70    4.70
   5  -5  -6  279.87   12.00
  -5  -5   6  270.77   11.00
  -5  -5   6  281.47    9.80
  -5  -5   6  279.57   10.70
   5  -5  -6  282.57    8.90
   5  -5  -6  267.47   10.80
   5   5  -6  270.87   11.90
   5   5  -6  282.47   10.40
   5   5  -6  279.07   10.60
  -5   5   6  267.27   10.50
   5   5  -6  265.57    8.90
  -5   5   6  282.57   11.50
  -5   5   6  289.17   10.40
  -3  -5   6   35.90    3.60
   3  -5  -6   40.20    4.10
  -3  -5   6   38.20    3.10
   3  -5  -6   36.20    3.50
  -3  -5   6   35.30    3.00
   3  -5  -6   34.40    2.80
   3   5  -6   40.40    4.00
   3   5  -6   38.80    2.90
  -3   5   6   36.60    3.30
  -3   5   6   35.20    3.70
   3   5  -6   37.50    3.40
   3   5  -6   33.20    3.30
  -3   5   6   40.00    3.50
  -1  -5   6    1.90    1.50
   1  -5  -6    2.20    1.30
   1  -5  -6   -2.00    1.50
   1  -5  -6    1.70    1.40
  -1  -5   6    0.10    1.20
  -1  -5   6    4.30    1.50
  -1  -5   6    0.30    1.50
  -1   5   6    0.50    1.30
  -1   5   6    2.00    1.40
   1   5  -6    2.50    1.70
   1   5  -6   -0.70    1.20
   1   5  -6    4.20    1.50
  -1   5   6    1.60    1.40
   1   5  -6    1.00    1.30
   1   5  -6    2.70    1.60
   1  -5   6    0.30    1.10
   1  -5   6    1.00    1.40
   1  -5   6    1.40    1.30
  -1  -5  -6    3.40    1.10
  -1  -5  -6    0.20    1.20
  -1  -5  -6   -1.70    1.40
  -1  -5  -6    3.40    1.50
   1  -5   6    1.10    1.50
   1   5   6    3.70    1.60
  -1   5  -6    0.30    1.30
  -1   5  -6    0.60    1.30
   1   5   6   -3.20    1.30
  -1   5  -6    3.40    1.40
   1   5   6    2.00    1.00
   1   5   6    0.50    1.30
   1   5   6    3.70    1.40
  -1   5  -6   -1.30    1.40
  -1   5  -6    1.40    1.40
  -3  -5  -6    2.20    1.20
  -3  -5  -6    1.50    1.30
  -3  -5  -6    2.20    1.80
   3  -5   6    2.90    1.70
  -3  -5  -6    4.00    1.60
   3  -5   6    3.40    1.30
   3  -5   6    4.40    1.70
   3  -5   6    3.60    1.70
  -3   5  -6    1.80    1.50
   3   5   6    2.30    1.50
  -3   5  -6    3.10    1.60
   3   5   6   -0.20    1.10
   3   5   6    2.30    1.60
  -3   5  -6   -0.90    1.10
  -3   5  -6    2.20    1.60
   5  -5   6  303.47   11.50
   5  -5   6  299.57   12.20
   5  -5   6  294.07    9.60
  -5  -5  -6  293.57   10.20
  -5  -5  -6  295.07   11.50
  -5  -5  -6  299.97    9.50
   5  -5   6  292.67    9.70
  -5  -5  -6  293.57   12.00
  -5   5  -6  305.27   11.50
  -5   5  -6  298.37   10.40
   5   5   6  305.07   12.10
   5   5   6  291.97   10.10
  -5   5  -6  294.77   11.30
   5   5   6  293.87    9.10
   5   5   6  303.47   11.60
  -7  -5  -6   21.50    3.80
  -7  -5  -6   16.60    2.60
   7  -5   6   17.60    3.40
   7  -5   6   17.50    3.30
   7  -5   6   19.20    2.70
  -7  -5  -6   17.60    3.00
   7   5   6   19.20    3.40
  -7   5  -6   23.70    3.00
   7   5   6   21.00    2.80
  -7   5  -6   13.20    3.00
   7   5   6   17.80    3.40
  -7   5  -6   18.90    3.60
   9  -5   6   53.39    4.20
  -9  -5  -6   56.39    5.20
  -9  -5  -6   51.69    5.20
  -9  -5  -6   51.49    4.50
   9  -5   6   50.09    5.30
   9  -5   6   52.39    5.40
   9   5   6   57.09    5.30
   9   5   6   52.09    5.40
  -9   5  -6   55.09    5.20
  -9   5  -6   65.19    5.40
   9   5   6   48.70    4.20
  11  -5   6    0.60    2.60
  11  -5   6    6.20    2.50
 -11  -5  -6   -2.80    2.40
 -11  -5  -6    7.10    3.40
  11  -5   6    2.00    2.60
 -11  -5  -6   -0.70    2.30
 -11   5  -6   -4.70    2.10
  11   5   6   -0.20    2.50
  11   5   6   -0.40    2.60
 -11   5  -6    1.90    2.70
  11   5   6    2.20    2.50
 -11   5  -6    0.60    2.80
   8  -6  -6   50.59    4.60
  -8  -6   6   36.70    4.60
  -8  -6   6   47.80    4.90
   8  -6  -6   46.50    5.00
   8  -6  -6   45.00    5.00
  -8  -6   6   44.50    3.90
   8   6  -6   40.90    5.60
  -8   6   6   46.50    4.90
   8   6  -6   54.69    5.30
  -8   6   6   44.10    5.10
  -6  -6   6  361.46   11.90
  -6  -6   6  347.97   13.70
  -6  -6   6  366.26   13.50
   6  -6  -6  364.26   10.70
   6  -6  -6  376.16   15.10
   6  -6  -6  369.16   13.20
   6  -6  -6  373.76   14.10
  -6   6   6  380.66   13.70
   6   6  -6  369.36   13.50
  -6   6   6  384.16   13.60
  -6   6   6  362.06   14.40
   6   6  -6  363.56   15.20
  -4  -6   6   82.99    4.80
   4  -6  -6   76.79    5.40
   4  -6  -6   88.69    6.50
  -4  -6   6   85.29    5.70
   4  -6  -6   81.49    4.30
  -4  -6   6   83.99    5.50
  -4  -6   6   78.99    4.30
   4   6  -6   86.29    4.70
   4   6  -6   82.09    6.30
   4   6  -6   82.99    5.30
   4   6  -6   80.29    5.50
  -4   6   6   83.89    5.50
  -4   6   6   75.89    5.90
  -4   6   6   77.79    5.20
  -2  -6   6  602.84   17.70
  -2  -6   6  592.24   17.60
   2  -6  -6  603.24   18.60
  -2  -6   6  599.84   18.50
   2  -6  -6  578.54   20.30
   2  -6  -6  594.14   17.20
  -2  -6   6  598.84   17.70
  -2  -6   6  590.14   18.80
   2   6  -6  575.74   17.40
   2   6  -6  569.54   19.50
   2   6  -6  608.24   18.10
  -2   6   6  560.84   19.50
   2   6  -6  582.24   18.30
  -2   6   6  613.44   18.60
  -2   6   6  622.04   17.90
   0  -6   6 1277.47   33.80
   0  -6  -6 1296.67   36.70
   0  -6  -6 1258.67   34.10
   0  -6   6 1255.87   34.40
   0  -6  -6 1282.27   33.70
   0  -6   6 1257.27   34.30
   0  -6   6 1284.97   33.90
   0   6  -6 1243.08   34.90
   0   6   6 1211.18   35.70
   0   6  -6 1282.47   34.10
   0   6   6 1314.07   33.10
   0   6   6 1308.57   34.70
   0   6  -6 1275.47   33.50
   0   6  -6 1265.37   33.80
   0   6  -6 1291.07   34.20
  -2  -6  -6 1018.20   27.90
   2  -6   6 1001.30   29.00
  -2  -6  -6 1031.80   28.40
   2  -6   6 1025.70   28.50
   2  -6   6 1000.50   28.30
   2  -6   6 1013.50   27.40
  -2  -6  -6 1036.50   30.70
  -2   6  -6 1010.10   27.90
   2   6   6 1024.20   26.50
   2   6   6 1020.20   28.80
   2   6   6 1010.80   29.90
  -2   6  -6 1012.00   28.30
  -2   6  -6 1004.90   28.30
  -2   6  -6 1020.70   28.40
   4  -6   6  175.78    7.60
   4  -6   6  183.28    8.50
  -4  -6  -6  187.38    9.50
  -4  -6  -6  188.18    6.20
   4  -6   6  183.78    7.40
   4  -6   6  187.48    9.20
  -4  -6  -6  180.18    7.90
  -4  -6  -6  187.48    8.60
   4   6   6  179.48    8.60
  -4   6  -6  195.68    8.70
  -4   6  -6  172.68    7.50
   4   6   6  175.78    9.20
  -4   6  -6  172.38    8.10
   6  -6   6  673.23   19.40
  -6  -6  -6  707.83   22.70
  -6  -6  -6  670.23   20.10
   6  -6   6  671.63   22.30
  -6  -6  -6  683.73   21.50
   6  -6   6  657.13   18.40
   6  -6   6  666.13   21.50
  -6  -6  -6  677.63   18.50
   6   6   6  679.73   21.70
  -6   6  -6  674.93   21.40
   6   6   6  666.83   19.90
  -6   6  -6  659.73   19.40
  -6   6  -6  687.23   21.10
   6   6   6  674.43   22.10
  -8  -6  -6  236.48   11.30
   8  -6   6  232.58   11.10
   8  -6   6  229.08   11.50
   8  -6   6  219.68    9.00
  -8  -6  -6  231.58   11.00
  -8  -6  -6  230.78    8.90
  -8   6  -6  247.38   11.20
  -8   6  -6  240.68   10.70
   8   6   6  234.48   11.10
   8   6   6  221.68    9.30
   8   6   6  227.38   10.90
  -7  -7   6   -0.20    2.40
  -7  -7   6   -3.90    2.10
   7  -7  -6   -2.30    2.10
   7  -7  -6    0.30    2.40
  -7  -7   6   -3.00    2.40
   7  -7  -6   -1.30    2.60
  -7   7   6   -0.20    2.70
   7   7  -6   -2.10    2.40
   7   7  -6    3.30    2.50
   7   7  -6   -0.90    2.80
  -7   7   6    0.20    2.90
  -7   7   6    6.00    2.80
  -5  -7   6   92.99    6.30
   5  -7  -6   93.09    4.60
   5  -7  -6   96.79    7.30
  -5  -7   6   88.49    5.30
   5  -7  -6   95.99    6.60
  -5  -7   6   98.09    6.50
   5   7  -6   92.69    7.30
   5   7  -6   88.79    5.60
  -5   7   6   97.29    6.80
   5   7  -6   95.39    6.40
  -5   7   6  106.39    6.60
  -5   7   6  101.09    7.20
   3  -7  -6   38.40    4.90
  -3  -7   6   38.90    4.20
   3  -7  -6   41.20    3.50
   3  -7  -6   39.10    4.50
  -3  -7   6   44.80    4.30
  -3  -7   6   42.20    4.00
  -3  -7   6   44.00    3.90
  -3   7   6   37.30    4.70
   3   7  -6   42.30    4.30
  -3   7   6   46.10    4.60
   3   7  -6   35.10    4.00
   3   7  -6   43.50    4.90
  -3   7   6   38.00    3.90
   1  -7  -6    1.60    1.70
   1  -7  -6    0.60    1.90
  -1  -7   6    4.70    2.00
  -1  -7   6   -0.90    1.50
   1  -7  -6    3.50    2.50
  -1  -7   6    0.70    1.80
  -1  -7   6   -1.50    1.60
  -1  -7   6    2.80    2.10
   1   7  -6    6.60    2.20
   1   7  -6   -0.90    2.20
  -1   7   6   -1.50    2.00
  -1   7   6    5.80    2.30
  -1   7   6    2.50    2.00
   1   7  -6    3.70    2.20
   1   7  -6    4.20    2.00
   1  -7   6    4.30    2.10
  -1  -7  -6    5.70    2.20
  -1  -7  -6    9.40    3.00
   1  -7   6    3.90    2.10
   1  -7   6    8.70    2.60
  -1  -7  -6   12.30    2.70
   1  -7   6    3.50    2.10
   1  -7   6    3.20    2.10
   1  -7   6    7.50    2.30
   1  -7   6    0.70    1.70
  -1   7  -6    5.70    2.10
  -1   7  -6   11.50    2.80
   1   7   6    5.90    2.50
  -1   7  -6    9.20    2.50
  -1   7  -6    6.70    2.30
   1   7   6    7.20    2.60
  -1   7  -6    8.00    2.30
   3  -7   6    4.30    2.10
   3  -7   6    3.30    2.10
  -3  -7  -6   -1.40    1.70
   3  -7   6    0.90    2.20
   3  -7   6    4.10    2.20
   3  -7   6    5.10    2.30
  -3  -7  -6    2.40    2.60
  -3  -7  -6   -2.10    1.80
   3  -7   6   -1.00    1.40
  -3   7  -6    4.50    2.10
   3   7   6    1.20    2.20
   3   7   6   -2.40    1.50
  -3   7  -6    1.10    2.10
  -3   7  -6    5.90    2.50
   3   7   6   -0.60    2.00
   5  -7   6   56.59    4.50
  -5  -7  -6   54.39    4.80
   5  -7   6   59.49    5.30
  -5  -7  -6   64.69    6.10
   5  -7   6   65.79    5.90
  -5  -7  -6   55.69    5.20
   5  -7   6   56.99    4.70
  -5   7  -6   60.39    5.20
   5   7   6   58.49    5.40
   5   7   6   58.89    5.70
  -5   7  -6   67.69    5.40
  -5   7  -6   54.19    4.40
   7  -7   6    0.10    2.70
   7  -7   6   -0.70    2.30
  -7  -7  -6   -0.50    2.30
  -7  -7  -6    3.70    2.50
  -7  -7  -6    4.20    2.80
   7  -7   6   -0.60    2.30
   7   7   6    4.40    2.50
  -7   7  -6    2.70    2.70
   7   7   6    0.10    2.70
  -7   7  -6   -2.10    2.00
  -7   7  -6    1.10    2.70
   7   7   6    2.90    3.00
  -4  -8   6  101.29    6.10
   4  -8  -6  106.89    7.30
   4  -8  -6  118.59    8.40
  -4  -8   6  119.59    7.10
   4  -8  -6  114.59    6.60
  -4  -8   6  123.49    8.80
  -4  -8   6  108.79    7.30
   4   8  -6  113.19    8.20
   4   8  -6  121.99    7.40
  -4   8   6  114.29    8.30
  -4   8   6  125.69    7.30
  -4   8   6  119.39    7.80
   4   8  -6  110.89    7.00
   2  -8  -6  246.98   11.10
  -2  -8   6  242.08   10.60
  -2  -8   6  242.38   10.60
   2  -8  -6  249.08    9.30
  -2  -8   6  242.98   10.10
   2  -8  -6  232.38   12.20
  -2  -8   6  239.68    9.60
  -2  -8   6  237.58   10.20
  -2  -8   6  252.97   12.20
   2   8  -6  236.98   10.40
   2   8  -6  247.18   11.80
  -2   8   6  255.07   10.10
  -2   8   6  241.88   11.20
  -2   8   6  239.28   12.10
   2   8  -6  260.07   10.90
   0  -8   6  133.79    7.60
   0  -8   6  130.89    7.20
   0  -8  -6  132.79    8.70
   0  -8   6  142.99    7.10
   0  -8  -6  135.59    7.70
   0  -8   6  114.49    7.30
   0  -8   6  134.59    8.20
   0  -8  -6  135.09    6.90
   0  -8   6  116.29    6.90
   0  -8   6  138.39    7.80
   0   8   6  127.89    7.80
   0   8   6  127.89    8.50
   0   8  -6  126.69    7.50
   0   8  -6  132.09    7.50
   0   8  -6  126.49    7.90
   2  -8   6  400.46   15.30
  -2  -8  -6  393.86   14.60
  -2  -8  -6  401.66   14.30
   2  -8   6  397.76   14.20
   2  -8   6  400.76   15.00
  -2  -8  -6  391.86   16.60
   2  -8   6  395.76   14.40
   2  -8   6  392.26   13.60
   2  -8   6  402.36   15.00
   2  -8   6  391.06   14.00
  -2   8  -6  402.56   14.20
  -2   8  -6  396.76   14.30
   2   8   6  392.16   15.40
   2   8   6  387.96   15.90
  -4  -8  -6  329.17   13.10
  -4  -8  -6  324.57   14.90
  -4  -8  -6  326.07   12.90
   4  -8   6  327.27   12.90
   4  -8   6  329.37   14.20
   4  -8   6  327.47   13.60
   4  -8   6  334.97   12.50
   4  -8   6  311.67   12.30
   4  -8   6  312.77   11.60
   4   8   6  340.47   14.10
  -4   8  -6  325.07   13.00
  -4   8  -6  322.47   12.50
   4   8   6  318.87   14.20
 -12   0   7   -1.80    2.60
 -12   0   7    2.20    2.00
 -12   0   7   -1.40    2.30
  12   0  -7   -0.30    2.60
  12   0  -7   -0.80    2.60
  10   0  -7    2.30    1.70
  10   0  -7    0.80    2.10
 -10   0   7    0.60    2.00
 -10   0   7   -0.30    1.60
  10   0  -7   -0.30    2.00
 -10   0   7    1.70    1.90
 -10   0   7   -1.10    2.20
  -8   0   7   -0.40    1.50
   8   0  -7    0.40    2.00
   8   0  -7    0.70    1.20
   8   0  -7    3.10    1.90
  -8   0   7    4.40    1.90
  -8   0   7    0.00    1.30
  -6   0   7   -0.70    1.10
   6   0  -7   -0.60    1.00
   6   0  -7    3.40    1.90
   6   0  -7   -1.70    1.20
  -6   0   7    2.30    1.50
  -6   0   7    1.00    1.50
  -4   0   7    3.90    1.50
   4   0  -7    0.90    1.20
   4   0  -7   -0.40    1.20
  -4   0   7    1.00    1.20
   4   0  -7    2.30    1.10
  -4   0   7    0.80    1.20
  -2   0   7    1.50    1.20
   2   0  -7    1.20    1.10
  -2   0   7    0.20    1.20
  -2   0   7    0.10    1.10
   2   0  -7    0.70    0.80
   2   0  -7    3.90    1.30
   2   0  -7   -1.10    1.20
   0   0   7    3.70    1.40
   0   0  -7   -0.10    1.00
   0   0   7    3.90    1.40
   0   0  -7    2.00    1.30
   0   0  -7    1.40    1.00
  -2   0  -7    0.50    1.10
   2   0   7    1.10    1.20
  -2   0  -7    1.40    1.10
   2   0   7   -0.20    1.00
   2   0   7    0.10    0.80
  -2   0  -7    2.50    1.20
   4   0   7    3.90    1.60
   4   0   7    2.40    1.20
   4   0   7    1.40    1.30
  -4   0  -7    0.60    1.20
  -4   0  -7    2.30    1.30
  -4   0  -7    1.60    1.20
   6   0   7   -0.10    1.30
   6   0   7    1.40    1.50
   6   0   7    2.00    1.50
  -6   0  -7    0.70    1.30
  -6   0  -7   -0.20    1.30
  -6   0  -7   -1.50    1.20
   8   0   7   -0.70    1.30
  -8   0  -7    0.80    1.60
  -8   0  -7    0.00    1.60
   8   0   7   -0.70    1.50
  -8   0  -7   -3.30    1.40
   8   0   7    0.00    1.60
  10   0   7   -2.80    1.50
 -10   0  -7    2.10    2.20
  10   0   7    0.60    2.20
 -10   0  -7    9.90    2.80
 -10   0  -7    2.00    2.30
  10   0   7    1.30    2.10
 -12   0  -7   -0.30    2.40
  12   0   7   -3.10    2.50
 -12   0  -7    1.80    2.80
 -12   0  -7    4.00    2.70
  12   0   7    4.00    2.60
  12   0   7    3.50    2.10
  11  -1  -7  197.78    8.10
 -11  -1   7  203.38    9.90
 -11  -1   7  207.38    9.40
  11  -1  -7  195.78   10.40
  11  -1  -7  211.08   10.10
 -11  -1   7  206.68    9.40
  11   1  -7  208.18    9.90
  11   1  -7  206.58    8.70
  11   1  -7  213.68   11.00
 -11   1   7  207.78    8.60
 -11   1   7  200.48    9.50
 -11   1   7  211.58    8.20
 -11   1   7  205.38    9.80
   9  -1  -7  397.06   14.30
  -9  -1   7  403.16   14.40
   9  -1  -7  408.26   12.80
  -9  -1   7  396.46   14.00
   9  -1  -7  408.26   15.70
   9   1  -7  391.96   14.30
  -9   1   7  405.16   12.70
  -9   1   7  394.16   14.30
   9   1  -7  410.16   15.90
   9   1  -7  404.56   13.40
  -9   1   7  406.46   14.00
   7  -1  -7  545.15   16.00
  -7  -1   7  524.55   16.80
   7  -1  -7  550.64   18.80
   7  -1  -7  554.94   17.00
  -7  -1   7  515.85   17.00
  -7  -1   7  537.45   14.60
  -7   1   7  546.25   16.70
  -7   1   7  532.85   16.00
   7   1  -7  567.64   16.70
   7   1  -7  549.54   19.00
  -7   1   7  528.65   17.20
   7   1  -7  544.45   16.80
   5  -1  -7  640.44   20.80
  -5  -1   7  664.23   17.70
   5  -1  -7  657.33   18.40
  -5  -1   7  639.04   19.00
   5  -1  -7  637.84   18.50
  -5  -1   7  643.04   19.10
  -5   1   7  619.14   19.00
  -5   1   7  646.84   18.60
   5   1  -7  650.23   18.30
   5   1  -7  635.94   18.70
  -5   1   7  656.63   18.60
   5   1  -7  643.04   20.80
  -3  -1   7  393.76   12.80
   3  -1  -7  398.66   11.80
  -3  -1   7  395.16   12.90
   3  -1  -7  400.46   12.50
   3  -1  -7  389.26   14.00
  -3  -1   7  395.36   12.20
   3   1  -7  403.06   11.50
   3   1  -7  399.46   14.30
  -3   1   7  389.46   12.70
  -3   1   7  380.06   12.80
  -3   1   7  383.86   12.40
   3   1  -7  395.66   12.70
  -1  -1   7  642.74   18.30
   1  -1  -7  632.44   18.30
  -1  -1   7  635.14   18.30
   1  -1  -7  651.23   17.70
   1  -1  -7  629.74   19.60
   1  -1  -7  626.54   16.40
   1   1  -7  616.24   16.10
   1   1  -7  618.34   18.40
  -1   1   7  665.63   18.10
  -1   1   7  642.54   18.40
  -1   1   7  621.74   18.60
  -1   1   7  627.34   16.40
   1   1  -7  628.94   19.40
   1   1  -7  622.34   18.10
  -1  -1  -7  416.36   13.30
  -1  -1  -7  416.96   14.00
   1  -1   7  402.56   11.20
   1  -1   7  399.86   11.20
   1  -1   7  416.56   13.20
  -1  -1  -7  405.36   11.80
   1  -1   7  416.56   13.50
  -1  -1  -7  418.56   12.70
  -1   1  -7  405.26   13.60
  -1   1  -7  419.86   13.10
   1   1   7  420.76   13.80
   1   1   7  414.16   11.50
   1   1   7  413.96   12.90
  -1   1  -7  415.56   13.30
   3  -1   7  524.75   14.90
  -3  -1  -7  534.65   15.70
   3  -1   7  517.05   16.70
  -3  -1  -7  537.85   16.30
   3  -1   7  517.65   15.90
  -3  -1  -7  519.85   16.20
   3   1   7  530.15   15.00
  -3   1  -7  512.95   16.00
  -3   1  -7  509.05   15.60
   3   1   7  532.15   15.60
  -3   1  -7  516.05   16.00
   3   1   7  525.05   16.90
  -5  -1  -7  691.13   20.30
   5  -1   7  674.73   19.80
  -5  -1  -7  662.93   19.70
   5  -1   7  655.33   20.90
  -5  -1  -7  672.23   19.50
   5  -1   7  717.93   19.80
  -5   1  -7  671.33   18.60
  -5   1  -7  667.63   20.10
   5   1   7  676.33   21.10
   5   1   7  681.53   19.50
  -5   1  -7  679.83   20.10
  -5   1  -7  671.03   19.90
   5   1   7  676.83   19.30
   7  -1   7  945.21   26.80
  -7  -1  -7  959.20   26.90
   7  -1   7  939.11   26.40
   7  -1   7  907.31   27.90
  -7  -1  -7  945.21   26.50
  -7  -1  -7  934.41   25.20
  -7   1  -7  929.31   26.90
   7   1   7  969.10   25.90
  -7   1  -7  927.11   26.40
   7   1   7  934.11   27.70
  -7   1  -7  918.51   26.40
   7   1   7  960.00   26.70
  -9  -1  -7  523.65   17.20
   9  -1   7  489.65   18.30
  -9  -1  -7  522.35   17.30
  -9  -1  -7  533.15   16.40
   9  -1   7  504.75   17.60
  -9   1  -7  520.35   17.10
   9   1   7  529.35   16.20
  -9   1  -7  516.35   17.60
  -9   1  -7  509.45   16.70
   9   1   7  517.65   17.60
   9   1   7  492.65   18.00
 -11  -1  -7  417.76   15.30
  11  -1   7  422.06   16.60
 -11  -1  -7  426.96   14.50
 -11  -1  -7  417.66   15.70
  11  -1   7  430.16   16.30
  11   1   7  405.26   16.00
 -11   1  -7  412.36   15.20
 -11   1  -7  426.16   16.00
 -11   1  -7  423.66   14.90
  11   1   7  406.66   16.20
  11   1   7  416.86   14.20
 -12  -2   7    6.60    2.70
 -12  -2   7    1.60    2.70
  12  -2  -7    3.70    3.00
 -12  -2   7    6.80    3.20
  12   2  -7   10.50    3.50
 -12   2   7    2.20    2.60
  12   2  -7    6.60    3.20
 -12   2   7    5.60    2.90
 -12   2   7    4.70    2.30
 -12   2   7    3.90    2.80
 -10  -2   7    0.50    2.30
  10  -2  -7    3.80    1.70
  10  -2  -7    6.60    2.60
 -10  -2   7    9.90    2.90
  10  -2  -7    4.30    2.70
 -10  -2   7    4.30    2.20
 -10   2   7    5.10    2.40
  10   2  -7    5.20    2.80
  10   2  -7    6.90    3.00
  10   2  -7    4.40    2.10
 -10   2   7   10.80    2.70
 -10   2   7    7.30    2.30
  -8  -2   7   10.00    2.60
   8  -2  -7   12.70    2.50
  -8  -2   7    6.10    2.10
   8  -2  -7   11.20    2.90
   8  -2  -7    7.90    1.80
  -8   2   7   10.10    2.40
  -8   2   7   11.50    2.30
  -8   2   7    7.70    2.40
   8   2  -7   11.50    3.00
   8   2  -7    6.50    2.10
   8   2  -7    8.70    2.20
  -6  -2   7    3.90    1.30
   6  -2  -7    5.00    1.50
   6  -2  -7    4.40    1.80
  -6  -2   7    4.20    1.70
  -6  -2   7    5.00    1.80
   6  -2  -7    5.90    2.10
  -6  -2   7    4.50    1.80
   6   2  -7    3.90    1.90
   6   2  -7    6.20    1.70
  -6   2   7    5.80    1.80
  -6   2   7    5.50    1.90
  -6   2   7    7.30    1.90
   6   2  -7    9.20    2.00
  -4  -2   7    4.60    1.40
   4  -2  -7    7.20    1.70
   4  -2  -7    8.70    2.30
  -4  -2   7    4.90    1.70
   4  -2  -7    7.10    1.60
  -4  -2   7    4.50    1.80
   4   2  -7    8.00    1.90
  -4   2   7    6.30    1.60
  -4   2   7    5.70    1.60
  -4   2   7    8.40    2.00
   4   2  -7    8.40    1.60
   4   2  -7   11.20    2.70
  -2  -2   7  103.09    5.50
   2  -2  -7  111.29    5.20
  -2  -2   7  101.09    5.30
   2  -2  -7  107.99    4.70
  -2  -2   7  103.09    5.00
   2  -2  -7   98.99    3.90
   2  -2  -7  115.89    6.40
  -2   2   7  101.69    5.60
  -2   2   7  100.99    3.90
   2   2  -7  106.39    5.40
   2   2  -7  102.69    6.00
  -2   2   7  110.29    5.00
   2   2  -7  108.19    4.30
  -2   2   7  101.59    5.20
   2   2  -7   96.39    5.20
   0  -2  -7    2.70    1.20
   0  -2  -7    3.50    1.90
   0  -2   7    2.70    1.50
   0  -2   7    3.80    0.90
   0  -2  -7    6.30    1.50
   0  -2   7    3.70    1.40
   0  -2  -7    4.50    1.20
   0  -2  -7    4.40    1.20
   0  -2  -7    4.40    1.60
   0   2  -7    2.50    1.20
   0   2  -7    3.80    1.50
   0   2  -7    1.20    1.50
   0   2   7    4.60    1.20
   0   2   7    3.40    1.40
   0   2   7    4.50    1.50
  -2  -2  -7   49.30    3.70
  -2  -2  -7   52.89    4.20
  -2  -2  -7   52.09    3.30
   2  -2   7   52.69    4.00
   2  -2   7   48.20    3.70
   2  -2   7   51.49    3.00
   2   2   7   54.29    3.30
   2   2   7   50.99    4.00
  -2   2  -7   45.60    3.60
   2   2   7   55.19    3.60
  -2   2  -7   53.89    3.80
  -2   2  -7   50.29    3.60
  -4  -2  -7   59.69    4.20
   4  -2   7   58.69    4.50
  -4  -2  -7   63.29    4.50
  -4  -2  -7   61.69    3.90
   4  -2   7   58.09    3.80
   4  -2   7   66.79    4.40
   4   2   7   59.99    3.80
   4   2   7   60.09    4.70
   4   2   7   58.99    3.70
  -4   2  -7   63.79    4.50
  -4   2  -7   55.79    3.50
  -4   2  -7   61.69    4.20
  -4   2  -7   55.49    4.00
   6  -2   7   36.20    3.50
  -6  -2  -7   35.70    3.40
   6  -2   7   36.60    3.50
   6  -2   7   35.60    4.00
  -6  -2  -7   42.10    3.60
  -6  -2  -7   34.00    3.60
   6   2   7   41.30    3.70
  -6   2  -7   37.10    3.50
  -6   2  -7   39.10    3.70
  -6   2  -7   32.80    3.40
   6   2   7   38.80    3.20
   6   2   7   30.30    3.60
   8  -2   7   52.49    4.60
  -8  -2  -7   47.70    4.00
   8  -2   7   47.80    4.80
  -8  -2  -7   57.79    4.50
  -8  -2  -7   50.29    4.40
  -8   2  -7   49.20    4.60
   8   2   7   55.19    3.80
  -8   2  -7   39.10    4.00
   8   2   7   47.30    4.70
  -8   2  -7   52.79    4.50
   8   2   7   43.70    4.30
 -10  -2  -7   14.10    3.10
 -10  -2  -7    9.50    3.00
  10  -2   7   10.00    2.90
  10  -2   7   12.10    3.10
  10   2   7   11.90    3.20
  10   2   7   13.30    3.30
 -10   2  -7   14.80    3.20
 -10   2  -7   11.60    2.80
 -10   2  -7   11.80    3.00
  10   2   7   14.40    2.80
 -12  -2  -7   13.30    3.40
  12  -2   7   14.30    3.80
  12  -2   7   13.00    3.80
 -12  -2  -7   15.10    3.70
  12   2   7   13.60    3.80
 -12   2  -7    9.00    3.40
 -12   2  -7   13.10    3.40
 -12   2  -7   11.80    3.30
  12   2   7   14.90    3.80
  12   2   7   11.80    2.90
 -11  -3   7  249.38   10.30
  11  -3  -7  230.98   11.10
 -11  -3   7  236.98   11.40
  11  -3  -7  251.27    8.70
  11  -3  -7  234.38   11.80
 -11  -3   7  250.27   11.10
  11   3  -7  252.87   11.50
 -11   3   7  252.77   11.50
 -11   3   7  254.57   10.80
  11   3  -7  250.27   12.50
 -11   3   7  267.57   10.80
   9  -3  -7  367.46   11.30
  -9  -3   7  355.06   13.70
   9  -3  -7  363.46   13.80
  -9  -3   7  349.07   13.50
  -9  -3   7  384.46   13.00
   9  -3  -7  355.66   14.60
  -9   3   7  376.86   13.20
   9   3  -7  364.96   15.20
  -9   3   7  362.56   12.60
   9   3  -7  359.26   13.10
  -9   3   7  345.27   13.60
   9   3  -7  356.56   13.40
   7  -3  -7  318.97   10.20
  -7  -3   7  307.87   11.90
   7  -3  -7  322.77   13.30
  -7  -3   7  324.97   11.40
   7  -3  -7  306.07   11.70
   7   3  -7  308.57   11.40
  -7   3   7  323.97   10.80
  -7   3   7  325.27   11.80
  -7   3   7  282.47   11.60
   7   3  -7  302.87   13.20
   7   3  -7  310.27   11.50
  -5  -3   7  493.65   13.50
  -5  -3   7  496.55   15.40
   5  -3  -7  486.45   17.30
   5  -3  -7  482.45   15.50
   5  -3  -7  483.65   13.70
  -5  -3   7  485.35   16.00
  -5  -3   7  475.65   13.80
   5  -3  -7  510.75   14.60
   5   3  -7  492.55   15.00
  -5   3   7  490.95   16.00
  -5   3   7  515.05   14.70
   5   3  -7  499.05   15.80
  -5   3   7  490.45   15.90
   5   3  -7  484.25   17.30
  -3  -3   7  625.14   17.60
   3  -3  -7  644.04   18.10
   3  -3  -7  627.14   18.20
   3  -3  -7  635.44   20.50
  -3  -3   7  624.84   18.60
  -3  -3   7  634.24   19.20
  -3   3   7  628.34   18.70
  -3   3   7  637.34   19.40
   3   3  -7  634.14   17.60
  -3   3   7  634.24   17.10
   3   3  -7  626.14   20.20
  -3   3   7  647.04   17.50
   3   3  -7  639.64   19.00
   1  -3  -7  539.75   18.00
   1  -3  -7  549.05   16.20
   1  -3  -7  561.24   15.10
  -1  -3   7  528.75   16.30
  -1  -3   7  529.65   16.80
  -1  -3   7  521.55   13.80
  -1  -3   7  549.95   16.20
   1  -3  -7  535.05   15.30
   1   3  -7  555.04   17.50
  -1   3   7  556.84   16.30
  -1   3   7  529.35   17.10
   1   3  -7  520.85   16.40
   1   3  -7  543.45   14.70
   1   3  -7  514.05   16.30
  -1   3   7  553.74   15.10
  -1   3   7  544.45   15.20
  -1  -3  -7  822.42   24.50
   1  -3   7  794.62   21.40
  -1  -3  -7  801.32   21.10
  -1  -3  -7  842.42   21.60
   1  -3   7  810.62   23.00
   1  -3   7  819.72   23.40
  -1  -3  -7  798.32   22.90
  -1   3  -7  806.62   20.40
  -1   3  -7  797.62   23.00
   1   3   7  842.62   21.90
  -1   3  -7  787.22   22.90
   1   3   7  811.62   23.90
   1   3   7  836.52   22.40
  -1   3  -7  805.02   23.00
  -3  -3  -7 1141.09   28.80
   3  -3   7 1105.29   30.80
   3  -3   7 1115.79   30.20
  -3  -3  -7 1116.09   27.40
  -3  -3  -7 1081.09   27.20
   3  -3   7 1057.09   28.90
  -3  -3  -7 1111.09   30.30
  -3  -3  -7 1147.29   31.20
  -3   3  -7 1098.29   29.90
  -3   3  -7 1089.89   29.10
   3   3   7 1057.89   30.90
   3   3   7 1109.79   29.20
  -3   3  -7 1103.59   30.20
   3   3   7 1130.29   29.00
  -3   3  -7 1101.89   30.20
  -5  -3  -7  557.54   17.80
  -5  -3  -7  576.64   16.60
   5  -3   7  555.24   17.20
   5  -3   7  556.64   18.50
   5  -3   7  530.15   17.40
  -5  -3  -7  570.64   17.90
  -5   3  -7  563.14   17.90
   5   3   7  559.74   17.20
  -5   3  -7  558.84   17.20
   5   3   7  550.54   18.50
  -5   3  -7  520.95   15.20
  -5   3  -7  554.04   17.60
   5   3   7  568.24   16.20
  -7  -3  -7  333.37   11.60
   7  -3   7  310.37   13.00
   7  -3   7  322.97   12.30
  -7  -3  -7  321.77   12.40
  -7  -3  -7  329.57   12.10
  -7   3  -7  326.57   11.70
   7   3   7  326.87   13.30
  -7   3  -7  333.27   12.60
   7   3   7  327.67   10.70
   7   3   7  329.87   12.30
  -7   3  -7  321.97   12.50
   9  -3   7  322.57   13.00
  -9  -3  -7  322.37   12.10
   9  -3   7  318.47   13.70
  -9  -3  -7  310.27   11.70
  -9  -3  -7  326.67   12.90
  -9   3  -7  320.67   12.80
   9   3   7  331.87   13.60
  -9   3  -7  324.97   12.90
  -9   3  -7  310.07   11.60
   9   3   7  319.57   12.90
   9   3   7  297.47    9.50
   9   3   7  317.37   10.70
  11  -3   7  210.98   11.30
 -11  -3  -7  208.78   10.40
  11  -3   7  213.88   10.80
 -11  -3  -7  216.68   10.20
 -11   3  -7  216.58    9.40
 -11   3  -7  216.38   10.40
  11   3   7  211.18   11.00
  11   3   7  215.28   11.00
 -11   3  -7  219.68   10.70
  10  -4  -7    0.50    2.10
 -10  -4   7    4.50    2.60
  10  -4  -7    0.50    1.70
 -10  -4   7    4.40    2.50
  10  -4  -7    2.30    2.50
 -10  -4   7   -1.00    2.00
  10  -4  -7    3.00    2.70
 -10   4   7    3.00    2.80
  10   4  -7    2.00    2.60
 -10   4   7    0.20    2.50
  10   4  -7    1.00    2.50
   8  -4  -7    1.40    2.10
   8  -4  -7    0.00    2.20
  -8  -4   7    2.40    2.00
  -8  -4   7    1.80    1.90
   8  -4  -7    2.30    1.40
   8  -4  -7   -1.10    1.40
  -8  -4   7    3.60    2.30
  -8   4   7    5.70    2.30
  -8   4   7    5.70    2.50
   8   4  -7    0.40    1.70
   8   4  -7    3.80    2.40
  -8   4   7    0.90    1.90
   8   4  -7    2.30    2.20
   6  -4  -7   95.59    4.60
   6  -4  -7   96.99    6.70
   6  -4  -7   89.09    5.80
  -6  -4   7   90.39    6.00
  -6  -4   7   92.79    5.30
   6  -4  -7   93.99    4.80
  -6   4   7   96.69    5.90
   6   4  -7   93.79    5.70
  -6   4   7   95.29    6.10
  -6   4   7   94.59    4.80
   6   4  -7   87.49    5.40
   6   4  -7   97.69    6.90
  -4  -4   7   21.30    2.90
  -4  -4   7   17.30    3.10
   4  -4  -7   23.50    2.50
   4  -4  -7   17.60    3.50
  -4  -4   7   24.70    2.50
   4  -4  -7   21.10    2.80
  -4   4   7   18.40    3.20
  -4   4   7   24.00    2.40
   4   4  -7   13.90    2.60
  -4   4   7   20.00    2.60
   4   4  -7   17.00    3.40
   4   4  -7   20.40    2.70
  -4   4   7   19.00    2.80
   2  -4  -7    2.40    1.80
  -2  -4   7    0.30    1.60
   2  -4  -7    4.40    1.40
  -2  -4   7   -2.10    1.30
  -2  -4   7    1.50    1.10
   2  -4  -7    1.90    1.40
  -2  -4   7    2.60    1.40
  -2  -4   7   -1.30    1.30
  -2   4   7   -0.50    1.40
  -2   4   7    1.10    1.30
   2   4  -7    3.80    1.50
   2   4  -7    0.80    1.30
   2   4  -7    1.30    1.60
  -2   4   7    1.20    1.30
   2   4  -7    1.80    1.40
  -2   4   7    3.70    1.30
   0  -4  -7   19.00    2.50
   0  -4  -7   23.00    3.40
   0  -4  -7   27.20    3.00
   0  -4   7   23.90    3.00
   0  -4   7   19.00    2.30
   0  -4   7   23.20    2.90
   0  -4  -7   26.80    2.30
   0   4  -7   25.80    3.10
   0   4   7   28.40    2.30
   0   4   7   24.80    3.10
   0   4   7   24.10    2.70
   0   4  -7   26.30    2.40
   0   4   7   27.70    2.70
   0   4  -7   27.20    3.10
   0   4  -7   27.30    3.00
  -2  -4  -7   14.10    3.00
   2  -4   7    8.30    1.60
  -2  -4  -7   10.70    1.80
   2  -4   7   13.40    2.70
   2  -4   7   11.60    2.20
   2  -4   7   14.70    2.50
  -2  -4  -7   11.70    2.40
  -2  -4  -7   13.00    2.00
   2   4   7   14.10    2.20
  -2   4  -7   10.70    2.30
   2   4   7   13.40    2.40
  -2   4  -7   11.10    2.30
  -2   4  -7   12.60    2.30
   2   4   7   12.40    2.70
   4  -4   7   32.90    2.80
   4  -4   7   41.70    3.90
  -4  -4  -7   48.20    3.10
   4  -4   7   49.10    4.40
  -4  -4  -7   38.30    3.30
  -4  -4  -7   41.10    4.30
  -4  -4  -7   45.60    4.00
   4  -4   7   44.60    3.80
   4  -4   7   40.10    2.50
   4   4   7   41.50    3.70
  -4   4  -7   49.60    4.00
   4   4   7   43.00    3.20
  -4   4  -7   46.40    4.00
  -4   4  -7   43.40    3.30
   4   4   7   38.60    4.10
  -4   4  -7   45.60    4.10
  -6  -4  -7   -0.20    1.70
   6  -4   7    2.00    1.90
  -6  -4  -7   -0.10    1.60
   6  -4   7    3.10    1.90
  -6  -4  -7    4.30    2.00
  -6  -4  -7    1.50    1.20
  -6   4  -7    0.50    1.60
   6   4   7    2.40    1.90
  -6   4  -7    4.50    2.10
  -6   4  -7    2.10    2.00
   6   4   7    4.90    1.70
   6   4   7    4.70    2.00
  -8  -4  -7    4.40    2.30
   8  -4   7   -0.90    2.00
  -8  -4  -7   -2.40    1.70
   8  -4   7    0.70    2.10
  -8  -4  -7   -2.70    2.10
  -8  -4  -7   -0.10    1.50
   8   4   7    3.40    2.50
   8   4   7    2.30    1.70
  -8   4  -7    3.30    2.10
  -8   4  -7    3.40    2.20
   8   4   7   -3.10    2.00
   8   4   7   -0.10    1.50
  -8   4  -7   -1.00    2.00
 -10  -4  -7    1.40    2.60
 -10  -4  -7    1.50    2.30
  10  -4   7   -1.90    2.10
 -10  -4  -7   -1.40    2.50
  10  -4   7   -1.90    2.40
  10   4   7   -3.50    1.80
  10   4   7    1.10    2.00
  10   4   7   -2.40    2.20
 -10   4  -7    3.10    2.80
  10   4   7    2.60    2.70
 -10   4  -7   -1.50    2.50
 -10   4  -7    0.70    2.60
  -9  -5   7   97.09    5.90
  -9  -5   7   91.49    6.70
   9  -5  -7  100.49    7.40
   9  -5  -7  102.39    6.90
  -9  -5   7   86.79    6.70
   9   5  -7   93.29    7.90
   9   5  -7   93.29    6.70
  -9   5   7   98.59    6.90
  -9   5   7   88.19    6.80
  -7  -5   7  211.48   10.40
   7  -5  -7  207.28    8.80
   7  -5  -7  237.38    7.90
   7  -5  -7  222.08   11.20
   7  -5  -7  232.08   10.40
  -7  -5   7  237.78   10.40
  -7  -5   7  234.08    9.10
  -7   5   7  229.38   10.70
  -7   5   7  228.68   10.20
   7   5  -7  233.48   10.10
   7   5  -7  239.38   11.80
   7   5  -7  226.98    9.80
   5  -5  -7  366.66   15.00
   5  -5  -7  370.36   13.40
  -5  -5   7  366.96   10.70
  -5  -5   7  381.66   12.70
  -5  -5   7  384.66   13.90
   5  -5  -7  378.96   11.60
  -5  -5   7  355.56   11.00
   5  -5  -7  362.56   12.30
  -5  -5   7  364.36   14.00
  -5   5   7  367.26   14.20
  -5   5   7  380.36   13.50
   5   5  -7  366.86   12.80
  -5   5   7  397.46   12.80
   5   5  -7  354.06   13.30
   5   5  -7  367.86   15.00
  -3  -5   7  839.02   22.80
  -3  -5   7  882.31   25.50
  -3  -5   7  873.21   24.40
   3  -5  -7  872.51   27.40
  -3  -5   7  865.31   23.50
   3  -5  -7  862.61   24.80
   3  -5  -7  899.61   23.90
  -3   5   7  856.41   26.20
  -3   5   7  867.81   24.70
   3   5  -7  877.41   24.10
  -3   5   7  888.11   24.20
   3   5  -7  855.81   25.20
   3   5  -7  858.01   26.50
  -1  -5   7  836.82   24.60
   1  -5  -7  876.91   24.00
   1  -5  -7  845.82   23.80
  -1  -5   7  851.81   24.00
  -1  -5   7  836.42   22.80
  -1  -5   7  859.51   24.20
   1  -5  -7  898.71   27.00
   1   5  -7  840.52   24.50
  -1   5   7  834.92   25.70
   1   5  -7  858.31   24.60
  -1   5   7  867.21   23.90
   1   5  -7  825.52   25.30
   1   5  -7  837.52   23.10
  -1   5   7  839.02   23.80
   1  -5   7  681.83   19.90
  -1  -5  -7  697.73   20.00
   1  -5   7  697.43   21.00
   1  -5   7  692.93   21.20
  -1  -5  -7  698.73   20.80
  -1  -5  -7  698.23   22.90
  -1  -5  -7  714.23   18.30
   1  -5   7  711.33   19.50
  -1   5  -7  710.93   21.20
  -1   5  -7  678.03   21.10
   1   5   7  706.83   22.50
   1   5   7  734.43   20.00
   1   5   7  718.83   20.80
  -1   5  -7  702.93   19.30
  -1   5  -7  712.43   21.00
   3  -5   7  451.25   15.20
  -3  -5  -7  432.26   14.90
  -3  -5  -7  450.85   13.70
  -3  -5  -7  450.45   16.50
  -3  -5  -7  435.46   12.60
   3  -5   7  452.55   14.60
   3  -5   7  453.05   15.80
   3  -5   7  448.06   13.00
  -3   5  -7  425.16   14.10
   3   5   7  465.75   13.60
  -3   5  -7  460.45   14.70
   3   5   7  436.56   16.00
   3   5   7  447.16   14.90
  -3   5  -7  430.56   15.00
  -3   5  -7  429.86   15.00
   5  -5   7  446.76   13.30
  -5  -5  -7  410.26   13.30
  -5  -5  -7  449.86   15.60
   5  -5   7  435.26   12.70
   5  -5   7  445.56   16.30
  -5  -5  -7  451.05   13.30
   5  -5   7  444.66   15.50
   5  -5   7  441.56   15.20
  -5  -5  -7  442.26   16.20
  -5   5  -7  449.76   15.60
   5   5   7  377.56   12.70
   5   5   7  439.56   15.30
   5   5   7  443.96   16.30
  -5   5  -7  440.76   14.40
  -5   5  -7  446.66   15.40
   7  -5   7  244.88    8.40
   7  -5   7  258.37   11.10
   7  -5   7  243.18   11.60
  -7  -5  -7  236.78   10.90
  -7  -5  -7  244.48   11.10
  -7  -5  -7  249.18    9.40
   7   5   7  249.78    9.10
  -7   5  -7  249.38   11.10
   7   5   7  255.47   11.00
  -7   5  -7  230.28    9.50
   7   5   7  262.77   11.80
  -7   5  -7  257.47   11.00
  -9  -5  -7  215.68   10.60
   9  -5   7  212.58   11.30
  -9  -5  -7  225.88   10.60
  -9  -5  -7  226.78    9.50
   9  -5   7  214.48   10.60
   9   5   7  221.48    8.60
   9   5   7  205.58   10.90
   9   5   7  223.58   10.90
  -9   5  -7  213.68   10.50
  -9   5  -7  221.48   10.70
   8  -6  -7   19.10    4.40
   8  -6  -7   19.70    3.50
   8  -6  -7   25.70    4.30
  -8  -6   7   14.30    3.80
  -8  -6   7   17.50    4.00
  -8  -6   7   15.90    3.10
  -8   6   7   18.40    4.00
  -8   6   7   20.00    4.30
   8   6  -7   30.50    5.10
   8   6  -7   17.80    3.90
  -6  -6   7   12.10    3.40
   6  -6  -7   15.20    3.40
   6  -6  -7   21.50    4.30
   6  -6  -7   12.20    2.80
  -6  -6   7   18.10    2.90
   6  -6  -7   18.10    2.60
  -6  -6   7   17.40    3.50
  -6   6   7   19.40    3.90
   6   6  -7   14.00    3.30
   6   6  -7   10.20    2.80
   6   6  -7   17.00    3.80
  -6   6   7   21.00    3.70
  -6   6   7   17.30    3.60
  -4  -6   7   -0.40    1.80
   4  -6  -7    4.40    1.80
  -4  -6   7    3.00    2.10
  -4  -6   7    0.70    2.00
  -4  -6   7    3.20    2.10
   4  -6  -7    0.30    2.00
   4  -6  -7    0.20    2.00
  -4  -6   7    2.70    1.90
   4   6  -7    3.10    2.00
  -4   6   7    0.70    2.10
  -4   6   7    1.10    2.10
   4   6  -7    2.10    2.60
   4   6  -7    6.70    2.30
  -4   6   7    4.60    2.50
  -2  -6   7    1.40    1.60
  -2  -6   7    2.20    2.00
   2  -6  -7    3.20    2.10
   2  -6  -7    3.10    2.40
  -2  -6   7    1.60    1.90
   2  -6  -7   -0.80    1.70
  -2  -6   7    2.80    1.80
  -2   6   7    0.90    2.00
  -2   6   7   -0.80    1.90
   2   6  -7    2.80    2.00
   2   6  -7    1.50    2.40
  -2   6   7    2.20    2.10
   2   6  -7    0.90    1.90
   0  -6   7    3.40    1.90
   0  -6  -7    6.50    2.20
   0  -6   7    5.10    2.30
   0  -6   7    3.50    2.20
   0  -6  -7    2.10    2.20
   0  -6  -7    2.50    1.80
   0  -6   7    3.30    1.90
   0  -6   7    5.30    2.00
   0   6  -7    7.70    2.70
   0   6  -7    1.50    2.00
   0   6  -7    7.80    2.20
   0   6   7    4.20    2.30
   0   6  -7    3.60    1.90
   0   6   7    3.50    2.20
  -2  -6  -7   12.70    2.60
   2  -6   7   12.40    2.90
  -2  -6  -7   10.80    3.10
   2  -6   7   14.60    2.90
   2  -6   7   16.30    3.20
   2  -6   7   14.50    2.50
  -2  -6  -7   24.10    3.40
  -2   6  -7   18.20    3.30
  -2   6  -7   10.70    2.70
  -2   6  -7   13.60    2.90
   2   6   7   15.40    3.10
   2   6   7   12.80    2.30
   2   6   7   16.50    3.40
  -2   6  -7   16.00    3.00
  -4  -6  -7    2.90    2.50
   4  -6   7    2.50    2.40
  -4  -6  -7    6.00    2.30
  -4  -6  -7    5.70    1.70
  -4  -6  -7    3.20    1.80
   4  -6   7   -0.40    1.70
   4  -6   7    4.50    2.00
   4  -6   7    4.20    2.50
   4  -6   7    6.60    2.40
  -4   6  -7    4.40    2.30
   4   6   7    7.50    3.00
   4   6   7    1.10    2.20
  -4   6  -7    6.00    2.60
  -4   6  -7   -0.80    2.10
  -4   6  -7    4.80    2.10
   6  -6   7    6.30    2.80
   6  -6   7    9.80    2.40
  -6  -6  -7    2.40    2.30
   6  -6   7    0.80    3.40
   6  -6   7    8.80    3.00
  -6  -6  -7    7.50    3.20
  -6  -6  -7    2.40    2.00
  -6  -6  -7    6.50    2.30
  -6   6  -7    6.20    2.50
  -6   6  -7    2.60    2.70
  -6   6  -7    9.80    2.90
   6   6   7    8.40    2.90
   6   6   7   11.40    2.90
  -8  -6  -7    3.20    2.70
  -8  -6  -7    4.30    3.20
  -8  -6  -7    2.50    2.20
   8  -6   7    9.80    3.20
  -8  -6  -7    3.60    2.70
   8  -6   7    5.00    2.60
   8  -6   7    3.00    2.90
   8   6   7    9.40    3.30
  -8   6  -7    2.00    2.70
   8   6   7    5.00    2.60
   8   6   7   -1.30    2.70
  -8   6  -7    2.90    2.90
   5  -7  -7  175.28    9.20
   5  -7  -7  173.58   10.40
   5  -7  -7  166.58    6.80
  -5  -7   7  161.38    9.10
  -5  -7   7  175.68    8.00
  -5  -7   7  174.28    9.10
  -5   7   7  179.08    9.20
  -5   7   7  168.18    9.80
  -5   7   7  168.88    8.70
   5   7  -7  178.28    8.80
   5   7  -7  187.08   10.60
  -3  -7   7  229.58   10.60
   3  -7  -7  221.88   11.80
   3  -7  -7  229.98    8.70
  -3  -7   7  219.08    9.20
  -3  -7   7  220.48   10.10
  -3  -7   7  230.88    9.10
   3  -7  -7  226.58   10.30
  -3  -7   7  235.38    9.40
  -3   7   7  234.68    9.90
   3   7  -7  231.98    9.90
   3   7  -7  218.18   10.10
  -3   7   7  214.18   11.10
   3   7  -7  233.48   11.40
  -3   7   7  233.38   10.40
  -1  -7   7  384.46   14.40
  -1  -7   7  393.36   13.50
   1  -7  -7  374.46   13.10
   1  -7  -7  389.86   14.20
   1  -7  -7  390.36   16.50
  -1  -7   7  397.86   13.70
  -1  -7   7  404.56   14.00
  -1  -7   7  390.86   14.50
  -1   7   7  410.36   13.50
   1   7  -7  388.26   13.60
  -1   7   7  422.06   14.80
   1   7  -7  387.06   15.20
  -1   7   7  367.36   15.60
   1   7  -7  390.66   14.20
  -1  -7  -7  606.74   21.90
   1  -7   7  613.74   20.10
   1  -7   7  591.74   19.40
   1  -7   7  601.14   19.60
  -1  -7  -7  616.64   19.30
  -1  -7  -7  618.04   19.30
   1  -7   7  607.44   19.20
   1  -7   7  604.54   18.70
   1  -7   7  618.54   20.50
   1  -7   7  622.94   19.40
  -1   7  -7  593.84   19.80
   1   7   7  588.24   21.10
  -1   7  -7  610.74   19.40
   1   7   7  606.54   19.90
  -1   7  -7  597.34   19.20
  -3  -7  -7  301.77   13.90
  -3  -7  -7  298.17   12.00
   3  -7   7  298.47   12.00
   3  -7   7  293.07   12.70
  -3  -7  -7  289.77   11.40
   3  -7   7  312.47   11.00
   3  -7   7  292.87   11.90
   3  -7   7  318.87   12.00
  -3   7  -7  295.77   11.90
   3   7   7  296.77   13.30
  -3   7  -7  283.07   11.30
   3   7   7  308.37   12.60
  -3   7  -7  261.57   11.20
  -3   7  -7  304.07   12.20
  -5  -7  -7  272.07   11.90
   5  -7   7  268.67   10.20
   5  -7   7  280.27   11.80
  -5  -7  -7  259.17   10.70
  -5  -7  -7  273.27   13.20
   5  -7   7  267.07   10.10
   5  -7   7  271.37   11.80
   5  -7   7  269.17   12.50
  -5   7  -7  269.57   11.50
   5   7   7  266.97   12.70
  -5   7  -7  270.87   11.80
  -5   7  -7  258.27   10.40
   5   7   7  275.87   12.20
   0  -8   7    3.40    2.60
   0  -8   7    1.80    2.60
  10   0  -8   12.40    3.20
  10   0  -8    6.10    2.40
  10   0  -8    7.70    3.00
 -10   0   8   16.30    3.20
 -10   0   8    6.90    2.80
   8   0  -8  110.99    5.80
  -8   0   8   92.29    6.10
  -8   0   8  103.69    6.30
  -8   0   8   87.29    4.80
   8   0  -8  111.09    6.20
   8   0  -8  115.19    7.60
   6   0  -8  353.96   14.30
   6   0  -8  361.36   12.00
  -6   0   8  333.47   12.50
  -6   0   8  355.36   12.60
  -6   0   8  349.47   11.50
   6   0  -8  356.56   12.10
   4   0  -8  530.65   15.40
   4   0  -8  544.75   16.60
   4   0  -8  538.95   18.50
  -4   0   8  548.55   16.80
  -4   0   8  543.85   16.30
  -4   0   8  527.85   17.00
  -2   0   8  625.04   18.40
   2   0  -8  621.84   20.10
  -2   0   8  602.44   18.60
   2   0  -8  596.14   18.00
   2   0  -8  622.84   16.30
  -2   0   8  633.24   18.50
   2   0  -8  619.24   18.50
   0   0   8 1822.02   46.60
   0   0  -8 1804.82   45.80
   0   0  -8 1797.42   47.40
   0   0  -8 1798.42   46.30
   0   0   8 1807.02   46.20
  -2   0  -8  422.76   14.20
  -2   0  -8  435.86   14.60
  -2   0  -8  441.76   13.90
   2   0   8  425.16   14.70
   2   0   8  418.56   13.80
   2   0   8  418.96   12.10
  -4   0  -8  225.38    9.10
   4   0   8  212.78    8.70
   4   0   8  219.28    8.10
  -4   0  -8  211.48    9.10
  -4   0  -8  226.68    8.90
   4   0   8  217.58    9.70
  -6   0  -8  618.94   19.20
   6   0   8  623.34   18.80
   6   0   8  592.24   18.30
  -6   0  -8  601.54   17.50
  -6   0  -8  600.44   19.10
   6   0   8  611.54   20.20
  -8   0  -8  925.51   27.10
   8   0   8  920.71   26.90
   8   0   8  902.61   28.40
  -8   0  -8  947.11   27.30
   8   0   8  907.51   26.30
  10   0   8  197.48    9.20
  10   0   8  214.08   10.30
 -10   0  -8  217.68    9.80
 -10   0  -8  213.28   10.30
  10   0   8  204.98   10.90
 -10   0  -8  208.48    9.90
 -11  -1   8    2.20    2.50
 -11  -1   8    3.50    2.70
  11  -1  -8    0.60    2.70
  11  -1  -8   -1.90    2.30
  11  -1  -8    1.20    2.00
 -11  -1   8    5.50    2.80
 -11   1   8    7.60    2.80
 -11   1   8    6.00    3.10
 -11   1   8    0.00    2.30
  11   1  -8   -0.20    1.90
  11   1  -8   -0.40    2.80
  11   1  -8    4.10    2.80
   9  -1  -8   26.90    3.10
   9  -1  -8   19.20    3.40
  -9  -1   8   26.90    3.60
  -9  -1   8   20.60    3.60
   9  -1  -8   18.60    4.00
   9   1  -8   17.10    3.20
   9   1  -8   17.60    3.00
  -9   1   8   16.40    3.30
  -9   1   8   12.30    3.10
   9   1  -8   19.40    4.10
  -9   1   8   20.70    3.20
   7  -1  -8   20.20    3.20
  -7  -1   8   19.30    3.20
   7  -1  -8   18.00    2.70
   7  -1  -8   19.60    3.90
  -7  -1   8   18.10    2.60
  -7  -1   8   20.70    3.30
  -7   1   8   21.90    3.20
  -7   1   8   23.10    3.20
   7   1  -8   20.20    4.20
  -7   1   8   18.30    3.20
   7   1  -8   16.30    2.70
   7   1  -8   18.50    2.90
   5  -1  -8  229.08    8.70
   5  -1  -8  228.28    8.90
  -5  -1   8  235.88    8.40
  -5  -1   8  238.58    9.60
   5  -1  -8  235.38   10.80
  -5  -1   8  245.58    9.60
  -5   1   8  222.98    9.00
  -5   1   8  232.78    9.00
   5   1  -8  226.38    9.10
   5   1  -8  219.78    8.40
  -5   1   8  230.58    9.60
   5   1  -8  234.88   10.90
  -3  -1   8   39.30    3.70
   3  -1  -8   47.90    4.40
  -3  -1   8   46.50    3.80
   3  -1  -8   47.00    3.70
  -3  -1   8   43.40    3.50
   3  -1  -8   40.90    3.00
   3   1  -8   43.20    4.30
  -3   1   8   41.80    3.50
  -3   1   8   39.70    3.60
   3   1  -8   42.10    2.90
   3   1  -8   43.60    3.50
  -3   1   8   45.10    3.70
   1  -1  -8  166.48    6.80
  -1  -1   8  159.48    7.20
  -1  -1   8  171.78    7.60
   1  -1  -8  162.98    7.20
  -1  -1   8  150.98    7.20
   1  -1  -8  149.99    7.90
  -1   1   8  160.28    7.20
   1   1  -8  165.98    8.20
   1   1  -8  158.98    7.30
  -1   1   8  154.78    5.40
   1   1  -8  162.58    7.10
  -1   1   8  159.68    7.50
  -1   1   8  175.48    7.20
   1  -1   8   13.30    2.00
   1  -1   8   15.80    2.70
  -1  -1  -8   18.40    2.90
  -1  -1  -8   17.80    2.50
   1  -1   8   17.10    1.70
  -1  -1  -8   21.50    2.50
  -1  -1  -8   16.30    2.70
   1  -1   8   18.90    2.80
  -1   1  -8   14.20    2.40
   1   1   8   14.00    1.70
  -1   1  -8   19.50    2.60
   1   1   8   16.70    2.40
  -1   1  -8   17.60    2.80
   1   1   8   18.90    2.90
   3  -1   8    6.10    1.90
   3  -1   8    2.40    1.20
   3  -1   8    1.60    1.60
  -3  -1  -8    5.20    1.70
  -3  -1  -8    5.30    1.80
  -3  -1  -8    1.10    1.60
  -3   1  -8    2.20    1.70
   3   1   8    2.10    1.30
  -3   1  -8    3.20    1.80
   3   1   8    6.20    2.00
  -3   1  -8    1.50    1.40
   3   1   8    7.70    1.90
   5  -1   8   12.90    2.60
   5  -1   8   11.10    2.20
  -5  -1  -8    4.00    1.80
   5  -1   8    7.70    2.20
  -5  -1  -8    6.40    1.90
  -5  -1  -8    5.10    2.00
   5   1   8    8.50    2.30
  -5   1  -8    7.80    2.10
  -5   1  -8    5.20    1.80
  -5   1  -8    5.20    1.70
   5   1   8   13.10    2.40
   7  -1   8   45.10    4.10
   7  -1   8   39.60    4.00
  -7  -1  -8   41.60    4.20
   7  -1   8   47.70    5.00
  -7  -1  -8   47.10    4.50
   7   1   8   41.80    3.80
  -7   1  -8   51.89    4.40
  -7   1  -8   46.70    4.30
   7   1   8   50.19    4.20
   7   1   8   43.70    5.00
  -7   1  -8   47.60    4.50
   9  -1   8   71.49    5.70
   9  -1   8   77.09    6.40
   9  -1   8   75.19    5.50
  -9  -1  -8   82.89    6.10
  -9  -1  -8   81.09    5.90
  -9   1  -8   74.29    5.80
   9   1   8   79.89    6.00
   9   1   8   80.19    6.40
  -9   1  -8   65.69    5.40
   9   1   8   73.99    5.10
  -9   1  -8   77.49    5.70
  11  -1   8   37.40    4.70
  11  -1   8   34.30    5.10
 -11  -1  -8   51.59    5.50
 -11  -1  -8   43.80    5.30
  11  -1   8   40.60    5.50
  11   1   8   40.30    5.50
 -11   1  -8   45.20    5.40
 -11   1  -8   48.10    5.10
 -11   1  -8   46.00    5.10
  11   1   8   44.80    4.50
  11   1   8   35.40    5.20
  10  -2  -8  377.56   12.60
 -10  -2   8  403.76   14.80
 -10  -2   8  388.96   14.30
  10  -2  -8  370.96   14.50
  10  -2  -8  392.86   16.20
 -10  -2   8  379.16   14.90
 -10   2   8  404.26   14.40
 -10   2   8  394.06   15.00
  10   2  -8  357.36   16.10
  10   2  -8  380.96   13.80
 -10   2   8  407.06   13.60
  10   2  -8  376.86   14.50
  -8  -2   8  517.35   17.70
   8  -2  -8  521.35   19.20
   8  -2  -8  514.35   17.20
   8  -2  -8  534.25   16.00
  -8  -2   8  537.65   17.40
   8   2  -8  522.15   17.10
  -8   2   8  541.95   16.90
   8   2  -8  527.15   17.10
  -8   2   8  523.85   16.70
  -8   2   8  501.65   17.70
   8   2  -8  535.05   19.70
  -6  -2   8  199.58    7.10
  -6  -2   8  201.68    8.90
   6  -2  -8  224.48    8.40
  -6  -2   8  212.08    9.20
   6  -2  -8  218.08   10.50
   6  -2  -8  212.98    8.70
   6   2  -8  203.48   10.40
   6   2  -8  210.48    8.90
  -6   2   8  204.48    8.80
  -6   2   8  210.68    8.50
   6   2  -8  221.98    8.60
  -6   2   8  201.08    9.20
   4  -2  -8  273.97    9.10
   4  -2  -8  255.07    9.30
   4  -2  -8  251.47   11.30
  -4  -2   8  229.18    8.60
  -4  -2   8  241.28    9.90
  -4  -2   8  232.28    9.60
   4   2  -8  258.67    9.90
  -4   2   8  233.18    9.70
   4   2  -8  262.77    8.60
  -4   2   8  235.98    9.00
  -4   2   8  242.68    9.80
   4   2  -8  244.18   11.10
   2  -2  -8  143.49    6.60
  -2  -2   8  134.59    6.70
   2  -2  -8  141.09    7.80
  -2  -2   8  133.59    6.40
   2  -2  -8  142.49    5.70
  -2   2   8  132.89    7.00
   2   2  -8  154.78    7.00
  -2   2   8  138.19    6.30
   2   2  -8  139.79    6.80
   2   2  -8  147.49    7.80
   2   2  -8  157.28    5.40
  -2   2   8  151.98    6.90
   0  -2  -8  336.77   10.90
   0  -2  -8  340.57   13.00
   0  -2  -8  326.57   11.70
   0  -2   8  328.67   11.80
   0  -2   8  319.77   11.60
   0   2  -8  332.47   11.90
   0   2  -8  338.77   11.90
   0   2   8  324.97    9.70
   0   2   8  337.97   12.40
   0   2   8  338.67   11.50
   0   2  -8  331.87   12.50
   2  -2   8  903.31   26.30
   2  -2   8  895.01   23.50
  -2  -2  -8  900.31   26.50
   2  -2   8  894.81   25.70
  -2  -2  -8  907.41   25.80
  -2  -2  -8  928.11   24.70
  -2   2  -8  889.41   25.40
  -2   2  -8  895.11   25.60
   2   2   8  930.91   25.10
  -2   2  -8  913.11   25.80
   2   2   8  911.71   26.70
   2   2   8  908.21   24.00
  -4  -2  -8 1709.23   44.10
   4  -2   8 1662.13   44.90
  -4  -2  -8 1658.33   44.10
   4  -2   8 1641.74   42.40
  -4  -2  -8 1731.23   43.10
   4  -2   8 1603.94   43.60
   4   2   8 1661.73   42.70
   4   2   8 1715.93   42.60
  -4   2  -8 1708.93   44.10
  -4   2  -8 1694.73   43.80
  -4   2  -8 1622.04   42.30
   4   2   8 1650.83   44.90
   6  -2   8  679.43   20.70
  -6  -2  -8  691.63   20.60
   6  -2   8  694.43   22.50
  -6  -2  -8  673.63   21.40
   6  -2   8  666.93   21.00
  -6  -2  -8  703.63   20.90
  -6   2  -8  716.73   21.80
  -6   2  -8  701.43   21.10
   6   2   8  687.53   20.60
   6   2   8  697.93   20.10
   6   2   8  681.93   22.30
  -6   2  -8  669.63   21.20
   8  -2   8  346.87   13.20
   8  -2   8  338.97   13.10
   8  -2   8  322.47   14.00
  -8  -2  -8  353.36   13.10
  -8  -2  -8  336.67   13.30
   8   2   8  354.76   14.30
  -8   2  -8  346.57   12.80
  -8   2  -8  328.57   13.30
   8   2   8  328.57   11.80
   8   2   8  355.66   13.30
  -8   2  -8  335.97   13.10
  10  -2   8  145.09    9.20
 -10  -2  -8  155.18    8.60
  10  -2   8  160.38    8.90
 -10  -2  -8  153.08    8.40
  10  -2   8  153.08    8.40
 -10   2  -8  152.88    8.80
  10   2   8  165.48    9.50
  10   2   8  146.19    8.60
  10   2   8  154.58    7.40
 -10   2  -8  150.58    8.50
 -10   2  -8  156.18    8.10
   9  -3  -8   20.40    3.60
  -9  -3   8   19.60    3.60
  -9  -3   8   22.10    3.70
   9  -3  -8   20.60    4.30
   9  -3  -8   27.30    3.30
  -9  -3   8   24.10    4.10
  -9   3   8   25.80    4.00
   9   3  -8   22.40    3.90
   9   3  -8   21.90    4.60
  -9   3   8   23.70    3.80
   9   3  -8   19.30    3.50
  -9   3   8   20.80    3.80
   7  -3  -8   51.69    5.20
  -7  -3   8   51.29    4.80
  -7  -3   8   46.00    4.40
   7  -3  -8   51.69    3.80
   7  -3  -8   51.49    4.50
  -7   3   8   54.29    4.80
  -7   3   8   48.30    4.20
   7   3  -8   52.09    4.40
   7   3  -8   55.59    4.50
  -7   3   8   53.59    4.70
   7   3  -8   54.19    5.50
   5  -3  -8   73.79    6.00
   5  -3  -8   76.69    4.60
  -5  -3   8   72.79    4.00
   5  -3  -8   72.59    4.80
  -5  -3   8   77.59    5.40
  -5  -3   8   74.49    5.10
   5   3  -8   77.39    6.10
  -5   3   8   79.29    5.30
  -5   3   8   78.49    4.50
   5   3  -8   70.79    4.50
  -5   3   8   69.49    5.30
   5   3  -8   70.79    5.10
  -3  -3   8   20.50    3.00
   3  -3  -8   16.20    3.30
  -3  -3   8   12.20    2.50
  -3  -3   8   18.60    2.70
   3  -3  -8   13.90    2.30
   3  -3  -8   17.40    2.70
  -3   3   8   19.10    2.60
  -3   3   8   16.30    3.00
  -3   3   8   17.20    2.20
  -3   3   8   19.60    3.10
   3   3  -8   14.80    3.10
   3   3  -8   19.20    2.50
   3   3  -8   18.10    3.00
   1  -3  -8  119.69    6.10
   1  -3  -8  129.19    7.50
  -1  -3   8  118.29    6.20
   1  -3  -8  119.69    5.30
   1  -3  -8  114.79    5.20
  -1  -3   8  112.89    6.50
  -1  -3   8  125.99    6.20
  -1   3   8  117.19    5.40
   1   3  -8  112.89    4.60
  -1   3   8  118.49    6.70
  -1   3   8  119.99    6.10
   1   3  -8  113.59    6.70
  -1   3   8  120.69    5.00
   1   3  -8  116.69    6.20
   1   3  -8  115.59    6.20
  -1  -3  -8  435.26   14.40
  -1  -3  -8  433.26   13.10
   1  -3   8  432.96   14.70
   1  -3   8  421.16   12.30
  -1  -3  -8  431.96   15.70
   1  -3   8  434.66   14.50
   1   3   8  428.76   13.80
  -1   3  -8  405.36   14.40
  -1   3  -8  438.96   14.50
  -1   3  -8  438.16   14.60
   1   3   8  417.16   15.20
   1   3   8  445.86   13.10
  -3  -3  -8   75.59    4.30
  -3  -3  -8   63.49    4.70
   3  -3   8   65.59    5.00
  -3  -3  -8   59.29    5.00
   3  -3   8   59.29    4.00
   3  -3   8   59.29    4.60
  -3   3  -8   65.39    4.80
  -3   3  -8   62.99    4.30
   3   3   8   62.19    4.20
   3   3   8   61.69    5.10
   3   3   8   66.69    4.30
  -3   3  -8   70.59    4.90
   5  -3   8    6.80    2.20
  -5  -3  -8    2.90    2.00
  -5  -3  -8    3.10    2.00
  -5  -3  -8    2.20    2.10
   5  -3   8    3.90    2.30
   5  -3   8    6.80    2.10
   5   3   8    5.60    2.00
  -5   3  -8   10.20    2.40
   5   3   8    5.30    1.80
   5   3   8    5.60    2.30
  -5   3  -8    3.50    2.40
  -5   3  -8    0.50    1.90
   7  -3   8  117.29    7.70
  -7  -3  -8  115.29    7.20
  -7  -3  -8  118.39    6.90
   7  -3   8  115.69    7.00
   7  -3   8  116.29    6.80
  -7  -3  -8  130.19    6.80
   7   3   8  129.89    6.10
   7   3   8  118.49    7.70
  -7   3  -8  125.29    6.80
  -7   3  -8  132.19    7.50
   7   3   8  116.79    6.80
  -7   3  -8  115.49    7.00
   9  -3   8   34.30    5.30
  -9  -3  -8   38.50    4.50
   9  -3   8   38.30    4.70
   9  -3   8   35.20    4.40
  -9  -3  -8   40.20    4.90
  -9   3  -8   44.10    4.90
  -9   3  -8   36.00    4.60
   9   3   8   35.10    3.60
   9   3   8   38.50    5.20
   9   3   8   41.10    4.90
  -9   3  -8   36.00    4.90
  -8  -4   8  110.59    7.50
  -8  -4   8  119.69    6.70
   8  -4  -8  119.89    8.30
   8  -4  -8  114.89    5.50
  -8  -4   8  109.09    7.40
   8  -4  -8  101.59    6.80
   8   4  -8  125.19    8.50
   8   4  -8  114.39    6.90
  -8   4   8  122.69    7.60
  -8   4   8  113.69    7.30
   8   4  -8  123.09    7.10
  -6  -4   8  233.08   10.30
   6  -4  -8  212.88   11.10
   6  -4  -8  223.28    9.70
  -6  -4   8  238.08    9.60
   6  -4  -8  223.48    8.40
  -6   4   8  207.28    8.30
   6   4  -8  212.38    9.00
   6   4  -8  229.68   11.50
  -6   4   8  221.38    9.90
  -6   4   8  225.78   10.30
   6   4  -8  221.48    9.90
   4  -4  -8  865.61   25.20
   4  -4  -8  905.01   24.60
  -4  -4   8  905.01   25.60
   4  -4  -8  892.91   28.30
  -4  -4   8  913.11   23.90
  -4  -4   8  896.21   26.40
   4   4  -8  872.31   25.90
   4   4  -8  890.41   27.90
  -4   4   8  904.61   23.90
  -4   4   8  906.71   23.80
  -4   4   8  895.01   25.90
  -4   4   8  877.71   26.70
   4   4  -8  876.11   24.40
   2  -4  -8 1110.59   30.50
   2  -4  -8 1138.59   33.60
   2  -4  -8 1113.99   30.00
  -2  -4   8 1118.89   31.00
  -2  -4   8 1121.19   31.80
  -2  -4   8 1147.69   30.40
   2   4  -8 1097.99   31.30
   2   4  -8 1120.79   29.20
   2   4  -8 1113.59   31.50
   2   4  -8 1140.39   32.80
  -2   4   8 1139.49   29.50
  -2   4   8 1124.79   30.90
  -2   4   8 1182.68   29.20
  -2   4   8 1149.39   32.50
   0  -4   8  388.76   13.70
   0  -4   8  380.86   14.10
   0  -4  -8  408.36   13.70
   0  -4   8  380.66   11.80
   0  -4  -8  402.36   15.50
   0  -4   8  406.46   13.90
   0  -4  -8  403.46   12.00
   0  -4  -8  391.06   12.40
   0   4   8  410.36   12.10
   0   4  -8  403.76   14.30
   0   4  -8  399.96   13.90
   0   4   8  404.76   14.80
   0   4   8  412.26   13.40
   0   4   8  411.46   12.70
   0   4  -8  393.46   13.90
  -2  -4  -8  311.27   11.70
  -2  -4  -8  303.87   10.00
   2  -4   8  319.17   12.30
  -2  -4  -8  308.97   13.00
   2  -4   8  319.67   11.90
   2  -4   8  311.17   10.50
  -2   4  -8  300.37   11.50
   2   4   8  292.77   12.40
   2   4   8  314.67   10.90
  -2   4  -8  299.67   11.70
   2   4   8  316.77   10.90
  -2   4  -8  287.57   11.10
  -4  -4  -8  195.38    9.30
   4  -4   8  213.48    9.50
   4  -4   8  221.78   10.30
  -4  -4  -8  195.88    9.80
  -4  -4  -8  216.08    8.10
   4  -4   8  230.78    9.00
   4   4   8  222.78    9.10
   4   4   8  211.58    8.20
  -4   4  -8  203.68    9.50
  -4   4  -8  203.88    9.50
   4   4   8  208.08   10.10
  -4   4  -8  199.88    9.20
  -6  -4  -8   71.49    5.60
  -6  -4  -8   68.09    4.70
   6  -4   8   70.39    5.30
   6  -4   8   67.49    5.40
  -6  -4  -8   65.89    5.60
   6  -4   8   69.39    6.00
  -6   4  -8   62.09    5.20
   6   4   8   78.59    5.60
  -6   4  -8   67.59    5.20
   6   4   8   72.49    4.50
  -6   4  -8   71.59    5.70
   6   4   8   77.49    6.10
   8  -4   8  163.18    8.80
   8  -4   8  166.18    9.80
  -8  -4  -8  174.58    8.90
   8  -4   8  164.38    8.80
  -8  -4  -8  156.58    8.80
  -8  -4  -8  169.18    8.00
  -8   4  -8  169.18    8.30
   8   4   8  163.08    9.50
  -8   4  -8  161.48    9.10
  -8   4  -8  160.28    8.90
   8   4   8  168.58    8.80
  -7  -5   8   76.69    6.20
   7  -5  -8   62.19    4.30
   7  -5  -8   74.69    6.80
  -7  -5   8   74.29    6.10
   7  -5  -8   67.69    5.70
  -7  -5   8   68.69    5.40
   7   5  -8   71.29    5.60
   7   5  -8   59.69    5.30
   7   5  -8   64.99    6.70
  -7   5   8   72.19    5.90
  -7   5   8   76.89    6.40
  -5  -5   8   -1.30    2.00
  -5  -5   8    2.10    1.80
   5  -5  -8   -0.30    2.20
   5  -5  -8    5.60    2.20
  -5  -5   8   -0.60    1.90
   5  -5  -8    2.70    1.80
   5  -5  -8   -1.10    1.60
   5   5  -8    4.60    2.80
  -5   5   8    3.50    2.20
  -5   5   8    3.50    2.40
   5   5  -8    4.40    2.30
   5   5  -8    2.90    2.10
  -5   5   8   -2.30    1.80
  -5   5   8    0.80    2.40
  -3  -5   8   22.50    3.30
  -3  -5   8   33.90    3.70
   3  -5  -8   21.80    3.10
   3  -5  -8   24.10    4.40
  -3  -5   8   31.60    4.10
   3  -5  -8   23.10    3.50
   3   5  -8   25.60    4.60
  -3   5   8   24.10    3.30
   3   5  -8   28.70    3.60
  -3   5   8   30.00    3.60
  -3   5   8   25.10    4.10
   3   5  -8   22.40    3.20
   1  -5  -8    6.10    2.10
   1  -5  -8    9.30    2.30
   1  -5  -8    7.90    2.90
  -1  -5   8    7.30    2.30
  -1  -5   8   10.40    2.60
  -1  -5   8    7.00    1.80
  -1  -5   8    5.60    2.10
  -1   5   8    5.30    2.10
   1   5  -8   10.80    3.00
   1   5  -8    8.30    2.00
  -1   5   8    2.80    1.40
   1   5  -8    8.70    2.70
  -1   5   8    5.90    2.30
   1   5  -8    3.10    2.10
  -1   5   8    7.30    2.20
  -1  -5  -8   51.99    5.30
  -1  -5  -8   48.20    4.30
  -1  -5  -8   53.29    3.90
   1  -5   8   44.20    3.70
   1  -5   8   50.89    4.70
  -1  -5  -8   40.40    3.10
   1  -5   8   48.40    3.50
   1  -5   8   47.30    4.40
  -1   5  -8   45.60    4.40
   1   5   8   45.70    4.90
  -1   5  -8   47.90    4.50
   1   5   8   48.20    3.90
  -1   5  -8   43.70    4.30
   1   5   8   43.10    4.20
  -3  -5  -8   63.59    5.10
   3  -5   8   54.59    4.90
  -3  -5  -8   58.29    5.90
  -3  -5  -8   61.19    3.80
   3  -5   8   59.89    5.30
   3  -5   8   60.99    4.60
  -3   5  -8   56.99    4.60
   3   5   8   63.59    4.80
  -3   5  -8   62.29    5.00
  -3   5  -8   64.79    5.20
   3   5   8   65.39    5.60
   3   5   8   63.19    4.30
  -5  -5  -8   66.79    6.20
   5  -5   8   55.89    5.30
   5  -5   8   62.39    5.20
  -5  -5  -8   65.69    5.40
   5  -5   8   66.59    5.90
  -5  -5  -8   62.09    4.40
  -5   5  -8   65.39    5.50
  -5   5  -8   64.49    5.10
   5   5   8   68.19    6.00
  -5   5  -8   63.29    5.50
   5   5   8   58.89    5.20
  -7  -5  -8   -3.90    2.10
   7  -5   8    9.80    3.50
  -7  -5  -8   -0.80    3.10
   7  -5   8    0.00    2.20
  -7  -5  -8    2.00    2.40
   7  -5   8    1.60    2.50
  -7   5  -8   -0.90    2.40
  -7   5  -8    0.80    2.40
   7   5   8    4.20    2.70
   7   5   8    0.80    2.10
   7   5   8    1.00    2.40
  -7   5  -8    0.70    2.40
  -6  -6   8  493.55   18.30
  -6  -6   8  517.45   18.20
   6  -6  -8  505.05   19.60
  -6  -6   8  514.15   16.50
   6  -6  -8  507.25   15.00
   6  -6  -8  492.75   17.70
   6   6  -8  494.95   19.70
   6   6  -8  483.45   17.60
   6   6  -8  491.95   17.00
  -6   6   8  491.75   17.60
  -6   6   8  515.35   19.10
   4  -6  -8  122.39    7.40
  -4  -6   8  130.79    6.30
   4  -6  -8  124.19    6.20
  -4  -6   8  130.49    7.00
   4  -6  -8  131.09    8.80
  -4  -6   8  113.59    7.60
  -4  -6   8  131.69    7.80
  -4   6   8  124.69    8.20
   4   6  -8  124.59    8.50
   4   6  -8  118.49    7.30
   4   6  -8  119.49    6.70
  -4   6   8  139.49    7.50
  -4   6   8  132.09    7.20
  -2  -6   8  182.58    7.40
   2  -6  -8  184.98    8.60
  -2  -6   8  186.78    9.30
   2  -6  -8  187.88   10.70
   2  -6  -8  184.68    8.10
  -2  -6   8  184.48    8.40
  -2  -6   8  181.48    8.30
  -2   6   8  176.18    9.70
  -2   6   8  188.58    8.50
   2   6  -8  191.98    8.10
   2   6  -8  186.78    9.20
   2   6  -8  186.48    9.90
  -2   6   8  185.68    8.50
   0  -6   8  365.96   13.40
   0  -6  -8  364.36   15.50
   0  -6   8  349.57   13.60
   0  -6   8  345.17   12.10
   0  -6  -8  360.36   12.70
   0  -6  -8  377.36   13.30
   0  -6   8  343.07   13.30
   0  -6   8  369.56   12.30
   0   6   8  365.76   12.60
   0   6  -8  356.36   13.90
   0   6   8  372.66   13.30
   0   6   8  343.97   14.60
   0   6  -8  367.86   13.70
   0   6  -8  363.66   13.70
   2  -6   8  312.87   11.60
   2  -6   8  309.57   12.90
   2  -6   8  317.37   10.60
  -2  -6  -8  311.27   14.20
  -2  -6  -8  322.07   12.40
   2  -6   8  318.07   12.50
  -2   6  -8  312.17   12.40
   2   6   8  314.47   12.30
   2   6   8  308.97   13.70
  -2   6  -8  306.47   12.10
  -2   6  -8  308.47   12.30
   2   6   8  325.97   11.20
  -4  -6  -8   84.09    6.30
  -4  -6  -8   80.79    5.50
  -4  -6  -8  101.29    7.50
   4  -6   8   88.09    6.10
   4  -6   8   87.09    4.80
   4  -6   8   99.09    7.10
   4  -6   8   87.59    6.40
   4  -6   8   86.79    5.70
  -4   6  -8   94.69    6.20
   4   6   8  105.79    6.70
  -4   6  -8   86.69    6.40
  -4   6  -8   80.49    6.20
   4   6   8   79.69    6.80
   6  -6   8  353.76   13.80
   6  -6   8  343.07   14.10
  -6  -6  -8  339.37   13.90
  -6  -6  -8  334.47   14.80
   6  -6   8  355.46   15.00
  -6  -6  -8  334.97   11.50
   6   6   8  347.27   13.80
  -6   6  -8  347.47   13.80
   6   6   8  357.36   15.10
  -6   6  -8  346.97   14.10
  -6   6  -8  333.57   12.80
  -3  -7   8   -0.60    2.90
  -3  -7   8    5.40    2.90
   3  -7  -8    1.10    2.60
  -3  -7   8    5.00    2.80
   3  -7  -8   -3.50    2.90
   3  -7  -8    6.10    2.50
   3   7  -8    3.90    2.60
  -3   7   8    3.40    2.70
   3   7  -8   -2.70    2.80
   3   7  -8    2.80    2.70
  -3   7   8    5.00    3.20
  -3   7   8    4.30    3.20
  -1  -7   8   10.10    3.10
  -1  -7   8   12.40    3.70
   1  -7  -8   20.10    3.80
  -1  -7   8   11.40    3.10
  -1  -7   8   13.00    3.30
  -1  -7   8    9.30    3.30
   1  -7  -8   15.30    3.30
   1  -7  -8   10.40    3.90
  -1  -7   8   15.20    3.60
  -1   7   8    9.90    3.50
   1   7  -8   10.10    3.00
  -1   7   8   10.10    3.20
  -1   7   8   14.20    3.40
   1   7  -8   16.80    3.50
   1   7  -8    8.70    3.50
   1  -7   8    9.40    2.80
   1  -7   8    3.90    2.90
  -1  -7  -8    9.00    3.60
   1  -7   8    3.00    2.30
   1  -7   8    1.20    2.60
  -1  -7  -8    0.60    2.40
  -1  -7  -8    5.90    2.70
   1  -7   8    6.80    3.20
  -1   7  -8    8.00    3.40
  -1   7  -8    6.50    3.00
   1   7   8    0.60    2.70
   1   7   8    0.30    2.60
   1   7   8    5.30    2.90
  -1   7  -8    0.70    2.70
 -10   0   9    2.70    2.90
  10   0  -9    4.20    2.80
  10   0  -9    4.70    3.20
 -10   0   9    3.70    3.20
  10   0  -9    0.60    2.30
  -8   0   9    0.20    2.30
  -8   0   9    2.40    2.30
  -8   0   9    1.00    2.10
   8   0  -9    3.20    2.60
   8   0  -9   -1.20    1.90
   6   0  -9   -2.40    1.90
  -6   0   9    2.80    2.40
   6   0  -9    1.60    1.80
  -6   0   9    0.40    1.80
  -6   0   9   -1.50    1.80
   6   0  -9   -1.30    1.70
  -4   0   9    3.30    2.20
  -4   0   9   -1.40    1.60
   4   0  -9   -1.80    1.30
   4   0  -9    0.50    1.50
  -4   0   9   -1.20    1.60
   4   0  -9    1.10    2.10
  -2   0   9    0.30    1.70
   2   0  -9    2.50    2.20
   2   0  -9    4.30    1.90
   2   0  -9    2.00    1.70
  -2   0   9    2.40    1.90
  -2   0   9    3.20    1.80
   0   0  -9   -0.40    1.60
   0   0  -9    0.00    1.30
   0   0   9    1.10    1.60
   0   0   9    0.30    1.70
   0   0  -9    2.20    1.60
   2   0   9   -0.60    1.40
   2   0   9    0.20    1.20
  -2   0  -9    1.70    1.70
   2   0   9    1.50    1.70
  -2   0  -9    3.10    1.70
  -2   0  -9    1.80    1.80
   4   0   9    1.00    2.00
   4   0   9    0.00    1.90
  -4   0  -9    4.90    2.00
  -4   0  -9    0.00    1.70
  -4   0  -9    0.80    1.80
   4   0   9    1.00    1.70
   6   0   9   -2.50    1.80
  -6   0  -9    4.30    2.20
  -6   0  -9   -1.30    1.80
   6   0   9    2.30    2.00
  -6   0  -9    3.10    2.30
   6   0   9   -0.10    1.90
  -8   0  -9   -0.90    2.00
  -8   0  -9    1.40    2.10
   8   0   9    1.80    2.50
  -8   0  -9    2.90    2.50
   8   0   9   -0.70    2.10
   8   0   9   -0.70    2.10
  10   0   9    2.60    3.10
  10   0   9    1.60    2.50
  10   0   9    0.30    2.70
  -9  -1   9  112.39    7.30
   9  -1  -9  111.89    6.30
  -9  -1   9  112.89    7.50
   9  -1  -9  120.49    8.60
   9  -1  -9  120.09    7.20
   9   1  -9  122.99    8.70
  -9   1   9  114.59    6.30
  -9   1   9  110.89    7.30
   9   1  -9  113.59    7.10
  -9   1   9  118.49    7.30
   9   1  -9  118.49    6.80
  -7  -1   9  183.68    9.10
   7  -1  -9  180.18    8.30
   7  -1  -9  190.28    8.30
  -7  -1   9  182.28    7.30
  -7  -1   9  185.98    8.90
   7  -1  -9  189.68   10.50
   7   1  -9  185.28    8.20
  -7   1   9  185.78    9.10
  -7   1   9  185.18    8.20
   7   1  -9  172.98   10.20
  -7   1   9  190.58    8.90
   7   1  -9  196.98    8.70
  -5  -1   9  337.07   12.70
   5  -1  -9  342.47   14.40
   5  -1  -9  337.57   11.40
  -5  -1   9  331.07   11.30
  -5  -1   9  334.77   12.70
   5  -1  -9  336.97   12.00
  -5   1   9  337.17   12.20
  -5   1   9  324.47   12.60
   5   1  -9  327.57   11.10
   5   1  -9  334.47   12.40
   5   1  -9  346.27   14.40
  -5   1   9  341.27   12.20
   3  -1  -9  410.96   16.10
   3  -1  -9  428.26   14.30
  -3  -1   9  421.56   14.60
  -3  -1   9  426.06   14.80
  -3  -1   9  445.66   14.10
  -3   1   9  423.66   14.10
   3   1  -9  427.26   16.20
  -3   1   9  417.06   14.60
   3   1  -9  410.76   14.30
  -3   1   9  414.46   14.40
  -1  -1   9  891.51   25.80
   1  -1  -9  895.61   25.40
  -1  -1   9  844.42   25.40
   1  -1  -9  885.31   27.00
  -1  -1   9  887.81   25.40
   1  -1  -9  893.51   24.70
   1   1  -9  891.01   27.00
  -1   1   9  927.41   25.20
   1   1  -9  857.91   25.50
  -1   1   9  867.51   25.30
  -1   1   9  893.01   25.90
   1   1  -9  864.21   25.10
  -1  -1  -9  739.33   23.10
  -1  -1  -9  732.83   21.30
   1  -1   9  745.63   22.60
  -1  -1  -9  747.73   22.30
   1  -1   9  720.83   21.90
   1   1   9  745.23   22.90
   1   1   9  732.33   21.80
  -1   1  -9  766.32   23.10
  -1   1  -9  723.03   21.80
   1   1   9  746.73   19.10
  -1   1  -9  740.43   22.30
  -3  -1  -9  565.14   17.50
  -3  -1  -9  545.75   18.10
   3  -1   9  549.95   17.80
  -3  -1  -9  572.04   18.30
   3  -1   9  549.25   15.70
   3  -1   9  552.14   18.70
   3   1   9  557.34   16.00
   3   1   9  545.75   18.70
  -3   1  -9  566.74   18.10
  -3   1  -9  564.54   17.80
   3   1   9  544.75   17.40
  -3   1  -9  557.84   17.80
   5  -1   9  371.06   13.40
  -5  -1  -9  353.36   13.50
  -5  -1  -9  361.76   13.00
   5  -1   9  358.06   12.10
  -5  -1  -9  369.36   13.30
   5  -1   9  360.66   14.50
   5   1   9  365.76   13.00
   5   1   9  379.56   12.40
   5   1   9  362.06   14.50
  -5   1  -9  377.06   13.70
  -5   1  -9  373.26   13.80
  -7  -1  -9  339.57   13.10
   7  -1   9  330.87   12.90
   7  -1   9  345.37   12.60
  -7  -1  -9  339.97   13.30
   7  -1   9  318.47   14.00
   7   1   9  321.97   12.40
   7   1   9  323.17   14.10
   7   1   9  343.37   12.60
  -7   1  -9  353.56   13.70
  -7   1  -9  336.87   13.10
  -9  -1  -9  123.39    7.90
   9  -1   9  121.69    7.50
   9  -1   9  123.49    8.50
   9  -1   9  130.69    7.70
  -9  -1  -9  120.89    7.90
   9   1   9  128.09    7.80
   9   1   9  121.69    8.40
  -9   1  -9  126.99    7.70
  -9   1  -9  124.79    7.90
   9   1   9  124.29    7.00
  -8  -2   9   -2.70    2.00
   8  -2  -9    2.40    2.20
   8  -2  -9    1.20    2.40
  -8  -2   9    3.90    2.80
   8  -2  -9   -1.50    2.00
  -8   2   9    3.40    2.60
  -8   2   9   -2.40    2.20
   8   2  -9    2.10    2.00
   8   2  -9    0.30    2.70
   8   2  -9   -2.40    2.10
  -8   2   9    2.90    2.50
  -6  -2   9   33.30    4.20
  -6  -2   9   25.30    3.20
   6  -2  -9   25.80    4.20
   6  -2  -9   34.60    3.60
  -6  -2   9   30.40    3.80
   6  -2  -9   31.60    3.90
   6   2  -9   30.50    4.70
   6   2  -9   31.60    3.60
   6   2  -9   32.30    3.80
  -6   2   9   27.70    3.90
  -6   2   9   30.30    4.00
  -6   2   9   27.90    3.70
   4  -2  -9   64.49    4.20
   4  -2  -9   71.19    4.80
  -4  -2   9   66.99    5.30
   4  -2  -9   69.59    6.00
  -4  -2   9   73.59    5.30
  -4  -2   9   71.19    4.70
   4   2  -9   71.29    5.10
  -4   2   9   67.89    5.20
   4   2  -9   55.19    3.90
  -4   2   9   74.99    4.80
  -4   2   9   72.69    5.30
   4   2  -9   68.99    6.10
   2  -2  -9    1.70    1.50
   2  -2  -9    1.60    1.40
   2  -2  -9    1.90    2.10
  -2  -2   9    4.00    1.80
  -2  -2   9   -3.10    1.60
  -2  -2   9   -0.10    1.60
   2   2  -9    5.30    2.00
  -2   2   9    3.60    1.90
   2   2  -9    0.20    1.90
   2   2  -9   -0.70    1.20
  -2   2   9   -0.50    1.60
  -2   2   9   -1.50    1.50
   2   2  -9    1.60    1.80
   0  -2  -9    1.50    1.60
   0  -2  -9    0.80    2.00
   0  -2  -9    1.20    1.40
   0  -2   9    0.70    1.70
   0  -2   9    1.50    1.80
   0   2   9    3.90    1.30
   0   2  -9   -0.60    1.50
   0   2   9    1.20    1.80
   0   2  -9    3.80    2.00
   0   2   9    1.90    1.70
   0   2   9   -0.30    1.60
   0   2  -9    1.60    1.50
   2  -2   9    5.50    2.50
  -2  -2  -9   10.90    2.80
   2  -2   9   10.20    1.90
   2  -2   9   13.20    2.80
  -2  -2  -9   13.20    2.40
  -2  -2  -9   11.60    2.80
  -2   2  -9   10.50    2.60
   2   2   9   11.40    2.80
  -2   2  -9   13.40    2.80
   2   2   9   10.60    2.10
  -2   2  -9   11.20    2.50
   2   2   9    8.60    2.20
  -4  -2  -9   43.20    3.90
   4  -2   9   44.70    3.60
   4  -2   9   34.80    4.50
  -4  -2  -9   42.00    4.40
  -4  -2  -9   37.00    4.10
   4  -2   9   37.30    4.00
   4   2   9   36.10    3.70
   4   2   9   38.90    3.60
  -4   2  -9   38.80    4.40
  -4   2  -9   43.40    3.80
   4   2   9   44.10    4.60
  -4   2  -9   42.80    4.40
  -6  -2  -9   29.50    4.20
   6  -2   9   32.50    4.10
  -6  -2  -9   23.70    3.90
  -6  -2  -9   23.10    3.80
   6  -2   9   24.60    3.60
   6  -2   9   25.60    4.10
   6   2   9   29.90    3.40
  -6   2  -9   28.00    3.80
   6   2   9   26.40    3.70
   6   2   9   27.50    4.20
  -6   2  -9   36.20    4.30
   8  -2   9    2.40    2.60
   8  -2   9    4.00    2.80
   8  -2   9    3.70    2.70
  -8  -2  -9    6.90    2.70
  -8  -2  -9   -2.70    2.30
  -8  -2  -9    1.30    2.50
   8   2   9    0.10    2.40
  -8   2  -9    7.10    2.80
   8   2   9    3.30    2.50
  -8   2  -9    6.40    2.70
   8   2   9    0.70    2.30
  -9  -3   9  215.48   10.70
  -9  -3   9  210.98   10.50
  -9  -3   9  195.98    9.60
   9  -3  -9  212.78   11.50
  -9   3   9  189.58    9.30
  -9   3   9  195.88   10.20
  -9   3   9  209.18   10.00
   9   3  -9  204.78   11.60
  -7  -3   9  187.68    9.70
   7  -3  -9  193.28   10.70
  -7  -3   9  206.18    9.50
   7  -3  -9  193.68    8.10
   7  -3  -9  188.68    8.80
   7   3  -9  186.38    8.60
  -7   3   9  204.88    9.90
  -7   3   9  192.28    9.40
  -7   3   9  199.28    8.60
   7   3  -9  185.58    9.10
   7   3  -9  192.18   10.90
   5  -3  -9  294.57   10.90
   5  -3  -9  290.87   10.80
  -5  -3   9  290.17   12.10
  -5  -3   9  287.67    9.80
  -5  -3   9  293.27   11.60
   5  -3  -9  293.57   13.40
   5   3  -9  295.57   11.80
   5   3  -9  290.87   13.40
   5   3  -9  293.87   10.40
  -5   3   9  295.77   12.00
  -5   3   9  292.17   10.60
  -5   3   9  298.67   12.00
   3  -3  -9  293.77   10.60
   3  -3  -9  317.57   13.80
  -3  -3   9  326.67   12.20
   3  -3  -9  331.97   11.70
  -3  -3   9  328.67   11.30
  -3  -3   9  313.07   12.50
  -3   3   9  311.07   12.10
  -3   3   9  318.77   12.70
  -3   3   9  327.07   11.10
   3   3  -9  314.27   12.20
   3   3  -9  321.57   13.60
  -1  -3   9  219.68    9.10
   1  -3  -9  207.88   10.60
  -1  -3   9  193.38    9.10
   1  -3  -9  214.58    9.10
  -1  -3   9  205.28    9.60
  -1   3   9  202.58    7.20
  -1   3   9  213.98    9.90
   1   3  -9  209.08    9.30
  -1   3   9  218.68    8.40
  -1   3   9  216.38    9.20
   1   3  -9  214.28    9.50
   1   3  -9  210.08   10.00
  -1  -3  -9  329.37   11.00
  -1  -3  -9  333.27   12.40
   1  -3   9  310.07   12.20
  -1  -3  -9  328.27   13.50
   1  -3   9  328.87   12.70
  -1   3  -9  323.87   12.50
  -1   3  -9  329.57   12.50
   1   3   9  328.67   10.60
   1   3   9  320.07   11.70
  -1   3  -9  334.07   12.60
   1   3   9  313.67   13.10
  -3  -3  -9  609.04   19.60
   3  -3   9  596.24   17.40
  -3  -3  -9  607.94   20.40
   3  -3   9  591.34   19.40
   3  -3   9  605.04   20.20
  -3  -3  -9  628.24   18.10
  -3   3  -9  601.24   19.50
  -3   3  -9  602.94   19.60
  -3   3  -9  575.54   18.40
   3   3   9  612.84   18.50
   3   3   9  620.34   18.00
   3   3   9  600.64   20.50
  -5  -3  -9  383.46   14.60
  -5  -3  -9  389.36   13.30
   5  -3   9  376.46   15.20
   5  -3   9  383.26   14.30
   5  -3   9  373.96   13.10
  -5  -3  -9  384.46   14.40
   5   3   9  378.06   13.00
  -5   3  -9  379.46   14.50
   5   3   9  369.26   15.10
   5   3   9  367.16   13.20
  -5   3  -9  382.36   14.10
  -7  -3  -9  216.98   10.60
   7  -3   9  211.88   11.20
  -7  -3  -9  227.38   10.30
  -7  -3  -9  227.98    9.90
   7  -3   9  222.88   10.50
   7  -3   9  218.48   10.00
  -7   3  -9  225.58   10.20
   7   3   9  217.48   11.20
  -7   3  -9  219.98   10.60
   7   3   9  218.38   10.00
   7   3   9  237.78    9.30
  -7   3  -9  214.98   10.50
  -6  -4   9    4.00    2.70
   6  -4  -9   10.80    2.40
  -6  -4   9    1.90    2.50
   6  -4  -9    2.60    2.40
   6  -4  -9    8.00    3.30
  -6   4   9    4.00    2.80
  -6   4   9    1.40    2.50
   6   4  -9   -0.10    2.10
   6   4  -9    8.10    2.40
  -6   4   9    2.20    2.30
   6   4  -9    3.10    2.80
   4  -4  -9    6.60    2.00
  -4  -4   9    8.80    2.60
   4  -4  -9    9.30    3.20
   4  -4  -9    7.30    2.40
  -4  -4   9    2.50    2.20
  -4  -4   9    3.90    2.30
  -4   4   9    8.50    2.70
   4   4  -9    7.70    2.20
   4   4  -9    6.00    3.10
  -4   4   9    5.90    2.20
  -4   4   9   10.40    2.90
  -2  -4   9   23.30    3.70
   2  -4  -9   22.40    3.40
  -2  -4   9   17.10    3.60
  -2  -4   9   17.40    3.10
   2  -4  -9   19.30    4.20
  -2   4   9   18.60    2.70
  -2   4   9   23.20    3.90
   2   4  -9   24.10    4.40
   2   4  -9   20.40    3.50
  -2   4   9   24.70    3.00
  -2   4   9   25.70    3.50
   0  -4  -9   29.10    4.70
   0  -4   9   26.40    4.00
   0  -4   9   19.20    3.60
   0  -4  -9   20.60    3.50
   0  -4   9   25.70    3.90
   0   4  -9   24.20    3.80
   0   4   9   31.20    3.50
   0   4   9   22.50    3.10
   0   4  -9   23.00    3.60
   0   4   9   22.70    3.20
   0   4  -9   23.30    3.90
   0   4   9   21.70    3.80
   2  -4   9    3.50    2.30
  -2  -4  -9    2.80    1.90
  -2  -4  -9    0.00    1.80
  -2  -4  -9    5.80    3.10
   2  -4   9    2.20    2.00
   2  -4   9   -0.80    2.20
  -2  -4  -9   -0.60    1.50
  -2   4  -9    6.60    2.20
   2   4   9    4.80    2.20
  -2   4  -9    0.60    1.90
   2   4   9    0.00    2.00
  -2   4  -9    2.30    2.10
   2   4   9    0.80    2.00
  -4  -4  -9    5.30    2.10
  -4  -4  -9    2.90    2.20
  -4  -4  -9    4.20    2.80
   4  -4   9    3.60    2.50
   4  -4   9    1.60    2.10
   4  -4   9   -1.50    2.10
   4   4   9    0.70    1.90
   4   4   9   -0.90    2.10
  -4   4  -9    0.50    2.30
   4   4   9    2.30    2.10
  -4   4  -9    3.70    2.50
   6  -4   9   63.29    6.30
  -6  -4  -9   71.19    6.30
  -6  -4  -9   69.79    5.10
   6  -4   9   67.89    5.50
  -6  -4  -9   78.59    6.20
   6  -4   9   69.79    5.70
  -6   4  -9   63.09    5.60
   6   4   9   71.59    5.70
   6   4   9   58.99    4.70
  -6   4  -9   78.39    6.10
   6   4   9   66.39    6.20
  -6   4  -9   77.09    5.90
  -5  -5   9  193.48   10.00
   5  -5  -9  186.38    8.10
   5  -5  -9  194.38   11.10
  -5  -5   9  202.58    9.20
   5  -5  -9  183.78    9.10
  -5   5   9  187.78   10.20
   5   5  -9  190.08   11.00
  -5   5   9  192.28    9.60
   5   5  -9  187.68    8.60
   5   5  -9  189.28    9.50
  -3  -5   9  321.07   11.30
   3  -5  -9  315.97   11.70
   3  -5  -9  313.57   14.30
   3  -5  -9  305.27   11.70
  -3  -5   9  327.57   13.20
  -3  -5   9  318.97   12.40
  -3   5   9  317.07   12.50
   3   5  -9  316.77   12.90
  -3   5   9  313.37   13.70
  -3   5   9  326.37   11.20
   3   5  -9  311.57   13.90
  -1  -5   9  243.48   11.10
   1  -5  -9  242.38   12.40
  -1  -5   9  252.37   10.60
  -1  -5   9  245.98   10.40
   1  -5  -9  249.08   10.30
   1   5  -9  249.68   10.90
  -1   5   9  249.48    9.60
   1   5  -9  247.38   10.90
  -1   5   9  241.88   11.70
   1   5  -9  234.48   11.20
  -1   5   9  250.37   10.40
   1  -5   9  130.39    6.30
   1  -5   9  150.58    8.00
  -1  -5  -9  145.09    9.10
  -1  -5  -9  145.79    7.70
   1  -5   9  139.69    8.20
   1  -5   9  139.89    6.00
   1  -5   9  144.39    8.10
  -1   5  -9  136.49    7.70
   1   5   9  133.09    6.90
  -1   5  -9  141.79    7.90
  -1   5  -9  137.69    7.70
   1   5   9  138.59    7.10
   1   5   9  132.79    8.60
   3  -5   9   59.89    5.80
  -3  -5  -9   61.49    5.40
  -3  -5  -9   62.39    4.30
  -3  -5  -9   64.29    6.20
   3  -5   9   68.59    5.10
   3  -5   9   73.09    5.90
   3   5   9   64.19    5.30
  -3   5  -9   64.69    5.40
  -3   5  -9   75.39    5.90
   3   5   9   70.79    4.90
   3   5   9   59.39    5.90
   5  -5   9  131.09    8.00
  -5  -5  -9  135.09    8.00
  -5  -5  -9  140.49    9.00
   5  -5   9  130.29    8.60
  -5  -5  -9  137.79    6.60
   5  -5   9  137.49    7.50
  -5   5  -9  118.89    7.80
   5   5   9  115.79    8.30
  -5   5  -9  127.89    7.60
   5   5   9  132.89    7.60
   2  -6  -9   -0.40    2.60
   2  -6  -9    0.30    2.30
  -2  -6   9    1.70    2.80
   2  -6  -9   -1.70    2.40
  -2  -6   9    4.50    2.90
  -2  -6   9    6.20    2.90
  -2   6   9    0.60    2.80
   2   6  -9   -3.50    2.50
  -2   6   9    4.80    3.00
   2   6  -9    0.50    2.30
  -2   6   9   -0.10    2.60
   0  -6   9   16.20    3.70
   0  -6  -9   12.70    3.40
   0  -6  -9   14.60    4.10
   0  -6   9   14.40    2.80
   0  -6   9   19.20    3.80
   0  -6   9   14.50    3.70
   0   6  -9   10.30    3.20
   0   6  -9   21.30    4.30
   0   6   9   18.90    3.70
   0   6   9   13.80    3.90
   0   6   9   18.50    3.60
   0   6  -9   16.40    3.60
  -2  -6  -9   32.80    4.70
   2  -6   9   32.10    5.20
   2  -6   9   27.00    4.50
  -2  -6  -9   32.80    5.80
   2  -6   9   33.50    4.40
   2  -6   9   30.60    4.60
   2   6   9   26.00    4.90
   2   6   9   33.70    4.40
  -2   6  -9   26.80    4.40
  -2   6  -9   26.00    4.20
  -2   6  -9   27.10    4.40
   2   6   9   30.80    4.70
  -8   0  10  169.88    9.30
   8   0 -10  166.88    8.60
   8   0 -10  182.78    8.80
  -8   0  10  183.58    9.60
   8   0 -10  185.98   11.00
  -6   0  10  271.57   10.70
  -6   0  10  266.07   11.70
   6   0 -10  289.57   13.80
  -6   0  10  289.97   11.80
   6   0 -10  274.07   11.10
  -4   0  10  243.58   10.20
   4   0 -10  239.58   10.10
   4   0 -10  237.18   11.90
  -4   0  10  235.98    9.90
  -4   0  10  240.58   10.60
   2   0 -10  325.87   13.80
  -2   0  10  308.57   12.10
  -2   0  10  291.57   11.90
   2   0 -10  301.57   12.00
  -2   0  10  308.17   12.00
   0   0 -10  896.81   25.60
   0   0  10  875.41   26.50
   0   0  10  878.81   26.00
   0   0  10  893.01   26.20
   0   0 -10  874.31   27.30
   0   0 -10  862.91   26.00
   2   0  10  362.36   10.50
   2   0  10  383.66   14.60
  -2   0 -10  371.16   13.90
  -2   0 -10  368.36   13.40
  -2   0 -10  364.36   14.00
   2   0  10  359.66   13.40
   4   0  10  117.39    7.60
  -4   0 -10  115.19    6.90
   4   0  10  109.89    6.60
  -4   0 -10  114.79    7.00
  -4   0 -10  114.09    6.80
   4   0  10  112.59    5.60
  -6   0 -10  126.39    7.80
   6   0  10  132.19    8.60
   6   0  10  132.59    6.90
  -6   0 -10  141.29    8.00
   6   0  10  139.99    7.70
   7  -1 -10   10.60    2.90
  -7  -1  10   10.60    3.20
  -7  -1  10   14.60    3.60
   7  -1 -10   11.30    3.70
  -7  -1  10   15.80    3.40
   7  -1 -10    9.70    3.00
   7   1 -10    8.20    3.40
   7   1 -10   13.70    3.00
  -7   1  10   17.30    3.80
  -7   1  10   11.90    3.00
   7   1 -10    5.00    2.60
  -7   1  10   18.80    3.80
  -5  -1  10   16.90    3.10
   5  -1 -10   16.60    3.10
  -5  -1  10   13.30    3.30
   5  -1 -10   16.50    4.00
  -5  -1  10   17.70    3.50
  -5   1  10   17.40    3.40
  -5   1  10   10.50    2.90
   5   1 -10   16.60    3.20
   5   1 -10   17.80    4.20
  -5   1  10   12.70    3.30
  -3  -1  10   16.10    3.50
   3  -1 -10   11.50    3.20
  -3  -1  10   15.90    3.00
   3  -1 -10   17.10    3.00
  -3  -1  10   13.30    3.00
  -3   1  10   12.00    2.90
  -3   1  10   10.30    2.90
   3   1 -10   10.10    2.60
  -3   1  10   14.00    3.00
   3   1 -10   14.30    3.70
   1  -1 -10   11.00    2.70
  -1  -1  10    8.90    2.70
   1  -1 -10    7.70    2.90
  -1  -1  10   13.70    2.90
  -1  -1  10   13.00    2.90
   1  -1 -10   12.30    2.80
  -1   1  10    3.90    2.40
   1   1 -10    7.90    2.90
  -1   1  10   12.30    2.80
  -1   1  10    8.30    2.50
   1   1 -10   13.00    2.90
   1   1 -10    7.70    2.20
  -1  -1 -10    0.20    2.30
   1  -1  10    4.90    2.30
  -1  -1 -10   -0.60    1.90
  -1  -1 -10   -0.70    1.80
   1  -1  10    0.80    2.10
  -1   1 -10    1.90    2.10
  -1   1 -10   -1.30    2.20
   1   1  10    1.80    2.30
  -1   1 -10    6.30    2.20
   1   1  10    0.30    2.00
  -3  -1 -10    8.10    2.50
  -3  -1 -10   12.90    3.10
   3  -1  10   12.90    2.20
  -3  -1 -10   10.20    2.80
   3  -1  10    8.40    2.70
   3  -1  10    9.60    2.60
   3   1  10    7.50    2.80
  -3   1 -10    6.50    2.40
   3   1  10   10.00    2.70
  -3   1 -10    8.80    2.90
   3   1  10    8.70    2.20
  -3   1 -10    8.50    2.60
   5  -1  10   49.90    5.30
  -5  -1 -10   49.20    4.90
   5  -1  10   45.50    4.30
   5  -1  10   47.20    4.80
  -5  -1 -10   52.79    4.90
  -5  -1 -10   52.29    5.30
   5   1  10   43.70    4.30
  -5   1 -10   49.10    5.20
  -5   1 -10   53.29    5.00
   5   1  10   46.80    4.50
   5   1  10   48.50    5.60
   7  -1  10    6.00    2.90
  -7  -1 -10   -0.50    2.70
   7  -1  10    2.10    2.50
   7  -1  10    4.50    2.50
  -7  -1 -10   -0.50    2.10
  -7  -1 -10   -1.60    2.50
   7   1  10    1.70    2.60
   7   1  10    1.20    2.60
  -7   1 -10    5.50    3.10
  -7   1 -10    1.20    2.70
   7   1  10   -1.00    2.30
   6  -2 -10  246.18   12.60
  -6  -2  10  256.57    9.50
   6  -2 -10  244.58   10.10
  -6  -2  10  253.97   11.10
  -6  -2  10  248.98   11.30
   6   2 -10  248.38   12.90
   6   2 -10  235.48   10.70
  -6   2  10  255.47   10.50
  -6   2  10  247.68   11.20
  -6   2  10  253.77   11.00
  -4  -2  10  500.45   15.70
  -4  -2  10  493.55   17.10
  -4  -2  10  477.45   17.10
   4  -2 -10  473.85   18.60
   4  -2 -10  504.75   16.40
  -4   2  10  473.75   16.90
   4   2 -10  480.05   18.80
   4   2 -10  476.15   16.80
  -4   2  10  492.45   17.10
  -4   2  10  503.05   16.10
   2  -2 -10  381.36   13.80
  -2  -2  10  387.96   14.50
  -2  -2  10  373.16   14.10
  -2  -2  10  387.66   13.70
   2  -2 -10  387.36   15.70
   2   2 -10  375.06   14.10
  -2   2  10  372.26   13.90
  -2   2  10  373.56   14.50
  -2   2  10  388.46   13.40
   2   2 -10  372.96   15.30
   0  -2  10  229.48   10.50
   0  -2  10  238.28   10.40
   0  -2  10  217.58   10.00
   0  -2 -10  230.48   11.30
   0  -2 -10  232.98   10.10
   0  -2 -10  223.08    9.20
   0   2  10  229.98    9.60
   0   2  10  223.58   10.60
   0   2  10  230.18    9.90
   0   2 -10  227.78   10.30
   0   2 -10  237.08   10.20
   0   2 -10  241.98   11.00
   2  -2  10  186.38    9.40
  -2  -2 -10  185.38    9.00
  -2  -2 -10  175.28    8.00
   2  -2  10  184.98    9.00
  -2  -2 -10  185.08    9.70
   2   2  10  173.48    6.90
  -2   2 -10  177.48    8.90
  -2   2 -10  191.28    9.00
   2   2  10  183.48    8.60
  -2   2 -10  187.48    9.20
   2   2  10  178.38    9.50
   4  -2  10  284.37   10.00
   4  -2  10  279.07   11.90
  -4  -2 -10  285.67   11.20
  -4  -2 -10  274.27   12.00
  -4  -2 -10  291.47   12.20
   4  -2  10  279.87   12.70
   4   2  10  302.57   10.50
  -4   2 -10  282.57   12.00
  -4   2 -10  304.57   12.30
   4   2  10  295.67   11.50
   4   2  10  278.77   12.90
   6  -2  10  160.98    9.60
  -6  -2 -10  159.98    8.50
   6  -2  10  171.28    8.00
  -6  -2 -10  163.98    9.00
  -6  -2 -10  166.38    8.60
   6  -2  10  165.38    8.80
   6   2  10  167.88    8.10
  -6   2 -10  165.58    8.90
   6   2  10  165.98    8.10
  -6   2 -10  154.68    8.90
   6   2  10  162.38    9.80
  -5  -3  10    2.10    2.50
   5  -3 -10    1.40    2.90
   5  -3 -10    2.70    2.30
  -5  -3  10    1.60    2.60
  -5  -3  10    0.10    2.60
   5   3 -10    3.70    2.40
   5   3 -10   -2.10    2.10
  -5   3  10    0.20    2.50
   5   3 -10   -0.30    3.00
  -5   3  10    0.80    2.40
  -5   3  10    5.20    3.10
  -3  -3  10    5.30    2.70
  -3  -3  10    3.50    2.40
   3  -3 -10    6.10    3.10
   3  -3 -10    7.10    2.40
  -3  -3  10    9.00    2.90
  -3   3  10    6.80    2.80
   3   3 -10    6.80    2.60
  -3   3  10    7.10    2.60
   3   3 -10    3.30    3.00
  -3   3  10    8.80    2.70
   1  -3 -10   66.29    5.20
   1  -3 -10   67.09    6.20
  -1  -3  10   67.39    5.50
  -1  -3  10   68.29    5.40
  -1  -3  10   65.29    5.30
   1   3 -10   58.59    5.30
   1   3 -10   62.19    5.30
  -1   3  10   68.59    4.90
  -1   3  10   57.29    5.50
  -1   3  10   72.29    5.50
   1   3 -10   69.39    6.20
  -1  -3 -10   20.20    3.40
   1  -3  10   27.60    4.00
  -1  -3 -10   28.10    3.90
  -1  -3 -10   23.10    4.50
   1  -3  10   24.00    4.10
   1   3  10   21.20    4.10
   1   3  10   24.60    3.80
  -1   3 -10   18.00    3.60
   1   3  10   21.40    3.30
  -1   3 -10   28.50    3.80
   1   3  10   24.00    3.50
  -1   3 -10   24.50    3.90
  -3  -3 -10   19.90    3.60
   3  -3  10   20.30    3.00
  -3  -3 -10   26.90    3.80
  -3  -3 -10   26.70    4.80
   3  -3  10   22.80    3.90
   3  -3  10   22.40    4.10
  -3   3 -10   26.30    4.20
  -3   3 -10   18.60    3.60
   3   3  10   24.20    4.40
  -3   3 -10   26.30    4.30
   3   3  10   23.50    3.30
   3   3  10   22.10    3.80
  -5  -3 -10    0.60    2.50
   5  -3  10    5.00    2.90
   5  -3  10    7.20    2.80
   5  -3  10    2.40    2.50
  -5  -3 -10    4.30    3.10
  -5  -3 -10    5.90    2.90
   5   3  10    2.70    2.50
  -5   3 -10   -2.30    2.30
  -5   3 -10    5.10    2.80
   5   3  10    1.60    2.10
  -5   3 -10    4.10    2.80
   5   3  10   -0.70    2.50
   4  -4 -10  133.59    9.20
  -4  -4  10  134.99    7.80
  -4  -4  10  124.29    6.80
  -4  -4  10  142.09    8.30
   4  -4 -10  130.29    7.00
   4   4 -10  130.59    9.00
  -4   4  10  131.99    8.00
   4   4 -10  124.99    7.70
  -4   4  10  135.49    8.50
  -2  -4  10  182.88    9.70
   2  -4 -10  199.18   11.00
   2  -4 -10  193.38    9.00
  -2  -4  10  197.28    9.50
  -2  -4  10  195.48    8.90
  -2   4  10  188.08   10.20
  -2   4  10  180.68    9.00
   2   4 -10  179.88   10.20
   2   4 -10  192.98    9.60
   0  -4 -10  147.69    9.30
   0  -4  10  127.99    7.90
   0  -4  10  151.68    8.20
   0  -4 -10  142.39    7.80
   0  -4  10  140.99    8.10
   0   4  10  133.89    8.40
   0   4 -10  145.49    8.10
   0   4  10  141.49    7.50
   0   4 -10  136.89    7.90
   0   4 -10  137.39    8.30
   0   4  10  146.29    6.60
  -2  -4 -10  285.07   13.20
   2  -4  10  276.97   12.40
   2  -4  10  280.97   12.30
  -2  -4 -10  297.07   10.50
  -2  -4 -10  290.37   12.20
  -2   4 -10  278.37   11.70
   2   4  10  289.87   10.70
  -2   4 -10  274.77   12.10
   2   4  10  294.87   11.40
  -2   4 -10  309.47   12.60
   2   4  10  273.57   12.90
   4  -4  10  386.76   15.90
  -4  -4 -10  388.76   13.20
   4  -4  10  384.86   15.00
  -4  -4 -10  378.16   15.80
  -4  -4 -10  402.26   15.30
   4  -4  10  390.36   13.30
  -4   4 -10  389.36   14.90
   4   4  10  389.26   13.70
   4   4  10  394.16   13.90
   4   4  10  369.76   15.90
  -4   4 -10  387.76   15.20
  -4   0  11   -3.30    2.50
   4   0 -11    3.50    3.20
  -4   0  11    3.50    2.40
   4   0 -11   -2.20    2.00
  -4   0  11    1.90    2.50
   2   0 -11    3.90    2.80
  -2   0  11   -1.40    2.60
  -2   0  11   -2.70    2.10
   2   0 -11    0.20    1.90
  -2   0  11    1.00    2.50
   0   0  11   -1.90    2.10
   0   0 -11    0.10    2.60
   0   0  11    4.00    2.70
   0   0 -11    2.40    2.20
   0   0  11    4.10    2.40
   0   0 -11   11.00    3.00
  -2   0 -11    0.90    2.00
  -2   0 -11   -0.90    2.60
   2   0  11    1.30    3.00
   2   0  11    1.50    2.50
  -2   0 -11    0.00    2.60
  -4   0 -11   -2.40    2.50
   4   0  11    0.10    2.40
  -4   0 -11   -3.30    2.20
   4   0  11    1.20    2.50
  -4   0 -11    2.40    2.90
   3  -1 -11  126.29    8.90
  -3  -1  11  138.39    8.00
  -3  -1  11  131.59    7.90
  -3  -1  11  137.59    8.00
   3  -1 -11  133.69    7.70
  -3   1  11  144.09    7.80
   3   1 -11  139.49    7.90
   3   1 -11  131.99    9.00
  -3   1  11  139.19    8.10
  -3   1  11  128.79    7.80
  -1  -1  11  213.28   10.10
   1  -1 -11  222.38   10.20
  -1  -1  11  211.28   10.10
  -1  -1  11  204.48   10.10
   1  -1 -11  205.98   11.00
   1  -1 -11  209.78    9.50
   1   1 -11  204.38   10.90
   1   1 -11  210.48    9.90
  -1   1  11  209.78    9.80
   1   1 -11  211.78   10.10
  -1   1  11  207.28   10.00
  -1   1  11  225.78   10.60
   1  -1  11  151.28    8.80
   1  -1  11  161.98    8.70
  -1  -1 -11  174.28    8.30
  -1  -1 -11  155.58    9.20
  -1  -1 -11  155.68    8.50
  -1   1 -11  157.98    8.70
   1   1  11  162.58    8.50
  -1   1 -11  153.48    8.90
   1   1  11  163.88    8.50
   1   1  11  160.98    9.30
  -1   1 -11  155.58    8.30
  -3  -1 -11  127.29    7.90
   3  -1  11  128.49    7.80
  -3  -1 -11  124.19    7.40
   3  -1  11  126.49    8.40
  -3  -1 -11  128.99    8.10
  -3   1 -11  128.39    7.90
   3   1  11  128.29    8.50
   3   1  11  123.49    7.50
  -3   1 -11  130.49    7.80
  -3   1 -11  131.69    7.80
   2  -2 -11   15.50    4.30
   2  -2 -11   17.40    3.40
  -2  -2  11   12.40    3.40
  -2  -2  11   13.00    3.40
  -2  -2  11   17.40    3.80
  -2   2  11   14.10    3.60
   2   2 -11    9.50    3.70
  -2   2  11   12.30    3.30
  -2   2  11   16.70    3.60
   2   2 -11   14.50    3.40
   0  -2 -11   -1.20    2.00
   0  -2  11    2.10    2.80
   0  -2 -11    2.20    2.40
   0  -2  11    1.90    2.90
   0  -2 -11    0.00    2.80
   0  -2  11    1.90    2.50
   0   2  11    6.90    2.90
   0   2  11    0.40    2.70
   0   2 -11    3.50    2.40
   0   2 -11    1.60    2.60
   0   2  11    1.40    2.40
   0   2 -11    3.30    2.50
   2  -2  11    1.40    2.40
  -2  -2 -11   -0.30    2.70
   2  -2  11   -1.60    2.50
  -2  -2 -11    1.10    2.30
  -2  -2 -11   -0.20    2.20
  -2   2 -11    2.00    3.30
   2   2  11    0.90    2.50
  -2   2 -11    1.80    2.30
  -2   2 -11   -1.90    2.00
   2   2  11    3.10    2.30
   0   0   0    0.00    0.00

_computing_structure_solution     'SHELXT 2014/5 (Sheldrick, 2014)'
;
_shelx_hkl_checksum              94060
loop_
_space_group_symop_operation_xyz
'x, y, z'
'-x, y, -z+1/2'
'x+1/2, y+1/2, z'
'-x+1/2, y+1/2, -z+1/2'
'-x, -y, -z'
'x, -y, z-1/2'
'-x+1/2, -y+1/2, -z'
'x+1/2, -y+1/2, z-1/2'
loop_
_atom_site_label
_atom_site_type_symbol
_atom_site_fract_x
_atom_site_fract_y
_atom_site_fract_z
_atom_site_U_iso_or_equiv
_atom_site_adp_type
_atom_site_occupancy
_atom_site_site_symmetry_order
_atom_site_calc_flag
_atom_site_refinement_flags_posn
_atom_site_refinement_flags_adp
_atom_site_refinement_flags_occupancy
_atom_site_disorder_assembly
_atom_site_disorder_group
Co1 Co 0.250000 0.750000 0.500000 0.01631(15) Uani 1 2 d S . P . .
O1 O 0.29753(18) 0.8372(3) 0.7182(2) 0.0333(5) Uani 1 1 d . . . . .
C1 C 0.4991(2) 0.6749(4) 0.5098(4) 0.0340(6) Uani 1 1 d . . . . .
H1 H 0.501492 0.797632 0.516916 0.041 Uiso 1 1 calc R U . . .
N1 N 0.40164(17) 0.5947(3) 0.4975(2) 0.0230(4) Uani 1 1 d . . . . .
O2 O 0.32895(16) 1.0321(2) 0.9029(2) 0.0271(4) Uani 1 1 d . . . . .
C2 C 0.4035(2) 0.4193(4) 0.4878(4) 0.0338(6) Uani 1 1 d . . . . .
H2 H 0.337414 0.358148 0.479060 0.041 Uiso 1 1 calc R U . . .
C3 C 0.3194(2) 0.9851(4) 0.7656(3) 0.0298(6) Uani 1 1 d . . . . .
H3 H 0.330108 1.072109 0.691114 0.036 Uiso 1 1 calc R U . . .
loop_
_atom_site_aniso_label
_atom_site_aniso_U_11
_atom_site_aniso_U_22
_atom_site_aniso_U_33
_atom_site_aniso_U_23
_atom_site_aniso_U_13
_atom_site_aniso_U_12
Co1 0.0209(2) 0.0126(2) 0.0154(2) -0.00014(14) -0.00250(15) 0.00187(15)
O1 0.0547(13) 0.0232(9) 0.0218(9) -0.0030(7) -0.0081(8) -0.0039(9)
C1 0.0241(12) 0.0167(11) 0.0613(19) -0.0041(11) -0.0017(12) 0.0018(10)
N1 0.0212(9) 0.0182(9) 0.0295(11) -0.0019(8) -0.0028(8) 0.0032(7)
O2 0.0344(10) 0.0229(9) 0.0238(9) -0.0059(7) -0.0044(7) 0.0041(7)
C2 0.0205(11) 0.0204(12) 0.0604(19) -0.0044(12) -0.0039(11) 0.0004(9)
C3 0.0470(15) 0.0213(11) 0.0211(11) -0.0013(9) -0.0004(10) 0.0004(11)
loop_
_atom_type_symbol
_atom_type_description
_atom_type_scat_dispersion_real
_atom_type_scat_dispersion_imag
_atom_type_scat_source
C C 0.0033 0.0016 'International Tables Vol C Tables 4.2.6.8 and 6.1.1.4'
H H 0.0000 0.0000 'International Tables Vol C Tables 4.2.6.8 and 6.1.1.4'
Co Co 0.3494 0.9721 'International Tables Vol C Tables 4.2.6.8 and 6.1.1.4'
N N 0.0061 0.0033 'International Tables Vol C Tables 4.2.6.8 and 6.1.1.4'
O O 0.0106 0.0060 'International Tables Vol C Tables 4.2.6.8 and 6.1.1.4'
loop_
_geom_angle_atom_site_label_1
_geom_angle_atom_site_label_2
_geom_angle_atom_site_label_3
_geom_angle
_geom_angle_site_symmetry_1
_geom_angle_site_symmetry_3
_geom_angle_publ_flag
O1 Co1 O1 180.0 7_566 . ?
O1 Co1 O2 90.61(7) 7_566 6_575 ?
O1 Co1 O2 89.39(7) . 6_575 ?
O1 Co1 O2 89.39(7) 7_566 4_546 ?
O1 Co1 O2 90.61(7) . 4_546 ?
O2 Co1 O2 180.0 6_575 4_546 ?
O1 Co1 N1 92.80(8) 7_566 . ?
O1 Co1 N1 87.20(8) . . ?
O2 Co1 N1 91.61(8) 6_575 . ?
O2 Co1 N1 88.39(8) 4_546 . ?
O1 Co1 N1 87.20(8) 7_566 7_566 ?
O1 Co1 N1 92.80(8) . 7_566 ?
O2 Co1 N1 88.39(8) 6_575 7_566 ?
O2 Co1 N1 91.61(8) 4_546 7_566 ?
N1 Co1 N1 180.0 . 7_566 ?
C3 O1 Co1 130.92(18) . . ?
N1 C1 C2 121.9(2) . 5_666 ?
N1 C1 H1 119.1 . . ?
C2 C1 H1 119.1 5_666 . ?
C2 N1 C1 116.2(2) . . ?
C2 N1 Co1 123.45(18) . . ?
C1 N1 Co1 120.30(17) . . ?
C3 O2 Co1 124.76(18) . 4_556 ?
N1 C2 C1 121.9(3) . 5_666 ?
N1 C2 H2 119.1 . . ?
C1 C2 H2 119.1 5_666 . ?
O1 C3 O2 127.0(3) . . ?
O1 C3 H3 116.5 . . ?
O2 C3 H3 116.5 . . ?
loop_
_geom_bond_atom_site_label_1
_geom_bond_atom_site_label_2
_geom_bond_distance
_geom_bond_site_symmetry_2
_geom_bond_publ_flag
Co1 O1 2.0740(18) 7_566 ?
Co1 O1 2.0740(18) . ?
Co1 O2 2.0853(18) 6_575 ?
Co1 O2 2.0853(18) 4_546 ?
Co1 N1 2.186(2) . ?
Co1 N1 2.186(2) 7_566 ?
O1 C3 1.219(3) . ?
C1 N1 1.334(3) . ?
C1 C2 1.382(4) 5_666 ?
C1 H1 0.9300 . ?
N1 C2 1.328(3) . ?
O2 C3 1.243(3) . ?
C2 H2 0.9300 . ?
C3 H3 0.9300 . ?
