#------------------------------------------------------------------------------
#$Date: 2021-09-03 23:23:46 +0300 (Fri, 03 Sep 2021) $
#$Revision: 268429 $
#$URL: file:///home/coder/svn-repositories/cod/cif/4/51/90/4519004.cif $
#------------------------------------------------------------------------------
#
# This file is available in the Crystallography Open Database (COD),
# http://www.crystallography.net/
#
# All data on this site have been placed in the public domain by the
# contributors.
#
data_4519004
loop_
_publ_author_name
'Bhattacharya, Anwesha'
'Thirupathi, Annaram'
'Natarajan, Pradeep'
'Peruncheralathan, Saravanan'
_publ_section_title
;
 Chemoselective Ullmann Reaction of \a-Trisubstituted Thioamides:
 Synthesis of Novel 2-Iminobenzothiolanes.
;
_journal_issue                   32
_journal_name_full               'ACS omega'
_journal_page_first              21169
_journal_page_last               21180
_journal_paper_doi               10.1021/acsomega.1c03410
_journal_volume                  6
_journal_year                    2021
_chemical_formula_moiety         'C16 H12 N2 S'
_chemical_formula_sum            'C16 H12 N2 S'
_chemical_formula_weight         264.35
_space_group_crystal_system      triclinic
_space_group_IT_number           2
_space_group_name_Hall           '-P 1'
_space_group_name_H-M_alt        'P -1'
_symmetry_Int_Tables_number      2
_atom_sites_solution_primary     dual
_audit_creation_date             2021-02-13
_audit_creation_method
;
Olex2 1.2
(compiled 2017.08.10 svn.r3458 for OlexSys, GUI svn.r5381)
;
_cell_angle_alpha                106.308(2)
_cell_angle_beta                 104.374(2)
_cell_angle_gamma                103.637(2)
_cell_formula_units_Z            2
_cell_length_a                   8.1526(2)
_cell_length_b                   9.0963(2)
_cell_length_c                   10.4069(2)
_cell_measurement_reflns_used    9073
_cell_measurement_temperature    293(2)
_cell_measurement_theta_max      76.9820
_cell_measurement_theta_min      4.7100
_cell_volume                     677.68(3)
_computing_cell_refinement       'CrysAlisPro 1.171.39.45g (Rigaku OD, 2018)'
_computing_data_collection       'CrysAlisPro 1.171.39.45g (Rigaku OD, 2018)'
_computing_data_reduction        'CrysAlisPro 1.171.39.45g (Rigaku OD, 2018)'
_computing_molecular_graphics    'Olex2 (Dolomanov et al., 2009)'
_computing_publication_material  'Olex2 (Dolomanov et al., 2009)'
_computing_structure_refinement  'olex2.refine (Bourhis et al., 2015)'
_computing_structure_solution    'ShelXT (Sheldrick, 2015)'
_diffrn_ambient_temperature      291(2)
_diffrn_detector                 'CCD plate'
_diffrn_detector_type            'Pilatus 200K'
_diffrn_measured_fraction_theta_full 0.9750
_diffrn_measured_fraction_theta_max 0.9750
_diffrn_measurement_details
;
List of Runs (angles in degrees, time in seconds):

  # Type    Start    End  Width  t~exp~   \w     \q     \k     \f   Frames
--------------------------------------------------------------------------
  1  \w   -105.00 -36.00   0.15    0.20    --  -38.50 -35.00 143.00  460
  2  \w    -42.00  27.90   0.15    0.20    --  -38.50  35.00 -59.00  466
  3  \w    -18.00  51.90   0.15    0.20    --   49.31 -35.00 143.00  466
  4  \w     46.00 115.00   0.15    0.20    --   49.31  35.00 -59.00  460
  5  \w    103.00 172.00   0.15    0.80    --  106.38  35.00 -59.00  460
  6  \w     40.00 109.00   0.15    0.80    --  106.38 -35.00 143.00  460
  7  \w    -42.00  27.00   0.15    0.20    --  -38.50  37.00-180.00  460
  8  \w   -108.00 -33.00   0.15    0.20    --  -38.50 -19.00   0.00  500
  9  \w     24.00  99.00   0.15    0.20    --   49.31-125.00   0.00  500
 10  \w     46.00 115.00   0.15    0.20    --   49.31  37.00-180.00  460
 11  \w      2.00  83.90   0.15    0.20    --   49.31 -99.00  60.00  546
 12  \w    102.00 171.00   0.15    0.80    --  106.38  45.00 -30.00  460
 13  \w     38.00 113.90   0.15    0.80    --  106.38 -15.00 -30.00  506
 14  \w     38.00 110.00   0.15    0.80    --  106.38 -30.00 -60.00  480
 15  \w     98.00 173.90   0.15    0.80    --  106.38  15.00 -90.00  506
 16  \w     44.00 119.00   0.15    0.80    --  106.38 -61.00  60.00  500
 17  \w    102.00 171.00   0.15    0.80    --  106.38  45.00 -90.00  460
 18  \w     42.00 117.00   0.15    0.80    --  106.38-125.00-120.00  500
 19  \w     42.00 117.00   0.15    0.80    --  106.38-125.00 120.00  500
 20  \w     44.00 119.00   0.15    0.80    --  106.38 -61.00-120.00  500
 21  \w     42.00 111.00   0.15    0.80    --  106.38 -45.00  60.00  460
 22  \w     44.00 119.00   0.15    0.80    --  106.38 -61.00 -90.00  500
 23  \w    103.00 175.00   0.15    0.80    --  106.38  30.00   0.00  480
 24  \w     44.00 119.00   0.15    0.80    --  106.38 -61.00-180.00  500
 25  \w     42.00 117.00   0.15    0.80    --  106.38-125.00 -60.00  500
 26  \w     42.00 117.00   0.15    0.80    --  106.38-125.00-180.00  500
 27  \w     38.00 110.00   0.15    0.80    --  106.38 -94.00   0.00  480
 28  \w     38.00 110.00   0.15    0.80    --  106.38 -94.00-180.00  480
 29  \w     26.00 113.00   0.15    0.20    --   49.31  77.00-150.00  580
 30  \w     26.00 113.00   0.15    0.20    --   49.31  77.00   0.00  580
 31  \w     26.00 113.00   0.15    0.20    --   49.31  77.00 -60.00  580
 32  \w     38.00 110.90   0.15    0.20    --   49.31  57.00  90.00  486
;
_diffrn_measurement_device       'four-circle diffractometer'
_diffrn_measurement_device_type
'SuperNova, Dual, Cu at home/near, Pilatus 200K'
_diffrn_measurement_method       '\w scans'
_diffrn_orient_matrix_type
'CrysAlisPro convention (1999,Acta A55,543-557)'
_diffrn_orient_matrix_UB_11      0.0841162000
_diffrn_orient_matrix_UB_12      0.1859345000
_diffrn_orient_matrix_UB_13      0.0547707000
_diffrn_orient_matrix_UB_21      -0.1600161000
_diffrn_orient_matrix_UB_22      0.0183068000
_diffrn_orient_matrix_UB_23      0.0489204000
_diffrn_orient_matrix_UB_31      0.0998904000
_diffrn_orient_matrix_UB_32      -0.0003164000
_diffrn_orient_matrix_UB_33      0.1464473000
_diffrn_radiation_monochromator  mirror
_diffrn_radiation_probe          x-ray
_diffrn_radiation_type           'Cu K\a'
_diffrn_radiation_wavelength     1.54184
_diffrn_reflns_av_R_equivalents  0.0355
_diffrn_reflns_av_unetI/netI     0.0225
_diffrn_reflns_limit_h_max       10
_diffrn_reflns_limit_h_min       -10
_diffrn_reflns_limit_k_max       10
_diffrn_reflns_limit_k_min       -11
_diffrn_reflns_limit_l_max       13
_diffrn_reflns_limit_l_min       -9
_diffrn_reflns_number            10388
_diffrn_reflns_theta_full        77.3902
_diffrn_reflns_theta_max         77.39
_diffrn_reflns_theta_min         4.70
_diffrn_source                   'micro-focus sealed X-ray tube'
_diffrn_source_type              'SuperNova (Cu) X-ray Source'
_exptl_absorpt_coefficient_mu    1.996
_exptl_absorpt_correction_T_max  1.00000
_exptl_absorpt_correction_T_min  0.50304
_exptl_absorpt_correction_type   multi-scan
_exptl_absorpt_process_details
;
CrysAlisPro 1.171.39.45g (Rigaku Oxford Diffraction, 2018)
Empirical absorption correction using spherical harmonics,
 implemented in SCALE3 ABSPACK scaling algorithm.
;
_exptl_crystal_density_diffrn    1.2954
_exptl_crystal_description       needle
_exptl_crystal_F_000             277.3708
_exptl_crystal_preparation       'Slow diffusion'
_exptl_crystal_recrystallization_method 'Slow evapouration'
_exptl_crystal_size_max          0.6
_exptl_crystal_size_mid          0.2
_exptl_crystal_size_min          0.2
_refine_diff_density_max         0.1951
_refine_diff_density_min         -0.2711
_refine_diff_density_rms         0.0445
_refine_ls_d_res_high            0.7900
_refine_ls_d_res_low             9.4034
_refine_ls_goodness_of_fit_ref   1.0462
_refine_ls_hydrogen_treatment    constr
_refine_ls_matrix_type           full
_refine_ls_number_constraints    22
_refine_ls_number_parameters     173
_refine_ls_number_reflns         2813
_refine_ls_number_restraints     0
_refine_ls_restrained_S_all      1.0462
_refine_ls_R_factor_all          0.0424
_refine_ls_R_factor_gt           0.0408
_refine_ls_shift/su_max          0.0000
_refine_ls_shift/su_mean         0.0000
_refine_ls_structure_factor_coef Fsqd
_refine_ls_weighting_details
'w=1/[\s^2^(Fo^2^)+(0.0539P)^2^+0.2015P] where P=(Fo^2^+2Fc^2^)/3'
_refine_ls_weighting_scheme      calc
_refine_ls_wR_factor_gt          0.1094
_refine_ls_wR_factor_ref         0.1105
_reflns_Friedel_coverage         0.0
_reflns_limit_h_max              9
_reflns_limit_h_min              -10
_reflns_limit_k_max              10
_reflns_limit_k_min              -11
_reflns_limit_l_max              13
_reflns_limit_l_min              0
_reflns_number_gt                2645
_reflns_number_total             2813
_reflns_threshold_expression     I>=2u(I)
_iucr_refine_instructions_details
;
TITL peru_aw_73_a.res in P-1
REM Old TITL PERU_AW_73 in P-1
REM SHELXT solution in P-1
REM R1 0.140, Rweak 0.012, Alpha 0.040, Orientation as input
REM Formula found by SHELXT: C16 N2 S
CELL 1.54184 8.1526 9.0963 10.4069 106.308 104.374 103.637
ZERR 2 0.0002 0.0002 0.0002 0.002 0.002 0.002
LATT 1
SFAC C H N S
UNIT 32 24 4 2

L.S. 4
PLAN  5
SIZE 0.2 0.2 0.6
TEMP 19.85
BOND $H
LIST 6
fmap 2
ACTA 
WGHT 0.053926 0.201546
FVAR 1.131847
REM <olex2.extras>
REM <HklSrc "%.\\PERU_AW_73.hkl">
REM </olex2.extras>

S1    4     0.52144  0.41504  0.69463  11.00000  0.04701  0.05706  0.05022 =
 0.01216  0.01700  0.02752 
N10   3     0.17573  0.31976  0.51757  11.00000  0.05137  0.05391  0.04703 =
 0.00926  0.01068  0.02378 
C4    1     0.43551  0.64571  0.85679  11.00000  0.04565  0.04556  0.04090 =
 0.01686  0.01574  0.01792 
C3    1     0.27614  0.57160  0.72051  11.00000  0.04580  0.04584  0.04307 =
 0.01403  0.01448  0.02233 
C20   1     0.57041  0.57722  0.85447  11.00000  0.04375  0.05110  0.04283 =
 0.01931  0.01717  0.01843 
N18   3    -0.01948  0.49649  0.77766  11.00000  0.05773  0.07701  0.08121 =
 0.02028  0.03036  0.02966 
C11   1     0.20115  0.18255  0.42884  11.00000  0.04325  0.04771  0.04629 =
 0.00903  0.01118  0.01739 
C24   1     0.72573  0.63385  0.97104  11.00000  0.04563  0.06943  0.05073 =
 0.02518  0.01473  0.02075 
AFIX 43
H24   2     0.81579  0.58751  0.96955  11.00000 -1.20000 
AFIX 0
C17   1     0.10825  0.52682  0.75094  11.00000  0.04822  0.05099  0.05121 =
 0.01291  0.01657  0.02542 
C21   1     0.30038  0.41874  0.62864  11.00000  0.04690  0.04721  0.04300 =
 0.01643  0.01753  0.02227 
C5    1     0.45548  0.77325  0.97570  11.00000  0.06166  0.05193  0.04730 =
 0.01422  0.02030  0.02504 
AFIX 43
H5    2     0.36601  0.82033  0.97716  11.00000 -1.20000 
AFIX 0
C19   1     0.26955  0.68824  0.63787  11.00000  0.06440  0.05471  0.05307 =
 0.02210  0.01201  0.02700 
AFIX 137
H19a  2     0.25232  0.78363  0.69325  11.00000 -1.50000 
H19b  2     0.38025  0.71836  0.61979  11.00000 -1.50000 
H19c  2     0.17198  0.63524  0.54919  11.00000 -1.50000 
AFIX 0
C12   1     0.18883  0.17037  0.29138  11.00000  0.06884  0.05147  0.05905 =
 0.02261  0.02944  0.02189 
AFIX 43
H12   2     0.16661  0.25165  0.25909  11.00000 -1.20000 
AFIX 0
C6    1     0.61019  0.83018  1.09264  11.00000  0.07103  0.05637  0.04258 =
 0.01007  0.01643  0.01427 
AFIX 43
H6    2     0.62441  0.91534  1.17351  11.00000 -1.20000 
AFIX 0
C14   1     0.23865 -0.08609  0.24743  11.00000  0.07309  0.05281  0.06475 =
 0.00936  0.03107  0.02513 
AFIX 43
H14   2     0.25357 -0.17524  0.18713  11.00000 -1.20000 
AFIX 0
C7    1     0.74356  0.76092  1.08964  11.00000  0.05307  0.07109  0.04462 =
 0.01892  0.00831  0.01054 
AFIX 43
H7    2     0.84707  0.80046  1.16874  11.00000 -1.20000 
AFIX 0
C13   1     0.20970  0.03649  0.20150  11.00000  0.08916  0.06322  0.05906 =
 0.01970  0.04266  0.02629 
AFIX 43
H13   2     0.20408  0.02949  0.10953  11.00000 -1.20000 
AFIX 0
C16   1     0.22635  0.05781  0.47286  11.00000  0.10085  0.06494  0.04421 =
 0.01797  0.01936  0.04013 
AFIX 43
H16   2     0.23065  0.06345  0.56432  11.00000 -1.20000 
AFIX 0
C15   1     0.24530 -0.07584  0.38194  11.00000  0.09750  0.05614  0.06484 =
 0.02095  0.02174  0.03874 
AFIX 43
H15   2     0.26271 -0.15932  0.41279  11.00000 -1.20000 
AFIX 0
HKLF 4

END
Q1 1 0.28 0.2 0.361111 11 0.05 0.2
Q2 1 0.28 0.5 0.666667 11 0.05 0.19
Q3 1 0.56 0.533333 0.777778 11 0.05 0.18
Q4 1 0.36 0.6 0.805556 11 0.05 0.18
Q5 1 0.48 0.3 0.638889 11 0.05 0.17

  REM The information below was added by Olex2.
  REM
  REM R1 = 0.0408 for 2645 Fo > 4sig(Fo) and 0.0424 for all 2813 data
  REM 173 parameters refined using 0 restraints
  REM Highest difference peak 0.1951, deepest hole -0.2711
  REM Mean Shift 0.0000, Max Shift 0.0000.

  REM +++ Tabular Listing of Refinement Information +++
  REM R1_all = 0.0424
  REM R1_gt = 0.0408
  REM wR_ref = 0.1105
  REM GOOF = 1.0462
  REM Shift_max = 0.0000
  REM Shift_mean = 0.0000
  REM Reflections_all = 2813
  REM Reflections_gt = 2645
  REM Parameters = 173
  REM Hole = -0.2711
  REM Peak = 0.1951
  REM Flack = n/a

  
;
_cod_data_source_file            ao1c03410_si_002.cif
_cod_data_source_block           PERU_AW_73
_cod_depositor_comments
;
The following automatic conversions were performed:

data item '_diffrn_ambient_temperature' value '291 (2)' was changed
to '291(2)' -- the value was reformatted.

Automatic conversion script
Id: cif_fix_values 7556 2019-12-06 15:28:31Z antanas 
;
_cod_database_code               4519004
_chemical_oxdiff_formula         'C32 H24 N4 S2 '
_reflns_odcompleteness_completeness 99.96
_reflns_odcompleteness_iscentric 1
_reflns_odcompleteness_theta     66.97
_olex2_refinement_description
;
1. Fixed Uiso
 At 1.2 times of:
  All C(H) groups
 At 1.5 times of:
  All C(H,H,H) groups
2.a Aromatic/amide H refined with riding coordinates:
 C24(H24), C5(H5), C12(H12), C6(H6), C14(H14), C7(H7), C13(H13), C16(H16),
 C15(H15)
2.b Idealised Me refined as rotating group:
 C19(H19a,H19b,H19c)
;
_iucr_refine_fcf_details
;
data_PERU_AW_73
_computing_structure_refinement   'olex2.refine (Bourhis et al., 2015)'
_shelx_refln_list_code            4
loop_
  _space_group_symop_id
  _space_group_symop_operation_xyz
  1  x,y,z
  2  -x,-y,-z

_space_group_crystal_system       triclinic
_space_group_IT_number            2
_space_group_name_H-M_alt         'P -1'
_space_group_name_Hall            '-P 1'
_symmetry_space_group_name_H-M    'P -1'
_symmetry_space_group_name_Hall   '-P 1'
_symmetry_Int_Tables_number       2
_cell_length_a                    8.1526(2)
_cell_length_b                    9.0963(2)
_cell_length_c                    10.4069(2)
_cell_angle_alpha                 106.308(2)
_cell_angle_beta                  104.374(2)
_cell_angle_gamma                 103.637(2)
_cell_volume                      677.68(3)
loop_
  _refln_index_h
  _refln_index_k
  _refln_index_l
  _refln_F_squared_calc
  _refln_F_squared_meas
  _refln_F_squared_sigma
  _refln_F_squared_weight
  _refln_observed_status
-10 0 4 9.467 6.104 0.500 14.281 o
-10 1 3 0.014 0.055 0.148 1106.910 o
-10 1 4 5.878 4.950 0.355 22.769 o
-10 1 5 5.509 4.363 0.773 17.857 o
-10 1 6 0.579 0.172 0.085 313.683 o
-10 2 1 0.119 0.008 0.086 1274.470 o
-10 2 2 50.129 40.294 1.553 1.671 o
-10 2 3 14.085 11.296 0.456 9.065 o
-10 2 4 1.106 1.095 0.127 126.058 o
-10 2 5 30.825 24.213 0.769 3.487 o
-10 2 6 2.720 1.943 0.398 45.349 o
-10 3 1 0.356 0.219 0.141 369.431 o
-10 3 2 31.107 27.478 2.486 2.059 o
-10 3 3 14.556 13.201 0.500 8.303 o
-10 3 4 0.737 1.026 0.215 141.125 o
-10 3 5 50.661 32.885 0.908 1.946 o
-10 4 1 8.798 5.324 0.414 16.208 o
-10 4 2 0.708 0.889 0.129 176.162 o
-10 4 3 17.859 15.947 0.539 6.592 o
-10 4 4 0.084 0.080 0.064 1467.490 o
-10 5 2 0.048 0.023 0.070 2356.570 o
-10 5 3 23.108 17.540 0.703 5.005 o
-9 -3 5 25.262 16.674 0.976 4.401 o
-9 -2 3 7.624 8.135 0.554 14.835 o
-9 -2 4 11.607 10.197 1.214 7.473 o
-9 -2 5 32.081 28.238 0.961 3.082 o
-9 -2 6 1.123 0.835 0.185 124.703 o
-9 -2 7 4.128 3.316 0.363 32.003 o
-9 -2 8 1.924 1.460 0.242 71.861 o
-9 -1 1 34.778 33.550 1.163 2.602 o
-9 -1 2 8.274 8.251 0.734 12.684 o
-9 -1 3 56.121 64.625 2.560 1.068 o
-9 -1 4 0.365 0.434 0.149 302.526 o
-9 -1 5 4.798 6.260 0.366 23.811 o
-9 -1 6 1.648 1.626 0.204 80.186 o
-9 -1 7 0.071 0.086 0.117 1050.520 o
-9 0 1 22.138 25.842 0.852 4.339 o
-9 0 2 16.834 18.976 1.171 5.252 o
-9 0 3 59.324 65.823 1.687 1.162 o
-9 0 4 7.203 8.869 0.435 15.807 o
-9 0 5 8.491 10.559 0.570 12.594 o
-9 0 6 3.245 2.982 0.258 41.657 o
-9 0 7 2.568 2.208 0.223 54.383 o
-9 0 8 1.527 1.060 0.174 97.610 o
-9 1 1 22.949 26.695 0.911 4.114 o
-9 1 2 16.603 19.623 0.763 6.056 o
-9 1 3 1.020 1.854 0.219 96.957 o
-9 1 4 2.527 2.655 0.250 50.819 o
-9 1 5 0.170 0.163 0.133 591.909 o
-9 1 6 12.177 14.005 0.443 9.382 o
-9 1 7 28.094 26.097 0.876 3.593 o
-9 1 8 0.022 -0.016 0.101 2308.190 o
-9 2 1 16.967 18.625 1.132 5.343 o
-9 2 2 36.561 40.974 4.231 1.024 o
-9 2 3 2.116 2.825 0.294 52.838 o
-9 2 4 4.489 4.441 0.390 27.413 o
-9 2 5 23.448 22.596 0.746 4.492 o
-9 2 6 0.766 0.576 0.140 187.518 o
-9 2 7 5.085 5.411 0.272 25.420 o
-9 2 8 0.174 -0.027 0.088 975.629 o
-9 3 1 1.746 0.671 0.156 98.457 o
-9 3 2 18.520 21.977 0.795 5.327 o
-9 3 3 7.777 8.188 0.465 15.290 o
-9 3 4 0.997 1.106 0.210 119.384 o
-9 3 5 44.749 41.158 0.951 2.006 o
-9 3 6 7.058 7.901 0.291 17.720 o
-9 3 7 0.086 0.093 0.088 1193.040 o
-9 3 8 12.162 10.418 0.461 10.382 o
-9 4 1 2.329 2.087 0.202 59.948 o
-9 4 2 8.969 9.322 0.365 13.828 o
-9 4 3 55.266 51.149 1.366 1.440 o
-9 4 4 0.819 0.744 0.199 151.317 o
-9 4 5 9.557 9.868 0.366 12.956 o
-9 4 6 21.392 21.994 0.555 5.067 o
-9 4 7 3.389 3.224 0.212 40.687 o
-9 5 1 0.210 0.118 0.108 637.429 o
-9 5 2 9.447 11.401 0.396 12.249 o
-9 5 3 33.628 33.195 0.963 2.787 o
-9 5 4 10.419 11.990 0.710 9.967 o
-9 5 5 3.742 3.524 0.243 36.379 o
-9 5 6 18.684 19.639 1.694 3.934 o
-9 6 1 35.755 35.919 0.813 2.626 o
-9 6 2 10.483 11.675 0.337 11.501 o
-9 6 3 4.474 5.755 0.247 27.249 o
-9 6 4 24.619 25.427 0.706 4.167 o
-9 6 5 0.002 -0.008 0.094 3382.950 o
-9 7 1 9.637 8.657 0.292 13.769 o
-9 7 2 20.862 22.502 0.781 4.872 o
-9 7 3 1.118 0.673 0.074 149.747 o
-8 -4 2 8.843 6.174 0.609 14.127 o
-8 -4 3 0.537 0.460 0.198 213.236 o
-8 -4 4 0.685 0.410 0.198 190.475 o
-8 -4 5 0.570 0.586 0.154 216.548 o
-8 -4 6 6.439 4.926 0.523 19.389 o
-8 -4 7 1.602 0.985 0.217 91.138 o
-8 -4 8 1.051 0.701 0.101 151.491 o
-8 -3 1 4.358 3.262 0.675 23.321 o
-8 -3 2 6.148 6.072 0.532 18.745 o
-8 -3 3 10.314 11.131 0.984 8.895 o
-8 -3 4 3.866 4.100 0.344 31.813 o
-8 -3 5 20.060 20.374 0.759 5.235 o
-8 -3 6 0.040 0.055 0.219 536.641 o
-8 -3 7 1.081 1.008 0.249 109.495 o
-8 -3 8 0.072 0.153 0.090 1087.680 o
-8 -3 9 1.178 0.913 0.242 108.251 o
-8 -2 1 12.071 10.664 0.513 10.186 o
-8 -2 2 3.604 4.496 0.671 23.792 o
-8 -2 3 8.970 9.226 0.574 12.740 o
-8 -2 4 5.121 5.140 0.380 24.308 o
-8 -2 5 21.965 21.565 0.832 4.705 o
-8 -2 6 0.243 0.433 0.186 315.438 o
-8 -2 7 9.329 8.448 0.794 11.339 o
-8 -2 8 9.694 8.902 0.617 12.003 o
-8 -2 9 1.227 1.169 0.173 109.899 o
-8 -2 10 11.530 8.571 0.492 11.331 o
-8 -1 1 6.248 4.716 0.437 21.123 o
-8 -1 2 17.453 22.348 1.421 4.402 o
-8 -1 3 58.682 58.554 2.361 1.113 o
-8 -1 4 2.195 1.941 0.260 60.264 o
-8 -1 5 0.330 0.078 0.178 373.661 o
-8 -1 6 4.586 6.245 0.407 23.852 o
-8 -1 7 1.258 1.384 0.228 95.595 o
-8 -1 8 17.952 21.326 0.652 5.721 o
-8 -1 9 3.866 3.898 0.301 33.300 o
-8 -1 10 44.018 33.659 1.233 2.105 o
-8 0 1 26.718 28.531 1.323 3.233 o
-8 0 2 5.639 6.188 0.383 21.485 o
-8 0 3 28.822 35.870 1.423 2.738 o
-8 0 4 1.654 2.840 0.240 63.103 o
-8 0 5 0.333 0.282 0.156 345.540 o
-8 0 6 6.981 9.745 0.418 15.641 o
-8 0 7 22.616 27.835 1.971 2.898 o
-8 0 8 0.917 1.259 0.182 125.036 o
-8 0 9 49.209 45.630 1.296 1.688 o
-8 0 10 21.277 19.328 0.835 5.003 o
-8 1 1 89.060 98.264 1.984 0.646 o
-8 1 2 0.139 0.122 0.124 720.644 o
-8 1 3 2.160 2.260 0.240 59.333 o
-8 1 4 36.269 44.532 1.152 2.238 o
-8 1 5 23.170 27.270 0.961 4.000 o
-8 1 6 37.169 46.715 1.174 2.140 o
-8 1 7 7.119 5.515 0.414 18.765 o
-8 1 8 83.469 87.811 1.926 0.729 o
-8 1 9 47.117 38.585 1.538 1.794 o
-8 1 10 0.897 0.729 0.104 167.101 o
-8 2 1 2.736 3.441 0.295 42.825 o
-8 2 2 3.871 2.910 0.277 36.768 o
-8 2 3 0.602 0.374 0.140 241.367 o
-8 2 4 1.463 2.122 0.226 76.520 o
-8 2 5 56.275 60.907 1.362 1.312 o
-8 2 6 3.086 4.062 0.289 37.875 o
-8 2 7 45.542 48.194 1.566 1.686 o
-8 2 8 1.347 1.560 0.166 95.447 o
-8 2 9 6.453 6.927 0.562 17.169 o
-8 2 10 14.383 10.803 0.500 8.929 o
-8 3 1 7.681 7.848 0.390 16.166 o
-8 3 2 16.661 20.475 0.709 6.034 o
-8 3 3 123.433 134.198 2.554 0.386 o
-8 3 4 0.089 0.459 0.141 484.910 o
-8 3 5 30.587 31.270 1.499 2.717 o
-8 3 6 11.065 12.543 0.480 10.340 o
-8 3 7 44.385 43.105 1.424 1.847 o
-8 3 8 0.586 0.905 0.157 183.941 o
-8 3 9 6.945 6.318 0.468 17.837 o
-8 4 1 15.340 17.408 0.663 6.901 o
-8 4 2 2.083 3.559 0.377 44.808 o
-8 4 3 202.722 201.165 6.163 0.154 o
-8 4 4 0.004 0.083 0.135 1252.230 o
-8 4 5 17.259 16.034 0.649 6.564 o
-8 4 6 2.759 2.206 0.232 51.498 o
-8 4 7 24.047 25.238 0.743 4.224 o
-8 4 8 14.043 12.641 0.523 8.597 o
-8 5 1 79.238 78.662 2.307 0.773 o
-8 5 2 4.800 4.561 0.416 25.634 o
-8 5 3 90.606 82.667 2.148 0.680 o
-8 5 4 7.169 5.974 0.331 18.960 o
-8 5 5 45.202 48.107 1.026 1.841 o
-8 5 6 56.741 57.542 1.342 1.340 o
-8 5 7 9.514 12.289 0.816 9.877 o
-8 5 8 20.709 20.480 0.515 5.384 o
-8 6 1 252.567 237.778 4.913 0.121 o
-8 6 2 4.996 5.864 0.421 23.025 o
-8 6 3 13.007 15.007 0.671 8.128 o
-8 6 4 8.658 9.465 0.316 14.305 o
-8 6 5 35.879 40.149 0.827 2.489 o
-8 6 6 7.382 9.487 0.366 15.605 o
-8 6 7 1.102 0.804 0.125 138.131 o
-8 7 1 42.633 40.803 0.936 2.105 o
-8 7 2 24.420 26.767 0.987 3.858 o
-8 7 3 8.211 9.512 0.465 14.008 o
-8 7 4 38.999 37.908 3.001 1.442 o
-8 7 5 14.480 16.233 1.663 4.718 o
-8 8 1 20.550 20.276 0.534 5.418 o
-8 8 2 24.189 22.566 0.695 4.434 o
-8 8 3 4.185 4.227 0.246 31.818 o
-8 8 4 1.959 1.600 0.172 74.323 o
-7 -6 4 0.669 0.104 0.118 273.237 o
-7 -6 5 0.259 0.031 0.258 294.802 o
-7 -6 6 12.239 10.382 0.874 8.712 o
-7 -6 7 5.026 6.208 0.769 17.232 o
-7 -6 8 0.910 0.593 0.094 176.440 o
-7 -5 1 7.934 6.115 0.902 12.463 o
-7 -5 2 0.825 0.860 0.240 133.522 o
-7 -5 3 3.627 3.302 0.601 27.549 o
-7 -5 4 6.806 6.644 0.574 16.724 o
-7 -5 5 0.056 0.038 0.156 881.315 o
-7 -5 6 25.308 21.549 1.456 3.524 o
-7 -5 7 4.486 3.745 0.843 18.848 o
-7 -5 8 6.257 5.596 0.458 19.893 o
-7 -4 1 3.261 3.169 0.648 27.680 o
-7 -4 2 0.458 0.598 0.300 158.417 o
-7 -4 3 9.851 7.587 0.929 10.379 o
-7 -4 4 6.520 6.822 0.479 18.022 o
-7 -4 5 5.744 6.941 0.488 19.220 o
-7 -4 6 4.704 4.465 0.452 25.430 o
-7 -4 7 18.077 18.607 0.948 5.495 o
-7 -4 8 9.827 9.016 0.469 12.639 o
-7 -4 9 13.790 12.736 1.226 6.437 o
-7 -4 10 0.721 0.585 0.098 207.148 o
-7 -3 1 1.570 1.280 0.445 60.811 o
-7 -3 2 0.129 0.094 0.351 207.220 o
-7 -3 3 0.802 1.017 0.235 130.520 o
-7 -3 4 3.988 5.306 0.602 23.234 o
-7 -3 5 54.459 59.121 2.140 1.220 o
-7 -3 6 0.832 0.359 0.207 169.504 o
-7 -3 7 61.207 63.928 1.530 1.169 o
-7 -3 8 0.313 0.115 0.142 433.899 o
-7 -3 9 1.371 1.512 0.161 95.948 o
-7 -3 10 4.407 4.479 0.236 30.301 o
-7 -3 11 12.639 9.547 0.578 9.945 o
-7 -2 1 13.707 11.223 0.617 8.811 o
-7 -2 2 10.099 9.313 1.128 8.622 o
-7 -2 3 98.394 106.829 2.776 0.527 o
-7 -2 4 13.525 16.735 1.076 6.459 o
-7 -2 5 36.386 38.774 1.370 2.276 o
-7 -2 6 2.180 2.874 0.316 50.580 o
-7 -2 7 23.543 24.429 0.689 4.398 o
-7 -2 8 7.304 6.870 0.487 16.667 o
-7 -2 9 0.762 1.035 0.131 159.427 o
-7 -2 10 8.377 7.733 0.535 14.347 o
-7 -2 11 7.908 6.536 0.636 14.741 o
-7 -1 1 1.269 1.572 0.213 93.167 o
-7 -1 2 28.806 30.516 1.361 2.964 o
-7 -1 3 164.503 178.929 7.491 0.176 o
-7 -1 4 0.311 0.225 0.125 419.283 o
-7 -1 5 132.753 142.703 2.423 0.350 o
-7 -1 6 5.442 4.861 0.336 24.372 o
-7 -1 7 12.033 13.039 0.792 8.550 o
-7 -1 8 20.279 18.610 0.913 5.131 o
-7 -1 9 38.914 40.606 0.961 2.273 o
-7 -1 10 19.685 20.476 0.921 5.058 o
-7 -1 11 1.324 1.371 0.153 102.031 o
-7 0 1 236.347 248.852 6.842 0.116 o
-7 0 2 0.041 0.059 0.124 1232.420 o
-7 0 3 71.008 67.956 1.911 0.952 o
-7 0 4 16.782 16.812 0.592 6.692 o
-7 0 5 24.102 25.987 0.745 4.165 o
-7 0 6 33.438 36.575 1.326 2.505 o
-7 0 7 0.426 0.276 0.127 330.493 o
-7 0 8 56.858 61.516 2.102 1.167 o
-7 0 9 131.170 139.010 2.539 0.357 o
-7 0 10 18.143 18.363 1.307 4.803 o
-7 0 11 0.630 0.654 0.110 214.930 o
-7 1 1 468.250 492.411 7.506 0.038 o
-7 1 2 2.296 2.651 0.222 55.154 o
-7 1 3 162.448 170.601 3.146 0.249 o
-7 1 4 52.386 56.762 1.123 1.484 o
-7 1 5 7.861 7.893 0.408 15.771 o
-7 1 6 21.323 21.814 1.167 4.333 o
-7 1 7 8.487 9.806 0.406 13.884 o
-7 1 8 30.830 28.176 0.976 3.177 o
-7 1 9 3.384 3.291 0.219 40.288 o
-7 1 10 4.095 4.984 0.292 29.704 o
-7 1 11 1.567 1.397 0.111 94.285 o
-7 2 1 137.742 136.570 4.366 0.300 o
-7 2 2 62.527 66.050 2.441 0.996 o
-7 2 3 10.284 11.118 0.482 11.352 o
-7 2 4 26.201 28.505 0.660 3.817 o
-7 2 5 0.609 0.477 0.168 213.222 o
-7 2 6 96.244 103.590 2.259 0.572 o
-7 2 7 283.874 297.873 4.840 0.094 o
-7 2 8 8.628 9.165 0.464 13.753 o
-7 2 9 1.815 1.919 0.165 74.369 o
-7 2 10 19.759 18.783 0.522 5.765 o
-7 3 1 88.609 90.900 1.777 0.687 o
-7 3 2 30.064 32.189 1.380 2.807 o
-7 3 3 11.729 14.414 0.502 9.351 o
-7 3 4 74.268 81.760 2.058 0.827 o
-7 3 5 3.097 2.690 0.207 45.828 o
-7 3 6 35.218 36.532 1.311 2.419 o
-7 3 7 2.394 2.357 0.273 53.366 o
-7 3 8 11.635 13.223 0.788 8.700 o
-7 3 9 0.388 0.455 0.121 311.430 o
-7 3 10 34.155 32.767 2.428 1.907 o
-7 4 1 0.675 0.690 0.151 188.963 o
-7 4 2 0.580 0.510 0.170 214.507 o
-7 4 3 1.999 1.250 0.179 77.427 o
-7 4 4 7.393 7.275 0.360 17.233 o
-7 4 5 29.712 30.638 1.006 3.148 o
-7 4 6 0.196 0.294 0.121 500.637 o
-7 4 7 3.311 3.312 0.279 39.235 o
-7 4 8 28.721 29.274 0.898 3.364 o
-7 4 9 5.981 8.861 0.331 18.493 o
-7 5 1 88.332 83.456 2.721 0.652 o
-7 5 2 0.166 0.118 0.165 529.199 o
-7 5 3 7.212 5.792 0.488 17.641 o
-7 5 4 1.093 1.798 0.214 95.690 o
-7 5 5 29.503 26.944 0.899 3.398 o
-7 5 6 63.074 65.453 1.328 1.150 o
-7 5 7 0.730 0.623 0.140 189.314 o
-7 5 8 40.656 44.947 1.507 1.917 o
-7 6 1 1.289 0.511 0.193 122.958 o
-7 6 2 19.069 18.410 0.819 5.538 o
-7 6 3 5.865 7.207 0.365 20.032 o
-7 6 4 55.148 55.981 1.399 1.382 o
-7 6 5 1.309 0.550 0.126 131.482 o
-7 6 6 62.167 70.852 1.612 1.088 o
-7 6 7 36.067 38.411 1.522 2.226 o
-7 6 8 32.459 30.053 0.960 2.984 o
-7 7 1 12.899 13.605 0.658 8.509 o
-7 7 2 18.519 18.513 0.780 5.711 o
-7 7 3 4.921 6.028 0.519 21.512 o
-7 7 4 50.065 55.806 2.330 1.283 o
-7 7 5 0.494 0.500 0.156 243.904 o
-7 7 6 29.919 29.801 0.734 3.329 o
-7 8 1 0.078 0.139 0.096 1051.640 o
-7 8 2 65.047 70.759 1.735 1.032 o
-7 8 3 0.350 1.226 0.234 164.372 o
-7 8 4 42.636 44.356 2.506 1.493 o
-7 8 5 24.390 18.129 0.597 4.840 o
-7 9 1 2.073 2.302 0.206 62.296 o
-7 9 2 28.285 26.809 1.276 3.216 o
-7 9 3 1.390 1.912 0.187 85.286 o
-6 -7 3 4.726 2.662 0.312 31.795 o
-6 -7 4 2.613 1.618 0.245 56.964 o
-6 -7 5 3.558 3.349 0.464 31.946 o
-6 -7 6 5.839 4.798 0.301 23.724 o
-6 -7 7 1.805 1.667 0.176 77.291 o
-6 -7 8 0.461 0.453 0.094 299.649 o
-6 -6 1 6.592 6.723 0.582 16.899 o
-6 -6 2 1.188 0.909 0.269 102.811 o
-6 -6 3 9.926 10.280 1.062 8.849 o
-6 -6 4 2.959 3.445 0.489 34.002 o
-6 -6 5 0.737 0.356 0.182 193.689 o
-6 -6 6 27.704 27.755 1.756 2.795 o
-6 -6 7 0.063 0.148 0.406 166.427 o
-6 -6 8 8.202 7.207 0.593 14.390 o
-6 -6 9 13.731 13.345 3.267 2.185 o
-6 -6 10 0.051 0.115 0.073 1529.060 o
-6 -5 1 33.324 37.508 2.217 1.977 o
-6 -5 2 0.404 0.548 0.329 152.482 o
-6 -5 3 43.808 37.055 2.272 1.643 o
-6 -5 4 63.322 60.400 2.136 1.072 o
-6 -5 5 1.120 0.624 0.241 120.358 o
-6 -5 6 4.741 3.074 0.425 28.361 o
-6 -5 7 0.308 0.332 0.193 301.736 o
-6 -5 8 0.037 -0.033 0.157 1023.060 o
-6 -5 9 2.596 2.977 0.437 40.049 o
-6 -5 10 1.810 1.514 0.320 66.853 o
-6 -5 11 0.049 0.061 0.061 2108.540 o
-6 -4 1 47.733 42.113 2.318 1.470 o
-6 -4 2 7.341 7.369 0.960 11.905 o
-6 -4 3 7.230 6.733 0.722 14.582 o
-6 -4 4 70.070 69.703 1.971 0.946 o
-6 -4 5 0.654 0.513 0.182 194.832 o
-6 -4 6 5.635 5.150 0.400 22.579 o
-6 -4 7 65.232 68.978 1.925 1.017 o
-6 -4 8 1.254 0.641 0.246 110.814 o
-6 -4 9 1.668 1.757 0.191 78.725 o
-6 -4 10 9.718 10.766 0.398 12.278 o
-6 -4 11 0.047 0.102 0.069 1697.600 o
-6 -3 1 44.250 42.423 1.657 1.784 o
-6 -3 2 98.295 101.653 3.339 0.509 o
-6 -3 3 0.058 0.368 0.175 481.911 o
-6 -3 4 46.947 46.410 1.236 1.760 o
-6 -3 5 0.205 0.082 0.181 463.612 o
-6 -3 6 22.203 22.376 0.855 4.578 o
-6 -3 7 64.715 68.824 2.082 1.004 o
-6 -3 8 0.250 0.213 0.149 433.544 o
-6 -3 9 2.608 3.981 0.429 36.748 o
-6 -3 10 23.772 27.623 0.803 4.053 o
-6 -3 11 0.011 0.088 0.065 2625.620 o
-6 -3 12 9.732 6.519 0.585 13.216 o
-6 -2 1 154.006 163.546 4.141 0.253 o
-6 -2 2 67.730 74.340 2.084 0.933 o
-6 -2 3 4.129 4.831 0.467 26.452 o
-6 -2 4 0.076 0.213 0.106 849.839 o
-6 -2 5 38.759 46.531 1.021 2.124 o
-6 -2 6 0.718 0.952 0.177 157.322 o
-6 -2 7 4.657 3.859 0.274 29.998 o
-6 -2 8 23.430 27.056 0.963 3.980 o
-6 -2 9 13.651 15.034 0.447 8.414 o
-6 -2 10 0.626 1.013 0.134 177.447 o
-6 -2 11 0.009 -0.066 0.127 1763.970 o
-6 -2 12 2.389 2.205 0.182 58.847 o
-6 -1 1 40.273 38.620 1.054 2.224 o
-6 -1 2 22.642 24.161 0.773 4.469 o
-6 -1 3 21.933 24.899 0.718 4.574 o
-6 -1 4 5.224 8.085 0.371 20.410 o
-6 -1 5 129.928 151.027 2.155 0.351 o
-6 -1 6 11.515 11.866 0.569 9.956 o
-6 -1 7 5.647 6.269 0.377 21.441 o
-6 -1 8 30.453 30.816 0.995 3.088 o
-6 -1 9 104.536 109.376 2.566 0.502 o
-6 -1 10 22.609 25.490 0.936 4.209 o
-6 -1 11 5.769 7.055 0.334 20.705 o
-6 -1 12 2.578 1.856 0.151 59.786 o
-6 0 1 13.049 14.612 0.496 8.667 o
-6 0 2 20.344 22.572 0.540 5.224 o
-6 0 3 16.045 18.943 0.545 6.675 o
-6 0 4 7.048 7.907 0.369 17.209 o
-6 0 5 0.256 0.310 0.124 429.814 o
-6 0 6 149.460 154.754 2.578 0.294 o
-6 0 7 29.993 28.310 0.811 3.347 o
-6 0 8 77.524 81.452 3.327 0.677 o
-6 0 9 39.548 37.917 1.187 2.226 o
-6 0 10 18.835 18.655 0.700 5.753 o
-6 0 11 7.948 7.824 0.421 15.612 o
-6 0 12 1.082 0.937 0.148 130.559 o
-6 1 1 87.824 89.696 2.020 0.683 o
-6 1 2 18.068 17.584 0.467 6.404 o
-6 1 3 9.431 11.513 0.460 11.951 o
-6 1 4 8.091 5.567 0.258 18.139 o
-6 1 5 38.013 38.509 0.824 2.417 o
-6 1 6 54.655 58.462 1.195 1.399 o
-6 1 7 578.699 631.766 9.203 0.025 o
-6 1 8 13.940 15.012 0.519 8.138 o
-6 1 9 9.352 10.205 0.476 12.497 o
-6 1 10 2.312 2.435 0.265 54.350 o
-6 1 11 23.915 24.003 0.678 4.384 o
-6 2 1 71.175 70.331 1.253 1.000 o
-6 2 2 236.792 238.912 3.512 0.136 o
-6 2 3 7.384 6.993 0.313 17.796 o
-6 2 4 397.968 419.980 6.119 0.051 o
-6 2 5 174.648 179.642 3.498 0.221 o
-6 2 6 82.257 80.571 1.572 0.795 o
-6 2 7 148.394 144.371 2.659 0.306 o
-6 2 8 121.464 123.493 2.727 0.404 o
-6 2 9 26.234 25.612 0.809 3.873 o
-6 2 10 2.419 2.780 0.209 53.086 o
-6 2 11 0.159 0.135 0.069 864.433 o
-6 3 1 2.633 2.160 0.185 55.341 o
-6 3 2 11.504 12.245 0.367 10.494 o
-6 3 3 1.186 1.091 0.136 119.503 o
-6 3 4 216.141 211.723 2.746 0.165 o
-6 3 5 650.694 631.300 12.209 0.021 o
-6 3 6 65.145 67.628 1.181 1.115 o
-6 3 7 42.907 39.295 0.952 2.121 o
-6 3 8 37.021 34.541 1.421 2.323 o
-6 3 9 22.543 23.020 1.682 3.423 o
-6 3 10 15.254 15.083 0.463 7.719 o
-6 4 1 3.134 2.353 0.187 47.761 o
-6 4 2 154.179 152.299 3.508 0.273 o
-6 4 3 120.674 109.353 2.380 0.442 o
-6 4 4 80.849 81.566 1.212 0.825 o
-6 4 5 383.243 356.720 5.115 0.060 o
-6 4 6 40.731 39.888 0.827 2.242 o
-6 4 7 18.264 17.467 0.551 6.256 o
-6 4 8 14.474 15.230 0.560 7.791 o
-6 4 9 0.006 0.008 0.133 1605.490 o
-6 4 10 17.635 17.844 0.632 6.247 o
-6 5 1 40.586 32.167 0.942 2.409 o
-6 5 2 153.072 130.180 2.663 0.311 o
-6 5 3 247.809 226.407 4.438 0.129 o
-6 5 4 27.026 25.112 0.589 3.963 o
-6 5 5 2.638 2.685 0.219 50.537 o
-6 5 6 0.888 0.910 0.144 149.678 o
-6 5 7 11.895 10.499 0.381 10.777 o
-6 5 8 3.698 3.771 0.233 36.074 o
-6 5 9 0.323 0.425 0.069 395.796 o
-6 6 1 28.445 23.853 1.122 3.468 o
-6 6 2 16.844 14.495 0.579 7.052 o
-6 6 3 212.675 200.436 3.553 0.168 o
-6 6 4 12.802 13.479 0.566 8.863 o
-6 6 5 3.689 3.694 0.376 32.962 o
-6 6 6 47.125 46.056 0.970 1.822 o
-6 6 7 12.547 13.979 0.475 9.117 o
-6 7 1 105.103 103.487 3.865 0.450 o
-6 7 2 0.482 0.604 0.263 173.649 o
-6 7 3 10.874 12.120 0.577 10.231 o
-6 7 4 17.879 21.582 0.695 5.647 o
-6 7 5 0.461 0.677 0.111 252.799 o
-6 7 6 11.445 14.764 0.392 9.704 o
-6 7 7 23.856 24.339 0.851 4.209 o
-6 8 1 4.206 6.221 0.734 19.163 o
-6 8 2 32.719 38.507 1.803 2.221 o
-6 8 3 2.112 3.247 0.312 49.361 o
-6 8 4 21.860 23.675 0.937 4.435 o
-6 8 5 13.587 14.620 0.444 8.539 o
-6 8 6 11.328 9.266 0.390 11.607 o
-6 9 1 1.687 2.326 0.406 54.605 o
-6 9 2 46.075 53.697 1.928 1.495 o
-6 9 3 15.584 16.806 0.726 6.783 o
-6 9 4 3.430 2.990 0.211 41.331 o
-6 10 1 11.133 9.458 0.929 9.183 o
-6 10 2 20.239 15.378 0.562 6.005 o
-5 -8 3 0.593 0.679 0.211 178.457 o
-5 -8 4 1.038 0.585 0.219 133.219 o
-5 -8 5 1.006 0.958 0.195 126.840 o
-5 -8 6 1.041 0.890 0.367 90.431 o
-5 -8 8 0.235 0.219 0.094 551.928 o
-5 -7 1 3.821 3.914 0.859 19.579 o
-5 -7 2 26.418 25.298 1.877 2.836 o
-5 -7 3 1.928 1.808 0.279 65.005 o
-5 -7 4 7.210 5.565 0.440 18.302 o
-5 -7 5 1.554 1.406 0.241 82.820 o
-5 -7 6 7.007 7.546 0.611 15.462 o
-5 -7 7 1.993 2.175 0.373 53.948 o
-5 -7 8 14.445 14.298 0.972 6.852 o
-5 -7 9 1.977 1.956 0.193 68.433 o
-5 -7 10 1.588 0.859 0.242 91.031 o
-5 -6 1 2.427 2.623 0.656 32.077 o
-5 -6 2 2.225 1.822 0.444 48.284 o
-5 -6 3 7.767 5.612 0.960 12.256 o
-5 -6 4 7.885 8.956 0.834 11.937 o
-5 -6 5 1.224 0.906 0.274 100.151 o
-5 -6 6 4.671 3.840 0.372 28.226 o
-5 -6 7 4.908 4.838 0.514 23.131 o
-5 -6 8 32.639 31.568 1.948 2.287 o
-5 -6 9 2.972 2.827 0.291 43.628 o
-5 -6 10 3.687 3.708 0.408 32.052 o
-5 -6 11 0.057 0.086 0.076 1586.030 o
-5 -5 1 6.090 5.995 0.690 16.895 o
-5 -5 2 0.446 0.267 0.245 220.076 o
-5 -5 3 30.917 25.844 1.131 3.157 o
-5 -5 4 26.498 25.929 1.002 3.664 o
-5 -5 5 2.781 3.272 0.379 40.000 o
-5 -5 6 7.123 6.695 0.419 17.679 o
-5 -5 7 51.693 53.268 1.823 1.400 o
-5 -5 8 6.389 5.845 0.440 19.579 o
-5 -5 9 3.655 4.933 0.318 31.369 o
-5 -5 10 0.087 0.074 0.169 675.819 o
-5 -5 11 9.358 10.275 0.444 12.614 o
-5 -5 12 0.184 0.109 0.141 588.134 o
-5 -4 1 54.217 47.949 2.214 1.308 o
-5 -4 2 69.030 69.615 2.348 0.913 o
-5 -4 3 40.623 38.354 1.089 2.202 o
-5 -4 4 131.491 133.185 5.803 0.275 o
-5 -4 5 31.540 31.214 1.178 2.877 o
-5 -4 6 23.434 23.926 0.908 4.233 o
-5 -4 7 95.095 92.554 2.835 0.577 o
-5 -4 8 0.679 0.864 0.162 172.198 o
-5 -4 9 2.595 3.309 0.305 44.334 o
-5 -4 10 11.301 12.721 0.480 10.139 o
-5 -4 11 12.901 14.412 0.548 8.649 o
-5 -4 12 0.093 0.150 0.108 892.963 o
-5 -3 1 0.087 0.235 0.200 451.034 o
-5 -3 2 192.415 186.511 4.351 0.187 o
-5 -3 3 2.393 3.647 0.300 44.847 o
-5 -3 4 51.073 47.869 1.487 1.558 o
-5 -3 5 105.499 104.857 1.957 0.532 o
-5 -3 6 18.405 18.099 0.569 6.112 o
-5 -3 7 70.043 70.019 1.523 0.993 o
-5 -3 8 0.014 0.060 0.097 1991.120 o
-5 -3 9 22.614 23.340 1.425 3.737 o
-5 -3 10 2.691 3.680 0.252 43.609 o
-5 -3 11 32.984 32.154 0.768 2.961 o
-5 -3 12 2.644 2.127 0.464 41.662 o
-5 -2 1 244.323 236.789 3.596 0.132 o
-5 -2 2 33.004 35.145 0.953 2.768 o
-5 -2 3 61.728 60.312 1.014 1.255 o
-5 -2 4 14.693 13.110 0.477 8.314 o
-5 -2 5 695.178 746.932 19.943 0.015 o
-5 -2 6 1.938 1.757 0.187 71.964 o
-5 -2 7 40.050 44.217 0.833 2.171 o
-5 -2 8 17.511 20.807 0.580 5.984 o
-5 -2 9 30.084 31.275 1.157 2.993 o
-5 -2 10 7.813 9.063 0.442 14.861 o
-5 -2 11 2.141 1.985 0.176 65.605 o
-5 -2 12 8.156 7.505 0.492 15.051 o
-5 -1 1 52.173 53.663 1.861 1.376 o
-5 -1 2 356.852 373.700 4.214 0.064 o
-5 -1 3 356.322 373.657 4.867 0.064 o
-5 -1 4 1.024 1.061 0.136 132.171 o
-5 -1 5 143.352 144.937 3.227 0.306 o
-5 -1 6 1.329 0.981 0.146 112.838 o
-5 -1 7 4.956 4.623 0.274 27.219 o
-5 -1 8 0.447 0.720 0.099 255.980 o
-5 -1 9 18.833 19.073 0.527 5.941 o
-5 -1 10 8.566 8.915 0.609 13.027 o
-5 -1 11 0.047 0.194 0.100 1037.460 o
-5 -1 12 11.942 10.759 0.401 10.599 o
-5 0 1 131.641 121.841 2.147 0.389 o
-5 0 2 14.602 12.692 0.449 8.506 o
-5 0 3 1042.950 1135.360 12.154 0.008 o
-5 0 4 9.642 12.800 0.371 11.610 o
-5 0 5 84.121 89.173 1.531 0.743 o
-5 0 6 32.779 35.751 1.409 2.518 o
-5 0 7 0.982 1.008 0.149 135.658 o
-5 0 8 2.288 2.896 0.222 53.552 o
-5 0 9 3.148 3.075 0.320 40.086 o
-5 0 10 0.211 0.340 0.172 376.753 o
-5 0 11 2.816 3.393 0.259 43.555 o
-5 0 12 5.759 5.940 0.375 21.590 o
-5 1 1 146.039 151.506 3.556 0.287 o
-5 1 2 6.485 4.383 0.423 21.132 o
-5 1 3 220.720 225.421 3.078 0.154 o
-5 1 4 32.909 27.590 0.713 3.174 o
-5 1 5 0.141 0.134 0.064 948.696 o
-5 1 6 17.979 17.133 0.589 6.318 o
-5 1 7 81.221 82.532 1.713 0.786 o
-5 1 8 118.363 124.418 2.124 0.430 o
-5 1 9 66.020 68.692 1.672 1.040 o
-5 1 10 2.613 2.578 0.228 51.151 o
-5 1 11 1.000 1.905 0.258 91.364 o
-5 1 12 5.328 3.575 0.250 28.122 o
-5 2 1 416.421 446.838 6.771 0.046 o
-5 2 2 0.590 0.501 0.100 246.271 o
-5 2 3 69.904 68.734 0.923 1.054 o
-5 2 4 138.214 139.866 2.165 0.344 o
-5 2 5 113.056 116.288 1.921 0.472 o
-5 2 6 31.978 34.941 0.790 2.923 o
-5 2 7 12.627 12.708 0.525 9.259 o
-5 2 8 7.095 7.538 0.361 17.495 o
-5 2 9 0.178 0.252 0.105 586.058 o
-5 2 10 18.068 19.842 1.382 4.562 o
-5 2 11 0.477 0.516 0.074 290.658 o
-5 3 1 146.622 145.630 1.969 0.319 o
-5 3 2 319.497 301.319 4.443 0.083 o
-5 3 3 254.890 273.161 3.497 0.116 o
-5 3 4 6.343 7.647 0.325 18.985 o
-5 3 5 468.488 455.440 5.473 0.041 o
-5 3 6 117.431 114.406 2.583 0.438 o
-5 3 7 54.815 49.376 1.988 1.337 o
-5 3 8 53.242 51.066 1.889 1.375 o
-5 3 9 2.619 2.294 0.218 53.307 o
-5 3 10 25.542 24.425 0.890 3.955 o
-5 3 11 2.141 1.093 0.125 78.963 o
-5 4 1 22.734 23.658 0.669 4.593 o
-5 4 2 401.284 386.084 5.045 0.054 o
-5 4 3 189.963 172.131 2.703 0.213 o
-5 4 4 34.965 31.182 0.716 2.873 o
-5 4 5 141.531 127.098 2.421 0.347 o
-5 4 6 0.931 0.428 0.124 178.311 o
-5 4 7 25.029 25.349 0.802 4.039 o
-5 4 8 71.958 68.359 1.642 0.967 o
-5 4 9 0.014 0.013 0.072 3817.030 o
-5 4 10 50.338 42.605 1.304 1.697 o
-5 5 1 16.531 14.633 0.984 6.212 o
-5 5 2 26.840 26.578 0.824 3.739 o
-5 5 3 482.512 440.780 9.297 0.037 o
-5 5 4 39.850 42.336 0.870 2.214 o
-5 5 5 0.331 0.344 0.143 344.249 o
-5 5 6 72.682 70.246 1.407 0.968 o
-5 5 7 3.244 2.295 0.223 45.860 o
-5 5 8 44.850 48.603 0.958 1.860 o
-5 5 9 0.597 0.849 0.090 207.779 o
-5 6 1 550.841 483.899 12.572 0.028 o
-5 6 2 8.469 9.119 0.474 13.889 o
-5 6 3 114.670 108.454 1.628 0.490 o
-5 6 4 9.061 8.710 0.507 13.295 o
-5 6 5 23.148 20.906 0.745 4.668 o
-5 6 6 36.266 36.002 0.822 2.589 o
-5 6 7 0.191 0.359 0.098 511.849 o
-5 6 8 27.652 31.268 0.770 3.452 o
-5 7 1 123.780 119.912 3.539 0.377 o
-5 7 2 15.395 16.115 0.584 7.251 o
-5 7 3 1.294 0.790 0.145 121.182 o
-5 7 4 107.077 107.439 2.312 0.505 o
-5 7 5 4.313 4.929 0.303 28.700 o
-5 7 6 37.947 43.410 0.929 2.262 o
-5 7 7 11.231 10.187 0.492 10.966 o
-5 8 1 76.576 86.783 2.486 0.745 o
-5 8 2 2.441 3.436 0.274 46.449 o
-5 8 3 2.010 1.521 0.422 54.443 o
-5 8 4 14.975 15.465 0.468 7.744 o
-5 8 5 12.001 15.854 0.480 8.909 o
-5 8 6 14.130 13.128 0.902 7.351 o
-5 9 1 0.363 0.762 0.244 190.205 o
-5 9 2 36.626 40.191 1.113 2.341 o
-5 9 3 6.625 7.604 0.360 18.238 o
-5 9 4 15.374 15.247 0.566 7.446 o
-5 10 1 1.589 1.803 0.258 74.534 o
-4 -9 3 3.660 1.616 0.234 44.762 o
-4 -9 4 0.790 0.546 0.172 175.375 o
-4 -9 7 0.471 0.601 0.125 253.800 o
-4 -8 1 56.718 46.729 1.146 1.497 o
-4 -8 2 9.208 9.445 0.406 13.326 o
-4 -8 3 8.595 9.520 0.517 13.298 o
-4 -8 4 2.677 2.612 0.299 47.235 o
-4 -8 5 4.471 4.968 0.364 26.982 o
-4 -8 6 0.065 -0.071 0.167 832.963 o
-4 -8 7 2.311 2.427 0.380 48.100 o
-4 -8 8 1.147 1.411 0.195 104.612 o
-4 -8 9 5.977 6.712 0.271 21.165 o
-4 -8 10 0.956 0.515 0.203 147.882 o
-4 -7 1 29.235 31.025 1.706 2.648 o
-4 -7 2 20.698 21.827 1.955 3.256 o
-4 -7 3 27.996 27.361 1.108 3.360 o
-4 -7 4 2.292 1.488 0.328 57.800 o
-4 -7 5 7.117 6.729 0.446 17.423 o
-4 -7 6 1.668 1.653 0.414 59.251 o
-4 -7 7 0.788 1.513 0.214 118.885 o
-4 -7 8 85.155 81.787 8.025 0.299 o
-4 -7 9 33.139 34.283 3.513 1.363 o
-4 -7 10 1.332 1.608 0.179 93.811 o
-4 -7 11 0.247 0.306 0.093 486.791 o
-4 -6 1 13.650 14.337 1.048 6.840 o
-4 -6 2 20.869 20.384 1.050 4.674 o
-4 -6 3 32.131 28.756 1.612 2.618 o
-4 -6 4 3.661 3.487 0.385 33.404 o
-4 -6 5 63.666 55.449 2.033 1.120 o
-4 -6 6 2.973 2.337 0.286 46.166 o
-4 -6 7 3.389 3.070 0.322 38.254 o
-4 -6 8 1.492 1.687 0.215 83.019 o
-4 -6 9 35.660 31.771 1.263 2.549 o
-4 -6 10 0.767 0.876 0.125 169.942 o
-4 -6 11 1.642 2.385 0.562 43.102 o
-4 -6 12 7.513 5.589 0.500 17.203 o
-4 -5 1 62.262 62.522 2.052 1.085 o
-4 -5 2 0.050 0.359 0.233 357.832 o
-4 -5 3 6.565 6.999 0.482 17.771 o
-4 -5 4 8.538 8.084 0.474 14.385 o
-4 -5 5 8.708 8.409 0.484 13.951 o
-4 -5 6 84.039 80.681 2.202 0.734 o
-4 -5 7 53.041 51.185 1.436 1.478 o
-4 -5 8 12.026 12.701 0.672 9.079 o
-4 -5 9 6.385 7.515 0.399 18.414 o
-4 -5 10 0.056 0.125 0.150 793.320 o
-4 -5 11 14.486 13.043 0.654 7.979 o
-4 -5 12 0.685 0.824 0.114 188.281 o
-4 -4 1 33.134 31.988 1.418 2.598 o
-4 -4 2 3.964 4.213 0.393 29.951 o
-4 -4 3 69.446 66.472 2.759 0.870 o
-4 -4 4 33.469 33.819 1.145 2.683 o
-4 -4 5 1.554 1.057 0.175 96.513 o
-4 -4 6 1.954 1.968 0.260 64.378 o
-4 -4 7 37.603 39.212 1.157 2.300 o
-4 -4 8 0.128 0.272 0.130 579.839 o
-4 -4 9 0.775 0.608 0.176 171.700 o
-4 -4 10 24.361 26.130 0.913 3.972 o
-4 -4 11 37.412 38.496 1.009 2.385 o
-4 -4 12 9.966 9.079 0.375 12.906 o
-4 -3 1 10.908 13.936 0.793 8.852 o
-4 -3 2 150.613 134.680 4.038 0.285 o
-4 -3 3 19.280 21.583 0.729 5.310 o
-4 -3 4 23.465 24.706 0.692 4.386 o
-4 -3 5 62.405 61.104 1.282 1.205 o
-4 -3 6 50.412 51.935 1.143 1.595 o
-4 -3 7 0.718 0.750 0.128 185.031 o
-4 -3 8 31.739 29.660 0.909 3.083 o
-4 -3 9 11.053 11.084 0.539 10.598 o
-4 -3 10 19.913 24.503 0.712 4.943 o
-4 -3 11 0.385 0.359 0.099 354.647 o
-4 -3 12 6.078 6.354 0.507 18.913 o
-4 -2 1 72.452 80.036 1.644 0.892 o
-4 -2 2 265.002 264.406 10.653 0.082 o
-4 -2 3 17.931 22.447 1.044 4.993 o
-4 -2 4 19.795 15.845 0.451 6.195 o
-4 -2 5 43.523 40.985 1.081 2.023 o
-4 -2 6 39.332 47.126 0.879 2.126 o
-4 -2 7 31.483 31.079 0.797 3.107 o
-4 -2 8 135.137 135.798 2.443 0.352 o
-4 -2 9 118.510 122.878 2.755 0.414 o
-4 -2 10 78.505 82.597 2.007 0.788 o
-4 -2 11 9.440 11.419 0.345 12.436 o
-4 -2 12 41.608 37.550 1.108 2.169 o
-4 -1 1 237.853 227.679 4.048 0.136 o
-4 -1 2 14.745 13.223 0.819 7.380 o
-4 -1 3 382.896 413.754 8.971 0.050 o
-4 -1 4 143.960 155.860 4.054 0.277 o
-4 -1 5 0.829 1.015 0.157 147.661 o
-4 -1 6 80.534 84.753 1.405 0.802 o
-4 -1 7 27.192 26.902 0.692 3.775 o
-4 -1 8 109.465 119.667 3.415 0.427 o
-4 -1 9 8.415 8.418 0.329 15.163 o
-4 -1 10 34.492 35.283 1.483 2.397 o
-4 -1 11 6.813 7.849 0.416 17.271 o
-4 -1 12 28.491 27.582 0.789 3.539 o
-4 0 1 980.781 1042.290 16.389 0.009 o
-4 0 2 33.299 39.073 1.484 2.361 o
-4 0 3 832.743 891.395 24.884 0.010 o
-4 0 4 0.108 1.345 0.329 142.499 o
-4 0 5 1.949 1.377 0.268 70.023 o
-4 0 6 108.881 114.057 2.223 0.485 o
-4 0 7 11.893 14.118 0.439 9.516 o
-4 0 8 60.500 57.800 1.288 1.270 o
-4 0 9 37.986 40.981 0.971 2.306 o
-4 0 10 59.124 62.088 2.217 1.107 o
-4 0 11 2.881 4.221 0.240 40.095 o
-4 0 12 13.740 12.246 0.436 9.048 o
-4 1 1 478.639 497.615 6.283 0.037 o
-4 1 2 2.901 1.835 0.210 52.900 o
-4 1 3 204.913 214.835 3.473 0.169 o
-4 1 4 226.890 218.095 6.945 0.127 o
-4 1 5 22.159 22.237 1.290 4.029 o
-4 1 6 108.095 103.455 1.735 0.530 o
-4 1 7 51.202 54.146 1.076 1.556 o
-4 1 8 181.023 182.170 3.698 0.209 o
-4 1 9 14.910 15.199 0.475 7.806 o
-4 1 10 44.938 42.917 1.670 1.751 o
-4 1 11 1.205 1.096 0.163 114.563 o
-4 1 12 3.101 2.490 0.234 45.962 o
-4 2 1 578.856 646.547 8.067 0.025 o
-4 2 2 78.341 100.832 2.003 0.713 o
-4 2 3 64.881 71.255 1.425 1.066 o
-4 2 4 7.482 11.516 0.638 12.633 o
-4 2 5 7.873 4.608 0.235 19.581 o
-4 2 6 179.451 173.034 3.730 0.216 o
-4 2 7 234.865 224.164 4.032 0.140 o
-4 2 8 8.726 9.074 0.461 13.720 o
-4 2 9 6.908 8.005 0.341 17.556 o
-4 2 11 26.396 27.160 0.720 3.832 o
-4 3 1 194.399 209.087 6.590 0.153 o
-4 3 2 508.622 479.819 7.139 0.035 o
-4 3 3 119.210 124.687 2.485 0.417 o
-4 3 4 1.101 1.216 0.123 122.597 o
-4 3 5 50.363 47.593 0.950 1.696 o
-4 3 6 114.308 105.574 1.711 0.496 o
-4 3 7 0.329 0.288 0.164 336.033 o
-4 3 8 49.357 43.224 1.134 1.759 o
-4 3 9 0.115 0.200 0.090 822.887 o
-4 3 10 14.602 14.309 0.475 8.106 o
-4 4 1 142.662 153.604 4.628 0.269 o
-4 4 2 0.613 1.494 0.253 122.437 o
-4 4 3 205.378 182.845 2.819 0.189 o
-4 4 4 41.049 36.108 0.691 2.357 o
-4 4 5 78.645 70.769 2.046 0.839 o
-4 4 6 26.683 22.669 1.688 3.102 o
-4 4 7 13.439 13.896 0.539 8.545 o
-4 4 8 15.635 16.131 0.827 6.634 o
-4 4 9 3.227 4.079 0.196 38.983 o
-4 4 10 7.222 5.277 0.273 19.985 o
-4 5 1 126.055 111.549 3.382 0.388 o
-4 5 2 14.672 11.396 0.398 8.882 o
-4 5 3 452.547 417.639 5.733 0.044 o
-4 5 4 127.319 128.163 3.130 0.368 o
-4 5 5 91.805 89.016 1.932 0.662 o
-4 5 6 74.286 72.664 2.947 0.774 o
-4 5 7 0.132 0.440 0.105 520.779 o
-4 5 8 60.661 63.745 2.412 1.040 o
-4 5 9 0.788 1.187 0.111 152.186 o
-4 6 1 250.077 224.029 5.315 0.124 o
-4 6 2 25.293 27.496 1.129 3.590 o
-4 6 3 32.272 36.255 1.071 2.721 o
-4 6 4 6.169 4.192 0.308 23.563 o
-4 6 5 1.566 3.447 0.281 56.997 o
-4 6 6 5.466 6.330 0.292 22.725 o
-4 6 7 0.790 0.859 0.149 162.258 o
-4 6 8 10.529 10.132 0.363 11.993 o
-4 7 1 231.169 231.834 5.205 0.133 o
-4 7 2 12.176 16.159 0.860 7.638 o
-4 7 3 6.953 6.014 0.541 17.330 o
-4 7 4 106.109 109.076 2.084 0.514 o
-4 7 5 0.055 -0.009 0.121 1381.490 o
-4 7 6 33.318 34.163 0.902 2.804 o
-4 7 7 0.092 0.253 0.077 865.638 o
-4 8 1 74.765 85.167 2.415 0.774 o
-4 8 2 12.813 13.981 0.794 8.024 o
-4 8 3 0.075 0.054 0.095 1340.610 o
-4 8 4 25.374 29.318 0.930 3.666 o
-4 8 5 15.256 15.415 0.615 7.354 o
-4 8 6 11.352 12.277 0.449 10.344 o
-4 9 1 2.138 2.297 0.215 60.727 o
-4 9 2 30.104 30.227 1.948 2.436 o
-4 9 3 0.001 0.056 0.099 2219.690 o
-4 9 4 19.590 16.979 0.521 6.020 o
-4 10 1 15.356 15.940 0.999 6.303 o
-4 10 2 8.157 6.370 0.263 17.326 o
-3 -9 1 0.021 -0.012 0.093 2650.350 o
-3 -9 2 4.746 3.641 0.320 29.298 o
-3 -9 3 8.386 7.561 0.624 13.755 o
-3 -9 4 3.652 3.792 0.476 30.120 o
-3 -9 5 0.032 -0.023 0.219 585.485 o
-3 -9 6 0.067 0.004 0.138 1069.350 o
-3 -9 7 0.125 0.398 0.281 248.647 o
-3 -9 8 0.639 0.815 0.160 182.016 o
-3 -9 9 0.664 0.453 0.234 173.693 o
-3 -8 1 21.311 21.601 0.671 5.000 o
-3 -8 2 5.228 5.596 0.614 19.806 o
-3 -8 3 0.119 0.096 0.221 428.191 o
-3 -8 4 19.077 18.821 0.731 5.634 o
-3 -8 5 2.632 2.813 0.301 46.591 o
-3 -8 6 2.041 1.827 0.287 62.118 o
-3 -8 7 0.185 0.074 0.109 730.261 o
-3 -8 8 32.384 26.622 1.239 2.938 o
-3 -8 9 13.024 14.573 1.344 6.013 o
-3 -8 10 18.148 21.737 1.171 4.794 o
-3 -8 11 1.062 0.562 0.203 136.087 o
-3 -7 1 0.047 0.204 0.251 366.533 o
-3 -7 2 0.981 0.679 0.402 89.326 o
-3 -7 3 7.620 7.071 0.621 14.906 o
-3 -7 4 0.209 0.140 0.211 372.218 o
-3 -7 5 6.273 6.173 0.432 19.573 o
-3 -7 6 0.212 0.570 0.194 290.857 o
-3 -7 7 0.509 0.178 0.144 300.058 o
-3 -7 8 57.737 58.566 5.375 0.605 o
-3 -7 9 66.616 65.296 5.023 0.594 o
-3 -7 10 22.595 26.325 1.725 3.231 o
-3 -7 11 1.007 0.755 0.134 147.603 o
-3 -6 1 6.533 5.517 0.502 18.913 o
-3 -6 2 22.295 21.676 1.069 4.346 o
-3 -6 3 1.243 1.022 0.238 102.934 o
-3 -6 4 1.624 2.231 0.288 66.197 o
-3 -6 5 0.126 0.131 0.133 701.602 o
-3 -6 6 172.266 164.188 5.602 0.204 o
-3 -6 7 0.957 0.758 0.200 137.515 o
-3 -6 8 38.847 37.239 1.464 2.157 o
-3 -6 9 35.263 34.801 1.634 2.286 o
-3 -6 10 4.700 5.635 0.282 26.215 o
-3 -6 11 9.964 8.068 0.548 12.520 o
-3 -5 1 65.062 66.514 1.570 1.082 o
-3 -5 2 18.911 18.556 1.015 5.214 o
-3 -5 3 149.244 139.721 6.050 0.238 o
-3 -5 4 57.714 57.696 1.368 1.315 o
-3 -5 5 5.430 5.074 0.287 24.686 o
-3 -5 6 330.556 313.850 11.895 0.059 o
-3 -5 7 305.199 300.090 6.264 0.083 o
-3 -5 8 107.139 117.385 3.367 0.441 o
-3 -5 9 10.940 12.814 0.506 10.245 o
-3 -5 10 0.986 1.094 0.195 123.475 o
-3 -5 11 21.468 21.740 1.460 3.894 o
-3 -5 12 1.243 1.185 0.402 73.875 o
-3 -4 1 2.266 4.664 0.393 38.104 o
-3 -4 2 4.427 4.294 0.273 30.065 o
-3 -4 3 1.882 1.691 0.167 75.454 o
-3 -4 4 18.875 17.508 0.642 5.964 o
-3 -4 5 49.201 51.602 1.550 1.543 o
-3 -4 6 97.773 100.049 3.425 0.510 o
-3 -4 7 8.411 8.073 0.637 13.377 o
-3 -4 8 47.863 45.281 1.708 1.620 o
-3 -4 9 39.233 41.305 1.339 2.106 o
-3 -4 10 0.036 0.179 0.134 871.787 o
-3 -4 11 29.772 30.528 1.233 2.990 o
-3 -4 12 3.854 5.086 0.310 30.220 o
-3 -3 1 6.694 6.164 0.609 16.861 o
-3 -3 2 257.823 243.300 9.534 0.093 o
-3 -3 3 98.533 103.994 4.699 0.426 o
-3 -3 4 414.110 487.613 10.109 0.041 o
-3 -3 5 80.263 94.980 2.892 0.654 o
-3 -3 6 32.696 32.439 0.680 3.010 o
-3 -3 7 46.099 49.010 1.948 1.545 o
-3 -3 8 3.206 3.791 0.272 38.424 o
-3 -3 9 72.746 82.733 1.884 0.854 o
-3 -3 10 4.513 4.002 0.261 30.529 o
-3 -3 11 0.070 0.204 0.097 937.073 o
-3 -3 12 1.508 1.555 0.133 91.974 o
-3 -2 1 586.620 598.440 14.802 0.023 o
-3 -2 2 399.782 403.053 11.428 0.045 o
-3 -2 3 28.125 25.336 0.844 3.653 o
-3 -2 4 7.122 5.405 0.453 18.472 o
-3 -2 5 13.822 23.247 0.849 6.126 o
-3 -2 6 59.013 66.594 1.513 1.186 o
-3 -2 7 19.969 15.594 0.462 6.170 o
-3 -2 8 71.771 78.704 1.406 0.927 o
-3 -2 9 35.356 38.622 0.897 2.538 o
-3 -2 10 0.115 0.247 0.100 724.372 o
-3 -2 11 4.348 3.011 0.194 35.103 o
-3 -2 12 0.265 0.152 0.113 519.111 o
-3 -2 13 22.570 14.566 0.624 5.489 o
-3 -1 1 489.599 490.533 8.199 0.035 o
-3 -1 2 291.196 328.581 5.760 0.084 o
-3 -1 3 8.746 6.874 0.724 12.959 o
-3 -1 4 160.320 155.197 2.723 0.271 o
-3 -1 5 444.582 446.554 6.737 0.043 o
-3 -1 6 105.335 109.479 3.155 0.472 o
-3 -1 7 314.240 321.739 5.088 0.080 o
-3 -1 8 79.015 77.181 2.671 0.747 o
-3 -1 9 4.419 3.977 0.227 31.578 o
-3 -1 10 46.192 44.047 1.241 1.823 o
-3 -1 11 54.034 52.613 1.608 1.403 o
-3 -1 12 0.900 0.886 0.146 149.382 o
-3 0 1 159.644 146.887 2.696 0.280 o
-3 0 2 56.061 67.972 1.479 1.231 o
-3 0 3 28.140 23.230 0.636 3.914 o
-3 0 4 3.428 2.746 0.213 42.320 o
-3 0 5 6.856 4.675 0.402 20.239 o
-3 0 6 344.908 358.439 8.099 0.062 o
-3 0 7 164.318 173.251 2.464 0.252 o
-3 0 8 68.440 63.290 1.015 1.112 o
-3 0 9 22.727 23.058 0.630 4.678 o
-3 0 10 67.175 63.024 1.580 1.075 o
-3 0 11 21.617 22.622 0.597 4.931 o
-3 0 12 0.025 0.156 0.141 906.087 o
-3 1 1 1687.840 1694.240 21.928 0.003 o
-3 1 2 23.822 24.422 0.572 4.452 o
-3 1 3 233.122 232.286 2.844 0.143 o
-3 1 4 202.885 190.487 3.583 0.182 o
-3 1 5 193.132 204.133 4.447 0.177 o
-3 1 6 98.403 103.803 1.838 0.578 o
-3 1 7 9.081 9.541 0.375 13.548 o
-3 1 8 1.307 1.439 0.125 103.977 o
-3 1 9 2.155 2.155 0.219 61.507 o
-3 1 10 26.773 25.182 1.085 3.599 o
-3 1 11 41.437 44.002 1.530 1.897 o
-3 1 12 24.380 20.592 0.773 4.476 o
-3 2 1 605.734 614.199 13.196 0.022 o
-3 2 2 78.755 72.621 1.785 0.852 o
-3 2 3 2.708 1.832 0.228 54.831 o
-3 2 4 525.287 495.839 8.845 0.032 o
-3 2 5 98.754 108.256 2.523 0.534 o
-3 2 6 420.801 393.457 5.368 0.050 o
-3 2 7 158.059 153.212 2.545 0.279 o
-3 2 8 226.546 200.899 2.916 0.160 o
-3 2 9 87.885 90.962 4.992 0.463 o
-3 2 10 7.412 8.196 0.367 16.452 o
-3 2 11 15.237 13.598 0.632 7.643 o
-3 3 1 1.624 1.727 0.209 78.994 o
-3 3 2 6.565 13.054 0.569 13.227 o
-3 3 3 639.763 668.981 10.282 0.021 o
-3 3 4 390.650 378.002 6.318 0.055 o
-3 3 5 19.378 16.702 0.575 6.036 o
-3 3 6 0.179 0.203 0.127 564.065 o
-3 3 7 0.957 0.872 0.169 139.691 o
-3 3 8 21.704 18.443 0.511 5.393 o
-3 3 9 11.154 12.854 0.630 9.651 o
-3 3 10 43.602 41.706 1.350 1.923 o
-3 4 1 151.485 158.759 2.582 0.286 o
-3 4 2 76.334 64.426 1.608 0.941 o
-3 4 3 180.323 163.627 3.655 0.222 o
-3 4 4 67.249 61.856 1.159 1.129 o
-3 4 5 33.331 33.004 1.177 2.700 o
-3 4 6 46.615 38.109 1.349 1.879 o
-3 4 7 17.788 19.681 0.624 5.990 o
-3 4 8 3.701 4.599 0.237 33.532 o
-3 4 9 17.716 16.974 0.535 6.494 o
-3 5 1 26.249 24.007 0.874 3.911 o
-3 5 2 106.973 101.624 2.244 0.522 o
-3 5 3 162.059 162.987 2.782 0.260 o
-3 5 4 43.178 36.668 0.907 2.181 o
-3 5 5 32.317 34.107 1.442 2.570 o
-3 5 6 2.738 1.810 0.208 55.425 o
-3 5 7 4.300 6.623 0.283 25.889 o
-3 5 8 47.791 48.608 1.608 1.605 o
-3 5 9 1.022 0.773 0.141 144.092 o
-3 6 1 24.890 26.066 0.844 3.976 o
-3 6 2 243.570 263.057 3.551 0.124 o
-3 6 3 86.444 90.168 1.736 0.708 o
-3 6 4 32.254 30.064 1.101 2.915 o
-3 6 5 2.766 5.080 0.397 33.602 o
-3 6 6 33.327 38.756 1.561 2.325 o
-3 6 7 1.653 2.059 0.193 74.895 o
-3 6 8 28.931 26.251 0.866 3.509 o
-3 7 1 534.643 560.906 9.111 0.029 o
-3 7 2 16.042 20.202 1.145 5.340 o
-3 7 3 2.439 4.132 0.315 41.713 o
-3 7 4 4.503 4.126 0.511 25.415 o
-3 7 5 9.306 11.370 0.486 11.998 o
-3 7 6 22.015 24.011 0.991 4.324 o
-3 7 7 1.277 1.138 0.281 91.959 o
-3 8 1 9.110 10.526 0.537 12.260 o
-3 8 2 21.230 23.890 1.159 4.220 o
-3 8 3 1.010 1.718 0.406 72.502 o
-3 8 4 19.637 21.349 0.835 5.116 o
-3 8 5 0.002 0.241 0.088 1262.080 o
-3 8 6 12.204 11.787 0.960 8.071 o
-3 9 1 6.456 7.287 0.540 17.122 o
-3 9 2 5.376 5.808 0.718 17.755 o
-3 9 3 0.025 0.089 0.109 1431.720 o
-3 9 4 5.776 6.009 0.226 22.909 o
-3 10 1 1.123 1.346 0.153 113.366 o
-3 10 2 4.093 4.689 0.235 31.302 o
-2 -10 2 0.048 0.055 0.109 1377.800 o
-2 -10 3 9.634 6.120 0.515 13.987 o
-2 -10 4 3.463 3.052 0.390 35.656 o
-2 -10 5 0.198 0.242 0.101 572.536 o
-2 -10 6 7.629 6.932 0.398 16.856 o
-2 -10 7 2.027 0.976 0.156 82.288 o
-2 -10 8 5.016 3.895 0.258 28.629 o
-2 -9 1 0.035 0.004 0.182 799.730 o
-2 -9 2 0.478 0.887 0.253 161.222 o
-2 -9 3 0.038 -0.001 0.193 718.607 o
-2 -9 4 51.935 51.148 1.612 1.467 o
-2 -9 5 0.966 1.132 0.170 128.165 o
-2 -9 6 13.538 13.831 0.651 8.211 o
-2 -9 7 11.872 9.472 0.693 9.937 o
-2 -9 8 0.121 0.087 0.133 766.441 o
-2 -9 9 3.163 2.787 0.523 33.402 o
-2 -9 10 2.762 1.517 0.134 60.130 o
-2 -8 1 83.028 79.900 1.754 0.779 o
-2 -8 2 34.923 39.398 1.383 2.326 o
-2 -8 3 0.114 0.223 0.209 411.208 o
-2 -8 4 60.562 60.596 2.755 1.001 o
-2 -8 5 0.399 0.206 0.159 327.000 o
-2 -8 6 13.067 12.632 0.483 9.172 o
-2 -8 7 5.059 5.088 0.604 20.864 o
-2 -8 8 13.853 11.176 0.825 8.063 o
-2 -8 9 6.525 7.940 0.392 17.864 o
-2 -8 10 3.319 2.709 0.301 40.819 o
-2 -8 11 0.915 1.076 0.145 139.176 o
-2 -7 1 3.005 4.076 0.425 34.208 o
-2 -7 2 23.503 24.593 0.937 4.150 o
-2 -7 3 0.087 -0.059 0.168 763.078 o
-2 -7 4 24.275 24.793 0.732 4.233 o
-2 -7 5 14.559 14.374 0.594 7.844 o
-2 -7 6 4.928 5.329 0.257 26.267 o
-2 -7 7 3.311 4.353 0.298 35.237 o
-2 -7 8 7.755 6.483 0.632 14.996 o
-2 -7 9 0.064 0.017 0.127 1171.610 o
-2 -7 10 1.399 2.145 0.210 79.398 o
-2 -7 11 0.926 1.221 0.132 134.423 o
-2 -7 12 3.359 2.595 0.464 35.060 o
-2 -6 1 23.728 23.213 0.897 4.253 o
-2 -6 2 36.447 37.342 1.172 2.399 o
-2 -6 3 5.251 6.209 0.546 20.168 o
-2 -6 4 6.802 7.129 0.429 17.762 o
-2 -6 5 13.191 12.536 0.473 9.159 o
-2 -6 6 180.122 171.206 5.332 0.196 o
-2 -6 7 153.948 160.590 5.936 0.221 o
-2 -6 8 109.317 120.780 9.043 0.215 o
-2 -6 9 16.155 16.671 0.621 6.848 o
-2 -6 10 0.469 0.675 0.137 238.136 o
-2 -6 11 5.697 5.149 1.112 12.507 o
-2 -6 12 0.084 0.226 0.127 714.668 o
-2 -5 1 53.240 49.060 1.210 1.545 o
-2 -5 2 31.139 31.647 1.686 2.539 o
-2 -5 3 203.148 191.928 5.934 0.160 o
-2 -5 4 0.203 0.405 0.122 438.294 o
-2 -5 5 1.985 2.812 0.311 53.733 o
-2 -5 6 318.070 324.236 9.991 0.066 o
-2 -5 7 4.491 3.902 0.270 30.725 o
-2 -5 8 15.097 15.360 0.563 7.529 o
-2 -5 9 0.376 0.340 0.124 342.447 o
-2 -5 10 10.852 9.621 0.417 11.744 o
-2 -5 11 25.326 23.022 2.646 2.224 o
-2 -5 12 21.757 21.657 2.755 2.284 o
-2 -4 1 89.745 80.725 2.842 0.643 o
-2 -4 2 148.282 160.135 6.260 0.222 o
-2 -4 3 39.895 50.629 1.461 1.860 o
-2 -4 4 855.651 1010.240 28.503 0.009 o
-2 -4 5 541.585 550.454 12.392 0.027 o
-2 -4 6 305.180 291.792 11.368 0.067 o
-2 -4 7 124.640 125.606 2.385 0.400 o
-2 -4 8 41.385 43.665 0.964 2.090 o
-2 -4 9 106.684 108.908 3.336 0.459 o
-2 -4 10 5.002 5.021 0.272 26.359 o
-2 -4 11 9.807 10.138 0.473 12.153 o
-2 -4 12 12.490 13.716 0.767 8.300 o
-2 -3 1 78.733 82.676 2.301 0.761 o
-2 -3 2 0.541 0.374 0.170 239.423 o
-2 -3 3 0.067 0.090 0.116 1068.930 o
-2 -3 4 1552.470 1598.920 58.539 0.003 o
-2 -3 5 448.122 499.256 32.781 0.017 o
-2 -3 6 146.011 157.902 2.645 0.297 o
-2 -3 7 47.158 44.892 1.535 1.696 o
-2 -3 8 4.716 6.553 0.359 23.708 o
-2 -3 9 117.650 126.419 1.767 0.437 o
-2 -3 10 22.401 26.038 0.561 4.553 o
-2 -3 11 96.432 94.127 1.785 0.621 o
-2 -3 12 0.267 0.304 0.084 480.105 o
-2 -3 13 5.425 3.247 0.281 27.957 o
-2 -2 1 19.961 17.394 1.116 4.950 o
-2 -2 2 806.306 813.685 14.603 0.013 o
-2 -2 3 312.453 353.841 6.025 0.074 o
-2 -2 4 135.500 139.971 2.078 0.352 o
-2 -2 5 427.638 407.977 6.785 0.047 o
-2 -2 6 41.538 49.035 1.669 1.762 o
-2 -2 7 24.168 22.523 0.957 4.177 o
-2 -2 8 23.904 26.332 0.647 4.248 o
-2 -2 9 4.526 6.352 0.269 25.749 o
-2 -2 10 19.172 23.450 0.520 5.389 o
-2 -2 11 7.733 8.091 0.299 16.464 o
-2 -2 12 7.461 4.367 0.503 18.257 o
-2 -2 13 6.190 4.028 0.297 23.865 o
-2 -1 1 983.795 935.967 17.466 0.009 o
-2 -1 2 4170.840 4030.080 45.636 0.001 o
-2 -1 3 472.418 516.533 5.841 0.037 o
-2 -1 4 828.876 838.475 11.339 0.013 o
-2 -1 5 171.517 157.638 3.731 0.237 o
-2 -1 6 62.670 57.685 2.137 1.101 o
-2 -1 7 227.826 247.029 4.894 0.132 o
-2 -1 8 23.793 23.214 0.692 4.447 o
-2 -1 9 16.213 13.418 0.528 7.548 o
-2 -1 10 23.488 23.506 0.609 4.542 o
-2 -1 11 28.858 32.422 0.793 3.274 o
-2 -1 12 0.363 0.343 0.172 299.843 o
-2 0 1 2355.200 2216.940 40.130 0.002 o
-2 0 2 549.533 526.793 10.230 0.029 o
-2 0 3 268.071 239.722 5.178 0.111 o
-2 0 4 5.539 5.768 0.336 22.814 o
-2 0 5 136.606 111.634 5.249 0.301 o
-2 0 6 315.647 353.748 8.300 0.068 o
-2 0 7 79.873 79.641 1.165 0.848 o
-2 0 8 88.686 88.700 1.500 0.709 o
-2 0 9 2.662 3.165 0.259 46.121 o
-2 0 10 1.018 0.716 0.230 126.821 o
-2 0 11 44.395 43.909 1.296 1.872 o
-2 0 12 10.689 11.576 0.601 10.417 o
-2 1 1 748.161 728.993 24.288 0.013 o
-2 1 2 267.087 276.989 4.473 0.106 o
-2 1 3 15.912 13.886 0.385 7.828 o
-2 1 4 269.454 292.749 4.963 0.100 o
-2 1 5 188.153 184.864 4.894 0.187 o
-2 1 6 56.653 49.446 1.828 1.335 o
-2 1 7 103.259 100.578 1.573 0.569 o
-2 1 8 55.372 50.315 1.065 1.499 o
-2 1 9 124.431 119.870 2.368 0.410 o
-2 1 10 0.775 1.686 0.200 116.866 o
-2 1 11 20.954 22.866 0.669 4.952 o
-2 2 1 1424.480 1409.120 19.907 0.005 o
-2 2 2 7.893 7.515 0.355 16.325 o
-2 2 3 375.478 387.077 5.830 0.058 o
-2 2 4 1199.580 1256.190 17.000 0.006 o
-2 2 5 34.579 36.012 1.847 2.170 o
-2 2 6 0.593 0.810 0.228 162.582 o
-2 2 7 7.324 6.908 0.259 18.301 o
-2 2 8 153.211 145.541 3.361 0.283 o
-2 2 9 37.101 39.481 1.292 2.261 o
-2 2 10 18.266 22.129 0.669 5.541 o
-2 2 11 5.771 4.777 0.304 23.906 o
-2 3 1 62.315 60.542 1.497 1.183 o
-2 3 2 9.196 4.425 0.444 16.061 o
-2 3 3 177.165 194.968 3.594 0.207 o
-2 3 4 58.525 47.350 1.457 1.392 o
-2 3 5 95.683 91.742 2.918 0.570 o
-2 3 6 144.074 131.032 3.021 0.324 o
-2 3 7 442.640 425.009 5.813 0.045 o
-2 3 8 24.852 25.852 0.683 4.126 o
-2 3 9 27.031 28.169 0.800 3.651 o
-2 3 10 14.692 12.045 0.531 8.421 o
-2 4 1 385.287 408.257 9.607 0.049 o
-2 4 2 515.181 572.395 19.004 0.023 o
-2 4 3 8.926 12.826 0.874 9.742 o
-2 4 4 32.597 30.794 0.936 2.959 o
-2 4 5 34.686 32.211 1.572 2.414 o
-2 4 6 129.709 120.643 3.853 0.350 o
-2 4 7 22.941 27.456 0.611 4.331 o
-2 4 8 23.863 24.531 0.722 4.315 o
-2 4 9 18.293 18.430 0.773 5.783 o
-2 5 1 5.487 8.428 0.710 15.796 o
-2 5 2 1.327 0.829 0.116 121.327 o
-2 5 3 28.637 27.517 0.839 3.494 o
-2 5 4 1.319 1.202 0.174 104.030 o
-2 5 5 24.099 26.084 0.769 4.139 o
-2 5 6 0.803 0.353 0.143 198.970 o
-2 5 7 10.012 11.739 0.514 11.191 o
-2 5 8 22.608 21.706 1.503 3.717 o
-2 5 9 0.242 0.148 0.070 641.752 o
-2 6 1 121.190 123.102 2.355 0.416 o
-2 6 2 0.141 0.200 0.093 740.906 o
-2 6 3 64.898 66.824 2.485 0.956 o
-2 6 4 3.637 1.902 0.191 44.805 o
-2 6 5 59.323 62.325 2.225 1.101 o
-2 6 6 131.587 146.174 4.293 0.305 o
-2 6 7 2.154 2.361 0.185 61.352 o
-2 6 8 30.393 33.683 1.085 2.929 o
-2 7 1 45.678 48.003 1.252 1.772 o
-2 7 2 0.015 0.097 0.102 1616.680 o
-2 7 3 9.066 11.592 0.709 10.947 o
-2 7 4 4.377 6.156 0.430 24.221 o
-2 7 5 0.441 1.366 0.258 139.194 o
-2 7 6 52.591 60.098 1.341 1.403 o
-2 7 7 7.332 9.008 0.414 15.691 o
-2 8 1 0.508 0.567 0.218 197.027 o
-2 8 2 21.029 23.206 0.817 4.742 o
-2 8 3 12.303 14.558 1.171 6.777 o
-2 8 4 55.907 61.810 1.547 1.281 o
-2 8 5 4.700 4.738 0.328 27.171 o
-2 8 6 28.276 24.760 0.788 3.708 o
-2 9 1 4.195 5.104 0.497 25.148 o
-2 9 2 26.338 27.773 1.569 3.061 o
-2 9 3 1.098 0.967 0.164 125.614 o
-2 9 4 39.471 33.606 0.745 2.497 o
-2 10 1 7.707 8.071 0.671 13.813 o
-2 10 2 18.195 13.739 0.808 6.308 o
-1 -10 1 3.811 2.958 0.367 34.578 o
-1 -10 2 0.192 0.172 0.144 524.736 o
-1 -10 3 2.294 2.034 0.257 58.045 o
-1 -10 4 5.169 5.978 1.030 13.584 o
-1 -10 5 1.696 1.141 0.126 93.229 o
-1 -10 6 5.829 6.901 0.377 20.319 o
-1 -10 7 6.093 5.355 0.398 21.223 o
-1 -10 8 0.392 0.148 0.117 397.884 o
-1 -10 9 7.408 4.723 0.289 20.061 o
-1 -9 1 51.135 53.499 4.106 0.867 o
-1 -9 2 45.686 51.500 2.709 1.295 o
-1 -9 3 8.141 8.026 0.633 13.701 o
-1 -9 4 30.689 30.468 1.052 3.048 o
-1 -9 5 4.872 5.462 0.426 23.850 o
-1 -9 6 11.419 12.263 1.062 7.846 o
-1 -9 7 16.173 16.638 1.485 4.861 o
-1 -9 8 4.064 5.213 0.298 29.236 o
-1 -9 9 4.695 5.874 0.343 25.012 o
-1 -9 10 0.097 0.006 0.089 1425.740 o
-1 -8 1 21.155 20.232 0.730 5.081 o
-1 -8 2 14.407 16.251 0.687 7.334 o
-1 -8 3 1.598 1.693 0.253 76.142 o
-1 -8 4 62.005 65.188 2.311 1.029 o
-1 -8 5 32.217 29.958 1.300 2.794 o
-1 -8 6 0.888 0.837 0.171 147.292 o
-1 -8 7 20.469 18.212 1.146 4.749 o
-1 -8 8 1.953 1.606 0.185 73.565 o
-1 -8 9 0.427 0.569 0.120 275.740 o
-1 -8 10 2.026 1.589 0.169 72.980 o
-1 -8 11 9.899 9.646 0.597 11.657 o
-1 -7 1 10.892 11.605 0.517 10.621 o
-1 -7 2 266.521 264.932 3.294 0.113 o
-1 -7 3 3.613 3.262 0.312 36.410 o
-1 -7 4 65.994 59.304 1.536 1.127 o
-1 -7 5 58.011 52.503 2.249 1.193 o
-1 -7 6 4.273 5.189 0.351 27.531 o
-1 -7 7 15.376 13.614 0.693 7.440 o
-1 -7 8 43.905 38.484 1.797 1.807 o
-1 -7 9 3.546 2.913 0.214 40.629 o
-1 -7 10 3.662 3.932 0.480 29.666 o
-1 -7 11 2.570 2.274 0.221 53.971 o
-1 -7 12 1.248 1.749 0.195 92.644 o
-1 -6 1 30.368 35.372 1.029 2.903 o
-1 -6 2 139.407 136.622 2.793 0.333 o
-1 -6 3 32.374 32.115 0.921 2.934 o
-1 -6 4 27.061 24.903 1.038 3.627 o
-1 -6 5 28.726 27.232 0.826 3.508 o
-1 -6 6 30.017 34.455 1.166 2.878 o
-1 -6 7 47.618 49.717 1.497 1.624 o
-1 -6 8 3.397 4.505 0.252 35.292 o
-1 -6 9 92.316 95.666 1.793 0.643 o
-1 -6 10 1.642 2.316 0.193 71.978 o
-1 -6 11 9.049 9.587 0.738 11.495 o
-1 -6 12 3.478 3.522 0.851 20.832 o
-1 -5 1 10.695 8.554 0.447 12.188 o
-1 -5 2 2.155 1.112 0.217 72.432 o
-1 -5 3 1.242 3.868 0.367 53.042 o
-1 -5 4 5.133 4.056 0.270 27.684 o
-1 -5 5 7.899 8.054 0.395 15.696 o
-1 -5 6 183.683 183.238 2.693 0.214 o
-1 -5 7 137.594 135.328 1.999 0.354 o
-1 -5 8 6.412 7.750 0.454 17.669 o
-1 -5 9 10.662 11.577 0.342 11.386 o
-1 -5 10 1.774 1.396 0.124 85.755 o
-1 -5 11 4.138 4.059 0.364 30.172 o
-1 -5 12 1.847 1.254 0.220 78.407 o
-1 -4 1 377.599 380.860 7.953 0.055 o
-1 -4 2 94.196 96.692 2.066 0.614 o
-1 -4 3 121.794 127.208 4.511 0.340 o
-1 -4 4 2387.000 2558.690 40.312 0.002 o
-1 -4 5 42.541 42.544 1.559 1.874 o
-1 -4 6 2.744 2.585 0.204 50.374 o
-1 -4 7 0.971 0.994 0.143 138.225 o
-1 -4 8 0.427 0.359 0.081 344.165 o
-1 -4 9 37.288 37.792 0.670 2.524 o
-1 -4 10 13.100 13.281 0.654 8.506 o
-1 -4 11 9.185 10.690 0.444 12.583 o
-1 -4 12 0.464 0.430 0.126 283.414 o
-1 -3 1 161.986 149.315 4.433 0.246 o
-1 -3 2 26.166 26.971 0.867 3.757 o
-1 -3 3 62.162 63.266 2.298 1.042 o
-1 -3 4 825.785 872.055 23.675 0.011 o
-1 -3 5 51.021 47.191 1.395 1.590 o
-1 -3 6 55.748 51.918 2.534 1.171 o
-1 -3 7 84.462 77.691 1.818 0.771 o
-1 -3 8 5.219 6.620 0.308 22.834 o
-1 -3 9 62.103 66.100 0.953 1.200 o
-1 -3 10 53.774 61.203 1.010 1.414 o
-1 -3 11 87.570 88.667 1.639 0.711 o
-1 -3 12 11.412 9.931 0.407 11.236 o
-1 -2 1 1192.860 1163.730 90.576 0.002 o
-1 -2 2 3933.620 3885.030 47.557 0.001 o
-1 -2 3 1403.030 1408.390 18.519 0.005 o
-1 -2 4 77.162 72.507 1.594 0.886 o
-1 -2 5 510.634 493.532 10.139 0.032 o
-1 -2 6 1.521 1.742 0.304 72.319 o
-1 -2 7 299.473 314.883 4.102 0.088 o
-1 -2 8 12.991 15.050 0.428 8.749 o
-1 -2 9 86.821 83.905 1.823 0.725 o
-1 -2 10 69.828 65.539 1.134 1.063 o
-1 -2 11 1.936 2.646 0.198 62.115 o
-1 -2 12 0.409 0.330 0.111 338.959 o
-1 -1 1 1894.190 1786.860 22.959 0.003 o
-1 -1 2 7912.960 6775.870 85.554 0.000 o
-1 -1 3 154.509 135.369 2.023 0.312 o
-1 -1 4 437.262 445.527 8.835 0.042 o
-1 -1 5 16.828 26.819 1.218 4.531 o
-1 -1 6 101.817 105.146 3.195 0.494 o
-1 -1 7 57.527 53.864 1.269 1.374 o
-1 -1 8 94.112 98.183 2.173 0.604 o
-1 -1 9 88.958 87.575 2.250 0.667 o
-1 -1 10 55.959 53.963 1.462 1.375 o
-1 -1 11 1.407 2.022 0.297 72.493 o
-1 -1 12 13.814 12.349 0.593 8.577 o
-1 0 1 393.121 371.669 5.460 0.056 o
-1 0 2 46.199 42.886 1.037 1.896 o
-1 0 3 1774.980 1698.180 32.409 0.003 o
-1 0 4 35.827 37.542 1.106 2.456 o
-1 0 5 792.226 825.842 29.935 0.010 o
-1 0 6 172.260 180.055 15.085 0.087 o
-1 0 7 33.636 35.913 0.936 2.710 o
-1 0 8 121.671 115.754 4.366 0.359 o
-1 0 9 0.715 1.247 0.181 141.927 o
-1 0 10 4.471 4.591 0.328 28.335 o
-1 0 11 12.042 12.867 0.773 8.657 o
-1 0 12 0.156 -0.004 0.059 1247.130 o
-1 1 1 1028.520 968.544 23.252 0.008 o
-1 1 2 28.753 33.287 0.619 3.332 o
-1 1 3 1.127 0.897 0.195 120.578 o
-1 1 4 993.332 1058.520 16.007 0.009 o
-1 1 5 404.775 423.281 7.863 0.048 o
-1 1 6 270.451 246.560 3.211 0.116 o
-1 1 7 44.069 37.961 0.754 2.150 o
-1 1 8 84.974 76.885 1.332 0.801 o
-1 1 9 114.629 114.380 2.409 0.455 o
-1 1 10 2.172 1.572 0.226 66.254 o
-1 1 11 1.489 1.283 0.140 97.764 o
-1 2 1 922.998 916.293 12.195 0.011 o
-1 2 2 607.549 646.914 9.122 0.023 o
-1 2 3 140.963 143.102 3.068 0.316 o
-1 2 4 425.064 442.664 11.392 0.040 o
-1 2 5 3.138 3.315 0.512 32.557 o
-1 2 6 61.277 57.285 0.866 1.309 o
-1 2 7 46.683 47.189 0.852 1.842 o
-1 2 8 47.273 49.226 1.089 1.739 o
-1 2 9 0.673 1.026 0.110 175.924 o
-1 2 10 0.061 0.040 0.080 1770.440 o
-1 3 1 267.561 270.703 4.013 0.109 o
-1 3 2 4765.310 4711.310 73.919 0.000 o
-1 3 3 9.520 7.148 0.545 13.383 o
-1 3 4 249.330 217.065 5.226 0.127 o
-1 3 5 22.232 25.355 0.648 4.560 o
-1 3 6 348.682 339.113 4.120 0.070 o
-1 3 7 182.622 194.472 2.733 0.208 o
-1 3 8 6.733 6.123 0.246 20.317 o
-1 3 9 18.689 19.896 0.505 5.905 o
-1 4 1 158.877 185.215 3.172 0.243 o
-1 4 2 644.121 692.882 13.025 0.019 o
-1 4 3 252.856 277.973 3.549 0.116 o
-1 4 4 420.688 428.748 8.448 0.045 o
-1 4 5 212.656 209.006 4.153 0.161 o
-1 4 6 3.059 2.270 0.255 46.812 o
-1 4 7 14.953 18.316 0.737 6.723 o
-1 4 8 21.872 25.010 1.510 3.617 o
-1 4 9 21.259 22.965 0.804 4.740 o
-1 5 1 28.185 34.127 1.166 3.022 o
-1 5 2 181.118 182.263 2.421 0.221 o
-1 5 3 56.758 60.668 1.148 1.336 o
-1 5 4 186.542 198.118 6.045 0.169 o
-1 5 5 99.490 108.666 3.724 0.468 o
-1 5 6 0.356 0.295 0.192 290.602 o
-1 5 7 9.223 10.942 0.375 12.734 o
-1 5 8 1.461 1.889 0.219 80.530 o
-1 6 1 29.875 26.834 0.682 3.502 o
-1 6 2 89.800 89.043 2.021 0.671 o
-1 6 3 51.535 55.881 1.229 1.498 o
-1 6 4 88.064 86.996 1.621 0.714 o
-1 6 5 3.117 5.114 0.350 32.907 o
-1 6 6 6.541 7.320 0.414 18.184 o
-1 6 7 6.336 6.112 0.328 20.549 o
-1 7 1 7.022 7.305 0.396 17.535 o
-1 7 2 96.808 98.528 2.036 0.594 o
-1 7 3 79.344 83.140 3.724 0.622 o
-1 7 4 24.983 27.275 1.183 3.579 o
-1 7 5 1.478 0.976 0.211 97.231 o
-1 7 6 12.162 12.721 0.987 7.801 o
-1 8 1 41.828 49.759 1.675 1.740 o
-1 8 2 24.130 26.517 1.276 3.603 o
-1 8 3 0.204 0.928 0.183 245.984 o
-1 8 4 8.802 10.806 0.460 12.801 o
-1 8 5 0.046 0.080 0.055 2086.730 o
-1 9 1 0.397 0.999 0.272 155.839 o
-1 9 2 4.570 5.492 0.303 26.637 o
-1 9 3 1.752 0.980 0.122 94.443 o
-1 10 1 0.378 0.172 0.164 340.741 o
-1 10 2 12.339 5.683 0.265 12.659 o
0 -11 3 0.690 0.312 0.117 237.490 o
0 -11 4 0.170 0.194 0.067 753.465 o
0 -11 5 1.878 0.890 0.187 86.073 o
0 -11 6 0.013 0.062 0.094 2068.530 o
0 -10 1 12.655 11.451 1.510 5.876 o
0 -10 2 2.098 2.193 0.343 54.394 o
0 -10 3 11.666 12.918 0.666 9.228 o
0 -10 4 2.657 3.102 0.301 44.923 o
0 -10 5 1.392 1.140 0.148 104.893 o
0 -10 6 10.355 11.173 1.034 8.610 o
0 -10 7 8.071 8.046 0.337 15.813 o
0 -10 8 0.107 0.139 0.078 1022.810 o
0 -10 9 2.911 2.256 0.226 49.567 o
0 -9 1 50.825 53.619 2.646 1.208 o
0 -9 2 0.797 1.108 0.343 101.042 o
0 -9 3 6.872 6.987 0.886 13.159 o
0 -9 4 5.251 6.456 0.491 20.683 o
0 -9 5 0.139 0.189 0.132 623.534 o
0 -9 6 7.339 5.183 0.292 19.702 o
0 -9 7 5.417 7.225 0.419 20.400 o
0 -9 8 10.229 11.853 0.709 10.124 o
0 -9 9 0.139 0.385 0.115 527.363 o
0 -9 10 0.403 0.172 0.226 260.000 o
0 -8 1 38.548 42.454 1.751 1.940 o
0 -8 2 13.649 15.329 0.738 7.629 o
0 -8 3 6.307 6.509 0.446 19.032 o
0 -8 4 26.670 26.180 0.824 3.779 o
0 -8 5 36.941 33.619 1.362 2.379 o
0 -8 6 0.125 0.187 0.130 656.660 o
0 -8 7 13.416 12.291 0.794 8.121 o
0 -8 8 3.727 6.214 0.386 27.021 o
0 -8 9 6.945 10.889 0.771 12.406 o
0 -8 10 12.145 13.511 0.423 9.585 o
0 -8 11 5.793 5.670 0.355 22.062 o
0 -7 1 47.584 49.447 1.597 1.602 o
0 -7 2 269.289 276.416 5.284 0.103 o
0 -7 3 10.122 10.242 0.464 11.890 o
0 -7 4 4.028 3.860 0.294 32.667 o
0 -7 5 106.697 104.474 3.412 0.464 o
0 -7 6 0.853 0.684 0.152 164.184 o
0 -7 7 7.916 7.196 0.576 14.869 o
0 -7 8 20.236 18.460 1.679 3.858 o
0 -7 9 29.915 31.358 1.772 2.550 o
0 -7 10 5.004 4.168 0.261 28.079 o
0 -7 11 1.562 2.393 0.205 72.145 o
0 -7 12 2.578 2.888 0.234 49.464 o
0 -6 1 2.523 2.950 0.257 48.851 o
0 -6 2 152.264 156.159 2.751 0.285 o
0 -6 3 92.084 81.394 2.008 0.683 o
0 -6 4 8.684 8.912 0.417 14.097 o
0 -6 5 117.415 111.263 4.232 0.382 o
0 -6 6 10.602 9.632 0.418 11.935 o
0 -6 7 11.689 11.741 0.978 8.207 o
0 -6 8 8.180 7.650 0.512 14.787 o
0 -6 9 28.289 31.006 0.825 3.371 o
0 -6 10 0.249 0.440 0.122 389.376 o
0 -6 11 8.717 9.015 0.374 14.225 o
0 -6 12 2.885 3.068 0.297 43.113 o
0 -5 1 4.574 4.901 0.408 25.968 o
0 -5 2 59.859 70.325 1.790 1.103 o
0 -5 3 91.862 80.844 3.324 0.593 o
0 -5 4 221.630 252.770 5.648 0.130 o
0 -5 5 9.879 6.939 0.342 14.240 o
0 -5 6 24.152 22.088 0.762 4.411 o
0 -5 7 250.600 244.494 3.302 0.127 o
0 -5 8 240.079 233.481 3.152 0.137 o
0 -5 9 5.466 6.605 0.252 22.727 o
0 -5 10 9.452 8.964 0.399 13.357 o
0 -5 11 1.031 0.708 0.156 143.198 o
0 -5 12 2.863 2.240 0.343 45.248 o
0 -4 1 139.815 133.085 3.404 0.323 o
0 -4 2 0.880 0.476 0.179 165.725 o
0 -4 3 13.154 9.497 1.030 7.856 o
0 -4 4 386.901 407.949 8.051 0.051 o
0 -4 5 31.148 32.724 1.424 2.691 o
0 -4 6 36.260 33.768 0.595 2.735 o
0 -4 7 20.849 24.183 0.391 5.096 o
0 -4 8 63.388 66.903 0.899 1.175 o
0 -4 9 2.507 2.456 0.145 56.356 o
0 -4 10 0.742 0.850 0.113 177.857 o
0 -4 11 38.002 40.061 1.025 2.309 o
0 -4 12 1.356 1.175 0.161 104.373 o
0 -3 1 740.049 708.210 14.898 0.016 o
0 -3 2 4720.780 4699.670 60.753 0.000 o
0 -3 3 5.798 11.748 0.628 14.248 o
0 -3 4 620.182 642.670 8.971 0.023 o
0 -3 5 76.441 85.361 2.314 0.768 o
0 -3 6 158.188 148.760 4.272 0.255 o
0 -3 7 52.935 51.335 0.715 1.599 o
0 -3 8 0.366 0.412 0.077 366.031 o
0 -3 9 5.719 5.537 0.246 23.559 o
0 -3 10 24.043 25.002 0.742 4.241 o
0 -3 11 20.317 21.764 0.784 5.027 o
0 -3 12 2.093 5.134 2.826 3.528 o
0 -2 1 515.833 509.721 26.095 0.020 o
0 -2 2 8811.290 7784.500 140.846 0.000 o
0 -2 3 467.115 486.029 12.977 0.033 o
0 -2 4 462.877 462.617 7.094 0.040 o
0 -2 5 90.819 95.837 4.122 0.504 o
0 -2 6 149.207 153.418 3.877 0.274 o
0 -2 7 236.186 236.803 3.210 0.138 o
0 -2 8 12.698 16.071 0.359 8.784 o
0 -2 9 134.313 132.617 2.815 0.351 o
0 -2 10 0.188 0.199 0.120 574.277 o
0 -2 11 8.989 6.603 0.416 15.095 o
0 -2 12 23.424 18.094 0.757 4.839 o
0 -1 1 0.061 0.157 0.137 816.019 o
0 -1 2 909.744 836.813 16.306 0.011 o
0 -1 3 552.643 512.311 9.757 0.029 o
0 -1 4 159.505 153.536 3.422 0.264 o
0 -1 5 239.300 255.829 5.493 0.120 o
0 -1 6 24.493 37.733 3.489 1.492 o
0 -1 7 13.110 10.400 0.317 10.180 o
0 -1 8 113.453 109.530 2.705 0.458 o
0 -1 9 124.528 122.545 2.933 0.390 o
0 -1 10 24.014 22.026 1.063 4.107 o
0 -1 11 3.993 3.995 0.281 32.770 o
0 -1 12 16.058 14.580 2.170 3.565 o
0 0 1 145.761 135.359 12.888 0.120 o
0 0 2 791.434 815.333 17.185 0.013 o
0 0 3 180.828 180.573 3.760 0.209 o
0 0 4 160.537 163.901 3.284 0.255 o
0 0 5 199.662 197.095 5.594 0.164 o
0 0 6 7.809 7.486 0.230 17.149 o
0 0 7 28.249 26.571 0.464 3.798 o
0 0 8 3.495 3.246 0.186 40.321 o
0 0 9 5.782 4.786 0.227 24.652 o
0 0 10 12.887 13.025 0.551 8.975 o
0 0 11 0.059 -0.002 0.092 1859.200 o
0 1 0 1629.200 1454.090 21.598 0.004 o
0 1 1 99.874 108.359 3.275 0.491 o
0 1 2 1099.460 1056.560 10.400 0.008 o
0 1 3 385.734 357.792 4.716 0.060 o
0 1 4 12.827 13.288 0.613 8.754 o
0 1 5 102.618 105.423 3.809 0.458 o
0 1 6 158.916 154.057 2.097 0.282 o
0 1 7 138.389 129.207 1.768 0.364 o
0 1 8 83.513 82.811 1.521 0.776 o
0 1 9 18.697 23.258 0.645 5.368 o
0 1 10 11.367 10.125 0.425 11.135 o
0 1 11 17.039 17.993 0.695 6.276 o
0 2 0 300.651 309.330 5.008 0.086 o
0 2 1 52.595 46.662 0.779 1.669 o
0 2 2 83.350 75.740 1.365 0.821 o
0 2 3 35.943 33.278 0.914 2.657 o
0 2 4 11.866 13.323 0.801 8.526 o
0 2 5 1.215 0.866 0.114 128.187 o
0 2 6 76.312 67.921 1.093 0.961 o
0 2 7 107.123 109.691 1.499 0.526 o
0 2 8 3.678 3.793 0.271 35.338 o
0 2 9 31.153 30.689 0.880 3.105 o
0 2 10 0.223 0.141 0.101 611.905 o
0 3 0 48.677 53.377 1.347 1.581 o
0 3 1 30.796 24.886 0.578 3.561 o
0 3 2 330.045 369.134 11.974 0.055 o
0 3 3 138.314 135.237 3.981 0.310 o
0 3 4 86.388 84.512 2.932 0.645 o
0 3 5 13.875 16.210 0.432 8.098 o
0 3 6 192.831 201.777 2.924 0.191 o
0 3 7 1.218 1.065 0.145 117.102 o
0 3 8 22.209 21.070 0.657 4.903 o
0 3 9 25.502 28.744 0.787 3.795 o
0 4 0 126.350 141.503 3.104 0.353 o
0 4 1 5.522 10.452 0.476 16.748 o
0 4 2 5.985 3.595 0.336 24.643 o
0 4 3 94.500 86.877 1.630 0.666 o
0 4 4 15.577 14.174 0.579 7.537 o
0 4 5 227.359 229.068 3.600 0.145 o
0 4 6 19.706 21.546 0.624 5.362 o
0 4 7 76.834 81.409 1.526 0.847 o
0 4 8 26.216 29.874 0.651 3.744 o
0 5 0 217.619 240.641 3.759 0.147 o
0 5 1 134.539 150.297 4.046 0.301 o
0 5 2 96.522 98.984 2.052 0.593 o
0 5 3 167.343 172.609 2.366 0.248 o
0 5 4 2.679 1.853 0.191 56.701 o
0 5 5 113.252 112.846 3.335 0.429 o
0 5 6 5.047 6.242 0.382 22.922 o
0 5 7 43.855 48.059 1.193 1.847 o
0 5 8 9.974 9.219 0.398 12.738 o
0 6 0 70.743 76.449 1.583 0.938 o
0 6 1 3.867 2.369 0.354 36.403 o
0 6 2 18.319 21.076 0.745 5.534 o
0 6 3 163.790 165.876 3.390 0.247 o
0 6 4 13.394 14.076 0.574 8.433 o
0 6 5 2.968 3.526 0.276 41.147 o
0 6 6 5.589 6.573 0.492 19.843 o
0 6 7 29.509 30.498 0.999 3.175 o
0 7 0 1.115 0.809 0.149 133.007 o
0 7 1 210.711 218.601 3.787 0.161 o
0 7 2 0.015 0.070 0.132 1264.240 o
0 7 3 70.466 77.106 2.026 0.894 o
0 7 4 11.373 13.675 0.839 8.515 o
0 7 5 28.976 32.520 1.179 3.014 o
0 8 0 95.362 104.287 2.422 0.566 o
0 8 1 95.746 105.052 2.170 0.575 o
0 8 2 0.024 0.309 0.265 322.582 o
0 8 3 0.770 1.065 0.171 147.566 o
0 8 4 19.076 20.951 0.796 5.317 o
0 8 5 1.538 1.475 0.125 92.908 o
0 9 0 1.171 0.947 0.295 97.784 o
0 9 1 13.223 12.953 0.446 9.107 o
0 9 2 5.294 5.807 0.285 24.009 o
0 9 3 4.848 4.324 0.226 28.845 o
0 10 0 0.941 0.789 0.160 147.020 o
0 10 1 1.039 0.273 0.125 173.879 o
1 -11 1 3.781 3.481 0.219 36.762 o
1 -11 2 3.502 1.786 0.157 47.618 o
1 -11 3 5.648 5.300 0.937 14.645 o
1 -11 4 1.913 1.585 0.273 68.094 o
1 -11 6 0.388 0.481 0.090 327.655 o
1 -10 0 0.192 0.356 0.176 377.121 o
1 -10 1 2.161 2.813 0.429 44.823 o
1 -10 2 8.733 8.610 0.458 13.975 o
1 -10 3 42.621 46.882 2.217 1.569 o
1 -10 4 0.547 0.698 0.174 201.027 o
1 -10 5 2.701 2.546 0.257 49.129 o
1 -10 6 0.125 0.079 0.134 759.161 o
1 -10 7 0.512 0.276 0.100 311.388 o
1 -10 8 8.917 6.985 0.613 13.596 o
1 -10 9 1.107 0.687 0.148 138.780 o
1 -9 0 0.247 0.609 0.274 204.153 o
1 -9 1 0.262 0.297 0.429 127.167 o
1 -9 2 2.806 3.075 0.463 37.043 o
1 -9 3 20.856 25.820 1.507 3.681 o
1 -9 4 24.009 24.853 0.833 4.173 o
1 -9 5 3.371 2.797 0.320 39.448 o
1 -9 6 0.103 0.147 0.196 489.930 o
1 -9 7 19.500 19.232 0.914 5.216 o
1 -9 8 3.816 3.498 0.209 36.667 o
1 -9 9 10.858 12.482 0.490 10.456 o
1 -9 10 0.208 0.539 0.094 416.313 o
1 -8 0 86.007 89.396 2.593 0.657 o
1 -8 1 50.959 54.789 2.198 1.308 o
1 -8 2 104.065 115.065 3.188 0.464 o
1 -8 3 5.993 6.784 0.407 19.787 o
1 -8 4 1.028 1.016 0.193 123.513 o
1 -8 5 1.799 0.775 0.186 91.169 o
1 -8 6 69.651 70.647 2.966 0.821 o
1 -8 7 11.865 13.607 0.763 8.607 o
1 -8 8 10.015 10.510 0.847 9.926 o
1 -8 9 27.475 35.137 0.829 3.256 o
1 -8 10 3.900 4.675 0.256 31.956 o
1 -8 11 4.124 4.156 0.246 32.306 o
1 -7 0 8.811 10.981 0.599 11.977 o
1 -7 1 9.965 11.653 0.565 11.031 o
1 -7 2 62.443 69.351 1.275 1.135 o
1 -7 3 27.918 28.842 0.832 3.505 o
1 -7 4 7.310 7.448 0.409 16.868 o
1 -7 5 73.638 67.469 2.661 0.837 o
1 -7 6 57.052 61.555 1.751 1.227 o
1 -7 7 11.045 12.918 0.722 9.325 o
1 -7 8 0.572 0.674 0.121 220.904 o
1 -7 9 26.724 29.891 0.960 3.478 o
1 -7 10 5.732 6.990 0.324 20.950 o
1 -7 11 0.367 0.519 0.104 319.172 o
1 -6 0 820.156 855.892 18.532 0.012 o
1 -6 1 33.525 35.529 0.758 2.805 o
1 -6 2 233.749 219.091 2.849 0.148 o
1 -6 3 116.250 109.603 2.349 0.460 o
1 -6 4 31.818 30.466 1.398 2.737 o
1 -6 5 49.966 43.765 1.541 1.630 o
1 -6 6 1.952 0.969 0.151 85.197 o
1 -6 7 17.347 19.311 0.869 5.724 o
1 -6 8 121.005 111.668 4.605 0.357 o
1 -6 9 5.157 4.138 0.212 28.137 o
1 -6 10 0.832 1.040 0.141 149.532 o
1 -6 11 0.773 0.839 0.190 153.665 o
1 -6 12 28.270 26.119 0.952 3.517 o
1 -5 0 935.318 1059.860 23.110 0.009 o
1 -5 1 54.873 58.754 2.420 1.157 o
1 -5 2 129.685 144.496 3.731 0.325 o
1 -5 3 695.161 738.645 12.661 0.017 o
1 -5 4 157.537 159.660 3.815 0.256 o
1 -5 5 71.351 69.981 1.792 0.949 o
1 -5 6 3.042 3.555 0.151 43.518 o
1 -5 7 198.422 196.053 2.178 0.193 o
1 -5 8 0.607 0.820 0.098 206.496 o
1 -5 9 4.647 5.093 0.204 28.356 o
1 -5 10 35.719 39.759 0.803 2.517 o
1 -5 11 18.008 20.014 0.800 5.625 o
1 -4 0 226.781 263.913 5.085 0.127 o
1 -4 1 127.628 128.268 3.310 0.362 o
1 -4 2 0.374 0.375 0.169 291.928 o
1 -4 3 186.386 227.678 4.732 0.170 o
1 -4 4 465.638 522.462 7.936 0.036 o
1 -4 5 73.536 73.362 6.147 0.446 o
1 -4 6 321.041 294.682 3.293 0.085 o
1 -4 7 0.754 1.388 0.103 146.609 o
1 -4 8 1.136 1.028 0.103 129.249 o
1 -4 9 35.531 36.611 0.653 2.672 o
1 -4 10 19.323 20.973 0.549 5.588 o
1 -4 11 30.469 30.807 0.783 3.210 o
1 -4 12 2.723 2.560 0.336 45.405 o
1 -3 0 312.910 298.362 4.923 0.084 o
1 -3 1 595.016 538.642 7.182 0.027 o
1 -3 2 5.388 4.523 0.347 24.912 o
1 -3 3 30.335 22.917 0.715 3.635 o
1 -3 4 35.524 28.800 0.944 2.817 o
1 -3 5 22.462 21.085 0.904 4.577 o
1 -3 6 38.386 41.161 0.647 2.375 o
1 -3 7 4.781 4.642 0.194 28.837 o
1 -3 8 2.065 1.932 0.154 68.856 o
1 -3 9 17.407 15.752 0.409 6.943 o
1 -3 10 1.153 1.296 0.252 98.382 o
1 -3 11 18.963 18.547 0.532 5.968 o
1 -2 0 340.571 331.624 5.505 0.071 o
1 -2 1 6.527 7.020 0.659 15.932 o
1 -2 2 0.680 0.725 0.105 199.633 o
1 -2 3 96.567 94.669 3.192 0.542 o
1 -2 4 106.029 102.583 9.465 0.214 o
1 -2 5 0.954 0.258 0.203 161.979 o
1 -2 6 179.296 205.929 2.973 0.204 o
1 -2 7 74.147 75.451 1.769 0.888 o
1 -2 8 28.256 26.140 0.598 3.755 o
1 -2 9 83.328 86.706 2.374 0.702 o
1 -2 10 0.155 0.367 0.203 350.981 o
1 -2 11 3.341 2.545 0.382 38.407 o
1 -2 12 8.323 5.854 0.304 17.241 o
1 -1 0 2804.660 2541.730 62.670 0.001 o
1 -1 1 1562.400 1441.670 21.013 0.004 o
1 -1 2 847.076 844.115 15.499 0.012 o
1 -1 3 9.767 8.542 0.718 11.474 o
1 -1 4 200.698 202.517 6.182 0.155 o
1 -1 5 684.333 618.811 58.736 0.006 o
1 -1 6 7.642 9.074 0.302 15.881 o
1 -1 7 183.247 172.662 3.330 0.216 o
1 -1 8 88.943 88.864 1.212 0.719 o
1 -1 9 164.509 155.777 4.514 0.237 o
1 -1 10 79.435 78.603 2.744 0.731 o
1 -1 11 4.868 4.525 0.742 19.370 o
1 0 0 1393.350 1236.110 30.033 0.005 o
1 0 1 865.909 797.839 15.664 0.012 o
1 0 2 9.752 13.203 0.331 11.491 o
1 0 3 163.279 169.144 2.523 0.256 o
1 0 4 935.221 973.384 18.616 0.010 o
1 0 5 45.010 40.756 2.804 1.375 o
1 0 6 149.939 153.291 1.727 0.305 o
1 0 7 311.184 281.123 2.881 0.092 o
1 0 8 0.275 0.461 0.112 378.102 o
1 0 9 7.714 5.708 0.301 18.417 o
1 0 10 53.547 49.915 1.600 1.446 o
1 0 11 1.560 2.435 0.226 70.167 o
1 1 0 20.495 23.379 0.546 5.113 o
1 1 1 3572.230 3216.350 38.099 0.001 o
1 1 2 26.444 30.749 0.683 3.652 o
1 1 3 1268.320 1311.760 30.136 0.005 o
1 1 4 194.230 215.988 8.842 0.129 o
1 1 5 102.425 101.577 1.397 0.576 o
1 1 6 266.911 258.960 3.926 0.112 o
1 1 7 205.312 187.549 2.293 0.189 o
1 1 8 1.369 1.249 0.140 104.203 o
1 1 9 0.998 1.623 0.166 110.824 o
1 1 10 14.741 16.509 1.386 5.354 o
1 2 0 3.319 4.660 0.631 25.433 o
1 2 1 239.874 249.319 3.284 0.132 o
1 2 2 304.064 320.596 8.674 0.073 o
1 2 3 554.195 560.864 13.141 0.026 o
1 2 4 414.784 412.237 6.643 0.049 o
1 2 5 384.577 358.738 7.515 0.056 o
1 2 6 19.063 19.375 0.554 5.819 o
1 2 7 27.643 24.754 0.637 3.882 o
1 2 8 192.486 196.825 3.328 0.191 o
1 2 9 17.030 19.152 0.640 6.221 o
1 2 10 0.081 0.125 0.078 1198.020 o
1 3 0 5.867 7.722 0.653 16.419 o
1 3 1 137.269 145.945 3.025 0.322 o
1 3 2 12.834 15.685 0.603 8.252 o
1 3 3 139.953 140.422 2.235 0.337 o
1 3 4 191.266 179.804 4.225 0.193 o
1 3 5 178.877 167.778 2.624 0.232 o
1 3 6 40.901 44.760 1.324 1.975 o
1 3 7 15.540 19.117 0.503 6.865 o
1 3 8 0.745 1.101 0.195 142.231 o
1 3 9 7.156 8.987 0.329 16.486 o
1 4 0 563.215 595.708 8.701 0.027 o
1 4 1 275.203 285.130 5.162 0.099 o
1 4 2 537.758 554.395 26.572 0.018 o
1 4 3 13.948 14.492 0.570 8.121 o
1 4 4 1.405 1.705 0.233 83.684 o
1 4 5 17.918 16.232 0.453 6.656 o
1 4 6 67.508 74.277 1.438 1.007 o
1 4 7 4.126 4.625 0.228 31.406 o
1 4 8 0.373 0.585 0.099 305.061 o
1 5 0 248.516 244.040 4.536 0.123 o
1 5 1 52.660 53.390 1.843 1.373 o
1 5 2 88.951 85.347 1.528 0.719 o
1 5 3 12.598 13.424 0.560 8.993 o
1 5 4 11.758 12.032 0.377 10.373 o
1 5 5 20.384 22.770 0.647 5.087 o
1 5 6 0.481 0.616 0.099 261.457 o
1 5 7 8.608 11.050 0.388 13.210 o
1 6 0 35.442 37.270 0.960 2.547 o
1 6 1 8.408 7.716 0.437 14.990 o
1 6 2 6.178 5.780 0.411 20.409 o
1 6 3 14.585 17.105 0.570 7.389 o
1 6 4 1.182 1.420 0.178 104.958 o
1 6 5 14.241 15.838 0.804 7.158 o
1 6 6 14.422 15.000 0.463 8.061 o
1 7 0 111.126 115.514 2.073 0.477 o
1 7 1 87.197 90.087 1.763 0.701 o
1 7 2 4.148 4.081 0.328 30.832 o
1 7 3 0.229 0.502 0.162 335.038 o
1 7 4 1.763 1.683 0.162 79.160 o
1 7 5 10.408 13.184 0.554 10.281 o
1 8 0 6.252 6.347 0.385 19.927 o
1 8 1 8.891 9.787 0.541 12.755 o
1 8 2 0.831 0.867 0.167 152.506 o
1 8 3 3.295 4.336 0.260 36.287 o
1 8 4 16.119 13.879 0.515 7.525 o
1 9 0 5.942 6.564 0.299 21.186 o
1 9 1 6.013 6.157 0.256 21.869 o
1 9 2 1.265 0.989 0.164 114.068 o
1 10 0 0.039 0.094 0.094 1503.990 o
2 -11 1 0.637 0.570 0.105 223.988 o
2 -11 2 3.362 2.376 0.201 44.916 o
2 -11 3 41.230 39.702 2.955 1.401 o
2 -11 4 4.841 4.829 0.279 27.200 o
2 -11 5 18.130 20.030 0.820 5.565 o
2 -11 6 0.202 0.343 0.088 524.460 o
2 -10 0 12.298 10.471 0.527 10.058 o
2 -10 1 3.570 3.815 0.375 33.299 o
2 -10 2 5.917 7.000 0.425 19.535 o
2 -10 3 37.433 38.171 1.079 2.365 o
2 -10 4 13.723 13.003 0.656 8.292 o
2 -10 5 7.985 11.608 1.136 8.996 o
2 -10 6 1.202 0.620 0.126 137.204 o
2 -10 7 0.712 1.057 0.114 167.737 o
2 -10 8 4.783 5.422 0.851 16.901 o
2 -10 9 7.661 4.246 0.289 20.029 o
2 -9 0 0.060 0.394 0.336 207.069 o
2 -9 1 65.820 75.569 3.403 0.774 o
2 -9 2 0.212 0.341 0.297 218.404 o
2 -9 3 16.399 18.527 1.011 5.728 o
2 -9 4 1.199 1.378 0.223 99.047 o
2 -9 5 18.567 18.779 0.649 5.876 o
2 -9 6 32.062 29.194 1.046 2.995 o
2 -9 7 20.898 19.369 1.722 3.681 o
2 -9 8 0.493 0.607 0.158 229.718 o
2 -9 9 26.881 28.093 1.179 3.367 o
2 -9 10 3.293 3.121 0.207 42.019 o
2 -8 0 71.373 73.255 3.145 0.772 o
2 -8 1 369.117 379.305 10.748 0.051 o
2 -8 2 28.259 31.256 1.560 2.817 o
2 -8 3 40.904 42.979 1.237 2.040 o
2 -8 4 2.637 2.381 0.227 52.132 o
2 -8 5 5.775 5.683 0.314 22.542 o
2 -8 6 13.804 15.939 0.501 8.045 o
2 -8 7 35.378 36.529 1.337 2.398 o
2 -8 8 0.269 0.468 0.139 349.514 o
2 -8 9 0.304 0.312 0.134 380.542 o
2 -8 10 2.018 1.732 0.162 71.794 o
2 -7 0 70.195 80.134 2.743 0.801 o
2 -7 1 107.709 112.460 2.458 0.485 o
2 -7 2 39.274 44.243 1.003 2.158 o
2 -7 3 21.480 19.801 0.677 5.125 o
2 -7 4 4.789 3.546 0.264 30.268 o
2 -7 5 64.296 63.454 1.122 1.169 o
2 -7 6 7.742 8.193 0.357 16.047 o
2 -7 7 72.656 79.260 2.667 0.792 o
2 -7 8 0.064 0.289 0.128 686.047 o
2 -7 9 1.602 2.998 0.230 63.273 o
2 -7 10 33.491 39.372 1.087 2.544 o
2 -7 11 3.300 5.103 0.251 34.112 o
2 -6 0 4.013 4.399 0.470 27.562 o
2 -6 1 0.280 0.802 0.146 268.940 o
2 -6 2 68.133 79.840 1.582 0.949 o
2 -6 3 145.063 146.468 2.659 0.311 o
2 -6 4 0.083 0.062 0.106 1149.080 o
2 -6 5 78.560 73.092 2.059 0.828 o
2 -6 6 14.062 13.330 0.346 8.810 o
2 -6 7 102.768 107.268 1.692 0.549 o
2 -6 8 61.273 61.846 1.263 1.221 o
2 -6 9 12.729 14.145 0.566 8.741 o
2 -6 10 43.388 41.908 1.300 1.943 o
2 -6 11 6.250 5.045 0.792 15.993 o
2 -5 0 35.863 28.195 1.105 2.732 o
2 -5 1 39.670 38.007 1.323 2.164 o
2 -5 2 13.093 17.547 1.028 6.609 o
2 -5 3 554.926 569.413 12.297 0.026 o
2 -5 4 17.139 22.939 0.649 5.726 o
2 -5 5 236.914 237.664 2.964 0.138 o
2 -5 6 314.949 304.467 3.813 0.085 o
2 -5 7 14.237 12.303 0.320 9.021 o
2 -5 8 2.250 2.744 0.170 57.240 o
2 -5 9 4.825 4.804 0.225 27.980 o
2 -5 10 43.406 47.893 0.930 1.932 o
2 -5 11 5.357 7.882 0.457 19.411 o
2 -4 0 185.255 214.003 5.816 0.166 o
2 -4 1 469.035 496.380 6.760 0.038 o
2 -4 2 8.821 11.819 0.613 11.566 o
2 -4 3 607.555 593.078 8.427 0.024 o
2 -4 4 330.589 322.128 6.725 0.072 o
2 -4 5 343.815 345.044 4.223 0.071 o
2 -4 6 327.444 312.451 3.874 0.080 o
2 -4 7 165.581 173.044 1.998 0.254 o
2 -4 8 321.865 331.644 4.152 0.078 o
2 -4 9 66.068 68.159 1.119 1.102 o
2 -4 10 17.601 16.763 0.509 6.594 o
2 -4 11 0.321 0.578 0.265 199.486 o
2 -3 0 780.273 815.760 10.795 0.015 o
2 -3 1 243.391 239.685 2.763 0.134 o
2 -3 2 364.680 380.228 5.361 0.061 o
2 -3 3 438.435 476.665 8.645 0.040 o
2 -3 4 565.240 552.070 9.021 0.027 o
2 -3 5 318.095 331.246 9.541 0.066 o
2 -3 6 32.250 27.492 0.479 3.333 o
2 -3 7 0.139 0.276 0.077 703.137 o
2 -3 8 118.187 114.437 1.637 0.462 o
2 -3 9 20.532 22.686 0.706 5.001 o
2 -3 10 1.422 1.291 0.238 89.672 o
2 -3 11 13.333 12.168 0.628 8.731 o
2 -2 0 202.483 203.132 2.636 0.182 o
2 -2 1 748.748 707.237 9.424 0.017 o
2 -2 2 822.442 780.137 12.307 0.014 o
2 -2 3 44.913 46.213 1.602 1.723 o
2 -2 4 874.490 918.846 19.628 0.011 o
2 -2 5 28.632 34.515 1.448 2.775 o
2 -2 6 14.225 13.534 0.407 8.573 o
2 -2 7 9.211 9.410 0.293 13.819 o
2 -2 8 10.293 10.568 0.407 11.850 o
2 -2 9 4.353 4.472 0.260 30.202 o
2 -2 10 10.319 9.496 0.456 12.070 o
2 -2 11 0.031 0.894 0.644 63.599 o
2 -1 0 1003.210 1008.670 22.836 0.008 o
2 -1 1 1127.950 1123.060 20.508 0.007 o
2 -1 2 2637.510 2575.720 38.450 0.001 o
2 -1 3 569.686 593.802 11.607 0.025 o
2 -1 4 33.987 26.950 1.103 2.902 o
2 -1 5 10.680 16.118 0.372 9.801 o
2 -1 6 181.806 182.651 2.023 0.222 o
2 -1 7 60.776 60.116 0.807 1.296 o
2 -1 8 4.346 4.070 0.249 31.351 o
2 -1 9 2.758 9.167 5.261 1.061 o
2 -1 10 14.393 12.326 0.773 7.805 o
2 -1 11 0.650 0.546 0.101 225.138 o
2 0 0 1865.570 1693.810 26.192 0.003 o
2 0 1 202.977 195.614 2.273 0.188 o
2 0 2 554.678 557.815 6.750 0.029 o
2 0 3 62.159 85.284 3.004 0.817 o
2 0 4 0.626 3.473 0.347 68.491 o
2 0 5 49.563 46.500 0.733 1.775 o
2 0 6 23.038 20.832 0.625 4.814 o
2 0 7 137.668 125.605 1.634 0.374 o
2 0 8 31.703 31.629 0.771 3.080 o
2 0 9 13.405 12.992 0.433 9.035 o
2 0 10 3.559 3.606 0.297 36.045 o
2 1 0 4036.270 3911.820 49.899 0.001 o
2 1 1 210.430 210.328 2.856 0.170 o
2 1 2 2.580 5.131 0.270 38.182 o
2 1 3 1.255 1.169 0.235 99.278 o
2 1 4 12.221 11.553 0.884 8.423 o
2 1 5 10.288 7.370 0.348 13.543 o
2 1 6 31.088 30.477 0.990 3.055 o
2 1 7 12.413 10.800 0.519 9.918 o
2 1 8 50.529 48.180 1.089 1.656 o
2 1 9 11.916 10.778 0.430 10.520 o
2 1 10 1.878 1.585 0.164 77.180 o
2 2 0 186.382 185.153 6.068 0.174 o
2 2 1 61.383 54.538 1.619 1.235 o
2 2 2 38.127 48.147 1.165 2.071 o
2 2 3 93.745 91.821 1.894 0.641 o
2 2 4 188.962 187.282 4.275 0.191 o
2 2 5 199.476 184.406 2.629 0.195 o
2 2 6 3.146 3.995 0.241 38.907 o
2 2 7 14.862 15.721 0.669 7.313 o
2 2 8 16.350 15.315 0.488 7.243 o
2 2 9 11.406 14.650 0.458 9.586 o
2 3 0 16.355 15.295 0.806 6.600 o
2 3 1 53.894 54.670 2.131 1.271 o
2 3 2 3.589 4.375 0.227 35.007 o
2 3 3 0.447 0.099 0.096 399.790 o
2 3 4 82.469 76.833 1.715 0.801 o
2 3 5 89.209 89.020 2.450 0.647 o
2 3 6 115.091 119.094 2.090 0.453 o
2 3 7 134.811 140.396 2.585 0.344 o
2 3 8 0.074 0.297 0.125 669.194 o
2 4 0 21.065 23.855 1.137 4.273 o
2 4 1 87.372 85.396 3.294 0.607 o
2 4 2 83.747 82.444 1.481 0.778 o
2 4 3 229.284 218.115 4.286 0.144 o
2 4 4 2.550 3.500 0.339 42.542 o
2 4 5 13.773 14.589 0.436 8.480 o
2 4 6 19.486 20.087 0.556 5.641 o
2 4 7 1.424 1.541 0.164 92.959 o
2 4 8 8.787 7.814 0.382 14.796 o
2 5 0 81.258 82.012 2.120 0.757 o
2 5 1 29.518 30.947 1.038 3.130 o
2 5 2 16.560 16.713 0.589 6.777 o
2 5 3 32.289 32.919 0.983 2.879 o
2 5 4 0.594 1.090 0.270 133.954 o
2 5 5 48.387 50.026 1.585 1.576 o
2 5 6 0.008 -0.002 0.063 6090.350 o
2 5 7 18.899 16.650 0.632 6.077 o
2 6 0 39.630 43.084 1.279 2.075 o
2 6 1 3.235 4.115 0.390 33.885 o
2 6 2 0.327 0.440 0.189 277.958 o
2 6 3 19.008 19.485 0.548 5.826 o
2 6 4 13.604 14.126 0.479 8.566 o
2 6 5 21.127 20.308 0.574 5.258 o
2 7 0 2.516 2.836 0.502 38.060 o
2 7 1 18.020 21.131 1.153 4.895 o
2 7 2 0.045 -0.033 0.134 1270.070 o
2 7 3 22.416 23.203 0.775 4.572 o
2 7 4 3.208 4.067 0.281 37.233 o
2 8 0 12.220 12.947 0.520 9.426 o
2 8 1 13.553 14.379 0.504 8.473 o
2 8 2 0.028 0.067 0.086 1962.370 o
2 8 3 8.102 6.893 0.312 16.734 o
2 9 0 1.381 1.275 0.113 105.398 o
2 9 1 5.549 3.778 0.351 25.524 o
3 -11 1 9.026 5.123 0.574 14.800 o
3 -11 2 1.161 0.661 0.082 145.166 o
3 -11 3 12.192 10.527 0.444 10.382 o
3 -11 4 2.961 3.909 0.310 38.681 o
3 -11 5 32.177 28.369 1.288 2.858 o
3 -11 6 14.070 12.474 0.554 8.541 o
3 -10 0 1.277 1.264 0.222 98.148 o
3 -10 1 6.021 7.143 0.492 18.473 o
3 -10 2 11.479 10.861 0.465 10.666 o
3 -10 3 51.185 54.661 1.574 1.452 o
3 -10 4 8.933 9.914 0.671 11.878 o
3 -10 5 25.996 31.694 0.998 3.432 o
3 -10 6 26.616 25.035 0.906 3.783 o
3 -10 7 0.716 0.121 0.085 271.291 o
3 -10 8 5.988 7.061 0.804 14.924 o
3 -9 0 36.222 40.277 1.212 2.318 o
3 -9 1 216.753 250.228 9.031 0.109 o
3 -9 2 9.205 12.164 0.813 10.106 o
3 -9 3 44.328 48.939 1.273 1.795 o
3 -9 4 17.559 17.699 0.782 6.022 o
3 -9 5 17.522 17.995 0.619 6.278 o
3 -9 6 32.283 36.005 0.808 2.855 o
3 -9 7 0.124 0.119 0.125 756.998 o
3 -9 8 21.971 24.796 0.842 4.448 o
3 -9 9 6.659 6.919 0.328 19.054 o
3 -8 0 39.028 41.968 1.394 2.079 o
3 -8 1 83.943 86.022 1.726 0.746 o
3 -8 2 0.833 1.709 0.243 105.397 o
3 -8 3 133.272 133.204 2.804 0.353 o
3 -8 4 171.308 155.880 2.259 0.256 o
3 -8 5 48.492 42.918 1.161 1.786 o
3 -8 6 7.766 7.798 0.434 15.783 o
3 -8 7 61.119 62.545 1.377 1.203 o
3 -8 8 30.667 33.069 1.050 2.953 o
3 -8 9 4.487 5.655 0.574 22.070 o
3 -8 10 3.412 3.263 0.304 37.947 o
3 -7 0 16.615 16.764 1.069 5.742 o
3 -7 1 294.126 298.776 5.705 0.088 o
3 -7 2 239.332 220.179 3.937 0.138 o
3 -7 3 52.291 52.401 1.836 1.393 o
3 -7 4 191.163 188.843 3.284 0.197 o
3 -7 5 8.265 9.987 0.351 14.299 o
3 -7 6 29.927 28.008 0.656 3.453 o
3 -7 7 56.554 58.241 1.403 1.327 o
3 -7 8 7.617 9.547 0.378 15.195 o
3 -7 9 2.624 1.762 0.161 59.462 o
3 -7 10 5.729 5.770 0.333 22.343 o
3 -6 0 27.647 23.637 0.988 3.676 o
3 -6 1 106.487 110.150 2.704 0.486 o
3 -6 2 39.988 36.450 1.032 2.298 o
3 -6 3 36.525 39.022 0.725 2.516 o
3 -6 4 122.593 114.904 1.572 0.445 o
3 -6 5 49.061 48.650 1.779 1.525 o
3 -6 6 76.909 77.881 1.626 0.857 o
3 -6 7 1.591 1.953 0.174 79.401 o
3 -6 8 0.055 0.259 0.118 787.479 o
3 -6 9 1.613 1.866 0.170 80.338 o
3 -6 10 15.055 17.003 0.527 7.327 o
3 -5 0 263.800 198.843 5.262 0.123 o
3 -5 1 16.366 14.799 1.060 6.039 o
3 -5 2 91.500 75.415 8.989 0.255 o
3 -5 3 37.913 30.250 0.587 2.744 o
3 -5 4 0.268 0.216 0.074 542.229 o
3 -5 5 24.894 24.428 0.470 4.363 o
3 -5 6 5.642 6.135 0.231 23.062 o
3 -5 7 13.244 12.629 0.367 9.359 o
3 -5 8 95.485 100.712 2.368 0.578 o
3 -5 9 93.546 95.129 1.835 0.634 o
3 -5 10 5.586 6.778 1.534 8.322 o
3 -4 0 215.880 188.965 5.659 0.154 o
3 -4 1 485.257 488.983 7.364 0.036 o
3 -4 2 700.044 695.510 19.605 0.016 o
3 -4 3 599.916 587.660 13.214 0.023 o
3 -4 4 96.468 102.799 1.774 0.594 o
3 -4 5 2.414 2.035 0.143 61.348 o
3 -4 6 16.237 15.340 0.405 7.408 o
3 -4 7 10.100 9.195 0.350 12.826 o
3 -4 8 17.353 16.629 0.394 6.841 o
3 -4 9 37.450 38.828 0.944 2.398 o
3 -4 10 0.576 1.493 1.436 13.590 o
3 -3 0 16.468 12.560 0.387 7.866 o
3 -3 1 377.075 378.564 6.774 0.057 o
3 -3 2 0.719 0.968 0.222 143.220 o
3 -3 3 0.398 0.835 0.189 208.517 o
3 -3 4 59.446 57.444 0.978 1.334 o
3 -3 5 31.880 30.065 0.621 3.197 o
3 -3 6 293.287 295.158 3.089 0.095 o
3 -3 7 257.875 262.385 4.042 0.115 o
3 -3 8 60.961 61.248 0.972 1.265 o
3 -3 9 31.027 31.360 1.265 2.850 o
3 -3 10 3.628 4.740 1.940 6.605 o
3 -2 0 370.792 380.451 6.205 0.059 o
3 -2 1 231.515 215.822 4.248 0.143 o
3 -2 2 190.153 204.542 3.727 0.186 o
3 -2 3 37.647 36.516 1.144 2.371 o
3 -2 4 125.373 127.351 3.566 0.362 o
3 -2 5 2.487 2.901 0.122 54.050 o
3 -2 6 148.402 142.701 1.489 0.324 o
3 -2 7 160.063 151.007 2.656 0.276 o
3 -2 8 14.434 11.800 0.587 8.442 o
3 -2 9 26.569 29.163 0.822 3.632 o
3 -2 10 8.388 8.719 0.461 14.278 o
3 -1 0 302.085 327.061 4.182 0.085 o
3 -1 1 342.480 376.862 6.041 0.065 o
3 -1 2 910.797 976.012 16.765 0.010 o
3 -1 3 7.332 11.666 0.704 12.248 o
3 -1 4 0.398 0.524 0.070 323.825 o
3 -1 5 215.945 215.370 1.953 0.167 o
3 -1 6 8.771 7.567 0.210 15.754 o
3 -1 7 33.081 34.589 0.617 2.923 o
3 -1 8 6.419 6.895 0.278 19.937 o
3 -1 9 5.469 5.538 0.330 23.386 o
3 -1 10 3.663 2.873 0.234 39.403 o
3 0 0 1071.970 1060.530 16.279 0.008 o
3 0 1 287.470 284.635 4.820 0.095 o
3 0 2 135.795 133.209 2.064 0.361 o
3 0 3 7.942 12.329 0.545 12.441 o
3 0 4 323.387 314.167 3.291 0.082 o
3 0 5 441.112 404.034 6.711 0.046 o
3 0 6 3.393 2.973 0.169 42.624 o
3 0 7 54.478 54.718 0.988 1.478 o
3 0 8 33.148 37.026 2.135 2.039 o
3 0 9 10.225 11.701 0.585 10.745 o
3 0 10 0.050 0.070 0.047 2227.320 o
3 1 0 113.853 117.633 2.265 0.456 o
3 1 1 682.151 691.890 9.533 0.019 o
3 1 2 14.765 16.068 0.719 7.169 o
3 1 3 117.738 115.827 1.931 0.454 o
3 1 4 0.385 0.260 0.109 374.443 o
3 1 5 128.937 116.680 3.898 0.356 o
3 1 6 20.068 16.532 0.625 5.822 o
3 1 7 11.626 12.716 0.486 9.926 o
3 1 8 14.520 14.724 0.463 8.078 o
3 1 9 0.023 0.062 0.061 2792.930 o
3 2 0 52.487 48.361 1.390 1.537 o
3 2 1 36.861 28.255 0.962 2.737 o
3 2 2 0.785 1.399 0.139 137.583 o
3 2 3 106.056 96.376 2.407 0.532 o
3 2 4 73.903 66.012 1.588 0.963 o
3 2 5 84.957 80.323 1.729 0.761 o
3 2 6 18.198 19.244 0.612 5.961 o
3 2 7 6.874 8.206 1.378 8.638 o
3 2 8 3.850 4.040 0.231 34.379 o
3 3 0 28.367 32.372 1.457 2.855 o
3 3 1 200.941 172.451 3.151 0.197 o
3 3 2 67.167 61.260 1.970 1.037 o
3 3 3 154.204 142.679 3.617 0.279 o
3 3 4 102.899 95.491 2.382 0.552 o
3 3 5 3.286 3.405 0.212 40.789 o
3 3 6 32.979 35.369 0.957 2.761 o
3 3 7 0.224 0.362 0.093 481.915 o
3 3 8 7.820 7.525 0.336 16.545 o
3 4 0 0.568 0.287 0.116 278.167 o
3 4 1 14.973 13.496 0.501 8.065 o
3 4 2 41.669 39.003 1.071 2.146 o
3 4 3 287.795 262.986 5.386 0.098 o
3 4 4 16.473 15.656 0.715 6.714 o
3 4 5 46.610 51.063 1.032 1.743 o
3 4 6 0.417 0.689 0.082 277.385 o
3 4 7 20.239 23.546 0.572 5.120 o
3 5 0 30.038 28.048 1.072 3.182 o
3 5 1 43.606 40.546 1.467 1.904 o
3 5 2 81.541 73.466 1.733 0.824 o
3 5 3 4.213 4.357 0.319 30.079 o
3 5 4 11.371 13.002 0.371 10.326 o
3 5 5 0.820 1.001 0.100 160.793 o
3 5 6 4.921 5.608 0.202 26.368 o
3 6 0 58.393 59.315 3.052 0.978 o
3 6 1 96.527 93.410 2.163 0.604 o
3 6 2 0.143 0.274 0.180 435.192 o
3 6 3 25.682 26.505 0.770 3.916 o
3 6 4 1.084 1.092 0.091 132.085 o
3 7 0 1.779 1.116 0.361 67.494 o
3 7 1 9.345 9.986 0.455 12.705 o
3 7 2 0.541 0.708 0.093 234.882 o
3 7 3 14.806 14.519 0.585 7.743 o
3 8 0 2.542 2.643 0.201 52.657 o
3 8 1 16.545 15.466 0.508 7.119 o
4 -11 1 0.502 0.289 0.125 295.906 o
4 -11 2 1.341 1.042 0.121 113.255 o
4 -11 3 2.163 1.510 0.168 70.660 o
4 -11 4 0.292 0.161 0.077 542.946 o
4 -11 5 4.689 3.501 0.734 20.917 o
4 -10 0 21.181 20.447 0.614 5.192 o
4 -10 1 0.043 0.132 0.096 1276.850 o
4 -10 2 23.902 27.404 0.655 4.170 o
4 -10 3 46.842 52.925 1.162 1.680 o
4 -10 4 2.836 3.650 0.296 41.074 o
4 -10 5 3.432 3.714 0.239 37.922 o
4 -10 6 1.931 1.386 0.172 77.969 o
4 -10 7 3.847 2.002 0.219 41.784 o
4 -9 0 0.068 0.086 0.223 470.994 o
4 -9 1 46.444 51.474 1.721 1.572 o
4 -9 2 6.216 5.955 0.392 20.346 o
4 -9 3 21.883 25.516 1.190 3.999 o
4 -9 4 3.495 3.159 0.338 36.765 o
4 -9 5 16.947 14.694 0.465 7.184 o
4 -9 6 0.420 0.133 0.099 403.824 o
4 -9 7 13.728 14.085 0.461 8.561 o
4 -9 8 10.680 13.884 0.511 10.061 o
4 -8 0 53.046 57.541 2.518 1.173 o
4 -8 1 42.840 44.890 1.836 1.727 o
4 -8 2 68.696 69.361 1.446 1.023 o
4 -8 3 0.454 0.347 0.111 313.466 o
4 -8 4 20.445 21.700 0.549 5.281 o
4 -8 5 11.491 11.877 0.447 10.387 o
4 -8 6 5.544 5.573 0.239 24.072 o
4 -8 7 105.861 103.868 1.649 0.543 o
4 -8 8 40.794 44.009 1.050 2.082 o
4 -8 9 4.604 6.083 0.320 25.291 o
4 -7 0 197.830 204.063 3.677 0.179 o
4 -7 1 366.925 349.709 6.880 0.061 o
4 -7 2 143.739 135.591 3.795 0.303 o
4 -7 3 43.727 39.076 1.276 1.992 o
4 -7 4 18.723 19.387 0.764 5.598 o
4 -7 5 113.817 109.810 1.791 0.486 o
4 -7 6 9.419 11.813 0.418 12.013 o
4 -7 7 48.134 47.310 1.207 1.716 o
4 -7 8 0.002 0.151 0.092 1616.560 o
4 -7 9 1.245 0.915 0.117 123.806 o
4 -7 10 0.399 5.858 3.649 2.212 o
4 -6 0 160.610 142.378 2.990 0.278 o
4 -6 1 2.825 2.836 0.300 44.597 o
4 -6 2 91.250 89.311 2.601 0.623 o
4 -6 3 55.724 56.309 1.433 1.360 o
4 -6 4 33.215 31.922 0.714 2.976 o
4 -6 5 359.525 351.081 4.131 0.066 o
4 -6 6 74.422 81.493 1.300 0.888 o
4 -6 7 0.905 1.335 0.149 128.786 o
4 -6 8 22.155 23.324 0.597 4.779 o
4 -6 9 0.064 0.284 0.127 694.721 o
4 -6 10 2.417 12.113 4.192 1.621 o
4 -5 0 82.157 67.701 1.913 0.832 o
4 -5 1 49.766 53.911 1.830 1.433 o
4 -5 2 26.627 28.237 0.936 3.587 o
4 -5 3 160.715 162.142 3.072 0.259 o
4 -5 4 0.032 0.137 0.075 1595.590 o
4 -5 5 123.915 116.512 2.256 0.421 o
4 -5 6 25.020 28.365 0.684 3.947 o
4 -5 7 65.613 68.419 1.660 1.049 o
4 -5 8 22.958 23.229 0.712 4.552 o
4 -5 9 1.668 2.290 0.203 71.012 o
4 -5 10 13.648 16.517 0.710 7.492 o
4 -4 0 73.602 54.358 1.985 0.996 o
4 -4 1 407.349 354.412 10.708 0.048 o
4 -4 2 5.901 8.539 0.419 18.192 o
4 -4 3 229.013 208.019 2.689 0.156 o
4 -4 4 43.193 45.448 0.886 1.998 o
4 -4 5 0.625 0.989 0.113 185.035 o
4 -4 6 120.776 130.295 1.625 0.422 o
4 -4 7 62.127 67.016 1.168 1.171 o
4 -4 8 5.672 6.641 0.358 21.151 o
4 -4 9 8.047 9.330 1.589 6.865 o
4 -3 0 119.218 108.858 2.035 0.459 o
4 -3 1 791.739 791.150 12.363 0.014 o
4 -3 2 219.968 219.123 4.185 0.151 o
4 -3 3 296.054 276.203 3.491 0.097 o
4 -3 4 99.810 97.289 1.664 0.595 o
4 -3 5 1.652 2.341 0.170 72.860 o
4 -3 6 81.619 81.547 1.241 0.816 o
4 -3 7 26.413 21.899 0.463 4.331 o
4 -3 8 26.602 26.785 0.692 3.849 o
4 -3 9 0.074 0.065 0.065 1646.070 o
4 -2 0 6.681 8.390 0.382 17.321 o
4 -2 1 104.896 101.629 2.285 0.530 o
4 -2 2 4.339 7.563 0.516 21.123 o
4 -2 3 103.032 97.461 1.237 0.590 o
4 -2 4 213.365 189.820 2.685 0.178 o
4 -2 5 16.931 15.657 0.414 7.104 o
4 -2 6 49.771 41.929 0.617 1.864 o
4 -2 7 15.402 17.094 0.487 7.263 o
4 -2 8 2.845 2.175 0.197 51.926 o
4 -2 9 11.531 17.134 4.691 1.208 o
4 -1 0 179.038 180.832 5.043 0.196 o
4 -1 1 4.374 2.899 0.351 32.110 o
4 -1 2 212.525 213.708 6.456 0.141 o
4 -1 3 5.252 5.978 0.256 24.184 o
4 -1 4 179.944 183.212 2.128 0.224 o
4 -1 5 215.094 203.888 2.071 0.172 o
4 -1 6 13.295 10.125 0.354 10.069 o
4 -1 7 0.133 0.262 0.088 705.527 o
4 -1 8 7.001 7.533 0.440 17.029 o
4 -1 9 14.294 12.864 0.539 8.397 o
4 0 0 1398.430 1370.960 18.239 0.005 o
4 0 1 154.196 172.027 3.461 0.257 o
4 0 2 511.779 518.125 6.317 0.033 o
4 0 3 72.150 73.395 1.552 0.942 o
4 0 4 37.900 32.925 1.193 2.429 o
4 0 5 24.428 24.820 0.604 4.312 o
4 0 6 2.470 1.646 0.178 62.434 o
4 0 7 0.617 1.197 0.170 157.043 o
4 0 8 1.905 1.564 0.139 78.201 o
4 0 9 9.210 7.626 0.336 14.642 o
4 1 0 14.321 19.520 1.123 5.811 o
4 1 1 146.309 152.938 2.786 0.299 o
4 1 2 118.962 107.138 2.079 0.462 o
4 1 3 303.705 291.700 3.881 0.091 o
4 1 4 5.109 4.293 0.297 26.949 o
4 1 5 30.395 34.093 1.250 2.811 o
4 1 6 27.861 26.308 0.900 3.588 o
4 1 7 7.804 8.581 0.351 15.733 o
4 1 8 1.965 1.993 0.128 71.602 o
4 2 0 284.956 268.442 4.681 0.100 o
4 2 1 26.616 21.759 0.805 4.062 o
4 2 2 23.328 21.857 0.588 4.714 o
4 2 3 34.670 31.303 1.177 2.669 o
4 2 4 2.524 1.807 0.337 51.736 o
4 2 5 3.059 4.369 0.283 37.178 o
4 2 6 23.289 25.423 1.155 3.885 o
4 2 7 4.871 7.000 0.410 22.036 o
4 3 0 0.087 0.149 0.087 1039.810 o
4 3 1 179.288 164.616 3.281 0.227 o
4 3 2 12.194 10.908 0.629 9.617 o
4 3 3 52.309 53.324 1.422 1.473 o
4 3 4 21.370 19.760 0.828 4.959 o
4 3 5 3.704 3.682 0.195 37.052 o
4 3 6 1.140 1.673 0.161 102.784 o
4 3 7 0.006 0.120 0.049 2701.800 o
4 4 0 3.300 3.260 0.294 39.064 o
4 4 1 39.489 39.775 1.041 2.238 o
4 4 2 114.088 108.235 2.237 0.475 o
4 4 3 2.135 3.033 0.311 50.404 o
4 4 4 17.019 19.438 0.718 6.057 o
4 4 5 1.054 0.840 0.086 146.345 o
4 4 6 6.015 5.619 0.406 21.005 o
4 5 0 8.857 8.413 1.002 10.228 o
4 5 1 115.496 114.859 3.025 0.429 o
4 5 2 30.067 25.977 0.786 3.465 o
4 5 3 0.937 0.578 0.108 170.941 o
4 5 4 9.489 9.801 0.260 13.434 o
4 5 5 2.466 2.607 0.164 55.242 o
4 6 0 83.134 75.468 3.567 0.637 o
4 6 1 25.657 27.593 0.894 3.757 o
4 6 2 0.216 0.409 0.150 383.744 o
4 6 3 4.479 3.911 0.250 31.092 o
4 7 0 29.991 30.315 1.200 3.006 o
4 7 1 4.988 4.610 0.264 27.253 o
4 7 2 1.759 1.795 0.156 78.069 o
4 8 0 0.031 0.048 0.047 3195.730 o
5 -11 2 7.845 4.754 0.351 18.678 o
5 -11 3 17.961 9.414 0.507 7.683 o
5 -10 0 22.596 26.564 1.202 3.844 o
5 -10 1 7.090 7.686 1.023 11.420 o
5 -10 2 0.379 0.523 0.176 259.041 o
5 -10 3 22.979 22.067 1.085 4.209 o
5 -10 4 1.232 1.941 0.170 92.013 o
5 -10 5 6.780 6.807 0.323 18.976 o
5 -10 6 0.088 0.173 0.082 1008.380 o
5 -9 0 10.636 12.351 0.882 8.960 o
5 -9 1 29.860 32.982 1.139 2.959 o
5 -9 2 2.780 2.677 0.480 37.834 o
5 -9 3 50.242 50.362 1.389 1.570 o
5 -9 4 0.167 0.110 0.120 687.787 o
5 -9 5 2.912 3.590 0.248 42.190 o
5 -9 6 10.311 10.230 0.376 12.090 o
5 -9 7 5.799 3.807 0.198 26.486 o
5 -8 0 0.212 0.347 0.160 392.312 o
5 -8 1 164.547 165.189 3.389 0.247 o
5 -8 2 44.119 47.138 0.976 1.909 o
5 -8 3 1.324 1.090 0.150 109.598 o
5 -8 4 1.515 1.272 0.153 95.743 o
5 -8 5 15.376 16.044 0.696 7.030 o
5 -8 6 5.825 7.206 0.350 20.262 o
5 -8 7 3.037 2.994 0.208 44.895 o
5 -8 8 14.060 13.054 0.700 8.012 o
5 -7 0 67.639 60.156 1.409 1.110 o
5 -7 1 0.633 0.548 0.177 197.644 o
5 -7 2 1.333 1.455 0.193 95.356 o
5 -7 3 1.512 1.330 0.191 90.930 o
5 -7 4 16.213 14.144 0.645 7.179 o
5 -7 5 80.071 80.486 2.102 0.776 o
5 -7 6 15.729 18.796 0.529 6.816 o
5 -7 7 0.088 0.300 0.095 742.966 o
5 -7 8 0.085 0.421 0.109 590.459 o
5 -7 9 2.559 3.357 0.765 25.880 o
5 -6 0 315.486 264.691 4.402 0.090 o
5 -6 1 26.185 22.591 1.045 3.837 o
5 -6 2 128.746 114.375 2.911 0.390 o
5 -6 3 8.882 6.072 0.307 16.218 o
5 -6 4 5.808 6.407 0.285 21.816 o
5 -6 5 162.115 155.016 2.850 0.266 o
5 -6 6 24.536 27.370 0.825 3.956 o
5 -6 7 0.564 1.200 0.218 148.106 o
5 -6 8 7.313 5.621 0.366 18.737 o
5 -6 9 0.061 20.537 0.890 13.152 o
5 -5 0 69.204 61.689 1.438 1.071 o
5 -5 1 18.404 17.091 1.187 5.108 o
5 -5 2 94.849 88.389 1.989 0.640 o
5 -5 3 175.579 171.506 3.491 0.225 o
5 -5 4 119.659 118.170 1.918 0.442 o
5 -5 5 26.952 26.420 0.627 3.871 o
5 -5 6 0.671 0.385 0.134 225.872 o
5 -5 7 1.839 2.139 0.183 70.020 o
5 -5 8 0.213 1.777 1.553 11.895 o
5 -5 9 9.234 9.063 0.476 13.132 o
5 -4 0 43.976 36.627 1.068 2.098 o
5 -4 1 49.057 52.939 1.229 1.602 o
5 -4 2 12.272 14.354 0.454 9.215 o
5 -4 3 189.163 179.543 2.879 0.208 o
5 -4 4 119.048 120.839 2.053 0.436 o
5 -4 5 2.373 1.734 0.146 64.838 o
5 -4 6 31.472 34.563 0.672 3.026 o
5 -4 7 2.855 4.147 0.311 38.569 o
5 -4 8 60.358 71.380 7.704 0.362 o
5 -4 9 0.215 1.132 0.195 212.021 o
5 -3 0 148.345 151.748 2.077 0.307 o
5 -3 1 236.395 223.034 2.866 0.144 o
5 -3 2 63.406 68.454 1.023 1.151 o
5 -3 3 153.284 158.711 4.173 0.257 o
5 -3 4 40.937 41.535 0.829 2.193 o
5 -3 5 30.998 30.028 0.572 3.297 o
5 -3 6 7.165 9.472 0.320 16.174 o
5 -3 7 0.971 1.594 0.217 105.540 o
5 -3 8 16.537 14.082 0.695 6.976 o
5 -2 0 3.770 3.674 0.253 35.529 o
5 -2 1 370.445 351.379 3.987 0.064 o
5 -2 2 4.181 4.299 0.248 31.627 o
5 -2 3 20.526 20.661 0.557 5.360 o
5 -2 4 105.459 106.703 1.612 0.539 o
5 -2 5 31.285 28.913 0.593 3.313 o
5 -2 6 36.861 36.502 0.686 2.583 o
5 -2 7 3.846 3.879 0.187 35.626 o
5 -2 8 0.673 2.654 0.265 88.506 o
5 -1 0 57.165 61.164 1.204 1.314 o
5 -1 1 83.205 77.599 1.229 0.821 o
5 -1 2 71.333 69.719 1.394 0.990 o
5 -1 3 12.853 13.389 0.633 8.659 o
5 -1 4 25.410 24.636 0.644 4.162 o
5 -1 5 20.029 14.630 0.415 6.334 o
5 -1 6 77.862 69.774 1.412 0.908 o
5 -1 7 17.430 19.253 0.678 6.046 o
5 -1 8 0.091 0.070 0.055 1523.870 o
5 0 0 0.387 0.167 0.155 347.626 o
5 0 1 44.945 46.762 1.013 1.877 o
5 0 2 143.754 145.962 2.844 0.311 o
5 0 3 138.036 131.329 2.703 0.345 o
5 0 4 0.233 0.066 0.090 696.626 o
5 0 5 1.224 1.452 0.197 99.647 o
5 0 6 0.045 0.157 0.111 1058.840 o
5 0 7 10.506 10.911 0.355 11.724 o
5 1 0 660.242 652.495 10.903 0.020 o
5 1 1 124.410 121.946 2.362 0.407 o
5 1 2 33.034 32.518 0.982 2.841 o
5 1 3 93.385 85.155 1.864 0.668 o
5 1 4 43.033 39.312 0.924 2.123 o
5 1 5 7.378 9.170 0.395 15.642 o
5 1 6 6.633 7.875 0.500 16.800 o
5 1 7 12.540 11.993 0.329 10.017 o
5 2 0 88.659 87.553 1.733 0.701 o
5 2 1 32.216 31.721 0.856 2.994 o
5 2 2 13.186 12.656 0.574 8.851 o
5 2 3 23.140 23.045 0.884 4.359 o
5 2 4 0.261 0.464 0.131 363.929 o
5 2 5 9.412 10.449 0.390 12.726 o
5 2 6 3.955 4.086 0.221 33.816 o
5 3 0 3.985 3.694 0.265 33.946 o
5 3 1 29.570 27.594 0.930 3.342 o
5 3 2 4.996 5.381 0.371 24.443 o
5 3 3 0.090 0.087 0.159 706.704 o
5 3 4 2.543 3.028 0.207 50.019 o
5 3 5 8.111 9.086 0.412 14.675 o
5 4 0 1.362 1.445 0.279 83.799 o
5 4 1 17.483 17.248 0.650 6.335 o
5 4 2 22.219 18.840 0.674 5.081 o
5 4 3 1.768 1.461 0.229 76.934 o
5 4 4 3.200 3.411 0.188 42.011 o
5 5 0 9.988 7.837 1.069 9.344 o
5 5 1 0.306 0.301 0.197 303.728 o
5 5 2 1.549 2.093 0.282 69.786 o
5 5 3 0.218 0.418 0.074 482.714 o
5 6 0 26.843 23.031 1.054 3.733 o
5 6 1 0.472 0.359 0.171 259.702 o
5 6 2 3.956 3.147 0.140 37.998 o
5 7 0 3.135 2.389 0.109 49.340 o
6 -10 0 23.236 23.162 0.921 4.297 o
6 -10 1 6.003 6.311 1.011 12.911 o
6 -10 2 4.073 3.388 0.527 27.825 o
6 -10 3 3.237 2.130 0.209 47.208 o
6 -10 4 5.381 4.228 0.656 20.192 o
6 -10 5 3.818 2.498 0.250 39.260 o
6 -9 0 15.540 17.353 1.085 5.874 o
6 -9 1 12.877 12.283 0.641 8.877 o
6 -9 2 0.072 0.245 0.094 874.643 o
6 -9 3 38.429 39.511 0.878 2.351 o
6 -9 4 0.469 0.540 0.097 279.025 o
6 -9 5 6.194 5.326 0.945 13.960 o
6 -9 6 15.401 11.225 0.624 8.055 o
6 -8 0 6.684 7.287 0.695 15.179 o
6 -8 1 33.053 34.443 0.921 2.804 o
6 -8 2 31.006 29.866 1.362 2.834 o
6 -8 3 27.500 28.070 1.179 3.313 o
6 -8 4 16.359 15.963 0.831 6.448 o
6 -8 5 0.733 0.324 0.106 230.003 o
6 -8 6 4.120 5.307 0.332 28.243 o
6 -8 7 0.570 0.739 0.172 194.279 o
6 -7 0 147.090 144.077 3.294 0.298 o
6 -7 1 2.927 1.802 0.265 50.503 o
6 -7 2 0.525 0.504 0.153 236.830 o
6 -7 3 1.503 2.100 0.238 74.653 o
6 -7 4 10.648 12.520 0.440 10.750 o
6 -7 5 3.249 3.013 0.233 42.189 o
6 -7 6 38.802 38.552 0.975 2.324 o
6 -7 7 8.084 7.781 0.299 16.181 o
6 -6 0 8.285 7.204 0.568 14.497 o
6 -6 1 28.576 26.819 1.019 3.403 o
6 -6 2 32.781 31.941 1.275 2.710 o
6 -6 3 30.827 28.073 0.737 3.323 o
6 -6 4 0.575 0.832 0.164 188.779 o
6 -6 5 19.844 20.217 0.578 5.524 o
6 -6 6 9.542 9.248 0.344 13.363 o
6 -6 7 14.554 14.763 0.609 7.737 o
6 -6 8 1.946 2.108 0.203 66.871 o
6 -5 0 71.086 69.031 1.526 0.985 o
6 -5 1 2.510 1.858 0.310 53.160 o
6 -5 2 32.103 29.996 1.050 2.960 o
6 -5 3 164.295 160.744 2.883 0.257 o
6 -5 4 81.879 86.173 1.681 0.766 o
6 -5 5 15.109 17.408 0.582 7.136 o
6 -5 6 5.314 5.649 0.284 24.200 o
6 -5 7 5.286 6.082 0.332 23.113 o
6 -5 8 15.623 17.673 0.703 6.694 o
6 -4 0 74.919 74.963 1.621 0.895 o
6 -4 1 32.886 30.196 1.408 2.672 o
6 -4 2 7.735 8.817 0.362 15.605 o
6 -4 3 235.930 238.866 3.652 0.136 o
6 -4 4 28.675 30.221 0.775 3.401 o
6 -4 5 17.841 20.128 0.565 6.007 o
6 -4 6 1.725 2.708 0.231 63.612 o
6 -4 7 43.163 44.884 4.508 0.878 o
6 -4 8 59.124 53.767 1.616 1.285 o
6 -3 0 7.573 5.173 0.391 18.456 o
6 -3 1 145.533 134.846 2.803 0.321 o
6 -3 2 111.255 114.595 1.577 0.493 o
6 -3 3 2.825 3.181 0.243 44.986 o
6 -3 4 0.087 0.126 0.109 949.976 o
6 -3 5 21.570 21.556 0.589 5.042 o
6 -3 6 20.746 24.630 0.605 4.900 o
6 -3 7 0.020 0.138 0.133 1030.650 o
6 -2 0 0.122 0.335 0.124 560.187 o
6 -2 1 423.465 428.215 5.119 0.048 o
6 -2 2 3.372 4.287 0.259 35.976 o
6 -2 3 15.395 12.958 0.527 7.947 o
6 -2 4 5.834 7.858 0.570 17.319 o
6 -2 5 1.832 2.757 0.203 62.743 o
6 -2 6 42.594 42.302 0.819 2.104 o
6 -2 7 0.941 0.727 0.118 159.176 o
6 -1 0 26.517 29.828 0.860 3.575 o
6 -1 1 5.741 6.809 0.381 20.567 o
6 -1 2 24.634 26.307 0.901 3.941 o
6 -1 3 0.083 0.198 0.145 669.092 o
6 -1 4 11.003 9.835 0.403 11.595 o
6 -1 5 1.608 1.572 0.158 86.053 o
6 -1 6 12.905 11.229 0.566 9.374 o
6 -1 7 9.127 8.484 0.326 14.286 o
6 0 0 4.760 4.114 0.306 28.505 o
6 0 1 150.849 159.694 3.262 0.276 o
6 0 2 1.609 1.633 0.294 72.590 o
6 0 3 5.854 4.347 0.234 25.058 o
6 0 4 76.114 75.062 1.341 0.903 o
6 0 5 16.091 17.555 0.742 6.498 o
6 0 6 0.022 0.055 0.054 3218.110 o
6 1 0 169.156 159.243 3.542 0.242 o
6 1 1 62.276 58.103 1.478 1.208 o
6 1 2 4.646 4.212 0.333 28.296 o
6 1 3 21.599 20.885 0.638 5.047 o
6 1 4 11.077 9.521 0.379 11.743 o
6 1 5 4.151 5.531 0.246 28.986 o
6 2 0 4.838 6.200 0.474 22.200 o
6 2 1 78.318 77.402 1.982 0.816 o
6 2 2 32.655 30.791 1.066 2.882 o
6 2 3 30.785 34.171 0.970 2.949 o
6 2 4 2.880 3.546 0.201 43.943 o
6 2 5 16.582 15.228 0.377 7.345 o
6 3 0 10.381 9.243 0.510 11.874 o
6 3 1 44.881 43.451 1.283 1.867 o
6 3 2 14.070 14.303 0.691 7.795 o
6 3 3 6.959 8.562 0.304 17.260 o
6 3 4 3.319 3.262 0.155 42.291 o
6 4 0 8.839 9.726 1.163 8.870 o
6 4 1 11.712 11.985 0.454 10.193 o
6 4 2 0.854 0.659 0.115 175.115 o
6 4 3 14.386 13.567 0.409 8.490 o
6 5 0 0.713 0.960 0.422 89.693 o
6 5 1 0.183 0.351 0.171 393.647 o
6 5 2 3.145 2.834 0.172 45.540 o
6 6 0 0.014 -0.003 0.035 9811.100 o
7 -10 1 0.112 0.062 0.109 974.653 o
7 -9 0 10.127 9.339 0.503 12.074 o
7 -9 1 7.675 6.100 0.310 18.081 o
7 -9 2 6.228 6.255 0.275 21.080 o
7 -9 3 22.755 18.488 1.409 4.006 o
7 -9 4 0.434 0.273 0.172 285.992 o
7 -8 0 2.862 4.104 0.244 40.581 o
7 -8 1 33.816 33.286 0.847 2.825 o
7 -8 2 9.277 9.517 0.398 13.258 o
7 -8 3 21.706 25.471 0.676 4.606 o
7 -8 4 33.004 34.044 0.742 2.901 o
7 -8 5 5.996 7.142 0.382 19.664 o
7 -7 0 39.899 36.392 0.972 2.324 o
7 -7 1 167.999 160.513 5.121 0.219 o
7 -7 2 7.767 8.461 0.571 14.352 o
7 -7 3 5.243 5.249 0.432 23.028 o
7 -7 4 12.245 12.790 0.586 9.245 o
7 -7 5 9.780 10.301 0.855 10.077 o
7 -7 6 14.798 15.157 0.582 7.636 o
7 -6 0 9.397 7.769 0.403 14.016 o
7 -6 1 3.470 3.280 0.336 36.599 o
7 -6 2 3.912 4.949 0.344 29.625 o
7 -6 3 0.261 0.083 0.138 510.033 o
7 -6 4 24.401 27.879 0.680 4.057 o
7 -6 5 5.447 6.228 0.306 22.766 o
7 -6 6 7.226 7.672 0.410 16.817 o
7 -6 7 14.015 12.037 0.476 8.868 o
7 -5 0 28.539 29.507 1.408 2.982 o
7 -5 1 8.833 6.997 0.466 14.718 o
7 -5 2 4.983 7.784 0.444 20.439 o
7 -5 3 29.590 31.130 1.515 2.771 o
7 -5 4 13.436 15.092 0.518 8.337 o
7 -5 5 25.361 29.897 0.775 3.755 o
7 -5 6 0.917 1.734 0.148 114.774 o
7 -5 7 4.965 4.348 0.250 28.029 o
7 -4 0 48.285 49.093 3.526 1.048 o
7 -4 1 59.736 60.355 1.978 1.153 o
7 -4 2 57.580 61.052 1.534 1.258 o
7 -4 3 76.843 82.218 2.197 0.788 o
7 -4 4 2.986 3.201 0.298 41.617 o
7 -4 5 50.545 53.988 1.346 1.524 o
7 -4 6 9.782 9.758 0.337 12.910 o
7 -3 0 0.858 0.605 0.190 157.456 o
7 -3 1 246.266 261.320 5.389 0.116 o
7 -3 2 48.636 52.600 1.098 1.645 o
7 -3 3 16.361 20.510 0.676 6.160 o
7 -3 4 0.033 0.075 0.109 1420.970 o
7 -3 5 53.194 56.314 1.016 1.486 o
7 -3 6 72.852 75.741 2.467 0.828 o
7 -2 0 12.373 14.659 0.544 8.848 o
7 -2 1 144.039 149.761 3.876 0.287 o
7 -2 2 27.072 32.062 1.023 3.300 o
7 -2 3 65.842 74.750 2.888 0.847 o
7 -2 4 6.937 6.658 0.385 18.324 o
7 -2 5 1.683 1.987 0.199 74.641 o
7 -2 6 13.654 11.857 1.163 6.805 o
7 -1 0 70.115 74.609 2.286 0.882 o
7 -1 1 9.836 11.092 0.584 11.233 o
7 -1 2 5.259 6.177 0.509 20.726 o
7 -1 3 34.009 36.375 1.219 2.536 o
7 -1 4 43.470 49.245 2.248 1.509 o
7 -1 5 1.011 1.382 0.258 102.022 o
7 0 0 5.687 7.060 0.630 17.465 o
7 0 1 10.922 13.466 0.640 9.570 o
7 0 2 8.476 9.144 0.555 13.365 o
7 0 3 3.002 3.787 0.348 37.643 o
7 0 4 36.012 36.293 1.082 2.491 o
7 0 5 1.426 1.553 0.265 81.803 o
7 1 0 19.798 19.830 0.832 5.232 o
7 1 1 39.505 38.779 1.235 2.189 o
7 1 2 12.665 12.778 0.436 9.468 o
7 1 3 0.885 0.620 0.102 176.362 o
7 1 4 0.040 0.184 0.110 1021.490 o
7 2 0 8.295 8.329 0.477 14.498 o
7 2 1 9.278 7.091 0.429 14.382 o
7 2 2 9.968 10.001 0.341 12.611 o
7 2 3 0.073 0.126 0.049 1471.700 o
7 3 0 5.001 4.754 0.414 24.726 o
7 3 1 9.209 8.292 0.351 14.188 o
7 3 2 0.037 0.062 0.045 2747.400 o
7 4 0 5.450 5.823 0.718 17.624 o
7 4 1 0.065 0.010 0.043 2723.780 o
8 -9 0 14.021 10.452 0.585 8.945 o
8 -9 1 11.568 6.198 0.429 12.528 o
8 -8 0 5.616 7.596 0.367 20.133 o
8 -8 1 72.597 69.532 1.552 0.961 o
8 -8 2 7.819 6.551 0.265 17.721 o
8 -8 3 8.439 8.377 0.437 14.558 o
8 -8 4 18.759 10.702 0.562 7.078 o
8 -7 0 24.413 24.553 0.696 4.261 o
8 -7 1 81.871 88.585 2.716 0.679 o
8 -7 2 7.556 8.539 0.419 15.667 o
8 -7 3 30.618 29.581 0.757 3.264 o
8 -7 4 51.879 49.137 1.612 1.492 o
8 -6 0 12.583 15.055 0.684 8.255 o
8 -6 1 20.875 22.988 0.874 4.713 o
8 -6 2 33.317 37.785 0.938 2.670 o
8 -6 3 43.341 47.959 1.058 1.902 o
8 -6 4 34.863 37.185 0.918 2.601 o
8 -6 5 8.803 6.840 0.835 12.033 o
8 -5 0 0.149 0.133 0.230 371.487 o
8 -5 1 29.835 29.642 0.855 3.275 o
8 -5 2 29.422 31.288 0.814 3.263 o
8 -5 3 1.153 1.182 0.198 109.882 o
8 -5 4 2.759 2.780 0.225 48.361 o
8 -5 5 12.059 10.964 0.648 9.603 o
8 -4 0 18.342 21.876 0.732 5.464 o
8 -4 1 4.079 4.103 0.306 31.564 o
8 -4 2 19.720 21.573 0.676 5.293 o
8 -4 3 6.059 7.523 0.316 19.741 o
8 -4 4 0.087 0.031 0.076 1558.050 o
8 -4 5 3.587 3.077 0.229 39.341 o
8 -3 0 18.144 21.634 0.661 5.633 o
8 -3 1 19.859 21.593 0.685 5.253 o
8 -3 2 8.504 9.672 0.618 12.677 o
8 -3 3 50.240 59.184 1.652 1.405 o
8 -3 4 6.321 5.949 0.358 20.472 o
8 -3 5 1.781 2.162 0.258 66.055 o
8 -2 0 8.504 9.186 0.612 12.936 o
8 -2 1 0.865 1.430 0.300 99.827 o
8 -2 2 0.065 0.428 0.236 326.318 o
8 -2 3 18.808 18.555 1.069 5.134 o
8 -2 4 26.582 28.886 0.890 3.595 o
8 -1 0 10.732 12.507 0.665 9.840 o
8 -1 1 9.765 12.682 0.687 10.260 o
8 -1 2 24.468 26.173 0.780 4.077 o
8 -1 3 0.626 0.608 0.163 199.778 o
8 -1 4 29.459 29.254 1.183 3.100 o
8 0 0 0.540 0.264 0.162 260.034 o
8 0 1 34.261 35.733 1.103 2.598 o
8 0 2 51.760 54.774 1.421 1.469 o
8 0 3 7.460 8.754 0.396 15.810 o
8 1 0 13.691 17.594 0.679 7.370 o
8 1 1 0.080 0.053 0.120 1065.140 o
8 1 2 33.132 35.482 1.105 2.674 o
8 2 0 26.009 23.051 0.952 3.922 o
8 2 1 4.601 3.365 0.418 28.494 o
8 3 0 9.569 8.352 0.718 11.693 o
9 -7 0 11.894 12.750 0.761 8.796 o
9 -7 1 0.124 0.136 0.056 1050.670 o
9 -7 2 18.524 16.353 0.593 6.271 o
9 -6 0 2.042 2.586 0.233 58.975 o
9 -6 1 22.801 19.447 0.693 4.903 o
9 -6 2 97.294 86.294 6.850 0.334 o
9 -6 3 0.073 0.016 0.117 1243.400 o
9 -5 0 26.750 29.747 0.633 3.703 o
9 -5 1 3.836 3.331 0.230 36.679 o
9 -5 2 62.394 60.769 1.529 1.176 o
9 -5 3 5.639 4.847 0.429 22.551 o
9 -4 0 87.956 91.886 1.748 0.689 o
9 -4 1 0.616 0.558 0.112 227.794 o
9 -4 2 9.618 11.236 0.531 11.594 o
9 -4 3 21.415 18.036 1.444 4.135 o
9 -3 0 79.879 85.790 2.170 0.749 o
9 -3 1 13.704 16.342 0.697 7.539 o
9 -3 2 7.620 6.606 0.308 17.756 o
9 -3 3 27.433 19.944 0.859 4.026 o
9 -2 0 22.812 24.906 1.068 4.071 o
9 -2 1 41.797 48.723 1.081 1.940 o
9 -2 2 0.170 -0.078 0.156 645.783 o
9 -1 0 5.816 5.761 0.356 21.885 o
9 -1 1 32.360 35.951 0.974 2.774 o
9 -1 2 0.015 0.027 0.064 3836.210 o
9 0 0 1.620 2.264 0.281 66.482 o
9 0 1 2.441 2.373 0.234 54.498 o
;
_olex2_submission_original_sample_id AW_74
_olex2_submission_special_instructions 'No special instructions were received'
_oxdiff_exptl_absorpt_empirical_details
;
Empirical correction (ABSPACK) includes:
- Absorption correction using spherical harmonics
- Frame scaling
;
_oxdiff_exptl_absorpt_empirical_full_max 3.036
_oxdiff_exptl_absorpt_empirical_full_min 0.382
loop_
_space_group_symop_id
_space_group_symop_operation_xyz
1 x,y,z
2 -x,-y,-z
loop_
_atom_site_label
_atom_site_type_symbol
_atom_site_fract_x
_atom_site_fract_y
_atom_site_fract_z
_atom_site_U_iso_or_equiv
_atom_site_adp_type
_atom_site_occupancy
_atom_site_refinement_flags_posn
S1 S 0.52144(5) 0.41504(5) 0.69463(4) 0.05098(15) Uani 1.000000 .
N10 N 0.17573(19) 0.31976(17) 0.51757(15) 0.0528(3) Uani 1.000000 .
C4 C 0.4355(2) 0.64571(19) 0.85679(16) 0.0430(3) Uani 1.000000 .
C3 C 0.2761(2) 0.57160(19) 0.72051(16) 0.0441(3) Uani 1.000000 .
C20 C 0.5704(2) 0.57722(19) 0.85447(16) 0.0443(3) Uani 1.000000 .
N18 N -0.0195(2) 0.4965(2) 0.7777(2) 0.0710(5) Uani 1.000000 .
C11 C 0.2012(2) 0.1826(2) 0.42884(17) 0.0479(4) Uani 1.000000 .
C24 C 0.7257(2) 0.6338(2) 0.97104(18) 0.0544(4) Uani 1.000000 .
H24 H 0.8158(2) 0.5875(2) 0.96955(18) 0.0653(5) Uiso 1.000000 R
C17 C 0.1082(2) 0.5268(2) 0.75094(18) 0.0497(4) Uani 1.000000 .
C21 C 0.3004(2) 0.41874(19) 0.62864(16) 0.0439(3) Uani 1.000000 .
C5 C 0.4555(3) 0.7732(2) 0.97570(18) 0.0529(4) Uani 1.000000 .
H5 H 0.3660(3) 0.8203(2) 0.97716(18) 0.0634(5) Uiso 1.000000 R
C19 C 0.2696(3) 0.6882(2) 0.6379(2) 0.0569(4) Uani 1.000000 .
H19a H 0.252(2) 0.7836(8) 0.6932(7) 0.0854(6) Uiso 1.000000 GR
H19b H 0.3802(8) 0.7184(14) 0.6198(14) 0.0854(6) Uiso 1.000000 GR
H19c H 0.1720(12) 0.6352(7) 0.5492(7) 0.0854(6) Uiso 1.000000 GR
C12 C 0.1888(3) 0.1704(2) 0.2914(2) 0.0572(4) Uani 1.000000 .
H12 H 0.1666(3) 0.2516(2) 0.2591(2) 0.0686(5) Uiso 1.000000 R
C6 C 0.6102(3) 0.8302(2) 1.09264(19) 0.0602(5) Uani 1.000000 .
H6 H 0.6244(3) 0.9153(2) 1.17351(19) 0.0723(5) Uiso 1.000000 R
C14 C 0.2387(3) -0.0861(2) 0.2474(2) 0.0638(5) Uani 1.000000 .
H14 H 0.2536(3) -0.1752(2) 0.1871(2) 0.0766(6) Uiso 1.000000 R
C7 C 0.7436(3) 0.7609(2) 1.08964(19) 0.0602(5) Uani 1.000000 .
H7 H 0.8471(3) 0.8005(2) 1.16874(19) 0.0722(5) Uiso 1.000000 R
C13 C 0.2097(3) 0.0365(2) 0.2015(2) 0.0672(5) Uani 1.000000 .
H13 H 0.2041(3) 0.0295(2) 0.1095(2) 0.0807(6) Uiso 1.000000 R
C16 C 0.2263(3) 0.0578(2) 0.4729(2) 0.0690(5) Uani 1.000000 .
H16 H 0.2307(3) 0.0634(2) 0.5643(2) 0.0828(7) Uiso 1.000000 R
C15 C 0.2453(3) -0.0758(3) 0.3819(2) 0.0716(6) Uani 1.000000 .
H15 H 0.2627(3) -0.1593(3) 0.4128(2) 0.0859(7) Uiso 1.000000 R
loop_
_atom_site_aniso_label
_atom_site_aniso_U_11
_atom_site_aniso_U_22
_atom_site_aniso_U_33
_atom_site_aniso_U_12
_atom_site_aniso_U_13
_atom_site_aniso_U_23
S1 0.0470(2) 0.0571(3) 0.0502(2) 0.02752(18) 0.01700(17) 0.01216(18)
N10 0.0514(8) 0.0539(8) 0.0470(7) 0.0238(6) 0.0107(6) 0.0093(6)
C4 0.0456(8) 0.0456(8) 0.0409(8) 0.0179(6) 0.0157(6) 0.0169(6)
C3 0.0458(8) 0.0458(8) 0.0431(8) 0.0223(6) 0.0145(6) 0.0140(6)
C20 0.0437(8) 0.0511(8) 0.0428(8) 0.0184(7) 0.0172(6) 0.0193(7)
N18 0.0577(9) 0.0770(11) 0.0812(12) 0.0297(8) 0.0304(9) 0.0203(9)
C11 0.0432(8) 0.0477(8) 0.0463(8) 0.0174(7) 0.0112(6) 0.0090(7)
C24 0.0456(9) 0.0694(11) 0.0507(9) 0.0208(8) 0.0147(7) 0.0252(8)
C17 0.0482(9) 0.0510(9) 0.0512(9) 0.0254(7) 0.0166(7) 0.0129(7)
C21 0.0469(8) 0.0472(8) 0.0430(8) 0.0223(7) 0.0175(6) 0.0164(6)
C5 0.0617(10) 0.0519(9) 0.0473(9) 0.0250(8) 0.0203(8) 0.0142(7)
C19 0.0644(11) 0.0547(10) 0.0531(9) 0.0270(8) 0.0120(8) 0.0221(8)
C12 0.0688(11) 0.0515(9) 0.0591(10) 0.0219(8) 0.0294(9) 0.0226(8)
C6 0.0710(12) 0.0564(10) 0.0426(9) 0.0143(9) 0.0164(8) 0.0101(7)
C14 0.0731(12) 0.0528(10) 0.0647(11) 0.0251(9) 0.0311(10) 0.0094(8)
C7 0.0531(10) 0.0711(12) 0.0446(9) 0.0105(8) 0.0083(7) 0.0189(8)
C13 0.0892(14) 0.0632(11) 0.0591(11) 0.0263(10) 0.0427(10) 0.0197(9)
C16 0.1008(16) 0.0649(11) 0.0442(9) 0.0401(11) 0.0194(10) 0.0180(8)
C15 0.0975(16) 0.0561(11) 0.0648(12) 0.0387(11) 0.0217(11) 0.0210(9)
loop_
_atom_type_symbol
_atom_type_scat_dispersion_real
_atom_type_scat_dispersion_imag
_atom_type_scat_Cromer_Mann_a1
_atom_type_scat_Cromer_Mann_a2
_atom_type_scat_Cromer_Mann_a3
_atom_type_scat_Cromer_Mann_a4
_atom_type_scat_Cromer_Mann_b1
_atom_type_scat_Cromer_Mann_b2
_atom_type_scat_Cromer_Mann_b3
_atom_type_scat_Cromer_Mann_b4
_atom_type_scat_Cromer_Mann_c
_atom_type_scat_source
_atom_type_scat_dispersion_source
H 0.00000 0.00000 0.49300 0.32291 0.14019 0.04081 10.51090 26.12570 3.14236
57.79970 0.0030380000826
'International Tables Volume C Table 6.1.1.4 (pp. 500-502)'
'Henke, Gullikson and Davis, At. Data and Nucl. Data Tables, 1993, 54, 2'
C 0.01920 0.00962 2.31000 1.02000 1.58860 0.86500 20.84390 10.20750 0.56870
51.65120 0.215599998832
'International Tables Volume C Table 6.1.1.4 (pp. 500-502)'
'Henke, Gullikson and Davis, At. Data and Nucl. Data Tables, 1993, 54, 2'
S 0.33537 0.55136 6.90530 5.20340 1.43790 1.58630 1.46790 22.21510 0.25360
56.17200 0.866900026798
'International Tables Volume C Table 6.1.1.4 (pp. 500-502)'
'Henke, Gullikson and Davis, At. Data and Nucl. Data Tables, 1993, 54, 2'
N 0.03256 0.01839 12.21260 3.13220 2.01250 1.16630 0.00570 9.89330 28.99750
0.58260 -11.5290002823
'International Tables Volume C Table 6.1.1.4 (pp. 500-502)'
'Henke, Gullikson and Davis, At. Data and Nucl. Data Tables, 1993, 54, 2'
loop_
_geom_angle_atom_site_label_1
_geom_angle_atom_site_label_2
_geom_angle_atom_site_label_3
_geom_angle
_geom_angle_site_symmetry_1
_geom_angle_site_symmetry_3
_geom_angle_publ_flag
C21 S1 C20 91.97(7) . . ?
C21 N10 C11 120.72(14) . . ?
C20 C4 C3 114.30(13) . . ?
C5 C4 C3 125.53(14) . . ?
C5 C4 C20 120.15(15) . . ?
C17 C3 C4 110.50(13) . . ?
C21 C3 C4 106.71(12) . . ?
C21 C3 C17 109.71(13) . . ?
C19 C3 C4 111.45(13) . . ?
C19 C3 C17 109.93(13) . . ?
C19 C3 C21 108.47(13) . . ?
C4 C20 S1 113.96(12) . . ?
C24 C20 S1 125.15(13) . . ?
C24 C20 C4 120.88(15) . . ?
C12 C11 N10 118.45(15) . . ?
C16 C11 N10 122.14(16) . . ?
C16 C11 C12 119.29(16) . . ?
H24 C24 C20 120.82(10) . . ?
C7 C24 C20 118.37(17) . . ?
C7 C24 H24 120.82(11) . . ?
N18 C17 C3 177.99(19) . . ?
N10 C21 S1 127.81(12) . . ?
C3 C21 S1 111.32(11) . . ?
C3 C21 N10 120.74(14) . . ?
H5 C5 C4 120.38(10) . . ?
C6 C5 C4 119.25(16) . . ?
C6 C5 H5 120.38(11) . . ?
H19a C19 C3 109.5 . . ?
H19b C19 C3 109.5 . . ?
H19b C19 H19a 109.5 . . ?
H19c C19 C3 109.5 . . ?
H19c C19 H19a 109.5 . . ?
H19c C19 H19b 109.5 . . ?
H12 C12 C11 120.11(10) . . ?
C13 C12 C11 119.78(17) . . ?
C13 C12 H12 120.11(12) . . ?
H6 C6 C5 119.89(11) . . ?
C7 C6 C5 120.23(17) . . ?
C7 C6 H6 119.89(11) . . ?
C13 C14 H14 120.24(11) . . ?
C15 C14 H14 120.24(12) . . ?
C15 C14 C13 119.52(17) . . ?
C6 C7 C24 121.12(17) . . ?
H7 C7 C24 119.44(11) . . ?
H7 C7 C6 119.44(11) . . ?
C14 C13 C12 120.48(18) . . ?
H13 C13 C12 119.76(12) . . ?
H13 C13 C14 119.76(11) . . ?
H16 C16 C11 119.80(11) . . ?
C15 C16 C11 120.41(18) . . ?
C15 C16 H16 119.80(12) . . ?
C16 C15 C14 120.47(19) . . ?
H15 C15 C14 119.77(12) . . ?
H15 C15 C16 119.77(12) . . ?
loop_
_geom_bond_atom_site_label_1
_geom_bond_atom_site_label_2
_geom_bond_distance
_geom_bond_site_symmetry_2
_geom_bond_publ_flag
S1 C20 1.7655(16) . ?
S1 C21 1.7743(16) . ?
N10 C11 1.422(2) . ?
N10 C21 1.257(2) . ?
C4 C3 1.513(2) . ?
C4 C20 1.388(2) . ?
C4 C5 1.381(2) . ?
C3 C17 1.471(2) . ?
C3 C21 1.537(2) . ?
C3 C19 1.544(2) . ?
C20 C24 1.385(2) . ?
N18 C17 1.135(2) . ?
C11 C12 1.380(2) . ?
C11 C16 1.377(3) . ?
C24 H24 0.9300 . ?
C24 C7 1.382(3) . ?
C5 H5 0.9300 . ?
C5 C6 1.384(3) . ?
C19 H19a 0.9600 . ?
C19 H19b 0.9600 . ?
C19 H19c 0.9600 . ?
C12 H12 0.9300 . ?
C12 C13 1.387(3) . ?
C6 H6 0.9300 . ?
C6 C7 1.382(3) . ?
C14 H14 0.9300 . ?
C14 C13 1.377(3) . ?
C14 C15 1.363(3) . ?
C7 H7 0.9300 . ?
C13 H13 0.9300 . ?
C16 H16 0.9300 . ?
C16 C15 1.383(3) . ?
C15 H15 0.9300 . ?
loop_
_refln_index_h
_refln_index_k
_refln_index_l
_refln_F_squared_meas
_refln_F_squared_sigma
0 0 1 187.42 4.74
0 0 -1 154.4 5.01
0 0 2 1022.14 26.82
0 0 -2 1066.17 26.96
0 0 3 222.45 6.88
0 0 -3 241.46 7.06
0 0 3 229.9 6.68
0 0 4 219.14 6.82
0 0 4 201.52 6.4
0 0 -4 213.83 7.31
0 0 -4 202.3 9.53
0 0 5 254.87 8.34
0 0 -5 270.38 12.31
0 0 5 242.35 7.78
0 0 6 10.17 0.63
0 0 6 8.26 1.02
0 0 6 11.23 1.36
0 0 6 9.54 0.6
0 0 -6 8.76 2.31
0 0 6 9.44 0.68
0 0 6 9.2 0.65
0 0 7 33.99 2.34
0 0 7 33.79 1.62
0 0 7 33.3 1.59
0 0 7 31.08 1.38
0 0 7 34.05 1.43
0 0 7 35.86 1.49
0 0 7 36.24 1.58
0 0 8 3.7 0.84
0 0 8 3.75 0.46
0 0 8 4.1 0.54
0 0 8 4.69 0.47
0 0 8 4.1 0.53
0 0 9 6.2 0.68
0 0 9 7.12 1.43
0 0 9 6.55 0.63
0 0 9 6.24 0.6
0 0 9 5.51 0.51
0 0 10 16.39 1.04
0 0 10 16.93 0.96
0 0 11 0.04 0.14
0 0 11 -0.07 0.22
0 -1 12 21.07 0.79
0 -1 12 15.51 0.78
0 -1 11 5.05 0.47
0 -1 11 5.21 0.56
0 -1 10 26.86 1.5
0 -1 10 26.6 1.25
0 -1 10 31.02 1.41
0 -1 9 161.73 4.85
0 -1 9 160.25 5.1
0 -1 9 149.05 4.74
0 -1 8 145.03 4.43
0 -1 8 151.19 4.39
0 -1 8 124.01 5.8
0 -1 8 140.86 6.81
0 -1 8 142.35 4.37
0 -1 8 128.3 4.48
0 -1 7 12.38 0.85
0 -1 7 12.54 0.79
0 -1 7 12.68 1.61
0 -1 7 12.18 1.38
0 -1 7 14.1 0.83
0 -1 7 14.49 0.8
0 -1 6 53.12 3.01
0 -1 6 44.18 2.56
0 -1 5 326.65 9.79
0 -1 5 328.89 10.12
0 -1 4 192.31 6.26
0 -1 4 200.73 6.14
0 -1 3 672.7 17.49
0 1 -3 681.87 17
0 1 -3 617.11 16.83
0 -1 3 650.86 18
0 1 -2 1084.28 29.15
0 -1 2 1058.77 29.95
0 1 -1 0.46 0.2
0 1 -1 0.11 0.07
0 1 0 1863.98 47.48
0 -1 0 1896.94 47.95
0 -1 0 1825.49 48.35
0 -1 -1 131.18 4.84
0 1 1 123.75 4.27
0 1 1 147.16 4.27
0 1 1 132.77 3.86
0 -1 -1 157.07 4.26
0 -1 -1 147.45 5.21
0 1 1 130.85 3.77
0 1 2 1382.78 34.51
0 -1 -2 1291.39 35.36
0 -1 -2 1371.9 34.83
0 -1 -2 1351.36 36.18
0 1 2 1283.32 34.65
0 1 2 1368.36 34.56
0 -1 -2 1432.41 38.4
0 1 2 1347.38 34.66
0 -1 -3 437.29 12.43
0 -1 -3 465.72 16.62
0 1 3 459.76 12.44
0 -1 -3 466.71 14.34
0 1 3 466.99 12.93
0 -1 -4 14.49 1.89
0 1 4 17.72 1.2
0 -1 -4 16.66 2.71
0 1 4 17.31 1.4
0 1 5 139.27 4.9
0 1 5 129.51 5.42
0 1 6 193.89 5.54
0 1 6 198.48 6.12
0 1 6 190.29 5.55
0 -1 -6 183.8 11.97
0 1 6 197.65 5.66
0 1 6 211.99 6.97
0 1 6 190.18 5.55
0 1 6 206.89 5.95
0 1 7 159.29 4.88
0 1 7 174.03 5.28
0 1 7 163.53 4.8
0 1 7 163.73 5.01
0 1 7 168.07 5.44
0 1 8 108.58 3.73
0 1 8 103.06 3.45
0 1 8 108.57 5.82
0 1 8 105.94 3.58
0 1 9 28.85 1.36
0 1 9 30.29 1.46
0 1 9 30.35 1.48
0 1 10 13.53 0.77
0 1 10 12.44 0.72
0 1 11 23.05 0.89
0 -2 12 23.18 0.97
0 -2 11 9.63 0.68
0 -2 11 8.28 0.77
0 -2 11 7.55 0.56
0 -2 10 0.07 0.31
0 -2 10 0.38 0.25
0 -2 10 0.28 0.25
0 -2 9 168.43 5.45
0 -2 9 151.94 7.81
0 -2 9 179.24 5.3
0 -2 9 158.74 5.33
0 -2 9 177.59 5.18
0 -2 9 170.66 5.25
0 -2 8 21.41 1.25
0 -2 8 19.83 1.06
0 -2 8 21.62 2.35
0 -2 8 19.52 1.12
0 -2 8 20.9 1.2
0 -2 8 21.71 1.17
0 -2 8 20.11 1.12
0 -2 7 303.82 8.42
0 -2 7 283.38 8.41
0 -2 7 302.81 8.53
0 -2 7 321.71 8.43
0 -2 7 295.4 9.93
0 -2 7 311.24 10.75
0 -2 6 195.01 6.81
0 -2 6 198.25 7.26
0 -2 5 116.33 4.01
0 -2 5 140.33 4.6
0 -2 5 129.28 4.84
0 2 -5 106.9 4.59
0 -2 5 116.35 5.45
0 -2 4 612.87 16.22
0 -2 4 580.28 17.04
0 -2 4 619.18 16.57
0 2 -4 557.29 16.19
0 -2 4 575.86 17.46
0 2 -4 603.31 16.15
0 -2 3 621.96 16.93
0 2 -3 663.55 17.26
0 2 -3 576.58 16.3
0 -2 3 603.88 17.17
0 -2 3 680.37 16.62
0 -2 3 563.74 18.85
0 2 -2 9999 255.86
0 2 -2 9946.22 254.49
0 2 -1 618.49 18
0 -2 1 685.35 18.35
0 2 0 376.88 11.48
0 -2 0 422.03 13.73
0 -2 0 388.43 11.79
0 -2 0 405.88 12.49
0 2 0 394.72 10.81
0 2 1 59.52 2.73
0 2 1 61.82 2.72
0 -2 -1 63.68 3.71
0 2 1 59.54 2.08
0 2 1 58.02 2.05
0 -2 -1 61.76 3.94
0 -2 -1 57.96 2.8
0 2 2 100.98 3.14
0 -2 -2 88.97 5.91
0 -2 -2 106.15 5.36
0 -2 -2 97.93 4.86
0 -2 -2 93.01 3.83
0 2 2 95.73 3.17
0 2 2 94.39 3.57
0 -2 -3 39.1 4.18
0 2 3 41.58 1.77
0 -2 -3 42.92 3.56
0 2 3 44.35 1.91
0 2 4 17.22 1.21
0 -2 -4 16.2 3.07
0 -2 -4 16.96 2.5
0 2 5 1.14 0.38
0 2 5 1.29 0.26
0 -2 -5 1.56 1.32
0 2 5 0.9 0.2
0 2 6 87.88 2.87
0 2 6 87.72 2.84
0 2 6 81.79 4.65
0 -2 -6 80.75 7.95
0 2 6 86.87 3.43
0 2 6 88.16 2.92
0 2 7 137.34 4.29
0 2 7 141.07 4.31
0 2 7 140.26 4.9
0 2 7 141.24 4.35
0 2 7 131.27 6.55
0 2 7 147.14 4.7
0 2 8 6.06 0.56
0 2 8 4.98 0.52
0 2 8 3.7 0.41
0 2 8 5.07 0.61
0 2 8 4.08 1.06
0 2 9 39.49 1.68
0 2 9 39.17 1.52
0 2 10 0.18 0.13
0 -3 12 1.1 0.32
0 -3 12 8.34 0.5
0 -3 11 27.79 1.53
0 -3 11 27.95 1.33
0 -3 10 30.27 1.6
0 -3 10 31.89 1.74
0 -3 10 33.74 1.61
0 -3 9 6.89 0.7
0 -3 9 8.1 0.74
0 -3 9 7.28 0.75
0 -3 9 6.58 0.73
0 -3 9 6.64 0.69
0 -3 9 6.5 1.46
0 -3 8 0.6 0.28
0 -3 8 0.5 0.23
0 -3 8 0.52 0.23
0 -3 8 0.72 0.28
0 -3 8 0.49 0.28
0 -3 8 0.25 0.4
0 -3 8 0.54 0.22
0 -3 7 65.44 2.36
0 -3 7 67.29 2.42
0 -3 7 68.1 2.44
0 -3 7 65.62 2.32
0 -3 7 65.7 2.23
0 -3 7 60.54 2.31
0 -3 7 59.87 3.95
0 -3 7 69.65 2.48
0 -3 6 188.58 7.32
0 -3 6 193.04 8.24
0 -3 5 112.16 5.23
0 -3 5 111.24 5.56
0 -3 5 105.49 4.72
0 -3 4 813.76 22.64
0 3 -4 851.54 22.89
0 -3 4 809.81 23.03
0 3 -4 816.53 23.4
0 -3 3 14.68 1.37
0 3 -3 15.6 1.53
0 -3 3 14.86 2.34
0 3 -3 15.01 1.58
0 3 -2 5869.61 154.86
0 -3 2 5929.2 158.46
0 3 -2 6001.45 155.01
0 -3 2 6261.82 154.4
0 -3 1 978.05 28.6
0 -3 1 870.12 25.6
0 -3 1 989.8 25.97
0 3 -1 882.64 24.98
0 3 -1 822.37 23.9
0 -3 1 921.24 25.58
0 3 -1 893.99 24.99
0 -3 0 74.57 4.4
0 3 0 67.4 3.49
0 -3 0 69.13 5.07
0 -3 0 67.61 3.72
0 -3 0 56.23 4.22
0 3 0 70.7 2.75
0 3 1 29.88 1.4
0 3 1 32.44 2.17
0 -3 -1 31.81 2.39
0 -3 -1 32.07 3.43
0 3 1 32.65 1.52
0 -3 -1 31.12 3.03
0 -3 -1 35.52 3.52
0 3 1 32.98 2.15
0 -3 -2 426.14 17.77
0 3 2 473.27 12.78
0 -3 -2 511.23 17.26
0 3 2 442.38 13.69
0 -3 -2 510.3 16.73
0 -3 -3 170.73 10.36
0 3 3 174.04 5.86
0 -3 -4 99.64 8.3
0 -3 -4 117.46 7.65
0 3 4 112.09 3.61
0 3 4 103.89 3.42
0 -3 -5 23.52 4.17
0 3 5 19.53 1.38
0 3 5 21.85 1.01
0 3 5 21.18 1.24
0 3 5 20.08 2.08
0 3 5 19.74 1.1
0 3 6 263.61 7.38
0 -3 -6 234.82 14.73
0 3 6 262.91 7.69
0 3 6 256.09 8
0 3 6 256.64 7.19
0 3 7 1.27 0.61
0 3 7 1.25 0.31
0 3 7 1.47 0.3
0 3 7 1.4 0.46
0 3 8 26.87 1.2
0 3 8 27.11 1.18
0 3 9 37.41 1.53
0 3 9 36.36 1.34
0 -4 12 1.22 0.34
0 -4 12 1.63 0.26
0 -4 11 54.11 2.13
0 -4 11 50.61 2.27
0 -4 11 49.25 1.97
0 -4 10 1.63 0.34
0 -4 10 0.82 0.27
0 -4 10 1.15 0.41
0 -4 10 0.67 0.37
0 -4 10 0.94 0.29
0 -4 9 3.58 0.57
0 -4 9 3.03 0.45
0 -4 9 3.65 0.51
0 -4 9 3.24 0.53
0 -4 9 3 0.42
0 -4 9 2.79 0.54
0 -4 9 2.72 0.47
0 -4 8 89.75 3.16
0 -4 8 81.19 2.99
0 -4 8 86.36 2.88
0 -4 8 86.74 3.1
0 -4 8 84.86 3.03
0 -4 8 84.3 2.93
0 -4 8 86.98 3.29
0 -4 7 31.39 1.36
0 -4 7 31.85 2.91
0 -4 7 30.92 1.31
0 -4 7 33.03 1.63
0 -4 7 29.31 1.46
0 -4 7 29.63 1.41
0 -4 7 30.92 1.48
0 -4 7 29.78 3.18
0 -4 7 30.79 1.61
0 -4 7 32.01 1.48
0 -4 6 42.84 1.57
0 -4 6 45.16 1.89
0 -4 6 42.46 1.73
0 -4 6 47.24 3.69
0 -4 6 41.04 1.67
0 -4 6 44.16 1.72
0 -4 5 39.03 3.02
0 4 -5 46.19 2.92
0 4 -5 42.4 3.31
0 -4 5 36.92 3.83
0 -4 4 538.59 16.5
0 4 -4 512.55 16.8
0 4 -4 536.51 16.45
0 -4 4 491.09 19.46
0 -4 3 14.75 1.65
0 4 -3 10.14 1.52
0 4 -3 11.18 1.47
0 4 -2 0.88 0.6
0 4 -2 0.54 0.38
0 -4 2 0.44 0.45
0 4 -2 0.64 0.56
0 -4 2 0.66 0.92
0 -4 1 166.15 7.74
0 4 -1 163.86 6.89
0 4 -1 165.74 5.94
0 -4 1 190.13 8.18
0 4 -1 162.72 6.83
0 -4 1 185.86 10
0 -4 0 179.51 9.92
0 -4 0 196.15 8.88
0 4 0 170.87 6.99
0 4 0 181.78 5.91
0 -4 -1 13.57 2.48
0 -4 -1 12.6 2.41
0 4 1 14.28 1.04
0 4 1 11.9 1.44
0 4 1 13.33 1.52
0 -4 -1 12.75 1.73
0 -4 -1 13.86 2.35
0 -4 -2 6.14 1.63
0 4 2 3.67 0.78
0 -4 -2 4.32 1.58
0 4 2 4.79 0.58
0 -4 -3 111.77 4.62
0 4 3 102.35 4.42
0 -4 -3 105.97 8.44
0 4 3 117.41 3.71
0 4 3 111.32 4.04
0 4 4 18.08 1.32
0 -4 -4 20.42 3.29
0 4 4 18.43 1.12
0 4 4 16.93 1.91
0 -4 -4 16.83 3.55
0 4 5 273.04 10.79
0 4 5 294.16 8.07
0 4 5 294.71 8.39
0 4 5 303.03 8.58
0 4 6 28.26 1.39
0 4 6 27.92 1.23
0 4 6 26.49 1.71
0 4 6 28.76 1.53
0 4 6 23.89 2.46
0 -4 -6 23.84 4.23
0 4 7 105.09 3.6
0 4 7 102.68 3.37
0 4 7 105.09 3.22
0 4 8 38.5 1.4
0 4 8 37.32 1.61
0 4 8 38.71 1.36
0 -5 12 2.87 0.44
0 -5 11 0.69 0.36
0 -5 11 0.82 0.35
0 -5 11 1.15 0.33
0 -5 10 9.59 1.03
0 -5 10 12.09 0.93
0 -5 10 11.61 0.96
0 -5 10 10.55 0.79
0 -5 10 13.03 0.94
0 -5 9 7.55 0.73
0 -5 9 8.88 0.79
0 -5 9 8.74 0.82
0 -5 9 8.41 0.99
0 -5 9 8.46 0.82
0 -5 9 8.67 0.69
0 -5 8 308.11 8.37
0 -5 8 305.86 8.71
0 -5 8 313.89 8.63
0 -5 8 293.26 8.35
0 -5 8 271.8 9.15
0 -5 8 300.21 8.68
0 -5 8 305.9 8.69
0 -5 8 285.23 9.1
0 -5 7 314.89 8.83
0 -5 7 297.02 8.56
0 -5 7 337.75 13.22
0 -5 7 294.95 9.43
0 -5 7 327.8 8.58
0 -5 7 309.92 9.37
0 -5 7 309.95 9
0 -5 7 320.93 8.9
0 -5 6 30.36 3.06
0 -5 6 26.65 1.65
0 -5 6 30.04 1.68
0 -5 6 30.57 1.39
0 -5 6 25.52 3.38
0 -5 6 25.7 1.31
0 -5 5 6.5 1.95
0 5 -5 7.58 1.52
0 -5 5 9.1 1.61
0 -5 5 9 0.9
0 -5 5 9.41 0.65
0 5 -5 7.64 1.36
0 -5 4 321.56 15.2
0 5 -4 335.32 11.59
0 -5 4 312.66 11.68
0 -5 3 110.28 5.79
0 5 -3 111.87 5.67
0 5 -3 94.93 5.4
0 -5 3 109.68 5.27
0 -5 3 114.91 8.34
0 5 -3 87.54 4.62
0 -5 2 98.11 7.76
0 5 -2 84.43 4.11
0 5 -2 90.95 5.04
0 -5 2 93.11 5.32
0 5 -2 90.71 5.02
0 -5 1 6.08 1.51
0 5 -1 5.47 0.84
0 -5 1 5.52 1.52
0 -5 1 8.22 2.33
0 5 -1 6.66 1.27
0 5 -1 7.26 1.32
0 -5 0 329.63 15.24
0 5 0 319.68 11.09
0 -5 0 311.36 13.72
0 5 0 303.62 9.28
0 5 0 286.95 10.84
0 -5 0 310.42 13.81
0 -5 -1 221.73 11.4
0 -5 -1 168.7 6.62
0 5 1 180.47 7.55
0 5 1 195.45 6.16
0 5 1 209.52 7.97
0 -5 -1 210.25 10.77
0 -5 -1 186.03 6.88
0 5 1 193.05 6.02
0 5 2 117.15 5.47
0 -5 -2 139.21 8.86
0 -5 -2 125.31 5.2
0 5 2 125.66 4.01
0 -5 -2 134.23 9.26
0 5 2 129.95 4.51
0 5 3 209.73 7
0 -5 -3 240.62 12.51
0 5 3 223.51 6.55
0 5 3 225.94 6.52
0 5 3 218.76 8.74
0 -5 -3 213.97 12.91
0 -5 -3 220.21 7.87
0 -5 -4 2 1.33
0 -5 -4 2.39 1.24
0 5 4 3.25 0.9
0 5 4 2.64 0.58
0 5 4 2.47 0.43
0 5 4 1.81 0.41
0 5 5 139.41 6.67
0 -5 -5 135.8 10.09
0 5 5 148.77 4.74
0 5 6 8.05 0.66
0 5 6 7.93 0.73
0 5 7 62.74 2.1
0 5 7 60.19 2.23
0 5 8 11.81 0.51
0 -6 12 3.93 0.38
0 -6 11 12.24 0.74
0 -6 11 12.38 0.84
0 -6 11 9.99 0.8
0 -6 11 11.31 0.69
0 -6 10 0.16 0.39
0 -6 10 1.24 0.35
0 -6 10 0.5 0.31
0 -6 10 0.18 0.32
0 -6 10 0.6 0.22
0 -6 9 41.29 1.81
0 -6 9 38.85 1.84
0 -6 9 38.87 1.84
0 -6 8 7.44 1.04
0 -6 8 9.98 0.92
0 -6 8 10.27 0.83
0 -6 8 7.72 1.08
0 -6 8 11.27 0.89
0 -6 7 15.29 1.02
0 -6 7 11.31 1.27
0 -6 7 12.89 1.29
0 -6 7 17.59 1.07
0 -6 6 11.26 1.23
0 -6 6 13.36 0.87
0 -6 6 11.58 0.88
0 -6 6 12.86 2.2
0 6 -5 135.44 7.37
0 6 -5 150.65 7.16
0 -6 5 112.87 4.98
0 -6 5 164.6 8.15
0 -6 5 158.84 6.63
0 -6 5 131.95 5.16
0 -6 5 152.35 5.4
0 -6 5 153.65 10.18
0 6 -4 10.42 1.55
0 -6 4 11.46 1.67
0 -6 4 13.09 2.12
0 6 -4 13.24 1.96
0 -6 4 10.01 1.21
0 -6 4 11.2 1.23
0 6 -4 12.11 1.93
0 -6 4 11.68 1.25
0 -6 3 90.58 4.19
0 6 -3 106.21 5.93
0 6 -3 103.45 5.04
0 -6 3 111.39 4.66
0 -6 3 120.7 6.76
0 -6 3 111.11 5.35
0 6 -3 107.88 5.97
0 -6 3 92.77 4.31
0 -6 3 102.36 4.23
0 -6 3 117.59 9.05
0 -6 2 199.05 7.98
0 6 -2 196.88 8.63
0 -6 2 212.28 7.39
0 -6 2 178.63 6.98
0 6 -2 200.55 8.8
0 -6 2 193.44 6.93
0 -6 2 212.46 9.5
0 -6 2 187.46 7.29
0 -6 2 221.33 12.86
0 6 -2 214.56 7.55
0 -6 1 4.44 1.91
0 -6 1 3.55 0.99
0 6 -1 6.03 1.25
0 -6 1 4.24 0.89
0 6 -1 2.9 0.62
0 -6 1 4.23 1.46
0 -6 1 2.7 0.76
0 -6 1 3.64 0.91
0 -6 0 91.23 4.32
0 -6 0 96.08 7.12
0 6 0 93.24 3.85
0 6 0 88.16 5.18
0 -6 0 95.39 7.81
0 6 0 106.49 5.49
0 -6 0 94.52 4.5
0 -6 0 105.9 4.71
0 -6 0 103.46 7.39
0 -6 0 107.74 5.19
0 -6 -1 3.05 1.38
0 -6 -1 2.98 0.81
0 -6 -1 3.26 0.83
0 6 1 2.81 0.86
0 6 2 27.29 1.37
0 -6 -2 26.9 3.98
0 -6 -2 27.4 2.12
0 -6 -2 24.4 3.95
0 -6 -2 26.58 2.15
0 6 3 207.33 6.28
0 6 3 216.57 6.31
0 -6 -3 222.27 7.79
0 -6 -3 223.35 12.32
0 6 3 206.09 8.59
0 -6 -3 190.51 12.06
0 6 4 16.4 1.93
0 -6 -4 14.15 3.04
0 6 4 17.79 1.09
0 6 4 18.68 1.09
0 -6 -4 18.98 1.65
0 6 5 4.74 0.5
0 6 5 4.27 0.5
0 6 6 8.42 0.63
0 6 7 39.07 1.28
0 -7 12 3.7 0.3
0 -7 11 2.46 0.53
0 -7 11 3.48 0.32
0 -7 11 3.31 0.41
0 -7 11 2.51 0.32
0 -7 10 5.27 0.54
0 -7 10 4.36 0.83
0 -7 10 6.2 0.62
0 -7 10 4.93 0.56
0 -7 9 32.1 2.39
0 -7 9 40.96 1.8
0 -7 9 40.91 1.9
0 -7 9 32.88 2.26
0 -7 9 45.98 1.9
0 -7 8 18.49 1.75
0 -7 8 24.25 1.33
0 7 -8 16.25 2.39
0 -7 8 19.83 1.85
0 -7 8 28.18 1.39
0 -7 7 11.08 0.81
0 -7 7 8.66 0.79
0 -7 7 5.71 1.03
0 -7 7 9.02 0.91
0 -7 7 7.97 1.95
0 -7 6 0.82 0.65
0 -7 6 0.94 0.58
0 -7 6 0.61 0.42
0 7 -6 0.53 0.5
0 -7 6 1.95 1.23
0 -7 6 0.89 0.33
0 -7 6 1.21 0.85
0 -7 5 136.21 9.82
0 -7 5 147.61 8.37
0 -7 5 138.3 5.4
0 7 -5 129.48 7.13
0 -7 5 161.14 6.88
0 7 -5 147.2 7.39
0 7 -5 120.35 6.3
0 -7 5 113.18 5.3
0 -7 5 122.33 5.46
0 -7 4 4.57 0.94
0 -7 4 4.73 0.81
0 7 -4 5.41 1.35
0 -7 4 5.13 0.98
0 7 -4 5.22 1.33
0 7 -4 5.24 1.09
0 -7 4 4.31 1
0 -7 4 5.74 1.62
0 7 -3 12.15 1.91
0 7 -3 11.25 1.47
0 -7 3 14.05 1.93
0 -7 3 15.22 3.37
0 -7 3 11.91 1.48
0 -7 3 14.43 1.68
0 -7 3 13.62 1.4
0 -7 3 14.44 2.44
0 7 -3 13.08 2
0 -7 2 376.29 18.09
0 7 -2 374.6 13.23
0 -7 2 370.74 11.72
0 -7 2 379.33 12.83
0 -7 2 332.89 11.85
0 -7 2 351.65 11.25
0 7 -2 339.88 11.14
0 -7 2 339.34 11.58
0 7 -2 311.42 12.88
0 -7 2 377.3 14.56
0 7 -1 61.91 4.29
0 -7 1 65.95 3.72
0 7 -1 51.76 4.04
0 -7 1 61.44 3.54
0 -7 1 59.62 5.25
0 -7 1 66.2 6.64
0 -7 1 74.31 4.39
0 -7 0 0.93 0.86
0 7 0 1.31 0.71
0 7 0 0.8 0.25
0 -7 0 1.19 0.67
0 7 0 1.2 0.65
0 -7 0 0.84 0.88
0 -7 0 1.35 0.65
0 7 1 283.47 7.98
0 -7 -1 272.82 9.62
0 -7 -1 286.26 9.68
0 -7 -1 271.06 13.72
0 7 2 0.75 0.54
0 -7 -2 -0.07 0.46
0 -7 -2 0.25 0.71
0 -7 -2 -0.14 0.49
0 7 2 -0.05 0.22
0 7 3 98.99 3.26
0 -7 -3 98.41 4.29
0 -7 -4 18.79 1.4
0 7 4 18.84 0.97
0 7 4 15.55 0.89
0 7 5 41.66 1.51
0 -8 11 7.71 0.47
0 -8 11 6.8 0.45
0 -8 10 16.83 0.86
0 -8 10 18.4 0.91
0 -8 10 16.58 0.95
0 -8 9 15.63 0.89
0 -8 9 11.24 1.27
0 -8 9 13.99 0.88
0 -8 9 11.54 1.36
0 -8 8 6.86 0.76
0 -8 8 8.78 0.67
0 -8 8 7.78 0.69
0 -8 7 16.9 1.1
0 -8 7 14.13 1.62
0 -8 7 14.2 1.72
0 -8 6 0.11 0.38
0 8 -6 0.11 0.36
0 -8 6 0.09 0.58
0 -8 6 0.28 0.24
0 -8 6 1.07 1.06
0 -8 5 38.75 2.91
0 8 -5 38.54 3.04
0 -8 5 42.38 2.92
0 -8 5 49.77 2.83
0 -8 5 48.07 5.62
0 8 -5 40.89 3.52
0 -8 4 35.41 2.17
0 -8 4 35.92 4.98
0 -8 4 28.86 2.56
0 -8 4 31.96 2.55
0 8 -4 33.38 3.11
0 8 -4 30.7 2.43
0 -8 4 38.14 2.59
0 -8 3 9.08 1.41
0 -8 3 9.32 1.19
0 -8 3 5.09 1.91
0 -8 3 8.33 1.28
0 -8 3 8.36 1.46
0 8 -3 6.97 1.41
0 -8 2 20.4 1.92
0 -8 2 18.64 1.72
0 -8 2 21.78 3.8
0 8 -2 19.57 2.29
0 -8 2 19.45 2
0 -8 1 52.79 4.78
0 8 -1 55.34 3.9
0 -8 1 44.56 5.2
0 -8 1 57.55 3.33
0 -8 0 136.56 5.59
0 8 0 133.93 4.08
0 -8 0 136.85 5.54
0 -8 0 118.64 7.68
0 8 1 133.1 4.08
0 -8 -1 132.27 5.28
0 -8 -1 139.47 5.47
0 -8 -2 -0.05 0.42
0 8 2 0.63 0.22
0 8 3 1.33 0.25
0 -8 -3 1.47 0.46
0 8 4 26.84 1.02
0 8 5 1.89 0.16
0 -9 10 0.22 0.29
0 -9 9 0.65 0.28
0 -9 9 0.24 0.34
0 -9 9 0.53 0.2
0 -9 8 14.8 1.54
0 -9 8 12.49 0.87
0 -9 8 12.72 1.34
0 -9 8 16.75 0.9
0 -9 8 17.16 1.03
0 -9 7 8.82 0.71
0 -9 7 9.78 0.82
0 -9 6 6.83 0.71
0 -9 6 6.56 0.89
0 -9 6 6.07 1.16
0 -9 6 6.61 0.65
0 -9 6 6.85 1.13
0 -9 5 0.23 0.27
0 -9 5 -0.08 0.63
0 -9 5 0.08 0.59
0 -9 5 0.52 0.46
0 -9 5 0.31 0.3
0 -9 4 8.94 1.31
0 -9 4 9.19 1.19
0 -9 4 7.21 0.9
0 -9 3 7.93 1.02
0 -9 3 10.2 1.28
0 -9 2 1.27 0.56
0 -9 2 1.61 0.71
0 -9 1 68.69 3.39
0 -9 0 1.08 0.53
0 -9 0 1.35 0.54
0 9 1 16.49 0.75
0 -9 -1 17.75 1.24
0 -9 -1 15.56 1.25
0 -9 -2 7.76 0.74
0 9 2 7.33 0.42
0 9 3 5.54 0.29
0 -10 9 2.89 0.29
0 -10 8 0.15 0.12
0 -10 8 0.22 0.18
0 -10 7 10.89 0.63
0 -10 7 9.21 0.72
0 -10 7 10.46 0.67
0 -10 6 15.58 0.83
0 -10 6 12.93 0.79
0 -10 5 1.52 0.46
0 -10 5 1.41 0.3
0 -10 5 1.48 0.29
0 -10 4 4.29 0.47
0 -10 4 3.52 0.51
0 -10 3 16.6 1.3
0 -10 3 16.51 1.13
0 -10 2 2.38 0.5
0 -10 2 3.26 0.6
0 -10 1 13.14 0.81
0 -10 1 17.01 1.14
0 -10 0 1.02 0.28
0 -10 0 1 0.3
0 -10 -1 0.35 0.16
0 -11 6 0.08 0.12
0 -11 5 1.14 0.24
0 -11 4 0.26 0.1
0 -11 4 0.23 0.17
0 -11 3 0.4 0.15
1 -11 1 4.46 0.28
1 -11 2 2.33 0.28
1 -11 2 2.24 0.29
1 -11 3 7.72 0.46
1 -11 3 5.32 0.48
1 -11 4 2.03 0.35
1 -11 6 0.68 0.15
1 -11 6 0.5 0.18
-1 10 2 7.28 0.34
1 -10 -1 0.22 0.21
1 -10 0 0.7 0.33
1 -10 0 0.25 0.28
1 -10 1 4.25 0.68
1 -10 1 3.15 0.49
1 -10 2 10.94 1.01
1 -10 2 11.66 1.14
1 -10 2 10.65 0.93
1 -10 3 63.15 2.92
1 -10 3 57.47 2.55
1 -10 4 1.09 0.32
1 -10 4 0.68 0.31
1 -10 5 3.44 0.4
1 -10 5 2.8 0.58
1 -10 6 0.03 0.3
1 -10 6 0.15 0.21
1 -10 7 0.57 0.23
1 -10 7 0.36 0.21
1 -10 7 0.13 0.23
1 -10 8 8.23 0.53
1 -10 8 9.8 0.63
1 -10 9 0.88 0.19
-1 9 3 1.29 0.18
1 -9 -3 1.13 0.32
-1 9 2 6.89 0.44
1 -9 -2 7.51 0.83
1 -9 -1 1.47 0.47
1 -9 -1 1.06 0.52
1 -9 0 0.99 0.58
1 -9 0 0.62 0.44
1 -9 1 0.38 0.55
1 -9 2 3.85 0.79
1 -9 2 4.05 0.9
1 -9 3 31.35 2.03
1 -9 3 35.21 2.39
1 -9 4 33.47 1.94
1 -9 4 30.64 2.47
1 -9 4 29.9 1.51
1 -9 4 34.46 2.31
1 -9 5 3.7 0.78
1 -9 5 3.49 0.54
1 -9 5 3.71 1.07
1 -9 6 0.32 0.33
1 -9 6 0.26 0.61
1 -9 6 -0.07 0.5
1 -9 7 23.18 1.9
1 -9 7 28.16 1.44
1 -9 7 23.65 1.3
1 -9 7 22.49 1.4
1 -9 8 3.64 0.47
1 -9 8 4.51 0.96
1 -9 8 5.07 0.53
1 -9 8 4.07 0.78
1 -9 8 4.86 0.56
1 -9 9 16.54 0.93
1 -9 9 15.5 0.85
1 -9 10 0.69 0.12
-1 8 5 0.04 0.09
-1 8 5 0.18 0.11
1 -8 -4 13.25 1
-1 8 4 14.14 0.73
1 -8 -3 1.53 0.51
-1 8 3 1.06 0.26
1 -8 -2 36.25 2.29
-1 8 2 32.98 1.44
1 -8 -1 66.6 3.41
1 -8 -1 57.32 5.28
-1 8 1 61.77 2.24
1 -8 -1 67.36 3.39
1 -8 0 117.84 5.04
1 -8 0 105.31 7.61
1 -8 0 107.38 7.42
1 -8 0 117.86 5.07
1 -8 1 71.9 3.79
1 -8 1 67 5.6
1 -8 1 69.16 6.38
-1 8 -2 143.23 6.92
1 -8 2 138.92 9.65
1 -8 2 154.44 5.82
-1 8 -2 129.91 5.69
1 -8 2 162.39 6.63
1 -8 2 136.58 8.4
1 -8 2 154.42 6.12
-1 8 -3 8.47 1.49
-1 8 -3 7.29 1.18
1 -8 3 7.47 1.83
1 -8 3 9.69 1.15
1 -8 3 10.97 1.54
1 -8 3 7.59 1.43
1 -8 3 8.74 2.39
-1 8 -3 7.66 1.64
1 -8 4 1.58 0.92
1 -8 4 2.01 0.69
1 -8 4 0.4 0.67
-1 8 -4 1.17 0.57
1 -8 4 0.8 0.64
-1 8 -4 2.5 1.01
1 -8 4 1.23 0.48
1 -8 5 1.44 0.85
1 -8 5 1.2 0.42
-1 8 -5 0.79 0.53
1 -8 5 0.84 0.52
1 -8 5 0.43 0.62
1 -8 5 1.63 1.14
1 -8 6 96.17 3.99
1 -8 6 92.32 7.04
-1 8 -6 78.9 4.98
1 -8 6 78.16 4.29
1 -8 6 97.07 3.51
1 -8 7 15.77 1.66
1 -8 7 17.16 1.15
1 -8 7 19.64 1.29
1 -8 7 14.8 1.73
1 -8 8 9.98 1.39
1 -8 8 14.6 1.08
1 -8 8 14.53 1
1 -8 8 11.63 1.35
1 -8 9 44.71 1.92
1 -8 9 43.51 1.84
1 -8 9 46.56 1.77
1 -8 10 6.21 0.53
1 -8 10 5.21 0.53
1 -8 10 6.38 0.51
1 -8 11 5.62 0.37
1 -8 11 4.99 0.37
-1 7 6 17.64 0.77
-1 7 6 15.11 0.67
-1 7 5 1.25 0.27
-1 7 4 33.39 1.53
-1 7 4 36.42 1.56
1 -7 -3 113.47 4.71
-1 7 3 114.9 3.55
-1 7 3 94.18 5.3
1 -7 -3 92.07 7.41
-1 7 3 100.92 3.48
1 -7 -2 124.57 8.67
-1 7 2 128.56 4.04
1 -7 -2 126.63 5.2
1 -7 -2 122.16 5.31
-1 7 1 9.94 0.72
1 -7 -1 8.68 1.24
1 -7 -1 7.3 2.13
-1 7 1 7.88 1.45
1 -7 -1 9.62 1.28
1 -7 0 14.45 1.53
1 -7 0 12.86 1.51
1 -7 0 18.8 3.21
-1 7 0 12.57 1.94
-1 7 0 13.63 1.36
1 -7 0 16.11 2.85
1 -7 1 13.78 1.56
1 -7 1 15.44 2.6
-1 7 -1 17.96 2.12
-1 7 -1 15.55 2.27
-1 7 -1 13.73 1.45
1 -7 1 15.73 1.76
1 -7 1 11.87 2.72
1 -7 2 89.83 4.74
1 -7 2 90.17 4.05
1 -7 2 88.58 4.52
1 -7 2 87.41 6.09
1 -7 2 91.11 7.64
-1 7 -2 77.66 5.44
-1 7 -2 95.36 5.25
1 -7 2 89.87 4.3
-1 7 -2 86.99 4.37
1 -7 3 38.67 2.33
-1 7 -3 36.32 3.54
1 -7 3 33.78 2.7
1 -7 3 41.8 5.07
-1 7 -3 37.19 3.15
1 -7 3 34.49 2.61
-1 7 -3 38.34 2.84
1 -7 3 37.45 3.81
1 -7 4 9.6 1.05
1 -7 4 9.95 1.94
1 -7 4 11.43 1.33
1 -7 4 8.01 1.3
-1 7 -4 9.38 1.83
1 -7 4 9.76 2.59
-1 7 -4 8.82 1.56
-1 7 -4 8.58 1.48
-1 7 -5 93.54 5.85
1 -7 5 97.53 7.45
1 -7 5 89.53 3.95
1 -7 5 86.08 5.87
1 -7 5 74 4.06
-1 7 -6 74.55 5.02
1 -7 6 72.04 3.98
1 -7 6 83.85 6.53
1 -7 6 82.3 3.55
1 -7 6 73.06 3.94
1 -7 6 83.6 3.2
1 -7 7 15.48 1.18
1 -7 7 14.5 1.61
-1 7 -7 15.32 2.29
1 -7 7 17.42 1.16
1 -7 7 19.15 1.12
1 -7 7 11.96 1.51
1 -7 8 0.78 0.35
1 -7 8 0.66 0.3
1 -7 8 1.18 0.38
1 -7 8 0.72 0.49
-1 7 -8 1.27 0.8
1 -7 8 0.82 0.59
1 -7 8 0.83 0.39
1 -7 9 37.64 1.75
1 -7 9 38.91 1.73
1 -7 10 9.2 0.73
1 -7 10 9.1 0.73
1 -7 10 8.57 0.7
1 -7 11 0.39 0.22
1 -7 11 0.57 0.2
1 -7 11 0.86 0.18
-1 6 7 7.83 0.42
-1 6 6 9.87 0.69
-1 6 6 8.81 0.7
-1 6 5 6.42 0.61
-1 6 5 6.7 0.66
-1 6 4 110.92 3.78
1 -6 -4 108.53 8.4
-1 6 4 101.44 5.65
1 -6 -4 113.13 4.74
-1 6 4 115.3 3.73
1 -6 -3 77.12 3.77
-1 6 3 69.85 2.66
1 -6 -3 73.75 6.88
-1 6 3 70.24 2.6
1 -6 -3 70.2 6.63
-1 6 2 116.41 3.73
-1 6 2 114.17 4.49
1 -6 -2 119.11 8.57
1 -6 -2 118.14 5.02
-1 6 2 97.12 5.36
1 -6 -2 120.31 8.69
-1 6 1 28.75 2.79
1 -6 -1 31.73 4.11
1 -6 -1 31.83 4.03
-1 6 1 35.27 2.15
1 -6 -1 35.31 2.38
1 -6 -1 33.05 4.22
1 -6 -1 36.19 2.41
-1 6 1 34.98 1.51
-1 6 0 1210.4 31.67
1 -6 0 1035.4 29.66
1 -6 0 1112.89 30.33
1 -6 0 1142.19 36.44
-1 6 0 1119.53 29.62
1 -6 0 1052.5 29.86
-1 6 0 993.58 31.6
-1 6 -1 44.12 2.74
1 -6 1 47.52 2.64
-1 6 -1 49.23 3.42
1 -6 1 42.85 2.65
1 -6 1 51.39 5.42
1 -6 1 44.19 2.82
1 -6 1 44.32 4.09
1 -6 1 49.07 3.3
1 -6 1 45.42 3.01
-1 6 -1 37.63 3.42
1 -6 1 47.82 4.58
-1 6 -2 291.74 10.61
-1 6 -2 279.04 11.25
1 -6 2 277.3 8.87
1 -6 2 291.87 11.76
1 -6 2 290.17 14.18
1 -6 2 263.44 9.25
-1 6 -2 281.01 9.84
1 -6 2 306.28 10.4
1 -6 2 283 9.23
1 -6 2 253.47 9.36
-1 6 -3 143.62 7.34
1 -6 3 144.8 5.46
-1 6 -3 146.02 6.75
1 -6 3 139.25 5.06
1 -6 3 124.28 5.42
1 -6 3 150.29 7.46
1 -6 4 45.61 4.94
1 -6 4 31.77 2.23
1 -6 4 44.67 3.66
-1 6 -4 42.96 3.31
1 -6 4 39.25 2.31
-1 6 -4 35.62 3.01
-1 6 -4 42.7 3.67
1 -6 5 48.46 2.85
1 -6 5 50.69 2.89
1 -6 5 64.75 4.44
1 -6 5 56.99 5.42
-1 6 -5 57.56 4.17
1 -6 5 58.87 2.81
-1 6 -5 63.02 4.48
1 -6 6 1.55 0.34
1 -6 6 0.25 0.44
1 -6 6 2.07 1.03
1 -6 6 1.14 0.55
1 -6 6 1.29 0.38
-1 6 -6 1.32 0.74
1 -6 7 22.7 1.42
1 -6 7 25.71 1.14
1 -6 7 17.33 1.69
1 -6 7 21.77 1.85
-1 6 -7 21.67 2.79
1 -6 7 24.26 1.37
1 -6 7 27.09 1.41
1 -6 7 29.01 1.57
1 -6 8 134.06 4.82
1 -6 8 150.64 4.76
-1 6 -8 121.5 7.55
1 -6 8 153.15 4.81
1 -6 8 152.14 4.4
1 -6 8 121.22 5.4
1 -6 9 4.91 0.63
1 -6 9 5.19 0.66
1 -6 9 4.56 0.69
1 -6 9 5.69 0.66
1 -6 9 4 0.83
1 -6 9 6.01 0.52
1 -6 10 1.7 0.46
1 -6 10 0.9 0.41
1 -6 10 1.79 0.4
1 -6 10 1.19 0.37
1 -6 10 0.93 0.33
1 -6 11 0.79 0.3
1 -6 11 1.52 0.26
1 -6 11 1.32 0.43
1 -6 11 0.36 0.24
1 -6 12 33.46 1.22
-1 5 8 2.42 0.28
-1 5 7 13.74 0.94
-1 5 7 13.83 0.74
-1 5 7 14.47 0.85
-1 5 6 0.32 0.3
-1 5 6 0.46 0.43
-1 5 5 134.46 4.56
1 -5 -5 129.72 9.77
-1 5 5 145.21 4.47
-1 5 4 256.56 7.57
-1 5 4 262.61 7.44
1 -5 -4 233.05 13.62
1 -5 -4 232.47 13.3
-1 5 3 71.69 3.3
-1 5 3 77.4 2.82
1 -5 -3 80.56 3.78
-1 5 3 80.97 2.76
1 -5 -3 76.31 6.92
1 -5 -3 74.41 6.69
-1 5 2 235.21 6.74
1 -5 -2 236.28 12.15
-1 5 2 241.55 7.61
1 -5 -2 246.33 12.5
1 -5 -2 235.92 7.95
-1 5 2 212.22 8.75
-1 5 2 230.17 6.65
1 -5 -1 38.97 2.38
-1 5 1 43.28 2.34
-1 5 1 48.72 3.15
-1 5 1 40.35 3.17
1 -5 -1 43.28 4.47
1 -5 -1 49.68 4.77
1 -5 -1 49.37 4.62
-1 5 0 1413.71 37.7
1 -5 0 1299.84 41.52
-1 5 0 1346.03 36.34
-1 5 -1 74.78 3.64
1 -5 1 86.42 5.62
1 -5 1 88.78 6.5
-1 5 -1 66.1 4.38
1 -5 1 70.79 4.97
-1 5 -1 72.48 4.15
1 -5 2 202.35 8.7
-1 5 -2 178.38 7.39
1 -5 2 182.47 10
-1 5 -2 170.75 7.95
1 -5 2 191.93 8.19
-1 5 -3 975.69 28.84
-1 5 -3 921.51 27.51
-1 5 -3 942.62 27.98
1 -5 4 215.02 8.41
-1 5 -4 208.72 8.86
1 -5 4 192.04 10.15
-1 5 -4 197.84 8.2
1 -5 5 81.17 3.45
-1 5 -5 92.38 5.23
1 -5 5 91.98 2.96
1 -5 5 98.42 6.3
1 -5 5 90.3 4.93
1 -5 6 4.17 1.14
1 -5 6 4.65 0.71
1 -5 6 4.32 0.38
1 -5 6 4.14 0.42
1 -5 6 5.93 0.62
1 -5 6 4.13 0.7
1 -5 6 4.27 0.56
1 -5 6 4.75 0.53
1 -5 7 254.85 7.4
1 -5 7 245.56 7.45
1 -5 7 255.43 7.37
1 -5 7 257.98 7.13
1 -5 7 241.63 7.92
1 -5 7 246.03 6.97
1 -5 7 254.65 7.55
1 -5 8 0.94 0.38
1 -5 8 0.79 0.37
1 -5 8 0.92 0.35
1 -5 8 1.95 0.48
1 -5 8 1.18 0.27
1 -5 8 0.75 0.42
1 -5 8 0.8 0.24
1 -5 9 4.81 0.8
1 -5 9 6.68 0.79
1 -5 9 5.96 0.55
1 -5 9 6.96 0.73
1 -5 9 7.83 0.78
1 -5 9 6.56 0.62
1 -5 9 6.47 0.69
1 -5 10 47.19 1.95
1 -5 10 54.12 1.99
1 -5 10 52.71 2.19
1 -5 10 50.45 2.32
1 -5 10 49.84 2.13
1 -5 11 26.55 1.33
1 -5 11 24.5 1.43
-1 4 9 29.42 1.03
-1 4 8 29.8 1.5
-1 4 8 33.67 1.36
-1 4 7 21.72 1.08
-1 4 7 24.51 1.23
-1 4 7 24.68 1.39
-1 4 6 2.92 0.5
1 -4 -6 2.23 1.49
-1 4 6 2.99 0.45
-1 4 5 269.54 7.92
-1 4 5 256.37 10.08
1 -4 -5 285.25 14.29
1 -4 -5 264.99 14.68
1 -4 -4 519.41 22.58
-1 4 4 559.1 15.13
-1 4 4 572.27 14.93
-1 4 4 512.75 17.23
1 -4 -4 558.27 22.04
-1 4 3 364.42 10.46
1 -4 -3 349.24 15.84
-1 4 3 353.22 9.71
-1 4 3 351.69 9.59
-1 4 3 350.19 10.12
1 -4 -3 375.91 15.81
1 -4 -2 924.29 28.95
1 -4 -2 929.29 27.34
-1 4 2 879.68 23.67
1 -4 -2 898.65 29.35
-1 4 2 818.06 24.98
1 -4 -1 245.19 10.76
1 -4 -1 230.5 10.33
-1 4 1 243.15 8.23
1 -4 -1 223.87 10.66
-1 4 1 237.98 7.26
-1 4 0 340.65 10.95
1 -4 0 320.85 12.78
1 -4 0 317.47 12.83
-1 4 0 352.26 10.29
1 -4 0 348.64 13.82
1 -4 1 160.41 8.45
-1 4 -1 162.52 6.38
1 -4 1 169.84 7.66
1 -4 2 0.49 0.46
-1 4 -2 0.3 0.38
-1 4 -2 0.4 0.41
1 -4 2 0.56 0.61
1 -4 2 0.99 0.98
1 -4 3 298.25 9.84
1 -4 3 292.01 12.09
-1 4 -3 284.34 9.98
-1 4 -4 669.43 20.48
1 -4 4 688.11 19.59
1 -4 4 668.73 21.6
-1 4 -4 649.28 19.84
1 -4 5 100.69 4.67
1 -4 5 84.94 4.98
1 -4 6 372.06 10.15
1 -4 6 370.51 10.42
1 -4 6 379.76 10.35
1 -4 6 380.63 10.64
1 -4 6 392.76 10.46
1 -4 6 369.47 10.01
1 -4 7 1.55 0.4
1 -4 7 1.9 0.39
1 -4 7 1.81 0.36
1 -4 7 1.54 0.3
1 -4 7 2.22 0.4
1 -4 7 1.66 0.4
1 -4 7 1.75 0.28
1 -4 8 1.54 0.29
1 -4 8 1.2 0.36
1 -4 8 1.1 0.37
1 -4 8 1.01 0.39
1 -4 8 1.56 0.39
1 -4 8 1.19 0.29
1 -4 8 1.37 0.42
1 -4 9 45.16 1.84
1 -4 9 49.62 2.18
1 -4 9 45.62 1.98
1 -4 9 48.59 2.14
1 -4 9 45.13 1.95
1 -4 9 48.32 2.31
1 -4 10 27.3 1.51
1 -4 10 26.16 1.62
1 -4 10 27.99 1.29
1 -4 10 25.77 1.29
1 -4 11 38.7 1.73
1 -4 11 39.83 1.96
1 -4 11 39.85 1.58
1 -4 12 3.28 0.43
-1 3 9 25.39 1.28
-1 3 9 24.89 1.04
-1 3 9 26.17 1.08
-1 3 8 7.16 0.57
-1 3 8 7.88 0.62
-1 3 8 8.31 0.6
-1 3 8 8.11 0.78
-1 3 7 249.1 6.98
-1 3 7 248.88 7.12
-1 3 7 257.72 6.98
-1 3 7 240.34 6.93
1 -3 -6 434.68 19.85
-1 3 6 430.17 11.62
-1 3 6 455.17 12.2
-1 3 6 407.47 14.45
-1 3 6 436.57 11.86
-1 3 6 433.12 11.67
-1 3 5 30.78 1.42
-1 3 5 34.58 1.61
1 -3 -5 32.15 4.05
-1 3 5 33.83 1.82
1 -3 -5 32.11 4.43
-1 3 5 29.33 2.52
1 -3 -4 279.72 12.63
-1 3 4 271.14 9.59
1 -3 -4 289.81 13.91
-1 3 3 8.88 1.09
1 -3 -3 8.18 1.71
-1 3 3 9.98 0.9
1 -3 -3 6.4 1.82
1 -3 -2 6149.6 160.26
-1 3 2 6235.94 154.98
1 -3 -2 5960.44 157.35
1 -3 -2 5769.03 158.44
1 -3 -1 343.8 12.97
1 -3 -1 335.4 12.35
-1 3 1 352.59 10.64
1 -3 -1 342.38 12.4
-1 3 1 353.28 10
-1 3 0 375.39 11.4
1 -3 0 380.16 12.95
1 -3 0 387.34 13.57
1 -3 0 388.04 12.85
1 -3 1 738.77 20.52
-1 3 -1 695.56 19.34
1 -3 1 665.06 19.78
1 -3 1 684.48 17.73
-1 3 -1 694.38 19.19
1 -3 1 655.73 21.35
1 -3 2 5.03 0.83
1 -3 2 6.24 0.51
-1 3 -2 5.12 0.82
1 -3 3 31.11 2.62
1 -3 3 29.62 1.45
-1 3 -3 29.8 2.03
1 -3 3 27.72 1.75
-1 3 -4 37.75 2.57
1 -3 4 36.1 2.38
1 -3 4 36.82 2.6
1 -3 4 36.97 2.19
1 -3 5 25.09 1.79
1 -3 5 28.05 2.18
1 -3 5 28.42 2.12
1 -3 6 54.53 2.08
1 -3 6 53.91 2.86
1 -3 6 51.28 1.98
1 -3 6 53.72 1.9
1 -3 6 51.31 1.77
1 -3 6 52.51 2
1 -3 7 4.93 0.94
1 -3 7 5.75 0.48
1 -3 7 6.36 0.66
1 -3 7 6.57 0.63
1 -3 7 5.35 0.58
1 -3 7 6.15 0.58
1 -3 8 2.43 0.73
1 -3 8 3.16 1.04
1 -3 8 3.05 0.54
1 -3 8 2.35 0.45
1 -3 8 1.87 0.38
1 -3 8 2.55 0.36
1 -3 9 21.8 1.12
1 -3 9 17.81 2.49
1 -3 9 20.28 1.3
1 -3 9 19.26 1.09
1 -3 9 19.23 1.16
1 -3 9 20.74 1.4
1 -3 10 0.99 0.45
1 -3 10 1.51 0.33
1 -3 10 2.21 0.43
1 -3 11 23.63 1.36
1 -3 11 23.21 1.14
1 -3 11 24.32 1.09
-1 2 10 0.02 0.15
-1 2 10 0.08 0.14
-1 2 9 1.45 0.31
-1 2 9 1.34 0.24
-1 2 9 1.13 0.27
-1 2 9 1.33 0.34
-1 2 8 64.51 2.39
1 -2 -8 58.12 5.54
-1 2 8 54.97 4.04
-1 2 8 62 2.25
-1 2 8 64.15 2.29
-1 2 8 65.15 2.61
-1 2 7 61.41 2.25
-1 2 7 64.63 2.55
-1 2 7 57.2 2.13
-1 2 7 61.15 4.06
-1 2 7 59.25 2.2
-1 2 6 72.24 2.51
-1 2 6 72.76 4.22
-1 2 6 76.65 2.8
-1 2 6 70.71 2.4
-1 2 6 73.98 2.96
1 -2 -6 65.92 6.47
-1 2 6 75.34 2.51
1 -2 -5 4.14 1.35
1 -2 -5 2.99 1.36
-1 2 5 4.76 0.9
-1 2 4 590.32 15.4
1 -2 -4 556.36 17.46
1 -2 -4 539.13 19.85
1 -2 -3 185.34 7.55
-1 2 3 179.55 5.71
1 -2 -3 168.79 8.85
-1 2 3 190.23 5.37
1 -2 -2 822.6 23.82
1 -2 -2 842.96 23.23
-1 2 2 845.61 21.55
1 -2 -2 793.04 25.37
1 -2 -1 1150.74 31.79
-1 2 1 1143.31 30.25
1 -2 -1 1197.29 31.39
1 -2 -1 1203.71 31.62
1 -2 0 439.67 12.47
-1 2 0 418.29 11.78
1 -2 0 416.6 12.43
1 -2 1 8.24 0.47
1 -2 1 7.39 0.9
1 -2 1 10.08 1.07
-1 2 -1 11.4 0.91
1 -2 2 1.04 0.28
-1 2 -2 1.04 0.35
1 -2 2 0.63 0.43
1 -2 2 1.5 0.54
-1 2 -2 0.74 0.2
1 -2 3 113.95 3.98
1 -2 3 129.8 4.59
1 -2 3 120.84 3.94
-1 2 -3 133.12 4.38
1 -2 3 108.51 4.2
1 -2 4 118.99 4.27
1 -2 4 143.24 4.57
1 -2 5 0.33 0.26
1 -2 6 257.86 8.75
1 -2 6 259.28 7.18
1 -2 6 268.49 7.51
1 -2 6 267.9 7.3
1 -2 7 99.34 3.29
1 -2 7 98.22 3.41
1 -2 7 89.9 4.45
1 -2 7 84.39 4.95
1 -2 7 101.54 3.1
1 -2 7 90.27 3.12
1 -2 7 100.97 3.19
1 -2 8 34.65 1.63
1 -2 8 31.1 1.45
1 -2 8 31.63 2.98
1 -2 8 35.91 1.59
1 -2 8 31.32 2.5
1 -2 8 33.76 1.7
1 -2 9 102.29 3.85
1 -2 9 107.45 6.25
1 -2 9 114.42 3.71
1 -2 9 116.39 3.8
1 -2 10 0.47 0.26
1 -2 11 3.26 0.49
1 -2 12 7.5 0.39
-1 1 11 1.66 0.27
-1 1 11 1.63 0.24
-1 1 10 1.69 0.34
-1 1 10 2.27 0.35
-1 1 9 147.71 4.65
-1 1 9 152.26 4.66
-1 1 9 133.84 6.92
-1 1 9 144.75 4.49
-1 1 8 99.58 3.12
1 -1 -8 88.13 6.69
-1 1 8 102.62 3.52
-1 1 8 100.22 3.37
-1 1 8 96.66 5.45
-1 1 8 94.74 3.23
-1 1 7 46.89 1.81
-1 1 7 52.57 3.54
-1 1 7 50.08 2.09
-1 1 7 49.5 1.81
-1 1 7 46.97 1.91
-1 1 6 309.26 9.69
-1 1 6 315.58 8.85
-1 1 6 325.59 10.84
-1 1 6 319.56 8.65
-1 1 6 311.24 8.51
1 -1 -5 555.84 17.57
-1 1 5 556.07 16.1
1 -1 -5 499.99 19.82
-1 1 5 542.13 15.12
-1 1 4 1349.45 35.45
-1 1 4 1328.35 34.7
1 -1 -4 1392.02 36.47
1 -1 -3 0.85 0.7
-1 1 3 1.06 0.32
-1 1 3 0.83 0.21
1 -1 -3 2.17 0.52
1 -1 -2 40.98 2.02
1 -1 -2 44.86 1.83
1 -1 -2 39.85 1.73
-1 1 2 43.62 1.47
-1 1 2 42.93 1.65
1 -1 -1 1199.86 32.94
1 -1 -1 1301.07 32.28
1 -1 -1 1215.61 31.92
-1 1 0 3173.89 82.58
1 -1 0 3334.46 82.59
1 -1 1 1901.88 46.79
-1 1 -1 1837.37 46.5
1 -1 1 1799.01 46.59
1 -1 2 1093.11 28.12
1 -1 2 1069.45 28.04
1 -1 3 10.01 0.82
1 -1 3 11.85 0.88
1 -1 4 259.44 7.92
1 -1 5 709.88 21.96
1 -1 5 860.37 21.84
1 -1 6 11.05 0.73
1 -1 6 12.14 0.81
-1 1 -6 9.76 2.49
1 -1 6 12.4 1.31
1 -1 6 11.67 1.43
1 -1 6 11.6 0.7
1 -1 7 210.61 6.45
1 -1 7 215.22 6.26
1 -1 7 227.26 6.61
1 -1 7 239.04 8.91
1 -1 7 202.52 7.94
1 -1 7 219.41 6.42
1 -1 7 233.42 6.36
1 -1 8 114.83 3.72
1 -1 8 116.83 3.69
1 -1 8 113.06 3.77
1 -1 8 111.79 5.98
1 -1 8 110.08 5.25
1 -1 8 114.97 3.76
1 -1 8 111.67 3.97
1 -1 9 210.67 5.93
1 -1 9 213.09 5.98
1 -1 9 186.63 6.18
1 -1 9 190.67 8.76
1 -1 9 188.2 5.88
1 -1 10 96.82 3.5
1 -1 10 103.85 3.27
1 -1 11 6.51 0.47
1 -1 11 4.61 0.51
-1 0 12 -0.06 0.14
-1 0 12 0.03 0.09
-1 0 11 15.38 0.93
-1 0 11 17.36 0.88
-1 0 10 6.3 0.65
-1 0 10 5.54 0.55
-1 0 9 2.33 0.86
-1 0 9 1.58 0.35
-1 0 9 1.42 0.33
-1 0 8 156.77 4.49
1 0 -8 139.61 8.07
-1 0 8 165.97 7.26
-1 0 8 130.69 4.24
-1 0 8 151.78 4.61
-1 0 7 46.9 3.17
-1 0 7 43.78 1.84
-1 0 7 48.6 1.75
-1 0 7 50.83 1.87
-1 0 7 40.71 1.61
-1 0 7 45.75 1.86
-1 0 6 211.75 7.4
-1 0 6 250.4 8.22
1 0 -5 1139.6 29.11
-1 0 5 1093.94 28.65
-1 0 5 1008.36 28.01
1 0 -5 959.49 31.71
1 0 -4 48.31 3.51
-1 0 4 50.73 2.35
-1 0 4 45.77 2.06
-1 0 3 2309.01 53.63
-1 0 3 2159.42 53.8
1 0 -3 2025.37 55.4
1 0 -3 2118.93 53.1
-1 0 3 2234.4 53.26
-1 0 2 58.33 1.82
-1 0 2 55.48 2.61
-1 0 2 56.42 1.94
-1 0 2 52.46 1.93
1 0 -2 49.55 2.28
-1 0 1 483.86 11.9
-1 0 1 467.99 12.47
-1 0 1 475.57 12
-1 0 0 1621.09 42.29
-1 0 0 1544.14 42.29
1 0 1 977.84 25.65
-1 0 -1 1061.79 25.68
1 0 1 1023.28 25.58
1 0 2 16.45 0.71
-1 0 -2 17.35 0.77
1 0 2 17.47 0.97
-1 0 -2 16.31 1.11
1 0 3 220.05 6.62
-1 0 -3 214.19 7.03
1 0 3 210.39 5.76
1 0 3 223.41 6.66
-1 0 -4 1209.56 33.24
1 0 4 1296.1 33.26
1 0 4 1232.34 32.98
1 0 5 47.31 2.62
1 0 5 55.58 2.98
-1 0 -5 59.18 5.7
1 0 6 193.52 5.75
1 0 6 219.43 7.8
1 0 6 191.37 7.04
1 0 6 195.67 5.63
1 0 6 199.05 5.56
-1 0 -6 205.86 12.77
1 0 6 191.11 6
1 0 6 191.47 5.55
1 0 6 194 5.86
1 0 7 381.37 12.83
1 0 7 367.69 10.15
1 0 7 364.68 11.74
1 0 7 364.48 9.82
1 0 7 355.45 9.79
1 0 7 359.06 10.07
1 0 7 342.55 9.82
1 0 7 353.84 10.34
1 0 8 0.49 0.42
1 0 8 0.48 0.31
1 0 8 1.06 0.33
1 0 8 0.4 0.36
1 0 8 0.49 0.25
1 0 9 7.07 0.63
1 0 9 7.1 0.65
1 0 9 7.86 0.74
1 0 10 65.84 2.23
1 0 10 61.74 2.33
1 0 11 3.12 0.29
-1 -1 12 15.82 0.76
-1 -1 11 2.59 0.38
-1 -1 10 63.06 2.33
-1 -1 10 72.17 2.55
-1 -1 10 72.7 2.56
-1 -1 10 68.83 2.71
-1 -1 9 120.51 3.75
-1 -1 9 108.91 6.04
-1 -1 9 107.89 3.81
-1 -1 9 116.86 3.69
-1 -1 9 103.94 3.51
-1 -1 8 133.15 4.12
-1 -1 8 110.6 3.94
1 1 -8 127.95 6.94
-1 -1 8 118.27 3.83
-1 -1 8 129.37 3.92
-1 -1 8 123.76 6.17
-1 -1 8 135.68 4.06
1 1 -7 67.26 4.49
-1 -1 7 72.79 2.45
-1 -1 7 61.74 2.35
-1 -1 7 66.4 2.3
-1 -1 7 70.32 3.93
-1 -1 7 74.1 2.36
1 1 -6 133.38 6.17
-1 -1 6 135.72 5.47
-1 -1 5 34.39 2.04
1 1 -5 34.31 2.42
-1 -1 4 567.86 15.73
1 1 -4 573.83 16.3
1 1 -3 170.67 5.04
-1 -1 3 178.83 5.27
-1 -1 3 177.54 5.39
-1 -1 3 179.25 6.12
1 1 -3 159.66 5.06
1 1 -3 176.31 5.59
1 1 -2 8804.2 219.07
-1 -1 2 8506 218.9
1 1 -2 8746.31 219.14
-1 -1 2 8659.48 219.7
1 1 -1 2368.56 58.59
1 1 -1 2255.66 58.61
-1 -1 1 2252.47 59.24
-1 -1 1 2274.89 58.86
1 1 0 30.31 0.99
-1 -1 0 28.7 1.41
1 1 0 30.39 1.39
-1 -1 -1 4189.19 104.54
1 1 1 4099.49 104.78
1 1 1 3991.62 104.28
-1 -1 -1 4288.22 104.95
-1 -1 -1 4018.62 105.67
-1 -1 -2 39.05 2.07
1 1 2 39.98 1.87
1 1 2 38.96 1.89
-1 -1 -2 44.76 2.75
1 1 2 37.37 1.57
-1 -1 -3 1814.13 48.73
1 1 3 1704.67 43.16
-1 -1 -3 1586.31 43.28
-1 -1 -3 1722.17 45.09
1 1 3 1588.13 42.85
1 1 4 295.27 9.04
1 1 4 265.28 8.55
-1 -1 -4 258.63 13.49
1 1 5 124.57 3.74
1 1 5 131.66 4.32
1 1 5 127.82 3.81
-1 -1 -5 126.36 9.54
1 1 5 134.76 4.17
1 1 5 125.1 3.99
1 1 5 130.86 5.04
1 1 5 144.44 5.68
1 1 6 322.1 8.91
-1 -1 -6 323.75 17.71
1 1 6 317.23 8.84
1 1 6 364.66 11.7
1 1 6 331.96 9.05
1 1 6 338.89 9.62
1 1 6 350.4 9.39
1 1 6 303.58 8.86
1 1 6 340.54 10.64
1 1 7 251.83 7.27
1 1 7 244.44 9.57
1 1 7 241.36 7
1 1 7 240.92 6.85
-1 -1 -7 222.71 14.95
1 1 7 239.49 7.48
1 1 7 229.54 6.74
1 1 8 1.4 0.38
1 1 8 2.02 0.39
1 1 8 1.67 0.46
1 1 8 1.66 0.73
1 1 8 1.29 0.3
1 1 9 2.16 0.36
1 1 9 2.28 0.39
1 1 9 1.76 0.36
1 1 10 19.42 0.86
1 1 10 22.97 0.96
-1 -2 12 0.32 0.17
-1 -2 12 0.58 0.26
-1 -2 11 3.61 0.39
-1 -2 11 3.15 0.43
-1 -2 11 3.29 0.53
-1 -2 10 83.23 2.91
-1 -2 10 87.99 3
-1 -2 10 81.96 3.04
-1 -2 10 84.66 3.16
-1 -2 10 76.89 5.16
-1 -2 9 96.95 3.57
-1 -2 9 108.96 3.73
-1 -2 9 113.4 3.59
-1 -2 9 106.47 3.55
-1 -2 9 100.6 5.83
-1 -2 9 112.99 3.69
-1 -2 8 19.63 1.1
-1 -2 8 19.21 1.04
-1 -2 8 19.19 1.11
-1 -2 8 16.98 1.01
-1 -2 8 17.7 2.09
-1 -2 8 18.1 1.04
-1 -2 8 23.11 1.2
-1 -2 7 414.16 10.83
-1 -2 7 401.05 10.88
-1 -2 7 396.63 13.22
-1 -2 7 425.58 10.96
-1 -2 7 382.53 10.83
-1 -2 7 395.81 10.88
1 2 -6 2.54 0.68
-1 -2 6 1.88 0.55
-1 -2 6 2.39 0.95
-1 -2 5 654.44 19.65
-1 -2 5 595.89 20.01
1 2 -5 620.43 17.84
-1 -2 5 651.87 17.98
-1 -2 4 95.3 3.67
1 2 -4 90.66 3.51
1 2 -4 92.8 3.44
-1 -2 3 1850.47 47.37
1 2 -3 1722.71 46.12
1 2 -3 1839.04 46.61
-1 -2 3 1802.43 46.49
-1 -2 2 5100.73 127.4
-1 -2 2 4725.79 128.22
-1 -2 2 5007.73 126.75
1 2 -2 5115.31 127.03
1 2 -2 4911.72 126.41
-1 -2 1 1362.03 40.96
1 2 -1 1594.1 39.68
1 2 0 6.61 0.49
-1 -2 0 4.75 0.94
-1 -2 0 4.4 0.79
1 2 1 324.54 10.01
-1 -2 -1 311.67 10.17
-1 -2 -1 329.88 11.32
1 2 1 321.6 9.48
-1 -2 -1 293.18 12.46
1 2 1 324.07 8.44
1 2 2 440.64 12.17
-1 -2 -2 360.16 15.79
-1 -2 -2 398.87 12.5
-1 -2 -2 445.84 14.4
1 2 2 411.14 11.69
1 2 2 389.51 11.48
1 2 3 730.32 19.92
1 2 3 728.79 19.45
1 2 3 679.7 18.83
-1 -2 -3 776.31 22.95
-1 -2 -3 668.86 25.19
1 2 4 529.42 14.42
-1 -2 -4 509.76 22.2
1 2 4 552.33 16.06
1 2 4 513.03 14.61
1 2 5 490.49 13.72
1 2 5 463.5 14.63
1 2 5 453.53 12.87
1 2 5 488.37 12.6
1 2 5 435.74 12.14
1 2 5 447.66 12.29
-1 -2 -5 399.92 20.76
-1 -2 -6 22.8 4.59
1 2 6 22.26 2.26
1 2 6 24.72 1.61
1 2 6 24.71 1.22
1 2 6 25.74 1.21
1 2 7 28.7 2.7
1 2 7 31.75 1.44
1 2 7 32.75 1.7
1 2 7 32.4 1.39
-1 -2 -7 26.17 4.8
1 2 7 31.09 1.83
1 2 8 259.59 7.16
1 2 8 244.76 7.58
1 2 8 250.78 7.43
1 2 9 23.63 1.16
1 2 9 25.27 1.08
1 2 10 0.16 0.1
-1 -3 12 12.14 0.85
-1 -3 12 13.05 0.66
-1 -3 11 117 3.91
-1 -3 11 117.18 3.69
-1 -3 11 107.64 3.84
-1 -3 11 111.99 3.63
-1 -3 10 75.26 2.79
-1 -3 10 78.43 3.02
-1 -3 10 78.21 3
-1 -3 10 78.66 2.81
-1 -3 10 81.38 2.87
-1 -3 9 83.26 3.02
-1 -3 9 87.58 3.19
-1 -3 9 75.44 5.12
-1 -3 9 84.92 3.12
-1 -3 9 87.18 2.99
-1 -3 9 81.75 3
-1 -3 9 86.38 3.16
-1 -3 8 8.65 0.71
-1 -3 8 7.12 0.69
-1 -3 8 8.9 1.52
-1 -3 8 8.05 0.68
-1 -3 8 9.78 0.68
-1 -3 8 7.55 0.63
-1 -3 8 10.62 0.78
-1 -3 8 6.88 0.68
-1 -3 7 112.18 3.4
-1 -3 7 91.73 4.96
-1 -3 7 102.98 3.23
-1 -3 7 96.23 3.13
-1 -3 7 94.46 3.13
-1 -3 7 90.3 3.14
-1 -3 7 104.27 3.3
-1 -3 7 96.48 6.3
-1 -3 6 59.86 4.58
-1 -3 6 66.06 3.68
-1 -3 6 73.18 4.8
-1 -3 5 60.5 3.25
-1 -3 5 61.17 5.15
1 3 -5 59.5 2.94
-1 -3 5 61.62 3.92
1 3 -4 1117.17 30.33
1 3 -3 89.04 3.84
1 3 -3 76.83 2.95
-1 -3 3 83.69 4.11
1 3 -3 75.5 4.17
-1 -3 2 35.55 2.48
-1 -3 2 34.88 2.85
1 3 -2 31.89 2.17
1 3 -2 34.63 2.6
-1 -3 2 36.31 2.47
1 3 -1 207.71 6.94
-1 -3 1 203.58 7.93
1 3 -1 179.88 5.98
-1 -3 1 186.8 8.27
1 3 -1 179.11 7.29
1 3 0 10.6 0.74
-1 -3 0 8.07 1.33
-1 -3 0 7.05 1.69
-1 -3 0 10.32 1.64
-1 -3 -1 182.99 7.43
-1 -3 -1 207.09 8.8
1 3 1 183.11 6.45
1 3 1 191.62 6.96
1 3 1 180.82 5.14
1 3 2 20.77 1.55
1 3 2 20.54 1.74
1 3 2 21.24 1.43
-1 -3 -2 18.77 2.53
-1 -3 -2 16.52 1.87
1 3 3 176.9 5.69
-1 -3 -3 177.63 11.39
1 3 3 184.37 6.9
1 3 3 178.5 5.95
1 3 3 181.36 5.41
1 3 4 236.67 8.62
1 3 4 239.44 6.85
1 3 4 217.32 7.1
-1 -3 -4 221.29 13.86
1 3 5 209.74 6.32
1 3 5 210.16 8.5
1 3 5 220.76 6.16
1 3 5 216.39 6.56
-1 -3 -6 49.98 6.53
1 3 6 59.79 2.15
1 3 6 53.44 2.63
1 3 6 58.93 2.22
1 3 6 58.59 2.44
1 3 6 51.13 3.62
1 3 7 24.33 1.16
1 3 7 25.39 1.4
1 3 7 23.08 1.52
1 3 7 24.79 1.18
1 3 8 1.41 0.25
1 3 9 11.59 0.56
1 3 9 11.41 0.64
-1 -4 12 0.65 0.21
-1 -4 12 0.43 0.25
-1 -4 11 13.04 1.06
-1 -4 11 14.46 0.93
-1 -4 11 13.32 0.98
-1 -4 10 15.6 1.22
-1 -4 10 18.68 1.18
-1 -4 10 16.54 1.02
-1 -4 9 50.09 2.11
-1 -4 9 43.87 2.19
-1 -4 9 48.41 2.02
-1 -4 9 49.68 2.11
-1 -4 9 50.53 2.31
-1 -4 9 47.51 1.94
-1 -4 8 0.34 0.22
-1 -4 8 0.44 0.23
-1 -4 8 0.84 0.32
-1 -4 8 0.25 0.24
-1 -4 8 0.53 0.3
-1 -4 8 0.48 0.26
-1 -4 7 1.31 0.34
1 4 -7 1.8 0.92
-1 -4 7 2.74 1.15
-1 -4 7 1.15 0.26
-1 -4 7 1.03 0.3
-1 -4 7 1.21 0.27
-1 -4 6 3.99 0.47
-1 -4 6 4.48 1.61
-1 -4 6 2.23 0.98
-1 -4 6 3.22 0.36
-1 -4 6 3.08 0.45
1 4 -6 2.17 0.95
-1 -4 6 3.22 0.41
-1 -4 5 56.75 4.06
1 4 -5 51.58 3.99
1 4 -5 54.52 3.24
-1 -4 5 55.43 5.6
-1 -4 4 3273.34 92.56
1 4 -4 3382.24 86.04
1 4 -4 3167.67 87.16
-1 -4 3 151.88 5.93
-1 -4 3 172.99 7.1
1 4 -3 166.37 6.49
1 4 -2 112.29 5.77
1 4 -2 128.13 5.44
-1 -4 2 124.14 6.53
-1 -4 2 126.08 6
-1 -4 2 127.3 6.01
1 4 -1 459.83 15.64
1 4 -1 491.66 13.8
-1 -4 1 510.75 16.9
-1 -4 1 536.91 20.44
-1 -4 1 470.77 17.25
1 4 -1 472.03 14.94
-1 -4 0 695.83 25.62
1 4 0 775.27 22.46
1 4 0 787.66 20.71
-1 -4 0 769.69 27.93
-1 -4 0 764.12 24.21
1 4 1 352.74 11.81
1 4 1 379.63 12.41
-1 -4 -1 370.6 16.47
-1 -4 -1 359.75 13.46
1 4 2 644.09 18.32
-1 -4 -2 814.81 25
1 4 2 661 17.91
-1 -4 -2 619.08 25.38
1 4 2 683.67 19.59
1 4 2 829.28 20.86
-1 -4 -3 18.53 3.02
1 4 3 19.09 1.11
1 4 3 17.36 1.27
1 4 3 18.82 1.94
-1 -4 -3 21.18 3.89
1 4 4 2.38 0.59
-1 -4 -4 2.19 1.54
1 4 4 1.65 0.63
1 4 4 2.28 0.43
-1 -4 -5 18.37 3.86
1 4 5 21.17 1.19
1 4 5 18.48 1.45
1 4 5 21.52 1.06
1 4 5 20.22 2.15
1 4 5 21.28 1.28
1 4 6 95.97 3.06
1 4 6 97.47 3.19
1 4 6 91.43 3.34
1 4 7 5.89 0.48
1 4 7 6.07 0.47
1 4 7 5.74 0.59
1 4 8 0.69 0.21
1 4 8 0.78 0.16
-1 -5 12 2.06 0.32
-1 -5 12 1.06 0.29
-1 -5 12 1.41 0.35
-1 -5 11 5.3 0.6
-1 -5 11 5.04 0.74
-1 -5 10 2.1 0.32
-1 -5 10 0.88 0.41
-1 -5 10 1.87 0.41
-1 -5 10 1.53 0.48
-1 -5 10 1.73 0.35
-1 -5 10 1.97 0.44
-1 -5 9 14.27 0.98
-1 -5 9 14.05 1.23
-1 -5 9 13.84 1.22
-1 -5 9 16.49 1.1
-1 -5 9 15.06 1.02
-1 -5 9 14.76 0.98
-1 -5 8 9.28 0.84
-1 -5 8 8.21 0.95
-1 -5 8 11.8 0.89
-1 -5 8 9.89 0.77
-1 -5 8 8.39 2.05
1 5 -7 153.52 8.66
-1 -5 7 187.07 9.72
-1 -5 7 176.22 5.22
-1 -5 7 171.26 5.67
-1 -5 7 170.84 9.84
-1 -5 7 175.61 5.32
-1 -5 7 172.74 5.79
-1 -5 6 237.38 7.3
-1 -5 6 218.56 8.45
-1 -5 6 238.36 7.26
-1 -5 6 247.5 6.84
1 5 -6 218.34 10.48
-1 -5 6 231.03 6.75
-1 -5 6 238.58 13.09
1 5 -5 8.18 1.71
-1 -5 5 8.47 1.3
-1 -5 5 10.76 0.92
-1 -5 5 13.38 2.11
-1 -5 5 10.5 0.93
-1 -5 5 9.47 2.67
1 5 -5 10.17 1.52
-1 -5 4 5.98 0.71
1 5 -4 5.79 1.21
-1 -5 4 5.2 0.67
-1 -5 4 4.57 0.97
1 5 -4 4.42 1.29
-1 -5 4 4.37 0.74
-1 -5 3 5.69 2.18
-1 -5 3 5.64 1.09
1 5 -3 3.92 0.84
-1 -5 3 5.31 1.35
1 5 -3 4.06 1.15
1 5 -3 5.71 1.16
1 5 -2 1.12 0.57
-1 -5 2 1.01 0.67
1 5 -2 1.15 0.69
-1 -5 2 2.81 1.58
1 5 -2 1.69 0.53
-1 -5 2 1.54 0.79
1 5 -1 10.34 1.65
1 5 -1 11.64 1.04
-1 -5 1 9.75 1.29
-1 -5 1 9.86 1.93
-1 -5 1 10.55 1.29
-1 -5 1 14.31 2.45
-1 -5 1 10.64 2.83
1 5 0 325.98 11.16
-1 -5 0 332.7 13.04
-1 -5 0 300.69 10.22
1 5 0 315.2 9.03
-1 -5 0 294.08 10.34
-1 -5 0 298 14.13
-1 -5 0 331.17 16.28
-1 -5 -1 62.95 3.51
1 5 1 67.56 2.8
-1 -5 -1 73.97 6.65
-1 -5 -1 61.82 6.19
1 5 1 79.68 4.48
1 5 1 66.44 3.92
1 5 2 111.37 3.62
-1 -5 -2 113.96 4.97
-1 -5 -2 105.17 4.79
1 5 2 108.52 4.08
1 5 2 106.03 4.97
1 5 3 19.16 2.01
1 5 3 16.83 1.32
-1 -5 -3 13.72 3.18
1 5 3 17.53 1.08
-1 -5 -3 16.17 1.66
1 5 4 16.82 1.07
-1 -5 -4 16.35 3.47
1 5 4 15.8 0.86
1 5 4 14.26 1.23
1 5 4 14.95 1.81
1 5 4 14.23 0.99
1 5 5 28.28 1.45
1 5 5 30.06 1.25
1 5 5 28.64 1.72
1 5 6 0.75 0.22
1 5 6 1.05 0.3
1 5 6 0.67 0.18
1 5 7 14.05 0.77
1 5 7 14.23 0.65
-1 -6 12 3.07 0.47
-1 -6 12 5.25 0.44
-1 -6 11 12.78 0.72
-1 -6 11 10.89 1.11
-1 -6 10 2.57 0.66
-1 -6 10 3.67 0.4
-1 -6 10 2.71 0.47
-1 -6 10 2.3 0.58
-1 -6 10 2.52 0.43
-1 -6 9 122.94 3.87
-1 -6 9 124.55 4.04
-1 -6 9 120.07 4.03
-1 -6 8 5.71 0.89
-1 -6 8 6.14 0.62
-1 -6 8 5.81 0.66
-1 -6 8 4.84 0.81
-1 -6 8 5.85 0.72
-1 -6 7 74.03 5.98
-1 -6 7 56.37 2.93
-1 -6 7 65.29 3.89
-1 -6 7 62.68 2.42
-1 -6 7 59.87 2.97
-1 -6 7 60.56 6.01
-1 -6 7 69.35 2.52
-1 -6 6 47.96 4.61
1 6 -6 45.6 3.58
1 6 -6 38.47 3.9
-1 -6 6 39.77 1.82
-1 -6 6 45.92 3.29
-1 -6 6 39.65 2.33
-1 -6 6 49 5.91
-1 -6 6 49.31 1.89
1 6 -5 37.7 3.27
-1 -6 5 32.02 2.08
-1 -6 5 36.68 2.87
-1 -6 5 34.79 2.11
-1 -6 5 35.9 2.34
-1 -6 5 38.25 5.43
-1 -6 5 39.02 4.07
1 6 -5 28.56 3.29
1 6 -4 33.36 2.68
-1 -6 4 29.87 2
-1 -6 4 35.21 2.38
-1 -6 4 27.54 1.93
1 6 -4 39.91 3.31
1 6 -4 28.38 3.18
-1 -6 4 32.02 2.12
-1 -6 3 48.92 4.35
1 6 -3 39.85 3.64
-1 -6 3 45 2.82
1 6 -3 41.86 2.76
-1 -6 3 35.58 2.32
-1 -6 3 39.07 2.48
-1 -6 3 44.31 3.49
-1 -6 3 48.53 6.12
1 6 -3 45.19 3.56
-1 -6 3 39.16 2.42
-1 -6 3 37.96 2.9
-1 -6 2 169.22 6.74
1 6 -2 181.79 7.99
-1 -6 2 160.48 6.33
-1 -6 2 201.51 9.75
-1 -6 2 182.28 12.33
1 6 -2 171.17 8.16
1 6 -2 182.81 6.35
-1 -6 2 202.23 9.27
-1 -6 2 171.52 6.67
-1 -6 2 167.74 7.15
-1 -6 2 161.07 6.32
-1 -6 1 45.06 2.81
-1 -6 1 47.04 3
1 6 -1 46.2 3.63
-1 -6 1 47.29 4.66
-1 -6 1 50.34 6.09
-1 -6 1 41.78 3.11
1 6 -1 43.55 3.43
-1 -6 0 49.79 5.18
1 6 0 46.83 3.5
-1 -6 0 46.86 3.05
1 6 0 50.31 2.29
-1 -6 0 48.99 5.81
-1 -6 0 43.55 2.83
-1 -6 0 47.88 3.33
-1 -6 -1 8.89 1.3
-1 -6 -1 9.37 1.34
-1 -6 -1 10.69 2.63
1 6 1 10.42 1.61
1 6 1 10.95 1.01
1 6 1 8.33 1.37
-1 -6 -2 7.74 1.22
-1 -6 -2 6.86 2.18
-1 -6 -2 8.22 1.23
1 6 2 7.01 0.84
1 6 2 7.09 1.24
1 6 3 21.43 1.18
-1 -6 -3 20.84 1.84
1 6 3 23.19 1.25
1 6 3 20.86 2.11
-1 -6 -4 2.26 0.63
1 6 4 1.49 0.34
1 6 4 1.93 0.35
1 6 5 20.29 1.03
1 6 6 19.76 0.82
1 6 6 18.58 0.86
-1 -7 12 2.24 0.25
-1 -7 11 3.27 0.41
-1 -7 11 2.85 0.33
-1 -7 11 2.13 0.56
-1 -7 10 5.24 0.56
-1 -7 10 3.79 0.73
-1 -7 10 3.15 0.74
-1 -7 10 5.96 0.58
-1 -7 9 4.04 0.58
-1 -7 9 2.48 0.7
-1 -7 9 3.68 0.46
-1 -7 9 3.98 0.53
-1 -7 8 45.71 2.81
-1 -7 8 53.63 2.15
-1 -7 8 47 2.93
1 7 -8 43.57 3.85
-1 -7 7 18.46 1.13
1 7 -7 15.14 2.17
-1 -7 7 15.18 3.04
-1 -7 7 16.87 1.63
-1 -7 6 6.95 1.9
1 7 -6 4.61 1.14
-1 -7 6 4.94 0.99
-1 -7 6 6.33 0.97
-1 -7 6 5.42 2.02
-1 -7 6 10.05 1.68
-1 -7 6 4.8 0.98
-1 -7 6 6.57 0.67
-1 -7 6 8.01 0.65
1 7 -6 6.12 1.41
1 7 -6 3.8 1.27
-1 -7 5 78.25 3.76
-1 -7 5 67.96 7.28
-1 -7 5 76.89 6.19
1 7 -5 72.89 4.93
-1 -7 5 80.26 4.63
-1 -7 5 56.01 3.32
1 7 -5 62.66 4.88
-1 -7 5 58.29 3.43
1 7 -5 58.7 3.91
-1 -7 4 77.82 3.63
-1 -7 4 69.24 3.84
1 7 -4 76.02 5.31
-1 -7 4 84.57 4.1
-1 -7 4 62.48 3.58
-1 -7 4 77.97 8
-1 -7 4 85.64 4.86
1 7 -4 73.65 4.07
1 7 -4 81.37 5.25
-1 -7 3 4.48 2.03
-1 -7 3 2.9 0.85
-1 -7 3 5.18 1.33
1 7 -3 4.2 1.17
-1 -7 3 4.48 1.5
-1 -7 3 4.6 0.93
1 7 -3 3.87 1.17
-1 -7 3 4.11 0.99
-1 -7 2 320.54 17.69
1 7 -2 324.64 12.69
-1 -7 2 325.29 10.95
-1 -7 2 341.85 11.54
-1 -7 2 354.52 12.35
-1 -7 2 338.43 11.26
-1 -7 2 346.67 11.46
-1 -7 2 357.48 13.92
-1 -7 2 357.9 15.21
1 7 -2 322.91 12.76
-1 -7 1 17.69 2.78
-1 -7 1 16.49 1.71
-1 -7 1 19.34 3.04
-1 -7 1 13.04 1.6
-1 -7 1 12.32 1.48
1 7 -1 14.88 2.03
-1 -7 1 15.05 1.92
1 7 -1 13.74 1.96
-1 -7 1 16.27 3.47
-1 -7 0 142.43 5.99
-1 -7 0 144.33 6.14
1 7 0 138.28 6.79
-1 -7 0 153.78 8.99
1 7 0 156.42 7.15
-1 -7 0 155.99 6.79
-1 -7 0 148.64 9.12
1 7 1 116.41 3.75
-1 -7 -1 116.87 5.14
-1 -7 -1 117.94 5.14
1 7 1 106.88 5.41
-1 -7 -1 118.28 8.17
-1 -7 -2 5.79 1
1 7 2 5.32 0.55
-1 -7 -2 4.41 0.86
1 7 3 0.52 0.23
-1 -7 -3 0.9 0.48
1 7 4 2.22 0.31
1 7 4 2.1 0.28
1 7 5 16.89 0.71
-1 -8 11 13.15 0.64
-1 -8 11 11.62 0.58
-1 -8 10 2.12 0.36
-1 -8 10 1.45 0.47
-1 -8 10 2.16 0.33
-1 -8 9 0.69 0.57
-1 -8 9 0.51 0.47
-1 -8 9 0.81 0.23
-1 -8 9 0.76 0.25
-1 -8 8 2.05 0.35
-1 -8 8 1.49 0.66
-1 -8 8 1.32 0.64
-1 -8 8 2.39 0.36
-1 -8 7 20.9 1.88
-1 -8 7 21.22 1.98
-1 -8 7 25.02 1.28
-1 -8 6 0.48 0.54
-1 -8 6 0.89 1.11
1 8 -6 0.86 0.64
-1 -8 6 1.38 0.35
-1 -8 6 0.85 0.61
-1 -8 6 1.51 0.55
-1 -8 5 45.25 2.71
-1 -8 5 36.97 2.69
-1 -8 5 38.23 5.27
1 8 -5 35.46 3.36
-1 -8 5 33.07 2.61
-1 -8 4 84.91 3.79
-1 -8 4 91.9 4.31
1 8 -4 73.93 5
-1 -8 4 77.32 4.13
-1 -8 4 78.35 7.62
-1 -8 4 76.19 4.24
-1 -8 4 96.24 5.24
-1 -8 3 2.23 1.13
-1 -8 3 2.13 0.79
-1 -8 3 2.34 0.69
-1 -8 3 2.27 0.82
-1 -8 3 2.52 0.86
-1 -8 3 1.32 1.23
1 8 -3 2.07 0.81
-1 -8 2 20.21 1.92
-1 -8 2 20.42 1.9
-1 -8 2 20.16 1.78
1 8 -2 19.56 2.28
-1 -8 2 23.83 2.44
-1 -8 2 22.48 3.9
-1 -8 1 26.21 2.04
-1 -8 1 27.15 2.19
1 8 -1 25.42 1.2
-1 -8 0 7.5 1.12
1 8 0 8.06 0.62
-1 -8 0 8.96 1.19
-1 -8 -1 14.16 1.36
1 8 1 12.38 0.74
-1 -8 -1 11.38 1.22
-1 -8 -2 1.23 0.47
1 8 2 1.07 0.24
1 8 3 5.72 0.4
-1 -8 -3 5.14 0.6
1 8 4 17.78 0.66
-1 -9 10 -0.02 0.21
-1 -9 10 0.05 0.15
-1 -9 10 -0.04 0.32
-1 -9 9 6.82 0.86
-1 -9 9 7.85 0.6
-1 -9 9 7.45 0.98
-1 -9 8 7.04 0.63
-1 -9 8 6.45 0.48
-1 -9 7 15.78 1.62
-1 -9 7 17.25 1.63
-1 -9 7 22.53 1.06
-1 -9 7 23.68 1.26
-1 -9 6 17.86 0.97
-1 -9 6 12.89 1.46
-1 -9 6 15.62 1.29
-1 -9 6 11.34 1.47
-1 -9 5 6.47 0.94
-1 -9 5 4.95 1.04
-1 -9 5 6.63 1.12
-1 -9 5 7.84 0.66
-1 -9 4 40.07 2.44
-1 -9 4 38.63 2.53
-1 -9 4 38.51 2.1
-1 -9 3 9.83 1.06
-1 -9 3 10.86 1.26
-1 -9 2 62.64 3.03
-1 -9 2 69.58 3.32
-1 -9 1 73.81 3.27
-1 -9 1 63.29 3.02
-1 -9 0 9.59 0.95
-1 -9 0 8.43 0.92
1 9 0 8.06 0.47
1 9 1 7.64 0.42
-1 -9 -1 8.09 0.78
-1 -9 -1 8.37 0.71
-1 -9 -2 1.58 0.28
1 9 2 1.16 0.14
-1 -10 9 6.05 0.37
-1 -10 8 0.19 0.15
-1 -10 7 6.86 0.51
-1 -10 6 7.52 0.68
-1 -10 6 9.23 0.6
-1 -10 6 9.18 0.52
-1 -10 5 1.43 0.39
-1 -10 5 1.59 0.25
-1 -10 5 1.32 0.25
-1 -10 4 8.65 0.54
-1 -10 4 6.01 0.58
-1 -10 3 2.89 0.53
-1 -10 3 2.39 0.42
-1 -10 2 0.32 0.26
-1 -10 2 0.12 0.26
-1 -10 1 3.79 0.47
-1 -10 0 0.12 0.12
2 -11 1 0.55 0.19
2 -11 1 0.82 0.16
2 -11 2 2.78 0.36
2 -11 2 3.28 0.37
2 -11 3 46.5 1.73
2 -11 3 54.07 1.6
2 -11 4 5.8 0.55
2 -11 4 6.44 0.47
2 -11 5 25.66 1.05
2 -11 6 0.44 0.15
2 -11 6 0.44 0.17
-2 10 2 18.28 0.69
2 -10 -2 16.21 0.93
2 -10 -1 10.34 0.86
2 -10 0 12.95 0.85
2 -10 0 14.14 1.11
2 -10 1 5.08 0.76
2 -10 1 4.75 0.62
2 -10 2 9.56 0.94
2 -10 2 8.55 0.87
2 -10 2 8.76 1.04
2 -10 3 49.18 2.34
2 -10 3 50.33 2.63
2 -10 3 47.51 2.26
2 -10 4 15.91 1.09
2 -10 4 17.59 1.28
2 -10 5 13.13 1.06
2 -10 5 16.04 0.96
2 -10 6 1 0.3
2 -10 6 0.84 0.35
2 -10 6 0.59 0.23
2 -10 7 1.34 0.32
2 -10 7 1.15 0.26
2 -10 7 1.62 0.31
2 -10 7 1.3 0.29
2 -10 8 5.96 0.42
2 -10 8 8.14 0.54
2 -10 9 5.44 0.37
-2 9 4 42.79 1.38
-2 9 4 43.29 1.32
-2 9 3 1.14 0.19
2 -9 -3 1.56 0.4
2 -9 -2 35.58 2.01
2 -9 -1 6.8 0.89
2 -9 -1 6.24 0.91
2 -9 0 0.06 0.47
2 -9 0 0.92 0.44
2 -9 1 96.81 4.36
2 -9 2 0.46 0.51
2 -9 2 0.41 0.57
2 -9 3 24.43 1.74
2 -9 3 22.81 1.94
2 -9 4 1.44 0.48
2 -9 4 1.35 0.54
2 -9 4 2.2 0.47
2 -9 5 24.53 1.34
2 -9 5 22.54 1.61
2 -9 5 24.6 1.41
2 -9 6 36.08 1.96
2 -9 6 38.51 1.81
2 -9 6 39.3 1.79
2 -9 6 32.45 2.59
2 -9 7 18.09 1.81
2 -9 7 21.67 1.29
2 -9 7 28.04 1.4
2 -9 7 27 1.36
2 -9 8 0.8 0.26
2 -9 8 0.75 0.32
2 -9 9 35.99 1.51
2 -9 10 4.23 0.32
2 -9 10 3.7 0.34
-2 8 6 31.72 1.01
-2 8 5 6.07 0.42
-2 8 4 79.74 2.54
2 -8 -4 78.3 3.17
-2 8 3 17.78 0.94
2 -8 -3 20.78 1.59
-2 8 2 28.61 1.3
2 -8 -2 32.59 2.06
2 -8 -2 29.27 2.1
2 -8 -1 0.88 0.56
2 -8 -1 0.62 0.41
2 -8 -1 0.72 0.52
2 -8 0 102.7 7.17
2 -8 0 99.03 4.44
2 -8 0 99.39 4.47
2 -8 0 83.42 6.69
-2 8 0 83.56 4.07
2 -8 1 510.61 14.77
-2 8 -1 470.11 14.5
2 -8 1 468 19.33
2 -8 2 35.04 3.91
-2 8 -2 38.7 2.72
-2 8 -2 30.87 3.42
2 -8 2 40.73 2.71
2 -8 2 44.18 2.58
2 -8 2 46.51 5.14
2 -8 3 59.01 2.96
-2 8 -3 48.22 4.34
2 -8 3 54.21 3.71
-2 8 -3 53.02 3.46
2 -8 3 57.06 5.76
2 -8 3 54.99 4.73
2 -8 4 2.75 0.61
2 -8 4 3.38 0.79
-2 8 -4 3.38 1.21
2 -8 4 2.77 0.91
2 -8 4 3.29 1.42
2 -8 4 2.85 0.5
-2 8 -4 3.61 0.93
-2 8 -5 6.57 1.33
2 -8 5 6.49 1.19
2 -8 5 7.51 1.1
2 -8 5 5.98 1.27
2 -8 5 7.45 0.78
2 -8 5 8.08 0.81
2 -8 5 6.03 1.82
2 -8 6 20.26 1.92
2 -8 6 19.53 1.44
2 -8 6 19.66 2.88
2 -8 6 20.05 2.07
2 -8 6 20.4 1.34
-2 8 -6 17.8 2.23
2 -8 6 22.2 1.33
2 -8 7 43.92 2.71
2 -8 7 44.42 2.08
2 -8 7 41.35 2.97
2 -8 7 51.4 2.23
2 -8 7 48.62 2.13
2 -8 8 0.28 0.5
2 -8 8 0.39 0.28
2 -8 8 0.84 0.35
2 -8 8 0.87 0.39
2 -8 9 -0.03 0.27
2 -8 9 0.37 0.39
2 -8 9 0.67 0.19
2 -8 10 2.37 0.28
2 -8 10 2 0.31
-2 7 7 11.54 0.53
-2 7 6 76.19 2.41
-2 7 6 77.8 2.45
-2 7 5 1.75 0.33
-2 7 4 8.04 0.66
2 -7 -4 7.51 1
-2 7 3 15.66 0.95
2 -7 -3 15.27 1.5
2 -7 -3 15.2 2.84
-2 7 3 10.14 1.65
2 -7 -2 0.28 0.56
2 -7 -2 0.06 0.38
2 -7 -2 0.07 0.46
-2 7 2 0.18 0.21
-2 7 2 -0.06 0.23
2 -7 -2 0.49 0.68
-2 7 1 62.82 3.3
2 -7 -1 64.07 3.39
2 -7 -1 57.1 5.43
-2 7 1 56.36 4.28
2 -7 -1 61.63 3.38
2 -7 -1 62.26 5.45
-2 7 0 97.54 4.56
2 -7 0 109.48 4.67
2 -7 0 106.74 4.71
-2 7 0 86.8 5.74
2 -7 0 113.43 7.85
2 -7 0 98.16 7.46
2 -7 1 141.72 5.63
-2 7 -1 142.87 6
2 -7 1 134.83 8.68
2 -7 1 151.5 5.95
2 -7 2 57.11 2.96
2 -7 2 57.1 3.5
-2 7 -2 48.92 4.28
2 -7 2 60.07 3.25
-2 7 -2 59.3 3.83
2 -7 2 55.96 5.58
2 -7 2 51.74 3.53
-2 7 -2 58.37 3.54
2 -7 3 25.7 1.78
-2 7 -3 22.06 2.89
2 -7 3 24.62 3.7
2 -7 3 23.84 2.9
2 -7 3 25.43 2.24
2 -7 3 26.23 1.41
2 -7 4 4.05 0.98
2 -7 4 4.14 0.68
2 -7 4 4.25 0.86
2 -7 4 3.52 1.02
-2 7 -4 3.6 1.3
-2 7 -4 4.29 1.09
2 -7 4 5.19 0.64
2 -7 4 7.65 2.04
2 -7 5 80.57 4.17
-2 7 -5 80.75 5.66
2 -7 5 74.14 6.07
2 -7 5 82.23 3.11
2 -7 5 84.42 3.19
2 -7 5 71.6 4.14
-2 7 -5 81.05 5.12
2 -7 5 85.68 3.78
-2 7 -6 10.39 1.83
2 -7 6 10.96 1.41
2 -7 6 10.84 0.92
2 -7 6 11.72 1.01
2 -7 6 9.14 1.42
2 -7 6 9.5 0.99
2 -7 6 8.52 1.85
2 -7 7 94.47 4.4
2 -7 7 105.18 3.7
2 -7 7 109.86 3.58
2 -7 7 82.99 4.56
2 -7 7 100.59 3.76
-2 7 -7 86.83 5.74
2 -7 7 106.88 3.23
2 -7 8 0.77 0.16
2 -7 8 0.81 0.58
2 -7 8 -0.03 0.28
2 -7 8 0.11 0.25
2 -7 8 0.07 0.35
2 -7 8 -0.03 0.28
2 -7 9 3.85 0.36
2 -7 9 3.82 0.51
2 -7 10 49.77 1.97
2 -7 10 51.09 1.97
2 -7 11 6.47 0.46
2 -7 11 6.6 0.45
-2 6 8 43.15 1.39
-2 6 7 3.02 0.31
-2 6 7 3.03 0.37
-2 6 6 187.26 5.5
2 -6 -5 70.02 5.41
-2 6 5 78.37 2.96
-2 6 5 75.24 4.6
2 -6 -5 73.51 6.44
-2 6 5 86.12 2.9
-2 6 4 2.76 0.44
2 -6 -4 2.7 1.46
2 -6 -4 2.18 1.03
-2 6 4 2.14 0.77
2 -6 -4 2.94 1.41
-2 6 4 2.23 0.43
2 -6 -4 2.07 0.64
2 -6 -3 90.24 4.11
2 -6 -3 76.69 5.28
2 -6 -3 71.66 6.92
-2 6 3 91.7 3.16
-2 6 3 74.59 3.77
-2 6 3 89.02 3.01
2 -6 -3 79.05 6.86
-2 6 2 0.13 0.18
2 -6 -2 0.07 0.47
-2 6 2 0.3 0.25
-2 6 2 0.37 0.51
2 -6 -2 0.81 0.93
2 -6 -2 -0.24 0.75
-2 6 2 0.64 0.37
2 -6 -2 0.12 0.48
2 -6 -1 158.16 5.91
2 -6 -1 152.35 5.84
2 -6 -1 162.71 9.22
2 -6 -1 160.97 9.08
-2 6 1 159.02 5.97
-2 6 0 4.39 1.2
2 -6 0 4.52 0.82
2 -6 0 2.65 1.29
2 -6 0 9.12 1.14
2 -6 0 5.68 1.74
-2 6 0 4.92 0.87
2 -6 0 4.89 1.48
2 -6 1 1.35 0.94
2 -6 1 1.02 0.44
-2 6 -1 0.64 0.47
2 -6 1 0.9 0.58
-2 6 -1 1.42 0.56
2 -6 1 1.71 0.66
-2 6 -1 0.88 0.62
2 -6 1 1.09 0.97
2 -6 1 0.67 0.42
-2 6 -2 105.08 5.08
2 -6 2 98.05 4.01
2 -6 2 99 7.13
2 -6 2 99.54 4.27
2 -6 2 100.72 4.61
-2 6 -2 116.36 5.22
-2 6 -2 92.01 5.92
2 -6 2 106.22 6.47
2 -6 3 180.77 7.08
2 -6 3 181.46 5.61
2 -6 3 184.85 6.51
2 -6 3 180.48 6.89
2 -6 3 185.27 6.13
-2 6 -3 210.54 8.05
2 -6 3 205.57 8.55
-2 6 -3 181.74 8.93
2 -6 4 -0.11 0.27
2 -6 4 0.07 0.42
2 -6 4 0.14 0.44
-2 6 -4 0.24 0.5
2 -6 4 0.21 0.35
2 -6 4 -0.6 0.62
2 -6 4 0.52 0.3
-2 6 -4 -0.16 0.5
2 -6 5 104.69 3.06
2 -6 5 89.71 3.46
2 -6 5 77.65 4.03
-2 6 -5 105.33 5.86
2 -6 5 92.72 6.27
2 -6 5 94.54 3.34
2 -6 5 84.2 4.25
2 -6 5 91.73 3.4
2 -6 6 15.62 2.26
2 -6 6 17.56 1.2
2 -6 6 17.42 1.25
2 -6 6 15.8 1.57
2 -6 6 18.48 1.11
2 -6 6 17.22 1.13
2 -6 6 15.51 1.62
2 -6 6 17.2 0.94
-2 6 -6 12.6 2.07
2 -6 7 133.13 4.49
-2 6 -7 134.61 7.5
2 -6 7 128.2 4.77
2 -6 7 137.97 4.2
2 -6 7 147.41 4.6
2 -6 7 132.97 4.6
2 -6 7 143.27 4.52
2 -6 8 74.32 3.23
2 -6 8 81.85 3.06
2 -6 8 78.78 2.71
-2 6 -8 74.35 5.33
2 -6 8 82.55 3.04
2 -6 9 19.32 1.23
2 -6 9 17.86 1.19
2 -6 9 15.35 1.27
2 -6 9 18.91 1.02
2 -6 10 48.67 2.34
2 -6 10 55.82 1.93
2 -6 10 51.91 2.16
2 -6 10 56.3 2.13
2 -6 11 5.57 0.44
2 -6 11 7.6 0.58
-2 5 9 0.19 0.09
-2 5 8 26.08 1.01
-2 5 8 29.93 1.2
-2 5 7 14.96 1.04
-2 5 7 15.09 0.85
-2 5 6 0.42 0.27
-2 5 6 0.53 0.31
-2 5 6 0.95 0.55
2 -5 -6 -0.2 0.63
-2 5 5 34.27 1.59
-2 5 5 34.04 1.72
2 -5 -5 29.12 3.6
2 -5 -5 32.77 4.68
2 -5 -5 35.38 4.59
-2 5 5 30.44 2.81
2 -5 -4 2.03 1.29
-2 5 4 1.65 0.35
-2 5 4 1.5 0.38
-2 5 4 1.51 0.47
-2 5 4 2.59 0.84
2 -5 -4 0.27 0.65
-2 5 3 38.3 1.58
-2 5 3 35.26 1.65
2 -5 -3 32.6 2.18
2 -5 -3 36.89 4.36
-2 5 3 35.35 2.25
-2 5 3 29.7 2.66
2 -5 -3 29.81 4.19
2 -5 -2 0.23 0.66
-2 5 2 1.04 0.24
2 -5 -2 1.28 0.51
-2 5 2 1.13 0.29
-2 5 2 0.97 0.38
-2 5 2 1.26 0.64
2 -5 -2 1.69 1.07
2 -5 -1 9.66 1.94
2 -5 -1 10.24 2.06
-2 5 1 11.33 1.19
2 -5 0 36.03 3.47
2 -5 0 33.04 2.04
-2 5 0 42.07 2.72
2 -5 0 31.89 3.48
2 -5 0 36.92 3.82
2 -5 1 47.87 4.35
2 -5 1 42.87 3.91
-2 5 -1 50.22 2.97
-2 5 -1 50.34 2.93
-2 5 -2 21.39 1.84
2 -5 2 22.58 2.45
-2 5 -2 25.73 2.16
2 -5 2 17.8 2.7
2 -5 3 746.19 21.68
2 -5 3 691.57 24.03
-2 5 -3 741.68 21.94
2 -5 4 29.03 3.11
2 -5 4 31.64 2.37
2 -5 4 26.81 1.39
-2 5 -4 31.48 2.78
2 -5 4 30.38 1.39
2 -5 5 308.73 8.43
2 -5 5 307.42 8.79
2 -5 5 310.24 11.68
2 -5 5 301.7 8.46
2 -5 5 297.38 8.58
-2 5 -5 303.08 11.59
-2 5 -6 357.24 14.2
2 -5 6 399.81 11.05
2 -5 6 395.09 10.88
2 -5 6 398.76 10.74
2 -5 6 391.69 10.73
2 -5 6 382.48 10.47
2 -5 7 15.79 0.97
2 -5 7 14.65 0.8
2 -5 7 16.72 1.26
2 -5 7 16.14 1.05
2 -5 7 16.8 1.12
-2 5 -7 13.76 2.27
2 -5 7 15.82 1.11
2 -5 8 3.98 0.6
2 -5 8 4.12 0.69
2 -5 8 3.79 0.51
2 -5 8 2.7 0.35
2 -5 8 3.3 0.58
2 -5 8 4.06 0.62
2 -5 9 6.61 0.86
2 -5 9 6.76 0.7
2 -5 9 5.63 0.58
2 -5 9 5.9 0.51
2 -5 9 6.34 0.75
2 -5 10 60.25 2.28
2 -5 10 58.59 2.64
2 -5 10 61.82 2.22
2 -5 10 64.2 2.46
2 -5 11 9.99 0.92
2 -5 11 10.17 0.76
-2 4 9 23.61 0.99
-2 4 8 30.27 1.25
-2 4 8 30.78 1.24
-2 4 8 33.55 1.42
-2 4 7 34.97 1.52
-2 4 7 33.57 1.41
-2 4 7 35.86 1.61
-2 4 7 36.98 1.8
-2 4 6 136.82 6.9
2 -4 -6 163.31 9.34
-2 4 6 150.39 4.55
-2 4 6 166.26 5.11
2 -4 -6 147.55 10.31
-2 4 5 43.46 1.96
-2 4 5 35.18 2.95
2 -4 -5 45.66 5.14
-2 4 5 41.56 1.76
2 -4 -5 34.1 4.55
-2 4 4 37.92 2.32
-2 4 4 42.46 1.83
-2 4 4 35.2 2.82
2 -4 -4 42.07 4.67
-2 4 4 39.08 1.65
2 -4 -4 35.15 4.26
-2 4 3 17.17 1.41
2 -4 -3 14.83 2.61
2 -4 -3 15.14 2.6
-2 4 2 771.59 20.48
2 -4 -2 696.54 23.83
2 -4 -2 678.27 22.53
2 -4 -2 771.89 24.89
2 -4 -1 518.55 17.17
2 -4 -1 527.64 17.65
2 -4 0 281.71 10.52
2 -4 0 259.29 10.41
-2 4 0 278.21 8.95
2 -4 0 249.8 10.72
2 -4 0 277.31 8.41
2 -4 0 234.01 10.41
-2 4 0 307.78 8.94
2 -4 1 602.02 20.36
-2 4 -1 669.17 18.53
-2 4 -1 634.13 18.08
2 -4 1 625.12 19.98
2 -4 1 638.9 20.22
2 -4 2 12.88 1.59
-2 4 -2 15.79 1.6
-2 4 -2 17.14 1.38
2 -4 2 14.61 0.86
2 -4 3 750.75 20.15
-2 4 -3 759.4 22.25
2 -4 3 752.72 21.03
2 -4 3 780.23 23.34
2 -4 4 404.3 12.04
-2 4 -4 390.46 13.76
2 -4 4 435.89 13.99
2 -4 4 418.56 11.89
2 -4 5 443.56 11.74
2 -4 5 434.9 14.04
2 -4 5 444.25 11.99
2 -4 5 421.13 11.86
2 -4 5 460.31 12.18
2 -4 5 423.32 11.84
2 -4 5 466.02 12.99
2 -4 6 414.58 11.35
2 -4 6 404.25 11.04
2 -4 6 378.85 10.89
2 -4 6 411.35 10.98
2 -4 6 384.19 10.52
2 -4 6 394.28 12.24
2 -4 6 412.51 10.83
2 -4 7 221.73 6.45
2 -4 7 214.01 7
2 -4 7 225.44 6.67
2 -4 7 213.08 8.06
2 -4 7 230.38 6.71
2 -4 7 215.81 6.19
2 -4 7 227.85 6.73
2 -4 8 424.94 11.95
2 -4 8 417.78 11.4
2 -4 8 421.44 12.34
2 -4 8 443.54 11.99
2 -4 8 416.23 11.84
2 -4 9 84.04 2.85
2 -4 9 86.65 3.57
2 -4 9 87.72 3.31
2 -4 9 88.43 3.14
2 -4 9 90.34 3.29
2 -4 10 20.72 1.42
2 -4 10 21.92 1.26
2 -4 10 19.65 1.08
2 -4 10 22.97 1.03
2 -4 11 0.74 0.34
-2 3 10 15.43 0.68
-2 3 9 35.46 1.44
-2 3 9 36.71 1.46
2 -3 -8 31.98 4.02
-2 3 8 35.95 1.75
-2 3 8 29.77 2.83
-2 3 8 34.47 1.46
-2 3 8 33.48 1.49
-2 3 8 30.41 1.34
-2 3 7 522.49 17.78
-2 3 7 575.27 14.67
2 -3 -7 538.15 20.95
-2 3 7 538.89 14.6
-2 3 7 534.68 14.72
-2 3 6 170 5.1
2 -3 -6 164.77 10.23
-2 3 6 164.92 7.3
2 -3 -5 111.74 7.43
-2 3 5 121.88 3.99
-2 3 5 111.81 5.44
-2 3 4 58.8 2.86
-2 3 4 60.49 3.41
2 -3 -4 64.51 5.39
2 -3 -4 62.71 4.75
-2 3 3 241.35 7.77
2 -3 -3 260.05 11.2
2 -3 -3 255.13 8.9
2 -3 -3 247.78 10
2 -3 -2 5.44 1.12
2 -3 -2 6.05 1.12
2 -3 -2 6.38 1.41
2 -3 -2 5.05 1
2 -3 -1 75.15 3.95
-2 3 1 86.66 3.25
2 -3 -1 74.35 4.12
2 -3 -1 75.59 4.37
2 -3 -1 68.72 3.9
2 -3 -1 77.36 3.47
-2 3 0 1077.77 28.04
2 -3 0 1008.1 29.02
2 -3 0 1099.44 29.43
2 -3 0 1026.89 29.65
2 -3 0 1046.21 27.57
2 -3 0 1002.89 29.07
2 -3 1 291.68 10.11
2 -3 1 308.34 8.3
2 -3 1 291.57 10.28
-2 3 -1 305.82 9
2 -3 1 315.22 10.75
2 -3 1 319.63 8.35
-2 3 -1 308.75 9.67
2 -3 2 463.12 13.96
-2 3 -2 486.47 13.33
2 -3 2 500.39 13.14
-2 3 -2 495.87 14.67
2 -3 3 628.96 15.94
2 -3 3 612.3 17.46
2 -3 3 583.63 18
2 -3 4 693.5 20.19
2 -3 4 703.38 20.44
2 -3 4 722.9 19.46
2 -3 5 434.2 13.61
2 -3 5 441.33 11.55
2 -3 5 399.32 11.23
2 -3 6 33.88 1.32
2 -3 6 34.47 1.56
2 -3 6 38.73 1.67
2 -3 6 32.84 2.8
2 -3 6 36.02 1.75
2 -3 6 34.48 1.58
2 -3 6 35.14 1.48
2 -3 7 0.2 0.23
2 -3 7 0.14 0.28
2 -3 7 0.18 0.26
2 -3 7 0.64 0.3
2 -3 7 0.51 0.54
2 -3 7 0.16 0.3
2 -3 7 0.23 0.17
2 -3 7 1.15 0.37
2 -3 8 145.07 7.46
2 -3 8 150.65 4.86
2 -3 8 136.08 6.25
2 -3 8 143.13 4.86
2 -3 8 144.88 5.12
2 -3 8 153.26 4.46
2 -3 8 137.53 4.64
2 -3 8 153.95 4.66
2 -3 9 28.61 1.62
2 -3 9 30.73 1.35
2 -3 9 30.27 1.46
2 -3 9 26.12 1.38
2 -3 10 2.04 0.44
2 -3 10 1.43 0.28
2 -3 11 14.53 0.96
2 -3 11 16.14 0.73
-2 2 11 6.12 0.39
-2 2 10 28.29 1.26
-2 2 10 28.4 1.17
-2 2 9 53.46 1.92
-2 2 9 51.17 2.01
-2 2 9 47.03 1.84
-2 2 8 187.28 5.87
2 -2 -8 168.07 10
-2 2 8 167.35 7.96
-2 2 8 194.82 5.64
-2 2 8 193.86 5.5
-2 2 8 182.78 5.53
-2 2 7 8.7 0.67
-2 2 7 9.32 0.81
-2 2 7 8.94 0.63
-2 2 7 8.77 0.7
-2 2 7 8.62 1.45
2 -2 -7 7.14 1.88
2 -2 -6 0.74 0.77
-2 2 6 1.92 0.29
-2 2 6 0.35 0.25
-2 2 6 0.56 0.22
-2 2 6 0.46 0.41
-2 2 5 48.35 2.91
2 -2 -5 39.38 4.05
2 -2 -5 47.2 3.76
2 -2 -4 1653.35 44.18
-2 2 4 1599.46 41.58
-2 2 4 1621.19 42.78
2 -2 -4 1556.37 46.07
2 -2 -3 492.85 14.61
2 -2 -3 501.78 15.15
2 -2 -3 475.54 16.42
-2 2 3 507.28 13.9
2 -2 -2 10.72 1.13
2 -2 -2 10.11 1.02
-2 2 2 9.45 0.82
2 -2 -2 9.21 1.32
2 -2 -2 8.58 0.99
2 -2 -1 1821.04 46.88
2 -2 -1 1760.59 47.61
2 -2 -1 1717.57 46.82
2 -2 -1 1907.91 47.55
2 -2 -1 1809.42 46.86
2 -2 0 252.09 7.91
2 -2 0 273.23 7.53
-2 2 0 263.62 7.72
2 -2 0 256.09 7.65
2 -2 0 255.13 6.97
2 -2 1 926.7 24.04
2 -2 1 887.67 24.51
2 -2 1 922.13 23.63
-2 2 -1 884 24.43
2 -2 2 1001.39 27.58
2 -2 2 1021.04 26.76
-2 2 -2 973.23 27.61
2 -2 3 58.19 2.76
2 -2 3 60.41 3.07
2 -2 4 1151.14 30.48
2 -2 4 1201.43 30.13
2 -2 5 44.01 2.78
2 -2 5 44.38 2.49
2 -2 6 16.6 1.67
2 -2 6 16.16 0.97
2 -2 6 17.23 0.86
2 -2 6 14.4 1.73
2 -2 6 20.32 1.2
2 -2 6 16.77 1.02
2 -2 6 17.76 0.95
2 -2 7 11.37 0.8
2 -2 7 12.98 1.81
2 -2 7 12.11 0.93
2 -2 7 11.71 0.86
2 -2 7 9.23 1.34
2 -2 7 12.81 1.02
2 -2 7 12.9 0.77
2 -2 8 12.47 1.92
2 -2 8 12.65 1.09
2 -2 8 12.76 1.05
2 -2 8 14.53 0.88
2 -2 8 11.16 0.87
2 -2 8 11.58 1.56
2 -2 8 14.03 1.03
2 -2 8 16.02 0.98
2 -2 9 4.96 0.71
2 -2 9 6.37 0.63
2 -2 9 6.16 0.66
2 -2 9 5.26 0.53
2 -2 10 11.74 0.95
2 -2 10 12.41 0.74
2 -2 11 2.1 0.38
2 -2 11 0.45 0.15
-2 1 11 28.57 1.26
-2 1 11 29.89 1.17
-2 1 10 2.09 0.39
-2 1 10 2.21 0.34
-2 1 9 157.95 4.68
-2 1 9 160.33 4.85
2 -1 -9 143.24 8.73
-2 1 9 145.9 4.51
-2 1 9 152.37 7.31
-2 1 8 65.45 2.56
2 -1 -8 56.28 5.17
-2 1 8 64.71 4.23
-2 1 8 62.55 2.3
-2 1 8 66.77 2.31
-2 1 7 130.33 3.83
-2 1 7 131.62 3.93
-2 1 7 125.85 4.18
-2 1 7 134.51 6.01
2 -1 -7 115.66 7.32
-2 1 7 127.92 3.9
-2 1 6 65.58 3.58
2 -1 -6 62.24 4.2
2 -1 -6 60.74 4.58
-2 1 5 236.47 8.21
2 -1 -5 237.32 9.71
-2 1 4 371.53 10.14
-2 1 4 377.59 10.9
2 -1 -4 376.86 12.31
-2 1 3 18.75 1.06
2 -1 -3 15.68 1.03
-2 1 3 18.69 1.13
-2 1 3 17.79 1.17
2 -1 -3 17.14 1.57
2 -1 -3 18.73 1.65
2 -1 -2 352.93 10.14
2 -1 -2 356.96 10.36
-2 1 2 354.73 9.36
2 -1 -1 901.54 24.48
-2 1 1 963.77 24.32
-2 1 0 1320.6 33.36
2 -1 0 1262.09 33.56
2 -1 1 1445.81 37.08
-2 1 -1 1431.52 37.23
2 -1 2 3453.66 84.34
-2 1 -2 3377.05 84.09
2 -1 2 3302.78 84.18
2 -1 2 3249.13 84.4
-2 1 -2 3092.08 84.43
2 -1 3 728.01 20.46
2 -1 3 762.44 20.68
2 -1 3 789.36 20.51
2 -1 4 36.52 2.13
2 -1 4 31.87 1.77
2 -1 4 35.87 2.1
2 -1 5 19.75 0.93
2 -1 5 20.3 1.77
2 -1 5 22 1.09
2 -1 5 19.67 1.06
2 -1 5 20.24 0.91
2 -1 5 22.08 1.73
-2 1 -5 23.4 2.12
2 -1 6 249.41 8.96
2 -1 6 231.39 6.91
2 -1 6 215.76 6.65
2 -1 6 237.43 7.01
2 -1 6 231.93 6.92
2 -1 6 227.81 6.84
2 -1 6 251.97 6.58
2 -1 6 227.66 8.29
2 -1 6 236.16 6.81
2 -1 6 230.67 6.59
2 -1 7 79.14 2.87
2 -1 7 84.22 2.69
2 -1 7 70.82 4.05
2 -1 7 77.34 2.9
-2 1 -7 80.26 8.55
2 -1 7 76.53 3.05
2 -1 7 69.78 2.67
2 -1 7 82.65 4.72
2 -1 7 74.8 2.93
2 -1 7 77.15 3.01
2 -1 7 75.84 2.7
2 -1 8 4.81 0.58
2 -1 8 5.2 0.69
2 -1 8 4.62 1.15
2 -1 8 4.62 0.53
2 -1 8 4.11 0.92
2 -1 8 6.79 0.68
2 -1 9 3.3 0.58
2 -1 9 16.78 1.01
2 -1 10 15.79 0.99
2 -1 11 0.7 0.13
-2 0 12 14.83 0.77
-2 0 11 57.92 2.04
-2 0 11 54.6 1.97
-2 0 10 1.24 0.36
-2 0 10 0.65 0.26
-2 0 9 4.04 0.54
-2 0 9 4.52 1.12
-2 0 9 3.87 0.48
2 0 -9 4.76 1.44
-2 0 8 111.62 3.62
-2 0 8 111.46 5.72
-2 0 8 117.18 3.77
-2 0 8 113.25 3.7
2 0 -8 112.95 6.99
-2 0 7 100.58 3.31
-2 0 7 98.85 3.11
-2 0 7 103.65 5.04
-2 0 7 105.1 3.33
2 0 -7 98.83 6.05
-2 0 7 103.87 3.21
2 0 -6 445.33 15.86
-2 0 6 459.39 14.33
-2 0 5 136.9 4.65
-2 0 5 150.35 5.34
2 0 -4 7.3 0.62
2 0 -4 6.93 1.07
-2 0 4 7.69 0.72
2 0 -3 326.88 9.65
-2 0 3 319.79 8.77
-2 0 3 287.5 10.25
-2 0 3 278.96 8.96
2 0 -3 314.79 8.47
-2 0 3 306.01 8.64
-2 0 2 680.41 19.33
-2 0 2 670.07 17.83
-2 0 1 2820.87 73.21
-2 0 1 2858.5 72.21
-2 0 0 2095.9 56.17
-2 0 0 2230.15 55.54
-2 0 0 2178.01 56.16
2 0 1 250.33 6.9
-2 0 -1 253.27 8.06
-2 0 -1 252.67 7.31
-2 0 -1 242.13 7.02
-2 0 -1 263.73 6.61
2 0 1 238.52 7.14
2 0 2 699.79 19.57
2 0 2 741.89 19
-2 0 -2 716.8 19.1
2 0 2 710.77 18.98
-2 0 -2 699.73 20.1
-2 0 -3 104.18 4.62
2 0 3 112.76 3.65
2 0 3 117.05 4.07
2 0 3 98.97 4.12
-2 0 -4 4.88 0.92
2 0 4 4.83 0.75
2 0 4 3.71 0.69
2 0 5 55.82 2.11
2 0 5 58.62 1.99
-2 0 -5 63.47 6.63
2 0 5 61.38 2.42
2 0 5 63.73 3.4
2 0 5 58.48 2.21
2 0 5 54.73 2.21
2 0 5 61.41 2.36
2 0 5 61.61 3.24
2 0 5 63.35 2.22
-2 0 -6 19.62 4.18
2 0 6 26.34 1.56
2 0 6 25.29 1.18
2 0 6 24.81 1.27
2 0 6 27.98 2.41
2 0 6 24.78 1.37
2 0 6 31.14 1.56
2 0 6 28.33 1.5
2 0 6 24.09 2.05
2 0 6 28.12 1.35
2 0 7 167.13 4.88
2 0 7 159.59 5.42
2 0 7 159.42 7.17
2 0 7 149.17 5.1
2 0 7 160.08 4.95
2 0 7 167.52 6.73
-2 0 -7 141.93 11.95
2 0 7 166.87 5.23
2 0 7 160.76 4.8
2 0 8 39.09 1.97
2 0 8 37.9 1.86
2 0 8 38.18 2.73
2 0 8 45.63 1.74
2 0 8 39.47 1.84
2 0 8 39.82 1.69
2 0 9 16.38 0.92
2 0 9 15.99 1
2 0 9 17.48 0.97
2 0 10 4.62 0.38
-2 -1 12 0.44 0.22
-2 -1 11 39.92 1.69
-2 -1 11 42.2 1.85
-2 -1 11 42.57 1.75
-2 -1 10 32.63 1.5
-2 -1 10 30.46 2.98
-2 -1 10 29.56 1.54
-2 -1 10 31.58 1.52
-2 -1 10 27.19 1.25
-2 -1 9 18.84 1.08
-2 -1 9 16.19 2.07
-2 -1 9 17.66 1.11
-2 -1 9 15.62 0.91
-2 -1 8 25.61 2.47
-2 -1 8 32.31 1.42
-2 -1 8 28.44 1.28
-2 -1 8 29.82 1.43
2 1 -8 28.96 3.02
2 1 -7 310.66 11.72
-2 -1 7 328.74 8.67
-2 -1 7 325.4 8.6
-2 -1 7 325.88 10.74
-2 -1 7 290.2 8.46
2 1 -6 72.35 4.17
-2 -1 6 75.03 3.63
2 1 -5 203.31 7.2
-2 -1 5 200.86 6.39
-2 -1 4 1103.5 28.66
-2 -1 4 1091.61 30.46
-2 -1 4 1045.15 28.21
2 1 -4 1056.71 29.02
2 1 -3 657.69 18.27
-2 -1 3 659.13 17.6
2 1 -3 649.05 17.88
-2 -1 3 651.53 19
-2 -1 3 644.08 19.17
-2 -1 3 703.38 18.2
-2 -1 2 5353.1 130.76
-2 -1 2 5041.16 130.08
2 1 -2 5092.05 130.62
2 1 -2 5087.26 130.79
-2 -1 2 5229.87 131.4
-2 -1 1 1212.88 31.86
2 1 -1 1185.27 31.43
-2 -1 0 5038.81 127.62
-2 -1 0 4896.38 128.13
-2 -1 0 4962.43 127.45
2 1 0 5141.57 128.2
-2 -1 -1 255.03 8.79
-2 -1 -1 272.56 8.2
2 1 1 277.84 7.61
2 1 1 272.89 8.42
2 1 1 264.93 8.03
-2 -1 -2 7.04 0.83
-2 -1 -2 7.06 1.01
2 1 2 6.99 0.7
2 1 2 6.07 0.66
2 1 2 5.81 0.79
2 1 3 1.15 0.38
-2 -1 -3 0.46 0.37
2 1 3 1.51 0.45
2 1 3 2.19 0.37
2 1 4 12 0.92
2 1 4 14.4 1.4
2 1 4 18.45 1.07
2 1 4 13.15 1.34
-2 -1 -4 11.97 2.87
2 1 5 10.1 0.91
2 1 5 9.03 0.64
2 1 5 9.1 1.28
-2 -1 -5 9.35 2.93
2 1 5 9.91 1.23
2 1 6 43.89 2.79
2 1 6 39.03 1.91
2 1 6 42.67 3.08
-2 -1 -6 33.24 5.57
2 1 6 38.71 2.07
2 1 6 36.65 1.6
2 1 7 13.84 0.91
2 1 7 14.84 1.22
2 1 7 11.47 1.65
-2 -1 -7 10.79 3.3
2 1 7 14.07 1.07
2 1 8 62.33 2.45
2 1 8 59.51 2.57
2 1 8 62.83 2.26
2 1 9 14.24 0.77
2 1 9 13.32 0.79
2 1 10 2.03 0.21
-2 -2 13 5.16 0.38
-2 -2 12 6.29 0.57
-2 -2 12 5 0.47
-2 -2 11 9.47 0.65
-2 -2 11 10.85 0.84
-2 -2 11 10.57 0.84
-2 -2 11 10.91 0.79
-2 -2 10 31.41 1.58
-2 -2 10 29.65 1.49
-2 -2 10 29.79 1.55
-2 -2 10 30.89 1.49
-2 -2 10 28.69 1.37
-2 -2 9 8.15 1.51
-2 -2 9 8.23 0.74
-2 -2 9 9.17 0.78
-2 -2 9 7.33 0.67
-2 -2 9 7.93 0.66
-2 -2 8 32.7 1.47
-2 -2 8 35.66 1.53
-2 -2 8 31.53 2.75
-2 -2 8 33.42 1.52
2 2 -7 30.27 2.52
-2 -2 7 30.49 1.29
-2 -2 7 24.55 2.18
-2 -2 7 30.84 1.3
-2 -2 7 25.94 1.22
-2 -2 6 60.46 4.66
-2 -2 6 63.1 3.33
2 2 -6 63.76 3.48
-2 -2 5 532.67 15.08
2 2 -5 512.29 14.78
2 2 -5 523.02 15.32
-2 -2 4 191.45 7.53
-2 -2 4 174.38 5.95
-2 -2 4 172.05 6.55
2 2 -4 177.33 6.12
2 2 -4 182.93 6.09
-2 -2 4 180.53 7.39
2 2 -3 448.93 12.96
2 2 -3 447.72 13.09
-2 -2 3 464.61 14.15
-2 -2 2 980.61 27.41
-2 -2 2 1082.71 28.16
2 2 -2 1064.55 27.28
2 2 -2 1009.71 27.05
-2 -2 2 1072.53 28.79
-2 -2 1 22.5 1.88
-2 -2 1 24.57 2.15
-2 -2 1 18.72 2.22
-2 -2 0 221.59 7.78
-2 -2 0 237.44 10.19
2 2 0 215.88 7.4
-2 -2 0 264.12 8.75
2 2 0 250.84 8.47
2 2 1 74.22 3.56
-2 -2 -1 67.25 3.77
2 2 1 68.04 3.08
-2 -2 -2 62.21 3.69
2 2 2 62.8 2.83
2 2 2 64.1 3.03
-2 -2 -2 54.29 5.49
2 2 2 59.38 3.04
2 2 3 127.06 4.84
2 2 3 114.1 3.9
-2 -2 -3 110.2 8.57
2 2 3 114.92 3.77
2 2 3 122.41 4.83
-2 -2 -3 112.96 5.62
2 2 4 247.38 8.66
-2 -2 -4 226.23 14.3
2 2 4 237.84 7.24
2 2 5 233.46 7.08
2 2 5 226.83 7.33
2 2 5 242.86 8.82
2 2 5 235.51 6.69
2 2 5 246.33 8.33
2 2 6 5.44 0.52
2 2 6 5.19 0.52
2 2 6 4.1 0.96
-2 -2 -6 3.98 2.15
2 2 6 4.92 0.75
2 2 7 20.14 1.41
2 2 7 20.14 1.08
2 2 8 19.74 1.11
2 2 8 18.31 1.17
2 2 8 20.37 0.99
2 2 9 18.47 0.85
2 2 9 19.03 0.81
-2 -3 13 4.16 0.36
-2 -3 12 0.09 0.23
-2 -3 12 0.4 0.24
-2 -3 12 0.53 0.14
-2 -3 11 117.76 3.78
-2 -3 11 123.49 4.14
-2 -3 11 120.89 3.99
-2 -3 10 33.41 1.57
-2 -3 10 28.86 3.07
-2 -3 10 33.76 1.64
-2 -3 10 33.96 1.73
-2 -3 10 32.91 1.61
-2 -3 10 33.96 1.73
-2 -3 9 170.45 5.23
-2 -3 9 161.96 5
-2 -3 9 156.04 4.96
-2 -3 9 161.4 5.16
-2 -3 9 160.07 4.98
-2 -3 8 8.81 0.7
-2 -3 8 9.73 0.81
-2 -3 8 7.84 0.66
-2 -3 8 7.51 0.62
-2 -3 7 48.44 2.55
-2 -3 7 59.36 2.2
-2 -3 7 62.41 5.22
-2 -3 7 56.53 3.64
-2 -3 7 60.38 2.14
-2 -3 6 203.79 9.53
-2 -3 6 200.5 5.83
-2 -3 6 195.39 7.7
-2 -3 6 207.12 5.79
2 3 -5 596.03 17.84
2 3 -5 680.02 18.36
-2 -3 4 2193.83 55.27
2 3 -4 2149.63 53.39
-2 -3 4 1943.3 55.5
2 3 -4 1880.59 52.47
-2 -3 3 0.1 0.47
-2 -3 3 0.13 0.51
2 3 -3 0.1 0.48
2 3 -3 0.19 0.36
-2 -3 3 0.08 0.2
2 3 -2 0.45 0.4
2 3 -2 0.5 0.53
-2 -3 2 0.42 0.53
-2 -3 2 0.18 0.42
-2 -3 2 1.07 0.69
2 3 -1 100.97 4.45
2 3 -1 102.99 3.49
-2 -3 1 116.77 5.36
-2 -3 1 107.61 5.6
2 3 0 20.51 1.71
-2 -3 0 19.05 2.15
-2 -3 0 18.9 2.85
2 3 0 19.07 1.97
2 3 1 71.39 3.82
2 3 1 73.13 3.5
-2 -3 -1 62.9 4.23
-2 -3 -2 4.72 1.15
-2 -3 -2 8.39 2.41
2 3 2 5.8 0.64
2 3 2 6.01 0.9
2 3 2 5.48 0.85
2 3 2 6.33 1.01
2 3 2 5.05 0.53
2 3 2 5.58 0.87
2 3 3 0.21 0.21
2 3 3 0.18 0.28
2 3 3 -0.07 0.26
-2 -3 -3 -0.34 0.96
2 3 3 0.3 0.26
2 3 4 99.84 4.8
2 3 4 100 3.51
2 3 4 97 3.79
-2 -3 -4 90.52 8.81
2 3 5 118.56 3.8
2 3 5 111.11 3.95
2 3 5 103.69 5.23
2 3 5 117.88 3.68
-2 -3 -5 104.29 9.9
2 3 6 158.93 4.66
2 3 6 153.6 4.97
2 3 6 143.39 5.23
-2 -3 -6 143.17 11.27
2 3 6 153.37 4.63
2 3 7 189.94 5.23
2 3 7 176.92 5.45
2 3 7 170.13 5.69
2 3 7 179.66 5.07
2 3 8 0.38 0.16
-2 -4 12 17.06 0.96
-2 -4 12 19.18 0.91
-2 -4 12 15.52 1.07
-2 -4 11 10.61 0.94
-2 -4 11 13.64 0.91
-2 -4 11 13.38 1.06
-2 -4 11 13.76 0.9
-2 -4 10 6.32 0.65
-2 -4 10 7.09 0.66
-2 -4 10 6.31 0.77
-2 -4 10 5.71 0.73
-2 -4 9 147.56 4.84
-2 -4 9 141.04 4.38
-2 -4 9 130.95 4.26
-2 -4 8 54.9 5.43
2 4 -8 58.6 5.13
-2 -4 8 56.4 2.35
-2 -4 8 53.32 2.13
-2 -4 8 58.02 2.34
-2 -4 7 160.03 4.91
-2 -4 7 178.15 9.62
-2 -4 7 151.19 9.83
-2 -4 7 163.11 5
2 4 -7 150.62 8.42
-2 -4 7 160.25 4.79
-2 -4 6 456.26 15.62
2 4 -6 390.94 12.17
-2 -4 6 333.4 10.72
2 4 -6 370.27 14.35
-2 -4 6 402.21 10.22
-2 -4 6 396.03 10.15
-2 -4 6 274.36 10.38
-2 -4 6 359.17 17.4
-2 -4 5 731.97 19.1
2 4 -5 668.73 23.07
-2 -4 5 701.06 19.02
-2 -4 4 1331.76 36.21
2 4 -4 1258.73 34.21
-2 -4 3 68.08 4.53
2 4 -3 66.74 3.77
-2 -4 3 69.09 5.08
2 4 -3 56.37 4.27
-2 -4 3 63.97 3.52
-2 -4 2 231.26 9.2
2 4 -2 184.91 8.56
2 4 -2 224.36 7.97
-2 -4 2 215.81 9.79
-2 -4 2 192.92 8.84
2 4 -2 186 6.59
-2 -4 1 107.56 6.05
-2 -4 1 102.43 6.26
-2 -4 1 99.13 6.65
-2 -4 0 30.62 3.21
2 4 0 31.51 2.44
2 4 0 31.04 2.75
-2 -4 0 26.96 3.68
-2 -4 -1 103.32 6.29
2 4 1 98.98 3.71
-2 -4 -1 102.68 8.11
2 4 1 122.48 5.55
2 4 1 115.57 5.1
-2 -4 -1 123.54 8.94
2 4 2 107.18 3.54
2 4 2 103.47 3.87
2 4 2 104.27 4.78
2 4 2 109.02 4.82
-2 -4 -2 103.81 4.74
2 4 3 289.12 8.09
2 4 3 269.74 9.66
2 4 3 275.51 8.52
2 4 4 4.46 0.57
2 4 4 4.65 0.72
-2 -4 -4 3.77 1.84
2 4 5 17.98 1.15
2 4 5 18.17 1.37
2 4 5 19.38 1.01
2 4 5 19 1.08
-2 -4 -5 15.96 3.55
2 4 6 25.46 1.14
2 4 6 24.31 1.3
2 4 6 27.06 1.18
2 4 7 1.84 0.21
2 4 7 2.26 0.34
2 4 8 10.01 0.49
-2 -5 12 23.26 1.41
-2 -5 12 30.32 1.22
-2 -5 11 32.91 1.81
-2 -5 11 26.13 1.6
-2 -5 10 12.45 1.14
-2 -5 10 12.48 0.81
-2 -5 10 12.04 0.91
-2 -5 9 0.58 0.39
-2 -5 9 0.72 0.4
-2 -5 9 0.11 0.25
-2 -5 9 0.5 0.3
-2 -5 8 19.86 1.42
-2 -5 8 19.33 1.18
-2 -5 8 18.15 3.21
-2 -5 8 20.65 1.43
2 5 -8 17.73 2.9
-2 -5 7 4.76 0.92
-2 -5 7 3.25 1.71
-2 -5 7 3.68 1.45
-2 -5 7 4.85 0.67
2 5 -7 5.02 1.58
-2 -5 7 5.02 1.08
-2 -5 7 5.54 0.59
-2 -5 6 424.09 11.76
-2 -5 6 474.32 17.3
2 5 -6 455.95 14.3
-2 -5 6 406.02 11.61
-2 -5 6 357.64 12.9
-2 -5 6 418.42 20.48
2 5 -6 374.29 15.82
2 5 -5 1.21 0.84
-2 -5 5 2.23 1.65
-2 -5 5 5.58 0.85
-2 -5 5 3.82 0.6
-2 -5 5 2.59 0.7
-2 -5 5 3.91 0.58
-2 -5 5 2.62 0.79
2 5 -5 3.43 0.97
-2 -5 4 0.17 0.64
-2 -5 4 0.22 0.27
-2 -5 4 0.35 0.44
2 5 -4 0.99 0.58
-2 -5 4 0.94 0.35
2 5 -4 0.65 0.69
-2 -5 4 0.45 0.39
-2 -5 3 202.15 7.43
-2 -5 3 235.54 7.43
2 5 -3 278.75 9.9
-2 -5 3 245.03 8.43
2 5 -3 238.19 10.5
-2 -5 3 221.82 8.08
-2 -5 3 276.7 12.1
-2 -5 3 256.24 9.36
2 5 -3 233.72 8.21
-2 -5 3 282.19 15.44
-2 -5 3 301.11 11.65
-2 -5 2 49.13 4.2
2 5 -2 49.06 3.43
-2 -5 2 36.64 2.14
-2 -5 2 43.33 2.74
-2 -5 2 36.53 2.49
-2 -5 2 47.75 4.47
-2 -5 2 48.63 4.14
-2 -5 2 51.28 6.25
-2 -5 2 32.29 2
2 5 -2 37.82 3.52
-2 -5 1 55.36 3.29
-2 -5 1 62 3.47
2 5 -1 68.15 4.14
2 5 -1 60.34 4.29
-2 -5 1 63.04 5.41
-2 -5 1 60.61 5.1
-2 -5 1 63.98 7.01
-2 -5 1 75.44 5.35
-2 -5 0 125.78 7.23
-2 -5 0 106.25 9.1
-2 -5 0 101.52 4.81
2 5 0 102.42 3.73
2 5 0 109.34 5.41
2 5 0 110.47 5.7
-2 -5 0 113.14 7.08
-2 -5 0 93.82 4.65
-2 -5 0 93.03 7.45
-2 -5 -1 42.96 4.17
-2 -5 -1 39.53 2.76
2 5 1 37.36 1.98
2 5 1 38.59 2.73
2 5 1 49.17 3.39
-2 -5 -1 36.91 4.9
2 5 1 35.87 2.83
2 5 2 21.14 1.18
2 5 2 22.68 1.5
-2 -5 -2 21.37 1.99
2 5 2 20.14 1.93
-2 -5 -2 20.29 3.77
-2 -5 -3 41.47 2.74
2 5 3 42.81 1.86
2 5 3 41.71 2.19
2 5 4 1.82 0.3
2 5 4 0.8 0.41
2 5 4 0.95 0.32
2 5 5 66.4 2.27
2 5 5 59.51 2.31
2 5 5 60.51 2.62
2 5 5 67.69 2.15
2 5 6 -0.07 0.15
2 5 6 0.18 0.19
2 5 6 -0.06 0.11
2 5 7 21.33 0.81
-2 -6 12 0.19 0.28
-2 -6 12 0.36 0.2
-2 -6 11 4.68 0.7
-2 -6 11 7.53 0.62
-2 -6 10 1.13 0.48
-2 -6 10 1.24 0.5
-2 -6 10 0.84 0.27
-2 -6 10 0.49 0.31
-2 -6 9 18.89 1.55
-2 -6 9 22.82 1.64
-2 -6 9 20.82 1.26
-2 -6 9 22.4 1.29
-2 -6 8 141.09 5.51
-2 -6 8 164.26 4.97
-2 -6 7 235.86 12.22
-2 -6 7 182.99 6.8
2 6 -7 183.95 10.2
-2 -6 7 234.93 6.29
-2 -6 7 190.35 6.84
-2 -6 7 204.15 13.06
-2 -6 7 196.14 8.19
-2 -6 6 211.56 7.17
2 6 -6 210.72 10.58
-2 -6 6 278.5 12.69
-2 -6 6 231.31 7.63
-2 -6 6 212.91 7.19
-2 -6 6 225.42 6.31
-2 -6 6 217.79 8.64
2 6 -6 240.88 9.6
-2 -6 6 241.25 15
-2 -6 6 159.47 7.18
-2 -6 5 20.5 4.33
2 6 -5 14.35 1.8
-2 -6 5 16.09 1.38
-2 -6 5 15.77 1.42
-2 -6 5 18.73 1.78
2 6 -5 17.69 2.25
2 6 -5 16.56 2.58
-2 -6 5 16.83 1.97
-2 -6 5 12.66 1.42
-2 -6 4 12.2 3.5
-2 -6 4 11.88 2.35
-2 -6 4 11.02 1.55
-2 -6 4 8.4 1.05
-2 -6 4 11.42 1.44
2 6 -4 9.07 1.64
-2 -6 4 9.3 1.13
2 6 -4 8.07 1.22
-2 -6 4 6.85 1.04
2 6 -4 6.93 1.68
-2 -6 3 6.2 2.6
-2 -6 3 9.73 2.06
-2 -6 3 6.92 1.02
2 6 -3 11.01 1.78
2 6 -3 6.85 1.6
-2 -6 3 7.29 1.31
-2 -6 2 46.49 2.8
-2 -6 2 49.04 3.22
-2 -6 2 45.89 3.23
-2 -6 2 49.31 4.28
-2 -6 2 52.35 4.77
-2 -6 2 44.76 6.29
-2 -6 1 32.01 2.52
-2 -6 1 32.91 3.81
2 6 -1 29.61 2.81
2 6 -1 28.22 2.88
-2 -6 1 28.38 2.48
-2 -6 1 29.08 3.68
-2 -6 1 25.24 4.62
2 6 0 51.62 3.71
-2 -6 0 54.62 5.01
-2 -6 0 50.91 3.31
2 6 0 61.2 4.06
-2 -6 0 54.55 5.56
-2 -6 0 58.24 3.64
-2 -6 -1 3.88 0.98
2 6 1 5.49 0.73
-2 -6 -1 5.53 1.87
-2 -6 -1 5.9 1.12
-2 -6 -2 0.74 0.53
-2 -6 -2 0.22 0.45
2 6 2 0.73 0.38
-2 -6 -2 0.56 0.79
-2 -6 -3 25.71 1.92
2 6 3 23.66 1.19
2 6 3 26.65 1.29
2 6 3 23.99 1.49
2 6 4 17.92 0.81
2 6 4 18.33 0.94
2 6 5 26.84 1.08
2 6 5 25.37 0.93
-2 -7 12 3.64 0.3
-2 -7 12 2.45 0.41
-2 -7 11 1.35 0.41
-2 -7 11 1.68 0.24
-2 -7 11 1.47 0.29
-2 -7 10 2.22 0.6
-2 -7 10 3.06 0.42
-2 -7 10 1.86 0.62
-2 -7 10 2.88 0.42
-2 -7 9 0.09 0.28
-2 -7 9 0.06 0.43
-2 -7 9 -0.02 0.26
-2 -7 9 -0.06 0.47
-2 -7 8 8.39 1.12
-2 -7 8 8.21 1.17
-2 -7 7 4.83 0.91
-2 -7 7 5.52 0.55
2 7 -7 3.56 0.99
2 7 -7 5.12 1.48
-2 -7 7 4.02 0.87
-2 -7 7 6.15 1.32
-2 -7 7 6.72 0.62
-2 -7 6 6.4 2.37
2 7 -6 5.86 1.16
-2 -7 6 7.24 0.62
2 7 -6 5.73 1.59
-2 -7 6 6.43 1.03
-2 -7 6 4.59 0.89
-2 -7 6 7.76 0.66
-2 -7 6 5.87 1.05
-2 -7 6 7.77 1.5
-2 -7 5 16.58 1.59
-2 -7 5 20.22 1.87
2 7 -5 19.13 2.46
2 7 -5 18.43 2.67
-2 -7 5 18.58 1.79
-2 -7 5 18.2 1.53
-2 -7 4 28.77 5.12
-2 -7 4 30.4 2.17
-2 -7 4 29.14 2.32
-2 -7 4 35.12 2.57
2 7 -4 34.63 3.3
2 7 -4 33.61 3.48
-2 -7 4 33.11 2.9
-2 -7 4 29.2 2.24
-2 -7 4 33.72 4.19
-2 -7 3 0.4 1.26
2 7 -3 -0.3 0.48
-2 -7 3 -0.28 0.5
-2 -7 3 -0.15 0.45
2 7 -3 0.41 0.51
-2 -7 3 -0.24 0.66
-2 -7 3 -0.11 0.8
-2 -7 2 28.54 2.24
-2 -7 2 31.96 2.36
-2 -7 2 33.47 2.57
-2 -7 2 32.33 2.82
-2 -7 2 32.29 5.12
-2 -7 1 4.72 0.99
-2 -7 1 6.34 1.18
2 7 -1 5.44 1.22
-2 -7 1 4.08 1.79
-2 -7 1 4.71 1.24
-2 -7 0 3.8 0.91
-2 -7 0 3.45 0.91
-2 -7 -1 27.25 2.12
-2 -7 -1 26.9 2.06
2 7 2 -0.09 0.19
-2 -7 -2 0.06 0.4
2 7 3 30.28 1.23
-2 -7 -3 28.63 1.68
2 7 4 5.21 0.36
-2 -8 11 1.25 0.4
-2 -8 11 1.41 0.21
-2 -8 10 2.68 0.59
-2 -8 10 2.14 0.59
-2 -8 10 3.9 0.38
-2 -8 10 3.59 0.4
-2 -8 9 9.67 0.76
-2 -8 9 10.53 0.67
-2 -8 8 13.59 1.46
-2 -8 8 15.04 1.53
-2 -8 7 6.27 1.07
-2 -8 7 6.77 1.12
-2 -8 6 15.31 1.43
-2 -8 6 14.01 1.53
-2 -8 6 18.04 2.11
-2 -8 6 16.94 0.95
-2 -8 6 15.8 1.66
-2 -8 5 -0.09 0.3
-2 -8 5 0.32 0.77
-2 -8 5 0.51 0.56
-2 -8 5 0.47 0.48
-2 -8 5 0.39 0.52
-2 -8 4 68.18 3.74
-2 -8 4 83.69 4
-2 -8 4 90.54 4.84
-2 -8 4 72.72 3.89
-2 -8 4 75.67 3.52
-2 -8 3 0.49 0.49
-2 -8 3 0.07 0.43
-2 -8 3 0.67 0.63
-2 -8 3 -0.1 0.74
-2 -8 2 48.32 2.8
-2 -8 2 52.12 3.07
-2 -8 2 51.42 3.43
-2 -8 1 105.3 4.42
-2 -8 1 104.41 4.57
2 8 -1 99.71 3.18
2 8 0 16.17 0.86
-2 -8 0 17.42 1.5
-2 -8 0 16.93 1.48
-2 -8 -1 18.06 1.38
-2 -8 -1 19.27 1.35
2 8 1 18.19 0.87
2 8 2 0.11 0.12
-2 -8 -2 0.03 0.27
2 8 3 8.83 0.4
-2 -9 10 2.11 0.23
-2 -9 10 1.67 0.34
-2 -9 10 1.7 0.39
-2 -9 9 3.57 0.67
-2 -9 8 0.09 0.39
-2 -9 8 0.2 0.43
-2 -9 8 0.08 0.21
-2 -9 7 12.12 1.24
-2 -9 7 12.15 1.27
-2 -9 6 18.84 1.32
-2 -9 6 17.87 1.53
-2 -9 6 15.8 1.51
-2 -9 5 1.18 0.56
-2 -9 5 1.41 0.49
-2 -9 5 1.53 0.27
-2 -9 4 66.19 2.77
-2 -9 4 64.67 3.1
-2 -9 3 0.08 0.32
-2 -9 3 -0.1 0.39
-2 -9 2 0.91 0.41
-2 -9 2 1.43 0.53
-2 -9 1 -0.18 0.33
-2 -9 1 0.19 0.33
2 9 0 1.52 0.17
-2 -9 0 2.12 0.41
-2 -9 0 1.62 0.35
-2 -9 -1 4.84 0.45
-2 -10 8 4.99 0.33
-2 -10 7 1.25 0.2
-2 -10 6 8.88 0.51
-2 -10 5 0.16 0.19
-2 -10 5 0.42 0.14
-2 -10 4 3.91 0.5
-2 -10 3 7.84 0.66
-2 -10 2 0.07 0.14
3 -11 1 5.92 0.45
3 -11 1 7.39 0.57
3 -11 2 0.67 0.22
3 -11 2 0.88 0.26
3 -11 2 0.9 0.18
3 -11 2 0.87 0.2
3 -11 3 13.84 0.78
3 -11 3 13.06 0.83
3 -11 4 4.2 0.44
3 -11 4 4.8 0.49
3 -11 4 5.68 0.42
3 -11 5 37.94 1.48
3 -11 5 34.64 1.46
3 -11 6 15.98 0.71
3 -10 -2 6.19 0.59
-3 10 2 5.94 0.35
-3 10 1 1.72 0.22
3 -10 -1 1.74 0.43
3 -10 0 1.93 0.49
3 -10 0 1.4 0.35
3 -10 1 9.59 0.97
3 -10 1 8.8 0.83
3 -10 2 14.17 1.15
3 -10 2 13.75 1.12
3 -10 2 13.86 0.89
3 -10 3 72.09 2.93
3 -10 3 71.94 2.57
3 -10 3 65.45 2.8
3 -10 4 12.7 0.86
3 -10 5 40.37 1.91
3 -10 5 40.79 1.72
3 -10 6 30.75 1.45
3 -10 6 34.51 1.44
3 -10 6 30.91 1.3
3 -10 7 0.26 0.21
3 -10 7 0.1 0.19
3 -10 7 0.12 0.17
3 -10 8 8.03 0.51
3 -10 8 10.09 0.58
3 -9 -4 7.53 0.6
-3 9 4 8.32 0.46
-3 9 4 7.26 0.39
3 -9 -3 0.03 0.29
-3 9 3 0.16 0.16
3 -9 -2 7.44 0.92
3 -9 -1 9.56 1.14
3 -9 -1 9.2 0.87
3 -9 0 52.89 2.86
3 -9 0 53.52 2.85
3 -9 0 49.07 2.43
3 -9 1 332.52 10.4
3 -9 1 309.38 9.7
3 -9 2 16.67 1.46
3 -9 2 16.86 1.62
3 -9 2 13.53 1.29
3 -9 3 64.95 3.02
3 -9 3 64.28 3.01
3 -9 3 59.77 2.53
3 -9 4 21.6 1.47
3 -9 4 23.53 1.37
3 -9 5 22.06 1.52
3 -9 5 22.2 1.33
3 -9 5 24.45 1.3
3 -9 6 45.88 2.12
3 -9 6 45.89 2.02
3 -9 6 45.32 2.15
3 -9 6 47.23 2
3 -9 7 0.15 0.28
3 -9 7 0.03 0.27
3 -9 7 0.28 0.28
3 -9 8 29.61 1.3
3 -9 8 33.22 1.45
3 -9 8 32.73 1.46
3 -9 9 9.14 0.6
3 -9 9 8.58 0.59
-3 8 6 13.85 0.59
-3 8 6 16.31 0.63
-3 8 5 0.36 0.15
-3 8 5 0.25 0.17
3 -8 -4 28.79 1.73
-3 8 4 26.65 1.16
-3 8 3 1.96 0.32
3 -8 -3 3 0.72
3 -8 -2 31.32 2.19
3 -8 -2 29.97 2.02
3 -8 -1 14.64 1.52
-3 8 1 13.52 1.45
3 -8 -1 14.79 1.49
3 -8 -1 11.64 1.15
3 -8 0 53.21 3.05
3 -8 0 60.96 3.29
3 -8 0 53.23 2.73
3 -8 0 48.6 4.94
-3 8 0 49.35 3.06
3 -8 1 112.68 4.76
3 -8 1 114.27 4.99
3 -8 1 111.66 4.47
3 -8 1 108.08 7.74
-3 8 -1 110.31 5.12
3 -8 1 90.78 7.02
-3 8 -2 1.25 0.79
3 -8 2 2.55 0.71
-3 8 -2 1.9 0.66
3 -8 2 2.92 0.83
3 -8 2 2.19 0.67
3 -8 2 2.17 1.12
3 -8 3 177.47 6.18
-3 8 -3 158.87 8.86
3 -8 3 172.24 6.13
-3 8 -3 165.95 7.16
3 -8 4 197.12 6.61
3 -8 4 203.73 6.86
3 -8 4 187.47 10.48
3 -8 4 193.69 6.24
3 -8 4 209.3 6.22
-3 8 -4 197.23 8.28
3 -8 5 57.81 2.43
-3 8 -5 54.4 3.81
3 -8 5 44.48 4.57
3 -8 5 57.61 2.72
3 -8 5 53.28 2.36
3 -8 5 53.27 3.52
3 -8 6 8.53 0.9
3 -8 6 10.28 0.89
3 -8 6 9.16 1.39
3 -8 6 11.26 0.96
3 -8 7 76.93 2.99
3 -8 7 81.64 3.09
3 -8 7 81.82 3.09
3 -8 8 39.64 1.73
3 -8 8 44.44 1.9
3 -8 8 43.27 1.93
3 -8 9 7.95 0.66
3 -8 9 6.48 0.62
3 -8 10 4.18 0.39
-3 7 7 1.1 0.17
-3 7 7 1.82 0.22
-3 7 6 30.76 1.27
-3 7 5 14.83 0.87
-3 7 5 14.28 0.89
-3 7 4 4.92 0.52
3 -7 -4 6.23 0.94
3 -7 -3 5.93 0.98
-3 7 3 5.28 0.54
3 -7 -3 4.95 1.76
-3 7 3 4.82 0.86
3 -7 -2 17.44 3.35
-3 7 2 26.19 1.26
3 -7 -2 32.03 2.21
-3 7 2 22.91 1.97
-3 7 2 19.81 2.46
3 -7 -2 26.43 1.96
3 -7 -2 26.55 3.69
3 -7 -1 747.95 20.13
3 -7 -1 738.97 20.12
3 -7 -1 691.86 19.33
3 -7 -1 710.81 24.58
3 -7 -1 749.3 25.35
-3 7 1 676.95 20.24
3 -7 0 24.93 1.9
-3 7 0 15.33 2.4
3 -7 0 21.34 1.84
3 -7 0 23.93 3.36
3 -7 0 15.5 2.94
-3 7 0 21.27 1.96
3 -7 1 379.83 11.45
3 -7 1 380.84 11.7
3 -7 1 392.05 16.25
3 -7 2 276.73 8.88
3 -7 2 284.02 9.31
3 -7 2 287.05 13.48
-3 7 -2 283.7 10.21
3 -7 3 66.27 3.08
3 -7 3 63.39 3.95
-3 7 -3 72.51 4.29
3 -7 4 265.77 6.91
3 -7 4 234.98 7.64
-3 7 -4 239.22 11.39
-3 7 -4 260.08 10.13
3 -7 4 224.18 7.77
3 -7 4 229.7 11.64
3 -7 4 233.25 7.29
3 -7 4 228.61 9.07
3 -7 4 245.41 7.35
3 -7 5 13.45 0.8
-3 7 -5 13.21 1.95
3 -7 5 12.51 1.14
3 -7 5 12.94 1
3 -7 5 12.11 1.67
3 -7 5 11.83 1
3 -7 6 38.23 1.55
3 -7 6 37.27 1.96
3 -7 6 33.29 1.82
3 -7 6 35.36 1.8
3 -7 6 30.41 2.51
-3 7 -6 34.84 3.29
3 -7 6 36.93 1.91
3 -7 7 78.92 2.6
3 -7 7 71.29 2.93
3 -7 7 71.05 2.89
3 -7 7 71.31 2.99
3 -7 7 78.09 2.83
3 -7 8 10.13 0.81
3 -7 8 12.64 0.99
3 -7 8 12.04 0.74
3 -7 8 13.03 1.03
3 -7 8 13.57 0.92
3 -7 9 2.1 0.39
3 -7 9 2.11 0.44
3 -7 9 2.39 0.29
3 -7 10 7.08 0.58
3 -7 10 7.73 0.63
-3 6 8 33.63 1.11
-3 6 7 2.55 0.34
-3 6 7 2.73 0.36
-3 6 6 51.62 1.99
-3 6 6 47.62 1.94
-3 6 5 5 1.13
-3 6 5 7.04 0.64
3 -6 -5 6.05 1.51
3 -6 -5 5.48 1.67
-3 6 4 41.27 1.75
3 -6 -4 38.37 3.66
3 -6 -4 39.82 2.44
3 -6 -4 29.87 4.49
-3 6 4 39.2 3.22
3 -6 -4 31.63 4.11
-3 6 4 34.75 2.42
-3 6 3 115.63 3.69
3 -6 -3 122.31 4.89
3 -6 -3 119.21 8.13
-3 6 3 112.98 4.96
3 -6 -3 111.13 6.18
3 -6 -3 103.2 8.39
3 -6 -2 360.92 15.12
3 -6 -2 331.29 10.42
3 -6 -2 320.12 10.22
-3 6 2 337.35 9.02
3 -6 -2 347.14 13.94
-3 6 2 341.02 10.79
3 -6 -1 33.94 2.2
3 -6 -1 24.53 3.69
3 -6 -1 34.27 1.99
3 -6 -1 29 3.54
3 -6 -1 33.71 2.2
3 -6 -1 32.33 3.79
-3 6 1 35.88 2.45
3 -6 0 31.61 2.05
3 -6 0 28.54 2.02
3 -6 0 29.99 3.62
3 -6 0 31.67 3.93
3 -6 1 134.37 5.13
3 -6 1 133.9 5.3
3 -6 1 140.74 8.32
-3 6 -1 154.78 6.19
3 -6 1 147.76 8.28
3 -6 2 41.29 3.73
3 -6 2 46.39 2.41
3 -6 2 49.99 2.68
3 -6 2 41.25 4.2
3 -6 2 46.01 3.09
-3 6 -2 49.29 3.32
3 -6 3 50.25 1.89
3 -6 3 51.35 2.72
3 -6 3 47.76 2.91
3 -6 3 50.64 2.43
3 -6 3 47.59 2.06
3 -6 3 53.5 4.7
3 -6 3 48.4 3.14
-3 6 -3 54.91 3.66
3 -6 4 158.54 4.54
3 -6 4 142.63 5.78
3 -6 4 141.08 5.09
3 -6 4 147.06 8.15
3 -6 4 147.67 4.76
3 -6 4 140.45 6.1
3 -6 4 145.36 4.8
3 -6 5 64.18 2.31
3 -6 5 50.05 3.26
3 -6 5 54.14 4.47
3 -6 5 58.4 2.63
3 -6 5 63.32 2.51
-3 6 -5 67.57 4.58
3 -6 5 68.93 2.67
3 -6 6 108.4 3.58
3 -6 6 101.94 3.72
3 -6 6 93.51 3.89
3 -6 6 102.93 3.6
3 -6 6 98.2 3.3
-3 6 -6 91 5.72
3 -6 6 94.62 3.64
3 -6 7 2.02 0.38
3 -6 7 2.18 0.46
3 -6 7 3.06 0.54
3 -6 7 2.19 0.51
3 -6 7 3.06 0.5
3 -6 8 0.32 0.23
3 -6 8 0.03 0.33
3 -6 8 0.21 0.37
3 -6 8 0.77 0.34
3 -6 9 2.34 0.5
3 -6 9 2.25 0.46
3 -6 9 1.83 0.43
3 -6 9 2.78 0.38
3 -6 10 20.15 1.14
3 -6 10 20.78 1.09
3 -6 10 22.48 1.16
3 -6 10 23.13 1
-3 5 9 0.99 0.18
-3 5 8 62.27 2.06
-3 5 7 8.74 0.7
-3 5 7 9.06 0.68
-3 5 7 7.9 0.54
-3 5 6 2.45 0.42
-3 5 6 2 0.4
-3 5 6 3.03 0.9
3 -5 -6 2.14 1.06
-3 5 5 46.66 1.91
-3 5 5 39.01 3.21
3 -5 -5 42.07 4.68
3 -5 -5 39.6 4.1
3 -5 -5 38.59 5.14
-3 5 4 49.82 1.96
3 -5 -4 47.42 2.61
-3 5 4 42.23 3.3
3 -5 -4 44.67 4.74
-3 5 4 47.52 2.87
3 -5 -4 41.75 3.96
3 -5 -4 43.16 5.13
-3 5 3 208.92 6
3 -5 -3 196.68 6.97
3 -5 -3 211.98 9.18
-3 5 3 210.51 7.54
3 -5 -3 227.31 11.12
3 -5 -2 139.99 7.98
3 -5 -2 125.27 4.89
3 -5 -2 133.5 6.22
3 -5 -2 121.25 7
-3 5 2 131.97 3.97
3 -5 -1 29.93 2.23
3 -5 -1 31 1.91
3 -5 -1 27.93 3.12
3 -5 -1 34.6 3.49
-3 5 1 32.69 2.24
3 -5 -1 25.41 3.29
3 -5 0 251.89 11.48
3 -5 0 252.79 11.64
3 -5 0 259.69 11.92
-3 5 -1 21.25 1.87
3 -5 1 19.94 2.58
3 -5 1 16.18 2.36
3 -5 1 15.6 2.44
3 -5 2 83.43 5.06
-3 5 -2 106.46 4.94
3 -5 3 38.94 1.57
3 -5 3 37.5 1.68
3 -5 3 39.05 1.94
3 -5 3 42.3 3.67
3 -5 3 38.71 1.65
3 -5 3 38.76 1.83
3 -5 4 0.1 0.17
3 -5 4 0.67 0.44
3 -5 4 0.48 0.31
-3 5 -4 0.58 0.54
3 -5 4 0.11 0.21
3 -5 4 0.17 0.19
3 -5 4 0.82 0.63
3 -5 4 0.17 0.19
3 -5 5 31.18 1.42
3 -5 5 30.01 1.62
3 -5 5 31.36 1.55
3 -5 5 30.96 1.82
3 -5 5 33.1 1.55
3 -5 5 30.52 1.99
-3 5 -5 31.1 3
3 -5 5 31.33 1.61
3 -5 6 8.59 0.69
3 -5 6 7.3 0.77
3 -5 6 7.59 0.93
3 -5 6 8.75 0.78
3 -5 6 7.55 1.05
-3 5 -6 5.87 1.41
3 -5 6 7.86 0.81
3 -5 6 7.21 0.73
3 -5 7 15.87 1.01
3 -5 7 15.95 1.16
3 -5 7 16.74 1.1
3 -5 7 15.95 1.37
3 -5 7 16.41 1.16
3 -5 7 16.08 1.19
3 -5 8 121.4 4.78
3 -5 8 137.45 4.49
3 -5 8 130.18 4.44
3 -5 8 125.21 4.4
3 -5 9 124.93 4.14
3 -5 9 122.08 4.03
3 -5 9 118.56 4.05
3 -5 10 10.75 0.82
3 -5 10 6.82 0.62
-3 4 9 21.11 0.91
-3 4 9 22.48 1.01
-3 4 8 6.07 0.52
-3 4 8 6.18 0.51
-3 4 8 5.27 0.55
-3 4 7 25.91 1.28
-3 4 7 20.76 2.33
-3 4 7 25.55 1.21
3 -4 -7 25.26 3.43
-3 4 6 48.44 2
3 -4 -6 53.3 4.96
-3 4 6 54.1 2.28
-3 4 6 46.61 1.96
-3 4 6 41.38 3.32
3 -4 -6 45.42 5.41
-3 4 5 42.99 1.79
3 -4 -5 40.74 4.09
-3 4 5 42.42 1.99
3 -4 -5 51.12 4.85
-3 4 5 38.04 3
3 -4 -5 37.52 4.57
-3 4 4 78.76 2.72
-3 4 4 85.74 2.98
-3 4 4 72.1 4.22
3 -4 -4 78.41 5.92
3 -4 -4 73.19 5.15
-3 4 4 79.08 3.8
3 -4 -4 74.95 5.91
-3 4 3 210.36 5.97
3 -4 -3 221.3 9.05
3 -4 -3 210.94 9.99
3 -4 -3 190.92 9.6
3 -4 -2 73.37 4.83
3 -4 -2 85.75 4.48
3 -4 -2 79.3 5
3 -4 -2 84.07 5.42
-3 4 2 85.98 3.76
3 -4 -1 209.98 7.3
3 -4 -1 199.81 8.57
-3 4 1 206.56 7.14
3 -4 -1 195.88 8.61
3 -4 -1 210.29 8.97
3 -4 -1 192.86 8.61
3 -4 0 241.77 9.8
3 -4 0 220.32 9.3
-3 4 0 257.94 8.18
3 -4 0 254.06 7.65
3 -4 0 219.49 9.33
3 -4 1 654.46 20.1
3 -4 1 627.59 16.56
3 -4 1 626.05 19.93
3 -4 1 595.74 19.62
3 -4 2 913.65 24.18
3 -4 2 863.42 25.94
3 -4 3 723.23 22.96
3 -4 3 757.51 20.37
-3 4 -3 801.16 22.44
3 -4 3 718.16 23.58
3 -4 4 121.35 3.94
3 -4 4 133.97 4.22
3 -4 4 138.71 4.2
3 -4 4 128.43 4.78
3 -4 4 143.22 4.56
3 -4 4 127.02 4.08
3 -4 4 127.51 4.01
-3 4 -4 136.52 6.35
3 -4 5 2.87 0.47
3 -4 5 2.19 0.51
3 -4 5 2.49 0.4
-3 4 -5 3.1 0.96
3 -4 5 2.1 0.41
3 -4 5 3.24 0.66
3 -4 5 2.73 0.42
3 -4 6 19.05 1.09
3 -4 6 18.91 1.16
3 -4 6 19.69 1.43
3 -4 6 20.32 1.21
3 -4 6 17.76 1.71
3 -4 6 21.31 1.27
3 -4 7 10.45 0.82
3 -4 7 12.02 1.03
3 -4 7 11.57 1.18
3 -4 7 13.25 1.02
3 -4 7 10.48 1.39
3 -4 7 10.93 0.67
3 -4 7 14.07 1.06
3 -4 8 21.31 1.58
3 -4 8 21.22 1.38
3 -4 8 21.08 1.2
3 -4 8 19.73 1.96
3 -4 8 22.78 1.37
3 -4 8 21.42 1.01
3 -4 8 20.56 1.37
3 -4 9 46.5 2.05
3 -4 9 45.91 2.42
3 -4 9 49.81 2.23
3 -4 9 48.06 1.74
3 -4 9 52.11 2.22
3 -4 9 54.77 2.03
3 -4 10 0.33 0.13
3 -4 10 4.01 0.48
-3 3 10 55.19 1.82
-3 3 10 51.73 1.73
-3 3 9 14.9 0.79
-3 3 9 17.61 0.93
-3 3 9 17.18 0.93
3 -3 -8 23.75 3.45
-3 3 8 23.65 1.16
-3 3 8 20.94 2.32
-3 3 8 24.45 1.23
-3 3 8 23.4 1.23
3 -3 -7 2.47 1.44
-3 3 7 0.98 0.28
-3 3 7 1.49 0.67
-3 3 7 0.85 0.3
3 -3 -7 1.08 0.96
3 -3 -6 0.22 0.62
-3 3 6 0.2 0.19
-3 3 6 0.4 0.37
-3 3 5 21.5 1.1
-3 3 5 21.41 1.25
-3 3 5 21.58 2.01
3 -3 -5 20.27 2.76
-3 3 4 482.81 14.75
3 -3 -4 481.44 17.09
3 -3 -4 503.12 16.72
3 -3 -4 469.06 16.51
3 -3 -3 855.53 24.64
3 -3 -3 828.81 24.24
3 -3 -3 900.98 24.72
3 -3 -3 839.41 25.38
3 -3 -2 18.4 2.03
3 -3 -2 15.32 1.67
3 -3 -2 14.36 1.61
-3 3 2 17.51 1.34
3 -3 -2 17.67 1.72
3 -3 -1 2.84 0.76
3 -3 -1 2.37 0.63
-3 3 1 1.71 0.43
3 -3 -1 1.98 0.59
3 -3 -1 2.71 0.83
3 -3 0 17.74 1.3
3 -3 0 15.95 1.46
3 -3 0 17.38 1.85
3 -3 0 16.35 1.62
-3 3 0 17.04 1.34
3 -3 0 14.82 0.75
-3 3 -1 517.29 14.15
3 -3 1 496.31 15.32
3 -3 1 473.56 14.82
3 -3 1 465.87 12.91
3 -3 1 472.36 14.21
3 -3 2 0.26 0.42
3 -3 2 1.49 0.41
-3 3 -2 1.91 0.57
3 -3 2 1.31 0.33
3 -3 3 1.38 0.68
-3 3 -3 0.69 0.4
3 -3 3 1.21 0.34
3 -3 4 73.51 2.46
3 -3 4 74.61 2.85
3 -3 4 77.45 3.4
3 -3 4 73.6 2.61
-3 3 -4 69.76 4
3 -3 4 68.73 4.35
3 -3 5 39.95 1.59
3 -3 5 34.99 1.63
3 -3 5 39.9 1.75
3 -3 5 36.83 1.66
3 -3 5 38.21 2.43
3 -3 5 40.86 1.78
3 -3 6 388.05 10.37
3 -3 6 378.38 10.62
3 -3 6 378.88 10.59
3 -3 6 353.27 10.4
3 -3 6 383.23 10.61
3 -3 6 370.95 10.05
3 -3 6 392.93 10.7
3 -3 7 346.87 9.39
3 -3 7 327.48 9.66
3 -3 7 328.07 9.6
3 -3 7 326.63 9.1
3 -3 7 350.95 9.78
3 -3 8 80.99 3.1
3 -3 8 69.47 3.27
3 -3 8 78.19 3.09
3 -3 8 74.45 4.19
3 -3 8 78.36 2.96
3 -3 8 79.94 2.63
3 -3 8 82.43 2.85
3 -3 9 39.03 1.79
3 -3 9 37 2.08
3 -3 9 42.73 1.63
3 -3 10 9.63 0.89
3 -3 10 4.66 0.39
-3 2 11 17.42 0.81
-3 2 10 10.95 0.74
-3 2 10 10.17 0.61
-3 2 9 122.9 3.81
-3 2 9 110.11 3.62
3 -2 -8 241.14 12.32
-3 2 8 256.82 7.27
-3 2 8 249.69 10
-3 2 8 264.09 7.48
-3 2 8 260.7 7.4
-3 2 7 202.61 5.77
-3 2 7 187.86 8.02
3 -2 -7 181.94 9.99
3 -2 -7 197.06 10.47
-3 2 7 198.13 5.84
-3 2 6 508.65 13.35
3 -2 -6 521.56 17.94
-3 2 6 473.59 13.56
-3 2 6 508.12 13.3
-3 2 6 516.18 15.75
-3 2 5 137.82 4.83
-3 2 5 147.75 5.71
3 -2 -5 131.87 7.03
3 -2 -5 133.03 6.5
-3 2 4 646.41 17.55
-3 2 4 666.12 17.98
3 -2 -4 631.82 18.34
3 -2 -4 610.63 19.8
3 -2 -4 623.43 19.38
-3 2 4 572.67 17.56
3 -2 -4 685.11 19.16
-3 2 3 1.83 0.3
3 -2 -3 1.57 0.49
-3 2 3 3.59 0.59
3 -2 -3 2.57 0.73
-3 2 3 2.51 0.49
-3 2 2 97.4 3.59
3 -2 -2 88 3.79
-3 2 2 92.73 3.6
3 -2 -1 769.29 22.07
-3 2 1 803.1 21.71
3 -2 0 489.74 14.2
-3 2 0 500.11 13.73
3 -2 0 472.36 13.41
-3 2 -1 280.19 7.83
3 -2 1 272.93 7.57
3 -2 2 270.71 7.99
3 -2 2 260.43 8.6
-3 2 -2 253.68 8.25
-3 2 -3 47.27 2.3
3 -2 3 44.99 2.55
3 -2 3 48.13 2.85
3 -2 4 161.84 6.6
3 -2 4 164.33 6.33
3 -2 5 3.91 0.41
3 -2 5 3.38 0.45
3 -2 5 3.69 0.48
3 -2 5 4.18 0.54
3 -2 5 2.65 0.51
3 -2 5 2.64 0.75
3 -2 5 4.13 0.49
3 -2 5 3.37 0.33
3 -2 5 3.37 0.47
3 -2 5 3.71 0.78
3 -2 5 4.89 0.54
3 -2 6 173.71 5.63
3 -2 6 180.92 5.77
3 -2 6 178.04 7.76
3 -2 6 174 5.94
3 -2 6 194.42 5.78
3 -2 6 181.99 5.68
3 -2 6 177.78 5.62
3 -2 6 181.08 7.17
3 -2 6 190.34 5.41
3 -2 6 188.73 5.27
3 -2 7 180.71 5.87
3 -2 7 190.85 6.13
3 -2 7 177.14 8.28
3 -2 7 186.84 6.38
3 -2 7 190.41 6.09
-3 2 -7 218.9 14.93
3 -2 7 199.33 6
3 -2 7 185.56 7.66
3 -2 7 206.19 5.66
3 -2 7 202.27 5.77
3 -2 8 12.57 1.16
3 -2 8 14.87 1.04
3 -2 8 12.51 1.6
3 -2 8 16.82 0.93
3 -2 8 15.53 0.97
3 -2 9 37.65 1.46
3 -2 9 37.04 1.52
3 -2 10 11.17 0.59
-3 1 12 26.38 0.99
-3 1 11 56.37 1.96
-3 1 10 32.26 1.39
-3 1 9 2.63 0.38
-3 1 9 3.66 0.49
-3 1 9 2.54 0.85
3 -1 -9 1.64 1.04
-3 1 9 2.33 0.37
-3 1 8 1.58 0.31
-3 1 8 2.13 0.33
-3 1 8 1.83 0.36
-3 1 8 2.08 0.75
3 -1 -8 1.6 1.05
-3 1 8 1.76 0.33
-3 1 7 12.09 0.74
-3 1 7 11.89 1.53
3 -1 -7 11.97 1.99
3 -1 -7 11.05 2.13
-3 1 7 12.63 0.79
3 -1 -6 146.26 6.54
-3 1 6 130.5 3.91
-3 1 6 127.55 5.47
3 -1 -6 131.08 7.04
-3 1 6 133.44 3.96
-3 1 5 269.69 8.58
-3 1 5 250.54 8.02
3 -1 -5 266.53 10.24
-3 1 4 245.75 7.55
3 -1 -4 234.42 7.54
-3 1 4 239.79 7.55
3 -1 -4 260.26 9.19
3 -1 -3 320.38 10.03
3 -1 -3 296.74 8.85
-3 1 3 293.33 8.84
-3 1 3 295.3 8.5
-3 1 3 294.78 8.7
-3 1 3 288.55 8.84
3 -1 -2 31.78 2.07
-3 1 2 33.88 1.9
3 -1 -2 32.33 1.72
-3 1 2 28.69 1.29
-3 1 2 31.7 1.56
3 -1 -1 2148.2 56.14
-3 1 1 2136.36 56.17
-3 1 1 2180.28 56.76
-3 1 1 2214.71 55.68
-3 1 0 414.89 11.3
3 -1 0 422.82 11.9
-3 1 0 409.03 12.54
-3 1 0 408.3 11.85
3 -1 0 439.68 12.43
3 -1 1 481.8 13.69
-3 1 -1 470.85 13.55
-3 1 -1 494.13 13
-3 1 -2 1205.64 32.86
3 -1 2 1305.66 33.17
3 -1 2 1266.98 32.76
3 -1 2 1218.2 33.28
-3 1 -3 12.99 1.63
3 -1 3 15.91 1.34
3 -1 3 13.47 1.19
3 -1 3 16.8 1.44
3 -1 4 0.55 0.16
3 -1 4 0.33 0.31
-3 1 -4 0.64 0.52
3 -1 4 0.7 0.27
3 -1 4 0.79 0.37
3 -1 4 1.13 0.24
3 -1 4 0.46 0.26
3 -1 4 0.54 0.23
3 -1 5 277.07 7.6
3 -1 5 259.62 7.81
3 -1 5 281.43 8.06
3 -1 5 290.28 8.14
3 -1 5 278.5 9.61
3 -1 5 264.06 8.09
3 -1 5 264.1 7.87
-3 1 -5 276.87 10.76
3 -1 5 277.71 9.5
3 -1 5 278.93 7.89
3 -1 5 285.1 7.57
3 -1 6 9.81 0.67
3 -1 6 9.4 0.84
3 -1 6 9.09 0.89
3 -1 6 8.22 1.33
3 -1 6 10.71 0.97
3 -1 6 9.94 0.87
-3 1 -6 9.77 3.11
3 -1 6 8.78 1.31
3 -1 6 11.16 0.88
3 -1 6 7.57 0.73
3 -1 6 10.36 0.7
3 -1 7 43.56 2.07
3 -1 7 45.04 2.24
3 -1 7 40.29 2.17
3 -1 7 46.49 1.86
-3 1 -7 47.81 7.04
3 -1 7 43.61 3.11
3 -1 7 44.24 2.02
3 -1 7 44.82 1.84
3 -1 8 8.48 0.72
3 -1 8 8.71 0.84
3 -1 8 7.04 0.81
3 -1 8 9.74 0.69
3 -1 8 9.22 0.67
3 -1 9 7.17 0.53
3 -1 9 6.96 0.7
3 -1 10 3.68 0.3
-3 0 12 0.2 0.18
-3 0 11 28.01 1.36
-3 0 11 30.43 1.36
-3 0 11 28.47 1.26
-3 0 10 82.41 2.93
-3 0 10 79.15 2.8
-3 0 9 25.57 2.6
-3 0 9 31.08 1.51
3 0 -9 31.35 3.58
-3 0 9 29.62 1.41
-3 0 9 28.87 1.29
-3 0 8 83.37 2.67
-3 0 8 77.98 2.68
-3 0 8 76.32 2.76
-3 0 8 80.62 4.59
-3 0 8 86.86 2.92
3 0 -8 80.03 5.67
-3 0 7 218.7 6.25
-3 0 7 218.56 8.29
3 0 -7 223.13 9.92
-3 0 7 228.56 6.36
-3 0 7 219.96 6.28
-3 0 6 454.82 13.77
3 0 -6 464.8 15.78
-3 0 5 6.16 0.85
-3 0 5 5.94 0.78
3 0 -5 5.76 1.16
3 0 -4 3.82 0.56
-3 0 4 3.45 0.62
-3 0 4 3.29 0.51
3 0 -4 2.61 0.72
-3 0 4 4.09 0.73
-3 0 3 30.46 2.06
3 0 -3 28.37 2.03
-3 0 3 30.52 1.78
-3 0 3 28.24 2.46
-3 0 3 30.02 1.35
-3 0 2 83.6 4.14
-3 0 2 85.58 3.41
-3 0 2 85.75 3.85
3 0 -2 92.83 3.87
-3 0 1 192.7 6.72
-3 0 1 186.49 5.34
-3 0 1 186.5 6.13
-3 0 0 1344.46 35.83
-3 0 0 1377.08 35.79
-3 0 0 1353.63 36.77
-3 0 -1 364.8 10.79
3 0 1 383.41 9.84
-3 0 -1 359.3 11.82
3 0 1 346.13 10.24
3 0 2 169.94 6.23
-3 0 -2 170.04 5.81
3 0 2 176.68 5.74
3 0 2 168.75 5.28
-3 0 -2 166.55 6.83
-3 0 -3 15.42 1.81
3 0 3 15.73 1.25
3 0 3 16.17 1.25
3 0 3 15.59 1.47
3 0 4 375.54 10.94
-3 0 -4 403.96 13.79
3 0 4 407.8 12.62
3 0 4 413.86 11.15
3 0 4 416.64 11.19
3 0 4 423.27 12.3
3 0 4 377.33 10.92
3 0 4 402.03 10.95
3 0 4 404.11 10.95
3 0 5 531.34 14.19
3 0 5 529.83 14.28
3 0 5 526.19 15.76
3 0 5 487.5 14
3 0 5 465.64 13.91
-3 0 -5 565.8 24.91
3 0 5 548.85 15.99
3 0 5 484.97 13.86
3 0 5 544.51 13.67
3 0 5 519.92 13.54
3 0 6 3.47 0.55
3 0 6 4.01 0.67
3 0 6 3.99 0.59
3 0 6 3.08 0.82
3 0 6 3.39 0.42
3 0 6 4.28 0.42
3 0 7 73.1 2.81
3 0 7 68.3 2.97
3 0 7 67.89 2.75
-3 0 -7 75 8.71
3 0 7 70.29 3.96
3 0 7 70.12 2.39
3 0 8 49.89 1.99
3 0 8 44.42 2.08
3 0 9 14.99 0.75
3 0 10 0.09 0.06
-3 -1 12 1.13 0.28
-3 -1 12 1.14 0.25
-3 -1 11 68.26 2.51
-3 -1 11 70.96 2.55
-3 -1 11 63.08 2.38
-3 -1 10 57.68 2.29
-3 -1 10 55.21 2.21
-3 -1 9 4.54 0.46
-3 -1 9 5.43 0.59
-3 -1 9 6.47 1.3
3 1 -9 5.52 1.42
-3 -1 9 5.11 0.56
-3 -1 8 94.98 4.99
-3 -1 8 102.73 3.31
-3 -1 8 101.77 3.28
3 1 -8 113.01 6.21
-3 -1 8 89.44 3.06
-3 -1 7 411.34 10.91
3 1 -7 432.2 14.52
-3 -1 7 413.05 13.02
-3 -1 7 438 11.08
-3 -1 7 393.78 10.86
-3 -1 7 390.68 10.87
3 1 -6 142.32 6.28
-3 -1 6 138.75 5.28
3 1 -5 579.45 17.38
-3 -1 5 561.51 16.73
-3 -1 5 587.08 19.46
-3 -1 5 564.7 16.01
3 1 -4 204.76 7.18
-3 -1 4 202.29 8.4
-3 -1 4 190.53 6.05
-3 -1 4 201.06 6.85
-3 -1 3 9.59 1.41
-3 -1 3 8.1 1.23
-3 -1 2 421.28 12.45
-3 -1 2 414.36 13.17
3 1 -2 426.57 12.75
-3 -1 1 650.51 18.12
-3 -1 1 607.19 17.61
-3 -1 1 627.17 18.65
-3 -1 0 150.81 5.51
-3 -1 0 150.15 5.59
-3 -1 0 149.07 6.23
3 1 0 152.64 5.97
-3 -1 -1 879.87 24.6
-3 -1 -1 888.16 25.76
3 1 1 909.11 23.2
3 1 1 864.87 24.34
3 1 2 20.31 1.25
-3 -1 -2 21.14 2.13
3 1 2 20.73 1.77
3 1 3 154.86 5.21
3 1 3 140.42 4.6
3 1 3 144.63 4.67
3 1 3 152.2 5.3
-3 -1 -3 161.51 10.58
3 1 3 151.64 5.98
-3 -1 -3 144.36 6.78
3 1 4 0.15 0.24
3 1 4 0.51 0.26
-3 -1 -4 0.37 1.04
3 1 4 0.44 0.31
3 1 4 0.23 0.35
-3 -1 -5 141.83 11.75
3 1 5 144.77 5.06
3 1 5 158.31 6.37
3 1 6 21.21 1.49
-3 -1 -6 16.35 4.13
3 1 6 21.29 1.12
3 1 6 21.63 1.99
3 1 7 16.3 1.1
3 1 7 16.33 1.25
3 1 7 16.26 0.95
3 1 8 18.35 1.03
3 1 8 17.95 1.11
3 1 8 19.89 0.96
3 1 9 0.05 0.11
3 1 9 0.11 0.11
-3 -2 13 18.66 0.8
-3 -2 12 0.21 0.21
-3 -2 12 0.18 0.2
-3 -2 11 3.68 0.49
-3 -2 11 3.11 0.48
-3 -2 11 4.47 0.57
-3 -2 11 4.04 0.41
-3 -2 10 0.09 0.24
-3 -2 10 0.27 0.27
-3 -2 10 0.46 0.24
-3 -2 10 0.46 0.28
-3 -2 9 51.65 2.11
-3 -2 9 46.68 1.92
-3 -2 9 45.23 3.57
-3 -2 9 49.83 2.02
-3 -2 9 51.4 2.17
-3 -2 8 94.38 5.12
-3 -2 8 104.09 3.32
-3 -2 8 101.18 3.4
-3 -2 8 99.67 3.28
-3 -2 7 19.68 0.99
-3 -2 7 18.69 1.87
-3 -2 7 20.52 0.99
-3 -2 7 18.38 1.25
3 2 -7 17.5 2
-3 -2 7 21.71 1.1
-3 -2 6 83.89 5.96
-3 -2 6 80.56 3.98
3 2 -6 82.35 4.39
-3 -2 6 88.98 2.85
-3 -2 5 25.91 2.28
-3 -2 5 33.84 3.25
-3 -2 5 30.27 2.01
-3 -2 5 29.67 2.82
3 2 -5 30.32 2.32
-3 -2 4 7.7 1.15
-3 -2 4 8.37 1.49
3 2 -4 6 0.96
3 2 -4 7.36 1.02
-3 -2 4 4.7 1.22
-3 -2 3 33.14 2.36
-3 -2 3 36.62 2.87
3 2 -3 31.08 2.17
3 2 -3 31.89 2.16
-3 -2 3 29.94 2.8
-3 -2 2 501.77 15.49
3 2 -2 482.48 16.22
3 2 -2 547.02 15.35
-3 -2 2 552.86 16.86
-3 -2 2 459.1 16.42
-3 -2 2 539.89 16.31
-3 -2 1 741.93 21.78
-3 -2 1 826.32 23.22
-3 -2 1 825.37 22.5
3 2 -1 741.93 21.49
-3 -2 1 699.68 24.16
3 2 -1 747.04 22.65
-3 -2 0 64.04 3.49
-3 -2 0 57.24 3.85
3 2 0 60.55 2.18
-3 -2 0 69.5 3.72
3 2 0 65.71 3.3
-3 -2 0 55.48 4.93
3 2 0 57.4 3.56
-3 -2 -1 34.5 2.56
3 2 1 38.42 1.76
3 2 1 35.71 2.4
-3 -2 -1 30.8 2.85
-3 -2 -1 38.72 4.49
3 2 2 1.81 0.42
3 2 2 1.79 0.34
3 2 2 1.99 0.4
3 2 2 1.91 0.43
-3 -2 -2 1.23 0.65
3 2 2 1.57 0.55
3 2 3 111.53 4.12
3 2 3 127.65 4.12
3 2 3 134.11 5.5
3 2 3 123.81 4.24
-3 -2 -3 127.03 6.62
-3 -2 -3 112.77 9.65
3 2 4 85.56 3.19
3 2 4 81.99 3.34
3 2 4 86.84 4.32
3 2 5 101.55 3.7
3 2 5 104.91 4.84
3 2 5 103.01 3.37
3 2 6 25.49 1.16
3 2 6 24.82 1.44
3 2 6 22.69 1.58
3 2 7 8.18 0.84
3 2 7 11.71 0.72
3 2 8 4.89 0.44
3 2 8 5.39 0.4
-3 -3 12 2.08 0.33
-3 -3 12 2.06 0.39
-3 -3 12 1.92 0.23
-3 -3 11 0.3 0.27
-3 -3 11 0.19 0.22
-3 -3 11 0.31 0.23
-3 -3 11 0.25 0.3
-3 -3 10 5.51 0.66
-3 -3 10 5.14 0.56
-3 -3 10 4.82 0.54
-3 -3 9 114.63 3.86
-3 -3 9 104.24 3.47
-3 -3 9 104.86 3.72
-3 -3 9 100.78 3.5
-3 -3 8 4.38 0.73
-3 -3 8 5.31 0.6
-3 -3 8 4.69 0.53
-3 -3 7 70.28 5.91
-3 -3 7 62.38 2.82
-3 -3 7 57.07 2.64
-3 -3 7 69.87 2.42
-3 -3 7 58.53 2.24
-3 -3 6 40.22 1.66
3 3 -6 41.85 2.81
-3 -3 6 43.41 2.07
-3 -3 6 41.63 1.69
-3 -3 6 41.37 2.02
-3 -3 5 129.96 7.19
3 3 -5 126.81 5.45
-3 -3 5 116.05 6.83
3 3 -5 115.05 5.15
3 3 -4 620.36 17.4
-3 -3 4 629.94 19.39
-3 -3 3 140.18 6.74
3 3 -3 128.14 5.51
-3 -3 2 274.93 10.74
-3 -3 2 355.14 12.09
-3 -3 2 319.26 12.39
-3 -3 2 293.4 12.09
3 3 -2 278.27 11.62
3 3 -2 336.07 10.68
-3 -3 1 6.14 1.44
-3 -3 1 9.67 1.56
3 3 -1 7.66 1.45
-3 -3 1 7.41 1.91
-3 -3 0 35.38 3.38
-3 -3 0 45.92 3.42
3 3 0 43.91 2.88
-3 -3 0 36.11 4.37
3 3 0 41.14 3.15
3 3 1 215.98 6.46
3 3 1 220.3 6.68
-3 -3 -1 228.85 9.99
-3 -3 -1 203.92 12.35
3 3 1 230.79 8.28
3 3 2 78.42 2.84
3 3 2 76.11 3.06
-3 -3 -2 71.52 5.13
-3 -3 -2 72.19 7.39
3 3 2 88.04 4.23
3 3 3 183.06 5.66
3 3 3 174.12 5.95
3 3 3 193.5 7.11
3 3 4 121.84 4.16
3 3 4 122.9 4.49
3 3 5 4.73 0.51
-3 -3 -5 4.02 1.96
3 3 5 4.26 0.58
3 3 5 4.12 0.71
3 3 5 4.21 0.47
3 3 6 44.54 1.64
3 3 6 43.26 1.91
3 3 6 47.69 1.75
3 3 7 0.36 0.21
3 3 7 0.54 0.28
3 3 7 0.5 0.17
3 3 8 9.64 0.43
-3 -4 12 6.62 0.68
-3 -4 12 6.46 0.49
-3 -4 11 37.27 1.88
-3 -4 11 40.43 1.66
-3 -4 10 0.45 0.33
-3 -4 10 0.07 0.34
-3 -4 10 0.18 0.25
-3 -4 9 51.95 2.28
-3 -4 9 54.79 2.39
3 4 -9 48.48 5.08
-3 -4 8 49.08 2.85
-3 -4 8 63.95 6.23
3 4 -8 55.68 5.29
-3 -4 8 60.36 2.49
-3 -4 8 60.34 2.33
-3 -4 7 13.29 3.23
-3 -4 7 14.39 2.8
-3 -4 7 11.63 0.92
-3 -4 7 7.56 1.15
-3 -4 7 10.04 1.12
3 4 -7 12.22 2.43
-3 -4 7 11.09 0.88
-3 -4 7 7.06 0.96
-3 -4 6 144 8.49
-3 -4 6 138.74 4.27
3 4 -6 137.51 6.17
3 4 -6 122.74 7.62
-3 -4 6 119.63 5.08
-3 -4 6 130.99 4.15
-3 -4 6 105.47 4.54
3 4 -5 72.52 4.18
-3 -4 5 81.77 5.8
3 4 -5 65.8 5.17
-3 -4 5 69.45 2.55
-3 -4 5 63.14 3.28
-3 -4 5 68.09 2.91
-3 -4 5 61.26 3.09
-3 -4 5 68.1 2.5
-3 -4 5 53.08 2.79
-3 -4 4 22.37 1.24
-3 -4 4 27.21 3.14
-3 -4 4 20.79 1.38
3 4 -4 23.76 2.92
3 4 -4 22.84 2.24
-3 -4 3 2.07 0.98
3 4 -3 2.91 0.85
-3 -4 3 2.11 0.41
-3 -4 3 1.94 1.02
-3 -4 3 2.03 0.43
-3 -4 3 1.86 0.49
-3 -4 3 2.51 0.58
-3 -4 2 5.41 0.81
3 4 -2 3.87 1.18
-3 -4 2 5.88 1.48
-3 -4 2 5.67 0.67
-3 -4 2 5.44 1.59
-3 -4 2 6.65 1.61
-3 -4 2 4.18 0.73
3 4 -2 7.67 1.31
3 4 -1 5.4 1.3
3 4 -1 8.11 1.33
-3 -4 1 5.19 0.81
-3 -4 1 5.81 1.56
-3 -4 1 5.59 1.38
-3 -4 1 5.86 1.77
-3 -4 0 0.76 0.6
3 4 0 0.31 0.25
-3 -4 0 0.18 0.57
-3 -4 0 0.55 0.94
3 4 0 0.49 0.45
3 4 0 0.22 0.31
-3 -4 0 0.34 0.37
3 4 1 16.52 1.02
3 4 1 16.49 1.2
3 4 1 20.63 2.05
-3 -4 -1 16.42 2.61
-3 -4 -1 16.27 3.42
3 4 1 18.79 1.82
3 4 2 50.81 2.1
-3 -4 -2 49.43 3.14
3 4 2 50.1 2.4
-3 -4 -2 43.63 5.8
3 4 3 340.31 9.54
3 4 3 333.09 9.99
3 4 4 20.25 1.2
3 4 4 19.78 1.42
3 4 5 66.65 2.26
3 4 5 62.48 2.39
3 4 5 66.61 2.23
3 4 6 1.1 0.21
3 4 6 0.82 0.16
3 4 6 0.71 0.23
3 4 6 0.77 0.32
3 4 7 29.91 1.09
3 4 7 30.37 0.99
-3 -5 12 0.82 0.27
-3 -5 12 1.85 0.28
-3 -5 11 25.98 1.59
-3 -5 11 29.72 1.7
-3 -5 10 1.22 0.46
-3 -5 10 1.07 0.43
-3 -5 10 1.74 0.41
-3 -5 9 16 1.03
-3 -5 9 15.95 1.26
-3 -5 9 17.2 1.11
-3 -5 8 147.32 5.03
3 5 -8 140.18 8.82
-3 -5 8 143.89 4.99
-3 -5 8 160.52 4.7
-3 -5 7 397.3 11.05
3 5 -7 371.81 15.96
-3 -5 7 352.22 12.32
-3 -5 7 397.14 10.99
-3 -5 7 394.28 20.12
3 5 -6 375.4 15.95
-3 -5 6 360.32 12.62
-3 -5 6 506.22 18.47
3 5 -6 458.16 14.55
-3 -5 6 409.39 11.36
-3 -5 6 389.42 11.25
-3 -5 6 344.64 11.81
-3 -5 6 418.54 21.15
3 5 -5 7 1.8
-3 -5 5 7.48 1.99
-3 -5 5 6.34 0.76
-3 -5 5 6.29 1.09
3 5 -5 8.46 1.53
-3 -5 5 6.46 0.93
-3 -5 5 6.32 0.76
-3 -5 5 5.6 1.02
-3 -5 4 68.99 3.24
3 5 -4 68.6 5.39
-3 -5 4 76.09 3.14
-3 -5 4 74.64 3.94
-3 -5 4 81.42 6.45
3 5 -4 80.68 4.84
-3 -5 4 71.27 3.75
-3 -5 3 219.32 10.43
-3 -5 3 165.11 5.87
-3 -5 3 164.19 6.53
-3 -5 3 181.08 7
-3 -5 3 159.64 5.9
-3 -5 3 183.24 10.26
3 5 -3 217.18 8.46
-3 -5 2 28.07 3.41
-3 -5 2 24.33 2.14
3 5 -2 22.61 2.79
-3 -5 2 27.72 3.64
-3 -5 2 20.73 1.86
-3 -5 1 94.87 6.44
3 5 -1 98.46 5.27
-3 -5 1 80.12 4.32
3 5 -1 85.4 5.27
-3 -5 1 76.4 4.04
-3 -5 1 81.72 6.56
-3 -5 1 84.45 6.52
-3 -5 1 86.54 8.55
-3 -5 0 33.73 2.53
-3 -5 0 35.36 2.69
3 5 0 33.71 1.81
3 5 0 43.9 3.35
3 5 0 39.17 3.11
-3 -5 0 37.36 4.18
-3 -5 0 30.01 4.2
-3 -5 -1 53.48 3.4
3 5 1 51.79 2.46
-3 -5 -1 48.07 5.66
3 5 2 96.28 3.24
-3 -5 -2 91.41 4.53
3 5 2 94.91 3.67
-3 -5 -2 84.4 7.82
-3 -5 -3 5.73 0.96
3 5 3 5.74 0.58
3 5 3 5.22 0.72
3 5 4 16.66 0.92
3 5 4 16.57 0.95
3 5 4 15.46 1.13
3 5 4 17.34 0.86
3 5 5 1.44 0.23
3 5 5 1.27 0.2
3 5 5 1.07 0.24
3 5 6 7.4 0.4
3 5 6 7.02 0.34
-3 -6 11 9.69 0.96
-3 -6 11 10.99 1.03
-3 -6 10 6.28 0.85
-3 -6 10 7.42 0.6
-3 -6 10 7.62 0.67
-3 -6 10 6.9 0.89
-3 -6 9 40.54 2.4
-3 -6 9 47.98 2.04
-3 -6 9 43.14 2.41
-3 -6 8 43.87 2.51
-3 -6 8 54.68 3.43
3 6 -8 45.76 4.71
-3 -6 8 47.47 2.58
-3 -6 7 0.79 1.36
3 6 -7 0.22 0.61
-3 -6 7 0.49 0.52
-3 -6 7 1.32 0.51
-3 -6 7 1.3 0.55
-3 -6 7 1.89 0.91
-3 -6 6 262.02 12.82
3 6 -6 243.41 9.71
-3 -6 6 206.65 6.93
-3 -6 6 227.07 7.57
-3 -6 6 160.86 7.05
3 6 -6 200.52 10.55
-3 -6 6 214.93 8.37
-3 -6 6 197.06 6.91
-3 -6 6 210.67 14.64
-3 -6 5 0.26 0.41
-3 -6 5 0.25 0.6
3 6 -5 0.19 0.61
3 6 -5 -0.14 0.43
-3 -6 5 0.11 0.36
-3 -6 5 0.24 0.41
-3 -6 5 0.32 0.51
-3 -6 4 4.5 2.28
-3 -6 4 2.4 1.22
-3 -6 4 2.19 0.62
3 6 -4 5.26 1.3
-3 -6 4 3.27 0.91
3 6 -4 3.25 1.19
-3 -6 4 2.12 0.67
-3 -6 4 1.77 0.85
-3 -6 3 1.77 1.64
-3 -6 3 1.4 0.98
-3 -6 3 1.35 0.52
3 6 -3 1.63 0.76
3 6 -3 2.17 0.97
-3 -6 3 0.27 0.59
3 6 -2 27.94 2.86
-3 -6 2 25.94 2.34
3 6 -2 29.39 3.04
-3 -6 2 35.64 4.13
-3 -6 2 24.05 2.29
-3 -6 2 30.93 5.26
-3 -6 1 7.35 2.55
3 6 -1 7.16 1.42
-3 -6 1 7.25 1.29
3 6 -1 6.97 1.4
-3 -6 1 6.82 1.23
-3 -6 0 74.74 4.13
3 6 0 81.88 4.64
-3 -6 0 66.54 6.09
-3 -6 -1 114.8 5.1
-3 -6 -1 123.66 5.36
3 6 1 120.29 4.19
-3 -6 -2 -0.06 0.49
-3 -6 -2 0.49 0.45
3 6 2 0.52 0.32
3 6 3 34.74 1.4
3 6 3 31.77 1.31
3 6 3 35.17 1.27
3 6 4 1.31 0.21
3 6 4 1.39 0.21
3 6 4 1.47 0.19
-3 -7 11 0.79 0.33
-3 -7 11 0.77 0.37
-3 -7 11 1.13 0.24
-3 -7 10 31.53 1.33
-3 -7 10 35.95 1.43
-3 -7 9 67.24 3.42
-3 -7 9 70.79 3.53
-3 -7 9 85.78 2.97
-3 -7 9 96.83 2.95
-3 -7 8 59.5 3.29
-3 -7 8 79.62 4.12
-3 -7 8 60.06 3.28
-3 -7 8 87.65 2.74
-3 -7 7 0.06 0.44
-3 -7 7 0.25 0.24
-3 -7 7 0.25 0.46
-3 -7 7 0.4 0.71
-3 -7 6 1.19 1.24
3 7 -6 0.89 0.66
-3 -7 6 0.51 0.49
-3 -7 6 0.46 0.5
-3 -7 6 1.15 0.54
-3 -7 6 0.42 0.78
3 7 -5 7.89 1.73
-3 -7 5 7.98 1.04
-3 -7 5 6.71 1.03
-3 -7 5 8.85 1.25
-3 -7 5 8.4 1.53
-3 -7 4 -0.41 1
-3 -7 4 -0.06 0.48
-3 -7 4 0.62 0.54
-3 -7 4 0.41 0.59
-3 -7 4 0.1 0.69
-3 -7 3 9.56 2.92
-3 -7 3 9.12 1.21
3 7 -3 9.01 1.68
-3 -7 3 8.85 1.53
-3 -7 2 1.41 0.74
-3 -7 2 0.38 0.67
-3 -7 1 0.14 0.52
-3 -7 1 0.31 0.57
-3 -7 1 0.35 0.59
-3 -7 0 1.45 0.67
-3 -7 0 1.41 0.64
3 7 1 12.53 0.76
-3 -7 -1 12.23 1.26
-3 -7 -1 14.02 1.31
3 7 2 0.89 0.22
-3 -7 -2 1.09 0.41
3 7 2 0.88 0.15
3 7 3 18.6 0.75
-3 -8 11 0.72 0.26
-3 -8 10 26.28 1.05
-3 -8 10 29.28 1.06
-3 -8 9 13.63 1.26
-3 -8 9 20.12 0.9
-3 -8 9 20.56 1.03
-3 -8 9 15.12 1.35
-3 -8 8 33.75 2.25
-3 -8 8 34.45 2.24
-3 -8 7 -0.06 0.47
-3 -8 7 -0.06 0.42
-3 -8 7 0.48 0.64
-3 -8 7 0.11 0.16
-3 -8 6 2.3 0.66
-3 -8 6 2.43 0.59
-3 -8 6 2.26 0.67
-3 -8 5 3.57 0.61
-3 -8 5 3.31 0.76
-3 -8 5 3.9 0.8
-3 -8 5 3.68 1.15
-3 -8 4 22.55 1.63
-3 -8 4 23.35 1.78
-3 -8 4 25.3 1.93
-3 -8 4 26.37 2.35
-3 -8 3 0.11 0.39
-3 -8 3 0.38 0.53
-3 -8 3 -0.17 0.65
-3 -8 2 6.8 1.03
-3 -8 2 7.63 1.22
3 8 -1 26.92 1.13
-3 -8 1 29.05 1.85
-3 -8 1 28.2 1.89
3 8 0 3.37 0.32
-3 -8 0 3.39 0.62
-3 -8 0 3.44 0.61
3 8 1 19.74 0.78
-3 -8 -1 19.98 1.18
-3 -9 9 0.58 0.3
-3 -9 8 0.88 0.39
-3 -9 8 1.11 0.24
-3 -9 7 0.51 0.36
-3 -9 6 0.08 0.3
-3 -9 6 -0.05 0.22
-3 -9 5 -0.03 0.28
-3 -9 4 4.35 0.53
-3 -9 4 5.57 0.71
-3 -9 3 8.97 0.78
-3 -9 3 10.57 0.94
-3 -9 2 4.98 0.57
-3 -9 2 4.27 0.59
-3 -9 1 -0.1 0.18
-3 -9 1 0.06 0.16
4 -11 1 0.37 0.16
4 -11 2 1.13 0.2
4 -11 2 1.09 0.26
4 -11 2 1.54 0.18
4 -11 3 1.37 0.26
4 -11 3 1.88 0.31
4 -11 3 2.23 0.23
4 -11 4 0.13 0.17
4 -11 4 0.26 0.12
4 -11 5 3.31 0.34
4 -11 5 5.19 0.33
-4 10 2 8.18 0.39
4 -10 -2 8.1 0.67
4 -10 -1 20.42 1.28
4 -10 0 27.97 1.61
4 -10 0 26.58 1.36
4 -10 0 25.02 1.09
4 -10 1 0.25 0.24
4 -10 1 0.04 0.32
4 -10 1 0.25 0.35
4 -10 1 0.14 0.18
4 -10 2 35.91 1.66
4 -10 2 35.63 1.86
4 -10 2 35.02 1.81
4 -10 2 34.16 1.47
4 -10 3 67.15 2.62
4 -10 3 69.65 2.78
4 -10 3 66.93 2.38
4 -10 4 4.51 0.48
4 -10 4 4.93 0.62
4 -10 5 4.86 0.58
4 -10 5 4.61 0.56
4 -10 5 4.79 0.47
4 -10 6 1.55 0.28
4 -10 6 1.99 0.31
4 -10 7 2.86 0.33
4 -10 7 2.3 0.28
4 -9 -4 22.57 1.15
-4 9 4 21.31 0.82
4 -9 -3 0.14 0.3
-4 9 3 0.04 0.14
4 -9 -2 42.08 2.23
-4 9 2 37.09 1.46
4 -9 -1 3.03 0.71
-4 9 1 3.12 0.37
4 -9 -1 2.46 0.51
4 -9 0 -0.06 0.45
4 -9 0 0.25 0.37
4 -9 1 63.62 3.17
4 -9 1 67.98 3.07
4 -9 2 7.46 1.01
4 -9 2 8.14 1
4 -9 2 7.43 0.71
4 -9 3 31.49 1.91
4 -9 3 36.3 2.05
4 -9 3 31.03 1.57
4 -9 4 3.85 0.7
4 -9 4 4.16 0.55
4 -9 5 20.22 1.35
4 -9 5 18.36 1.27
4 -9 5 17.86 1.1
4 -9 5 19.08 1.1
4 -9 6 0.28 0.34
4 -9 6 0.15 0.23
4 -9 6 0.07 0.23
4 -9 6 0.22 0.25
4 -9 7 18.6 1.05
4 -9 7 16.83 0.98
4 -9 7 18.73 1.04
4 -9 8 17.89 0.92
4 -9 8 17.68 0.93
-4 8 6 16.3 0.66
-4 8 6 15.15 0.64
-4 8 5 20.4 0.91
-4 8 5 18.19 0.78
-4 8 5 20.88 0.88
4 -8 -4 37.37 2.01
-4 8 4 37.66 1.48
-4 8 3 0.1 0.16
4 -8 -3 0.05 0.42
-4 8 3 0.04 0.21
4 -8 -2 16.94 1.58
4 -8 -2 18.54 1.33
4 -8 -1 110.3 4.64
4 -8 -1 108.13 4.15
4 -8 0 77.37 3.71
4 -8 0 75.98 3.42
-4 8 0 65.95 3.81
4 -8 1 54.26 3.02
4 -8 1 54.42 5.32
4 -8 1 61.15 2.97
-4 8 -2 88.68 4.65
4 -8 2 93.65 4.04
4 -8 2 85.76 6.84
4 -8 2 90.69 3.87
4 -8 2 84.9 3.23
-4 8 -3 0.39 0.44
4 -8 3 0.38 0.19
4 -8 3 0.47 0.39
4 -8 3 0.57 0.32
4 -8 4 27.89 1.22
4 -8 4 28.7 1.83
-4 8 -4 25.71 2.41
4 -8 4 26.36 1.49
4 -8 4 29.16 1.53
4 -8 5 16.09 0.84
4 -8 5 14.34 1.19
4 -8 5 13.69 1.02
4 -8 5 15.91 1.11
4 -8 6 7.36 0.83
4 -8 6 6.6 0.7
4 -8 6 6.57 0.7
4 -8 6 7.47 0.54
4 -8 6 7.46 0.77
4 -8 7 127.56 4.34
4 -8 7 131.12 4.32
4 -8 7 136.85 4.43
4 -8 7 135.78 3.88
4 -8 8 52.55 1.98
4 -8 8 58.1 2.2
4 -8 8 59.67 2.24
4 -8 8 55.9 1.78
4 -8 9 7.67 0.57
4 -8 9 7.92 0.59
-4 7 7 0.42 0.15
-4 7 7 0.24 0.13
-4 7 6 43.4 1.63
-4 7 6 44.13 1.64
-4 7 5 -0.04 0.21
-4 7 5 0.02 0.23
4 -7 -4 138.91 5.34
-4 7 4 140.79 4.41
-4 7 4 139.25 4.31
4 -7 -3 8.01 1.14
-4 7 3 5.2 1.15
-4 7 3 6.49 1.05
-4 7 3 8.48 0.66
4 -7 -2 16.2 3.18
4 -7 -2 21.62 1.81
4 -7 -2 21.6 1.52
-4 7 2 19.39 1.87
4 -7 -1 296.11 9.69
4 -7 -1 297.79 9.19
4 -7 0 260.18 8.7
-4 7 0 260.12 9.34
4 -7 0 273.91 12.86
4 -7 0 258.03 8.35
4 -7 1 461 13.81
4 -7 1 424.12 18.33
4 -7 1 447.49 13.48
4 -7 2 183.25 5.22
4 -7 2 176.72 6.26
4 -7 2 151.1 9.44
4 -7 2 171.27 6.11
4 -7 2 160.17 5.37
-4 7 -2 187.8 7.52
4 -7 3 55.16 2.03
4 -7 3 44.1 4.67
4 -7 3 47.98 2.55
4 -7 3 44.66 2.09
-4 7 -3 49.1 3.47
4 -7 3 52.5 2.65
4 -7 4 26.66 1.27
4 -7 4 23.37 1.63
4 -7 4 22.86 1.38
-4 7 -4 28.6 2.67
4 -7 4 24.08 1.45
4 -7 5 147.56 4.4
4 -7 5 142.62 4.92
4 -7 5 133.89 4.61
-4 7 -5 143.17 6.77
4 -7 5 135.84 4.76
4 -7 6 16.16 0.94
4 -7 6 14.88 1.18
4 -7 6 15.25 1.09
4 -7 6 13.5 1.12
4 -7 7 61.97 2.21
4 -7 7 64.2 2.55
4 -7 7 58.05 2.46
4 -7 7 57.41 2.55
4 -7 8 0.04 0.21
4 -7 8 0.41 0.19
4 -7 8 0.06 0.29
4 -7 8 0.21 0.32
4 -7 9 1.16 0.28
4 -7 9 0.98 0.33
4 -7 9 1.24 0.21
4 -7 10 10.93 0.56
4 -7 10 1.58 0.28
-4 6 8 12.55 0.6
-4 6 8 13.48 0.67
-4 6 7 1.18 0.28
-4 6 7 1.02 0.26
-4 6 6 8.08 0.68
-4 6 6 8.07 0.59
-4 6 6 8.19 0.69
-4 6 5 4.87 0.56
-4 6 5 3.57 0.92
-4 6 5 4.19 0.52
-4 6 4 5.96 0.59
4 -6 -4 4.68 1.86
4 -6 -4 5.34 0.94
-4 6 4 4.92 1.11
-4 6 4 4.07 0.87
-4 6 3 46.81 1.88
4 -6 -3 44.91 2.69
-4 6 3 47.35 3.02
4 -6 -2 35.25 2.32
4 -6 -2 35.69 2.04
4 -6 -2 32.78 4.39
4 -6 -1 284.89 9.3
4 -6 -1 288.47 13.07
4 -6 -1 278.7 8.85
-4 6 1 312.76 10.18
4 -6 -1 256.55 13.36
4 -6 0 185.58 6.6
4 -6 0 186.05 9.91
4 -6 0 178.6 6.28
4 -6 0 180.52 10.17
4 -6 1 2.17 0.99
-4 6 -1 3.78 0.9
4 -6 1 3.98 0.74
4 -6 1 3.75 0.68
4 -6 1 3.76 1.39
4 -6 2 112.06 4.23
-4 6 -2 118.07 5.41
4 -6 3 72.62 2.62
4 -6 3 79.42 3.23
4 -6 3 66.39 3.03
4 -6 3 69.85 2.67
-4 6 -3 78.59 4.48
4 -6 3 69.76 2.75
4 -6 4 43.42 1.79
4 -6 4 41.98 2.13
4 -6 4 38.69 1.83
-4 6 -4 39.88 3.19
4 -6 4 39.48 1.94
4 -6 5 459.9 12.3
4 -6 5 453.91 12.86
4 -6 5 446.67 12.64
4 -6 5 455.53 12.51
-4 6 -5 457.49 15.49
4 -6 5 425.23 12.66
4 -6 6 103.83 3.49
4 -6 6 105.75 3.88
4 -6 6 107.53 3.75
4 -6 6 104.51 3.69
4 -6 6 100.04 3.85
4 -6 7 2.09 0.4
4 -6 7 1.52 0.44
4 -6 7 1.16 0.39
4 -6 7 1.54 0.5
4 -6 7 1.89 0.43
4 -6 8 30.67 1.63
4 -6 8 31.07 1.64
4 -6 8 30.13 1.57
4 -6 8 28.23 1.34
4 -6 9 0.33 0.2
4 -6 9 0.41 0.28
4 -6 10 21.8 1
4 -6 10 11.06 0.6
-4 5 9 1.46 0.18
-4 5 9 1.61 0.23
-4 5 8 84.83 2.63
-4 5 8 78.65 2.47
-4 5 7 0.49 0.27
-4 5 7 0.74 0.27
-4 5 7 0.49 0.19
-4 5 6 82.84 4.9
4 -5 -6 91.56 6.34
-4 5 6 97.33 3.26
-4 5 5 114.69 3.74
-4 5 5 112.62 3.74
4 -5 -5 116.6 7.04
-4 5 4 172.01 5.07
4 -5 -4 154.39 5.91
4 -5 -4 172.17 8.42
-4 5 4 161.82 7.17
-4 5 4 160.55 6.55
4 -5 -4 178.38 9.52
4 -5 -4 141.23 9.58
-4 5 3 538.94 14.28
4 -5 -3 556.77 17.92
4 -5 -3 503.36 15.38
4 -5 -3 538.5 19.85
-4 5 3 542.2 16.32
-4 5 2 16.07 0.87
4 -5 -2 11.38 2.25
4 -5 -2 11.78 1.21
4 -5 -2 15.16 2.41
4 -5 -2 14.4 1.17
-4 5 2 14.52 1.54
4 -5 -2 14.56 1.77
4 -5 -1 154.48 5.42
4 -5 -1 136.54 5.01
4 -5 -1 135.36 7.83
4 -5 -1 138.37 8.08
4 -5 0 93.3 6.08
4 -5 0 84.06 3.47
4 -5 0 88.52 6.03
4 -5 0 85.8 5.89
4 -5 1 73.25 3.06
4 -5 1 73.02 5.23
4 -5 1 62.93 2.83
-4 5 -1 75.74 3.87
4 -5 1 67.71 5.12
4 -5 1 59.91 4.65
4 -5 2 35.98 1.95
-4 5 -2 40.34 2.84
4 -5 2 34.93 1.89
4 -5 2 33.47 3.64
4 -5 3 204.05 6.06
4 -5 3 216.38 6.51
4 -5 3 219.39 6.57
4 -5 3 202.08 6.05
4 -5 3 196.22 6.44
-4 5 -3 226.48 8.45
4 -5 3 203.77 6.24
4 -5 3 188.27 10.01
4 -5 4 0.02 0.2
4 -5 4 0.18 0.31
4 -5 4 0.06 0.26
4 -5 4 0.26 0.27
-4 5 -4 0.11 0.39
4 -5 4 0.26 0.21
4 -5 4 0.34 0.25
4 -5 5 150.73 4.81
4 -5 5 139.78 5.57
4 -5 5 156.8 5.06
4 -5 5 153.41 5.01
4 -5 5 143 4.83
4 -5 6 38.05 1.9
4 -5 6 35.81 1.81
4 -5 6 33.15 2.36
4 -5 6 38.37 1.97
4 -5 6 35.03 1.85
4 -5 7 87 3.06
4 -5 7 85.51 3.21
4 -5 7 95.33 3.4
4 -5 7 78.21 4.09
4 -5 7 92.23 3.45
4 -5 7 83.6 3.31
4 -5 8 29.08 1.61
4 -5 8 31.87 1.68
4 -5 8 28.68 1.38
4 -5 9 3.01 0.48
4 -5 9 3.2 0.53
4 -5 9 2.72 0.38
4 -5 10 21.16 0.91
-4 4 10 6.76 0.35
-4 4 9 5.02 0.42
-4 4 9 5.49 0.47
-4 4 9 5.2 0.42
-4 4 8 19.55 1.05
-4 4 8 21.67 1.05
-4 4 7 18.11 1.06
-4 4 7 14.14 1.86
4 -4 -7 17.99 2.86
-4 4 7 18.43 1.1
4 -4 -6 25.01 3.36
-4 4 6 24.22 2.42
4 -4 -6 25.37 3.93
-4 4 6 31.5 1.49
-4 4 5 93.5 3.17
-4 4 5 85.14 4.68
4 -4 -5 82.08 6.58
-4 4 5 91.88 3.15
-4 4 4 46.57 1.85
4 -4 -4 44.9 2.38
-4 4 4 47.36 2.9
-4 4 4 48.08 1.89
-4 4 4 45.86 2.9
-4 4 4 42.81 2.98
4 -4 -4 46.69 3.95
4 -4 -4 39.9 3.88
4 -4 -4 50.43 4.57
-4 4 3 233.5 6.61
4 -4 -3 233.23 7.47
4 -4 -3 245.02 9.66
4 -4 -3 217.15 9.82
-4 4 3 239.41 8.22
4 -4 -2 2.77 0.98
4 -4 -2 2.46 0.91
4 -4 -2 2.43 0.53
4 -4 -2 1.56 0.64
-4 4 2 0.95 0.4
4 -4 -1 209.19 7.43
4 -4 -1 189.09 8.49
-4 4 1 201.02 7.04
4 -4 -1 180.04 8.27
4 -4 0 73.38 3.39
4 -4 0 62.49 4.31
-4 4 0 72.27 3.51
4 -4 0 65.54 4.19
4 -4 1 435.13 16.03
4 -4 1 476.19 12.85
4 -4 1 436.89 15.32
4 -4 2 11.29 0.86
-4 4 -2 11.17 1.35
4 -4 2 10.22 0.88
4 -4 2 11.75 1.88
4 -4 3 268.81 7.54
4 -4 3 266.1 7.78
4 -4 3 269.33 11.33
4 -4 3 251.79 8.24
-4 4 -3 269.91 9.54
4 -4 3 272.9 7.75
4 -4 4 63.72 2.24
4 -4 4 59.56 2.44
4 -4 4 55.28 2.74
4 -4 4 56.59 2.21
4 -4 4 58.53 2.97
4 -4 4 60.41 2.42
4 -4 4 53.64 4.5
4 -4 4 52.69 2.3
4 -4 5 1.14 0.3
4 -4 5 1.6 0.42
4 -4 5 1.88 0.61
4 -4 5 0.95 0.33
4 -4 5 0.66 0.34
4 -4 5 1.57 0.53
4 -4 5 1.44 0.35
4 -4 6 166.96 5.13
4 -4 6 168.19 5.38
4 -4 6 167.92 5.4
4 -4 6 168.8 5.38
4 -4 6 165.19 6.64
4 -4 6 172.39 5.53
4 -4 6 157.84 5.42
4 -4 7 88.31 3.05
4 -4 7 82.47 3.1
4 -4 7 88.83 3.31
4 -4 7 82.41 4.33
4 -4 7 85.42 3.33
4 -4 8 8.4 0.84
4 -4 8 8.01 0.83
4 -4 8 8.93 0.73
4 -4 9 14.25 0.97
4 -4 9 10.18 0.72
-4 3 10 18.16 0.87
-4 3 10 18.49 0.85
-4 3 9 0.1 0.2
-4 3 9 0.33 0.19
-4 3 9 0.34 0.21
-4 3 8 56.91 2.13
4 -3 -8 54.9 5.06
-4 3 8 53.79 2.16
4 -3 -7 -0.25 0.61
-4 3 7 0.59 0.25
-4 3 7 0.42 0.39
-4 3 6 128.53 4.23
-4 3 6 141.78 6.22
-4 3 6 139.65 4.2
4 -3 -6 137.24 8.27
-4 3 6 133.27 4.26
-4 3 5 62.84 2.25
-4 3 5 57.95 3.11
-4 3 5 62.93 3.52
4 -3 -5 54.85 4.51
4 -3 -5 62.43 4.65
-4 3 5 60.74 2.25
4 -3 -4 1.6 0.74
4 -3 -4 1.79 0.74
-4 3 4 1.5 0.28
-4 3 4 1.71 0.3
-4 3 4 1.79 0.57
-4 3 4 1.45 0.51
-4 3 4 1.33 0.52
4 -3 -4 1.04 0.71
4 -3 -3 171.08 7.24
-4 3 3 150.95 5.77
4 -3 -3 159.86 6.9
-4 3 3 160.25 5.92
4 -3 -2 574.19 18.41
-4 3 2 608.93 17.72
-4 3 2 613.68 17.36
4 -3 -2 651.92 18.74
4 -3 -2 621.65 18.47
-4 3 1 254.65 8.26
4 -3 -1 270.44 9.31
4 -3 -1 243.62 7.23
4 -3 -1 283.66 9.09
4 -3 -1 296.45 9.21
4 -3 0 141.88 6.1
-4 3 0 142.45 5.19
4 -3 0 133.48 4.45
4 -3 0 142.71 5.53
-4 3 -1 1031.79 27.58
4 -3 1 1018.39 26.93
4 -3 1 988.8 27.81
4 -3 2 287.79 10.51
-4 3 -2 274.36 9
4 -3 2 281.53 8.64
4 -3 3 361.49 9.64
4 -3 3 351.11 9.91
-4 3 -3 367.06 11.28
4 -3 3 333.77 10.27
4 -3 3 354.48 12.78
4 -3 3 350.3 10.84
4 -3 3 377.97 9.92
4 -3 3 331.16 9.8
4 -3 4 127.42 3.91
4 -3 4 127.47 4.16
4 -3 4 113.66 6.35
4 -3 4 121.47 4.54
4 -3 4 121.08 3.95
4 -3 4 119.93 5.07
4 -3 4 136.56 4.23
4 -3 4 119.47 4.14
4 -3 5 3.41 0.44
4 -3 5 3.94 0.57
4 -3 5 3.18 0.56
4 -3 5 1.81 0.58
4 -3 5 2.42 0.44
-4 3 -5 1.84 0.91
4 -3 5 2.78 0.52
4 -3 5 2.36 0.67
4 -3 5 3.22 0.52
4 -3 6 108.64 3.5
4 -3 6 100.62 3.65
-4 3 -6 111.69 6.83
4 -3 6 96.01 3.57
4 -3 6 112.05 3.88
4 -3 6 96.4 4.15
4 -3 6 103.81 3.73
4 -3 6 103.38 5
4 -3 6 103.78 3.16
4 -3 6 110.38 3.86
4 -3 7 28.79 1.6
4 -3 7 26.2 1.83
4 -3 7 28.58 1.63
4 -3 7 26.72 2.36
4 -3 7 27.17 1.6
4 -3 7 28.32 1.2
4 -3 7 28.81 1.4
4 -3 8 36.36 2.09
4 -3 8 35.93 1.74
4 -3 8 32.14 1.31
4 -3 8 34.62 1.53
4 -3 9 0.16 0.21
4 -3 9 0.05 0.09
-4 2 11 34.33 1.31
-4 2 11 35.24 1.3
-4 2 9 9.39 0.68
-4 2 9 10.68 0.79
-4 2 9 10.82 0.77
-4 2 8 11.61 0.8
4 -2 -8 9.42 2.16
-4 2 8 11.91 0.85
-4 2 7 296.32 8.19
-4 2 7 280.81 10.35
4 -2 -7 264.26 12.58
4 -2 -7 280.14 12.74
-4 2 7 293.37 8.26
-4 2 6 229.4 6.46
-4 2 6 217.51 8.24
4 -2 -6 196.89 10.03
4 -2 -6 216.29 9.79
-4 2 6 227.41 6.44
-4 2 5 5.65 0.88
-4 2 5 5.75 0.91
4 -2 -5 5.04 1.34
4 -2 -5 7.67 1.36
-4 2 5 5.71 0.51
-4 2 5 6.01 0.53
-4 2 4 14.69 1.39
4 -2 -4 14.62 1.54
-4 2 4 14.91 1.34
-4 2 3 94.45 4.04
4 -2 -3 87.43 4.1
4 -2 -3 97.62 4.86
-4 2 3 88.89 3.82
-4 2 3 89.67 3.82
4 -2 -2 124.52 5.13
4 -2 -2 135.45 5.68
-4 2 2 126.77 5.22
-4 2 2 130.31 4.65
-4 2 1 806.32 23.62
4 -2 -1 797.28 23.02
-4 2 1 840.49 23.07
4 -2 -1 855.66 23.62
-4 2 1 838.4 22.29
4 -2 0 10.82 1.24
-4 2 0 11.68 1.21
-4 2 0 9.62 0.88
4 -2 0 10.56 0.99
4 -2 0 12 1.36
-4 2 -1 133.72 5.11
4 -2 1 128.56 5.32
4 -2 1 128.27 4.82
-4 2 -2 9.78 1.12
4 -2 2 9.29 1.26
4 -2 2 9.88 1.08
4 -2 3 127.88 3.78
4 -2 3 124.55 4.04
-4 2 -3 128.75 6.55
4 -2 3 114.88 4.28
4 -2 3 128.61 5.83
4 -2 3 124.98 5.14
4 -2 3 130.59 4.08
4 -2 3 120.33 4.02
4 -2 4 245.28 6.82
4 -2 4 231.89 7.09
4 -2 4 254.2 7.27
4 -2 4 234.12 6.54
4 -2 4 224.78 7.46
4 -2 4 239.8 6.98
-4 2 -4 255 10.57
4 -2 4 260.48 7.23
4 -2 4 246.35 7.18
4 -2 5 19.57 1.04
-4 2 -5 20.92 2.7
4 -2 5 18.41 1.2
4 -2 5 20.89 1.29
4 -2 5 21.16 1.36
4 -2 5 16.75 1.37
4 -2 5 18.98 1.19
4 -2 5 20.04 0.94
4 -2 5 24.23 1.44
4 -2 6 56.86 2.11
4 -2 6 52.25 2.3
4 -2 6 52.05 2.33
4 -2 6 54.72 2.49
4 -2 6 47.73 2.57
4 -2 6 53.59 2.38
4 -2 6 52.66 2.38
4 -2 6 54.81 3.51
4 -2 6 55.87 1.98
4 -2 7 22.82 1.29
4 -2 7 21.34 1.41
4 -2 7 17.72 1.45
4 -2 7 20.72 2.09
4 -2 7 25.38 1.46
4 -2 7 21.6 1.06
4 -2 7 21.81 1.14
4 -2 8 2.74 0.33
4 -2 8 2.85 0.39
4 -2 9 16.13 0.77
4 -2 9 28.15 1.05
-4 1 12 3.19 0.3
-4 1 11 1.49 0.29
-4 1 11 1.3 0.3
-4 1 10 54.98 2.14
-4 1 9 18.32 1.01
-4 1 9 19.62 1.14
4 -1 -9 18.47 2.87
-4 1 9 20.68 1.1
-4 1 8 231.35 6.67
-4 1 8 235.4 6.73
-4 1 7 70.45 2.46
4 -1 -7 68.28 5.19
-4 1 7 68.39 2.46
-4 1 7 69.47 2.51
-4 1 6 131.64 4.02
4 -1 -6 131.53 7.18
-4 1 6 136.51 4.07
-4 1 6 129.62 4.06
-4 1 5 28 2.05
4 -1 -5 29.35 2.79
-4 1 4 289.77 9.14
4 -1 -4 273.18 8.95
4 -1 -4 301.55 10.43
-4 1 4 256.5 8.78
4 -1 -3 277.82 8.97
-4 1 3 270.31 8.97
-4 1 3 267.63 9.3
-4 1 3 282.99 8.42
-4 1 2 1.24 0.51
-4 1 2 2.38 0.59
-4 1 2 2.5 0.44
4 -1 -2 2.93 0.62
4 -1 -1 654.86 17.95
-4 1 1 633.69 17.87
-4 1 1 641.23 18.87
-4 1 1 603.67 16.85
4 -1 -1 657.27 18.66
-4 1 0 237.25 7.75
-4 1 0 224.33 8.63
-4 1 -1 3.63 0.7
-4 1 -1 3.39 0.92
4 -1 1 3.99 0.76
-4 1 -2 261.29 8.86
-4 1 -2 267.8 10.38
4 -1 2 290.4 9.25
4 -1 3 8.4 0.55
4 -1 3 6.55 0.66
4 -1 3 8.23 1.16
4 -1 3 7.39 0.69
4 -1 3 7.13 1.07
4 -1 4 234.23 6.46
4 -1 4 234.66 6.92
4 -1 4 245.66 7.09
4 -1 4 227.48 6.78
-4 1 -4 216.97 9.88
4 -1 4 239.15 8.57
4 -1 4 236.48 6.42
4 -1 5 261.87 7.18
4 -1 5 256.78 7.67
-4 1 -5 266.56 11.14
4 -1 5 259.69 7.77
4 -1 5 272.95 7.92
4 -1 5 242.12 7.56
4 -1 5 270.23 7.18
4 -1 5 253.91 9.41
4 -1 5 264.32 7.68
4 -1 6 13.55 1.06
4 -1 6 13.89 1.16
4 -1 6 10.44 1.06
4 -1 6 11.84 1.59
-4 1 -6 14.94 3.96
4 -1 6 13.55 0.82
4 -1 6 12.91 0.81
4 -1 7 0.52 0.19
4 -1 7 0.32 0.27
4 -1 7 0.08 0.31
4 -1 7 0.32 0.19
4 -1 8 10.25 0.71
4 -1 8 8.21 0.75
4 -1 8 10 0.63
4 -1 9 16.48 0.69
-4 0 12 15.47 0.79
-4 0 12 15.9 0.79
-4 0 11 5.1 0.5
-4 0 11 5.48 0.54
-4 0 11 5.68 0.56
-4 0 10 79.54 2.84
-4 0 9 54.23 2.02
-4 0 9 54.34 2.16
4 0 -9 50.89 4.6
-4 0 9 49.06 2.04
4 0 -8 74.07 5.44
-4 0 8 74.92 2.6
4 0 -8 78.74 5.22
-4 0 8 71.87 2.59
-4 0 7 17.72 0.97
4 0 -7 19.01 2.51
-4 0 7 18.26 1.04
-4 0 7 18.15 0.99
-4 0 6 138.22 5.92
-4 0 6 144.21 4.32
-4 0 6 153.88 4.5
-4 0 6 149.99 4.44
4 0 -6 154.01 7.29
-4 0 6 137.25 4.31
-4 0 5 1.92 0.63
4 0 -5 1.6 0.75
4 0 -5 1.75 0.49
4 0 -4 2.66 0.81
-4 0 4 1.12 0.49
-4 0 4 2.55 0.75
4 0 -4 1.17 0.43
-4 0 3 1100.62 33.21
-4 0 3 1111.41 32.07
4 0 -3 1205.33 32.08
-4 0 2 49.74 2.77
-4 0 2 44.07 3.31
4 0 -2 55.84 3.22
-4 0 2 48.97 3.25
-4 0 1 1300.37 35.78
-4 0 1 1357.51 36.75
4 0 -1 1348.24 36.59
4 0 0 1698.42 46.15
-4 0 0 1802.84 47.82
-4 0 0 1749.13 46.45
4 0 0 1774.98 46.56
-4 0 -1 217.14 7.68
4 0 1 234.48 7.62
-4 0 -1 219.65 8.87
4 0 1 207.73 7.82
4 0 2 655.19 17.56
4 0 2 719.43 19.08
4 0 2 641.01 17.51
-4 0 -2 662.66 20.81
4 0 2 662.11 19.38
4 0 2 644.92 17.5
-4 0 -3 91.49 5.52
4 0 3 90.26 3.35
4 0 3 97.4 3.42
4 0 3 96.26 4.69
4 0 4 42.06 2.02
-4 0 -4 41.37 3.71
4 0 4 42.95 3.01
4 0 5 29.64 1.66
4 0 5 33.62 1.78
4 0 5 30.36 1.8
4 0 5 32.8 1.41
-4 0 -5 35.06 5.99
4 0 5 31.28 2.58
4 0 6 1.91 0.47
4 0 6 1.71 0.5
-4 0 -6 2.89 2.03
4 0 6 1.9 0.67
4 0 6 2.33 0.35
4 0 7 1.35 0.35
4 0 7 1.06 0.43
4 0 7 1.8 0.3
4 0 8 2.04 0.32
4 0 8 2.2 0.38
4 0 8 1.87 0.26
4 0 9 9.77 0.43
-4 -1 12 34.75 1.4
-4 -1 12 35.95 1.46
-4 -1 11 10.53 0.78
-4 -1 11 9.6 0.73
-4 -1 10 45.2 1.9
-4 -1 9 10.83 0.76
-4 -1 9 12.11 0.84
4 1 -9 10.57 1.95
-4 -1 9 9.72 0.67
-4 -1 8 159.05 4.68
-4 -1 8 159.92 4.71
4 1 -8 145.11 7.71
-4 -1 8 143.55 4.49
-4 -1 7 34.57 1.49
4 1 -7 36.13 3.27
-4 -1 7 33.03 1.66
-4 -1 7 35.23 1.65
-4 -1 6 101.88 5.21
-4 -1 6 105.44 3.38
4 1 -6 110.73 5.79
-4 -1 6 114.16 3.65
-4 -1 6 108.47 3.55
-4 -1 5 1.46 0.26
-4 -1 5 1.77 0.99
-4 -1 5 0.95 0.53
-4 -1 5 1.37 0.66
4 1 -5 0.7 0.56
4 1 -4 201.71 7.87
-4 -1 4 197.12 7.52
-4 -1 4 216.55 9.47
-4 -1 4 185.16 8.35
-4 -1 3 499.89 15.81
-4 -1 3 559.04 17.66
-4 -1 3 521.29 17.25
4 1 -3 541.76 16.36
-4 -1 2 16.13 1.64
-4 -1 2 18.29 2.04
4 1 -2 16.72 1.84
-4 -1 1 291.25 9.82
-4 -1 1 287.04 10.28
-4 -1 1 304.62 11.06
4 1 -1 284.64 10.44
-4 -1 0 25.94 2.1
4 1 0 22.28 2.02
-4 -1 0 27.45 2.67
-4 -1 -1 199.55 7.54
4 1 1 190.98 5.78
-4 -1 -1 206.14 8.76
4 1 1 192.49 7.46
4 1 2 137.29 4.64
4 1 2 135.11 4.53
-4 -1 -2 140.41 7.22
4 1 2 138.7 6.13
4 1 3 359.24 10.67
4 1 3 383.05 10.6
-4 -1 -3 377.65 14.28
4 1 3 370.72 10.69
-4 -1 -3 353.66 18.96
4 1 3 388.22 12.57
4 1 4 4.59 0.67
4 1 4 6.27 0.73
4 1 4 5.35 0.73
-4 -1 -4 5.26 2.47
4 1 4 5.94 1.14
4 1 5 44.17 2.11
-4 -1 -5 38.57 6.25
4 1 5 47.76 3.14
4 1 5 42.27 1.74
4 1 6 33.59 1.88
4 1 6 33.77 1.46
4 1 7 11.05 0.8
4 1 7 11.24 0.93
4 1 7 10.82 0.67
4 1 8 2.6 0.29
4 1 8 2.24 0.31
4 1 8 2.7 0.26
-4 -2 12 49.37 1.68
-4 -2 12 46.53 1.82
-4 -2 11 14.9 0.98
-4 -2 11 15.7 0.92
-4 -2 11 14.19 0.99
-4 -2 11 13.95 0.73
-4 -2 10 107.49 3.49
-4 -2 10 109.91 3.73
-4 -2 10 100.68 3.31
-4 -2 9 160.91 4.92
-4 -2 9 153.85 4.86
-4 -2 8 170.26 5.24
-4 -2 8 178.43 5.14
4 2 -8 180.17 8.21
-4 -2 8 162.23 5.74
-4 -2 8 179.15 5.22
-4 -2 7 39.09 1.68
4 2 -7 40.47 3.29
-4 -2 7 40.78 2.01
-4 -2 7 39.61 1.94
-4 -2 6 57.78 2.18
-4 -2 6 60.25 5.48
4 2 -6 57.89 3.85
-4 -2 6 63.49 2.48
-4 -2 6 61.1 2.61
-4 -2 6 60.64 2.44
-4 -2 5 47.19 3.49
-4 -2 5 52.15 1.98
-4 -2 5 56.17 4.77
4 2 -5 53.42 3.49
-4 -2 5 45.45 4.01
-4 -2 5 57.41 2.39
-4 -2 5 50.97 2.14
-4 -2 4 19.67 1.04
-4 -2 4 19.95 2.7
4 2 -4 21.22 2.08
-4 -2 4 19.8 2.57
-4 -2 4 20.51 1.11
-4 -2 4 20.68 1.16
-4 -2 3 30.14 2.53
-4 -2 3 30.7 3.02
4 2 -3 27 2.35
-4 -2 3 27.3 2.98
-4 -2 2 330.87 11.58
-4 -2 2 386.95 12.87
-4 -2 2 353.29 13.15
4 2 -2 321.26 12.35
-4 -2 2 290.36 12.76
4 2 -1 101.83 3.68
-4 -2 1 104.28 5.18
-4 -2 1 110.67 5.58
-4 -2 1 101.92 6.02
4 2 -1 98.47 5.51
-4 -2 1 95.04 6.77
-4 -2 0 316.89 11.78
4 2 0 334.79 9.9
4 2 0 335.13 9.55
4 2 0 338.41 11.81
-4 -2 0 363.64 13.5
-4 -2 0 353.92 15.9
-4 -2 0 366.58 9.9
-4 -2 -1 24.29 2.42
4 2 1 28.58 1.49
-4 -2 -1 27.88 3.15
-4 -2 -1 30.69 4.47
4 2 1 28.18 2.44
4 2 2 26.24 1.62
4 2 2 30.55 2.2
4 2 2 27.99 1.48
4 2 2 28.41 1.58
-4 -2 -2 31.44 3.33
-4 -2 -2 27.67 4.65
4 2 2 25.28 2.36
4 2 3 38.86 1.9
4 2 3 38.43 2.04
-4 -2 -3 43.55 4.03
4 2 3 44.19 3.04
4 2 4 2 0.46
4 2 4 2.08 0.55
-4 -2 -4 4.36 2.21
4 2 4 2.71 0.77
4 2 5 5.57 0.51
4 2 5 5.89 0.69
4 2 5 5.25 0.77
4 2 6 30.86 1.53
4 2 6 33.82 1.37
4 2 7 9.63 0.72
4 2 7 8.58 0.52
-4 -3 12 8.14 0.65
-4 -3 11 0.27 0.28
-4 -3 11 0.54 0.22
-4 -3 11 0.34 0.31
-4 -3 11 0.62 0.23
-4 -3 10 32.66 1.7
-4 -3 10 31.93 1.67
-4 -3 10 30.01 1.42
-4 -3 9 14.79 1.06
-4 -3 9 13.73 0.91
-4 -3 8 37.99 1.76
-4 -3 8 39.89 2.27
-4 -3 8 36.17 2.13
-4 -3 7 1.15 0.33
-4 -3 7 -0.27 0.76
-4 -3 7 0.95 0.4
-4 -3 7 1.04 0.3
-4 -3 7 0.97 0.44
-4 -3 7 1.3 0.52
-4 -3 6 62.06 2.47
-4 -3 6 66.4 3.08
4 3 -6 62.8 3.97
-4 -3 6 69.6 2.47
-4 -3 6 69.77 2.93
-4 -3 5 72.77 2.77
4 3 -5 78.95 4.41
-4 -3 5 82.23 3.08
-4 -3 5 83.22 6.03
-4 -3 5 82.09 3.34
-4 -3 5 75.12 3.14
-4 -3 4 31.64 3.46
-4 -3 4 31.98 1.45
-4 -3 4 29.33 1.55
-4 -3 4 34.55 1.8
-4 -3 4 28.35 3.51
-4 -3 3 25.69 2.64
4 3 -3 23.77 2.87
-4 -3 3 27.57 1.43
-4 -3 3 30.33 1.73
-4 -3 3 26.91 1.61
-4 -3 2 136.45 7.31
-4 -3 2 197.56 8.87
4 3 -2 175.73 8.47
-4 -3 2 180.86 5.36
-4 -3 2 173.65 9.09
-4 -3 2 147.55 8.49
-4 -3 2 179.49 5.78
-4 -3 2 168.72 5.75
4 3 -1 19.55 2.35
-4 -3 1 16.02 2.88
-4 -3 1 20.1 2.78
-4 -3 1 19.49 1.37
-4 -3 1 15.11 1.28
-4 -3 0 0.18 0.44
4 3 0 0.19 0.18
4 3 0 0.09 0.2
4 3 0 0.31 0.35
-4 -3 0 0.29 0.91
-4 -3 0 0.22 0.31
4 3 1 209.61 6.28
4 3 1 206.62 6.52
-4 -3 -1 204.28 10.3
-4 -3 -1 198.66 12.8
4 3 1 228.54 8.56
4 3 2 13.16 0.98
4 3 2 13.85 1.14
-4 -3 -2 12.93 2.31
-4 -3 -2 11.41 3.13
4 3 2 17.49 1.85
4 3 3 68.03 2.7
4 3 3 66.42 2.94
-4 -3 -3 62.81 7.47
4 3 3 73.26 3.94
4 3 4 25.58 1.41
4 3 4 24.96 1.61
4 3 5 4.57 0.42
4 3 5 4.59 0.54
4 3 5 5.26 0.47
4 3 5 3.99 0.64
4 3 6 2.3 0.34
4 3 6 2.04 0.26
4 3 7 0.17 0.1
4 3 7 0.14 0.08
-4 -4 12 11.91 0.86
-4 -4 12 11.5 0.58
-4 -4 11 46.21 2.15
-4 -4 11 50.07 2.22
-4 -4 11 50.94 1.88
-4 -4 10 33.3 1.8
-4 -4 10 33.6 1.54
-4 -4 9 0.91 0.4
-4 -4 9 0.9 0.53
4 4 -9 0.75 0.93
-4 -4 9 0.6 0.34
-4 -4 8 0.26 0.31
-4 -4 8 0.65 0.41
4 4 -8 0.24 0.69
-4 -4 8 0.41 0.31
-4 -4 8 0.16 0.38
-4 -4 7 55.37 2.36
-4 -4 7 49.95 2.68
4 4 -7 53.57 5.21
-4 -4 7 50.93 2.22
-4 -4 7 44.97 2.63
-4 -4 7 45.07 2.85
-4 -4 6 1.03 1.08
-4 -4 6 2.99 0.49
4 4 -6 1.5 1
-4 -4 6 3.59 0.68
-4 -4 6 2.43 0.45
-4 -4 6 1.25 0.5
-4 -4 6 2.82 0.69
-4 -4 5 0.68 0.84
-4 -4 5 1.67 0.38
-4 -4 5 0.73 0.53
4 4 -5 1.8 1.09
-4 -4 5 1.21 0.46
-4 -4 5 1.77 0.63
-4 -4 4 43.59 2.02
4 4 -4 50.44 3.69
-4 -4 4 45.03 2.22
4 4 -4 38.21 3.99
-4 -4 4 43.78 2.48
-4 -4 4 38.3 2.32
-4 -4 3 98.43 6.6
4 4 -3 75.99 5.64
-4 -4 3 85.36 3.33
-4 -4 3 96.8 7.03
4 4 -3 98.45 5.42
-4 -4 3 84.21 3.7
-4 -4 3 73.08 3.52
-4 -4 2 5.91 1.62
4 4 -2 5.63 1.45
-4 -4 2 7.06 1.89
-4 -4 2 5.93 0.91
-4 -4 2 4.02 0.79
4 4 -1 42.27 3.56
-4 -4 1 42.24 4.45
-4 -4 1 39.97 2.4
4 4 0 4.46 1.02
4 4 0 4.26 0.62
-4 -4 0 4.95 1.6
-4 -4 0 3.02 1.47
4 4 0 4.78 1.03
-4 -4 0 3.5 0.77
4 4 1 49.81 2.09
4 4 1 51.98 2.4
-4 -4 -1 51.88 4.93
-4 -4 -1 45.37 5.77
4 4 1 52.97 3.36
4 4 2 138.03 4.43
-4 -4 -2 140.98 5.96
4 4 2 137.84 4.84
4 4 3 3.65 0.5
4 4 3 4.24 0.66
4 4 4 24.88 1.15
4 4 4 23.16 1.21
4 4 4 22.82 1.42
4 4 4 27.43 1.16
4 4 5 0.99 0.18
4 4 5 1.02 0.23
4 4 5 1.01 0.33
4 4 5 1.23 0.21
4 4 6 6.6 0.4
4 4 6 7.64 0.37
-4 -5 12 0.78 0.26
-4 -5 12 0.91 0.32
-4 -5 12 1.22 0.21
-4 -5 11 17.25 1.21
-4 -5 11 16.18 1.16
-4 -5 10 0.16 0.32
-4 -5 10 0.16 0.24
-4 -5 9 9.72 0.99
-4 -5 9 9.22 0.93
-4 -5 9 9.84 0.78
-4 -5 8 17.89 1.35
-4 -5 8 13.97 1.5
4 5 -8 12.75 2.6
-4 -5 8 16.97 1.26
-4 -5 8 15.8 1.75
4 5 -7 64.29 5.79
-4 -5 7 71.58 3.02
-4 -5 7 56.45 3.22
-4 -5 7 63.78 3.75
-4 -5 7 61.29 7.65
-4 -5 7 67.77 2.91
-4 -5 6 109.61 4.06
-4 -5 6 109.54 4.76
-4 -5 6 96.39 4.31
4 5 -6 94.61 7.03
-4 -5 6 95.7 4.8
-4 -5 6 105.4 4.03
-4 -5 5 13.45 2.75
-4 -5 5 10.94 1.03
-4 -5 5 9.93 1.41
-4 -5 5 10.39 1.17
4 5 -5 10.97 1.85
-4 -5 4 12.85 2.58
-4 -5 4 10.1 2.42
-4 -5 4 11.05 1.5
-4 -5 4 10.15 1.13
4 5 -4 10.94 2.19
-4 -5 4 7.99 1.2
4 5 -4 12.11 1.94
-4 -5 3 7.25 2.12
-4 -5 3 10.54 2.31
-4 -5 3 7.54 0.97
-4 -5 3 10.24 1.35
4 5 -3 9.85 1.94
4 5 -3 9.47 1.72
-4 -5 2 0.98 0.97
-4 -5 2 0.27 0.6
4 5 -2 0.76 0.64
-4 -5 2 0.15 0.45
-4 -5 1 79.32 4.31
4 5 -1 91.01 5.17
-4 -5 1 79.55 6.52
-4 -5 1 71.66 3.93
-4 -5 1 85.71 8.73
-4 -5 0 11 1.56
-4 -5 0 10.28 2.26
-4 -5 -1 144.58 6.19
4 5 1 148.75 4.97
4 5 2 33.02 1.45
-4 -5 -2 31.56 2.28
4 5 2 34.59 1.77
4 5 3 0.78 0.24
-4 -5 -3 0.64 0.43
4 5 3 0.83 0.23
4 5 3 0.61 0.31
4 5 4 12.69 0.63
4 5 4 12.44 0.66
4 5 4 11.86 0.8
4 5 4 12.91 0.62
4 5 5 3.34 0.21
-4 -6 12 7.16 0.64
-4 -6 11 2.01 0.46
-4 -6 11 3.45 0.37
-4 -6 10 0.99 0.41
-4 -6 10 0.82 0.44
-4 -6 10 1.2 0.24
-4 -6 10 1.23 0.31
-4 -6 9 39.26 2.25
-4 -6 9 42.14 2.33
-4 -6 8 2.36 0.62
-4 -6 8 1.47 0.53
-4 -6 8 1.6 0.74
-4 -6 8 2.54 0.44
-4 -6 7 3.47 0.83
-4 -6 7 3.95 0.75
-4 -6 7 3.73 0.73
-4 -6 7 4.91 1.15
-4 -6 6 2.68 1.98
-4 -6 6 3.01 0.7
-4 -6 6 3.5 0.84
4 6 -6 1.79 0.97
-4 -6 6 3 0.76
-4 -6 6 3.46 1.02
-4 -6 5 68.95 3.3
-4 -6 5 74.16 4.19
-4 -6 4 5.44 2.55
-4 -6 4 5.84 1.18
4 6 -4 5.09 1.4
-4 -6 4 2.88 0.73
-4 -6 4 4.48 1.09
4 6 -3 38.22 3.57
-4 -6 3 38.7 6.12
-4 -6 3 35.52 2.78
-4 -6 2 25.08 2.27
4 6 -2 26.99 2.74
-4 -6 2 27.03 2.36
-4 -6 2 23.77 4.65
-4 -6 1 19.33 1.93
-4 -6 1 17.36 1.87
-4 -6 0 96.68 4.57
-4 -6 -1 34.41 2.23
-4 -6 -1 35.74 2.3
4 6 1 35.64 1.64
4 6 2 0.62 0.22
-4 -6 -2 0.35 0.4
4 6 3 5.01 0.32
-4 -7 11 0.29 0.23
-4 -7 11 0.45 0.14
-4 -7 10 1.51 0.47
-4 -7 10 1.6 0.46
-4 -7 10 1.94 0.26
-4 -7 10 2.52 0.33
-4 -7 9 33.17 2.09
-4 -7 9 33.33 2.09
-4 -7 9 46.04 1.74
-4 -7 9 51.64 1.75
-4 -7 8 82.64 3.93
-4 -7 8 109.39 4.76
-4 -7 8 81 3.89
-4 -7 8 125.48 3.41
-4 -7 7 1.45 0.52
-4 -7 7 1.64 0.83
-4 -7 7 2.16 0.35
-4 -7 6 1.55 0.56
-4 -7 6 2.61 0.65
-4 -7 5 7.18 0.93
-4 -7 5 8.89 1.1
-4 -7 5 9.68 1.24
-4 -7 5 9.44 1.53
-4 -7 4 2.16 0.63
-4 -7 4 2.02 0.74
-4 -7 4 1.37 0.87
-4 -7 3 34.92 2.27
-4 -7 3 35.95 2.51
-4 -7 3 34.19 2.64
-4 -7 2 25.55 2.07
-4 -7 2 30.56 2.35
-4 -7 1 37.64 2.3
-4 -7 1 42.01 2.52
-4 -7 0 38.21 2.15
-4 -7 0 39.47 2.2
4 7 1 6.28 0.42
-4 -7 -1 5.48 0.69
-4 -7 -1 5.27 0.63
4 7 2 2.3 0.2
-4 -8 10 0.66 0.26
-4 -8 9 8.65 0.53
-4 -8 9 8.56 0.46
-4 -8 8 1.4 0.45
-4 -8 8 1.9 0.25
-4 -8 7 2.81 0.6
-4 -8 7 3.56 0.83
-4 -8 6 -0.3 0.35
-4 -8 6 0.07 0.27
-4 -8 5 5.8 0.63
-4 -8 5 7.16 0.88
-4 -8 5 6.54 1.13
-4 -8 4 3.09 0.55
-4 -8 4 3.78 0.7
-4 -8 4 3.19 0.83
-4 -8 3 11.49 1.01
-4 -8 3 12.61 1.16
-4 -8 3 12.77 1.34
4 8 -2 11.98 0.59
-4 -8 2 12.5 1.1
4 8 -1 60.77 1.85
-4 -8 1 58.26 2.41
4 8 0 0.03 0.06
-4 -8 0 0.15 0.17
-4 -9 7 0.77 0.16
-4 -9 4 0.7 0.22
-4 -9 3 2.07 0.3
5 -11 2 6.09 0.45
5 -11 3 12.06 0.65
5 -10 -1 2.31 0.33
5 -10 0 34.03 1.54
5 -10 1 8.76 0.65
5 -10 1 11.38 0.88
5 -10 2 0.83 0.31
5 -10 2 0.5 0.33
5 -10 3 28.27 1.39
5 -10 4 2.27 0.43
5 -10 4 2.54 0.44
5 -10 4 2.56 0.31
5 -10 5 8.69 0.66
5 -10 5 8.74 0.53
5 -10 6 0.14 0.18
5 -10 6 0.28 0.13
-5 9 4 20.25 0.77
-5 9 4 18.8 0.75
5 -9 -3 9.98 0.89
-5 9 3 9.65 0.54
5 -9 -2 53.22 2.52
-5 9 2 50.63 1.73
5 -9 -1 1.26 0.55
5 -9 -1 0.78 0.38
5 -9 0 14.56 1.35
5 -9 0 16.82 1.29
5 -9 1 40.19 2.3
5 -9 1 45.3 2.26
5 -9 1 41.17 1.98
5 -9 2 3.93 0.63
5 -9 2 2.7 0.63
5 -9 3 66.28 2.74
5 -9 3 63.17 2.34
5 -9 4 0.14 0.35
5 -9 4 0.11 0.33
5 -9 4 0.16 0.2
5 -9 5 4.95 0.63
5 -9 5 4.56 0.57
5 -9 5 4.4 0.48
5 -9 6 13.75 0.93
5 -9 6 13.45 0.8
5 -9 6 12.21 0.79
5 -9 7 4.82 0.45
5 -9 7 5.27 0.43
5 -9 7 4.45 0.44
-5 8 6 17.98 0.69
-5 8 6 15.67 0.64
-5 8 5 20.22 0.87
-5 8 5 20.4 0.87
5 -8 -4 20.13 1.4
-5 8 4 20.29 0.98
-5 8 4 19.25 0.9
5 -8 -3 2.74 0.66
-5 8 3 1.66 0.31
5 -8 -2 4.35 0.84
-5 8 2 4.25 0.46
5 -8 -2 4.76 0.71
5 -8 -1 110.57 4.74
5 -8 -1 111.67 4.3
5 -8 0 0.3 0.33
5 -8 0 0.81 0.63
5 -8 0 0.3 0.46
-5 8 0 0.51 0.37
5 -8 1 207.91 6.05
5 -8 1 218.51 6.8
5 -8 1 207.76 7.32
5 -8 1 224.18 7.18
-5 8 -1 195.23 7.91
5 -8 2 60.02 2.19
5 -8 2 60.76 2.76
5 -8 2 59.81 3.01
5 -8 2 62.63 2.98
-5 8 -2 58.07 3.6
5 -8 3 1.61 0.31
5 -8 3 1.47 0.53
5 -8 3 1.04 0.5
5 -8 3 1.23 0.33
5 -8 4 1.77 0.31
5 -8 4 1.67 0.51
5 -8 4 1.41 0.49
5 -8 4 1.5 0.36
5 -8 5 22.56 1.04
5 -8 5 18.13 1.23
5 -8 5 19.26 1.15
5 -8 5 21.01 1.26
5 -8 6 9.07 0.59
5 -8 6 7.68 0.8
5 -8 6 10.09 0.76
5 -8 6 9.77 0.82
5 -8 7 3.2 0.46
5 -8 7 3.51 0.45
5 -8 7 3.51 0.5
5 -8 7 4.39 0.35
5 -8 8 17.79 0.86
5 -8 8 18.07 0.93
5 -8 8 15.33 0.63
-5 7 7 13.05 0.63
-5 7 6 56.81 1.94
-5 7 6 53.19 1.8
-5 7 6 57.04 1.94
-5 7 5 6.32 0.56
-5 7 5 6.31 0.54
5 -7 -4 145.12 5.31
-5 7 4 137.2 4.27
-5 7 4 132.99 4.19
-5 7 3 0.97 0.26
5 -7 -3 0.5 0.48
-5 7 3 1.47 0.34
-5 7 3 0.74 0.4
5 -7 -2 21.44 1.81
-5 7 2 20.74 1.13
5 -7 -2 21.29 1.55
-5 7 2 18.2 1.89
5 -7 -1 153.69 6.18
-5 7 1 153.53 6.67
5 -7 0 75.12 3.16
5 -7 0 78.71 3.77
5 -7 0 75.79 3.48
-5 7 0 80.19 4.31
5 -7 1 1.16 0.49
5 -7 1 0.68 0.47
5 -7 1 0.68 0.51
-5 7 -1 0.38 0.38
5 -7 2 2.05 0.38
5 -7 2 1.82 0.52
5 -7 2 1.53 0.54
-5 7 -2 1.76 0.66
5 -7 3 1.96 0.38
5 -7 3 1.58 0.52
5 -7 3 1.68 0.56
-5 7 -3 1.19 0.59
5 -7 4 16.27 1.35
5 -7 4 17.25 1.35
5 -7 4 17.67 1.14
5 -7 4 20.68 1.31
5 -7 5 108.35 3.44
5 -7 5 97.94 3.67
5 -7 5 98.41 3.56
5 -7 5 106.66 3.81
5 -7 6 23.78 1.19
5 -7 6 24.62 1.49
5 -7 6 24.84 1.36
5 -7 6 23.07 1.44
5 -7 7 0.21 0.18
5 -7 7 0.27 0.3
5 -7 7 0.6 0.24
5 -7 7 0.54 0.35
5 -7 8 0.57 0.17
5 -7 8 0.75 0.22
5 -7 8 0.19 0.27
5 -7 9 5.6 0.47
5 -7 9 3.64 0.27
-5 6 8 40.94 1.38
-5 6 8 39.09 1.41
-5 6 7 0.41 0.23
-5 6 7 0.49 0.15
-5 6 6 46.24 1.85
-5 6 6 44.47 1.76
-5 6 6 47.74 1.87
-5 6 5 26.34 1.35
-5 6 5 27.21 1.35
5 -6 -4 10.04 1.22
-5 6 4 10.54 0.82
-5 6 4 12.18 0.85
5 -6 -3 135.19 5.45
-5 6 3 139.46 4.4
-5 6 3 130.63 6.34
5 -6 -3 136.47 4.98
-5 6 3 139.33 6.09
-5 6 3 145.8 4.37
5 -6 -2 9.22 2.39
5 -6 -2 11.22 1.3
-5 6 2 12.35 0.84
5 -6 -2 10.41 1.1
-5 6 2 12.89 1.57
5 -6 -1 636.09 18.29
5 -6 -1 603.88 17.74
5 -6 0 339.98 10.19
5 -6 0 341.44 10.88
5 -6 0 339.21 10.55
5 -6 0 332.17 15.11
5 -6 1 27.83 1.7
5 -6 1 30.35 2.02
5 -6 1 27.07 1.81
-5 6 -1 33.77 2.61
5 -6 1 24.77 3.54
5 -6 2 145 5.21
5 -6 2 148.09 5.34
5 -6 3 7.99 0.72
5 -6 3 8.1 0.94
5 -6 3 7.46 0.9
-5 6 -3 7.66 1.3
5 -6 3 7.55 0.8
5 -6 4 7.71 0.72
5 -6 4 9.22 0.96
5 -6 4 8.8 0.92
5 -6 4 7.69 0.72
5 -6 4 8.1 0.86
5 -6 5 203.23 6.5
5 -6 5 201.17 6.12
5 -6 5 190.89 6.37
5 -6 6 36.37 1.88
5 -6 6 35.48 1.76
5 -6 6 33.16 1.86
5 -6 7 1.16 0.35
5 -6 7 2.02 0.41
5 -6 7 1.21 0.44
5 -6 8 7.44 0.64
5 -6 8 6.9 0.69
5 -6 9 26.31 1.14
-5 5 9 1.15 0.18
-5 5 9 1.04 0.15
-5 5 8 61.83 2.14
-5 5 8 61.52 2.03
-5 5 8 63.58 2.22
-5 5 7 2.77 0.37
-5 5 7 3.16 0.45
-5 5 6 86.63 3.11
-5 5 6 91.24 3.1
-5 5 6 91.97 3.16
-5 5 5 0.42 0.28
-5 5 5 0.52 0.27
5 -5 -5 0.32 0.56
5 -5 -4 51.08 2.82
-5 5 4 53.45 2.17
-5 5 4 53.04 3.48
5 -5 -4 55.49 4.32
-5 5 4 54.63 3.39
5 -5 -4 47.19 5.16
-5 5 4 57.7 2.2
5 -5 -3 558.18 16.44
-5 5 3 576.15 15.25
-5 5 3 539.68 17.77
5 -5 -3 539.27 15.89
-5 5 3 610.03 17.6
5 -5 -3 506.49 20.12
5 -5 -3 503.88 20.81
5 -5 -3 615.43 18.99
-5 5 3 584.41 15.26
5 -5 -2 35.91 2.21
-5 5 2 35.39 1.51
5 -5 -2 31.95 1.92
-5 5 2 34.53 2.56
5 -5 -2 32.56 3.68
5 -5 -2 27.16 3.5
5 -5 -1 19.84 1.56
5 -5 -1 19.92 1.44
5 -5 -1 12.66 2.3
-5 5 1 19.34 1.83
5 -5 -1 15.09 2.47
5 -5 0 79.28 3.12
5 -5 0 81.41 3.34
5 -5 0 75.42 5.64
-5 5 0 81.66 4.15
5 -5 0 69.48 5.33
5 -5 1 20.86 1.39
-5 5 -1 23.9 2.07
5 -5 2 110.97 4.1
5 -5 2 116.6 4.19
-5 5 -2 111.46 5.16
5 -5 3 221.64 6.52
5 -5 3 228.18 7.02
-5 5 -3 230.04 8.92
5 -5 3 225.01 6.92
5 -5 3 203.52 6.68
5 -5 3 201.93 10.91
5 -5 4 155.03 4.81
5 -5 4 151.01 4.99
5 -5 4 145.32 4.76
5 -5 4 154.23 5.12
5 -5 5 32.6 1.63
5 -5 5 36.86 1.97
5 -5 5 34.61 1.86
5 -5 5 33.25 1.71
5 -5 5 32.29 1.88
5 -5 6 0.4 0.37
5 -5 6 0.33 0.3
5 -5 6 0.71 0.32
5 -5 6 0.54 0.42
5 -5 7 3.06 0.43
5 -5 7 2 0.44
5 -5 7 2.87 0.47
5 -5 7 2.82 0.57
5 -5 8 0.23 0.22
5 -5 8 4.21 0.54
5 -5 9 11.61 0.61
-5 4 10 54.58 1.67
-5 4 9 0.09 0.19
-5 4 9 0.01 0.16
-5 4 9 -0.03 0.14
-5 4 8 88.43 2.95
-5 4 8 86.67 3
5 -4 -7 29.3 3.56
-5 4 7 32.68 1.47
-5 4 7 32.79 1.57
5 -4 -6 0.51 0.8
-5 4 6 0.54 0.29
-5 4 6 0.47 0.28
5 -4 -6 0.37 0.64
-5 4 6 0.74 0.3
-5 4 5 163.18 5.04
5 -4 -5 165.85 8.64
5 -4 -5 150.08 9.07
-5 4 5 165.03 5.06
5 -4 -4 40.01 2.28
-5 4 4 40.44 1.73
-5 4 4 38.3 2.84
5 -4 -4 42.34 3.73
-5 4 4 36.28 2.64
-5 4 4 40.89 1.76
5 -4 -3 237.23 7.41
-5 4 3 222.62 6.39
-5 4 3 217.86 8.49
5 -4 -3 213.54 6.94
-5 4 3 213.49 8.01
5 -4 -3 232.14 9.55
5 -4 -3 197.32 9.71
5 -4 -3 207.44 9.73
-5 4 3 225.29 6.41
5 -4 -2 529.6 14.44
-5 4 2 511.16 13.32
5 -4 -2 491.34 14.03
5 -4 -2 486.79 17.27
5 -4 -2 502.09 16.32
-5 4 2 459.65 15.39
-5 4 2 474.14 14.98
5 -4 -2 483.34 17.05
5 -4 -1 32.33 1.9
-5 4 1 26.85 2.54
5 -4 -1 28.69 1.7
5 -4 -1 31.44 3.13
5 -4 -1 34.17 2.63
-5 4 1 28.51 2.14
5 -4 -1 30.53 2.92
5 -4 0 47.45 2.11
5 -4 0 49.13 2.28
5 -4 0 49.64 4
-5 4 0 44.69 2.74
5 -4 0 40.92 3.37
5 -4 1 70.61 2.77
-5 4 -1 68.57 4.03
5 -4 1 68.46 2.84
-5 4 -1 61.44 3.38
5 -4 2 19.89 1.29
-5 4 -2 20.55 2.06
5 -4 2 15.99 2.39
5 -4 2 18.35 1.24
5 -4 2 18.13 1.37
5 -4 2 16.95 1.14
5 -4 3 231.64 6.79
5 -4 3 243.61 7.2
-5 4 -3 214.13 8.59
5 -4 3 229.4 7.01
5 -4 3 214.2 10.64
5 -4 3 222.09 7.65
5 -4 3 237.8 7.1
5 -4 4 157.37 4.84
5 -4 4 158.77 5.24
5 -4 4 146.73 5.91
5 -4 4 153.7 5.21
5 -4 5 2.57 0.43
5 -4 5 2.47 0.55
5 -4 5 1.92 0.41
5 -4 5 1.97 0.53
5 -4 5 2.58 0.44
-5 4 -5 0.41 0.64
5 -4 5 2.64 0.59
5 -4 5 2.01 0.62
5 -4 6 46.01 1.89
5 -4 6 43.01 2.09
5 -4 6 43.86 2.12
5 -4 6 45.07 2.07
-5 4 -6 39.58 4.16
5 -4 6 41.4 2.83
5 -4 6 45.54 2.23
5 -4 7 4.57 0.59
5 -4 7 5.95 0.65
5 -4 7 6.09 0.66
5 -4 7 4.71 0.53
5 -4 8 101.71 3.27
5 -4 8 81.97 2.82
5 -4 9 1.45 0.25
-5 3 11 1.4 0.16
-5 3 10 31.29 1.14
-5 3 9 3.06 0.39
-5 3 9 2.8 0.4
-5 3 8 65.42 2.42
5 -3 -7 67.12 5.51
-5 3 7 66.07 2.42
-5 3 7 59.13 2.46
-5 3 6 148.47 4.62
5 -3 -6 131.66 8.04
-5 3 6 153.18 4.65
5 -3 -6 139.16 8.36
-5 3 6 144.3 4.66
-5 3 5 575.43 15.64
-5 3 5 555.83 17.64
5 -3 -5 598.44 20.2
5 -3 -5 581.44 20.07
-5 3 5 601.47 15.72
-5 3 5 585.68 15.69
-5 3 4 10.64 0.74
-5 3 4 9.23 1.32
5 -3 -4 10.2 1.67
5 -3 -4 9.09 1.8
-5 3 4 8.19 1.15
-5 3 4 9.64 0.72
-5 3 3 351.57 9.59
-5 3 3 342.71 11.7
5 -3 -3 365.86 10.22
5 -3 -3 320.76 12.33
5 -3 -3 362.99 12.98
-5 3 3 332.8 11.01
5 -3 -3 352.74 12.48
-5 3 3 357.82 9.65
-5 3 2 390.09 10.4
5 -3 -2 391.13 11.04
5 -3 -2 357.12 13.18
5 -3 -2 405.43 13.5
-5 3 2 360.92 12.7
-5 3 2 375.66 11.85
5 -3 -2 410.9 13.1
-5 3 2 388.64 10.46
-5 3 1 188.88 7.34
5 -3 -1 190.42 5.88
5 -3 -1 180.02 7.7
5 -3 -1 197.19 7.75
-5 3 1 185.89 6.51
5 -3 -1 172.19 5.84
5 -3 -1 197.96 7.35
-5 3 1 182.97 7.87
5 -3 0 191.81 5.9
-5 3 0 195.99 7.57
5 -3 0 193.22 8.19
-5 3 0 195.91 8.47
-5 3 0 199.4 6.68
5 -3 0 190 6.32
5 -3 0 196.22 7.29
5 -3 1 286.32 8.32
-5 3 -1 294.61 10.08
5 -3 1 281.05 8.35
5 -3 1 285.98 10.99
5 -3 1 292.99 8.25
5 -3 1 273.75 8.91
5 -3 2 83.08 2.93
5 -3 2 91.92 3.3
-5 3 -2 85.45 4.39
5 -3 2 86.71 3.2
5 -3 2 86.17 5.24
-5 3 -2 95.74 5.91
5 -3 2 84.72 3.87
5 -3 2 90.82 3.25
5 -3 3 203.98 5.95
5 -3 3 187.43 6.06
5 -3 3 181.59 9
-5 3 -3 217.52 10.02
5 -3 3 208.24 7.4
5 -3 3 217.64 6.38
5 -3 4 53.26 2.08
5 -3 4 54.08 2.41
-5 3 -4 58.84 4.95
5 -3 4 51.91 2.41
5 -3 4 51.07 3.18
5 -3 4 53.23 2.42
5 -3 5 37.45 1.66
5 -3 5 38.71 1.96
5 -3 5 38.34 1.9
5 -3 5 40.25 2.05
5 -3 5 37.2 1.85
-5 3 -5 38.57 4.07
5 -3 5 36.91 2.69
5 -3 5 40.3 2.07
5 -3 6 12.3 0.83
5 -3 6 11.19 0.99
5 -3 6 12.41 0.94
5 -3 6 12.92 1.07
5 -3 6 12 0.99
5 -3 6 11.49 1.5
5 -3 7 2 0.35
5 -3 7 2.11 0.46
5 -3 8 18.04 0.89
-5 2 11 0.55 0.13
-5 2 11 0.69 0.19
-5 2 11 0.81 0.2
-5 2 10 23.76 1.06
-5 2 10 27.3 1.21
-5 2 9 0.39 0.24
-5 2 9 0.32 0.22
-5 2 9 0.26 0.24
-5 2 8 10.41 0.79
5 -2 -8 8.26 1.98
-5 2 8 8.86 0.72
-5 2 8 9.91 0.79
-5 2 7 16.63 1.03
5 -2 -7 15.8 2.63
-5 2 7 16.1 1.02
5 -2 -7 15.63 2.51
-5 2 6 44.19 1.84
5 -2 -6 41.91 4.01
5 -2 -6 48.46 4
-5 2 6 45.94 1.89
-5 2 6 43.82 1.9
-5 2 5 148.9 4.49
5 -2 -5 157.51 7.33
-5 2 5 149.09 4.56
-5 2 5 145.4 4.53
-5 2 4 177.58 5.25
-5 2 4 173.12 6.98
5 -2 -4 181.14 5.73
5 -2 -4 165.38 7.21
5 -2 -4 185.76 8.33
-5 2 4 186.39 5.33
-5 2 3 87.75 2.84
-5 2 3 83.81 4.43
-5 2 3 81.82 4.25
5 -2 -3 91.21 3.3
5 -2 -3 90.7 4.6
5 -2 -3 86.92 5.06
-5 2 3 82.05 3.72
-5 2 3 90.85 2.95
-5 2 3 90.12 2.9
-5 2 2 0.39 0.42
5 -2 -2 0.39 0.27
5 -2 -2 0.21 0.52
-5 2 2 0.88 0.5
-5 2 2 0.38 0.27
-5 2 2 1.09 0.25
5 -2 -2 0.76 0.46
-5 2 1 560.15 17.06
5 -2 -1 588.29 17.38
5 -2 -1 555.79 15.39
5 -2 -1 617.51 18.17
-5 2 1 559.57 18.13
-5 2 1 558.78 15.79
5 -2 0 4.74 0.57
-5 2 0 5.75 1.28
5 -2 0 4.39 0.57
-5 2 0 4.09 0.86
5 -2 0 5.19 0.84
5 -2 1 445.68 12.46
-5 2 -1 439.1 14.09
5 -2 1 440.76 12.41
5 -2 1 467.37 14.72
-5 2 -1 445.86 15.85
5 -2 1 470.45 12.48
5 -2 1 438.71 13.68
5 -2 2 5.2 0.49
5 -2 2 5.35 0.66
5 -2 2 4.83 0.59
-5 2 -2 4.58 0.92
-5 2 -2 3.95 1.21
5 -2 2 7.21 0.74
5 -2 2 5.43 0.94
5 -2 2 6.82 1.31
5 -2 3 26.84 1.24
5 -2 3 25.35 1.51
5 -2 3 27.52 2.72
-5 2 -3 24.49 2.99
5 -2 3 23.85 2.11
5 -2 3 28.36 1.58
5 -2 4 133.72 4.19
5 -2 4 136.43 4.68
5 -2 4 140.94 4.81
-5 2 -4 138.15 7.98
5 -2 4 129.76 5.92
5 -2 4 140.06 4.74
5 -2 5 37.06 1.57
5 -2 5 35.73 1.9
5 -2 5 36.44 1.9
5 -2 5 38.98 2.03
5 -2 5 41.68 1.93
-5 2 -5 35.67 3.8
5 -2 5 32.32 2.66
5 -2 5 35.57 1.4
5 -2 6 45.31 2.13
5 -2 6 45.56 2.1
5 -2 6 46.98 2.28
5 -2 6 46.23 1.67
5 -2 6 49.09 1.84
5 -2 7 4.99 0.52
5 -2 7 4.79 0.66
5 -2 7 4.72 0.38
5 -2 7 5.37 0.47
5 -2 8 3.4 0.34
-5 1 12 4.58 0.32
-5 1 11 2.44 0.33
-5 1 10 3.35 0.39
-5 1 10 3.24 0.44
-5 1 9 88 3
-5 1 9 88 3.06
-5 1 8 161.05 4.93
5 -1 -8 152.76 8.74
-5 1 8 163.06 5
-5 1 8 155.98 4.95
-5 1 7 104.48 3.5
5 -1 -7 101.3 6.66
-5 1 7 110.52 3.6
-5 1 7 103.19 3.57
5 -1 -7 118.15 6.6
-5 1 7 101.71 3.51
-5 1 6 19.52 2.03
5 -1 -6 22.72 2.84
-5 1 6 21.36 1.18
-5 1 6 23.13 1.22
-5 1 5 0.26 0.18
-5 1 5 0.02 0.17
-5 1 5 0.71 0.49
5 -1 -5 0.14 0.52
-5 1 5 0.09 0.16
-5 1 5 0.02 0.19
5 -1 -5 0.43 0.38
-5 1 4 35.93 1.47
-5 1 4 34.69 2.61
5 -1 -4 31.8 2.44
5 -1 -4 37.76 1.82
5 -1 -4 38.62 3.29
-5 1 4 30.45 2.58
-5 1 4 35.06 1.52
-5 1 3 290.33 7.96
5 -1 -3 285.63 9.92
5 -1 -3 297.11 8.47
-5 1 3 279.53 10.59
-5 1 3 286.67 8.03
5 -1 -2 6.94 1.09
-5 1 2 4.5 0.92
5 -1 -2 4.73 1.15
-5 1 2 5.98 1.27
-5 1 1 197.29 7.43
5 -1 -1 199.2 7.46
-5 1 1 183.07 8.24
5 -1 0 79.93 2.92
-5 1 0 78.81 4.1
5 -1 0 83.36 4.19
5 -1 0 75.64 2.87
5 -1 0 75.14 3.92
5 -1 1 100.02 3.53
-5 1 -1 102.02 4.83
5 -1 1 107.93 5.02
5 -1 1 94.15 3.4
-5 1 -1 101.95 5.96
5 -1 1 98.98 3.51
5 -1 1 96.2 4.73
5 -1 2 82.8 3.11
5 -1 2 93.33 4.78
5 -1 2 89.56 3.28
-5 1 -2 93.08 5.93
5 -1 2 92.63 3.35
5 -1 3 15.01 1.15
5 -1 3 17.03 1.22
-5 1 -3 16.37 2.48
5 -1 3 19.72 1.35
5 -1 4 30.73 1.75
5 -1 4 31.79 1.75
-5 1 -4 32.87 3.56
5 -1 4 27.93 2.48
5 -1 4 32.58 1.32
5 -1 5 17.83 1.28
5 -1 5 17.82 1.28
5 -1 5 19.12 1.38
-5 1 -5 21.53 4.72
5 -1 5 20.06 2.07
5 -1 5 20.28 0.97
5 -1 5 17.49 0.92
5 -1 6 89.77 3.26
5 -1 6 89.92 3.49
5 -1 6 88.76 2.78
5 -1 7 25.78 1.25
5 -1 7 22.46 1.35
5 -1 7 25.03 1.02
5 -1 8 0.09 0.07
-5 0 12 7.61 0.48
-5 0 11 4.55 0.46
-5 0 11 4.1 0.48
-5 0 10 0.66 0.23
-5 0 10 0.22 0.22
-5 0 9 3.52 0.47
-5 0 9 4.34 0.51
5 0 -8 4.35 1.28
-5 0 8 3.43 0.48
5 0 -8 3.58 1.33
-5 0 8 3.67 0.53
-5 0 8 3.96 0.55
-5 0 7 1.33 0.33
5 0 -7 1.15 0.8
-5 0 7 0.86 0.31
-5 0 7 1.69 0.4
-5 0 6 43.97 1.93
-5 0 6 47.58 1.98
-5 0 5 107.62 5.43
-5 0 5 114.99 3.62
5 0 -5 111.43 5.1
5 0 -5 125.73 6.49
-5 0 5 116.24 3.75
-5 0 5 111.6 3.72
-5 0 4 13.9 1.95
-5 0 4 16.42 0.92
-5 0 4 16.13 1.82
5 0 -4 16.85 1.69
-5 0 4 16.11 0.96
5 0 -4 16.38 2.07
-5 0 4 17.11 0.99
-5 0 3 1448.47 37.48
5 0 -3 1482.65 39.69
-5 0 3 1400.52 40.03
-5 0 3 1507.78 37.5
5 0 -3 1432.06 37.97
5 0 -3 1529.6 41.12
-5 0 3 1376.7 41.27
-5 0 3 1441.69 37.56
5 0 -2 19.05 1.76
-5 0 2 15.14 1.72
5 0 -2 15.23 1.08
5 0 -2 14.41 1.9
-5 0 2 16.78 2.19
-5 0 2 16.67 0.95
5 0 -1 156.65 5.02
-5 0 1 155.08 4.58
-5 0 1 154.42 6.55
5 0 -1 158.99 6.81
5 0 0 0.03 0.29
-5 0 0 0.09 0.35
5 0 0 0.65 0.44
5 0 1 58.11 2.54
-5 0 -1 61.15 3.71
5 0 1 62.9 3.65
5 0 1 59.19 2.41
-5 0 -1 64.49 4.77
5 0 1 57.8 3.64
5 0 2 192.01 7.54
5 0 2 185.13 5.89
-5 0 -2 192.44 9.29
5 0 2 180.86 7.6
5 0 3 170.35 5.64
5 0 3 173.73 5.61
-5 0 -3 159.11 8.71
5 0 3 160.98 7.22
5 0 4 -0.04 0.33
5 0 4 0.2 0.36
-5 0 -4 0.18 0.52
-5 0 -4 -0.46 1.29
5 0 4 0.1 0.31
5 0 4 0.12 0.15
5 0 5 1.81 0.47
5 0 5 1.88 0.3
5 0 6 0.08 0.25
5 0 6 -0.04 0.31
5 0 6 0.44 0.19
5 0 7 14.03 0.82
5 0 7 13.6 0.92
5 0 7 14.14 0.68
-5 -1 12 13.38 0.67
-5 -1 12 14.32 0.8
-5 -1 11 0.22 0.23
-5 -1 11 0.17 0.19
-5 -1 11 0.39 0.26
-5 -1 10 9.88 0.72
-5 -1 10 12.12 0.79
-5 -1 10 12.49 0.92
-5 -1 9 24.02 1.29
-5 -1 9 26.56 1.27
5 1 -9 24.43 2.99
-5 -1 9 22.96 1.08
-5 -1 8 0.71 0.28
-5 -1 8 1.25 0.29
5 1 -8 0.97 0.76
-5 -1 8 0.75 0.34
-5 -1 8 1.33 0.4
-5 -1 8 0.58 0.22
5 1 -7 7.41 1.58
-5 -1 7 5.61 0.59
-5 -1 7 5.72 0.68
-5 -1 7 5.18 1.2
-5 -1 7 6.38 0.71
-5 -1 6 0.96 0.56
5 1 -6 2.32 0.92
-5 -1 6 1.39 0.36
-5 -1 6 1.13 0.33
-5 -1 6 1.01 0.37
-5 -1 5 174.68 7.89
5 1 -5 195.34 7.37
-5 -1 5 189.08 5.56
-5 -1 5 184.74 10.21
5 1 -5 194.88 8.44
-5 -1 5 164.42 8.51
-5 -1 4 0.63 0.62
-5 -1 4 1.53 0.32
-5 -1 4 1.15 0.89
-5 -1 4 1.42 0.33
5 1 -4 1.53 0.76
-5 -1 4 1.38 0.35
-5 -1 3 451.51 15.44
-5 -1 3 481.86 12.96
-5 -1 3 500.09 17.71
5 1 -3 500.77 16.13
-5 -1 3 455.77 17.08
-5 -1 3 473.89 12.91
-5 -1 3 484.04 13.09
5 1 -2 497.78 13.54
-5 -1 2 465.27 15.6
-5 -1 2 475.8 13.06
5 1 -2 467.69 16.43
-5 -1 2 455.86 17.01
-5 -1 2 478.36 12.95
-5 -1 2 492.31 13.17
5 1 -1 77.18 2.94
-5 -1 1 60.17 2.49
-5 -1 1 62.34 4.02
5 1 -1 67.66 4.29
-5 -1 1 65.65 4.91
-5 -1 1 73.14 2.67
5 1 0 839.6 22.82
-5 -1 0 803.6 25.08
-5 -1 0 883.57 27.25
5 1 0 822.8 22.42
5 1 1 151.39 5.25
5 1 1 170.79 6.76
5 1 1 154.72 5.03
-5 -1 -1 158.77 8.4
-5 -1 -1 140.26 10.42
5 1 1 155.04 6.93
5 1 2 40.46 2.15
5 1 2 42.75 2.08
-5 -1 -2 41.86 4.1
-5 -1 -2 44.15 6.02
5 1 2 40.69 3.2
5 1 3 99.43 4.03
5 1 3 113.89 3.94
5 1 3 110.95 4.06
-5 -1 -3 108.15 6.97
-5 -1 -3 100.44 9.81
5 1 3 115.22 5.6
5 1 4 49.99 2.3
5 1 4 51.82 2.45
5 1 4 48.85 3.34
5 1 4 50.18 1.93
5 1 5 11.39 0.92
5 1 5 11.68 1.06
5 1 5 12 0.74
5 1 6 9.21 0.86
5 1 6 10.49 0.62
5 1 7 15.94 0.76
5 1 7 14.53 0.83
5 1 7 15.41 0.64
-5 -2 12 9 0.64
-5 -2 12 10.26 0.7
-5 -2 11 2.36 0.42
-5 -2 11 2.72 0.34
-5 -2 11 2.41 0.43
-5 -2 10 11.8 0.94
-5 -2 10 11.5 0.71
-5 -2 9 39.05 1.78
-5 -2 9 37.07 2.13
-5 -2 9 44.82 1.94
-5 -2 9 35.43 2.01
-5 -2 9 41.48 1.67
-5 -2 8 25.67 1.69
-5 -2 8 26.32 1.42
5 2 -8 24.72 2.8
-5 -2 8 27.44 1.43
-5 -2 8 27.57 1.69
-5 -2 7 55.75 2.3
5 2 -7 55.61 4.2
-5 -2 7 58.45 2.6
-5 -2 7 54.97 2.72
-5 -2 7 57.63 2.23
-5 -2 7 56.42 2.59
-5 -2 6 2.57 0.44
-5 -2 6 2.92 1.4
-5 -2 6 1.56 0.8
5 2 -6 2.23 0.92
-5 -2 6 3.17 1.2
-5 -2 6 1.73 0.47
-5 -2 6 2.1 0.51
-5 -2 5 793.13 28.38
-5 -2 5 949.28 25.3
-5 -2 5 1038.21 32.81
5 2 -5 968.24 28.78
-5 -2 5 852.41 30.41
-5 -2 5 1007.54 25.49
-5 -2 5 1048.07 25.98
-5 -2 5 926.48 25.57
-5 -2 4 16.91 1.07
-5 -2 4 15.93 2.71
-5 -2 4 15.22 2.57
-5 -2 4 16.62 1.09
-5 -2 4 17.33 1.22
-5 -2 3 71.83 4.68
-5 -2 3 70.68 2.8
-5 -2 3 77.62 5.63
5 2 -3 79.29 5.46
-5 -2 3 74.33 5.73
-5 -2 3 77.02 2.82
-5 -2 3 84.51 3.26
-5 -2 3 79.93 3.09
5 2 -2 43.25 2.26
-5 -2 2 42.62 3.48
5 2 -2 38.41 3.6
-5 -2 2 47.48 1.94
-5 -2 2 47.24 2.24
-5 -2 2 44.1 2.15
-5 -2 1 293.11 11.76
5 2 -1 314.1 9.53
5 2 -1 295.54 11.6
-5 -2 1 303.6 13.5
-5 -2 1 280.12 14.45
-5 -2 1 312.61 9.46
-5 -2 0 104.54 5.95
5 2 0 109.79 4.23
5 2 0 111.3 3.88
-5 -2 0 109.28 7.16
-5 -2 0 105.1 8.59
-5 -2 0 121.14 4.27
5 2 1 45.69 3.1
5 2 1 39.13 1.87
5 2 1 39.92 1.98
-5 -2 -1 40.45 4.21
-5 -2 -1 36.39 5.35
5 2 1 42.12 3.24
5 2 2 15.98 1.13
-5 -2 -2 15.28 2.57
5 2 2 16.54 1.24
5 2 2 16.57 1.95
5 2 3 28.27 1.58
5 2 3 30.23 1.8
-5 -2 -3 26.06 4.81
5 2 3 31.95 2.6
5 2 4 0.54 0.32
5 2 4 0.82 0.44
5 2 4 0.52 0.22
5 2 5 13.89 0.91
5 2 5 12.53 1.01
5 2 5 13.47 0.74
5 2 6 5.47 0.46
5 2 6 5.08 0.36
-5 -3 12 2.12 0.35
-5 -3 12 3.31 0.43
-5 -3 11 39.13 1.83
-5 -3 11 43.18 1.88
-5 -3 11 41.18 1.49
-5 -3 10 4.97 0.64
-5 -3 10 4.83 0.62
-5 -3 10 4.49 0.47
-5 -3 9 34.13 1.74
-5 -3 9 24.45 1.81
-5 -3 9 31.4 1.61
-5 -3 9 24.23 1.72
-5 -3 9 31.31 1.44
-5 -3 8 0.06 0.25
-5 -3 8 -0.03 0.25
-5 -3 8 -0.15 0.39
-5 -3 8 0.03 0.23
-5 -3 8 0.56 0.38
-5 -3 7 84.13 3.31
-5 -3 7 94.27 8.03
-5 -3 7 93.5 3.81
-5 -3 7 85.64 3.98
-5 -3 7 95.31 3.3
-5 -3 7 87.14 3.79
-5 -3 6 20.28 1.3
-5 -3 6 22.8 3.71
-5 -3 6 27.06 1.42
-5 -3 6 22.85 1.52
-5 -3 6 23.54 1.77
-5 -3 6 21.26 1.61
-5 -3 5 119.24 4.38
-5 -3 5 143.02 4.43
-5 -3 5 138.72 4.74
-5 -3 5 127.56 8.35
5 3 -5 130.61 8.19
-5 -3 5 138.09 5.1
-5 -3 5 134.9 5.03
-5 -3 4 70.12 5.87
-5 -3 4 63.12 2.65
5 3 -4 56.88 4.99
-5 -3 4 63.78 3
-5 -3 4 58.15 5.52
-5 -3 4 56.43 2.8
-5 -3 3 4.87 0.62
5 3 -3 4.05 1.31
-5 -3 3 5.05 0.78
-5 -3 3 4.15 0.72
5 3 -2 228.56 10.37
-5 -3 2 248.35 7.28
-5 -3 2 231.2 11.93
-5 -3 2 251.17 7.84
-5 -3 2 222.95 7.74
-5 -3 1 -0.22 0.53
-5 -3 1 0.71 0.48
-5 -3 1 0.35 0.37
5 3 0 5.28 0.59
5 3 0 4.3 0.62
-5 -3 0 3.08 1.28
-5 -3 0 5.13 0.85
-5 -3 0 4.14 1.79
5 3 0 4.37 1.06
5 3 1 34.11 1.68
5 3 1 34.31 1.86
-5 -3 -1 38.5 4.21
-5 -3 -1 38.4 5.43
5 3 1 38.78 3.03
5 3 2 6.84 0.69
5 3 2 6.86 0.83
-5 -3 -2 7.41 2.5
5 3 2 6.99 1.19
5 3 3 0.22 0.25
5 3 3 -0.04 0.35
5 3 4 4.15 0.39
5 3 4 3.52 0.46
5 3 4 3.75 0.59
5 3 5 11.34 0.69
5 3 5 12.04 0.82
-5 -4 12 0.3 0.2
-5 -4 12 0.09 0.19
-5 -4 11 18.32 1.14
-5 -4 11 18.55 0.89
-5 -4 10 16.22 1.16
-5 -4 10 14.91 1.12
-5 -4 10 17.21 0.95
-5 -4 9 4.5 0.65
-5 -4 9 3.47 0.76
-5 -4 9 4.41 0.64
-5 -4 8 1.37 0.43
5 4 -8 1 0.86
-5 -4 8 1 0.52
-5 -4 8 1.04 0.38
-5 -4 8 1.02 0.63
-5 -4 8 1.1 0.54
-5 -4 7 130.18 4.28
-5 -4 7 118.56 4.72
5 4 -7 124.69 8.39
-5 -4 7 107.51 4.98
-5 -4 7 122.73 4.18
-5 -4 7 102.81 4.66
-5 -4 6 33.43 4.59
-5 -4 6 31.4 1.69
-5 -4 6 27.42 2.17
-5 -4 6 33.2 2.04
-5 -4 6 28.32 2.16
-5 -4 5 48.84 5.28
-5 -4 5 40.48 2
-5 -4 5 39.87 2.22
5 4 -5 38.13 4.2
-5 -4 5 45.06 4.91
-5 -4 5 36.13 2.36
-5 -4 4 206.71 10.95
5 4 -4 157.4 8.96
-5 -4 4 171 5.78
-5 -4 4 180.09 10.58
-5 -4 4 183.57 6.5
-5 -4 4 142.99 6
5 4 -3 48.63 4.39
-5 -4 3 50.95 2.47
-5 -4 3 49.49 5.25
-5 -4 3 53.37 2.91
-5 -4 3 42.35 2.64
5 4 -2 88.83 5.63
-5 -4 2 90.53 7.17
-5 -4 2 88.92 4.1
-5 -4 1 60.82 3.25
-5 -4 1 63.29 5.81
5 4 0 1.8 0.46
-5 -4 0 1.85 1.08
5 4 0 1.95 0.67
5 4 1 22.36 1.2
-5 -4 -1 22.71 2.09
5 4 1 21.44 1.39
5 4 2 22.67 1.2
-5 -4 -2 24.64 2
5 4 2 25.83 1.48
-5 -4 -3 1.27 0.49
5 4 3 1.6 0.31
5 4 3 1.26 0.37
5 4 3 2.42 0.31
5 4 4 3.98 0.29
5 4 4 4.08 0.37
5 4 4 4.16 0.47
5 4 4 5.15 0.36
-5 -5 12 0.14 0.18
-5 -5 11 12.56 0.97
-5 -5 11 12.17 0.93
-5 -5 11 13.98 0.72
-5 -5 10 0.04 0.34
-5 -5 10 0.14 0.28
-5 -5 9 6.55 0.82
-5 -5 9 5.9 0.75
-5 -5 9 6.44 0.6
-5 -5 8 7.94 0.89
-5 -5 8 7.81 0.87
-5 -5 8 5.87 1.1
-5 -5 7 70.48 3.03
-5 -5 7 63.18 3.3
-5 -5 7 70.85 3.9
5 5 -6 8.18 1.99
-5 -5 6 9.33 0.98
-5 -5 6 8.55 1.2
-5 -5 6 7.91 1.05
-5 -5 6 8.25 1.32
-5 -5 5 4.55 1.03
5 5 -5 5.2 1.54
-5 -5 5 3.97 0.75
-5 -5 5 3.65 0.95
-5 -5 4 33.44 2.6
-5 -5 4 31.9 2.09
-5 -5 4 34.88 2.56
5 5 -4 33.09 3.59
-5 -5 3 32.93 2.45
5 5 -3 34.91 3.4
-5 -5 3 31.12 2
-5 -5 3 39.18 4.65
-5 -5 2 0.42 0.83
-5 -5 2 0.24 0.59
-5 -5 2 0.27 0.62
-5 -5 2 0.45 0.56
-5 -5 1 8.29 1.35
-5 -5 1 7.15 1.17
-5 -5 0 10.04 1.37
-5 -5 -1 0.13 0.51
5 5 1 0.53 0.29
-5 -5 -2 2 0.54
5 5 2 3.12 0.42
-5 -5 -2 2.27 0.55
5 5 3 0.58 0.14
5 5 3 0.49 0.13
-5 -6 11 0.03 0.2
-5 -6 11 0.13 0.21
-5 -6 11 0.15 0.13
-5 -6 10 4.52 0.64
-5 -6 10 3.41 0.57
-5 -6 10 5.4 0.46
-5 -6 9 3 0.59
-5 -6 9 3.14 0.59
-5 -6 9 4.1 0.45
-5 -6 8 38.38 2.21
-5 -6 8 43.37 2.8
-5 -6 7 7.05 0.89
-5 -6 7 4.66 0.87
-5 -6 7 6.6 1.19
-5 -6 6 4.86 0.76
-5 -6 6 5.73 0.93
-5 -6 6 4.15 0.81
-5 -6 5 1.92 0.69
-5 -6 5 0.61 0.49
-5 -6 5 1.18 0.74
-5 -6 4 10.45 1.42
-5 -6 4 12.58 1.62
-5 -6 3 7.19 1.23
-5 -6 2 2.52 0.82
-5 -6 2 2.15 0.79
-5 -6 1 3.36 0.84
-5 -6 0 29.48 1.87
-5 -6 0 29.53 1.95
-5 -6 -1 0.4 0.31
-5 -6 -1 0.52 0.31
5 6 2 4.12 0.27
5 6 2 3.96 0.24
-5 -7 10 0.62 0.27
-5 -7 10 1.24 0.18
-5 -7 9 2.14 0.47
-5 -7 9 2.62 0.29
-5 -7 8 17.27 1.29
-5 -7 8 19.76 1.62
-5 -7 7 1.29 0.45
-5 -7 7 2.66 0.78
-5 -7 7 3.19 0.35
-5 -7 6 9.33 0.94
-5 -7 6 10.35 1.41
-5 -7 5 1.95 0.45
-5 -7 5 1.53 0.51
-5 -7 5 1.84 0.77
-5 -7 4 6.79 0.85
-5 -7 4 7.22 0.98
-5 -7 4 7.59 1.18
-5 -7 3 2.49 0.57
-5 -7 3 2.58 0.66
-5 -7 3 1.7 0.64
-5 -7 2 34.72 2.01
-5 -7 2 29.91 1.94
-5 -7 1 3.88 0.61
-5 -7 1 6.08 0.74
5 7 0 3.08 0.24
-5 -7 0 3.19 0.43
-5 -7 0 3.14 0.42
5 7 0 2.99 0.21
-5 -8 8 0.28 0.12
-5 -8 6 1.14 0.47
-5 -8 5 1.21 0.29
-5 -8 5 1.27 0.49
-5 -8 4 0.75 0.28
-5 -8 3 0.87 0.27
-6 10 2 19.7 0.72
6 -10 -1 10.75 0.62
-6 10 1 13.13 0.59
6 -10 0 31.05 1.33
-6 10 0 28.69 1.08
6 -10 1 9.83 0.72
-6 10 -1 7.24 0.43
6 -10 2 3.76 0.41
6 -10 2 5.11 0.55
6 -10 3 2.66 0.36
6 -10 3 2.81 0.4
6 -10 4 6.31 0.51
6 -10 4 4.63 0.41
6 -10 5 3.2 0.32
-6 9 4 3.83 0.27
-6 9 3 21.53 0.93
6 -9 -2 68.79 2.47
6 -9 -1 2.98 0.52
6 -9 0 22.23 1.39
6 -9 1 14.74 0.68
6 -9 1 16.86 1.07
6 -9 1 17.1 1.24
6 -9 2 0.36 0.14
6 -9 2 0.24 0.31
6 -9 2 0.28 0.35
6 -9 3 49.86 1.62
6 -9 3 51.7 2.2
6 -9 3 50.89 2.22
6 -9 4 0.77 0.15
6 -9 4 0.47 0.32
6 -9 4 0.63 0.3
6 -9 5 8.66 0.69
6 -9 5 6.24 0.33
6 -9 6 14.38 0.8
-6 8 6 11.87 0.5
-6 8 5 18.91 0.81
-6 8 5 18.55 0.8
-6 8 4 30.33 1.2
-6 8 3 4.16 0.4
6 -8 -2 49.33 2.31
6 -8 -1 7.97 0.94
6 -8 0 8.59 0.85
6 -8 0 10.37 1.1
6 -8 1 45.3 1.77
6 -8 1 43.16 2.14
6 -8 1 43.11 2.35
6 -8 2 39.57 1.59
6 -8 2 36.08 1.96
6 -8 3 38.27 1.52
6 -8 3 32.63 1.87
6 -8 3 35.19 1.94
6 -8 4 22.01 1.02
6 -8 4 18.09 1.29
6 -8 4 19.85 1.27
6 -8 5 0.61 0.2
6 -8 5 0.25 0.23
6 -8 5 0.33 0.31
6 -8 6 7.38 0.46
6 -8 6 6.82 0.64
6 -8 6 5.6 0.57
6 -8 7 1.31 0.32
6 -8 7 0.87 0.12
-6 7 7 31.18 1.09
-6 7 6 19.55 0.9
-6 7 6 18.56 0.84
-6 7 6 18.67 0.87
-6 7 5 0.81 0.24
-6 7 5 0.81 0.24
-6 7 5 0.98 0.26
-6 7 4 27.98 1.29
-6 7 4 27.34 1.23
-6 7 3 15 0.91
6 -7 -3 16.46 1.27
6 -7 -2 0.63 0.51
6 -7 -2 0.9 0.45
-6 7 1 119.79 6.42
6 -7 -1 136.14 5.04
-6 7 1 137.23 5.95
6 -7 0 176.68 5.92
6 -7 0 188.88 6.39
-6 7 0 190.28 7.39
6 -7 1 2.3 0.58
-6 7 -1 1.97 0.83
6 -7 1 2.09 0.62
-6 7 -1 2.84 0.78
6 -7 2 0.58 0.28
6 -7 2 0.88 0.45
-6 7 -2 0.9 0.6
6 -7 2 0.34 0.43
6 -7 3 2.77 0.44
6 -7 3 2.43 0.6
6 -7 3 2.77 0.6
6 -7 4 16.55 0.99
6 -7 4 17.25 1.33
6 -7 4 15.38 1.16
6 -7 4 14.98 1.11
6 -7 5 4.02 0.46
6 -7 5 3.72 0.52
6 -7 5 3.75 0.6
6 -7 6 47.19 1.79
6 -7 6 52.38 2.16
6 -7 6 49.28 2.11
6 -7 7 9.43 0.67
6 -7 7 10.74 0.79
6 -7 7 9.9 0.58
-6 6 7 17.61 0.81
-6 6 7 18.28 0.92
-6 6 6 56.53 2.14
-6 6 6 60.4 2.15
-6 6 6 59.96 2.17
-6 6 5 5.74 0.59
-6 6 5 4.07 0.51
-6 6 5 4.36 0.51
-6 6 4 16.6 1.02
-6 6 4 17.9 1.03
-6 6 3 255.35 7.38
-6 6 3 246.47 9.87
6 -6 -3 269.85 8.23
-6 6 3 250.04 9.33
-6 6 2 19.02 1.06
-6 6 2 18.75 2.25
6 -6 -2 17.51 1.47
-6 6 2 18.63 1.93
6 -6 -1 31.63 2
-6 6 1 30.34 2.48
6 -6 -1 26.67 3.74
6 -6 0 7.85 2.08
6 -6 0 10.37 1.02
6 -6 0 7.85 1.02
-6 6 0 7.37 1.47
-6 6 0 10.75 1.44
6 -6 1 34.57 1.97
-6 6 -1 35.21 3.2
-6 6 -1 28.59 3.3
-6 6 -1 36.39 2.68
6 -6 2 40.13 2.18
-6 6 -2 37.16 3.3
6 -6 2 43.3 2.3
6 -6 3 36.17 1.72
6 -6 3 36.14 2.03
6 -6 3 36.83 2
6 -6 3 34.78 1.85
6 -6 4 1.33 0.35
6 -6 4 1.11 0.5
6 -6 4 1.41 0.44
6 -6 4 0.26 0.43
6 -6 5 27.3 1.33
6 -6 5 26.77 1.62
6 -6 5 25.04 1.46
6 -6 5 23.9 1.53
6 -6 6 12.12 0.79
6 -6 6 11.84 0.97
6 -6 6 11.42 0.82
6 -6 6 12.02 1
6 -6 7 17.31 1
6 -6 7 20.24 1.18
6 -6 7 19.29 0.93
6 -6 8 2.7 0.26
-6 5 9 0.46 0.13
-6 5 9 0.6 0.12
-6 5 8 4.95 0.4
-6 5 8 4.67 0.45
-6 5 7 13.7 0.86
-6 5 7 12.93 0.8
-6 5 7 13.78 0.88
-6 5 6 0.85 0.29
-6 5 6 1.27 0.33
-6 5 6 1.35 0.35
-6 5 5 3.71 0.49
-6 5 5 3.47 0.51
-6 5 5 3.13 0.46
-6 5 4 31.33 1.53
-6 5 4 30.25 2.71
6 -5 -4 33.5 1.97
-6 5 4 30.81 2.49
-6 5 4 31.64 1.64
-6 5 4 33.7 1.58
-6 5 3 304.37 8.36
-6 5 3 276.23 10.9
6 -5 -3 280.32 9.1
-6 5 3 279.45 10.28
6 -5 -3 274.92 13.11
-6 5 3 302.74 8.37
-6 5 2 164.57 7.75
6 -5 -2 166.18 6.1
6 -5 -2 166.8 9.54
-6 5 2 176.29 7.13
6 -5 -2 153.24 9.22
6 -5 -1 41.61 2.08
-6 5 1 39.63 3.36
6 -5 -1 42.29 2.33
6 -5 -1 38.62 4.18
-6 5 1 41.01 2.82
6 -5 0 87.13 3.49
-6 5 0 89.82 5.24
6 -5 0 96.45 3.8
-6 5 0 77.12 5.41
6 -5 0 88.46 6.57
-6 5 0 84.25 4.31
6 -5 1 2.89 1.25
6 -5 1 2.14 0.54
-6 5 -1 2.48 0.87
-6 5 -1 2.45 1.02
6 -5 2 39.91 1.83
6 -5 2 37.78 2.07
-6 5 -2 34.37 3.07
6 -5 2 40.98 2.14
-6 5 -2 33.57 3.78
6 -5 2 33.97 4.2
6 -5 3 199.11 6.07
6 -5 3 210.32 6.68
6 -5 3 209.17 6.49
6 -5 4 115.07 3.76
6 -5 4 109.57 3.88
-6 5 -4 111.94 7.5
6 -5 4 104.87 4.06
6 -5 5 21.39 1.19
6 -5 5 23.68 1.52
6 -5 5 23.65 1.47
6 -5 5 20.77 1.45
6 -5 6 7.47 0.62
6 -5 6 7.19 0.78
6 -5 6 6.36 0.7
6 -5 6 7.96 0.88
6 -5 7 7.65 0.64
6 -5 7 7.9 0.57
6 -5 8 22.64 0.9
-6 4 10 22.86 0.81
-6 4 9 0.01 0.17
-6 4 8 19.02 0.96
-6 4 8 20.1 1.08
-6 4 7 22.26 1.22
-6 4 7 21.31 1.18
-6 4 7 23.61 1.27
-6 4 6 47.52 2.07
6 -4 -6 51.5 4.59
-6 4 6 55.52 2.03
-6 4 6 51.24 2.15
-6 4 6 49.05 2.12
-6 4 5 467.76 12.66
-6 4 5 440.91 15.01
6 -4 -5 450.27 17.09
6 -4 -5 449.3 18.33
-6 4 5 464.15 12.69
-6 4 4 106.75 3.54
-6 4 4 99.73 5.38
6 -4 -4 106.2 4.12
6 -4 -4 105.85 6.41
-6 4 4 96.49 4.84
6 -4 -4 98.41 6.83
-6 4 4 107.62 3.67
-6 4 4 104.95 3.56
-6 4 3 149.54 4.46
-6 4 3 124.92 6.37
6 -4 -3 144.06 5.13
6 -4 -3 147.72 7.38
6 -4 -3 129.61 7.66
-6 4 3 128.49 5.82
6 -4 -3 125.55 7.46
-6 4 3 142.55 4.6
-6 4 3 142.41 4.46
6 -4 -2 196 6.56
6 -4 -2 189.43 9.49
6 -4 -2 201.29 8.69
-6 4 2 175.88 7.22
6 -4 -2 181.72 8.96
-6 4 2 210.04 6.02
6 -4 -1 1.57 0.92
6 -4 -1 2.96 0.97
6 -4 -1 3.62 0.59
-6 4 1 1.93 0.82
-6 4 1 4 1.04
6 -4 -1 2.56 0.59
-6 4 1 3.37 0.74
-6 4 1 3.02 0.44
6 -4 0 98.4 3.7
-6 4 0 97.25 5.31
6 -4 0 97.19 3.82
6 -4 0 88.25 6.12
-6 4 0 91.93 5.97
6 -4 1 41.73 2.1
-6 4 -1 34.19 2.96
6 -4 1 39.95 2.1
6 -4 1 32.25 3.66
-6 4 -1 35.88 3.72
6 -4 2 10.5 0.84
6 -4 2 10.02 2.12
6 -4 2 13 1.13
-6 4 -2 9.83 1.6
6 -4 2 11.84 1.07
6 -4 2 11.04 1.02
6 -4 3 307.8 8.72
6 -4 3 325.71 9.34
6 -4 3 302.4 9
-6 4 -3 289.6 13.39
6 -4 3 288.27 9.75
6 -4 3 309.53 9.19
6 -4 4 39.34 1.74
6 -4 4 41.05 2.11
-6 4 -4 36.05 4.1
6 -4 4 35.69 2.45
6 -4 4 38.05 2.07
6 -4 5 26.26 1.3
6 -4 5 28.02 1.65
6 -4 5 22.54 1.35
6 -4 5 25.66 1.58
6 -4 5 26.94 1.68
6 -4 6 3.55 0.43
6 -4 6 3.25 0.58
6 -4 6 3.52 0.57
6 -4 7 51.11 2.02
6 -4 7 62.66 2.01
6 -4 8 68.88 2.07
-6 3 10 19.36 0.82
-6 3 10 19.28 0.86
-6 3 9 27.26 1.27
-6 3 9 31.57 1.32
-6 3 8 44.25 1.82
-6 3 7 49.49 2.1
-6 3 7 51.55 2.12
-6 3 7 49.95 2.12
-6 3 6 87.25 3.13
6 -3 -6 80.07 6.04
-6 3 6 89.15 3.07
-6 3 6 88.06 3.18
-6 3 6 83.46 3.12
-6 3 5 818.4 21.51
-6 3 5 752.11 24.14
6 -3 -5 839.44 26.76
-6 3 5 820.12 21.58
-6 3 4 278.02 7.85
-6 3 4 249.39 10.1
6 -3 -4 275.66 8.53
6 -3 -4 256.42 11.09
6 -3 -4 263.99 11.53
6 -3 -4 265.99 11.12
-6 3 4 282.52 7.98
-6 3 4 274.06 7.88
6 -3 -3 0.56 0.56
6 -3 -3 0.62 0.55
-6 3 3 1.48 0.32
-6 3 3 1.51 0.69
6 -3 -3 1.89 0.51
6 -3 -3 2.57 0.98
-6 3 3 1.25 0.48
-6 3 3 1.47 0.36
-6 3 2 16.2 0.93
-6 3 2 15.6 1.9
6 -3 -2 16.3 1.27
6 -3 -2 13.47 2.03
6 -3 -2 17.66 2.26
-6 3 2 13.95 1.97
-6 3 2 14.43 1.43
6 -3 -2 15.63 1.95
-6 3 2 15.71 0.99
6 -3 -1 1.95 0.88
-6 3 1 2.57 0.94
6 -3 -1 3.66 0.9
6 -3 -1 2.41 0.48
-6 3 1 2.77 0.89
6 -3 -1 2.71 0.56
-6 3 1 2.99 0.43
6 -3 0 7.07 0.79
-6 3 0 7.19 1.32
-6 3 0 5.95 1.49
6 -3 0 5.94 0.86
6 -3 1 181.31 5.82
-6 3 -1 171.5 7.51
6 -3 1 185.85 5.8
6 -3 1 161.67 8.32
-6 3 -1 159.19 8.72
6 -3 1 170.01 5.65
6 -3 1 161.47 6.32
6 -3 2 152.16 4.63
6 -3 2 150.31 5.15
-6 3 -2 137.26 6.59
6 -3 2 144.15 4.96
6 -3 2 140.47 7.98
-6 3 -2 152.54 8.62
6 -3 2 141.82 5.88
6 -3 2 148.63 5.08
6 -3 3 4.69 0.53
6 -3 3 3.57 0.57
-6 3 -3 2.85 1.21
6 -3 3 4.27 0.78
6 -3 3 3.5 0.81
6 -3 4 0.25 0.22
6 -3 4 -0.13 0.38
6 -3 4 0.16 0.35
-6 3 -4 0.21 0.5
6 -3 4 0.24 0.3
6 -3 5 27.64 1.29
6 -3 5 27.84 1.67
6 -3 5 27.1 1.52
6 -3 5 27.95 1.66
6 -3 6 30.84 1.62
6 -3 6 29.35 1.44
6 -3 6 32.32 1.68
6 -3 6 33.24 1.35
6 -3 7 0.32 0.16
6 -3 7 -0.02 0.22
-6 2 11 0.11 0.12
-6 2 11 0.24 0.13
-6 2 10 3.32 0.36
-6 2 10 3.82 0.4
-6 2 9 31.94 1.46
-6 2 9 33.65 1.47
-6 2 8 159.11 4.93
-6 2 8 157.28 4.95
-6 2 7 179.2 5.64
-6 2 7 183.4 5.62
-6 2 7 192.1 5.76
-6 2 6 92.53 5.21
-6 2 6 106.01 3.57
-6 2 6 104.73 3.58
6 -2 -6 99.4 6.27
-6 2 6 104.55 3.64
-6 2 5 233.12 6.78
-6 2 5 212.45 9.03
6 -2 -5 234.49 7.41
6 -2 -5 236.16 10.74
-6 2 4 552.93 14.58
-6 2 4 507.25 17.27
6 -2 -4 556.27 15.31
6 -2 -4 516.84 17.66
6 -2 -4 551.73 18.94
-6 2 4 531.67 14.68
-6 2 3 6.7 1.37
-6 2 3 8.49 0.69
6 -2 -3 8.46 0.92
6 -2 -3 8.95 1.54
6 -2 -3 8.39 1.7
-6 2 3 10.32 0.78
-6 2 2 317 8.66
-6 2 2 298.35 11.15
6 -2 -2 313.47 9.28
6 -2 -2 284.26 11.28
6 -2 -2 303.71 12.09
-6 2 2 287.86 11.91
-6 2 2 314.79 8.75
6 -2 -1 95.8 3.5
-6 2 1 91.41 4.97
6 -2 -1 88.92 3.49
6 -2 -1 84.21 5.08
-6 2 1 84.96 5.57
6 -2 -1 84.04 4.19
-6 2 1 92.35 3.11
6 -2 0 0.22 0.32
-6 2 0 0.32 0.5
6 -2 0 0.34 0.29
6 -2 0 0.54 0.37
-6 2 0 0.16 0.46
6 -2 0 1.47 0.71
6 -2 1 526.33 14.53
6 -2 1 569.98 15.28
-6 2 -1 549.53 17.52
6 -2 1 548.21 15.12
6 -2 1 557.99 18.36
6 -2 1 541.87 16.59
6 -2 2 4.81 1.28
6 -2 2 5.43 0.53
6 -2 2 5.68 0.81
6 -2 2 5.79 0.7
-6 2 -2 4.98 1.48
6 -2 2 5.33 1.04
6 -2 3 16.58 0.94
6 -2 3 16.39 1.26
-6 2 -3 19.26 2.89
6 -2 3 15.87 1.8
6 -2 4 10.28 0.69
6 -2 4 11.64 1.08
6 -2 4 8.3 0.88
-6 2 -4 12.42 2.33
6 -2 4 8.67 1.34
6 -2 5 3.89 0.4
6 -2 5 3.12 0.6
6 -2 5 3.38 0.56
6 -2 5 3.1 0.62
6 -2 6 51.85 2.18
6 -2 6 54.72 2.13
6 -2 6 57.5 2.37
6 -2 6 53.27 1.83
6 -2 7 0.91 0.18
6 -2 7 0.98 0.28
-6 1 11 31.18 1.2
-6 1 11 30.26 1.26
-6 1 10 2.76 0.38
-6 1 10 3.44 0.4
-6 1 9 13.62 0.9
-6 1 9 12.57 0.83
-6 1 8 19.97 1.18
6 -1 -8 19.97 2.92
-6 1 8 18.36 1.16
-6 1 8 19.2 1.21
6 -1 -7 811.26 26.86
-6 1 7 778.82 21.41
-6 1 7 822.19 21.49
6 -1 -7 831.42 26.16
-6 1 6 67.91 4.47
-6 1 6 74.47 2.79
6 -1 -6 71.03 5.47
-6 1 6 76.18 2.86
-6 1 6 77.64 2.92
-6 1 5 47.04 3.56
-6 1 5 51.15 2.06
6 -1 -5 49.49 3.57
6 -1 -5 52.84 4.36
-6 1 5 47.82 2.08
-6 1 5 48.68 2.13
-6 1 4 7.6 0.67
6 -1 -4 6.9 0.85
6 -1 -4 7.85 1.37
-6 1 4 6.53 1.32
-6 1 4 7.41 0.68
-6 1 4 6.39 0.66
-6 1 3 16.98 1
-6 1 3 13.44 1.81
6 -1 -3 14.69 1.19
6 -1 -3 11.32 1.66
6 -1 -3 13.96 2.15
-6 1 3 13.14 2.05
-6 1 3 14.07 0.96
6 -1 -2 22.6 1.45
-6 1 2 24.26 1.23
-6 1 2 18.27 2.16
6 -1 -2 23.85 2.38
6 -1 -2 22.07 1.47
-6 1 2 20.92 2.7
-6 1 2 21.96 1.23
6 -1 -1 112.99 4.18
-6 1 1 109.57 5.78
-6 1 1 109.53 6.73
-6 1 1 120.2 3.85
6 -1 0 40.22 2.07
-6 1 0 35.32 3
6 -1 0 38.31 1.98
6 -1 0 39.86 3.24
6 -1 0 34.93 2.79
6 -1 1 8.7 0.94
6 -1 1 8.79 1.54
-6 1 -1 6.88 1.34
6 -1 1 9.91 0.91
-6 1 -1 8.09 1.88
6 -1 1 7.45 1.29
6 -1 2 33.75 1.96
6 -1 2 34.67 1.89
-6 1 -2 31.97 3.72
6 -1 2 32.4 2.69
6 -1 3 0.26 0.41
6 -1 3 0.36 0.35
6 -1 3 0.1 0.28
-6 1 -3 0.41 0.7
6 -1 4 12.26 1.1
6 -1 4 13.68 1.14
6 -1 4 12.3 0.68
6 -1 5 1.75 0.47
6 -1 5 1.99 0.45
6 -1 5 2.09 0.26
6 -1 6 13.76 0.87
6 -1 6 15.21 1.05
6 -1 7 10.84 0.54
6 -1 7 10.91 0.66
-6 0 12 1.2 0.19
-6 0 11 10.84 0.72
-6 0 11 9.03 0.57
-6 0 11 10.5 0.69
-6 0 10 22.03 1.14
-6 0 10 24.38 1.13
-6 0 10 25.35 1.28
-6 0 9 49.9 1.95
-6 0 9 46.86 2.15
-6 0 8 106.38 3.63
6 0 -8 91.69 6.4
-6 0 8 97.53 3.71
-6 0 8 112.37 3.87
6 0 -7 34.36 3.69
-6 0 7 37.04 1.85
-6 0 7 37.62 1.95
-6 0 7 34.63 1.83
-6 0 6 196.49 5.97
6 0 -6 205.79 9.77
-6 0 6 201.44 6.13
-6 0 6 193.65 6.14
-6 0 5 0.35 0.25
-6 0 5 0.13 0.51
6 0 -5 0.48 0.67
-6 0 5 0.47 0.29
6 0 -5 0.54 0.43
-6 0 4 10.26 0.8
6 0 -4 10.53 1.58
6 0 -4 8.85 1.77
-6 0 4 10.81 0.84
-6 0 4 6.31 1.55
-6 0 4 10.09 0.86
-6 0 3 23.85 1.31
-6 0 3 26.91 2.63
6 0 -3 24.69 2.38
-6 0 3 23.95 1.28
-6 0 3 24.14 1.36
6 0 -2 29.8 1.76
-6 0 2 28.5 1.47
-6 0 2 28.41 2.75
6 0 -2 29.27 2.66
-6 0 2 23.37 3.04
-6 0 2 29.14 1.42
-6 0 2 29.57 1.53
6 0 -1 19.5 1.4
-6 0 1 19.37 2.28
6 0 -1 20.68 2.23
6 0 -1 17.13 1.14
-6 0 1 15.76 2.55
-6 0 1 19.31 1.08
6 0 0 5.23 0.77
-6 0 0 4.02 1.12
6 0 0 5.24 0.66
-6 0 0 5.58 1.56
6 0 0 4.72 1.14
6 0 0 6.83 1.33
6 0 1 208.04 6.76
6 0 1 212.72 8.71
6 0 1 202.35 6.46
-6 0 -1 189.46 10.16
6 0 2 1.86 0.5
-6 0 -2 2.68 1.19
-6 0 -2 3.28 1.82
6 0 2 1.69 0.7
6 0 3 4.95 0.77
6 0 3 6.29 0.75
6 0 3 5.93 0.77
-6 0 -3 4.89 1.49
-6 0 -3 3.98 2.15
6 0 3 5.26 1.11
6 0 3 5.51 0.47
6 0 4 91.64 3.64
6 0 4 95.06 3.54
6 0 4 98.52 3.72
6 0 4 98.25 3
6 0 5 22.49 0.95
6 0 6 0.07 0.16
6 0 6 0.07 0.25
6 0 6 0.07 0.08
-6 -1 12 2.26 0.26
-6 -1 12 2.51 0.29
-6 -1 11 8.74 0.54
-6 -1 11 9.5 0.7
-6 -1 10 30.09 1.42
-6 -1 10 33.22 1.34
-6 -1 10 34.61 1.56
-6 -1 9 142.75 4.52
-6 -1 9 137.04 4.79
-6 -1 8 40.22 1.88
6 1 -8 43.03 4
-6 -1 8 36.24 1.98
-6 -1 8 40.78 2.11
-6 -1 7 4.94 1.34
6 1 -7 9.24 1.88
-6 -1 7 8.41 0.87
-6 -1 7 8.17 0.95
-6 -1 7 8.02 0.88
-6 -1 6 14.64 2.19
-6 -1 6 15.17 1.07
6 1 -6 14.18 2.24
-6 -1 6 15.73 1.29
-6 -1 5 175.56 8.62
-6 -1 5 186.44 5.95
6 1 -5 197.68 8.21
6 1 -5 194.86 9.18
-6 -1 5 197.59 9.94
-6 -1 5 203.64 6.11
-6 -1 5 193.52 6.21
-6 -1 4 9.93 0.85
6 1 -4 9.88 1.53
-6 -1 4 11.1 0.9
-6 -1 4 8.79 1.98
-6 -1 4 10.46 0.94
6 1 -3 32.34 1.94
-6 -1 3 30.33 3.03
-6 -1 3 29.31 1.61
6 1 -3 33.51 2.86
6 1 -3 26.96 3.21
-6 -1 3 27.71 3.52
-6 -1 3 33.09 1.61
-6 -1 3 34.85 1.82
6 1 -2 31.98 1.94
-6 -1 2 28.9 2.98
-6 -1 2 27.36 1.57
-6 -1 2 32.48 1.57
-6 -1 2 32.65 1.77
6 1 -1 50.15 2.53
-6 -1 1 48.33 3.88
6 1 -1 53.77 3.73
6 1 -1 48.46 2.14
-6 -1 1 44.85 5.27
-6 -1 0 187.79 8.87
6 1 0 200.08 6.77
6 1 0 222.81 8.77
6 1 0 197.84 6.33
-6 -1 0 196.98 10.57
-6 -1 0 200.71 12.75
-6 -1 0 224.43 6.76
6 1 0 183.8 8.44
6 1 1 75.99 3.32
6 1 1 76.81 3.06
-6 -1 -1 69.64 5.8
-6 -1 -1 67.75 7.53
6 1 1 70.91 4.51
6 1 2 6.2 0.72
6 1 2 4.67 0.69
-6 -1 -2 5.5 1.58
-6 -1 -2 4.1 2.08
6 1 2 5.2 1.1
6 1 3 26.53 1.52
6 1 3 26.38 1.62
6 1 3 27.1 1.21
6 1 4 12.2 0.93
6 1 4 12.59 1.04
6 1 4 12.02 0.68
6 1 5 6.85 0.59
6 1 5 7.29 0.7
6 1 5 7.13 0.44
-6 -2 12 2.66 0.32
-6 -2 12 2.99 0.34
-6 -2 11 -0.1 0.24
-6 -2 11 -0.07 0.22
-6 -2 10 1.39 0.37
-6 -2 10 1.01 0.33
-6 -2 10 1.37 0.24
-6 -2 9 18.97 1.15
-6 -2 9 17.12 1.36
-6 -2 9 19.35 1.15
-6 -2 9 20.37 1
-6 -2 8 32.78 1.7
6 2 -8 33.6 3.39
-6 -2 8 36.8 2.05
-6 -2 8 28.3 1.94
-6 -2 8 36.91 1.68
-6 -2 8 37.52 2.11
-6 -2 7 4.48 0.61
6 2 -7 4.47 1.3
-6 -2 7 4.5 0.71
-6 -2 7 5.88 0.88
-6 -2 7 5.38 0.8
-6 -2 6 1.27 0.41
-6 -2 6 1 0.77
-6 -2 6 1.48 0.45
6 2 -6 1.03 0.6
-6 -2 6 1.14 0.5
-6 -2 5 56.57 2.48
6 2 -5 63.22 4.11
-6 -2 5 54.88 5.27
-6 -2 5 60.58 2.58
6 2 -5 56.37 5.19
-6 -2 5 64.56 2.98
-6 -2 5 57.73 2.76
-6 -2 4 -0.03 0.26
-6 -2 4 0.8 0.75
-6 -2 4 0.46 0.8
6 2 -4 0.2 0.56
-6 -2 4 0.21 0.28
6 2 -4 0.24 0.44
-6 -2 4 0.4 0.37
-6 -2 4 0.39 0.37
6 2 -3 7.81 1.44
-6 -2 3 3.92 1.22
-6 -2 3 5.69 0.67
-6 -2 3 4.43 1.58
6 2 -3 8.09 1.77
-6 -2 3 7.56 0.94
-6 -2 3 5.36 0.79
6 2 -2 102.51 5.46
-6 -2 2 92.06 3.37
-6 -2 2 99.25 3.92
-6 -2 2 91.2 3.82
6 2 -1 209.38 8.56
-6 -2 1 209.6 6.76
6 2 0 8.31 0.84
-6 -2 0 6.4 1.83
-6 -2 0 8.54 1.03
6 2 0 6.24 1.31
6 2 1 98.94 3.55
6 2 1 101.74 3.76
-6 -2 -1 93.45 6.93
-6 -2 -1 85.48 8.26
6 2 1 102.37 5.38
6 2 2 39.72 1.86
6 2 2 39.12 2.01
6 2 3 44.57 1.91
6 2 3 40.59 2.03
6 2 3 45.07 1.64
6 2 4 4.66 0.48
6 2 4 3.91 0.54
6 2 4 4.72 0.37
6 2 5 19.77 0.87
6 2 5 20.38 1.01
6 2 5 18.86 0.71
-6 -3 12 7.6 0.54
-6 -3 12 9.1 0.59
-6 -3 11 0.12 0.22
-6 -3 11 0.07 0.21
-6 -3 11 0.13 0.1
-6 -3 10 34.06 1.65
-6 -3 10 34.05 1.61
-6 -3 10 37.09 1.36
-6 -3 9 6.76 0.71
-6 -3 9 3.81 0.73
-6 -3 9 4.98 0.59
-6 -3 9 2.88 0.64
-6 -3 9 5.31 0.51
-6 -3 8 0.69 0.33
-6 -3 8 0.05 0.39
-6 -3 8 0.37 0.41
-6 -3 8 -0.12 0.42
-6 -3 7 97.66 3.39
-6 -3 7 86.17 3.67
6 3 -7 83.69 6.81
-6 -3 7 83.9 3.95
-6 -3 7 81.73 3.78
-6 -3 6 29.46 1.56
-6 -3 6 29.48 1.81
6 3 -6 33.13 4.06
-6 -3 6 29.3 2.06
-6 -3 6 24.42 1.85
-6 -3 5 -0.49 0.77
6 3 -5 0.22 0.61
-6 -3 5 0.21 0.34
-6 -3 5 0.22 0.42
6 3 -4 49.86 4.75
-6 -3 4 60.04 2.69
-6 -3 4 59.39 5.81
-6 -3 4 63.51 3.13
-6 -3 4 57.92 3.01
-6 -3 3 0.51 0.72
-6 -3 3 0.58 0.39
-6 -3 3 0.29 0.43
-6 -3 3 0.51 0.41
-6 -3 2 125.03 8.55
-6 -3 2 131.87 4.94
-6 -3 1 56.24 5.47
-6 -3 1 53.94 2.88
6 3 -1 54.1 3.84
6 3 0 11.7 0.87
6 3 0 12.02 0.99
6 3 1 56.13 2.23
6 3 1 55.1 2.43
6 3 2 19.07 1.05
6 3 2 17.3 1.17
6 3 3 9.82 0.57
6 3 3 10.72 0.69
6 3 3 10.97 0.84
6 3 3 12.27 0.63
6 3 4 4.1 0.35
6 3 4 4.04 0.43
6 3 4 4.29 0.29
-6 -4 11 0.13 0.21
-6 -4 11 0.21 0.21
-6 -4 11 0.09 0.11
-6 -4 10 13.26 1
-6 -4 10 13.63 0.95
-6 -4 10 14.18 0.76
-6 -4 9 2.53 0.49
-6 -4 9 1.13 0.5
-6 -4 9 2.46 0.48
-6 -4 9 2.34 0.37
-6 -4 8 1.01 0.4
-6 -4 8 0.58 0.51
-6 -4 7 92.09 3.43
-6 -4 7 88.68 3.85
-6 -4 7 81.94 4.12
-6 -4 6 7.17 1.1
-6 -4 6 6.37 0.93
-6 -4 6 7.42 1.14
-6 -4 6 5.5 0.97
-6 -4 5 0.64 0.61
-6 -4 5 0.25 0.69
6 4 -5 0.59 0.73
-6 -4 5 0.81 0.43
-6 -4 5 0.69 0.56
-6 -4 5 0.82 0.56
-6 -4 4 88.11 3.57
-6 -4 4 86.42 7.01
-6 -4 4 91.78 4.15
-6 -4 3 7.88 0.91
-6 -4 3 9.73 1.23
-6 -4 2 9.44 1.23
-6 -4 1 53.95 2.97
-6 -4 0 12.46 1.49
6 4 1 15.38 0.82
-6 -4 -1 15.34 1.5
6 4 1 15.32 0.99
6 4 2 0.72 0.19
-6 -4 -2 0.83 0.4
6 4 2 1.05 0.29
6 4 3 17.02 0.68
6 4 3 17.88 0.82
-6 -5 11 0.02 0.16
-6 -5 11 0.11 0.09
-6 -5 10 1.94 0.41
-6 -5 9 3.31 0.55
-6 -5 9 2.53 0.62
-6 -5 9 4.4 0.43
-6 -5 8 0.04 0.26
-6 -5 8 -0.1 0.41
-6 -5 8 -0.13 0.51
-6 -5 7 0.59 0.36
-6 -5 7 0.52 0.44
-6 -5 7 0.07 0.53
-6 -5 6 4.08 0.79
-6 -5 6 3.8 0.75
-6 -5 5 0.78 0.55
-6 -5 5 0.76 0.45
-6 -5 5 0.88 0.67
-6 -5 4 74.89 3.85
-6 -5 4 79.76 3.89
-6 -5 3 47.47 2.91
-6 -5 2 0.74 0.64
-6 -5 2 0.67 0.56
-6 -5 1 48.05 2.84
-6 -5 0 1.23 0.54
-6 -5 -1 0.48 0.32
-6 -5 -1 0.42 0.3
6 5 2 3.63 0.22
-6 -6 10 0.16 0.18
-6 -6 10 0.14 0.11
-6 -6 9 11.23 0.95
-6 -6 9 19.6 0.82
-6 -6 8 8.64 0.84
-6 -6 8 10.16 1.14
-6 -6 7 0.19 0.52
-6 -6 6 37.23 1.92
-6 -6 6 32.73 2.34
-6 -6 5 0.41 0.32
-6 -6 5 0.7 0.42
-6 -6 5 0.2 0.59
-6 -6 4 4.75 0.84
-6 -6 4 3.9 0.94
-6 -6 3 13.17 1.36
-6 -6 2 1.01 0.46
-6 -6 2 1.34 0.52
-6 -6 1 7.89 0.81
-6 -6 1 9.38 0.91
6 6 0 -0.04 0.08
-6 -6 0 0.02 0.17
-6 -6 0 0.07 0.17
6 6 0 -0.01 0.06
-6 -7 8 0.58 0.12
-6 -7 7 1.75 0.48
-6 -7 7 2.2 0.22
-6 -7 6 5.49 0.81
-6 -7 6 6.26 0.36
-6 -7 5 3.89 0.48
-6 -7 5 5.08 0.77
-6 -7 4 2.24 0.41
-6 -7 4 1.77 0.49
-6 -7 3 3.41 0.4
7 -10 1 0.08 0.14
-7 9 3 2.45 0.24
7 -9 -2 32.52 1.36
-7 9 2 35.79 1.27
7 -9 -1 3.16 0.47
-7 9 1 2.84 0.32
7 -9 0 12.83 0.92
-7 9 0 11.54 0.61
7 -9 1 7.38 0.41
7 -9 1 7.92 0.62
7 -9 1 8.96 0.78
7 -9 2 8.04 0.42
7 -9 2 7.95 0.65
7 -9 3 22.23 0.8
7 -9 3 28.45 1.26
7 -9 3 26.5 1.2
7 -9 3 20.21 0.9
7 -9 4 0.35 0.22
-7 8 5 22.48 0.81
-7 8 5 24.01 0.86
-7 8 4 53.73 1.75
-7 8 4 60.15 1.92
-7 8 3 1.57 0.3
7 -8 -2 91.85 3.35
-7 8 2 89.68 2.97
7 -8 -1 0.25 0.18
7 -8 -1 0.07 0.35
-7 8 1 0.16 0.19
7 -8 0 5.43 0.49
7 -8 0 5.22 0.73
-7 8 0 5.09 0.49
7 -8 1 43.31 1.65
7 -8 1 41.32 1.95
7 -8 1 43.04 2.14
7 -8 2 12.85 0.75
7 -8 2 11.88 0.97
7 -8 2 11.2 1
7 -8 3 32.87 1.3
7 -8 3 33.34 1.68
7 -8 3 31.56 1.61
7 -8 4 44.46 1.51
7 -8 4 44.04 1.9
7 -8 4 42.3 1.6
7 -8 5 9.15 0.49
-7 7 6 37.49 1.33
-7 7 6 38.84 1.33
-7 7 5 0.64 0.2
-7 7 4 68.59 2.36
-7 7 4 74.56 2.53
7 -7 -3 8.53 0.88
-7 7 3 7.2 0.65
7 -7 -2 24.17 1.62
-7 7 2 23.43 1.27
7 -7 -1 16.52 1.37
-7 7 1 17.94 1.07
7 -7 0 46.46 2.21
7 -7 0 48.9 2.48
-7 7 0 45.3 1.9
7 -7 1 205.63 6.56
7 -7 2 10.32 1.01
7 -7 2 11.36 1.06
7 -7 3 7.25 0.82
7 -7 3 6.21 0.75
7 -7 4 17.26 1.2
7 -7 4 14.92 0.97
7 -7 4 17.23 1.07
7 -7 5 14.23 0.75
7 -7 5 12.04 0.73
7 -7 6 18.52 0.97
7 -7 6 20.01 0.82
-7 6 8 38.5 1.23
-7 6 7 51.21 1.71
-7 6 7 47.31 1.6
-7 6 6 90.93 2.91
-7 6 6 90.6 2.93
-7 6 5 0.79 0.25
-7 6 5 0.63 0.21
-7 6 4 69.21 2.51
7 -6 -4 76.06 3.07
-7 6 4 70.96 2.67
-7 6 3 9.32 0.7
7 -6 -3 9.03 1.02
-7 6 3 9.24 0.8
7 -6 -2 23.93 1.71
-7 6 2 23.37 1.33
-7 6 1 0.64 0.59
7 -6 -1 0.61 0.52
-7 6 1 0.69 0.32
7 -6 0 9.95 1.01
-7 6 0 10.71 1.73
7 -6 0 9.8 1.12
-7 6 0 9.86 0.78
7 -6 1 4.22 0.54
7 -6 1 4.17 0.71
7 -6 2 5.85 0.63
7 -6 2 6.55 0.86
7 -6 2 6.94 0.88
7 -6 3 0.2 0.25
7 -6 3 0.04 0.4
7 -6 3 0.04 0.32
7 -6 4 33.78 1.51
7 -6 4 37.05 1.94
7 -6 4 35.86 1.79
7 -6 4 36.96 1.82
7 -6 5 8.13 0.6
7 -6 5 8.62 0.82
7 -6 5 7.26 0.67
7 -6 6 9.18 0.71
7 -6 6 10.23 0.59
7 -6 7 15.42 0.61
-7 5 8 57.58 1.93
-7 5 7 0.73 0.27
-7 5 7 0.85 0.24
-7 5 6 80.07 2.87
-7 5 6 85.53 2.72
-7 5 6 85.61 2.95
-7 5 5 34.69 1.6
-7 5 5 34.33 1.66
-7 5 4 2.18 0.41
7 -5 -4 2.74 0.64
-7 5 4 2.18 0.45
-7 5 3 8.41 0.68
-7 5 3 6.92 1.12
-7 5 3 6.26 0.69
7 -5 -2 0.21 0.45
-7 5 2 0.12 0.24
7 -5 -1 103.21 4.01
-7 5 1 94.89 5.72
7 -5 -1 106.17 4.31
-7 5 1 114.59 3.74
7 -5 0 39.49 2.13
-7 5 0 34.65 3.23
7 -5 0 39.34 2.26
-7 5 0 31.68 3.47
7 -5 1 9.16 0.81
7 -5 1 9.5 1.03
7 -5 1 9.57 1.04
-7 5 -1 6.97 1.46
-7 5 -1 6.32 1.62
7 -5 2 9.39 0.8
7 -5 2 11.37 1.12
7 -5 2 9.54 1
7 -5 3 43.02 1.8
7 -5 3 42.99 2.23
7 -5 3 36.12 1.91
7 -5 3 36.44 2
7 -5 4 19.2 1.07
7 -5 4 18.83 1.09
7 -5 4 20.24 1.34
7 -5 5 37.54 1.53
7 -5 5 39.08 1.91
7 -5 5 38.62 1.79
7 -5 6 2.23 0.4
7 -5 6 2 0.32
7 -5 6 2.37 0.29
7 -5 7 5.57 0.32
-7 4 9 11.41 0.62
-7 4 9 11.3 0.58
-7 4 8 36.31 1.51
-7 4 8 38.61 1.5
-7 4 7 4.01 0.5
-7 4 7 4.46 0.51
-7 4 6 0.42 0.29
-7 4 6 0.42 0.25
-7 4 6 0.29 0.27
-7 4 5 39.33 1.78
-7 4 5 39.16 1.87
-7 4 4 10.17 0.8
7 -4 -4 8.93 1.06
-7 4 4 7.57 1.47
7 -4 -4 8.06 1.71
-7 4 4 9.26 0.83
-7 4 3 1.37 0.34
-7 4 3 2.46 0.89
7 -4 -3 1.44 0.57
-7 4 3 1.67 0.41
7 -4 -2 1.02 0.81
-7 4 2 1.18 0.69
7 -4 -2 0.2 0.4
-7 4 2 0.63 0.3
7 -4 -1 0.61 0.7
7 -4 -1 0.89 0.43
-7 4 1 1.05 0.67
7 -4 -1 1.4 0.56
-7 4 1 0.32 0.5
-7 4 1 0.99 0.32
7 -4 0 70.21 2.98
-7 4 0 58.23 4.25
7 -4 0 54.33 5.13
-7 4 0 52.14 4.72
7 -4 1 75.28 2.86
7 -4 1 81.43 3.41
-7 4 -1 71.86 4.78
7 -4 1 81.28 3.37
-7 4 -1 67.55 5.58
7 -4 2 74.56 2.8
7 -4 2 80.34 3.37
7 -4 2 80.77 3.24
7 -4 3 106.62 3.49
7 -4 3 110.08 4.12
7 -4 3 99.43 3.73
7 -4 4 3.97 0.46
7 -4 4 3.54 0.54
7 -4 4 5.03 0.71
7 -4 5 69.92 2.32
7 -4 5 74.04 2.84
7 -4 5 63.72 2.35
7 -4 5 70.03 2.72
7 -4 6 12.28 0.82
7 -4 6 12.59 0.81
7 -4 6 12.58 0.65
-7 3 10 38.75 1.34
-7 3 10 44.97 1.39
-7 3 9 0.41 0.21
-7 3 9 0.72 0.2
-7 3 8 15.91 0.98
-7 3 8 17.93 1.02
-7 3 7 3 0.49
-7 3 7 3.04 0.5
-7 3 6 48.47 2.06
-7 3 6 45.11 2
-7 3 5 3.64 0.53
-7 3 5 3.26 0.98
7 -3 -5 4.49 0.8
7 -3 -5 2.85 1.12
-7 3 5 3.13 0.5
-7 3 5 3.09 0.55
-7 3 4 109.85 3.64
-7 3 4 92 5.63
7 -3 -4 109.38 4.3
7 -3 -4 102.82 6.65
7 -3 -4 102.88 6.59
-7 3 4 107.01 3.75
7 -3 -4 88.07 5.97
-7 3 3 18.99 1.13
7 -3 -3 19.96 1.54
7 -3 -3 17.45 2.58
7 -3 -3 16.39 2.45
-7 3 3 18.26 1.2
7 -3 -3 15.42 2.23
-7 3 2 40.46 3.51
7 -3 -2 44.07 2.38
7 -3 -2 37.76 3.79
-7 3 2 31.96 3.42
-7 3 2 42.55 1.93
7 -3 -1 123.82 4.41
-7 3 1 115.39 6.31
7 -3 -1 115.96 4.45
7 -3 -1 104.38 6.77
-7 3 1 114.68 3.88
7 -3 0 1.28 0.89
7 -3 0 0.95 0.46
-7 3 0 0.27 0.46
7 -3 0 0.74 0.46
-7 3 0 0.96 0.81
7 -3 1 330.49 9.4
7 -3 1 353.02 10.26
-7 3 -1 322.17 12.5
7 -3 1 341.58 10.1
-7 3 -1 307.67 14.09
7 -3 2 67.52 2.46
7 -3 2 66.53 3.06
7 -3 2 69.01 2.9
7 -3 2 66.23 2.95
7 -3 3 25.27 1.23
7 -3 3 27.57 1.77
7 -3 3 26.84 1.68
7 -3 4 0.16 0.19
7 -3 4 0.16 0.37
7 -3 4 -0.03 0.25
7 -3 5 71.14 2.82
7 -3 5 69.39 2.55
7 -3 5 72.88 2.83
7 -3 5 74.43 2.32
7 -3 6 97.03 3.16
-7 2 10 22.59 1
-7 2 10 25.1 1
-7 2 10 24.39 1.05
-7 2 9 2.65 0.39
-7 2 9 2.55 0.35
-7 2 9 2.14 0.36
-7 2 8 11.54 0.8
-7 2 8 11.98 0.89
-7 2 7 393.99 10.73
-7 2 7 372.51 10.67
-7 2 7 377.67 10.82
-7 2 6 135.04 4.4
7 -2 -6 132.67 7.88
-7 2 6 130.3 4.4
-7 2 5 0.76 0.34
-7 2 5 1.07 0.7
7 -2 -5 -0.18 0.58
-7 2 5 0.7 0.33
-7 2 4 36.64 1.74
-7 2 4 32.79 3.2
7 -2 -4 40.94 2.28
7 -2 -4 32.75 3.36
7 -2 -4 35.51 3.75
-7 2 4 36.28 1.78
-7 2 4 35.76 1.82
-7 2 3 14.34 0.99
-7 2 3 13.48 2.05
7 -2 -3 16.01 1.39
7 -2 -3 11.03 1.94
-7 2 3 13.91 1.05
7 -2 -2 90.4 3.57
-7 2 2 77.39 5.09
7 -2 -2 88.54 3.66
7 -2 -2 77.99 5.27
-7 2 2 67.65 5.43
-7 2 2 86.04 3.18
7 -2 -1 184.45 6.08
-7 2 1 168.39 8.14
-7 2 1 156.82 8.96
7 -2 -1 161.77 6.84
-7 2 1 183.5 5.58
7 -2 0 17.66 1.02
7 -2 0 21.28 1.54
-7 2 0 18.3 2.35
7 -2 0 19.88 1.47
7 -2 0 16.97 2.51
-7 2 0 14.34 2.55
7 -2 0 19.28 1.89
7 -2 1 192.47 6.49
7 -2 1 190.98 7.71
7 -2 2 41.59 2.28
7 -2 2 42.76 2.18
-7 2 -2 39.47 4.33
7 -2 2 37.74 2.81
7 -2 3 95.76 3.7
7 -2 4 9.11 0.93
7 -2 4 8.12 0.78
7 -2 4 8.47 0.87
7 -2 5 2.48 0.47
7 -2 5 2.91 0.41
7 -2 5 1.97 0.45
7 -2 6 14.02 0.65
7 -2 6 17 0.89
-7 1 11 1.73 0.18
-7 1 11 1.88 0.23
-7 1 10 5.58 0.48
-7 1 10 6.48 0.46
-7 1 10 7.07 0.54
-7 1 9 4.59 0.53
-7 1 9 3.91 0.42
-7 1 9 4.26 0.54
-7 1 8 35.69 1.72
-7 1 8 36.54 1.82
-7 1 7 13.1 0.99
-7 1 7 12.42 0.98
-7 1 7 10.85 0.98
-7 1 7 13.77 1.09
-7 1 6 29.38 1.55
-7 1 6 26.39 1.53
-7 1 5 11.18 0.9
7 -1 -5 9.1 1.66
-7 1 5 8.61 1.67
-7 1 5 10.6 0.91
-7 1 5 8.96 0.89
-7 1 4 72.66 2.81
-7 1 4 67.7 4.77
7 -1 -4 70.9 4.83
7 -1 -4 68.78 5.39
-7 1 4 71.63 2.86
-7 1 4 77.26 2.97
-7 1 3 219.93 6.62
-7 1 3 199.18 9.3
7 -1 -3 210.41 9.48
-7 1 3 223.11 6.62
-7 1 3 225.4 6.78
7 -1 -2 3.71 0.74
-7 1 2 3.65 1.1
-7 1 2 3.49 0.53
-7 1 2 2.79 1.22
7 -1 -2 3.79 0.95
-7 1 2 2.99 0.53
7 -1 -2 3.43 1.08
7 -1 -1 677.74 18.02
-7 1 1 598.68 20.62
7 -1 -1 629.32 20.97
7 -1 -1 633.85 17.42
-7 1 1 586.21 22.43
-7 1 1 644.84 17.13
7 -1 -1 608.16 19.64
7 -1 0 103.23 4.02
-7 1 0 90.81 5.6
7 -1 0 96.73 3.65
-7 1 0 87.34 6.62
7 -1 0 88.11 4.94
7 -1 1 14.67 1.31
7 -1 1 14.46 1.19
-7 1 -1 12.28 2.47
7 -1 1 13.64 1.73
7 -1 2 8.39 1
7 -1 2 7.52 0.86
7 -1 3 45.95 2.16
7 -1 3 47.29 2.26
7 -1 4 60.14 2.61
7 -1 4 65.9 2.67
7 -1 5 1.77 0.33
-7 0 11 0.89 0.21
-7 0 11 0.79 0.19
-7 0 10 21.82 1.08
-7 0 10 25.17 1.14
-7 0 9 178.86 5.3
-7 0 9 183.58 5.18
-7 0 9 170.56 5.49
-7 0 8 72.87 3.02
-7 0 8 80.26 2.77
-7 0 8 82.84 3.22
-7 0 7 0.48 0.34
7 0 -7 0.18 0.62
-7 0 7 0.21 0.29
-7 0 7 0.16 0.34
-7 0 7 0.74 0.4
-7 0 6 38.14 3.65
-7 0 6 48.4 2.17
7 0 -6 46.48 4.31
-7 0 6 47.99 2.33
-7 0 5 28.79 3.2
-7 0 5 33.73 1.77
7 0 -5 30.97 3.56
-7 0 5 34.45 1.79
-7 0 5 33.41 1.86
-7 0 4 21.29 1.35
7 0 -4 22.43 2.57
-7 0 4 21.11 1.34
-7 0 4 22 1.44
7 0 -3 87.27 3.7
-7 0 3 76.86 5.32
-7 0 3 85.18 3.27
7 0 -3 91.37 5.49
-7 0 3 72.15 6.02
-7 0 3 85.66 3.26
-7 0 3 96.12 3.55
7 0 -2 -0.05 0.43
-7 0 2 0.15 0.47
-7 0 2 0.22 0.54
-7 0 2 0.24 0.27
7 0 -2 -0.12 0.49
-7 0 2 -0.04 0.34
7 0 -1 338.01 10.06
-7 0 1 292.86 12.42
7 0 -1 330.53 9.44
-7 0 1 306.2 14.27
7 0 -1 300.63 11.76
7 0 0 8.36 1.03
7 0 0 10.08 0.93
7 0 0 7.34 1.37
7 0 1 18.1 1.48
7 0 1 17.55 1.27
-7 0 -1 16.51 2.84
7 0 1 15.24 1.87
7 0 2 11.9 0.99
7 0 2 11.51 1.02
7 0 3 4.46 0.59
7 0 3 5.29 0.68
7 0 4 46.91 1.89
7 0 4 46 2.04
7 0 5 1.99 0.34
-7 -1 11 1.87 0.3
-7 -1 11 1.66 0.26
-7 -1 10 27.48 1.33
-7 -1 10 25.12 1.2
-7 -1 9 51.45 2.13
-7 -1 9 47.76 2.26
-7 -1 9 55.58 2.04
-7 -1 9 51.88 2.38
-7 -1 8 22.72 1.47
-7 -1 8 25.06 1.61
-7 -1 7 15.84 1.15
-7 -1 7 17.87 1.42
-7 -1 6 6.09 0.72
-7 -1 6 5.6 1.43
-7 -1 6 7.02 0.8
7 1 -6 3.23 1.42
-7 -1 6 5.62 0.85
-7 -1 6 6.84 0.86
-7 -1 5 178.24 5.8
7 1 -5 166.58 9.64
-7 -1 5 190.23 5.93
-7 -1 5 184.81 6.31
-7 -1 5 183.63 6.16
-7 -1 4 0.14 0.31
-7 -1 4 0.17 0.4
-7 -1 4 0.46 0.71
-7 -1 4 0.24 0.31
-7 -1 4 0.64 0.45
-7 -1 4 0.25 0.44
-7 -1 3 188.49 9.82
-7 -1 3 204.44 11.44
-7 -1 3 227.92 7
-7 -1 3 255.42 7.73
-7 -1 3 232.17 7.43
-7 -1 2 30.16 3.32
7 1 -2 39.71 2.31
-7 -1 2 37.2 1.84
-7 -1 2 33.52 4.16
-7 -1 2 43.97 2.34
-7 -1 2 40.6 2.23
7 1 -1 1.69 0.6
-7 -1 1 1.59 0.87
7 1 -1 2.15 0.47
7 1 -1 2.06 0.83
-7 -1 1 2.23 0.55
7 1 0 24.2 1.74
7 1 0 24.4 1.47
-7 -1 0 27.72 1.75
7 1 1 49.04 2.19
7 1 1 50.36 2.29
7 1 2 16.34 1.08
7 1 2 17 1.19
7 1 2 16.1 0.78
7 1 3 0.75 0.29
7 1 3 0.9 0.36
7 1 3 0.78 0.16
7 1 4 0.22 0.17
7 1 4 0.26 0.25
-7 -2 11 9.25 0.63
-7 -2 11 7.62 0.53
-7 -2 10 10.66 0.77
-7 -2 10 9.29 0.65
-7 -2 9 1.42 0.37
-7 -2 9 1.06 0.4
-7 -2 9 0.93 0.41
-7 -2 9 1.49 0.25
-7 -2 8 9.84 0.82
-7 -2 8 7.95 0.93
-7 -2 8 7.09 0.94
-7 -2 8 9.52 1.04
-7 -2 7 28.14 1.63
-7 -2 7 33.3 1.61
-7 -2 7 31.79 1.86
-7 -2 7 31.72 2.07
-7 -2 6 3.46 0.64
-7 -2 6 4.36 0.77
-7 -2 6 3.19 0.71
-7 -2 5 48.69 2.35
-7 -2 5 50.86 2.64
-7 -2 4 16.4 2.53
-7 -2 4 21.13 1.41
-7 -2 4 16.23 2.96
-7 -2 4 22.19 1.7
-7 -2 4 23.92 1.72
-7 -2 3 141.87 4.68
-7 -2 3 125.7 8.64
-7 -2 3 139.7 5.18
-7 -2 3 131.23 5.09
-7 -2 2 12.36 2.59
-7 -2 2 14.57 1.32
-7 -2 2 8.87 1.09
7 2 -1 14.2 0.98
-7 -2 1 14.7 1.34
7 2 0 11.22 0.85
7 2 0 10.01 0.88
7 2 1 9.07 0.74
7 2 1 9.1 0.82
7 2 2 12.14 0.8
7 2 2 12.34 0.9
7 2 2 13.42 0.64
7 2 3 0.25 0.17
7 2 3 0.27 0.22
7 2 3 0.09 0.07
-7 -3 11 12.23 0.74
-7 -3 10 5.58 0.56
-7 -3 10 5.8 0.36
-7 -3 9 1.89 0.39
-7 -3 9 1.45 0.45
-7 -3 9 2.1 0.29
-7 -3 8 0.09 0.23
-7 -3 8 -0.05 0.4
-7 -3 8 0.48 0.45
-7 -3 7 82.97 3.07
-7 -3 7 82.55 3.48
-7 -3 7 79.45 3.74
-7 -3 6 0.45 0.41
-7 -3 6 0.51 0.49
-7 -3 6 0.42 0.49
-7 -3 5 75.4 3.18
-7 -3 5 81.54 3.71
-7 -3 5 70.25 3.48
-7 -3 4 7.09 0.84
-7 -3 4 8.01 1.1
-7 -3 4 5.03 0.9
-7 -3 3 1.56 0.45
-7 -3 3 1.08 0.55
-7 -3 3 1.15 0.6
-7 -3 2 0.12 0.45
-7 -3 1 1.64 0.57
7 3 0 6.09 0.53
7 3 1 10.04 0.63
-7 -3 -1 11.19 1.21
7 3 1 11.16 0.76
7 3 2 0.2 0.13
7 3 2 0.02 0.16
7 3 2 0.04 0.07
-7 -4 10 0.58 0.23
-7 -4 10 0.81 0.15
-7 -4 9 17.65 1.1
-7 -4 9 14.51 1.16
-7 -4 8 12.32 0.93
-7 -4 8 11.46 1.08
-7 -4 8 10.25 1.15
-7 -4 7 23.65 1.61
-7 -4 7 24.08 1.85
-7 -4 6 5.24 0.8
-7 -4 6 6.17 0.84
-7 -4 5 9.8 1.22
-7 -4 5 7.87 0.92
-7 -4 5 9.42 1.19
-7 -4 4 9.52 1.27
-7 -4 4 8.04 0.88
-7 -4 4 9.13 1.16
-7 -4 3 9.72 1.19
-7 -4 2 0.74 0.57
-7 -4 2 0.79 0.52
-7 -4 1 4.06 0.83
-7 -4 0 7.46 0.92
-7 -4 -1 -0.03 0.2
-7 -4 -1 0.03 0.2
7 4 1 0.02 0.06
-7 -5 8 6.74 0.78
-7 -5 8 7.66 0.89
-7 -5 7 3.85 0.63
-7 -5 7 6.01 0.89
-7 -5 6 26.08 1.58
-7 -5 6 29.81 2.03
-7 -5 5 0.22 0.34
-7 -5 5 0.07 0.29
-7 -5 5 -0.23 0.48
-7 -5 4 8.62 1.02
-7 -5 4 8.39 1.06
-7 -5 3 4.23 0.77
-7 -5 2 1 0.44
-7 -5 2 1.2 0.43
-7 -5 1 6.75 0.69
-7 -5 1 9.06 0.85
-7 -6 8 0.76 0.12
-7 -6 7 6.38 0.73
-7 -6 7 8.35 0.42
-7 -6 6 13.3 1.12
-7 -6 5 0.04 0.33
-7 -6 4 0.11 0.18
-7 -6 4 0.17 0.28
8 -9 0 13.39 0.75
8 -9 1 7.94 0.55
-8 8 4 2.05 0.22
8 -8 -3 5.15 0.33
-8 8 3 5.78 0.41
8 -8 -2 28.07 1.08
-8 8 2 29.85 1.18
8 -8 -1 25.78 1.04
8 -8 -1 27.78 1.41
-8 8 1 25.07 1.05
8 -8 0 9.67 0.57
8 -8 0 9.86 0.83
8 -8 1 90.67 2.7
8 -8 1 87.11 2.94
8 -8 2 8.86 0.5
8 -8 2 8.19 0.66
8 -8 2 7.69 0.65
8 -8 3 11.1 0.51
8 -8 3 9.98 0.69
8 -8 4 13.71 0.72
-8 7 5 18.85 0.77
-8 7 5 23.11 0.93
-8 7 4 44.94 1.57
-8 7 4 52.63 1.8
8 -7 -3 12.6 0.96
-8 7 3 11.91 0.76
8 -7 -2 35.8 1.83
-8 7 2 33.27 1.45
8 -7 -1 51.76 1.96
8 -7 -1 53.54 2.43
-8 7 1 51.94 1.94
8 -7 0 31.5 1.38
8 -7 0 32.77 1.59
8 -7 0 29.68 1.72
8 -7 1 116.55 3.55
8 -7 1 109.59 3.88
8 -7 2 11.78 0.71
8 -7 2 10.77 0.9
8 -7 2 9.67 0.84
8 -7 3 39.62 1.4
8 -7 3 37.86 1.72
8 -7 3 35.54 1.56
8 -7 4 64.62 1.85
8 -7 4 60.49 2.17
-8 6 7 1.03 0.16
-8 6 6 11.81 0.64
-8 6 6 12.53 0.69
-8 6 5 51.73 1.82
-8 6 5 50.34 1.76
-8 6 5 52.38 1.94
-8 6 4 11.59 0.71
8 -6 -4 13.02 1.03
-8 6 4 12.38 0.77
-8 6 4 11.9 0.82
8 -6 -3 20.09 1.4
-8 6 3 18.66 1.09
8 -6 -2 7.57 0.91
-8 6 2 7.48 0.67
8 -6 -1 306.59 9.3
-8 6 1 302.92 8.55
8 -6 0 20.78 1.15
8 -6 0 17.42 1.27
8 -6 0 18.93 1.43
8 -6 1 31.3 1.42
8 -6 1 28.12 1.66
8 -6 1 27.88 1.7
8 -6 2 49.64 1.88
8 -6 2 47.48 2.25
8 -6 2 47.55 2.17
8 -6 3 61.5 2.12
8 -6 3 60.54 2.55
8 -6 3 62.16 2.44
8 -6 4 47.23 1.63
8 -6 4 50.36 2.05
8 -6 4 45.78 1.83
8 -6 5 7.34 0.57
8 -6 5 9.48 0.46
-8 5 8 25.91 0.97
-8 5 8 26.51 0.9
-8 5 7 14.68 0.79
-8 5 7 16.77 0.83
-8 5 6 75.46 2.52
-8 5 6 72.13 2.35
-8 5 5 58.88 2.21
-8 5 5 63.61 2.26
-8 5 5 62.39 2.37
-8 5 4 7.73 0.64
8 -5 -4 7.34 0.9
-8 5 4 7.75 0.73
8 -5 -3 105.84 4.19
-8 5 3 105.95 3.65
8 -5 -2 5.68 0.93
-8 5 2 5.92 0.65
8 -5 -1 94.3 3.75
8 -5 -1 104.42 4.11
-8 5 1 103.19 3.46
8 -5 0 -0.05 0.25
8 -5 0 0.54 0.42
8 -5 1 37.31 1.66
8 -5 1 38.02 2.06
8 -5 1 38.91 2.06
8 -5 2 39.46 1.65
8 -5 2 38.31 2.07
8 -5 2 38.91 1.94
8 -5 2 43.74 2.08
8 -5 3 1.38 0.29
8 -5 3 1.84 0.52
8 -5 4 3.71 0.36
8 -5 4 3.26 0.48
8 -5 5 12.95 0.8
8 -5 5 14.61 0.61
-8 4 8 16.87 0.83
-8 4 8 15.53 0.79
-8 4 7 33.24 1.42
-8 4 7 30.55 1.23
-8 4 7 33.68 1.47
-8 4 6 2.79 0.42
-8 4 6 2.86 0.42
-8 4 5 18.83 1.12
-8 4 5 21.34 1.2
-8 4 5 21.56 1.26
-8 4 4 0.28 0.26
8 -4 -4 -0.1 0.41
-8 4 4 0.06 0.28
8 -4 -3 249 8.28
-8 4 3 264.79 7.7
8 -4 -2 4.56 0.84
-8 4 2 4.56 0.59
8 -4 -1 20.81 1.52
8 -4 -1 23.32 1.68
-8 4 1 22.67 1.29
8 -4 0 27.41 1.39
8 -4 0 27.54 1.76
8 -4 0 29.52 1.84
8 -4 1 5.36 0.55
8 -4 1 5.15 0.82
8 -4 1 5.14 0.76
8 -4 2 26.37 1.24
8 -4 2 29.5 1.78
8 -4 2 28.06 1.65
8 -4 3 10.35 0.64
8 -4 3 9.96 0.97
8 -4 3 8.09 0.72
8 -4 3 9.86 0.89
8 -4 4 0.05 0.13
8 -4 4 0.1 0.17
8 -4 4 -0.08 0.28
8 -4 5 3.92 0.43
8 -4 5 3.96 0.4
-8 3 9 8.69 0.46
-8 3 9 7.49 0.43
-8 3 8 1.14 0.28
-8 3 8 1.18 0.29
-8 3 7 52.38 2.12
-8 3 7 58.83 2.12
-8 3 7 53.93 2.22
-8 3 6 16.23 1.05
-8 3 6 15.51 1.03
-8 3 6 16.51 1.12
-8 3 5 38.23 1.8
-8 3 5 42.07 1.98
-8 3 4 0.82 0.31
-8 3 4 0.27 0.28
-8 3 4 0.73 0.37
8 -3 -3 170.38 6.1
-8 3 3 168.82 5.42
-8 3 3 176.26 5.55
8 -3 -2 25.84 1.83
-8 3 2 25.91 1.45
-8 3 2 26.82 1.51
8 -3 -1 9.69 0.75
8 -3 -1 9.89 1.07
-8 3 1 10.59 0.86
8 -3 0 27.12 1.3
8 -3 0 27.79 1.82
-8 3 0 28.34 1.41
8 -3 1 26.98 1.24
8 -3 1 26.65 1.77
8 -3 1 29.69 1.71
8 -3 2 11.36 0.69
8 -3 2 13.44 1.18
8 -3 2 13.67 1.1
8 -3 3 78.04 3.1
8 -3 3 71.54 2.76
8 -3 3 78.3 2.96
8 -3 4 7.89 0.75
8 -3 4 7.45 0.58
8 -3 5 2.77 0.33
-8 2 10 13.84 0.64
-8 2 9 9.43 0.5
-8 2 9 7.99 0.58
-8 2 8 2.01 0.38
-8 2 8 2.2 0.35
-8 2 8 1.67 0.38
-8 2 7 65.89 2.45
-8 2 7 60.21 2.39
-8 2 7 58.91 2.38
-8 2 6 5.31 0.63
-8 2 6 4.78 0.61
-8 2 6 5.55 0.69
-8 2 5 78.43 2.97
-8 2 5 75.95 2.99
-8 2 5 79.73 3.11
-8 2 4 2.32 0.45
-8 2 4 3.04 0.52
-8 2 4 2.82 0.55
-8 2 3 0.65 0.33
-8 2 3 -0.15 0.42
-8 2 3 0.85 0.36
-8 2 3 0.46 0.34
8 -2 -2 3.43 0.7
-8 2 2 3.6 0.55
-8 2 2 4.07 0.62
8 -2 -1 5.27 0.85
8 -2 -1 4.27 0.66
-8 2 1 4.04 0.55
8 -2 0 11.42 1.18
8 -2 0 12.03 1.05
8 -2 1 2.15 0.64
8 -2 1 1.59 0.48
8 -2 2 0.46 0.48
8 -2 2 0.62 0.39
8 -2 3 23.77 1.37
8 -2 4 35.97 1.45
8 -2 4 38.25 1.64
-8 1 10 0.85 0.18
-8 1 10 1.02 0.2
-8 1 9 49.43 1.97
-8 1 8 117.32 3.75
-8 1 8 107.12 3.69
-8 1 8 112.76 3.89
-8 1 7 7.38 0.74
-8 1 7 6.7 0.76
-8 1 6 58.95 2.47
-8 1 6 57.85 2.68
-8 1 6 62.68 2.68
-8 1 5 34.02 1.75
-8 1 5 33.33 1.78
-8 1 5 37.64 1.94
-8 1 4 53.89 2.4
-8 1 4 59.66 2.48
-8 1 4 57.54 2.58
-8 1 3 2.32 0.47
-8 1 3 3.01 0.54
-8 1 3 3.44 0.62
8 -1 -2 0.05 0.4
8 -1 -2 0.03 0.29
-8 1 2 0.66 0.31
-8 1 2 -0.12 0.3
8 -1 -1 122.81 4.79
8 -1 -1 124.68 4.35
-8 1 1 129.12 4.14
8 -1 0 15.69 1.15
-8 1 0 16.41 1.27
8 -1 1 16.67 1.35
8 -1 1 15.92 1.16
8 -1 2 33.37 1.86
8 -1 2 34.09 1.65
8 -1 2 33.05 1.7
8 -1 3 0.97 0.3
8 -1 3 0.58 0.29
8 -1 4 36.09 1.35
8 -1 4 39.12 1.53
-8 0 10 24.76 1.07
-8 0 9 57.87 2.29
-8 0 9 59.09 2.41
-8 0 8 1.69 0.4
-8 0 8 1.13 0.36
-8 0 8 1.99 0.47
-8 0 7 37.88 1.78
-8 0 7 32.83 1.87
-8 0 6 11.79 0.98
-8 0 6 12.37 1.02
-8 0 6 13.59 1.19
-8 0 6 12.41 1.13
-8 0 5 0.03 0.3
-8 0 5 0.35 0.34
-8 0 5 0.85 0.43
-8 0 4 2.73 0.53
-8 0 4 3.79 0.58
-8 0 4 3.57 0.67
-8 0 4 4.58 0.75
-8 0 3 44.24 2.05
-8 0 3 50.17 2.53
-8 0 3 44.15 2.3
8 0 -2 6.42 0.95
-8 0 2 7.66 0.74
-8 0 2 9.33 1.03
-8 0 2 8.15 0.92
8 0 -1 34.06 2.09
8 0 -1 35.45 1.77
-8 0 1 40.15 2.13
8 0 0 0.32 0.42
8 0 0 0.69 0.36
-8 0 0 0.04 0.32
8 0 1 44.86 1.96
8 0 1 46.73 2.04
8 0 2 71.06 2.53
8 0 2 69.19 2.62
8 0 3 11.21 0.68
8 0 3 11.22 0.76
-8 -1 10 43.12 1.58
-8 -1 9 5.62 0.51
-8 -1 9 4.58 0.56
-8 -1 9 4.4 0.59
-8 -1 8 28.68 1.31
-8 -1 8 26.56 1.49
-8 -1 8 26.01 1.58
-8 -1 7 1.73 0.46
-8 -1 7 1.67 0.54
-8 -1 7 1.91 0.53
-8 -1 6 8 0.84
-8 -1 6 7.37 0.92
-8 -1 6 8.59 0.96
-8 -1 5 0.14 0.29
-8 -1 5 0.05 0.37
-8 -1 4 2.43 0.49
-8 -1 4 2.43 0.61
-8 -1 4 2.65 0.68
-8 -1 3 77.59 2.97
-8 -1 3 71.54 3.31
-8 -1 2 28.63 1.82
8 1 -1 5.62 0.61
-8 -1 1 6.74 0.86
8 1 0 22.31 1.21
8 1 0 22.78 1.25
8 1 1 0.04 0.2
8 1 1 0.1 0.24
8 1 2 46.76 1.66
8 1 2 43.93 1.74
-8 -2 10 10.98 0.63
-8 -2 9 1.49 0.28
-8 -2 9 1.51 0.36
-8 -2 8 10.62 1
-8 -2 8 12.2 1.08
-8 -2 7 12.7 1.04
-8 -2 7 9.52 1.03
-8 -2 7 9.69 1.03
-8 -2 6 0.81 0.38
-8 -2 6 0.24 0.41
-8 -2 6 0.6 0.46
-8 -2 5 27.89 1.62
-8 -2 5 29.61 1.9
-8 -2 5 25.35 1.74
-8 -2 4 6.15 0.72
-8 -2 4 7.5 0.97
-8 -2 4 6.31 0.9
-8 -2 3 12.25 0.95
-8 -2 3 11.11 1.16
-8 -2 2 5.76 0.86
8 2 -1 13.86 0.8
-8 -2 1 13.23 1.15
8 2 0 29.53 1.22
8 2 1 4.07 0.34
-8 -2 -1 5.14 0.71
-8 -3 9 1.17 0.31
-8 -3 8 -0.03 0.28
-8 -3 8 0.17 0.3
-8 -3 8 0.32 0.14
-8 -3 7 1.09 0.41
-8 -3 7 1.54 0.51
-8 -3 6 0.07 0.28
-8 -3 5 24.92 1.73
-8 -3 5 26.49 1.54
-8 -3 5 26.78 1.82
-8 -3 4 5.29 0.88
-8 -3 4 5.72 0.67
-8 -3 4 4.39 0.78
-8 -3 3 14.26 1.26
-8 -3 2 8.18 1.06
-8 -3 2 7.47 0.89
-8 -3 1 5.72 0.82
8 3 -1 3.99 0.24
-8 -3 0 10.7 0.92
-8 -4 8 0.71 0.26
-8 -4 8 0.95 0.15
-8 -4 7 1.27 0.36
-8 -4 7 1.25 0.44
-8 -4 6 6.31 0.67
-8 -4 5 0.77 0.3
-8 -4 5 0.47 0.25
-8 -4 5 1.29 0.51
-8 -4 4 0.7 0.35
-8 -4 4 0.34 0.37
-8 -4 3 0.41 0.34
-8 -4 3 0.79 0.38
-8 -4 2 7.91 0.78
9 -7 -3 0.9 0.16
-9 7 3 0.88 0.16
-9 7 3 0.79 0.17
9 -7 -2 27.84 1.03
-9 7 2 29.84 1.08
9 -7 -1 10.86 0.58
9 -7 -1 11.59 0.82
-9 7 1 11.05 0.61
9 -7 0 17.25 0.74
-9 7 0 15.3 0.74
9 -7 1 0.07 0.11
9 -7 1 0.24 0.19
-9 7 -1 0.24 0.11
9 -7 2 20.95 0.76
-9 6 5 -0.01 0.12
-9 6 4 33.18 1.25
-9 6 4 31.88 1.31
9 -6 -3 6.98 0.52
-9 6 3 7.38 0.55
-9 6 3 7.8 0.58
9 -6 -2 14.43 0.79
9 -6 -2 13.85 1.05
-9 6 2 15.88 0.85
-9 6 2 15.21 0.82
9 -6 -1 46.29 1.68
9 -6 -1 46.15 2.09
-9 6 1 45.63 1.72
9 -6 0 3.37 0.36
9 -6 0 2.51 0.42
-9 6 0 3.72 0.39
9 -6 1 26.88 1.04
9 -6 1 23.58 1.25
9 -6 1 25.91 1.28
-9 6 -1 23.06 0.98
9 -6 2 117.82 3.2
9 -6 2 100.27 3.51
9 -6 3 0.02 0.15
-9 5 6 23.16 0.95
-9 5 6 27.5 1.12
-9 5 5 4.28 0.41
-9 5 5 4.8 0.48
-9 5 4 15.36 0.91
-9 5 3 42.92 1.73
-9 5 3 42.11 1.76
9 -5 -2 14.33 0.84
-9 5 2 15.01 0.91
-9 5 2 14.51 0.89
9 -5 -1 0.2 0.19
-9 5 1 0.1 0.2
9 -5 0 38.74 1.47
9 -5 0 35.1 1.77
9 -5 0 39.26 1.81
-9 5 0 38.62 1.52
9 -5 1 4.16 0.37
9 -5 1 3.75 0.58
9 -5 1 4.89 0.58
9 -5 2 75.75 2.21
9 -5 2 76.04 2.72
9 -5 2 82.25 2.66
9 -5 3 6.21 0.55
-9 4 7 4.25 0.37
-9 4 7 3.98 0.4
-9 4 6 27.92 1.2
-9 4 6 28.97 1.2
-9 4 6 27.5 1.3
-9 4 5 11.85 0.75
-9 4 5 12.55 0.81
-9 4 5 13.73 0.9
-9 4 4 0.71 0.29
-9 4 4 1.22 0.36
-9 4 3 65.15 2.44
-9 4 3 65.92 2.51
9 -4 -2 11.87 0.75
-9 4 2 11.32 0.82
-9 4 2 12.66 0.87
9 -4 -1 2.06 0.32
9 -4 -1 2.42 0.52
9 -4 -1 2.84 0.51
-9 4 1 3.43 0.45
9 -4 0 117.17 3.55
9 -4 0 112.86 4.17
-9 4 0 121.82 3.7
9 -4 1 0.68 0.17
9 -4 1 0.63 0.38
9 -4 1 0.9 0.37
9 -4 2 15.64 1.05
9 -4 2 13.22 0.78
9 -4 2 14.86 0.94
9 -4 3 21.09 1.1
9 -4 3 24.79 1.09
-9 3 8 13.91 0.68
-9 3 8 12.73 0.68
-9 3 7 0.05 0.17
-9 3 7 0.18 0.15
-9 3 6 10.21 0.71
-9 3 6 9.64 0.71
-9 3 6 10.47 0.77
-9 3 6 10.2 0.8
-9 3 5 52.47 2.03
-9 3 5 53.47 2.11
-9 3 5 52.2 2.2
-9 3 4 1.57 0.38
-9 3 4 1.22 0.38
-9 3 3 10.23 0.81
-9 3 3 10.78 0.88
9 -3 -2 27.19 1.46
-9 3 2 29.01 1.42
9 -3 -1 1.11 0.46
9 -3 -1 0.6 0.33
-9 3 1 0.93 0.3
9 -3 0 106.91 3.98
9 -3 0 112.47 3.78
9 -3 1 19.95 1.31
9 -3 1 21.72 1.22
9 -3 2 8.62 0.78
9 -3 2 8.26 0.61
9 -3 2 8.59 0.69
9 -3 3 25.55 1.1
-9 2 8 -0.09 0.16
-9 2 8 0.02 0.16
-9 2 7 6.7 0.57
-9 2 7 7.05 0.59
-9 2 7 7.08 0.66
-9 2 6 0.94 0.3
-9 2 6 0.5 0.32
-9 2 6 0.75 0.31
-9 2 5 28.11 1.4
-9 2 5 27.93 1.45
-9 2 5 31.15 1.64
-9 2 4 4.66 0.54
-9 2 4 6.77 0.67
-9 2 4 5.7 0.68
-9 2 3 3.79 0.51
-9 2 3 3.39 0.56
9 -2 -2 46.12 2.31
-9 2 2 56.96 2.15
9 -2 -1 22.17 1.49
9 -2 -1 25.07 1.34
9 -2 0 30.01 1.73
9 -2 0 30.75 1.53
-9 2 0 34.66 1.67
9 -2 1 61.91 2.56
9 -2 1 61.04 2.29
9 -2 1 64.24 2.37
9 -2 2 -0.1 0.2
-9 1 8 -0.02 0.17
-9 1 8 -0.02 0.2
-9 1 7 31.7 1.43
-9 1 7 32.99 1.49
-9 1 7 36.02 1.67
-9 1 6 16.73 1.03
-9 1 6 17.89 1.1
-9 1 6 18.04 1.22
-9 1 6 19.4 1.23
-9 1 5 0.17 0.24
-9 1 5 0.14 0.33
-9 1 5 0.34 0.35
-9 1 4 3.37 0.5
-9 1 4 4.08 0.66
-9 1 4 2.78 0.54
-9 1 3 2.45 0.43
-9 1 3 2.17 0.5
-9 1 3 2.47 0.55
-9 1 2 24.61 1.25
-9 1 2 25.93 1.57
9 -1 -1 33.66 1.54
-9 1 1 34.9 1.79
9 -1 0 7.73 0.66
9 -1 0 7.03 0.63
9 -1 1 46.6 1.75
9 -1 1 45.48 1.78
9 -1 2 0.01 0.1
9 -1 2 0.07 0.14
-9 0 8 1.32 0.29
-9 0 8 1.41 0.35
-9 0 7 3.1 0.46
-9 0 7 3.14 0.53
-9 0 7 2.2 0.43
-9 0 6 4.14 0.54
-9 0 6 3.6 0.59
-9 0 6 3.6 0.59
-9 0 5 13.73 0.97
-9 0 5 13.25 1.11
-9 0 4 12.06 0.88
-9 0 4 10.94 1.02
-9 0 4 10.74 1.02
-9 0 3 83.7 2.86
-9 0 3 85.14 3.3
-9 0 2 24.31 1.5
9 0 -1 32.84 1.43
-9 0 1 33.47 1.69
9 0 0 2.9 0.36
9 0 1 3.04 0.3
-9 -1 7 -0.05 0.25
-9 -1 7 0.29 0.3
-9 -1 7 0.12 0.24
-9 -1 6 2.03 0.4
-9 -1 6 2.35 0.51
-9 -1 6 1.88 0.47
-9 -1 5 8.19 0.74
-9 -1 5 8.77 0.91
-9 -1 5 7.04 0.81
-9 -1 4 0.45 0.27
-9 -1 4 0.43 0.34
-9 -1 4 0.89 0.44
-9 -1 3 82.79 3.28
-9 -1 2 10.57 0.94
9 1 -1 42.98 1.49
-9 -2 8 1.87 0.31
-9 -2 7 4.67 0.52
-9 -2 7 3.74 0.51
-9 -2 6 1.25 0.31
-9 -2 6 0.78 0.37
-9 -2 5 35.89 1.61
-9 -2 5 36.57 1.91
-9 -2 4 11.53 0.98
-9 -2 4 14.64 1.12
-9 -2 3 9.67 0.93
-9 -2 3 11.09 0.94
-9 -3 5 21.36 1.25
-10 5 3 22.47 0.9
-10 5 2 0.03 0.09
-10 4 4 0.03 0.12
-10 4 4 0.27 0.16
-10 4 4 0.03 0.16
-10 4 3 20.21 0.91
-10 4 3 20.72 1.06
-10 4 2 1.02 0.2
-10 4 2 1.33 0.29
-10 4 1 6.82 0.53
-10 3 5 42.27 1.63
-10 3 5 41.98 1.66
-10 3 4 1.55 0.27
-10 3 4 1 0.25
-10 3 3 16.81 0.84
-10 3 3 17.05 0.99
-10 3 2 32.48 1.24
-10 3 2 38.85 1.57
-10 3 1 0.28 0.18
-10 2 6 2.89 0.31
-10 2 6 1.87 0.31
-10 2 5 31.92 1.26
-10 2 5 29.95 1.33
-10 2 4 1.56 0.27
-10 2 4 1.13 0.26
-10 2 4 1.49 0.33
-10 2 3 14.04 0.74
-10 2 3 15.13 0.95
-10 2 2 51.62 1.99
10 -2 -1 0.01 0.11
-10 1 6 0.22 0.15
-10 1 6 0.22 0.16
-10 1 5 6.46 0.5
-10 1 5 4.48 0.47
-10 1 4 6.69 0.5
-10 1 4 5.78 0.59
-10 1 3 0.07 0.19
-10 0 4 7.82 0.64
