#------------------------------------------------------------------------------
#$Date: 2022-03-04 00:09:36 +0200 (Fri, 04 Mar 2022) $
#$Revision: 273273 $
#$URL: file:///home/coder/svn-repositories/cod/cif/4/51/93/4519366.cif $
#------------------------------------------------------------------------------
#
# This file is available in the Crystallography Open Database (COD),
# http://www.crystallography.net/
#
# All data on this site have been placed in the public domain by the
# contributors.
#
data_4519366
loop_
_publ_author_name
'Kaltenegger, Martin'
'Delaive, Louis'
'Gali, Sai Manoj'
'Brocorens, Patrick'
'Werzer, Oliver'
'Riegler, Hans'
'Geerts, Yves Henri'
'Lazzaroni, Roberto'
'Resel, Roland'
'Liu, Jie'
_publ_section_title
;
 Molecular Packing of Phenoxazine: A Combined Single-Crystal/Crystal
 Structure Prediction Study
;
_journal_issue                   3
_journal_name_full               'Crystal Growth &amp; Design'
_journal_page_first              1548
_journal_page_last               1553
_journal_paper_doi               10.1021/acs.cgd.1c00691
_journal_volume                  22
_journal_year                    2022
_chemical_formula_moiety         'C12 H9 N O'
_chemical_formula_sum            'C12 H9 N O'
_chemical_formula_weight         183.20
_space_group_crystal_system      monoclinic
_space_group_IT_number           14
_space_group_name_Hall           '-P 2ybc'
_space_group_name_H-M_alt        'P 1 21/c 1'
_atom_sites_solution_hydrogens   mixed
_audit_creation_method           SHELXL-2018/3
_audit_update_record
;
2020-10-07 deposited with the CCDC.	2021-05-20 downloaded from the CCDC.
;
_cell_angle_alpha                90
_cell_angle_beta                 103.17(3)
_cell_angle_gamma                90
_cell_formula_units_Z            2
_cell_length_a                   9.3350(19)
_cell_length_b                   5.7680(12)
_cell_length_c                   8.2610(16)
_cell_measurement_reflns_used    492
_cell_measurement_temperature    100(2)
_cell_measurement_theta_max      59.75
_cell_measurement_theta_min      9.79
_cell_volume                     433.11(16)
_computing_structure_refinement  'SHELXL-2018/3 (Sheldrick, 2018)'
_computing_structure_solution    'SHELXT 2018/2 (Sheldrick, 2018)'
_diffrn_ambient_temperature      100(2)
_diffrn_measured_fraction_theta_full 1.000
_diffrn_measured_fraction_theta_max 0.999
_diffrn_measurement_device_type  PILATUS
_diffrn_measurement_method       '\w scans'
_diffrn_radiation_type           synchrotron
_diffrn_radiation_wavelength     0.700
_diffrn_reflns_av_R_equivalents  0.0682
_diffrn_reflns_av_unetI/netI     0.0416
_diffrn_reflns_Laue_measured_fraction_full 1.000
_diffrn_reflns_Laue_measured_fraction_max 0.999
_diffrn_reflns_limit_h_max       13
_diffrn_reflns_limit_h_min       -13
_diffrn_reflns_limit_k_max       8
_diffrn_reflns_limit_k_min       -8
_diffrn_reflns_limit_l_max       11
_diffrn_reflns_limit_l_min       -11
_diffrn_reflns_number            7826
_diffrn_reflns_point_group_measured_fraction_full 1.000
_diffrn_reflns_point_group_measured_fraction_max 0.999
_diffrn_reflns_theta_full        24.835
_diffrn_reflns_theta_max         29.846
_diffrn_reflns_theta_min         2.207
_exptl_absorpt_coefficient_mu    0.086
_exptl_crystal_colour            colourless
_exptl_crystal_density_diffrn    1.405
_exptl_crystal_description       plate
_exptl_crystal_F_000             192
_exptl_crystal_size_max          0.100
_exptl_crystal_size_mid          0.050
_exptl_crystal_size_min          0.020
_refine_diff_density_max         0.275
_refine_diff_density_min         -0.197
_refine_diff_density_rms         0.062
_refine_ls_extinction_coef       0.13(2)
_refine_ls_extinction_expression Fc^*^=kFc[1+0.001xFc^2^\l^3^/sin(2\q)]^-1/4^
_refine_ls_extinction_method     'SHELXL-2018/3 (Sheldrick 2018)'
_refine_ls_goodness_of_fit_ref   1.072
_refine_ls_hydrogen_treatment    mixed
_refine_ls_matrix_type           full
_refine_ls_number_parameters     75
_refine_ls_number_reflns         1309
_refine_ls_number_restraints     132
_refine_ls_restrained_S_all      1.028
_refine_ls_R_factor_all          0.0587
_refine_ls_R_factor_gt           0.0523
_refine_ls_shift/su_max          0.000
_refine_ls_shift/su_mean         0.000
_refine_ls_structure_factor_coef Fsqd
_refine_ls_weighting_details
'w=1/[\s^2^(Fo^2^)+(0.0877P)^2^+0.1227P] where P=(Fo^2^+2Fc^2^)/3'
_refine_ls_weighting_scheme      calc
_refine_ls_wR_factor_gt          0.1518
_refine_ls_wR_factor_ref         0.1599
_reflns_Friedel_coverage         0.000
_reflns_number_gt                1142
_reflns_number_total             1309
_reflns_threshold_expression     'I > 2\s(I)'
_cod_data_source_file            cg1c00691_si_002.cif
_cod_data_source_block           X4ESxT-30Sep120344_a
_cod_original_cell_volume        433.10(16)
_cod_original_sg_symbol_H-M      'P 21/c'
_cod_database_code               4519366
_shelx_shelxl_version_number     2018/3'
_shelx_space_group_comment
;
The symmetry employed for this shelxl refinement is uniquely defined
by the following loop, which should always be used as a source of
symmetry information in preference to the above space-group names.
They are only intended as comments.
;
_shelx_estimated_absorpt_t_min   0.991
_shelx_estimated_absorpt_t_max   0.998
_shelx_res_file
;
TITL X4ESxT-30Sep120344_a.res in P2(1)/c
    X4ESxT-30Sep120344_a.res
    created by SHELXL-2018/3 at 18:02:06 on 13-Dec-2019
CELL  0.70000   9.3350   5.7680   8.2610   90.000  103.175   90.000
ZERR    2.000   0.0019   0.0012   0.0016    0.000    0.030    0.000
LATT  1
SYMM -X, 1/2+Y, 1/2-Z
SFAC C N O H
DISP $C  0.00328  0.00164 10.97952!source kissel
DISP $N  0.00639  0.00331 18.70527!source kissel
DISP $O  0.01101  0.00602 30.81649!source kissel
DISP $H -0.00002  0.00000  0.66613!source kissel
UNIT 24 2 2 18
L.S. 10
BOND $H
LIST 4
ACTA
FMAP 2
SIZE 0.02 0.05 0.1
PLAN 20
WGHT    0.087700    0.122700
EXTI    0.125997
FVAR       1.36428
RESI 1
PART -1
PART 0
simu 0.01 0.01 3
RESI 0
RESI 1
C1    1    0.361974    0.580142    0.418524    11.00000    0.03172    0.02452 =
         0.02154    0.00181    0.00567   -0.00550
C2    1    0.223619    0.655331    0.338315    11.00000    0.03441    0.02208 =
         0.02514    0.00092    0.00915   -0.00082
AFIX  43
H2    4    0.189417    0.798303    0.365456    11.00000   -1.20000
AFIX   0
C3    1    0.135107    0.518082    0.217011    11.00000    0.03105    0.02892 =
         0.02526    0.00145    0.00431    0.00112
AFIX  43
H3    4    0.042229    0.569868    0.162704    11.00000   -1.20000
AFIX   0
C4    1    0.185409    0.303942    0.177061    11.00000    0.03382    0.02898 =
         0.02279   -0.00265    0.00455   -0.00261
AFIX  43
H4    4    0.126792    0.212840    0.095120    11.00000   -1.20000
AFIX   0
C5    1    0.323829    0.225805    0.259935    11.00000    0.03310    0.02374 =
         0.02296    0.00007    0.00893   -0.00069
AFIX  43
H5    4    0.357040    0.081398    0.234252    11.00000   -1.20000
AFIX   0
C6    1    0.412152    0.362121    0.380325    11.00000    0.02909    0.02535 =
         0.02247    0.00330    0.00628   -0.00296
RESI 0
part -1 10.5
N1    2    0.452849    0.720692    0.550656    10.50000    0.03345    0.02370 =
         0.02483   -0.00897    0.00049   -0.00456
AFIX   3
H1    4    0.421738    0.872499    0.572631    10.50000    0.05290
AFIX   0
O1    3    0.550556    0.284145    0.473565    10.50000    0.03135    0.02033 =
         0.02718   -0.00372   -0.00446    0.00186
PART 0
RESI 0
HKLF 4




REM  X4ESxT-30Sep120344_a.res in P2(1)/c
REM wR2 = 0.1599, GooF = S = 1.072, Restrained GooF = 1.028 for all data
REM R1 = 0.0523 for 1142 Fo > 4sig(Fo) and 0.0587 for all 1309 data
REM 75 parameters refined using 132 restraints

END

WGHT      0.0723      0.1396

REM Highest difference peak  0.275,  deepest hole -0.197,  1-sigma level  0.062
Q1    1   0.3837  0.4963  0.3854  11.00000  0.05    0.27
Q2    1   0.3128  0.6466  0.3457  11.00000  0.05    0.24
Q3    1   0.2442  0.2384  0.2434  11.00000  0.05    0.23
Q4    1   0.1598  0.4127  0.1873  11.00000  0.05    0.22
Q5    1   0.3406  0.2612  0.3491  11.00000  0.05    0.21
Q6    1   0.2730  0.5872  0.3933  11.00000  0.05    0.20
Q7    1   0.5275  0.8722  0.5351  11.00000  0.05    0.19
Q8    1   0.3765  0.3445  0.2948  11.00000  0.05    0.19
Q9    1   0.0487  0.4991  0.0771  11.00000  0.05    0.19
Q10   1   0.3224  0.7549  0.4359  11.00000  0.05    0.18
Q11   1   0.0000  0.5000  0.0000  10.50000  0.05    0.18
Q12   1   0.2210  0.5920  0.2786  11.00000  0.05    0.18
Q13   1   0.4375  0.8935  0.5048  11.00000  0.05    0.16
Q14   1   0.0164  0.5679  0.1941  11.00000  0.05    0.16
Q15   1   0.1735  0.6568  0.2230  11.00000  0.05    0.15
Q16   1   0.0404  0.3606  0.0062  11.00000  0.05    0.15
Q17   1   0.4776  0.5626  0.4128  11.00000  0.05    0.15
Q18   1   0.2547  0.5908  0.2063  11.00000  0.05    0.15
Q19   1   0.3923  0.0660  0.2975  11.00000  0.05    0.14
Q20   1   0.5026  0.4318  0.4799  11.00000  0.05    0.14
;
_shelx_res_checksum              60628
_shelx_hkl_file
;
   1   0   0 2047.32  179.71
   1   0   0 1741.82  152.94
  -1   0   0 1962.95  172.34
  -1   0   0 1841.72  161.67
   2   0   0  474.15   41.70
   2   0   0  427.70   37.63
  -2   0   0  457.08   40.15
  -2   0   0  485.11   42.67
   3   0   0  396.37   34.91
   3   0   0  477.06   41.99
  -3   0   0  380.66   33.56
  -3   0   0  422.75   37.24
   4   0   0  763.55   67.11
   4   0   0  688.49   60.52
  -4   0   0  683.25   60.03
  -4   0   0  629.91   55.38
   5   0   0  571.14   50.24
   5   0   0  542.43   47.72
  -5   0   0  447.09   39.38
  -5   0   0  434.00   38.21
   6   0   0   48.78    4.56
   6   0   0   39.96    3.78
  -6   0   0   39.86    3.88
  -6   0   0   38.60    3.59
   7   0   0    3.49    1.16
   7   0   0    2.33    1.07
  -7   0   0    4.56    1.07
  -7   0   0    0.78    1.07
   8   0   0   56.54    5.24
   8   0   0   61.10    5.63
  -8   0   0   54.70    5.04
  -8   0   0   54.02    5.04
   9   0   0  137.43   12.32
   9   0   0  159.25   14.26
  -9   0   0  140.43   12.61
  -9   0   0  143.73   12.80
  10   0   0   19.49    2.33
  10   0   0   23.57    2.62
 -10   0   0   19.01    2.23
 -10   0   0   25.51    2.81
  11   0   0   13.67    1.94
  11   0   0    9.60    1.65
 -11   0   0    9.80    1.75
 -11   0   0    7.66    1.55
  12   0   0    4.27    1.65
  12   0   0    4.56    1.26
 -12   0   0    2.52    1.36
 -12   0   0    4.17    1.36
   0   1   0    0.10    0.48
   0   1   0    0.29    0.29
   0  -1   0    0.29    0.39
   0  -1   0   -0.10    0.39
   1   1   0  149.84   13.29
   1   1   0  163.51   14.45
  -1   1   0  131.80   11.64
  -1   1   0  146.93   13.00
   1  -1   0  152.94   13.48
   1  -1   0  141.60   12.51
  -1  -1   0  165.65   14.64
  -1  -1   0  139.85   12.32
   2   1   0    3.69    0.78
   2   1   0    1.94    0.78
  -2   1   0    2.81    0.78
  -2   1   0    1.45    0.68
   2  -1   0    1.16    0.58
   2  -1   0    3.69    0.68
  -2  -1   0    2.91    0.58
  -2  -1   0    3.10    0.78
   3   1   0   30.55    2.81
   3   1   0   29.97    2.81
  -3   1   0   32.30    3.01
  -3   1   0   35.50    3.30
   3  -1   0   33.07    3.10
   3  -1   0   33.36    3.10
  -3  -1   0   36.27    3.39
  -3  -1   0   34.33    3.20
   4   1   0  312.00   27.54
   4   1   0  264.76   23.37
  -4   1   0  320.82   28.32
  -4   1   0  246.24   21.72
   4  -1   0  296.38   26.19
   4  -1   0  301.33   26.57
  -4  -1   0  305.79   26.96
  -4  -1   0  321.79   28.42
   5   1   0  582.77   51.30
   5   1   0  735.52   64.69
  -5   1   0  669.57   58.87
  -5   1   0  565.70   49.75
   5  -1   0  674.62   59.35
   5  -1   0  669.96   58.97
  -5  -1   0  713.51   62.75
  -5  -1   0  649.69   57.12
   6   1   0   21.24    2.23
   6   1   0   30.74    3.01
  -6   1   0   22.79    2.33
  -6   1   0   29.00    2.81
   6  -1   0   25.89    2.62
   6  -1   0   30.45    3.01
  -6  -1   0   33.94    3.30
  -6  -1   0   27.93    2.72
   7   1   0   11.93    1.55
   7   1   0   10.28    1.36
  -7   1   0   11.64    1.65
  -7   1   0    9.02    1.26
   7  -1   0   13.77    1.84
   7  -1   0   11.35    1.45
  -7  -1   0   13.48    1.65
  -7  -1   0   10.18    1.36
   8   1   0  167.78   14.94
   8   1   0  187.95   16.78
  -8   1   0  152.36   13.58
  -8   1   0  140.72   12.61
   8  -1   0  187.18   16.68
   8  -1   0  167.78   14.94
  -8  -1   0  163.81   14.64
  -8  -1   0  165.84   14.84
   9   1   0  200.66   17.84
   9   1   0  258.17   22.89
  -9   1   0  213.56   19.01
  -9   1   0  250.12   22.21
   9  -1   0  247.40   22.02
   9  -1   0  253.61   22.50
  -9  -1   0  209.78   18.62
  -9  -1   0  238.48   21.24
  10   1   0    2.42    1.36
  10   1   0    1.94    1.16
 -10   1   0    0.48    1.26
 -10   1   0   -0.68    1.26
  10  -1   0    1.26    1.26
  10  -1   0    2.52    1.36
 -10  -1   0    1.55    1.16
 -10  -1   0    1.84    1.36
  11   1   0    2.23    1.16
  11   1   0   -1.07    0.97
 -11   1   0    1.36    1.36
 -11   1   0    1.16    1.07
  11  -1   0   -0.48    1.45
  11  -1   0    2.04    0.97
 -11  -1   0    1.07    0.97
 -11  -1   0   -1.07    1.26
  12   1   0   -0.48    0.87
  12   1   0    2.23    1.65
 -12   1   0    1.84    1.65
 -12   1   0   -0.19    1.26
  12  -1   0    0.00    1.16
  12  -1   0   -0.19    1.45
 -12  -1   0   -1.36    1.16
 -12  -1   0   -1.36    1.45
   0   2   0 1629.32  143.05
   0   2   0 1838.81  161.48
   0  -2   0 1720.49  151.00
   0  -2   0 1720.49  151.10
   1   2   0 1157.98  101.74
   1   2   0  969.84   85.25
  -1   2   0 1043.54   91.75
  -1   2   0  949.86   83.41
   1  -2   0 1023.18   89.90
   1  -2   0  978.56   85.93
  -1  -2   0  924.16   81.18
  -1  -2   0  899.33   79.04
   2   2   0   20.85    2.04
   2   2   0   24.34    2.42
  -2   2   0   21.14    2.04
  -2   2   0   20.27    2.04
   2  -2   0   22.11    2.13
   2  -2   0   26.19    2.52
  -2  -2   0   28.42    2.72
  -2  -2   0   23.28    2.23
   3   2   0  113.18   10.09
   3   2   0  112.69   10.09
  -3   2   0  114.44   10.18
  -3   2   0  103.29    9.21
   3  -2   0  120.26   10.77
   3  -2   0  110.95    9.89
  -3  -2   0  131.32   11.74
  -3  -2   0  112.02    9.99
   4   2   0  441.76   38.89
  -4   2   0  371.64   32.78
  -4   2   0  473.96   41.70
   4  -2   0  398.12   35.01
   4  -2   0  466.10   41.12
  -4  -2   0  488.41   43.06
   5   2   0   20.27    2.13
  -5   2   0   20.08    2.04
  -5   2   0   25.60    2.52
   5  -2   0   21.63    2.23
   5  -2   0   25.12    2.42
  -5  -2   0   24.83    2.52
   6   2   0    2.13    0.97
   6   2   0    2.33    0.78
  -6   2   0    2.42    0.97
  -6   2   0    0.58    0.87
   6  -2   0    1.84    0.97
   6  -2   0    2.42    1.07
  -6  -2   0    0.97    0.87
  -6  -2   0    3.10    1.07
   7   2   0    1.94    0.97
   7   2   0    1.55    0.87
  -7   2   0    1.16    0.97
  -7   2   0    2.23    0.87
   7  -2   0    2.33    1.16
   7  -2   0    3.30    1.07
  -7  -2   0    1.07    1.26
  -7  -2   0    2.91    1.07
   8   2   0  454.66   40.15
   8   2   0  395.69   34.91
  -8   2   0  484.04   42.67
  -8   2   0  385.99   34.04
   8  -2   0  453.98   40.15
   8  -2   0  492.68   43.45
  -8  -2   0  503.44   44.42
  -8  -2   0  483.85   42.67
   9   2   0   72.06    6.59
  -9   2   0   75.16    6.89
  -9   2   0   84.57    7.66
   9  -2   0   80.01    7.37
   9  -2   0  101.15    9.21
  -9  -2   0   83.11    7.56
  10   2   0    4.36    1.16
  10   2   0    3.98    1.36
 -10   2   0    2.33    1.16
 -10   2   0    5.24    1.45
  10  -2   0    2.81    1.26
  10  -2   0    3.98    1.26
 -10  -2   0    4.27    1.55
 -10  -2   0    3.20    1.26
  11   2   0    3.69    1.16
  11   2   0    6.79    1.36
 -11   2   0    5.63    1.36
  11  -2   0    9.31    1.45
 -11  -2   0    6.40    1.26
 -11  -2   0    7.56    1.45
  12   2   0    6.89    1.07
  12   2   0    6.11    1.75
 -12   2   0    6.89    1.26
  12  -2   0    4.85    1.55
  12  -2   0    6.79    1.36
 -12  -2   0    3.10    1.45
 -12  -2   0    7.56    1.26
   0   3   0    0.29    0.58
   0   3   0    0.39    0.58
   0  -3   0    0.78    0.58
   0  -3   0    0.58    0.48
   1   3   0  601.88   52.95
   1   3   0  709.73   62.46
  -1   3   0  649.11   57.12
  -1   3   0  588.11   51.69
   1  -3   0  626.13   55.09
   1  -3   0  625.35   55.09
  -1  -3   0  620.69   54.60
  -1  -3   0  628.45   55.28
   2   3   0   27.35    2.62
   2   3   0   28.51    2.72
  -2   3   0   26.38    2.42
  -2   3   0   26.38    2.52
   2  -3   0   28.42    2.81
   2  -3   0   26.86    2.52
  -2  -3   0   25.41    2.42
  -2  -3   0   24.73    2.42
   3   3   0  204.54   18.14
   3   3   0  182.33   16.20
  -3   3   0  183.20   16.20
  -3   3   0  184.85   16.39
   3  -3   0  215.50   19.20
   3  -3   0  208.61   18.43
  -3  -3   0  216.76   19.20
  -3  -3   0  185.14   16.39
   4   3   0  348.95   30.84
   4   3   0  383.18   33.85
  -4   3   0  341.58   30.16
   4  -3   0  377.27   33.27
  -4  -3   0  468.53   41.31
  -4  -3   0  416.16   36.76
   5   3   0  529.92   46.75
   5   3   0  482.01   42.48
  -5   3   0  592.57   52.18
   5  -3   0  644.46   56.83
  -5  -3   0  672.77   59.26
  -5  -3   0  616.14   54.31
   6   3   0  130.64   11.74
   6   3   0  123.56   11.06
  -6   3   0  111.24    9.99
  -6   3   0  143.92   12.80
   6  -3   0  139.07   12.51
   6  -3   0  133.35   11.93
  -6  -3   0  151.20   13.58
  -6  -3   0  147.90   13.19
   7   3   0    6.01    1.07
   7   3   0    6.11    1.16
  -7   3   0    5.33    1.16
  -7   3   0    6.98    1.16
   7  -3   0    6.79    1.36
   7  -3   0    9.50    1.45
  -7  -3   0    6.89    1.55
  -7  -3   0    8.15    1.45
   8   3   0   18.04    2.04
   8   3   0   22.60    2.52
  -8   3   0   19.78    2.23
  -8   3   0   16.29    1.84
   8  -3   0   25.60    2.91
   8  -3   0   21.14    2.23
  -8  -3   0   24.63    2.62
  -8  -3   0   21.63    2.42
   9   3   0    5.53    1.16
   9   3   0    7.86    1.36
  -9   3   0    5.92    1.26
   9  -3   0    8.34    1.65
   9  -3   0    7.95    1.26
  -9  -3   0    9.60    1.55
  -9  -3   0    6.59    1.36
  10   3   0    1.84    1.16
  10   3   0    0.78    1.07
 -10   3   0    1.75    0.87
 -10   3   0   -0.48    1.07
  10  -3   0   -1.16    1.26
 -10  -3   0    1.26    1.26
 -10  -3   0   -0.39    1.16
  11   3   0    1.36    0.97
  11   3   0    0.58    1.45
 -11   3   0   -0.39    1.07
 -11   3   0   -1.26    0.87
  11  -3   0    0.10    1.16
  11  -3   0    0.39    1.36
 -11  -3   0    0.00    1.45
 -11  -3   0    1.75    1.36
  12   3   0   -0.58    0.97
 -12   3   0    1.26    1.26
 -12   3   0   -0.87    1.07
  12  -3   0   -1.26    1.55
  12  -3   0    0.29    1.16
 -12  -3   0    1.16    0.97
   0   4   0   54.60    5.04
   0   4   0   42.96    3.98
   0  -4   0   43.25    4.07
   0  -4   0   50.04    4.56
   1   4   0    9.80    1.36
   1   4   0   11.35    1.36
  -1   4   0    9.99    1.36
  -1   4   0    9.89    1.16
   1  -4   0   11.74    1.26
   1  -4   0   10.28    1.26
  -1  -4   0   11.44    1.36
  -1  -4   0   10.96    1.26
   2   4   0   13.09    1.55
  -2   4   0   12.32    1.36
  -2   4   0   12.22    1.45
   2  -4   0   14.64    1.65
   2  -4   0   12.90    1.55
  -2  -4   0   11.93    1.36
   3   4   0   57.32    5.33
   3   4   0   47.52    4.46
  -3   4   0   54.21    5.04
  -3   4   0   51.50    4.75
   3  -4   0   59.35    5.43
  -3  -4   0   49.56    4.56
  -3  -4   0   57.61    5.33
   4   4   0    5.43    1.16
   4   4   0    6.40    1.16
  -4   4   0    5.63    0.97
   4  -4   0    7.47    1.36
  -4  -4   0    6.69    1.26
  -4  -4   0    5.72    1.07
   5   4   0  211.62   18.81
   5   4   0  229.85   20.46
   5  -4   0  274.08   24.44
   5  -4   0  216.18   19.11
  -5  -4   0  250.70   22.40
  -5  -4   0  238.39   21.14
   6   4   0   98.63    8.92
   6   4   0  123.27   11.15
  -6   4   0  140.14   12.51
  -6   4   0  120.65   10.86
   6  -4   0  150.13   13.58
  -6  -4   0  142.37   12.80
  -6  -4   0  173.02   15.52
   7   4   0   60.71    5.72
  -7   4   0   54.12    5.04
  -7   4   0   53.83    5.04
   7  -4   0   70.31    6.69
   7  -4   0   63.04    5.82
  -7  -4   0   80.98    7.56
   8   4   0    9.89    1.55
  -8   4   0   14.74    1.75
  -8   4   0   14.84    1.94
   8  -4   0   19.40    2.52
   8  -4   0   20.85    2.33
  -8  -4   0   21.34    2.72
  -8  -4   0   17.84    2.23
   9   4   0   18.62    2.23
  -9   4   0   18.72    2.13
  -9   4   0   18.23    2.04
   9  -4   0   20.27    2.23
   9  -4   0   22.79    2.72
  -9  -4   0   21.53    2.52
  10   4   0   13.29    1.94
 -10   4   0   17.46    2.13
 -10   4   0   19.40    2.13
  10  -4   0   17.46    2.42
 -10  -4   0   12.41    2.04
  11   4   0    3.78    1.16
  11   4   0    3.98    1.65
 -11   4   0    1.26    1.26
 -11   4   0    3.01    0.87
  11  -4   0    1.45    1.07
  11  -4   0   -0.48    1.65
 -11  -4   0   -0.78    1.55
 -11  -4   0    0.48    1.16
   0   5   0   -0.29    0.78
   0   5   0    0.48    0.87
   0  -5   0    0.39    0.58
   0  -5   0   -0.78    0.68
   1   5   0    2.52    0.97
   1   5   0    1.45    0.87
  -1   5   0    0.58    0.58
  -1   5   0    1.75    0.97
   1  -5   0    1.55    0.68
   1  -5   0    2.52    0.78
  -1  -5   0    1.45    0.78
  -1  -5   0    2.13    0.78
   2   5   0   36.27    3.49
  -2   5   0   28.90    2.81
  -2   5   0   32.88    3.30
   2  -5   0   33.36    3.30
  -2  -5   0   32.30    3.10
   3   5   0  385.12   34.14
   3   5   0  404.13   35.69
  -3   5   0  383.76   33.85
   3  -5   0  424.40   37.44
   3  -5   0  404.32   35.79
  -3  -5   0  400.15   35.40
  -3  -5   0  407.23   35.98
   4   5   0   87.09    7.95
   4   5   0   83.11    7.56
  -4   5   0   90.39    8.15
  -4   5   0   82.82    7.56
   4  -5   0   99.12    8.92
   4  -5   0   96.40    8.83
  -4  -5   0   95.43    8.63
  -4  -5   0   99.60    9.02
   5   5   0    0.29    0.87
   5   5   0   -0.87    0.87
  -5   5   0    0.10    0.97
  -5   5   0    1.36    0.78
   5  -5   0    0.78    0.87
   5  -5   0    1.36    1.07
  -5  -5   0    2.42    1.07
  -5  -5   0   -0.58    1.16
   6   5   0   19.20    2.33
   6   5   0   22.02    2.42
  -6   5   0   24.83    2.52
  -6   5   0   19.20    2.04
   6  -5   0   25.70    2.81
   6  -5   0   20.85    2.23
  -6  -5   0   17.46    2.13
  -6  -5   0   21.63    2.42
   7   5   0    5.82    1.26
  -7   5   0    5.43    1.36
   7  -5   0    6.30    1.26
  -7  -5   0    7.08    1.55
   8   5   0   43.35    4.27
  -8   5   0   43.25    4.17
  -8   5   0   53.73    5.04
   8  -5   0   52.57    5.24
   8  -5   0   50.33    4.66
  -8  -5   0   44.61    4.27
  -8  -5   0   42.19    4.17
   9   5   0    3.10    1.07
  -9   5   0    3.88    1.16
  -9   5   0    2.42    1.16
   9  -5   0    3.01    1.45
   9  -5   0    5.92    1.16
  -9  -5   0    2.33    1.55
  10   5   0    9.41    1.45
  10   5   0    3.78    1.45
 -10   5   0    6.59    1.26
 -10   5   0    5.92    1.36
  10  -5   0    7.56    1.94
 -10  -5   0    9.31    1.55
 -10  -5   0    5.53    1.65
   0   6   0    4.36    1.07
   0   6   0    5.04    1.16
   0  -6   0    2.72    0.87
   0  -6   0    4.85    0.87
   1   6   0   86.22    7.86
   1   6   0   91.26    8.44
  -1   6   0   79.14    7.27
   1  -6   0   90.39    8.15
   1  -6   0   87.38    8.05
  -1  -6   0   96.01    8.73
  -1  -6   0   94.95    8.53
   2   6   0   21.63    2.52
   2   6   0   18.62    2.23
  -2   6   0   19.59    2.13
  -2   6   0   16.68    1.84
   2  -6   0   20.85    2.23
   2  -6   0   18.81    2.04
  -2  -6   0   16.49    1.84
  -2  -6   0   19.20    2.13
   3   6   0  177.48   16.00
   3   6   0  187.66   16.78
  -3   6   0  166.23   14.94
  -3   6   0  155.95   13.87
   3  -6   0  206.87   18.43
   3  -6   0  182.43   16.29
  -3  -6   0  186.50   16.68
  -3  -6   0  179.52   16.00
   4   6   0    8.15    1.45
   4   6   0   11.06    1.65
  -4   6   0   12.22    1.65
  -4   6   0   13.29    1.55
   4  -6   0   11.35    1.55
   4  -6   0   13.48    1.75
  -4  -6   0   11.25    1.65
  -4  -6   0   11.44    1.55
   5   6   0   22.99    2.52
  -5   6   0   21.34    2.23
  -5   6   0   27.64    2.81
   5  -6   0   27.74    3.01
   5  -6   0   24.92    2.52
  -5  -6   0   29.00    3.01
   6   6   0   21.53    2.33
  -6   6   0   26.86    2.81
   6  -6   0   25.70    2.62
  -6  -6   0   23.66    2.62
  -6  -6   0   31.23    3.30
   7   6   0    4.56    1.36
   7   6   0    8.53    1.45
  -7   6   0    6.59    1.16
   7  -6   0   10.57    1.55
   7  -6   0    5.14    1.45
  -7  -6   0    8.24    1.55
  -7  -6   0   10.09    1.65
   8   6   0    0.19    0.87
   8   6   0   -0.68    1.45
  -8   6   0    0.58    0.78
  -8   6   0    1.75    1.07
   8  -6   0    0.39    0.97
   8  -6   0    0.48    1.26
  -8  -6   0    0.10    1.45
  -8  -6   0    0.58    1.07
   0   7   0    0.78    0.97
   0   7   0    0.48    0.97
   0  -7   0    0.39    0.78
   0  -7   0   -1.45    0.87
   1   7   0    8.83    1.45
   1   7   0    6.69    1.26
  -1   7   0    8.73    1.45
  -1   7   0   10.38    1.55
   1  -7   0    9.41    1.26
   1  -7   0    7.86    1.26
  -1  -7   0    6.79    1.26
   2   7   0    0.48    0.87
   2   7   0    2.42    1.26
  -2   7   0    4.46    1.16
  -2   7   0    2.81    1.16
   2  -7   0    2.81    0.87
   2  -7   0    1.84    0.97
  -2  -7   0    0.78    0.68
  -2  -7   0    1.94    1.16
   3   7   0   -0.48    1.07
   3   7   0   -0.19    0.87
  -3   7   0    1.26    0.78
  -3   7   0    1.36    1.07
   3  -7   0    1.36    0.87
   3  -7   0    2.42    1.07
  -3  -7   0    1.84    1.16
  -3  -7   0    0.58    0.97
   4   7   0    0.10    1.16
   4   7   0    1.07    1.26
  -4   7   0    2.04    1.16
  -4   7   0    2.42    0.87
   4  -7   0    4.07    1.07
   4  -7   0    3.98    1.07
  -4  -7   0    2.91    1.07
  -4  -7   0    3.69    1.36
   5   7   0   -0.58    0.97
   5   7   0    0.39    1.45
  -5   7   0    0.48    0.97
  -5   7   0   -0.78    0.68
   5  -7   0   -0.19    0.87
   5  -7   0    0.68    0.87
  -5  -7   0    1.36    0.97
  -5  -7   0    0.00    1.36
   6   7   0    3.20    1.07
   6   7   0    2.42    1.16
  -6   7   0    2.42    0.97
   6  -7   0    0.87    1.16
   6  -7   0    2.42    1.07
  -6  -7   0    3.88    1.55
  -6  -7   0    2.52    0.97
   0   8   0   -0.19    0.97
   0   8   0   -0.58    0.97
   0  -8   0    1.75    0.97
   0  -8   0    0.48    0.87
   1   8   0    0.78    0.87
  -1   8   0    0.29    0.97
  -1   8   0   -0.78    0.97
   1  -8   0    2.81    0.97
   1  -8   0    1.36    0.78
  -1  -8   0    0.19    0.87
   2   8   0    3.01    1.16
   2   8   0    3.98    1.36
  -2   8   0    0.29    1.16
   2  -8   0    2.13    0.97
  -2  -8   0    4.56    1.45
 -13   0   1    0.97    0.97
  13   0  -1   -0.29    0.97
 -12   0   1   -1.84    1.55
 -12   0   1   -1.65    1.16
  12   0  -1    0.39    1.65
  12   0  -1   -0.19    1.16
 -11   0   1   -0.29    0.97
 -11   0   1   -0.78    1.26
  11   0  -1    0.29    1.36
  11   0  -1    0.10    0.87
 -10   0   1   -0.58    1.36
 -10   0   1    0.68    1.26
  10   0  -1   -0.68    1.16
  10   0  -1    0.19    1.26
  -9   0   1    0.10    0.87
   9   0  -1    0.48    0.78
  -8   0   1    0.48    1.16
  -8   0   1    2.62    1.07
   8   0  -1   -0.87    1.07
   8   0  -1   -0.78    1.07
  -7   0   1    0.48    0.78
  -7   0   1    2.13    0.97
   7   0  -1    0.29    0.97
   7   0  -1    0.78    0.97
  -6   0   1   -0.39    0.87
   6   0  -1    0.48    0.87
  -5   0   1    1.26    0.87
   5   0  -1    0.48    0.78
  -4   0   1    0.19    0.58
  -4   0   1   -0.58    0.68
   4   0  -1    0.00    0.78
   4   0  -1    1.36    0.68
  -3   0   1    0.48    0.68
  -3   0   1   -1.65    0.68
   3   0  -1   -0.87    0.78
   3   0  -1   -0.58    0.48
  -2   0   1    0.19    0.48
  -2   0   1    0.58    0.68
   2   0  -1    0.10    0.58
   2   0  -1    0.19    0.48
  -1   0   1    1.26    0.48
  -1   0   1    0.29    0.48
   1   0  -1    1.94    0.58
   1   0  -1    1.45    0.58
   0   0   1   -0.29    0.29
   0   0   1   -0.10    0.29
   0   0  -1   -0.97    0.29
   0   0  -1   -0.29    0.39
   1   0   1    1.45    0.78
   1   0   1    0.10    0.58
  -1   0  -1   -0.10    0.68
  -1   0  -1   -0.78    0.58
   2   0   1    2.91    0.87
   2   0   1    0.58    0.78
  -2   0  -1    0.00    0.78
  -2   0  -1   -0.97    0.87
   3   0   1    0.78    0.78
   3   0   1   -0.29    0.78
  -3   0  -1    0.48    0.78
  -3   0  -1   -1.45    0.78
   4   0   1    0.10    0.78
   4   0   1   -0.97    0.78
  -4   0  -1   -0.78    0.87
  -4   0  -1    1.65    0.78
   5   0   1   -1.07    0.87
   5   0   1   -0.19    0.87
  -5   0  -1   -0.29    0.78
  -5   0  -1    1.16    0.97
   6   0   1   -0.87    0.97
   6   0   1   -0.97    0.68
  -6   0  -1    0.00    0.87
  -6   0  -1   -0.29    0.68
   7   0   1    0.19    0.78
   7   0   1    0.68    1.07
  -7   0  -1    0.19    1.07
  -7   0  -1    0.00    0.78
   8   0   1   -0.19    1.16
   8   0   1    0.10    1.16
  -8   0  -1    0.48    1.16
  -8   0  -1    1.65    1.07
   9   0   1    0.68    1.07
  -9   0  -1   -0.48    0.78
  10   0   1    1.16    0.87
  10   0   1   -0.68    1.26
 -10   0  -1   -0.19    1.26
 -10   0  -1    0.19    1.16
  11   0   1   -0.10    0.87
 -11   0  -1   -1.16    1.16
  12   0   1    0.00    0.78
  12   0   1    1.65    1.36
 -12   0  -1   -0.19    1.16
 -12   0  -1    1.16    1.55
 -13   1   1    2.04    1.16
  13   1  -1    2.62    1.07
 -13  -1   1    4.56    1.26
  13  -1  -1    4.17    1.26
 -12   1   1    1.26    1.16
 -12   1   1   -1.55    1.45
  12   1  -1    1.26    0.87
  12   1  -1   -0.48    1.55
 -12  -1   1    4.75    1.45
 -12  -1   1    2.52    1.07
  12  -1  -1    0.68    1.36
  12  -1  -1    0.87    0.78
 -11   1   1   -0.48    1.26
 -11   1   1   -1.65    1.26
  11   1  -1    0.29    0.97
  11   1  -1    1.36    0.87
 -11  -1   1    0.39    1.16
 -11  -1   1    0.29    0.87
  11  -1  -1    0.00    1.16
  11  -1  -1    0.19    1.26
 -10   1   1   23.37    2.42
 -10   1   1   30.06    3.10
  10   1  -1   29.29    3.01
  10   1  -1   30.74    3.10
 -10  -1   1   26.09    2.91
 -10  -1   1   29.19    3.01
  10  -1  -1   23.37    2.72
  10  -1  -1   28.13    2.91
  -9   1   1    4.85    1.07
   9   1  -1    9.12    1.55
   9   1  -1    4.17    1.36
  -9  -1   1    5.92    1.45
  -9  -1   1    5.04    1.36
   9  -1  -1    5.63    1.45
   9  -1  -1    8.73    1.26
  -8   1   1    2.42    1.07
  -8   1   1    0.48    0.97
   8   1  -1    1.45    1.07
   8   1  -1    0.97    1.16
  -8  -1   1    3.20    1.36
  -8  -1   1    0.39    1.16
   8  -1  -1    2.52    1.07
   8  -1  -1    1.07    1.26
  -7   1   1    0.00    1.07
  -7   1   1    0.10    0.87
   7   1  -1    1.75    1.07
   7   1  -1    0.78    0.97
  -7  -1   1    0.10    1.07
  -7  -1   1    0.78    0.97
   7  -1  -1    2.62    1.26
   7  -1  -1   -0.68    0.97
  -6   1   1   55.47    5.14
  -6   1   1   71.19    6.50
   6   1  -1   55.86    5.14
  -6  -1   1   58.77    5.33
  -6  -1   1   59.45    5.53
   6  -1  -1   65.17    6.01
   6  -1  -1   67.11    6.11
  -5   1   1  257.10   22.69
  -5   1   1  357.48   31.52
   5   1  -1  296.77   26.19
  -5  -1   1  260.50   22.99
   5  -1  -1  270.97   23.95
   5  -1  -1  288.62   25.51
  -4   1   1   60.03    5.43
  -4   1   1   54.80    4.95
   4   1  -1   61.97    5.63
   4   1  -1   48.59    4.36
  -4  -1   1   55.47    5.04
  -4  -1   1   50.14    4.56
   4  -1  -1   54.60    4.95
   4  -1  -1   57.90    5.24
  -3   1   1   -0.39    0.78
  -3   1   1    0.10    0.58
   3   1  -1    0.10    0.68
   3   1  -1    0.00    0.58
  -3  -1   1   -0.39    0.58
  -3  -1   1   -0.10    0.48
   3  -1  -1   -0.29    0.58
   3  -1  -1   -0.58    0.68
  -2   1   1  248.47   21.92
  -2   1   1  231.79   20.46
   2   1  -1  208.61   18.43
   2   1  -1  231.01   20.37
  -2  -1   1  216.86   19.11
  -2  -1   1  231.01   20.37
   2  -1  -1  244.11   21.53
   2  -1  -1  249.83   22.11
  -1   1   1 5529.03  485.31
  -1   1   1 5035.38  441.95
   1   1  -1 5153.70  452.33
   1   1  -1 4018.03  352.73
  -1  -1   1 5103.27  447.87
  -1  -1   1 4422.45  388.13
   1  -1  -1 5377.74  472.12
   1  -1  -1 5146.92  451.75
   0   1   1  939.58   82.53
   0   1   1  998.93   87.77
   0   1  -1  790.90   69.54
   0   1  -1 1020.27   89.71
   0  -1   1 1053.24   92.52
   0  -1   1  862.96   75.84
   0  -1  -1 1001.84   87.96
   0  -1  -1 1000.87   87.87
   1   1   1  137.91   12.22
   1   1   1  106.78    9.50
  -1   1  -1   95.24    8.44
  -1   1  -1  102.61    9.02
   1  -1   1   96.21    8.53
   1  -1   1  102.71    9.02
  -1  -1  -1  116.67   10.38
  -1  -1  -1  105.42    9.31
   2   1   1  300.45   26.48
   2   1   1  340.32   29.97
  -2   1  -1  276.21   24.34
  -2   1  -1  279.51   24.63
   2  -1   1  303.85   26.77
   2  -1   1  277.28   24.44
  -2  -1  -1  323.54   28.51
  -2  -1  -1  394.14   34.72
   3   1   1  466.49   41.02
   3   1   1  482.69   42.48
  -3   1  -1  418.00   36.76
  -3   1  -1  413.44   36.37
   3  -1   1  491.90   43.25
   3  -1   1  449.81   39.57
  -3  -1  -1  525.26   46.26
  -3  -1  -1  509.94   44.90
   4   1   1  440.01   38.79
  -4   1  -1  393.17   34.62
  -4   1  -1  384.05   33.85
   4  -1   1  480.84   42.28
   4  -1   1  413.63   36.47
  -4  -1  -1  492.97   43.45
   5   1   1    2.33    0.97
  -5   1  -1    1.36    0.68
  -5   1  -1    0.87    0.68
   5  -1   1    2.52    0.87
   5  -1   1    2.42    0.87
  -5  -1  -1    1.75    0.97
   6   1   1    8.15    1.36
   6   1   1    6.69    1.07
  -6   1  -1    4.36    0.97
  -6   1  -1    6.30    0.97
   6  -1   1    7.47    1.07
   6  -1   1    6.79    1.26
  -6  -1  -1    9.12    1.55
  -6  -1  -1    5.92    0.97
   7   1   1   98.63    8.92
   7   1   1   83.21    7.56
  -7   1  -1   85.15    7.76
  -7   1  -1   96.21    8.63
   7  -1   1  105.23    9.50
   7  -1   1  106.29    9.60
  -7  -1  -1  105.62    9.60
  -7  -1  -1   95.14    8.63
   8   1   1   28.80    2.91
   8   1   1   38.99    3.78
  -8   1  -1   36.66    3.59
  -8   1  -1   37.44    3.69
   8  -1   1   41.41    3.98
   8  -1   1   37.24    3.69
  -8  -1  -1   36.17    3.49
  -8  -1  -1   42.87    4.17
   9   1   1   23.57    2.42
  -9   1  -1   30.45    3.10
  -9   1  -1   26.48    2.91
   9  -1   1   29.29    3.10
  -9  -1  -1   27.25    2.72
  10   1   1    6.21    1.45
  10   1   1    5.92    1.07
 -10   1  -1    6.11    1.26
 -10   1  -1    6.59    1.45
  10  -1   1    4.95    1.45
  10  -1   1    6.30    1.45
 -10  -1  -1    4.66    1.26
 -10  -1  -1    4.85    1.26
  11   1   1    2.13    1.36
  11   1   1    5.33    1.26
 -11   1  -1    3.39    1.07
  11  -1   1    4.27    1.07
 -11  -1  -1    3.39    1.36
 -11  -1  -1    6.21    1.55
  12   1   1    3.30    1.07
  12   1   1    0.19    1.36
 -12   1  -1    2.62    1.16
 -12   1  -1    1.94    1.45
  12  -1   1    1.65    1.26
  12  -1   1    3.10    0.97
 -12  -1  -1    3.20    1.26
 -12  -1  -1    2.23    1.16
 -12   2   1    1.26    1.45
 -12   2   1    3.59    1.26
  12   2  -1    0.68    0.68
  12   2  -1   -0.29    1.65
 -12  -2   1   -0.48    1.36
 -12  -2   1   -0.58    1.07
  12  -2  -1   -0.19    1.26
  12  -2  -1    0.19    0.97
 -11   2   1    3.39    1.26
 -11   2   1    3.20    1.26
  11   2  -1    4.17    1.16
  11   2  -1    3.01    1.07
 -11  -2   1    1.65    0.97
 -11  -2   1    4.95    1.45
  11  -2  -1    2.33    1.36
  11  -2  -1    7.18    1.55
 -10   2   1   68.08    6.30
 -10   2   1   57.32    5.43
  10   2  -1   67.89    6.30
  10   2  -1   76.13    6.98
 -10  -2   1   68.47    6.30
 -10  -2   1   78.85    7.37
  10  -2  -1   73.13    6.89
  10  -2  -1   75.16    6.89
  -9   2   1  169.82   15.13
  -9   2   1  219.96   19.59
   9   2  -1  213.65   19.01
   9   2  -1  173.12   15.42
  -9  -2   1  190.09   16.88
  -9  -2   1  219.96   19.59
   9  -2  -1  216.37   19.30
   9  -2  -1  217.73   19.30
  -8   2   1   13.00    1.75
  -8   2   1   18.81    2.13
   8   2  -1   16.20    1.94
   8   2  -1   16.00    1.94
  -8  -2   1   13.97    1.84
  -8  -2   1   18.81    2.23
   8  -2  -1   16.10    2.04
   8  -2  -1   17.07    2.04
  -7   2   1   13.29    1.55
  -7   2   1   20.46    2.23
   7   2  -1   13.67    1.65
   7   2  -1   17.84    1.94
  -7  -2   1   16.68    1.84
  -7  -2   1   16.97    2.04
   7  -2  -1   19.78    2.04
   7  -2  -1   18.33    2.23
  -6   2   1   73.32    6.69
  -6   2   1   63.62    5.82
   6   2  -1   63.62    5.82
   6   2  -1   58.09    5.33
  -6  -2   1   68.76    6.30
  -6  -2   1   73.03    6.69
   6  -2  -1   66.82    6.11
   6  -2  -1   60.61    5.63
  -5   2   1   73.51    6.59
  -5   2   1   90.19    8.05
   5   2  -1   82.34    7.47
   5   2  -1   72.64    6.59
  -5  -2   1   88.25    7.95
  -5  -2   1   89.13    8.05
   5  -2  -1   95.63    8.63
   5  -2  -1   90.97    8.24
  -4   2   1    1.16    0.78
   4   2  -1    1.94    0.78
   4   2  -1    1.26    0.78
  -4  -2   1    2.33    0.68
  -4  -2   1    1.84    0.78
   4  -2  -1    2.62    0.78
  -3   2   1   11.64    1.26
  -3   2   1   11.83    1.36
   3   2  -1   10.77    1.26
   3   2  -1   12.32    1.36
  -3  -2   1   13.38    1.55
  -3  -2   1   13.87    1.45
   3  -2  -1   12.61    1.36
   3  -2  -1   13.09    1.55
  -2   2   1  356.22   31.42
  -2   2   1  371.25   32.78
   2   2  -1  304.92   26.86
   2   2  -1  370.09   32.59
  -2  -2   1  403.55   35.50
  -2  -2   1  338.57   29.77
   2  -2  -1  367.28   32.39
   2  -2  -1  372.13   32.88
  -1   2   1  549.90   48.39
  -1   2   1  589.66   51.89
   1   2  -1  560.08   49.27
   1   2  -1  587.53   51.60
  -1  -2   1  548.54   48.20
  -1  -2   1  561.83   49.36
   1  -2  -1  560.27   49.36
   1  -2  -1  573.56   50.43
   0   2   1  119.00   10.57
   0   2   1  114.25   10.18
   0   2  -1  124.53   10.96
   0   2  -1  128.41   11.35
   0  -2   1  127.53   11.25
   0  -2   1  127.73   11.25
   0  -2  -1  108.23    9.60
   0  -2  -1  115.90   10.28
   1   2   1   92.23    8.24
   1   2   1  120.84   10.77
  -1   2  -1  103.09    9.12
  -1   2  -1   89.32    7.95
   1  -2   1  101.35    9.02
   1  -2   1   96.50    8.53
  -1  -2  -1   88.25    7.86
  -1  -2  -1   93.30    8.34
   2   2   1  144.99   12.90
   2   2   1  166.23   14.74
  -2   2  -1  130.05   11.54
  -2   2  -1  160.80   14.16
   2  -2   1  158.76   14.06
   2  -2   1  136.16   12.03
  -2  -2  -1  135.78   12.03
  -2  -2  -1  159.93   14.16
   3   2   1  383.08   33.75
   3   2   1  372.80   32.88
  -3   2  -1  412.47   36.27
  -3   2  -1  312.00   27.45
   3  -2   1  380.08   33.46
   3  -2   1  362.23   31.91
  -3  -2  -1  345.07   30.45
  -3  -2  -1  453.98   40.05
   4   2   1   25.89    2.52
   4   2   1   25.99    2.62
  -4   2  -1   23.57    2.33
  -4   2  -1   28.13    2.72
   4  -2   1   27.45    2.72
   4  -2   1   28.13    2.72
  -4  -2  -1   30.74    3.01
  -4  -2  -1   25.89    2.62
   5   2   1   25.70    2.62
   5   2   1   21.14    2.13
  -5   2  -1   22.31    2.23
  -5   2  -1   28.71    2.81
   5  -2   1   30.94    3.01
   5  -2   1   27.25    2.72
  -5  -2  -1   28.03    2.72
  -5  -2  -1   26.96    2.72
   6   2   1    0.29    0.87
   6   2   1   -0.39    0.87
  -6   2  -1    1.65    0.97
  -6   2  -1   -0.39    0.87
   6  -2   1    1.36    1.26
   6  -2   1    0.10    0.97
  -6  -2  -1    0.10    1.07
  -6  -2  -1    2.13    0.87
   7   2   1  196.59   17.46
   7   2   1  195.03   17.36
  -7   2  -1  217.92   19.30
  -7   2  -1  190.18   16.88
   7  -2   1  235.96   20.95
   7  -2   1  238.09   21.14
  -7  -2  -1  253.81   22.60
  -7  -2  -1  225.00   19.98
   8   2   1  269.03   23.86
   8   2   1  304.24   26.96
  -8   2  -1  328.97   29.10
  -8   2  -1  255.26   22.60
   8  -2   1  316.26   28.03
   8  -2   1  328.48   29.10
  -8  -2  -1  365.43   32.39
  -8  -2  -1  343.32   30.36
   9   2   1    0.10    0.97
   9   2   1    0.29    1.26
  -9   2  -1    0.68    0.97
   9  -2   1    4.27    1.45
  -9  -2  -1    1.55    1.45
  10   2   1    2.52    1.36
  10   2   1    0.87    0.78
 -10   2  -1   -0.48    1.07
 -10   2  -1    0.87    1.26
  10  -2   1    1.26    1.26
  10  -2   1    1.45    1.36
 -10  -2  -1   -2.42    1.26
 -10  -2  -1    1.36    1.07
  11   2   1    5.72    1.55
 -11   2  -1    6.79    1.36
  11  -2   1    7.56    1.26
 -11  -2  -1    5.43    1.55
 -11  -2  -1    4.66    1.55
  12   2   1    7.76    1.45
 -12   2  -1   11.25    1.84
  12  -2   1    1.75    1.55
 -12  -2  -1    5.53    1.36
 -12   3   1    3.49    0.87
 -12   3   1    1.36    1.36
  12   3  -1    1.16    1.07
  12   3  -1    2.04    1.07
 -12  -3   1   -0.87    1.16
 -12  -3   1    3.20    1.26
  12  -3  -1   -2.52    1.75
 -11   3   1    8.63    1.65
  11   3  -1   10.96    1.84
 -11  -3   1   16.58    2.13
 -11  -3   1   18.91    2.42
  11  -3  -1   16.88    2.33
  11  -3  -1   26.38    2.72
 -10   3   1    0.10    1.07
 -10   3   1    0.00    0.78
  10   3  -1    1.94    1.07
  10   3  -1    0.19    1.07
 -10  -3   1   -1.36    1.07
 -10  -3   1    1.84    1.26
  10  -3  -1    0.58    1.26
  10  -3  -1   -0.58    0.97
  -9   3   1  181.07   16.10
  -9   3   1  218.31   19.40
   9   3  -1  190.38   16.97
  -9  -3   1  245.08   21.82
  -9  -3   1  204.15   18.14
   9  -3  -1  207.93   18.43
   9  -3  -1  224.52   20.08
  -8   3   1    0.00    1.16
   8   3  -1    0.29    0.68
   8   3  -1    1.75    1.16
  -8  -3   1    0.68    1.26
  -8  -3   1    0.19    0.97
   8  -3  -1    0.48    1.07
  -7   3   1   45.78    4.27
  -7   3   1   38.70    3.69
   7   3  -1   31.91    3.10
   7   3  -1   36.66    3.59
  -7  -3   1   46.36    4.36
  -7  -3   1   41.02    3.98
   7  -3  -1   40.35    3.88
   7  -3  -1   44.13    4.36
  -6   3   1  663.37   58.38
  -6   3   1  545.44   48.01
   6   3  -1  513.24   45.19
   6   3  -1  597.71   52.66
  -6  -3   1  745.61   65.66
  -6  -3   1  657.16   57.80
   6  -3  -1  594.12   52.27
   6  -3  -1  732.23   64.59
  -5   3   1   81.66    7.37
  -5   3   1   78.75    7.18
   5   3  -1   71.38    6.50
  -5  -3   1   92.91    8.44
   5  -3  -1   90.87    8.34
   5  -3  -1   89.32    8.05
  -4   3   1  282.71   25.02
  -4   3   1  290.27   25.60
   4   3  -1  282.90   25.02
  -4  -3   1  358.65   31.71
   4  -3  -1  319.85   28.22
   4  -3  -1  334.50   29.68
  -3   3   1   32.78    3.20
   3   3  -1   31.71    3.01
   3   3  -1   31.03    2.91
  -3  -3   1   35.11    3.30
  -3  -3   1   30.06    2.91
   3  -3  -1   33.56    3.20
  -2   3   1  166.91   14.84
  -2   3   1  147.41   13.09
   2   3  -1  150.81   13.38
   2   3  -1  150.13   13.29
  -2  -3   1  149.94   13.29
  -2  -3   1  154.59   13.67
   2  -3  -1  160.41   14.26
   2  -3  -1  166.13   14.84
  -1   3   1  464.65   40.93
  -1   3   1  520.61   45.87
   1   3  -1  549.02   48.30
   1   3  -1  490.15   43.16
  -1  -3   1  504.22   44.32
  -1  -3   1  514.69   45.29
   1  -3  -1  515.66   45.39
   1  -3  -1  489.86   43.16
   0   3   1  470.85   41.51
   0   3   1  440.79   38.79
   0   3  -1  491.90   43.25
   0   3  -1  437.10   38.41
   0  -3   1  498.50   43.84
   0  -3   1  456.89   40.25
   0  -3  -1  472.31   41.61
   0  -3  -1  463.48   40.83
   1   3   1   42.48    3.98
   1   3   1   51.21    4.75
  -1   3  -1   39.18    3.59
  -1   3  -1   41.22    3.69
   1  -3   1   45.58    4.07
   1  -3   1   39.47    3.59
  -1  -3  -1   43.64    3.98
  -1  -3  -1   44.61    4.17
   2   3   1   31.03    3.01
  -2   3  -1   29.29    2.72
  -2   3  -1   31.23    2.91
   2  -3   1   35.50    3.20
   2  -3   1   34.43    3.20
  -2  -3  -1   30.74    2.91
   3   3   1  239.84   21.24
   3   3   1  265.44   23.47
  -3   3  -1  224.03   19.78
  -3   3  -1  254.87   22.50
   3  -3   1  290.47   25.70
   3  -3   1  235.67   20.75
  -3  -3  -1  241.39   21.34
  -3  -3  -1  259.24   22.99
   4   3   1  150.52   13.48
   4   3   1  151.10   13.58
  -4   3  -1  124.14   11.06
   4  -3   1  146.45   13.00
  -4  -3  -1  168.75   15.03
  -4  -3  -1  188.54   16.78
   5   3   1  169.53   15.13
   5   3   1  152.94   13.67
  -5   3  -1  146.25   13.00
  -5   3  -1  181.55   16.10
   5  -3   1  186.79   16.68
  -5  -3  -1  191.54   17.07
  -5  -3  -1  211.91   18.91
   6   3   1   46.07    4.36
   6   3   1   45.29    4.27
  -6   3  -1   53.83    5.04
  -6   3  -1   41.41    3.88
   6  -3   1   51.50    4.95
   6  -3   1   50.53    4.75
  -6  -3  -1   61.68    5.82
  -6  -3  -1   50.72    4.75
   7   3   1    8.73    1.26
   7   3   1    7.56    1.45
  -7   3  -1    8.63    1.36
   7  -3   1    8.34    1.26
   7  -3   1    7.66    1.45
  -7  -3  -1   10.77    1.55
  -7  -3  -1   11.25    1.75
   8   3   1    1.75    1.07
  -8   3  -1    2.52    1.16
  -8   3  -1    1.75    0.87
   8  -3   1    0.39    1.16
  -8  -3  -1    4.56    1.36
   9   3   1    6.40    1.36
   9   3   1    5.92    1.16
  -9   3  -1    5.24    1.26
   9  -3   1    9.80    1.65
  -9  -3  -1   10.96    1.84
  -9  -3  -1    8.63    1.36
  10   3   1   13.87    1.84
 -10   3  -1    9.41    1.55
 -10   3  -1   10.47    1.65
  10  -3   1   12.12    1.75
 -10  -3  -1   10.96    1.84
  11   3   1    5.14    1.16
  11   3   1    0.97    1.16
 -11   3  -1    3.10    1.26
 -11   3  -1    4.56    1.26
  11  -3   1    1.36    1.45
 -11  -3  -1    3.10    1.36
 -11  -3  -1    6.59    1.65
 -11   4   1   20.08    2.13
 -11   4   1   18.23    2.23
  11   4  -1   19.11    2.42
  11   4  -1   25.12    2.62
 -11  -4   1   31.42    3.39
  11  -4  -1   28.51    2.81
 -10   4   1    4.17    0.97
 -10   4   1    5.14    1.16
  10   4  -1    6.59    1.26
  10   4  -1    5.24    1.26
 -10  -4   1    6.21    1.65
 -10  -4   1    8.15    1.65
  10  -4  -1    1.84    1.55
  10  -4  -1    6.89    1.26
  -9   4   1    7.95    1.26
  -9   4   1   10.09    1.55
   9   4  -1    9.02    1.55
   9   4  -1    7.27    1.36
  -9  -4   1   10.18    1.45
  -9  -4   1   12.03    2.04
   9  -4  -1   11.15    1.65
   9  -4  -1    7.18    1.65
  -8   4   1    4.17    1.26
  -8   4   1    5.53    1.16
   8   4  -1    7.56    1.36
   8   4  -1    4.56    1.45
  -8  -4   1    7.86    1.65
  -8  -4   1    7.47    1.45
  -7   4   1   14.94    1.65
   7   4  -1   13.48    1.84
   7   4  -1   14.64    1.75
  -7  -4   1   13.77    1.84
   7  -4  -1   15.71    2.13
   7  -4  -1   13.48    1.65
  -6   4   1   86.80    7.86
  -6   4   1   79.43    7.27
   6   4  -1   74.39    6.89
   6   4  -1   89.81    8.24
  -6  -4   1  109.11    9.89
   6  -4  -1   77.30    6.98
   6  -4  -1   99.51    9.21
  -5   4   1   13.58    1.65
  -5   4   1   16.97    1.84
   5   4  -1   13.97    1.75
  -5  -4   1   18.62    2.23
  -5  -4   1   22.02    2.52
   5  -4  -1   18.43    2.04
   5  -4  -1   17.26    2.23
  -4   4   1    2.62    0.87
  -4   4   1    4.07    1.07
  -4  -4   1    3.39    1.07
  -4  -4   1    3.69    1.07
   4  -4  -1    3.88    1.26
   4  -4  -1    4.75    0.97
  -3   4   1   38.70    3.59
  -3  -4   1   42.09    3.88
  -3  -4   1   45.19    4.27
   3  -4  -1   46.07    4.46
  -2   4   1    5.24    0.87
  -2   4   1    6.69    1.26
   2   4  -1    6.30    1.07
  -2  -4   1    3.39    0.87
  -2  -4   1    4.85    0.78
   2  -4  -1    3.59    0.97
  -1   4   1    7.37    1.16
  -1   4   1    7.66    1.07
   1   4  -1    8.05    1.16
  -1  -4   1    8.44    0.97
  -1  -4   1    7.37    1.07
   1  -4  -1   10.18    1.26
   1  -4  -1    8.44    1.26
   0   4   1  134.71   12.03
   0   4   1  151.29   13.58
   0  -4   1  154.40   13.77
   0  -4   1  162.54   14.35
   0  -4  -1  148.48   13.19
   0  -4  -1  156.24   13.97
   1   4   1   12.22    1.45
   1   4   1   11.74    1.45
   1  -4   1    8.34    1.07
   1  -4   1   13.38    1.45
  -1  -4  -1   10.96    1.45
  -1  -4  -1   10.28    1.26
   2   4   1  125.21   11.25
  -2   4  -1  116.09   10.38
  -2   4  -1  114.54   10.18
   2  -4   1  152.46   13.58
  -2  -4  -1  122.98   11.06
   3   4   1   95.82    8.63
   3   4   1  120.74   10.86
  -3   4  -1  106.39    9.50
  -3   4  -1   96.69    8.63
   3  -4   1  125.69   11.35
  -3  -4  -1  107.17    9.60
  -3  -4  -1  103.58    9.31
   4   4   1  310.06   27.45
   4   4   1  353.89   31.33
  -4   4  -1  281.35   24.83
  -4   4  -1  344.49   30.45
   4  -4   1  400.25   35.40
   4  -4   1  300.65   26.57
  -4  -4  -1  354.18   31.33
  -4  -4  -1  359.23   31.71
   5   4   1  239.45   21.34
   5   4   1  237.12   21.05
  -5   4  -1  220.83   19.59
  -5   4  -1  258.85   22.89
   5  -4   1  271.26   23.95
   5  -4   1  284.45   25.31
  -5  -4  -1  288.33   25.60
  -5  -4  -1  257.20   22.79
   6   4   1    7.27    1.36
   6   4   1    6.30    1.26
  -6   4  -1    7.47    1.16
  -6   4  -1    6.21    1.26
   6  -4   1   10.86    1.65
   6  -4   1    8.63    1.36
  -6  -4  -1    9.12    1.55
  -6  -4  -1    8.92    1.65
   7   4   1   68.86    6.40
   7   4   1   86.61    7.95
  -7   4  -1   90.87    8.24
  -7   4  -1   73.61    6.79
   7  -4   1   94.85    8.53
   7  -4   1   93.98    8.73
  -7  -4  -1  127.63   11.64
  -7  -4  -1   92.13    8.44
   8   4   1    5.63    1.36
   8   4   1    6.89    1.45
  -8   4  -1    3.98    1.26
  -8   4  -1    5.72    1.26
   8  -4   1    6.40    1.36
  -8  -4  -1   10.96    1.75
  -8  -4  -1   11.06    1.94
   9   4   1   52.27    4.95
  -9   4  -1   45.78    4.36
  -9   4  -1   41.80    4.07
   9  -4   1   54.70    5.33
   9  -4   1   58.68    5.53
  -9  -4  -1   62.07    5.82
  -9  -4  -1   47.52    4.56
  10   4   1   -0.29    1.16
 -10   4  -1   -0.78    1.07
 -10   4  -1   -1.45    1.16
  10  -4   1    1.45    1.45
  10  -4   1    1.07    1.07
 -10  -4  -1   -0.39    1.16
 -10  -4  -1   -0.19    1.36
 -10   5   1    0.87    0.97
  10   5  -1   -1.94    1.45
  10   5  -1    0.29    0.87
 -10  -5   1    0.00    1.45
  10  -5  -1    3.30    1.65
  -9   5   1   10.28    1.55
  -9   5   1    8.15    1.36
   9   5  -1    6.89    1.26
   9   5  -1    4.07    1.36
  -9  -5   1   13.48    1.94
  -9  -5   1    9.89    1.84
   9  -5  -1   10.96    1.45
   9  -5  -1   13.48    2.13
  -8   5   1   39.38    3.88
  -8   5   1   43.93    4.17
   8   5  -1   29.29    3.01
   8   5  -1   40.25    4.07
  -8  -5   1   54.31    5.24
  -8  -5   1   38.79    3.88
   8  -5  -1   45.78    4.36
   8  -5  -1   50.53    5.04
  -7   5   1   24.63    2.52
  -7   5   1   29.29    2.91
   7   5  -1   24.92    2.72
  -7  -5   1   21.63    2.42
   7  -5  -1   33.56    3.69
   7  -5  -1   22.79    2.42
  -6   5   1   18.43    2.04
  -6   5   1   16.78    1.94
   6   5  -1   16.10    1.94
   6   5  -1   17.84    2.13
  -6  -5   1   14.94    1.94
  -6  -5   1   17.36    2.13
   6  -5  -1   17.46    1.94
   6  -5  -1   19.59    2.42
  -5   5   1    1.07    0.78
  -5   5   1    3.59    1.16
   5   5  -1    0.29    1.16
   5   5  -1    3.01    0.97
  -5  -5   1    2.91    1.07
  -5  -5   1    2.42    1.07
   5  -5  -1    4.56    1.07
   5  -5  -1    2.13    1.26
  -4   5   1  281.54   24.92
  -4   5   1  260.11   23.08
   4   5  -1  284.16   25.22
   4   5  -1  259.53   22.99
  -4  -5   1  310.15   27.45
  -4  -5   1  287.75   25.51
   4  -5  -1  313.35   27.83
   4  -5  -1  310.44   27.45
  -3   5   1    7.56    1.26
  -3   5   1    8.05    1.16
   3   5  -1    9.31    1.36
   3   5  -1    8.92    1.26
  -3  -5   1    9.99    1.36
   3  -5  -1    9.99    1.26
   3  -5  -1   10.67    1.55
  -2   5   1   61.10    5.63
  -2   5   1   71.19    6.59
   2   5  -1   73.61    6.79
  -2  -5   1   75.26    6.79
   2  -5  -1   67.02    6.21
  -1   5   1   34.04    3.30
  -1   5   1   42.19    4.07
   1   5  -1   44.42    4.17
   1   5  -1   44.13    4.27
  -1  -5   1   38.31    3.59
  -1  -5   1   36.27    3.39
   1  -5  -1   43.84    4.07
   0   5   1    5.33    1.07
   0   5  -1    7.37    1.07
   0   5  -1    8.53    1.36
   0  -5   1    6.01    0.87
   0  -5   1    6.69    0.97
   0  -5  -1    5.82    0.87
   1   5   1    4.66    1.16
  -1   5  -1    5.53    0.78
  -1   5  -1    6.98    1.16
   1  -5   1    6.79    0.97
   1  -5   1    5.92    0.97
  -1  -5  -1    6.50    1.07
   2   5   1  568.91   50.24
  -2   5  -1  603.82   53.15
   2  -5   1  613.03   54.02
   2  -5   1  691.30   60.81
  -2  -5  -1  618.85   54.50
   3   5   1   70.41    6.59
  -3   5  -1   64.59    5.92
  -3   5  -1   73.03    6.59
   3  -5   1   74.29    6.89
   3  -5   1   70.41    6.40
  -3  -5  -1   73.22    6.69
   4   5   1    1.75    1.26
   4   5   1   -0.29    0.87
  -4   5  -1    0.58    0.68
   4  -5   1   -0.29    0.78
   4  -5   1    0.87    0.87
  -4  -5  -1    0.97    0.97
   5   5   1   37.92    3.78
   5   5   1   38.02    3.78
  -5   5  -1   32.68    3.20
  -5   5  -1   37.05    3.49
   5  -5   1   42.38    3.98
   5  -5   1   41.12    4.17
  -5  -5  -1   38.89    3.88
   6   5   1   11.74    1.75
   6   5   1   13.87    1.84
  -6   5  -1   17.46    1.94
  -6   5  -1   13.77    1.84
   6  -5   1   16.88    2.23
   6  -5   1   14.26    1.65
  -6  -5  -1   13.77    1.75
   7   5   1    7.37    1.26
   7   5   1    6.59    1.36
  -7   5  -1    8.63    1.36
  -7   5  -1    9.70    1.45
   7  -5   1    7.95    1.55
   7  -5   1   11.64    1.55
  -7  -5  -1    8.05    1.55
  -7  -5  -1    7.95    1.65
   8   5   1   -0.48    1.16
   8   5   1   -1.45    0.87
  -8   5  -1    1.26    0.97
   8  -5   1    0.78    1.07
   8  -5   1    0.10    1.26
  -8  -5  -1    1.07    1.07
  -8  -5  -1   -0.10    1.26
   9   5   1    8.15    1.75
  -9   5  -1   14.84    1.84
  -9   5  -1   14.55    1.84
   9  -5   1   19.40    2.13
   9  -5   1   14.16    2.23
   9   6  -1   -0.10    0.97
  -9  -6   1    0.29    1.26
  -8   6   1    1.26    0.87
  -8   6   1    5.24    1.16
   8   6  -1    3.98    1.07
   8   6  -1    2.72    1.07
  -8  -6   1    8.05    1.75
   8  -6  -1    5.04    1.55
   8  -6  -1    9.02    1.45
  -7   6   1   48.88    4.66
  -7   6   1   48.01    4.56
  -7  -6   1   48.49    4.75
  -7  -6   1   52.08    5.04
   7  -6  -1   52.66    5.24
   7  -6  -1   47.62    4.46
  -6   6   1    2.23    0.97
  -6   6   1    5.14    1.26
   6   6  -1    6.98    1.45
  -6  -6   1    4.36    1.16
   6  -6  -1    6.11    1.36
  -5   6   1    1.26    0.97
   5   6  -1    1.16    0.87
   5   6  -1    1.65    1.26
  -5  -6   1    0.39    0.97
  -5  -6   1    0.39    1.16
   5  -6  -1   -0.87    0.97
  -4   6   1  246.73   21.92
  -4   6   1  229.46   20.46
   4   6  -1  226.94   20.17
   4   6  -1  255.94   22.89
  -4  -6   1  268.94   23.86
  -4  -6   1  268.84   23.86
   4  -6  -1  249.44   22.31
   4  -6  -1  278.83   24.73
  -3   6   1  211.62   18.91
  -3   6   1  212.30   18.81
   3   6  -1  213.65   19.01
   3   6  -1  248.08   22.11
  -3  -6   1  250.22   22.21
  -3  -6   1  248.96   22.11
   3  -6  -1  234.89   20.95
   3  -6  -1  248.08   22.02
  -2   6   1   25.12    2.72
  -2   6   1   23.28    2.33
   2   6  -1   25.22    2.62
  -2  -6   1   27.25    2.81
   2  -6  -1   28.51    2.81
  -1   6   1    1.94    0.68
  -1   6   1    3.49    1.16
   1   6  -1    1.07    0.97
   1   6  -1    1.36    0.87
  -1  -6   1    1.55    0.68
  -1  -6   1    2.72    0.78
   1  -6  -1    2.13    0.87
   1  -6  -1    1.26    0.78
   0   6   1   12.12    1.75
   0   6   1   14.55    1.84
   0   6  -1   12.80    1.55
   0   6  -1   13.48    1.75
   0  -6   1   10.18    1.36
   0  -6   1   12.51    1.45
   0  -6  -1   11.93    1.55
   0  -6  -1   10.67    1.36
   1   6   1   50.14    4.85
   1   6   1   56.06    5.24
  -1   6  -1   61.68    5.72
  -1   6  -1   55.18    5.14
   1  -6   1   55.86    5.14
   1  -6   1   52.76    4.95
  -1  -6  -1   57.32    5.43
  -1  -6  -1   51.01    4.75
   2   6   1   80.98    7.47
   2   6   1   81.76    7.66
  -2   6  -1   88.55    8.05
  -2   6  -1   81.08    7.37
   2  -6   1   86.41    7.86
  -2  -6  -1   83.89    7.66
  -2  -6  -1   73.42    6.79
   3   6   1   -0.10    1.16
   3   6   1    0.87    0.97
  -3   6  -1    1.36    0.58
   3  -6   1    1.26    0.87
   3  -6   1    0.39    0.78
  -3  -6  -1    3.39    1.16
  -3  -6  -1    0.78    0.87
   4   6   1    0.10    0.97
  -4   6  -1   -1.16    0.97
  -4   6  -1    0.39    0.68
   4  -6   1    1.16    0.78
   4  -6   1    1.16    0.87
  -4  -6  -1   -0.58    0.87
   5   6   1   76.52    7.08
  -5   6  -1   74.58    6.79
  -5   6  -1   78.65    7.18
   5  -6   1   95.72    8.83
   5  -6   1   85.64    7.76
  -5  -6  -1   91.26    8.34
  -5  -6  -1   92.81    8.53
   6   6   1    5.33    1.26
   6   6   1    5.43    1.26
  -6   6  -1    6.21    1.26
  -6   6  -1    7.47    1.26
   6  -6   1    6.21    1.16
   6  -6   1    6.50    1.45
  -6  -6  -1    6.50    1.36
  -6  -6  -1    8.83    1.65
   7   6   1    1.94    0.97
   7   6   1    0.10    1.07
  -7   6  -1    0.00    0.78
  -7   6  -1    2.72    1.16
   7  -6   1    1.07    1.26
  -7  -6  -1    1.84    1.16
  -7  -6  -1    3.01    1.36
   8   6   1    0.58    1.36
  -8   6  -1    2.72    1.16
  -8   6  -1    2.23    1.16
   8  -6   1    2.13    1.16
   8  -6   1    0.97    1.26
  -8  -6  -1   -0.68    1.26
  -8  -6  -1    1.75    1.45
  -6   7   1    0.68    0.97
  -6   7   1    1.75    0.87
   6   7  -1    1.07    1.26
  -6  -7   1    0.10    0.97
  -6  -7   1    1.16    1.36
   6  -7  -1    0.78    1.07
   6  -7  -1   -0.10    0.87
  -5   7   1    3.01    1.16
  -5   7   1    2.72    0.87
   5   7  -1    1.84    1.07
  -5  -7   1    2.13    0.97
   5  -7  -1    2.52    0.97
   5  -7  -1    3.01    1.16
  -4   7   1    4.56    1.36
  -4   7   1    4.46    0.97
   4   7  -1    3.20    1.26
   4   7  -1    5.82    1.36
  -4  -7   1    2.33    1.36
  -4  -7   1    1.75    0.97
   4  -7  -1    3.88    1.07
  -3   7   1    5.82    1.26
   3   7  -1    4.36    1.26
   3   7  -1    4.66    1.26
  -3  -7   1    3.88    1.26
  -3  -7   1    5.24    0.97
   3  -7  -1    7.95    1.26
  -2   7   1    5.14    1.07
  -2   7   1    6.69    1.36
   2   7  -1    7.76    1.45
   2   7  -1    8.15    1.55
  -2  -7   1    6.50    1.36
  -2  -7   1    5.24    0.97
   2  -7  -1    7.18    1.45
   2  -7  -1    6.30    1.07
  -1   7   1    4.27    1.16
  -1   7   1    5.14    1.26
   1   7  -1    3.30    1.16
   1   7  -1    3.01    1.26
  -1  -7   1    2.62    0.97
  -1  -7   1    2.52    0.87
   1  -7  -1    3.20    1.26
   1  -7  -1    2.81    0.97
   0   7   1    7.47    1.45
   0   7   1    9.02    1.55
   0   7  -1    7.86    1.26
   0  -7   1    9.89    1.36
   0  -7   1    8.15    1.16
   0  -7  -1    8.92    1.45
   0  -7  -1    5.72    1.07
   1   7   1  121.13   11.15
  -1   7  -1  167.39   15.03
   1  -7   1  139.85   12.61
   1  -7   1  122.10   10.96
  -1  -7  -1  131.32   11.83
   2   7   1   53.44    5.24
   2   7   1   58.09    5.63
  -2   7  -1   64.49    6.01
  -2   7  -1   58.00    5.43
   2  -7   1   60.71    5.63
   2  -7   1   55.18    5.24
  -2  -7  -1   40.15    3.98
  -2  -7  -1   52.66    4.95
   3   7   1    0.78    1.16
  -3   7  -1   -2.04    1.16
  -3   7  -1    0.78    0.78
   3  -7   1    0.19    0.87
   3  -7   1    3.01    0.97
  -3  -7  -1   -0.29    0.97
  -3  -7  -1   -0.97    1.26
   4   7   1    2.33    1.07
   4   7   1   -2.23    1.26
  -4   7  -1    3.10    1.26
  -4   7  -1    1.36    0.87
   4  -7   1    1.16    0.87
   4  -7   1   -0.29    0.78
  -4  -7  -1    1.07    1.07
  -4  -7  -1    3.20    1.36
   5   7   1   16.58    2.13
   5   7   1   17.55    2.13
  -5   7  -1   21.63    2.33
  -5   7  -1   21.05    2.33
   5  -7   1   25.70    2.81
   5  -7   1   25.60    2.72
  -5  -7  -1   22.02    2.33
  -5  -7  -1   26.77    3.01
   6   7   1   25.99    2.81
  -6   7  -1   17.07    2.13
  -6   7  -1   25.12    2.62
   6  -7   1   30.26    3.30
   6  -7   1   34.72    3.39
  -6  -7  -1   29.00    3.10
  -2   8   1   10.28    1.65
  -2   8   1   13.09    1.84
   2  -8  -1   13.87    1.75
   2  -8  -1   13.58    1.84
  -1   8   1    1.84    1.16
  -1   8   1    2.42    1.07
   1  -8  -1    3.69    1.07
   1  -8  -1    4.75    1.26
   0   8   1    0.87    1.16
   0   8   1    2.91    1.16
   0  -8  -1    2.72    0.97
   0  -8  -1    1.07    1.07
   1   8   1   43.84    4.46
   1   8   1   53.05    5.14
  -1  -8  -1   57.61    5.43
  -1  -8  -1   59.45    5.63
   2   8   1   31.91    3.39
   2   8   1   31.03    3.30
  -2  -8  -1   41.31    4.07
  -2  -8  -1   45.68    4.46
 -13   0   2   -0.19    1.07
 -13   0   2   -1.07    1.45
  13   0  -2   -0.48    1.45
  13   0  -2    1.45    0.97
 -12   0   2   -3.20    1.45
  12   0  -2    1.45    1.45
 -11   0   2  151.20   13.58
 -11   0   2  175.64   15.71
  11   0  -2  138.30   12.51
  11   0  -2  162.54   14.55
 -10   0   2  126.56   11.35
 -10   0   2  155.08   13.87
  10   0  -2  140.53   12.61
  10   0  -2  138.98   12.41
  -9   0   2    0.68    1.07
   9   0  -2    0.87    1.16
  -8   0   2   11.06    1.65
  -8   0   2   11.54    1.55
   8   0  -2   12.03    1.65
   8   0  -2   12.51    1.55
  -7   0   2  353.50   31.23
  -7   0   2  271.17   23.95
   7   0  -2  325.86   28.80
   7   0  -2  330.91   29.19
  -6   0   2 1508.09  132.48
   6   0  -2 1297.64  114.05
  -5   0   2   12.22    1.45
   5   0  -2   14.26    1.55
  -4   0   2   52.08    4.75
  -4   0   2   44.90    4.07
   4   0  -2   40.44    3.69
   4   0  -2   45.78    4.17
  -3   0   2   13.38    1.45
  -3   0   2   15.42    1.65
   3   0  -2   12.32    1.36
   3   0  -2   12.03    1.36
  -2   0   2 9351.15  820.77
  -2   0   2 8860.41  777.61
   2   0  -2 9805.03  860.24
   2   0  -2 9999.00  877.51
  -1   0   2 4152.83  364.46
  -1   0   2 4450.57  390.65
   1   0  -2 4626.11  406.07
   1   0  -2 4307.04  377.94
   0   0   2  892.64   78.36
   0   0   2  914.75   80.40
   0   0  -2  907.09   79.62
   0   0  -2  931.72   81.85
   1   0   2  520.61   45.78
   1   0   2  621.28   54.60
  -1   0  -2  531.86   46.75
  -1   0  -2  679.85   59.74
   2   0   2   40.93    3.78
   2   0   2   42.19    3.88
  -2   0  -2   47.91    4.36
  -2   0  -2   39.76    3.69
   3   0   2    1.55    0.78
   3   0   2    1.65    0.48
  -3   0  -2    2.72    0.78
  -3   0  -2    2.81    0.58
   4   0   2  201.14   17.84
  -4   0  -2  211.91   18.81
   5   0   2   11.74    1.45
  -5   0  -2   14.26    1.65
   6   0   2   11.93    1.65
   6   0   2   11.64    1.65
  -6   0  -2   12.70    1.75
  -6   0  -2   12.22    1.55
   7   0   2  200.37   17.84
   7   0   2  168.56   15.03
  -7   0  -2  201.34   17.94
  -7   0  -2  184.85   16.49
   8   0   2    9.60    1.55
  -8   0  -2    8.53    1.55
   9   0   2    2.62    1.16
   9   0   2    2.42    1.26
  -9   0  -2    3.59    1.55
  -9   0  -2   -0.19    1.07
  10   0   2    1.07    0.78
  10   0   2    0.10    1.16
 -10   0  -2    0.00    0.97
 -10   0  -2    0.58    0.97
  11   0   2   79.82    7.37
 -11   0  -2   87.67    8.05
  12   0   2   40.73    3.98
 -12   0  -2   36.17    3.59
 -13   1   2    0.00    1.16
  13   1  -2    1.36    1.75
  13   1  -2   -1.16    1.07
 -13  -1   2    1.94    1.07
 -13  -1   2    2.72    1.45
  13  -1  -2    1.55    1.07
 -12   1   2    0.68    0.87
 -12   1   2    0.29    1.36
  12   1  -2    2.72    1.75
 -12  -1   2    0.87    1.45
 -12  -1   2   -0.97    0.97
  12  -1  -2    0.19    1.36
  12  -1  -2   -0.78    0.97
 -11   1   2   -0.29    1.26
 -11   1   2   -0.10    0.87
  11   1  -2    0.58    1.36
  11   1  -2    0.29    1.07
 -11  -1   2    0.39    1.36
 -11  -1   2    0.19    1.26
  11  -1  -2    1.26    1.26
  11  -1  -2    0.87    0.87
 -10   1   2    1.84    1.07
 -10   1   2   -0.58    0.87
  10   1  -2   -3.59    1.36
  10   1  -2   -1.75    1.16
 -10  -1   2    0.58    1.26
 -10  -1   2    0.19    1.26
  10  -1  -2   -1.36    1.07
  10  -1  -2    0.48    0.97
  -9   1   2    4.66    1.07
  -9   1   2    4.95    1.26
   9   1  -2    5.92    1.07
  -9  -1   2    4.66    1.07
   9  -1  -2    4.85    1.16
   9  -1  -2    3.88    1.36
  -8   1   2   14.84    1.84
  -8   1   2    9.41    1.36
   8   1  -2   11.83    1.65
   8   1  -2   11.93    1.55
  -8  -1   2   14.35    1.84
  -8  -1   2   11.83    1.84
   8  -1  -2   12.41    1.75
   8  -1  -2   13.77    1.55
  -7   1   2    6.98    1.36
  -7   1   2    8.83    1.36
   7   1  -2    9.21    1.45
   7   1  -2    7.86    1.26
  -7  -1   2    9.12    1.16
  -7  -1   2    8.05    1.36
   7  -1  -2   11.06    1.55
   7  -1  -2    6.40    1.26
  -6   1   2    1.94    0.97
  -6   1   2    4.56    0.87
   6   1  -2    2.72    0.97
  -6  -1   2    4.36    1.07
   6  -1  -2    4.36    0.97
   6  -1  -2    2.72    0.97
  -5   1   2   41.70    3.88
  -5   1   2   46.26    4.27
   5   1  -2   46.84    4.27
  -5  -1   2   39.47    3.69
   5  -1  -2   39.86    3.78
   5  -1  -2   42.28    3.88
  -4   1   2   -0.39    0.68
  -4   1   2   -0.10    0.58
   4   1  -2   -0.68    0.68
   4   1  -2    0.97    0.68
  -4  -1   2    0.58    0.58
  -4  -1   2    0.48    0.78
   4  -1  -2   -0.19    0.78
   4  -1  -2    0.39    0.58
  -3   1   2   13.87    1.45
  -3   1   2   13.29    1.45
   3   1  -2   13.67    1.45
   3   1  -2   13.97    1.45
  -3  -1   2   15.81    1.55
  -3  -1   2   11.54    1.26
   3  -1  -2   16.39    1.84
   3  -1  -2   16.78    1.75
  -2   1   2 5742.39  504.02
  -2   1   2 5692.93  499.66
   2   1  -2 4965.56  435.75
   2   1  -2 5352.52  469.79
  -2  -1   2 5810.28  509.94
  -2  -1   2 4483.55  393.56
   2  -1  -2 5866.53  514.98
   2  -1  -2 5526.12  485.01
  -1   1   2 4083.98  358.55
  -1   1   2 3774.60  331.30
   1   1  -2 3843.46  337.31
   1   1  -2 4256.61  373.68
  -1  -1   2 3327.50  292.02
  -1  -1   2 4060.70  356.41
   1  -1  -2 3893.89  341.87
   1  -1  -2 3861.88  338.96
   0   1   2  133.16   11.83
   0   1   2  137.43   12.22
   0   1  -2  142.86   12.61
   0  -1   2  172.24   15.13
   0  -1  -2  141.50   12.51
   0  -1  -2  142.95   12.70
   1   1   2    0.48    0.68
   1   1   2    0.87    0.58
  -1   1  -2   -0.29    0.39
  -1   1  -2    1.26    0.48
   1  -1   2    0.19    0.39
   1  -1   2    0.10    0.39
  -1  -1  -2    0.48    0.58
  -1  -1  -2   -0.68    0.58
   2   1   2  108.82    9.70
   2   1   2   98.34    8.83
  -2   1  -2   92.13    8.15
  -2   1  -2  101.15    9.02
   2  -1   2   78.07    6.98
   2  -1   2   99.02    8.83
  -2  -1  -2  113.86   10.18
  -2  -1  -2   97.08    8.73
   3   1   2  555.04   48.88
   3   1   2  550.48   48.49
  -3   1  -2  510.33   44.90
  -3   1  -2  587.91   51.69
   3  -1   2  610.41   53.73
   3  -1   2  498.50   43.84
  -3  -1  -2  675.88   59.45
  -3  -1  -2  540.49   47.52
   4   1   2  108.91    9.80
   4   1   2  100.38    9.02
  -4   1  -2  101.15    9.02
  -4   1  -2  109.59    9.80
   4  -1   2  101.15    9.02
   4  -1   2  111.82    9.99
  -4  -1  -2  114.05   10.18
  -4  -1  -2  117.35   10.57
   5   1   2   44.90    4.17
   5   1   2   37.92    3.59
  -5   1  -2   44.13    4.07
  -5   1  -2   43.74    4.17
   5  -1   2   48.01    4.46
   5  -1   2   36.08    3.39
  -5  -1  -2   48.01    4.46
  -5  -1  -2   50.04    4.66
   6   1   2  321.79   28.42
   6   1   2  282.51   25.02
  -6   1  -2  312.09   27.64
  -6   1  -2  289.20   25.51
   6  -1   2  365.24   32.30
   6  -1   2  362.91   32.10
  -6  -1  -2  355.64   31.42
  -6  -1  -2  327.61   28.90
   7   1   2  856.75   75.36
   7   1   2  748.62   65.85
  -7   1  -2  796.82   70.12
  -7   1  -2  875.76   77.10
   7  -1   2 1018.33   89.61
   7  -1   2  830.47   73.03
  -7  -1  -2  984.38   86.61
  -7  -1  -2  863.83   75.94
   8   1   2   72.25    6.59
   8   1   2   53.53    5.04
  -8   1  -2   68.57    6.30
  -8   1  -2   73.80    6.79
   8  -1   2   84.96    7.76
   8  -1   2   73.22    6.79
  -8  -1  -2   82.63    7.56
  -8  -1  -2   72.54    6.69
   9   1   2    1.45    0.87
   9   1   2    1.26    1.07
  -9   1  -2    1.45    0.87
   9  -1   2    2.33    1.26
   9  -1   2    1.36    1.16
  -9  -1  -2    1.75    1.07
  -9  -1  -2    1.45    1.16
  10   1   2    1.65    0.97
  10   1   2    3.01    1.26
 -10   1  -2    2.81    1.16
 -10   1  -2    2.81    1.26
  10  -1   2    2.52    0.97
  10  -1   2    5.14    1.36
 -10  -1  -2    0.78    1.07
 -10  -1  -2    1.84    1.45
  11   1   2   16.49    2.13
 -11   1  -2   17.07    2.23
 -11   1  -2   23.76    2.72
  11  -1   2   19.49    2.42
  11  -1   2   18.43    2.33
 -11  -1  -2   19.69    2.23
 -11  -1  -2   26.28    2.72
  12   1   2   27.35    2.72
 -12   1  -2   18.23    2.23
 -12   1  -2   18.52    2.13
  12  -1   2   22.21    2.42
 -12  -1  -2   21.72    2.33
 -12   2   2   -1.07    1.26
 -12   2   2    0.10    0.87
  12   2  -2    0.00    0.97
  12   2  -2   -0.78    1.55
 -12  -2   2   -0.78    0.97
 -12  -2   2    0.78    1.45
  12  -2  -2    0.00    0.78
  12  -2  -2    1.07    1.26
 -11   2   2    1.16    0.87
 -11   2   2   -0.19    1.16
  11   2  -2    1.84    1.07
  11   2  -2   -0.58    1.36
 -11  -2   2    0.78    1.26
 -11  -2   2    2.13    1.07
  11  -2  -2    0.10    1.36
  11  -2  -2    0.97    0.87
 -10   2   2  232.57   20.66
 -10   2   2  186.01   16.58
  10   2  -2  241.59   21.43
  10   2  -2  194.26   17.26
 -10  -2   2  220.25   19.59
 -10  -2   2  222.97   19.88
  10  -2  -2  208.32   18.52
  10  -2  -2  217.63   19.49
  -9   2   2    3.30    1.16
  -9   2   2    1.75    1.36
   9   2  -2    1.36    1.26
   9   2  -2    2.52    1.26
  -9  -2   2    3.49    1.36
  -9  -2   2    1.65    1.07
   9  -2  -2    4.75    1.45
  -8   2   2    8.15    1.36
  -8   2   2   12.61    1.55
   8   2  -2   13.97    1.84
   8   2  -2    9.89    1.36
  -8  -2   2   10.77    1.45
  -8  -2   2   10.18    1.75
   8  -2  -2   10.38    1.65
   8  -2  -2   13.00    1.65
  -7   2   2  354.28   31.23
  -7   2   2  447.48   39.47
   7   2  -2  428.18   37.82
   7   2  -2  363.69   32.10
  -7  -2   2  404.91   35.69
  -7  -2   2  389.68   34.43
   7  -2  -2  380.27   33.56
   7  -2  -2  426.24   37.73
  -6   2   2   58.87    5.43
  -6   2   2   57.51    5.33
   6   2  -2   50.33    4.66
  -6  -2   2   65.08    6.01
  -6  -2   2   57.03    5.24
   6  -2  -2   63.33    5.82
   6  -2  -2   59.64    5.63
  -5   2   2   18.14    1.84
   5   2  -2   17.26    1.84
  -5  -2   2   19.78    2.04
   5  -2  -2   20.17    2.23
  -4   2   2   84.96    7.66
  -4   2   2   86.12    7.76
   4   2  -2   93.40    8.34
   4   2  -2   88.35    7.95
  -4  -2   2   90.00    8.05
  -4  -2   2   82.15    7.37
   4  -2  -2   92.52    8.34
   4  -2  -2   97.08    8.83
  -3   2   2  427.12   37.63
  -3   2   2  424.30   37.44
   3   2  -2  360.78   31.71
   3   2  -2  455.24   40.05
  -3  -2   2  424.98   37.44
  -3  -2   2  373.87   32.88
   3  -2  -2  428.67   37.73
   3  -2  -2  443.89   39.18
  -2   2   2  454.17   40.05
  -2   2   2  418.19   36.85
   2   2  -2  464.36   40.83
   2   2  -2  393.56   34.62
  -2  -2   2  469.69   41.31
  -2  -2   2  393.75   34.62
   2  -2  -2  451.94   39.86
   2  -2  -2  437.88   38.60
  -1   2   2    5.24    0.78
  -1   2   2    2.23    0.78
   1   2  -2    3.59    0.39
  -1  -2   2    4.85    0.48
   1  -2  -2    4.66    0.78
   1  -2  -2    5.53    0.87
   0   2   2   34.72    3.30
   0   2   2   31.42    2.91
   0  -2  -2   35.50    3.30
   0  -2  -2   34.24    3.20
   1   2   2   45.10    4.17
   1   2   2   32.78    3.10
  -1   2  -2   36.85    3.30
  -1   2  -2   30.45    2.72
   1  -2   2   34.91    3.10
   1  -2   2   35.21    3.10
  -1  -2  -2   33.65    3.20
  -1  -2  -2   35.11    3.20
   2   2   2 1507.12  132.38
   2   2   2 1134.71   99.80
  -2   2  -2 1354.86  119.00
  -2   2  -2 1119.19   98.24
   2  -2   2 1346.13  118.13
   2  -2   2 1194.84  104.94
  -2  -2  -2 1288.91  113.28
  -2  -2  -2 1216.17  106.88
   3   2   2  892.35   78.56
   3   2   2  943.94   83.02
  -3   2  -2  951.60   83.60
  -3   2  -2  869.17   76.42
   3  -2   2  897.87   78.94
   3  -2   2  963.34   84.67
  -3  -2  -2  898.65   79.04
  -3  -2  -2 1126.95   99.12
   4   2   2   34.43    3.39
   4   2   2   34.72    3.30
  -4   2  -2   32.39    3.10
  -4   2  -2   35.01    3.30
   4  -2   2   38.99    3.59
   4  -2   2   37.73    3.49
  -4  -2  -2   41.80    3.98
  -4  -2  -2   35.69    3.39
   5   2   2   11.54    1.65
   5   2   2   11.83    1.55
  -5   2  -2   11.93    1.45
  -5   2  -2   13.09    1.55
   5  -2   2   15.71    1.75
   5  -2   2   14.84    1.75
  -5  -2  -2   15.23    1.84
  -5  -2  -2   13.48    1.75
   6   2   2   86.02    7.86
   6   2   2   92.33    8.34
  -6   2  -2   85.15    7.76
  -6   2  -2   89.03    8.05
   6  -2   2   96.50    8.73
   6  -2   2  113.18   10.18
  -6  -2  -2   94.46    8.53
  -6  -2  -2  115.02   10.38
   7   2   2   54.80    5.24
   7   2   2   49.95    4.75
  -7   2  -2   54.60    5.04
  -7   2  -2   50.53    4.75
   7  -2   2   62.46    5.82
   7  -2   2   54.21    5.14
  -7  -2  -2   62.65    5.92
  -7  -2  -2   59.84    5.63
   8   2   2   45.68    4.36
  -8   2  -2   44.90    4.36
  -8   2  -2   49.17    4.66
   8  -2   2   52.18    5.04
   8  -2   2   47.23    4.46
  -8  -2  -2   50.04    4.75
   9   2   2    6.40    1.36
   9   2   2    3.59    1.07
   9  -2   2    5.33    1.45
  -9  -2  -2    6.40    1.36
  -9  -2  -2    3.59    0.97
  10   2   2    0.97    1.16
 -10   2  -2   -1.45    1.16
 -10   2  -2   -0.10    1.07
  10  -2   2    2.33    1.26
  10  -2   2   -0.78    0.87
 -10  -2  -2   -0.10    1.36
  11   2   2   -2.62    1.07
  11   2   2   -0.29    0.68
 -11   2  -2    0.87    1.26
 -11   2  -2    1.26    1.26
  11  -2   2    0.97    1.36
 -11  -2  -2    0.58    1.16
 -11  -2  -2   -1.36    1.07
 -12   3   2   -1.75    1.45
 -12   3   2    1.84    1.16
  12   3  -2    1.07    0.78
  12   3  -2    1.36    1.45
 -12  -3   2   -0.39    1.16
 -12  -3   2    1.45    1.36
  12  -3  -2    0.97    1.55
  12  -3  -2    4.17    1.16
 -11   3   2   21.82    2.52
 -11   3   2   23.57    2.52
  11   3  -2   30.16    3.01
 -11  -3   2   29.39    3.10
  11  -3  -2   32.59    3.30
  11  -3  -2   29.00    3.20
 -10   3   2  122.68   11.06
 -10   3   2  147.22   13.19
  10   3  -2  135.00   12.12
  10   3  -2  133.45   12.03
 -10  -3   2  178.84   16.10
 -10  -3   2  133.64   12.03
  10  -3  -2  151.59   13.77
  10  -3  -2  133.64   11.93
  -9   3   2   54.41    5.04
  -9   3   2   70.99    6.59
   9   3  -2   53.92    5.14
  -9  -3   2   59.45    5.53
   9  -3  -2   59.94    5.53
   9  -3  -2   69.83    6.69
  -8   3   2   51.50    4.95
   8   3  -2   44.32    4.17
   8   3  -2   45.49    4.27
  -8  -3   2   44.90    4.27
  -8  -3   2   54.99    5.33
   8  -3  -2   44.42    4.17
  -7   3   2  298.90   26.48
  -7   3   2  352.05   31.13
   7   3  -2  341.67   30.16
   7   3  -2  322.08   28.51
  -7  -3   2  382.12   33.85
  -7  -3   2  334.40   29.58
   7  -3  -2  311.12   27.45
   7  -3  -2  393.46   34.91
  -6   3   2  225.97   20.08
  -6   3   2  207.74   18.43
   6   3  -2  209.00   18.52
   6   3  -2  220.64   19.59
  -6  -3   2  230.53   20.46
  -6  -3   2  272.62   24.15
   6  -3  -2  254.78   22.69
   6  -3  -2  237.12   21.05
  -5   3   2  109.20    9.89
  -5   3   2  105.13    9.41
   5   3  -2   87.19    7.86
   5   3  -2   92.13    8.24
  -5  -3   2  106.68    9.60
  -5  -3   2  106.20    9.50
   5  -3  -2  123.75   11.06
   5  -3  -2  112.31   10.28
  -4   3   2   37.05    3.49
   4   3  -2   32.78    3.10
   4   3  -2   36.27    3.39
  -4  -3   2   37.05    3.49
  -4  -3   2   44.03    4.07
   4  -3  -2   44.13    4.27
  -3   3   2   41.12    3.78
  -3   3   2   50.24    4.75
   3   3  -2   37.73    3.49
   3   3  -2   44.71    4.07
  -3  -3   2   40.44    3.69
  -3  -3   2   52.47    4.75
   3  -3  -2   47.42    4.46
   3  -3  -2   44.61    4.17
  -2   3   2    3.39    0.68
  -2   3   2    6.98    1.16
   2   3  -2    4.66    0.68
   2   3  -2    3.01    0.58
  -2  -3   2    4.17    0.58
  -2  -3   2    4.07    0.68
   2  -3  -2    4.66    0.78
  -1   3   2  760.06   66.92
   1   3  -2  659.00   57.90
   1   3  -2  839.00   73.71
  -1  -3   2  801.28   70.41
  -1  -3   2  758.31   66.63
   1  -3  -2  749.20   65.95
   0   3   2   30.26    3.01
   0   3  -2   27.16    2.42
   0   3  -2   34.62    3.10
   0  -3   2   33.85    3.01
   0  -3   2   30.65    2.72
   0  -3  -2   30.26    2.91
   1   3   2    7.27    1.07
   1   3   2    8.92    1.36
  -1   3  -2    6.79    0.78
  -1   3  -2    7.27    0.78
   1  -3   2    7.56    0.87
   1  -3   2    7.47    0.78
  -1  -3  -2    8.34    1.16
  -1  -3  -2    8.05    1.07
   2   3   2    5.43    1.16
   2   3   2    3.39    0.87
  -2   3  -2    3.20    0.58
  -2   3  -2    4.75    0.58
   2  -3   2    5.04    0.78
   2  -3   2    4.46    0.68
  -2  -3  -2    4.95    0.78
  -2  -3  -2    5.04    1.07
   3   3   2  125.40   11.25
   3   3   2  139.46   12.51
  -3   3  -2  142.47   12.61
  -3   3  -2  103.00    9.21
   3  -3   2  141.79   12.61
   3  -3   2  132.29   11.74
  -3  -3  -2  126.76   11.35
  -3  -3  -2  125.01   11.15
   4   3   2   48.20    4.56
   4   3   2   54.70    5.14
  -4   3  -2   56.54    5.14
   4  -3   2   53.83    5.04
   4  -3   2   54.89    5.04
  -4  -3  -2   60.13    5.63
  -4  -3  -2   47.81    4.46
   5   3   2    3.59    0.97
   5   3   2    4.36    1.07
  -5   3  -2    2.52    0.78
  -5   3  -2    2.33    0.97
  -5  -3  -2    5.14    1.36
  -5  -3  -2    2.13    1.26
   6   3   2   59.06    5.53
   6   3   2   48.78    4.56
  -6   3  -2   49.17    4.66
  -6   3  -2   56.15    5.24
   6  -3   2   60.23    5.63
   6  -3   2   63.91    5.92
  -6  -3  -2   57.51    5.33
  -6  -3  -2   67.40    6.30
   7   3   2   24.54    2.72
   7   3   2   21.24    2.42
  -7   3  -2   18.43    2.13
  -7   3  -2   25.41    2.62
   7  -3   2   23.37    2.52
   7  -3   2   20.75    2.33
  -7  -3  -2   23.57    2.62
  -7  -3  -2   27.54    3.01
   8   3   2   -0.10    0.87
   8   3   2   -0.58    0.97
  -8   3  -2    0.58    1.07
   8  -3   2   -0.48    0.97
  -8  -3  -2    0.29    0.97
  -8  -3  -2   -1.55    1.45
   9   3   2    0.29    1.16
   9   3   2   -1.26    1.36
  -9   3  -2    1.26    1.36
  -9   3  -2    1.94    1.07
   9  -3   2    2.81    1.26
   9  -3   2    0.39    1.16
  -9  -3  -2    1.26    1.45
  -9  -3  -2    1.65    1.26
  10   3   2   -1.07    1.45
 -10   3  -2    0.19    1.07
 -10   3  -2    0.00    1.07
  10  -3   2   -1.26    1.26
  10  -3   2    3.01    1.36
 -10  -3  -2   -1.16    1.36
  11   3   2   -1.16    1.55
 -11   3  -2    2.81    1.26
  11  -3   2    4.75    1.26
  11  -3   2    0.68    1.36
 -11  -3  -2    4.75    1.36
 -11  -3  -2    2.23    1.45
 -11   4   2   12.61    1.55
 -11   4   2   13.67    1.84
  11   4  -2   12.70    1.84
 -11  -4   2    8.92    1.84
  11  -4  -2   11.93    2.13
 -10   4   2    8.63    1.36
  10   4  -2   10.38    1.45
  10   4  -2    7.86    1.65
 -10  -4   2    7.66    1.65
 -10  -4   2   12.90    1.84
  10  -4  -2   11.25    1.65
  -9   4   2    0.00    0.78
   9   4  -2   -0.68    1.16
   9   4  -2    0.39    0.97
  -9  -4   2    0.39    1.26
  -9  -4   2   -0.10    1.07
   9  -4  -2    1.55    1.07
   9  -4  -2    2.91    1.36
  -8   4   2    3.69    0.97
   8   4  -2    3.69    1.26
  -8  -4   2    7.27    1.55
   8  -4  -2    5.04    1.55
  -7   4   2   26.09    2.72
   7   4  -2   30.94    3.20
   7   4  -2   26.48    2.72
  -7  -4   2   32.78    3.30
  -7  -4   2   36.95    3.69
   7  -4  -2   30.36    3.01
  -6   4   2   44.81    4.17
  -6   4   2   44.90    4.27
   6   4  -2   39.76    3.88
   6   4  -2   49.17    4.66
  -6  -4   2   60.52    5.72
  -6  -4   2   50.04    4.66
   6  -4  -2   52.18    5.14
   6  -4  -2   46.84    4.36
  -5   4   2   94.17    8.53
  -5   4   2   88.25    7.95
   5   4  -2   80.30    7.27
   5   4  -2  101.15    9.21
  -5  -4   2   96.60    8.73
   5  -4  -2   96.50    8.92
   5  -4  -2  107.94    9.70
  -4   4   2   -0.97    0.87
  -4   4   2    0.10    0.68
   4   4  -2   -0.97    0.78
   4  -4  -2   -0.58    0.78
   4  -4  -2   -0.68    1.07
  -3   4   2    1.55    1.07
  -3   4   2    1.75    0.68
   3   4  -2    0.58    0.78
   3   4  -2    0.87    0.68
  -3  -4   2    0.00    0.58
  -3  -4   2    1.07    0.78
   3  -4  -2    1.55    0.97
   3  -4  -2    1.16    0.87
  -2   4   2   20.17    2.23
  -2   4   2   18.04    1.94
   2   4  -2   19.88    2.04
   2   4  -2   16.88    1.75
  -2  -4   2   18.72    1.84
  -2  -4   2   19.20    1.84
   2  -4  -2   17.94    2.04
   2  -4  -2   18.52    1.94
  -1   4   2   88.16    7.95
   1   4  -2   94.36    8.34
   1   4  -2  103.00    9.21
  -1  -4   2  109.01    9.70
  -1  -4   2   93.98    8.34
   1  -4  -2  100.77    9.12
   1  -4  -2  116.67   10.47
   0   4   2   45.00    4.17
   0   4  -2   56.83    5.14
   0   4  -2   46.94    4.27
   0  -4   2   53.34    4.75
   0  -4   2   47.81    4.27
   0  -4  -2   50.04    4.75
   0  -4  -2   49.27    4.56
   1   4   2  550.58   48.59
   1   4   2  424.40   37.53
  -1   4  -2  418.68   36.85
  -1   4  -2  454.95   40.05
   1  -4   2  450.10   39.57
   1  -4   2  497.23   43.74
  -1  -4  -2  460.09   40.64
  -1  -4  -2  452.43   39.86
   2   4   2  173.12   15.52
   2   4   2  208.03   18.52
  -2   4  -2  166.91   14.74
  -2   4  -2  195.62   17.26
   2  -4   2  176.61   15.61
   2  -4   2  211.04   18.72
  -2  -4  -2  189.70   16.88
  -2  -4  -2  205.51   18.33
   3   4   2  167.20   14.94
   3   4   2  188.05   16.78
  -3   4  -2  159.05   14.16
  -3   4  -2  188.83   16.68
   3  -4   2  208.90   18.62
   3  -4   2  187.28   16.58
  -3  -4  -2  185.92   16.58
  -3  -4  -2  196.10   17.46
   4   4   2  489.09   43.16
   4   4   2  439.92   38.89
  -4   4  -2  395.60   34.91
   4  -4   2  469.98   41.41
  -4  -4  -2  481.43   42.48
  -4  -4  -2  522.35   46.07
   5   4   2    3.59    1.16
   5   4   2    3.49    0.97
  -5   4  -2    4.66    0.97
   5  -4   2    5.43    1.16
  -5  -4  -2    3.49    1.16
  -5  -4  -2    6.69    1.36
   6   4   2   86.90    8.05
   6   4   2   82.82    7.56
  -6   4  -2   82.44    7.47
  -6   4  -2  102.22    9.21
   6  -4   2  105.71    9.50
   6  -4   2  102.12    9.41
  -6  -4  -2   99.12    9.02
  -6  -4  -2   89.32    8.15
   7   4   2    3.10    1.16
   7   4   2    4.66    1.36
  -7   4  -2    3.39    1.07
  -7   4  -2    4.17    1.26
   7  -4   2    2.81    1.07
   7  -4   2    1.65    1.16
  -7  -4  -2    2.04    1.16
  -7  -4  -2    2.13    1.26
   8   4   2    6.01    1.36
   8   4   2    6.30    1.26
  -8   4  -2    7.18    1.45
  -8   4  -2    3.78    1.16
   8  -4   2    9.31    1.55
   8  -4   2    3.39    1.55
  -8  -4  -2    7.86    1.55
  -8  -4  -2    7.56    1.26
   9   4   2   -2.04    1.36
   9   4   2    1.55    0.97
  -9   4  -2   -0.48    1.07
  -9   4  -2    0.48    1.26
   9  -4   2    1.07    1.16
   9  -4   2    2.52    1.45
  -9  -4  -2    2.23    1.36
  -9  -4  -2    2.91    1.16
  10   4   2    3.69    1.65
 -10   4  -2    4.56    1.36
  10  -4   2   15.23    1.94
 -10  -4  -2   12.90    1.94
 -10   5   2    9.80    1.55
 -10   5   2    8.34    1.45
  10   5  -2    9.60    1.45
 -10  -5   2    9.89    1.75
  10  -5  -2   15.03    1.84
  -9   5   2   38.11    3.69
  -9   5   2   31.81    3.20
   9   5  -2   31.91    3.30
   9   5  -2   29.58    3.10
  -9  -5   2   29.58    3.20
  -9  -5   2   44.22    4.36
   9  -5  -2   39.28    3.78
   9  -5  -2   39.18    4.17
  -8   5   2   33.36    3.30
  -8   5   2   25.80    2.72
   8   5  -2   28.90    3.10
  -8  -5   2   27.83    2.91
   8  -5  -2   26.86    2.72
   8  -5  -2   33.17    3.59
  -7   5   2   63.23    5.82
   7   5  -2   55.28    5.33
   7   5  -2   50.24    4.85
  -7  -5   2   55.38    5.24
  -7  -5   2   78.94    7.37
   7  -5  -2   60.42    5.63
   7  -5  -2   67.21    6.50
  -6   5   2    0.19    1.07
   6   5  -2    1.36    1.07
   6   5  -2   -0.29    0.97
  -6  -5   2    1.45    1.07
  -6  -5   2    1.16    1.07
   6  -5  -2    1.75    1.07
  -5   5   2   43.35    4.27
  -5   5   2   37.14    3.59
   5   5  -2   33.27    3.30
   5   5  -2   36.47    3.59
  -5  -5   2   41.31    3.98
  -5  -5   2   43.93    4.17
   5  -5  -2   44.61    4.27
   4   5  -2   77.59    7.08
   4   5  -2   66.05    6.01
  -4  -5   2   78.27    7.08
  -4  -5   2   87.96    7.95
   4  -5  -2   89.81    8.34
   4  -5  -2   91.75    8.34
  -3   5   2   37.05    3.49
  -3   5   2   43.55    4.27
   3   5  -2   39.86    3.78
   3   5  -2   32.10    3.10
  -3  -5   2   41.22    3.88
  -3  -5   2   40.15    3.78
   3  -5  -2   43.64    4.07
   3  -5  -2   39.57    3.88
  -2   5   2   15.61    1.94
  -2   5   2   13.19    1.45
   2   5  -2   15.91    1.75
   2   5  -2   12.70    1.45
  -2  -5   2   14.35    1.55
  -2  -5   2   14.45    1.55
   2  -5  -2   14.55    1.65
   2  -5  -2   13.77    1.75
  -1   5   2    0.19    0.58
  -1   5   2    0.78    0.78
   1   5  -2   -0.39    0.68
   1   5  -2   -0.68    0.68
  -1  -5   2    1.84    0.68
  -1  -5   2    0.58    0.48
   1  -5  -2    0.10    0.78
   1  -5  -2   -0.10    0.68
   0   5   2    2.33    0.87
   0   5   2    2.04    0.68
   0   5  -2    1.55    0.58
   0   5  -2    0.97    0.58
   0  -5   2    1.26    0.48
   0  -5   2    0.68    0.48
   0  -5  -2    1.84    0.78
   0  -5  -2    0.87    0.87
   1   5   2  228.69   20.46
   1   5   2  252.06   22.40
  -1   5  -2  293.38   25.89
  -1   5  -2  209.29   18.52
   1  -5   2  231.60   20.46
   1  -5   2  235.67   20.75
  -1  -5  -2  227.33   20.17
  -1  -5  -2  239.74   21.34
   2   5   2  315.10   27.93
   2   5   2  270.29   24.05
  -2   5  -2  276.50   24.34
  -2   5  -2  289.30   25.51
   2  -5   2  314.52   27.74
   2  -5   2  270.87   23.86
  -2  -5  -2  299.49   26.48
  -2  -5  -2  311.90   27.64
   3   5   2   58.68    5.53
   3   5   2   51.50    4.95
  -3   5  -2   55.96    5.04
  -3   5  -2   51.89    4.75
   3  -5   2   58.00    5.33
   3  -5   2   53.73    4.85
  -3  -5  -2   51.50    4.85
  -3  -5  -2   58.09    5.43
   4   5   2   82.44    7.66
   4   5   2   70.60    6.59
  -4   5  -2   68.47    6.21
  -4   5  -2   67.40    6.21
   4  -5   2   84.08    7.76
   4  -5   2   72.16    6.50
  -4  -5  -2   86.99    7.95
  -4  -5  -2   75.55    6.89
   5   5   2    1.07    1.07
   5   5   2    0.19    1.07
  -5   5  -2    0.97    0.87
  -5   5  -2    1.36    0.97
   5  -5   2    1.75    1.16
   5  -5   2    1.16    0.87
  -5  -5  -2    2.81    1.36
  -5  -5  -2    2.62    1.16
   6   5   2    5.43    1.36
  -6   5  -2    7.47    1.36
  -6   5  -2    7.56    1.26
   6  -5   2   10.77    1.84
   6  -5   2    9.02    1.36
  -6  -5  -2    7.76    1.55
  -6  -5  -2   10.86    1.65
   7   5   2    1.26    0.97
  -7   5  -2    0.78    0.97
  -7   5  -2    2.62    0.97
   7  -5   2    0.78    1.16
   7  -5   2    1.65    1.16
  -7  -5  -2   -1.16    1.07
   8   5   2   27.93    2.91
   8   5   2   23.47    2.72
  -8   5  -2   31.62    3.20
  -8   5  -2   24.25    2.72
   9   5   2    6.30    1.26
   9   5   2    9.31    1.45
  -9   5  -2    7.08    1.45
  -9   5  -2    8.73    1.45
   9  -5   2   11.06    1.94
  -9  -5  -2    4.27    1.45
  -9  -5  -2    7.47    1.55
  -9   6   2    4.56    1.26
  -9   6   2    0.48    1.07
   9   6  -2    0.19    1.16
  -9  -6   2    3.88    1.45
  -9  -6   2    4.27    1.55
   9  -6  -2    4.95    1.26
   9  -6  -2    0.78    1.45
  -8   6   2    9.02    1.36
   8   6  -2    5.53    1.45
   8   6  -2    5.72    1.36
  -8  -6   2    5.92    1.36
  -8  -6   2    6.89    1.55
   8  -6  -2    4.56    1.55
   8  -6  -2    9.31    1.36
  -7   6   2    3.69    0.97
  -7   6   2    3.78    0.97
   7   6  -2    2.23    1.16
   7   6  -2    1.55    1.36
  -7  -6   2    2.81    1.26
   7  -6  -2    1.94    1.26
   7  -6  -2    4.95    1.07
  -6   6   2    1.75    0.78
  -6   6   2    4.56    1.16
   6   6  -2    1.36    1.07
   6   6  -2    1.75    0.97
  -6  -6   2    2.04    1.16
  -6  -6   2    0.97    0.97
   6  -6  -2    3.88    1.07
   6  -6  -2    2.04    1.07
  -5   6   2  170.50   15.23
  -5   6   2  174.67   15.71
   5   6  -2  151.97   13.58
   5   6  -2  169.62   15.23
  -5  -6   2  178.45   15.91
  -5  -6   2  183.30   16.29
   5  -6  -2  182.43   16.49
  -4   6   2   50.24    4.85
   4   6  -2   46.36    4.46
  -4  -6   2   56.44    5.24
  -4  -6   2   51.01    4.75
   4  -6  -2   59.84    5.53
  -3   6   2   92.62    8.53
  -3   6   2   86.99    7.86
   3   6  -2  110.76   10.09
   3   6  -2   84.76    7.66
  -3  -6   2  104.16    9.41
  -3  -6   2   99.51    8.92
   3  -6  -2   99.70    9.12
   3  -6  -2   96.11    8.73
  -2   6   2    1.55    0.78
  -2   6   2    1.45    0.97
   2   6  -2    0.48    0.87
   2   6  -2    1.36    0.87
  -2  -6   2    1.84    0.87
  -2  -6   2    1.65    0.68
   2  -6  -2    2.04    0.97
   2  -6  -2    1.07    0.87
  -1   6   2    1.36    0.97
  -1   6   2    0.10    0.68
   1   6  -2   -1.07    0.78
   1   6  -2    0.29    0.78
  -1  -6   2    0.39    0.68
  -1  -6   2    0.29    0.78
   1  -6  -2    0.39    0.87
   1  -6  -2    1.55    0.78
   0   6   2   83.21    7.66
   0   6   2   64.98    6.11
   0   6  -2   69.15    6.30
   0   6  -2   69.25    6.30
   0  -6   2   76.71    6.89
   0  -6   2   69.73    6.30
   0  -6  -2   68.66    6.30
   0  -6  -2   59.35    5.53
   1   6   2    0.29    0.97
   1   6   2    1.26    0.87
  -1   6  -2   -0.29    0.78
  -1   6  -2    1.65    0.78
   1  -6   2    2.52    0.78
   1  -6   2    1.07    0.68
  -1  -6  -2    3.10    1.07
  -1  -6  -2    0.00    0.78
   2   6   2    1.84    1.07
  -2   6  -2    0.97    0.87
   2  -6   2    0.68    0.78
   2  -6   2   -0.10    0.68
  -2  -6  -2    1.16    0.87
   3   6   2   17.94    2.33
   3   6   2   11.93    1.84
  -3   6  -2   10.86    1.36
   3  -6   2   14.64    1.65
  -3  -6  -2   13.09    1.75
  -3  -6  -2   10.57    1.45
   4   6   2    4.36    1.45
   4   6   2    3.39    1.16
  -4   6  -2    5.24    0.87
  -4   6  -2    4.17    1.07
   4  -6   2    5.63    1.07
  -4  -6  -2    6.59    1.45
  -4  -6  -2    5.82    1.26
   5   6   2   34.91    3.49
   5   6   2   32.49    3.30
  -5   6  -2   28.22    2.91
  -5   6  -2   32.59    3.20
   5  -6   2   40.93    4.07
   5  -6   2   37.44    3.59
  -5  -6  -2   33.17    3.30
  -5  -6  -2   38.41    3.88
   6   6   2   -0.48    1.07
   6   6   2   -0.19    0.78
  -6   6  -2   -0.58    0.87
  -6   6  -2    1.94    1.07
   6  -6   2    1.45    1.07
   6  -6   2   -0.48    1.07
  -6  -6  -2   -0.48    1.07
  -6  -6  -2    0.78    1.26
   7   6   2    2.13    0.97
   7   6   2   -0.48    1.45
  -7   6  -2    1.75    1.07
   7  -6   2    1.55    1.07
  -7  -6  -2    3.69    1.55
   8   6   2    4.75    1.16
  -8   6  -2    1.55    1.36
   8  -6   2    4.46    1.36
  -8  -6  -2    5.24    1.45
  -6   7   2    1.55    0.87
  -6   7   2    2.42    0.97
   6   7  -2    0.78    0.97
  -6  -7   2    1.45    0.97
   6  -7  -2    1.45    0.97
   6  -7  -2    0.97    1.07
  -5   7   2   26.57    2.72
  -5   7   2   31.81    3.20
   5   7  -2   29.68    3.30
  -5  -7   2   35.50    3.59
  -5  -7   2   29.48    3.01
   5  -7  -2   32.88    3.20
   5  -7  -2   33.36    3.49
  -4   7   2    0.29    0.78
  -4   7   2    2.52    1.07
   4   7  -2   -0.87    1.07
   4   7  -2    2.23    1.16
  -4  -7   2    3.20    1.36
  -4  -7   2    0.00    0.87
   4  -7  -2    1.94    1.16
   4  -7  -2    2.52    0.87
  -3   7   2   18.33    2.13
  -3   7   2   15.91    2.04
   3   7  -2   13.77    1.75
   3   7  -2   13.67    1.94
  -3  -7   2   19.01    2.23
   3  -7  -2   23.08    2.52
   3  -7  -2   21.72    2.33
  -2   7   2    2.13    0.97
   2   7  -2   -0.68    0.97
  -2  -7   2    2.04    0.78
   2  -7  -2    0.68    0.97
   2  -7  -2    3.10    0.97
  -1   7   2   16.39    1.94
   1   7  -2   13.87    1.55
   1   7  -2   11.83    1.45
  -1  -7   2   14.64    1.65
  -1  -7   2   12.80    1.55
   1  -7  -2   17.55    2.13
   0   7   2    9.60    1.55
   0   7  -2    7.56    1.07
   0   7  -2    6.40    1.07
   0  -7   2   11.35    1.36
   0  -7   2    8.63    1.26
   0  -7  -2    8.63    1.26
   0  -7  -2   11.06    1.65
   1   7   2   20.95    2.42
  -1   7  -2   18.33    1.84
  -1   7  -2   17.46    1.84
   1  -7   2   22.21    2.13
   1  -7   2   19.11    1.94
  -1  -7  -2   21.05    2.42
  -1  -7  -2   20.95    2.33
   2   7   2    7.95    1.36
   2   7   2   12.61    1.84
  -2   7  -2   12.70    1.45
   2  -7   2   13.38    1.55
   2  -7   2   18.62    2.04
  -2  -7  -2   13.29    1.75
  -2  -7  -2   11.83    1.55
   3   7   2    2.13    1.26
   3   7   2    1.94    1.07
  -3   7  -2    1.26    0.87
   3  -7   2    1.26    0.87
  -3  -7  -2    2.04    0.97
  -3  -7  -2    1.45    1.26
   4   7   2   12.51    1.75
   4   7   2   12.12    1.65
  -4   7  -2   13.58    1.65
  -4   7  -2    8.83    1.36
   4  -7   2   18.52    2.13
   4  -7   2   13.09    1.55
  -4  -7  -2   16.78    2.23
   5   7   2    3.01    1.45
   5   7   2    3.30    1.07
  -5   7  -2    2.42    0.97
  -5   7  -2    0.97    1.16
   5  -7   2    4.17    1.16
   5  -7   2    4.17    1.07
  -5  -7  -2    1.55    1.07
  -2   8   2   -1.45    1.07
  -2   8   2   -0.58    1.07
   2  -8  -2    0.29    0.87
   2  -8  -2   -1.45    1.16
  -1   8   2    0.10    1.16
  -1   8   2    0.68    1.16
   1  -8  -2    2.81    1.07
   1  -8  -2    2.42    0.97
   0   8   2    0.97    1.07
   0   8   2    3.49    1.26
   0  -8  -2    3.69    0.97
   0  -8  -2    2.81    1.16
   1   8   2    1.36    0.97
   1   8   2    3.69    1.26
  -1  -8  -2    4.27    1.07
  -1  -8  -2    4.07    1.26
 -13   0   3   -1.75    0.97
 -13   0   3    0.19    1.45
  13   0  -3   -0.58    1.65
  13   0  -3    1.45    0.97
 -12   0   3    1.07    1.36
  12   0  -3    1.94    1.45
 -11   0   3   -0.58    1.16
 -11   0   3   -1.36    1.26
  11   0  -3   -0.58    1.16
  11   0  -3    0.00    1.16
 -10   0   3   -0.87    1.16
 -10   0   3    0.29    1.26
  10   0  -3    0.58    1.16
  10   0  -3    0.68    1.16
  -9   0   3   -1.84    1.16
   9   0  -3   -0.68    1.07
  -8   0   3    1.45    1.16
  -8   0   3    0.68    1.16
   8   0  -3   -0.87    1.07
   8   0  -3    1.36    1.16
  -7   0   3   -0.97    0.87
  -7   0   3    0.87    0.87
   7   0  -3    0.68    0.97
   7   0  -3    0.48    0.97
  -6   0   3   -0.78    1.07
  -6   0   3    0.00    0.78
   6   0  -3   -0.19    0.87
   6   0  -3    0.00    0.78
  -5   0   3   -0.29    0.78
  -5   0   3   -0.87    0.78
   5   0  -3    0.19    0.78
   5   0  -3   -0.39    0.78
  -4   0   3    0.29    0.68
  -4   0   3    0.68    0.68
   4   0  -3   -1.07    0.68
   4   0  -3    0.39    0.68
  -3   0   3   -1.07    0.68
  -3   0   3    0.68    0.48
   3   0  -3   -0.58    0.58
   3   0  -3    0.19    0.68
  -2   0   3    0.10    0.58
  -2   0   3    0.68    0.48
   2   0  -3    0.29    0.58
   2   0  -3    0.48    0.68
  -1   0   3   -0.87    0.58
  -1   0   3   -0.10    0.39
   1   0  -3   -0.29    0.39
   1   0  -3   -0.19    0.48
   0   0   3   -0.29    0.48
   0   0   3   -0.58    0.48
   0   0  -3    0.48    0.39
   0   0  -3    0.39    0.58
   1   0   3   -0.19    0.58
   1   0   3    0.97    0.78
  -1   0  -3    0.00    0.48
  -1   0  -3   -0.19    0.68
   2   0   3    0.48    0.87
   2   0   3   -1.26    0.68
  -2   0  -3    0.19    0.68
  -2   0  -3   -0.58    0.87
   3   0   3   -0.19    0.78
   3   0   3   -0.19    0.87
  -3   0  -3   -0.29    0.58
  -3   0  -3    0.39    0.87
   4   0   3    0.39    0.78
   4   0   3    0.19    0.97
  -4   0  -3   -0.29    0.78
  -4   0  -3    0.29    0.97
   5   0   3   -0.97    0.68
   5   0   3   -1.84    1.07
  -5   0  -3   -0.58    0.78
  -5   0  -3   -1.16    0.68
   6   0   3   -0.10    0.87
   6   0   3   -0.19    1.26
  -6   0  -3    0.29    1.07
  -6   0  -3   -1.07    1.16
   7   0   3    0.78    0.78
   7   0   3    0.48    1.07
  -7   0  -3   -0.87    0.87
  -7   0  -3    0.78    1.07
   8   0   3    0.58    1.16
   8   0   3    0.10    0.78
  -8   0  -3    0.00    0.87
  -8   0  -3    0.87    1.26
   9   0   3   -1.16    1.16
   9   0   3    0.68    1.16
  -9   0  -3    4.07    1.45
  -9   0  -3   -1.36    0.97
  10   0   3    1.94    0.87
  10   0   3   -0.29    1.26
 -10   0  -3    0.00    0.87
 -10   0  -3    0.58    1.16
  11   0   3    0.78    1.07
  11   0   3    0.00    1.26
 -11   0  -3   -0.87    1.45
 -11   0  -3   -0.29    1.26
 -13   1   3    3.59    1.26
  13   1  -3    2.13    1.65
  13   1  -3    2.72    1.16
 -13  -1   3    0.39    1.45
 -13  -1   3    2.04    1.16
  13  -1  -3    1.65    1.07
 -12   1   3   12.32    1.94
 -12   1   3   14.06    1.84
  12   1  -3    8.92    1.84
 -12  -1   3   10.96    1.84
  12  -1  -3    8.73    1.84
 -11   1   3   13.29    1.84
 -11   1   3   16.29    2.04
  11   1  -3   16.29    1.94
  11   1  -3   10.47    1.75
 -11  -1   3   15.91    2.13
 -11  -1   3   14.35    1.94
  11  -1  -3   15.03    2.13
  11  -1  -3   18.43    2.13
 -10   1   3   -0.97    1.16
 -10   1   3   -1.36    1.07
  10   1  -3   -0.87    1.26
  10   1  -3    0.10    0.97
 -10  -1   3   -0.78    1.16
 -10  -1   3    0.97    0.97
  10  -1  -3    1.45    1.26
  10  -1  -3    0.78    1.07
  -9   1   3    0.87    1.16
  -9   1   3   -0.58    1.26
   9   1  -3    2.13    1.16
  -9  -1   3    0.87    1.26
   9  -1  -3    0.39    1.26
   9  -1  -3    0.10    1.16
  -8   1   3   10.57    1.55
  -8   1   3    7.95    1.26
   8   1  -3    8.53    1.26
   8   1  -3    9.02    1.65
  -8  -1   3    6.40    1.16
  -8  -1   3    7.08    1.55
   8  -1  -3    9.12    1.36
   8  -1  -3    7.08    1.26
  -7   1   3   77.97    7.08
  -7   1   3   66.05    6.01
   7   1  -3   78.75    7.27
   7   1  -3   72.93    6.59
  -7  -1   3   87.38    7.95
  -7  -1   3   60.13    5.53
   7  -1  -3   67.89    6.30
   7  -1  -3   66.24    6.01
  -6   1   3   34.33    3.30
  -6   1   3   29.87    2.91
   6   1  -3   32.97    3.20
  -6  -1   3   38.11    3.69
   6  -1  -3   30.94    3.10
   6  -1  -3   34.43    3.30
  -5   1   3   38.11    3.59
   5   1  -3   33.85    3.20
  -5  -1   3   28.51    2.72
   5  -1  -3   37.34    3.59
  -4   1   3  183.30   16.29
   4   1  -3  173.41   15.32
   4   1  -3  186.60   16.58
  -4  -1   3  160.12   14.16
  -4  -1   3  204.64   18.14
   4  -1  -3  193.00   17.07
  -3   1   3  227.14   20.08
  -3   1   3  223.84   19.88
   3   1  -3  222.77   19.69
   3   1  -3  198.72   17.55
  -3  -1   3  189.31   16.68
  -3  -1   3  237.22   20.95
   3  -1  -3  225.87   19.98
   3  -1  -3  226.84   20.17
  -2   1   3 1787.41  156.92
  -2   1   3 1953.25  171.56
   2   1  -3 1943.55  170.59
   2   1  -3 2136.55  187.57
  -2  -1   3 2023.08  177.58
  -2  -1   3 1735.03  152.36
   2  -1  -3 1826.20  160.31
   2  -1  -3 1898.94  166.81
  -1   1   3   20.85    2.13
  -1   1   3   21.92    2.13
   1   1  -3   21.14    1.94
   1   1  -3   20.56    1.94
  -1  -1   3   19.98    1.94
  -1  -1   3   21.14    1.94
   1  -1  -3   20.37    1.94
   1  -1  -3   21.05    2.13
   0   1   3   29.68    2.91
   0   1   3   26.77    2.52
   0   1  -3   30.16    2.72
   0   1  -3   30.74    2.81
   0  -1   3   37.34    3.39
   0  -1   3   27.35    2.52
   0  -1  -3   28.13    2.72
   0  -1  -3   31.52    2.91
   1   1   3  342.74   30.26
   1   1   3  437.88   38.60
  -1   1  -3  380.76   33.46
  -1   1  -3  367.96   32.39
   1  -1   3  377.65   33.27
   1  -1   3  380.18   33.46
  -1  -1  -3  357.38   31.52
  -1  -1  -3  355.44   31.33
   2   1   3  839.10   73.80
   2   1   3  925.42   81.37
  -2   1  -3 1079.43   94.85
  -2   1  -3  849.19   74.58
   2  -1   3  926.58   81.47
   2  -1   3  788.96   69.34
  -2  -1  -3  820.29   72.16
  -2  -1  -3  799.63   70.31
   3   1   3    8.05    1.07
   3   1   3    6.59    1.07
  -3   1  -3    6.59    0.97
  -3   1  -3    8.24    1.16
   3  -1   3    7.47    1.07
   3  -1   3    6.69    0.97
  -3  -1  -3    7.08    1.16
  -3  -1  -3    9.31    1.26
   4   1   3   -0.68    0.78
   4   1   3    1.07    0.97
  -4   1  -3    0.68    0.87
   4  -1   3    0.19    0.78
  -4  -1  -3    1.94    0.97
   5   1   3   51.40    4.85
   5   1   3   49.36    4.66
  -5   1  -3   46.16    4.27
   5  -1   3   52.47    4.95
   5  -1   3   50.14    4.75
  -5  -1  -3   60.61    5.72
  -5  -1  -3   49.66    4.66
   6   1   3  375.04   33.17
   6   1   3  417.13   36.85
  -6   1  -3  453.01   40.05
  -6   1  -3  406.75   35.88
   6  -1   3  393.85   34.72
   6  -1   3  467.46   41.22
  -6  -1  -3  514.21   45.39
  -6  -1  -3  429.83   37.92
   7   1   3    3.98    0.97
   7   1   3    2.13    1.26
  -7   1  -3    3.39    1.07
  -7   1  -3    2.23    1.36
   7  -1   3    2.62    1.16
   7  -1   3    3.78    1.07
  -7  -1  -3    4.36    1.16
  -7  -1  -3    3.20    1.26
   8   1   3    3.49    1.26
  -8   1  -3    6.79    1.45
  -8   1  -3    2.42    0.97
   8  -1   3    5.92    1.36
  -8  -1  -3    6.21    1.36
   9   1   3   12.12    1.55
   9   1   3    7.86    1.36
  -9   1  -3    7.47    1.36
  -9   1  -3   13.38    2.23
   9  -1   3   13.67    1.84
   9  -1   3   10.96    1.65
  -9  -1  -3    9.60    1.45
  -9  -1  -3   12.03    1.65
  10   1   3   34.82    3.49
 -10   1  -3   23.57    2.52
 -10   1  -3   28.71    2.91
  10  -1   3   31.13    3.10
 -10  -1  -3   34.91    3.59
  11   1   3    2.33    1.16
  11   1   3    0.39    1.16
 -11   1  -3    2.52    1.16
 -11   1  -3   -0.29    1.36
  11  -1   3   -0.10    1.45
  11  -1   3    3.10    1.07
 -11  -1  -3    2.13    1.26
 -11  -1  -3    3.69    1.36
 -12   2   3    7.37    1.16
  12   2  -3   11.44    2.04
 -12  -2   3    6.30    1.75
 -12  -2   3    6.69    1.65
  12  -2  -3    8.63    1.36
  12  -2  -3    4.46    1.55
 -11   2   3   18.43    2.13
  11   2  -3   21.34    2.42
 -11  -2   3   23.47    2.62
 -11  -2   3   26.67    2.91
  11  -2  -3   22.69    2.42
 -10   2   3    7.95    1.36
 -10   2   3    9.31    1.65
  10   2  -3   10.77    1.84
  10   2  -3   12.80    1.75
 -10  -2   3    9.99    1.55
 -10  -2   3   13.38    1.75
  10  -2  -3   11.83    1.84
  10  -2  -3   11.06    1.55
  -9   2   3    2.62    1.16
   9   2  -3    1.75    1.07
  -9  -2   3    2.04    0.97
   9  -2  -3    1.26    1.26
  -8   2   3  235.28   20.85
  -8   2   3  185.53   16.49
   8   2  -3  213.85   19.01
   8   2  -3  202.11   17.94
  -8  -2   3  193.09   17.17
  -8  -2   3  229.27   20.37
   8  -2  -3  222.97   19.98
   8  -2  -3  186.50   16.58
  -7   2   3  210.55   18.72
  -7   2   3  169.24   15.03
   7   2  -3  206.67   18.33
   7   2  -3  202.50   18.04
  -7  -2   3  188.73   16.78
  -7  -2   3  227.33   20.17
   7  -2  -3  215.40   19.30
   7  -2  -3  181.26   16.10
  -6   2   3   11.35    1.55
  -6   2   3   13.97    1.65
   6   2  -3   13.38    1.75
  -6  -2   3   14.64    1.75
   6  -2  -3   13.77    1.55
   6  -2  -3   12.61    1.84
  -5   2   3    1.75    0.68
  -5   2   3    0.29    1.07
   5   2  -3    1.65    0.78
  -5  -2   3    1.55    0.78
   5  -2  -3    1.75    0.87
   5  -2  -3    0.29    0.87
  -4   2   3    1.84    0.68
   4   2  -3    3.10    0.78
   4   2  -3    3.49    0.78
  -4  -2   3    2.42    0.78
  -4  -2   3    3.30    0.78
   4  -2  -3    2.91    0.97
  -3   2   3 1000.87   87.96
  -3   2   3 1045.48   91.94
   3   2  -3 1026.09   90.19
   3   2  -3  987.29   86.70
  -3  -2   3  863.15   75.84
  -3  -2   3 1134.71   99.70
   3  -2  -3 1048.39   92.23
   3  -2  -3 1060.03   93.20
  -2   2   3  703.62   61.97
   2   2  -3  644.36   56.64
   2   2  -3  719.52   63.23
  -2  -2   3  627.48   55.09
  -2  -2   3  726.41   63.82
   2  -2  -3  669.87   58.97
  -1   2   3   14.84    1.75
   1  -2  -3   15.42    1.65
   0   2   3   62.94    5.82
   0  -2  -3   68.66    6.21
   1   2   3  350.60   30.94
  -1   2  -3  320.14   28.13
   1  -2   3  375.23   32.97
   1  -2   3  304.14   26.77
  -1  -2  -3  344.97   30.45
   2   2   3   53.24    4.95
   2   2   3   65.56    6.01
  -2   2  -3   63.14    5.63
  -2   2  -3   49.27    4.36
   2  -2   3   48.49    4.36
   2  -2   3   55.28    4.95
  -2  -2  -3   56.25    5.24
  -2  -2  -3   53.92    4.95
   3   2   3  271.94   24.05
   3   2   3  221.51   19.69
  -3   2  -3  210.65   18.62
  -3   2  -3  278.15   24.54
   3  -2   3  218.31   19.30
   3  -2   3  254.87   22.50
  -3  -2  -3  221.80   19.69
  -3  -2  -3  234.02   20.75
   4   2   3   11.25    1.45
   4   2   3   16.00    1.94
  -4   2  -3   12.41    1.55
   4  -2   3   10.28    1.36
   4  -2   3   14.35    1.65
  -4  -2  -3   14.94    1.75
  -4  -2  -3   12.22    1.65
   5   2   3    5.24    1.16
   5   2   3    4.36    1.07
  -5   2  -3    4.56    0.97
   5  -2   3    4.75    1.16
  -5  -2  -3    6.98    1.36
  -5  -2  -3    3.20    1.07
   6   2   3  169.33   15.13
   6   2   3  194.35   17.36
  -6   2  -3  179.03   15.91
   6  -2   3  208.32   18.52
   6  -2   3  184.07   16.39
  -6  -2  -3  235.19   20.95
  -6  -2  -3  192.71   17.17
   7   2   3   40.83    3.88
   7   2   3   48.78    4.66
  -7   2  -3   43.55    4.27
  -7   2  -3   39.96    3.78
   7  -2   3   46.16    4.46
  -7  -2  -3   57.03    5.43
  -7  -2  -3   48.69    4.56
   8   2   3    0.10    1.36
   8   2   3    0.10    0.78
  -8   2  -3    0.68    1.16
   8  -2   3    0.68    1.26
  -8  -2  -3   -0.10    1.07
  -8  -2  -3   -0.97    1.26
   9   2   3    5.33    1.26
   9   2   3    3.30    1.26
  -9   2  -3    4.85    1.16
  -9   2  -3    4.95    1.55
   9  -2   3    4.46    1.45
   9  -2   3    6.21    1.45
  -9  -2  -3    7.76    1.75
  -9  -2  -3    5.04    1.36
 -10   2  -3    6.01    1.26
 -10   2  -3    9.80    1.75
  10  -2   3    8.24    1.75
  10  -2   3    8.53    1.55
  11   2   3   45.78    4.27
 -11   2  -3   38.50    3.98
 -11   2  -3   37.63    3.78
  11  -2   3   46.07    4.46
 -11  -2  -3   48.10    4.56
 -12   3   3   12.80    1.65
  12   3  -3   12.90    2.13
  12   3  -3   13.00    1.65
 -12  -3   3   10.57    1.65
 -12  -3   3    6.79    1.94
  12  -3  -3    8.44    1.84
  12  -3  -3   13.97    1.75
 -11   3   3  126.08   11.44
  11   3  -3  127.24   11.54
  11   3  -3  125.59   11.35
 -11  -3   3  126.08   11.44
 -11  -3   3  135.87   12.32
  11  -3  -3  135.58   12.32
 -10   3   3   63.04    5.92
 -10   3   3   60.13    5.53
  10   3  -3   72.16    6.69
  10   3  -3   67.11    6.30
 -10  -3   3   77.39    7.27
 -10  -3   3   71.67    6.69
  10  -3  -3   68.86    6.30
  10  -3  -3   66.43    6.40
  -9   3   3    8.05    1.26
  -9   3   3   10.67    1.75
   9   3  -3    6.40    1.55
   9   3  -3    9.31    1.55
  -9  -3   3    7.95    1.65
  -9  -3   3    7.18    1.55
   9  -3  -3    9.12    1.75
   9  -3  -3    4.95    1.16
  -8   3   3  158.67   14.16
  -8   3   3  183.30   16.29
   8   3  -3  197.65   17.65
   8   3  -3  176.90   15.81
  -8  -3   3  195.23   17.36
  -8  -3   3  207.84   18.52
   8  -3  -3  197.94   17.84
   8  -3  -3  167.49   14.94
  -7   3   3   15.23    1.84
  -7   3   3   15.71    1.75
   7   3  -3   14.94    1.84
   7   3  -3   18.91    2.13
  -7  -3   3   14.84    1.75
   7  -3  -3   14.84    2.04
   7  -3  -3   16.78    1.94
  -6   3   3  155.08   13.87
  -6   3   3  165.74   14.74
   6   3  -3  139.85   12.51
   6  -3  -3  172.24   15.32
   6  -3  -3  177.67   16.00
  -5   3   3   19.88    2.13
  -5   3   3   22.79    2.42
   5   3  -3   27.35    2.72
  -5  -3   3   25.60    2.62
   5  -3  -3   21.92    2.42
   5  -3  -3   25.60    2.62
  -4   3   3    3.59    1.07
  -4   3   3    2.91    0.68
  -4  -3   3    1.84    0.78
  -4  -3   3    0.97    0.68
   4  -3  -3    2.62    0.97
   4  -3  -3    0.58    0.87
  -3   3   3   55.09    5.24
  -3   3   3   45.29    4.17
  -3  -3   3   41.90    3.78
  -3  -3   3   53.44    4.85
   3  -3  -3   52.37    4.95
   3  -3  -3   50.92    4.75
  -2   3   3   31.52    3.01
  -2  -3   3   31.81    2.81
  -2  -3   3   35.21    3.20
   2  -3  -3   29.39    2.91
  -1   3   3  128.89   11.44
   1  -3  -3  142.08   12.70
   0   3   3   28.80    2.81
   0  -3  -3   29.29    2.91
   1   3   3   39.86    3.88
  -1  -3  -3   32.39    3.20
  -1  -3  -3   31.71    3.01
   2   3   3   24.34    2.52
   2   3   3   28.22    2.81
  -2   3  -3   20.75    1.94
  -2   3  -3   25.41    2.42
   2  -3   3   25.89    2.42
  -2  -3  -3   25.41    2.52
  -2  -3  -3   27.06    2.72
   3   3   3    1.94    1.07
   3   3   3    2.04    0.87
  -3   3  -3    3.10    0.87
  -3   3  -3    2.13    0.68
   3  -3   3    2.91    0.78
   3  -3   3    2.04    0.78
  -3  -3  -3    2.62    0.78
  -3  -3  -3    0.97    0.78
   4   3   3   16.10    1.84
   4   3   3   19.20    2.13
  -4   3  -3   18.52    1.94
  -4   3  -3   17.36    1.94
   4  -3   3   16.68    1.84
   4  -3   3   18.91    2.04
  -4  -3  -3   21.24    2.23
  -4  -3  -3   15.23    1.75
   5   3   3   59.45    5.63
   5   3   3   55.09    5.24
  -5   3  -3   59.55    5.53
  -5   3  -3   63.62    5.82
   5  -3   3   61.78    5.72
  -5  -3  -3   64.78    6.01
  -5  -3  -3   58.09    5.43
   6   3   3   30.26    3.20
   6   3   3   32.88    3.39
  -6   3  -3   37.24    3.69
  -6   3  -3   33.46    3.39
   6  -3   3   39.38    3.88
   6  -3   3   36.47    3.59
  -6  -3  -3   31.33    3.30
   7   3   3   12.61    1.75
   7   3   3   16.58    2.13
  -7   3  -3   15.42    1.94
  -7   3  -3   13.00    1.84
   7  -3   3   18.62    2.23
   7  -3   3   17.26    2.13
  -7  -3  -3   19.20    2.52
  -7  -3  -3   16.10    1.94
   8   3   3   11.35    1.55
   8   3   3    9.70    1.45
  -8   3  -3   12.61    1.94
   8  -3   3   15.71    2.04
  -8  -3  -3   14.16    1.84
  -8  -3  -3   21.72    2.52
   9   3   3   15.81    2.04
  -9   3  -3   14.26    2.04
   9  -3   3   21.24    2.42
  -9  -3  -3   19.30    2.52
  10   3   3   11.93    2.04
 -10   3  -3   14.64    1.94
  10  -3   3   16.88    2.33
 -10  -3  -3   18.04    2.33
 -11   4   3   14.55    1.84
 -11   4   3    8.34    1.55
  11   4  -3   13.29    2.04
  11   4  -3   13.38    1.65
 -11  -4   3   13.58    2.04
  11  -4  -3   17.84    2.04
  11  -4  -3   10.96    2.13
 -10   4   3    4.36    1.26
 -10   4   3    4.75    1.07
  10   4  -3    4.17    1.55
  10   4  -3    4.66    1.16
 -10  -4   3    7.66    1.55
 -10  -4   3    5.33    1.65
  10  -4  -3    7.56    1.36
  10  -4  -3    5.43    1.45
  -9   4   3    2.13    1.07
  -9   4   3    1.65    0.97
   9   4  -3    2.23    1.07
   9   4  -3    3.59    1.45
  -9  -4   3    1.45    1.26
   9  -4  -3    3.39    1.45
   9  -4  -3    3.20    0.97
  -8   4   3   13.48    1.84
  -8   4   3   12.90    1.65
   8   4  -3   14.16    1.94
   8   4  -3   11.83    1.45
  -8  -4   3   13.29    1.94
  -8  -4   3   12.51    1.75
   8  -4  -3   18.14    2.42
   8  -4  -3   12.32    1.55
  -7   4   3    6.21    1.36
  -7   4   3    4.36    1.07
   7   4  -3    6.59    1.26
   7   4  -3    3.78    1.26
  -7  -4   3    6.69    1.45
  -7  -4   3    5.63    1.26
   7  -4  -3    5.04    1.36
   7  -4  -3    6.11    1.26
  -6   4   3  112.79   10.18
  -6   4   3  119.87   10.86
   6   4  -3  111.53   10.09
   6   4  -3  108.43    9.80
  -6  -4   3  114.05   10.28
  -6  -4   3  145.67   13.09
   6  -4  -3  129.96   11.64
   6  -4  -3  130.73   11.93
  -5   4   3   24.73    2.62
  -5   4   3   28.13    2.81
   5   4  -3   23.37    2.42
   5   4  -3   30.84    3.01
  -5  -4   3   34.33    3.39
   5  -4  -3   32.20    3.10
   5  -4  -3   28.90    3.10
  -4   4   3   27.35    2.72
  -4   4   3   28.22    2.91
   4   4  -3   24.92    2.52
   4   4  -3   24.05    2.42
  -4  -4   3   26.77    2.62
  -4  -4   3   39.38    3.78
   4  -4  -3   31.13    3.10
   4  -4  -3   29.58    3.01
  -3   4   3    2.91    0.78
  -3   4   3    4.56    1.16
   3   4  -3    3.01    0.68
   3   4  -3    1.45    0.68
  -3  -4   3    1.94    0.58
  -3  -4   3    2.62    0.58
   3  -4  -3    3.88    1.07
   3  -4  -3    2.52    0.87
  -2   4   3  225.87   19.98
  -2   4   3  259.72   23.08
   2   4  -3  202.02   17.75
   2   4  -3  276.69   24.34
  -2  -4   3  269.42   23.76
  -2  -4   3  224.13   19.69
   2  -4  -3  257.30   22.79
   2  -4  -3  246.73   21.92
  -1   4   3   18.72    2.13
  -1   4   3   19.69    2.04
   1  -4  -3   23.18    2.42
   1  -4  -3   23.28    2.33
   0   4   3  162.35   14.64
   0   4   3  141.30   12.61
   0  -4  -3  165.07   14.84
   0  -4  -3  164.10   14.64
   1   4   3  599.16   52.86
   1   4   3  716.32   63.14
  -1  -4  -3  649.50   57.22
  -1  -4  -3  646.40   57.03
   2   4   3   66.05    6.11
   2   4   3   83.60    7.66
  -2   4  -3   72.25    6.40
  -2   4  -3   70.51    6.30
   2  -4   3   71.57    6.40
   2  -4   3   78.46    6.98
  -2  -4  -3   68.57    6.30
  -2  -4  -3   71.96    6.59
   3   4   3  380.85   33.65
   3   4   3  322.96   28.61
  -3   4  -3  385.80   33.94
  -3   4  -3  366.40   32.30
   3  -4   3  386.67   34.04
   3  -4   3  411.79   36.37
  -3  -4  -3  373.97   33.07
  -3  -4  -3  358.84   31.71
   4   4   3    3.59    1.16
   4   4   3    0.78    1.26
  -4   4  -3    1.16    0.58
  -4   4  -3    0.97    0.78
   4  -4   3    1.07    0.87
   4  -4   3    0.97    0.87
  -4  -4  -3    0.68    1.07
  -4  -4  -3    1.55    1.07
   5   4   3   30.16    3.10
   5   4   3   28.42    3.01
  -5   4  -3   30.06    3.01
  -5   4  -3   33.07    3.20
   5  -4   3   29.39    3.10
  -5  -4  -3   32.49    3.30
  -5  -4  -3   35.69    3.59
   6   4   3   34.33    3.49
   6   4   3   34.14    3.49
  -6   4  -3   36.47    3.59
  -6   4  -3   41.99    3.98
   6  -4   3   43.64    4.17
   6  -4   3   42.87    4.27
  -6  -4  -3   41.51    4.07
  -6  -4  -3   37.63    3.69
   7   4   3   14.64    1.84
   7   4   3   13.38    1.94
  -7   4  -3   16.68    1.94
  -7   4  -3   12.51    1.84
   7  -4   3   14.74    2.04
   7  -4   3   16.29    2.04
  -7  -4  -3   13.09    1.75
  -7  -4  -3   14.55    1.94
   8   4   3   -0.10    1.07
  -8   4  -3    0.68    1.07
  -8   4  -3    0.39    1.26
   8  -4   3    0.39    1.16
   8  -4   3    2.91    1.26
  -8  -4  -3   -0.10    1.07
   9   4   3    8.15    1.75
   9   4   3   15.42    1.84
  -9   4  -3   10.86    1.65
  -9   4  -3   14.55    2.04
   9  -4   3   15.03    2.13
   9  -4   3   21.43    2.42
  -9  -4  -3   14.35    1.94
  -9  -4  -3   12.51    1.84
  10   4   3    2.33    1.16
 -10   4  -3    0.78    1.16
  10  -4   3    1.75    1.26
 -10  -4  -3    1.45    1.36
 -10   5   3    5.33    1.16
 -10   5   3    4.85    1.26
  10   5  -3    3.39    1.45
  10   5  -3    4.17    0.97
 -10  -5   3    2.23    1.26
 -10  -5   3    2.62    1.36
  10  -5  -3    5.63    1.84
  10  -5  -3    3.30    1.07
  -9   5   3   33.94    3.39
  -9   5   3   25.12    2.62
   9   5  -3   29.39    3.10
   9   5  -3   23.95    2.72
  -9  -5   3   29.87    3.20
  -9  -5   3   31.52    3.30
   9  -5  -3   30.84    3.69
   9  -5  -3   23.28    2.42
  -8   5   3   18.62    2.04
  -8   5   3   16.49    1.94
   8   5  -3   16.10    2.04
  -8  -5   3   21.82    2.62
   8  -5  -3   16.00    2.33
  -7   5   3    0.87    1.16
   7   5  -3    2.81    1.26
   7   5  -3    0.10    1.07
  -7  -5   3    1.94    1.26
  -7  -5   3    0.39    1.07
   7  -5  -3    2.33    0.78
  -6   5   3    7.27    1.16
   6   5  -3    6.11    1.36
   6   5  -3    7.37    1.36
  -6  -5   3    4.56    1.16
  -6  -5   3    9.60    1.45
   6  -5  -3    8.05    1.55
  -5   5   3    0.19    0.87
   5   5  -3    0.97    0.78
   5   5  -3    3.49    1.07
  -5  -5   3    1.26    0.87
   5  -5  -3    3.39    0.97
  -4   5   3  118.51   10.77
  -4   5   3  106.78    9.60
   4   5  -3  121.71   10.96
   4   5  -3  114.73   10.28
  -4  -5   3  111.53    9.99
  -4  -5   3  115.90   10.38
   4  -5  -3  123.85   11.25
   4  -5  -3  126.27   11.35
  -3   5   3    0.19    0.97
  -3   5   3    1.45    0.68
   3   5  -3    1.55    0.68
   3   5  -3    2.52    0.78
  -3  -5   3    1.84    0.68
  -3  -5   3    2.04    0.58
   3  -5  -3    0.10    0.78
   3  -5  -3    1.55    0.87
  -2   5   3    1.65    0.68
  -2   5   3    1.07    0.87
   2  -5  -3    2.62    0.78
   2  -5  -3    1.16    0.87
  -1   5   3   19.20    2.04
  -1   5   3   20.56    2.33
   1  -5  -3   22.31    2.42
   1  -5  -3   26.67    2.72
   0   5   3  195.13   17.46
   0   5   3  164.87   14.74
   0  -5  -3  202.79   18.04
   0  -5  -3  188.92   16.97
   1   5   3   79.14    7.37
   1   5   3   94.75    8.63
  -1  -5  -3   80.50    7.37
  -1  -5  -3   85.25    7.76
   2   5   3    3.49    0.97
   2   5   3    2.62    1.07
  -2   5  -3    2.72    0.58
  -2   5  -3    2.13    0.39
   2  -5   3    2.42    0.58
   2  -5   3    2.13    0.48
  -2  -5  -3    4.27    0.97
  -2  -5  -3    2.33    0.87
   3   5   3  286.00   25.41
  -3   5  -3  292.31   25.80
  -3   5  -3  320.53   28.22
   3  -5   3  311.80   27.45
   3  -5   3  344.97   30.45
  -3  -5  -3  332.94   29.48
   4   5   3   27.45    3.01
  -4   5  -3   24.34    2.52
  -4   5  -3   23.57    2.33
   4  -5   3   29.87    2.91
   4  -5   3   28.51    2.91
  -4  -5  -3   31.33    3.30
   5   5   3   11.06    1.65
   5   5   3   10.96    1.55
  -5   5  -3    6.69    1.36
  -5   5  -3   11.64    1.45
   5  -5   3   12.22    1.75
  -5  -5  -3   12.70    1.84
  -5  -5  -3   12.32    1.65
   6   5   3    9.41    1.65
   6   5   3    9.50    1.45
  -6   5  -3   12.51    1.55
  -6   5  -3   10.47    1.55
   6  -5   3   10.96    1.75
   6  -5   3   13.77    1.75
  -6  -5  -3   12.12    1.84
  -6  -5  -3    9.70    1.55
   7   5   3   25.41    2.72
  -7   5  -3   29.58    3.01
  -7   5  -3   25.22    2.72
   7  -5   3   31.52    3.39
   7  -5   3   32.10    3.30
  -7  -5  -3   28.90    3.10
   8   5   3   12.32    1.75
  -8   5  -3   11.64    1.75
  -8   5  -3   13.29    1.75
   8  -5   3   18.33    2.52
  -8  -5  -3   15.32    2.13
  -8  -5  -3   13.77    1.94
  -8   6   3    0.10    0.97
  -8   6   3    3.78    1.16
   8   6  -3    1.16    1.45
   8   6  -3    1.07    1.16
  -8  -6   3    3.88    1.55
   8  -6  -3    0.87    1.26
  -7   6   3    3.88    1.16
  -7   6   3    2.62    0.97
   7   6  -3    3.69    1.36
   7   6  -3    0.78    1.07
  -7  -6   3    0.87    1.16
  -7  -6   3   -0.10    1.07
   7  -6  -3    2.81    1.26
   7  -6  -3    3.69    1.16
  -6   6   3  104.55    9.41
  -6   6   3   99.80    9.12
   6   6  -3  100.47    9.12
   6   6  -3  102.61    9.41
  -6  -6   3  106.10    9.60
  -6  -6   3  117.16   10.57
   6  -6  -3  102.51    9.50
   6  -6  -3  119.29   10.77
  -5   6   3  126.47   11.35
  -5   6   3  122.88   11.15
   5   6  -3  136.84   12.22
   5   6  -3  139.56   12.61
  -5  -6   3  133.64   12.03
  -5  -6   3  134.03   12.03
   5  -6  -3  136.65   12.41
   5  -6  -3  144.41   12.90
  -4   6   3    0.48    0.68
   4   6  -3    1.36    0.97
   4   6  -3    1.55    0.97
  -4  -6   3    0.48    0.78
  -4  -6   3    1.36    0.68
   4  -6  -3    0.19    0.97
   4  -6  -3    1.07    0.87
  -3   6   3    3.98    1.26
  -3   6   3    1.16    0.68
   3   6  -3    0.87    0.68
   3   6  -3    1.75    0.78
  -3  -6   3    1.55    0.58
  -3  -6   3    1.26    0.68
   3  -6  -3    2.23    0.97
  -2   6   3    1.94    1.07
  -2   6   3    1.36    0.78
   2  -6  -3    1.94    0.78
   2  -6  -3    1.75    0.97
  -1   6   3   -0.58    0.68
  -1   6   3    1.55    0.97
   1  -6  -3    1.16    0.97
   1  -6  -3    0.00    0.78
   0   6   3   35.30    3.49
   0   6   3   31.91    3.39
   0  -6  -3   31.81    3.20
   0  -6  -3   32.30    3.30
   1   6   3    4.56    1.26
   1   6   3    5.43    1.36
  -1  -6  -3    3.10    0.87
   2   6   3   -1.45    1.07
  -2  -6  -3    0.97    1.07
  -2  -6  -3    1.26    0.97
   3   6   3    3.39    1.07
   3   6   3    1.94    1.07
  -3   6  -3    0.87    0.68
   3  -6   3    0.87    0.58
   3  -6   3    0.87    0.58
  -3  -6  -3    1.55    0.97
  -3  -6  -3    2.13    1.07
   4   6   3    1.45    1.36
   4   6   3    1.75    1.07
  -4   6  -3    0.68    0.58
  -4   6  -3    0.10    0.78
   4  -6   3    1.65    0.78
   4  -6   3    1.07    0.78
  -4  -6  -3    0.00    1.26
  -4  -6  -3   -1.75    0.97
   5   6   3    4.95    1.16
   5   6   3    2.91    1.26
  -5   6  -3    4.17    1.07
  -5   6  -3    5.04    0.97
   5  -6   3    4.95    1.26
  -5  -6  -3    5.72    1.26
  -5  -6  -3    3.78    1.16
   6   6   3   -0.87    0.87
   6   6   3    0.48    0.87
  -6   6  -3    0.10    0.97
  -6   6  -3   -0.10    0.78
   6  -6   3    0.29    0.97
   6  -6   3    0.10    0.87
  -6  -6  -3   -2.04    1.36
   7   6   3   -0.48    0.78
   7   6   3   -0.39    1.16
  -7   6  -3    0.48    0.87
  -7   6  -3    0.68    0.97
   7  -6   3    0.29    1.07
   7  -6   3   -0.19    0.97
  -7  -6  -3    0.68    1.45
  -7  -6  -3   -0.29    1.07
  -6   7   3   13.19    1.75
  -6   7   3   11.15    1.65
   6  -7  -3    9.41    1.65
   6  -7  -3   13.09    1.75
  -5   7   3  178.45   15.91
  -5   7   3  228.40   20.27
   5   7  -3  189.89   16.97
   5   7  -3  149.55   13.58
  -5  -7   3  258.07   22.89
  -5  -7   3  218.21   19.40
   5  -7  -3  236.83   21.05
   5  -7  -3  255.36   22.79
  -4   7   3   25.22    2.62
   4   7  -3   22.31    2.42
   4   7  -3   19.78    2.04
  -4  -7   3   25.31    2.52
  -4  -7   3   27.06    2.72
   4  -7  -3   37.14    3.78
  -3   7   3    1.36    0.87
  -3   7   3    2.62    1.07
   3  -7  -3    3.20    0.87
   3  -7  -3    1.36    0.97
  -2   7   3   -0.48    0.97
  -2   7   3    1.07    0.87
   2  -7  -3   -0.68    0.97
   2  -7  -3    0.48    0.78
  -1   7   3   90.78    8.34
  -1   7   3   87.29    8.15
   1  -7  -3   89.22    8.24
   1  -7  -3   84.96    7.76
   0   7   3  133.93   12.12
   0   7   3  130.93   11.93
   0  -7  -3  128.41   11.64
   0  -7  -3  138.88   12.51
   1   7   3    0.87    0.97
   1   7   3    0.68    1.07
  -1  -7  -3    0.97    0.78
  -1  -7  -3    3.59    1.07
   2   7   3    3.20    1.16
   2   7   3    1.94    0.87
  -2  -7  -3    2.33    0.87
  -2  -7  -3    3.98    1.07
   3   7   3   23.66    2.81
   3   7   3   23.76    2.72
  -3  -7  -3   23.66    2.62
  -3  -7  -3   30.84    3.10
   4   7   3  127.63   11.54
   4   7   3  108.52    9.99
  -4  -7  -3  137.43   12.51
  -5  -7  -3   11.93    1.84
  -5  -7  -3    7.18    1.55
 -13   0   4    5.04    1.07
 -13   0   4    1.84    1.45
  13   0  -4    5.24    0.97
 -12   0   4   39.18    3.88
 -12   0   4   35.79    3.59
  12   0  -4   30.06    3.39
 -11   0   4    5.72    1.36
 -11   0   4    3.59    1.26
  11   0  -4    3.78    1.16
 -10   0   4    0.58    1.26
 -10   0   4    0.58    1.16
  10   0  -4   -0.48    1.07
  10   0  -4    1.26    1.26
  -9   0   4   19.49    2.23
  -9   0   4   27.54    2.91
   9   0  -4   21.14    2.33
   9   0  -4   21.82    2.52
  -8   0   4  215.98   19.20
  -8   0   4  165.07   14.74
   8   0  -4  178.93   16.00
   8   0  -4  172.53   15.32
  -7   0   4  107.65    9.70
  -7   0   4  120.07   10.77
   7   0  -4   96.30    8.63
   7   0  -4  102.22    9.31
  -6   0   4   30.45    3.01
  -6   0   4   35.69    3.49
   6   0  -4   35.40    3.49
   6   0  -4   34.72    3.30
  -5   0   4    4.17    1.07
  -5   0   4    4.46    0.97
   5   0  -4    4.66    1.07
   5   0  -4    6.21    1.07
  -4   0   4   42.09    3.98
   4   0  -4   48.88    4.46
  -3   0   4   20.75    2.04
  -3   0   4   21.63    2.23
   3   0  -4   23.08    2.33
   3   0  -4   21.24    2.13
  -2   0   4   73.22    6.59
  -2   0   4   72.83    6.59
   2   0  -4   70.41    6.40
   2   0  -4   68.66    6.21
  -1   0   4  165.45   14.64
  -1   0   4  172.82   15.32
   1   0  -4  171.37   15.13
   1   0  -4  166.81   14.84
   0   0   4    1.26    0.58
   0   0   4    0.58    0.58
   0   0  -4    2.13    0.58
   0   0  -4    1.45    0.68
   1   0   4  115.99   10.38
   1   0   4   98.83    8.83
  -1   0  -4   93.69    8.44
  -1   0  -4   99.31    8.83
   2   0   4  281.74   24.92
   2   0   4  238.09   21.14
  -2   0  -4  243.04   21.53
  -2   0  -4  244.01   21.63
   3   0   4   22.89    2.33
   3   0   4   20.08    2.13
  -3   0  -4   22.99    2.33
  -3   0  -4   31.23    3.10
   4   0   4   12.12    1.55
   4   0   4   11.64    1.55
  -4   0  -4   16.39    1.84
  -4   0  -4   13.77    1.65
   5   0   4 1925.12  169.14
   5   0   4 1633.20  143.54
  -5   0  -4 1793.22  157.50
  -5   0  -4 2216.07  194.74
   6   0   4  384.35   34.04
   6   0   4  321.99   28.51
  -6   0  -4  352.34   31.13
  -6   0  -4  447.77   39.57
   7   0   4   22.21    2.52
  -7   0  -4   24.15    2.72
   8   0   4   21.24    2.52
   8   0   4   16.29    2.13
  -8   0  -4   24.34    2.81
  -8   0  -4   14.94    1.84
   9   0   4   73.80    6.89
  -9   0  -4   77.30    7.18
  10   0   4  138.01   12.51
 -10   0  -4  109.79    9.89
  11   0   4   -1.26    1.45
 -11   0  -4    1.36    1.26
 -11   0  -4    0.19    1.26
 -13   1   4   -0.48    0.97
  13   1  -4    0.97    0.78
  13   1  -4   -0.29    1.55
 -13  -1   4   -1.45    1.55
 -13  -1   4    0.87    1.07
  13  -1  -4    1.55    0.97
 -12   1   4   13.58    2.04
  12   1  -4   10.18    1.94
 -12  -1   4   15.71    2.23
  12  -1  -4   15.03    2.42
 -11   1   4    5.04    1.36
 -11   1   4    5.33    1.36
  11   1  -4    6.01    1.26
  11   1  -4    5.92    1.55
 -11  -1   4    6.50    1.65
 -11  -1   4    4.75    1.45
  11  -1  -4    6.40    1.26
  11  -1  -4    5.14    1.55
 -10   1   4   25.51    2.72
 -10   1   4   20.27    2.42
  10   1  -4   27.74    2.72
  10   1  -4   19.78    2.42
 -10  -1   4   29.00    3.10
 -10  -1   4   20.17    2.23
  10  -1  -4   24.63    2.81
  10  -1  -4   23.28    2.52
  -9   1   4   47.52    4.56
   9   1  -4   43.25    4.17
  -9  -1   4   35.11    3.49
   9  -1  -4   42.67    4.27
   9  -1  -4   40.54    3.88
  -8   1   4  421.68   37.24
  -8   1   4  333.24   29.48
   8   1  -4  355.44   31.52
   8   1  -4  366.50   32.39
  -8  -1   4  321.99   28.42
  -8  -1   4  442.54   39.08
   8  -1  -4  394.63   35.01
   8  -1  -4  324.22   28.61
  -7   1   4   25.12    2.62
  -7   1   4   20.95    2.23
   7   1  -4   20.56    2.23
   7   1  -4   24.15    2.52
  -7  -1   4   22.11    2.42
  -7  -1   4   27.74    2.81
   7  -1  -4   24.54    2.81
   7  -1  -4   19.98    2.13
  -6   1   4    7.37    1.36
  -6   1   4    7.76    1.07
   6   1  -4    7.66    1.36
  -6  -1   4    8.24    1.45
   6  -1  -4    9.50    1.36
   6  -1  -4   10.57    1.55
  -5   1   4    3.59    1.07
  -5   1   4    1.84    0.68
   5   1  -4    1.75    0.78
  -5  -1   4    2.62    0.68
   5  -1  -4    2.23    0.97
   5  -1  -4    1.65    0.87
  -4   1   4 1463.48  128.60
  -4   1   4 1509.06  132.58
   4   1  -4 1317.04  115.70
   4   1  -4 1653.57  145.28
  -4  -1   4 1678.78  147.51
  -4  -1   4 1308.31  114.93
   4  -1  -4 1555.62  136.75
   4  -1  -4 1558.52  136.94
  -3   1   4 2686.44  235.96
   3   1  -4 2602.07  228.49
   3   1  -4 2923.08  256.72
  -3  -1   4 2454.65  215.50
  -3  -1   4 2855.19  250.70
   3  -1  -4 2621.46  230.14
  -2   1   4    5.43    0.87
  -2   1   4    7.66    1.16
   2   1  -4    7.95    0.97
   2   1  -4    5.04    0.78
  -2  -1   4    7.86    0.97
  -2  -1   4    6.69    0.78
   2  -1  -4    5.72    1.07
   2  -1  -4    7.08    0.97
  -1   1   4   19.11    2.04
  -1   1   4   19.01    1.84
   1   1  -4   21.24    1.94
   1   1  -4   18.04    1.75
  -1  -1   4   19.59    1.84
  -1  -1   4   23.08    2.23
   1  -1  -4   18.23    1.84
   1  -1  -4   19.30    1.94
   0   1   4  611.19   53.83
   0   1   4  612.35   53.92
   0   1  -4  691.30   60.81
   0   1  -4  704.97   61.97
   0  -1   4  685.48   60.32
   0  -1   4  823.87   72.45
   0  -1  -4  636.50   55.96
   0  -1  -4  640.67   56.44
   1   1   4  200.27   17.75
  -1   1  -4  228.30   20.17
  -1   1  -4  218.89   19.30
   1  -1   4  232.37   20.56
   1  -1   4  217.82   19.30
  -1  -1  -4  212.20   18.81
   2   1   4    4.17    0.87
   2   1   4    3.69    1.07
  -2   1  -4    4.85    0.87
  -2   1  -4    3.10    0.68
   2  -1   4    2.72    0.68
   2  -1   4    3.49    0.78
  -2  -1  -4    3.88    0.78
  -2  -1  -4    2.72    0.87
   3   1   4   16.49    1.84
   3   1   4   19.01    2.04
  -3   1  -4   19.88    2.13
  -3   1  -4   16.78    1.75
   3  -1   4   16.97    1.84
   3  -1   4   16.68    1.84
  -3  -1  -4   15.42    1.75
   4   1   4   59.64    5.53
   4   1   4   57.51    5.33
  -4   1  -4   67.50    6.21
  -4   1  -4   58.87    5.33
   4  -1   4   51.98    4.85
   4  -1   4   60.81    5.63
  -4  -1  -4   67.21    6.21
  -4  -1  -4   75.36    6.89
   5   1   4  389.29   34.43
   5   1   4  395.01   34.91
  -5   1  -4  359.91   31.71
  -5   1  -4  471.34   41.61
   5  -1   4  357.00   31.52
   5  -1   4  403.65   35.69
  -5  -1  -4  399.57   35.30
  -5  -1  -4  490.54   43.25
   6   1   4   75.07    6.89
   6   1   4   79.24    7.27
  -6   1  -4   87.96    8.05
  -6   1  -4   69.73    6.30
   6  -1   4   71.96    6.59
   6  -1   4   75.36    6.89
  -6  -1  -4   95.24    8.63
  -6  -1  -4   70.60    6.50
   7   1   4   -0.58    1.07
   7   1   4    0.00    1.07
  -7   1  -4   -0.29    0.97
   7  -1   4    0.97    1.16
   7  -1   4    1.16    1.26
  -7  -1  -4    1.94    1.26
  -7  -1  -4    1.55    1.16
   8   1   4    2.23    1.36
   8   1   4    2.33    0.97
  -8   1  -4    2.13    1.16
   8  -1   4    1.94    1.36
  -8  -1  -4    0.78    1.16
  -8  -1  -4    2.62    1.16
   9   1   4    2.04    0.97
   9   1   4    3.20    1.16
  -9   1  -4    2.91    1.16
  -9   1  -4    2.04    1.16
   9  -1   4    2.52    1.26
   9  -1   4    0.68    1.07
  -9  -1  -4    1.45    0.87
  -9  -1  -4    4.75    1.36
  10   1   4    1.55    1.07
  10   1   4    6.59    1.16
 -10   1  -4    4.07    1.36
 -10   1  -4    3.69    0.97
  10  -1   4    4.85    1.07
  10  -1   4    0.78    1.36
 -10  -1  -4    3.78    1.26
 -10  -1  -4    5.43    1.26
  11   1   4    3.98    1.16
 -11   1  -4    2.33    1.07
  11  -1   4    3.59    1.16
 -11  -1  -4    2.62    1.16
 -12   2   4   -0.39    1.26
 -12   2   4    1.45    0.78
  12   2  -4    0.29    1.36
 -12  -2   4    1.94    1.55
 -12  -2   4    0.48    1.45
  12  -2  -4   -2.13    1.55
  12  -2  -4    2.72    0.97
 -11   2   4    1.07    1.16
 -11   2   4    3.10    1.26
  11   2  -4    1.94    1.16
  11   2  -4    1.75    1.16
 -11  -2   4    0.78    1.26
 -11  -2   4    1.16    1.36
  11  -2  -4    3.30    1.16
  11  -2  -4    2.62    1.55
 -10   2   4   11.44    1.75
 -10   2   4    8.92    1.45
  10   2  -4    7.66    1.45
  10   2  -4    9.02    1.65
 -10  -2   4    7.18    1.55
  10  -2  -4    9.89    1.45
  10  -2  -4    9.60    1.84
  -9   2   4  217.92   19.40
  -9   2   4  175.15   15.61
   9   2  -4  206.96   18.43
  -9  -2   4  189.70   16.97
   9  -2  -4  177.58   15.81
   9  -2  -4  231.50   20.75
  -8   2   4  139.75   12.51
   8   2  -4  143.15   12.90
  -8  -2   4  189.02   16.88
  -8  -2   4  158.37   14.26
   8  -2  -4  140.04   12.51
  -7   2   4   19.88    2.04
  -7   2   4   19.88    2.04
   7   2  -4   18.43    2.13
   7   2  -4   17.55    2.04
  -7  -2   4   20.08    2.23
  -7  -2   4   18.14    2.04
   7  -2  -4   18.43    2.13
   7  -2  -4   20.08    2.04
  -6   2   4   23.18    2.42
  -6   2   4   27.83    2.91
   6   2  -4   19.88    2.13
  -6  -2   4   31.33    3.20
   6  -2  -4   26.67    2.91
   6  -2  -4   28.80    2.91
  -5   2   4   31.52    3.10
  -5   2   4   35.79    3.39
   5   2  -4   33.94    3.20
  -5  -2   4   29.10    2.81
   5  -2  -4   40.44    3.88
   5  -2  -4   38.79    3.78
  -4   2   4    7.37    1.26
  -4   2   4    6.98    1.07
   4   2  -4    8.92    1.16
   4   2  -4    7.76    0.97
  -4  -2   4    9.31    1.16
  -4  -2   4    6.59    0.97
   4  -2  -4    7.66    1.26
   4  -2  -4   11.15    1.45
  -3   2   4  917.66   80.69
   3   2  -4 1107.55   97.37
   3   2  -4  964.69   84.76
  -3  -2   4 1105.61   97.08
  -3  -2   4  810.20   71.19
   3  -2  -4 1000.87   88.06
  -2   2   4   28.42    2.72
  -2   2   4   29.77    3.01
   2   2  -4   28.80    2.62
   2   2  -4   27.16    2.42
  -2  -2   4   21.92    2.04
  -2  -2   4   27.54    2.52
   2  -2  -4   26.96    2.72
   2  -2  -4   30.36    2.91
  -1   2   4   41.02    3.88
  -1   2   4   39.38    3.69
   1   2  -4   44.71    3.98
  -1  -2   4   38.60    3.39
  -1  -2   4   53.53    4.75
   1  -2  -4   41.41    3.78
   1  -2  -4   43.93    4.07
   0   2   4   40.35    3.78
   0   2   4   40.73    3.88
   0   2  -4   44.71    3.98
   0   2  -4   45.49    4.07
   0  -2   4   38.41    3.39
   0  -2   4   45.29    4.07
   0  -2  -4   42.28    3.88
   0  -2  -4   43.35    4.07
   1   2   4 1023.18   90.00
  -1   2  -4  792.06   69.54
  -1   2  -4  894.67   78.56
   1  -2   4  892.35   78.46
   1  -2   4  729.90   64.11
  -1  -2  -4  849.38   74.77
   2   2   4  179.42   16.00
   2   2   4  228.59   20.27
  -2   2  -4  176.90   15.61
   2  -2   4  162.84   14.35
   2  -2   4  228.59   20.27
  -2  -2  -4  195.81   17.46
  -2  -2  -4  188.54   16.78
   3   2   4    0.58    0.87
   3   2   4    0.10    0.97
   3  -2   4    0.58    0.78
   3  -2   4    0.68    0.78
  -3  -2  -4    0.87    0.78
  -3  -2  -4    1.07    0.87
   4   2   4   21.92    2.52
   4   2   4   19.01    2.04
  -4   2  -4   24.15    2.52
  -4  -2  -4   20.75    2.33
  -4  -2  -4   16.58    1.84
   5   2   4   35.79    3.59
   5   2   4   39.08    3.78
  -5   2  -4   35.21    3.39
   5  -2   4   41.70    3.98
   5  -2   4   39.76    3.78
  -5  -2  -4   37.14    3.59
  -5  -2  -4   41.41    3.98
   6   2   4  117.25   10.67
  -6   2  -4  148.09   13.29
  -6   2  -4  109.98    9.89
   6  -2   4  129.86   11.64
   6  -2   4  126.56   11.35
  -6  -2  -4  141.60   12.70
  -6  -2  -4  163.22   14.64
   7   2   4    0.48    0.97
   7   2   4   -0.48    0.97
  -7   2  -4    0.68    1.16
  -7   2  -4    1.36    0.97
   7  -2   4   -0.39    1.07
   7  -2   4    1.45    1.16
  -7  -2  -4    2.42    0.87
  -7  -2  -4    2.04    1.16
   8   2   4    4.27    1.26
   8   2   4    0.78    1.36
  -8   2  -4    3.01    1.07
  -8   2  -4    3.78    1.16
   8  -2   4    3.59    1.26
  -8  -2  -4    3.49    1.55
  -8  -2  -4    3.98    1.36
   9   2   4   14.84    1.94
  -9   2  -4   10.28    1.55
  -9   2  -4   13.09    1.94
   9  -2   4   13.00    1.84
   9  -2   4   15.03    1.94
  -9  -2  -4   19.78    2.42
  10   2   4   37.24    3.69
 -10   2  -4   36.47    3.59
  10  -2   4   37.53    3.69
 -10  -2  -4   43.06    4.17
 -12   3   4   51.11    4.75
  12   3  -4   49.07    4.66
 -12  -3   4   44.42    4.46
  12  -3  -4   44.32    4.56
  12  -3  -4   60.32    5.53
 -11   3   4   33.36    3.30
 -11   3   4   34.53    3.59
  11   3  -4   33.07    3.20
 -11  -3   4   26.96    3.10
 -11  -3   4   28.61    3.20
  11  -3  -4   37.44    3.59
  11  -3  -4   38.60    3.98
 -10   3   4    3.78    1.16
 -10   3   4    2.33    1.07
  10   3  -4    5.92    1.45
  10   3  -4    2.72    1.16
 -10  -3   4    2.91    1.36
 -10  -3   4    2.62    1.36
  10  -3  -4    2.72    1.45
  10  -3  -4    3.10    1.16
  -9   3   4   36.27    3.59
  -9   3   4   34.53    3.39
   9   3  -4   40.15    3.98
  -9  -3   4   40.05    3.98
   9  -3  -4   39.86    4.07
   9  -3  -4   33.94    3.20
  -8   3   4   21.24    2.33
   8   3  -4   22.69    2.62
   8   3  -4   21.82    2.42
  -8  -3   4   23.66    2.62
  -8  -3   4   26.28    2.81
   8  -3  -4   23.47    2.72
  -7   3   4    4.27    1.16
   7   3  -4    3.78    1.16
   7   3  -4    2.23    1.26
  -7  -3   4    4.07    1.16
  -7  -3   4    2.23    1.07
   7  -3  -4    3.98    1.07
  -6   3   4    2.33    0.97
  -6   3   4    1.55    0.78
   6   3  -4   -0.29    1.07
   6   3  -4    1.26    0.97
  -6  -3   4    0.58    0.97
   6  -3  -4    1.07    0.78
   6  -3  -4    2.42    1.36
  -5   3   4    3.88    0.97
  -5   3   4    3.01    1.07
   5   3  -4    1.45    0.78
   5   3  -4    1.65    0.87
  -5  -3   4    3.01    0.97
  -5  -3   4    2.52    1.07
   5  -3  -4    3.78    1.07
   5  -3  -4    1.55    1.07
  -4   3   4    3.20    0.78
  -4   3   4    4.56    1.16
   4   3  -4    2.04    0.87
   4   3  -4    3.30    0.78
  -4  -3   4    3.88    0.87
  -4  -3   4    2.52    0.78
   4  -3  -4    2.81    1.07
   4  -3  -4    2.72    0.97
  -3   3   4   41.80    3.88
  -3   3   4   45.29    4.36
   3   3  -4   39.57    3.59
   3   3  -4   44.22    3.98
  -3  -3   4   38.41    3.49
  -3  -3   4   43.45    3.88
   3  -3  -4   44.42    4.17
   3  -3  -4   41.61    4.07
  -2   3   4   11.44    1.36
  -2   3   4   14.35    1.84
   2  -3  -4   14.35    1.65
   2  -3  -4   12.41    1.55
  -1   3   4   15.32    1.75
  -1   3   4   14.35    1.65
   1  -3  -4   18.81    2.13
   1  -3  -4   16.39    1.75
   0   3   4  246.82   21.82
   0   3   4  277.66   24.63
   0  -3  -4  269.23   23.86
   0  -3  -4  256.23   22.79
   1   3   4  104.16    9.50
   1   3   4  129.76   11.74
  -1  -3  -4  113.08   10.18
  -1  -3  -4  117.45   10.57
   2   3   4   25.60    2.62
   2   3   4   30.26    3.01
  -2   3  -4   24.25    2.23
  -2   3  -4   31.91    2.91
   2  -3   4   22.31    2.13
   2  -3   4   24.34    2.33
  -2  -3  -4   23.08    2.33
  -2  -3  -4   25.60    2.62
   3   3   4    2.81    0.87
   3   3   4    0.58    1.07
  -3   3  -4    2.42    0.78
  -3   3  -4    3.01    0.78
   3  -3   4    2.72    0.78
   3  -3   4    1.94    0.68
  -3  -3  -4    1.26    0.97
  -3  -3  -4    2.81    1.07
   4   3   4  101.35    9.21
   4   3   4   87.09    7.95
  -4   3  -4  106.78    9.60
   4  -3   4   92.62    8.34
   4  -3   4   98.54    8.83
  -4  -3  -4   89.22    8.15
  -4  -3  -4   96.79    8.83
   5   3   4   67.40    6.30
   5   3   4   85.93    7.95
  -5   3  -4   70.22    6.40
   5  -3   4   71.28    6.50
  -5  -3  -4   70.31    6.50
  -5  -3  -4   88.93    8.24
   6   3   4   18.14    2.23
   6   3   4   17.07    2.04
  -6   3  -4   20.85    2.42
  -6   3  -4   23.86    2.52
   6  -3   4   24.83    2.62
   6  -3   4   22.31    2.42
  -6  -3  -4   21.14    2.42
  -6  -3  -4   18.72    2.23
   7   3   4    0.58    0.97
   7   3   4   -0.29    1.26
  -7   3  -4    1.55    1.36
  -7   3  -4    1.45    1.07
   7  -3   4    0.39    0.97
   7  -3   4   -1.45    1.16
  -7  -3  -4    1.16    1.16
  -7  -3  -4    0.00    0.97
   8   3   4   13.87    1.94
  -8   3  -4   17.07    2.13
  -8   3  -4   15.81    2.04
   8  -3   4   14.55    2.04
   8  -3   4   18.14    2.33
  -8  -3  -4   11.25    1.65
  -8  -3  -4   14.45    1.94
   9   3   4   20.66    2.33
  -9   3  -4   27.64    3.01
   9  -3   4   27.64    2.81
   9  -3   4   23.57    2.81
  -9  -3  -4   18.72    2.13
  -9  -3  -4   18.72    2.42
  10   3   4   54.50    5.14
 -10   3  -4   60.81    5.72
  10  -3   4   71.57    6.59
 -10  -3  -4   57.32    5.43
 -11   4   4   49.56    4.85
 -11   4   4   48.78    4.56
  11   4  -4   53.63    5.04
 -11  -4   4   52.86    5.04
  11  -4  -4   63.33    5.82
  11  -4  -4   57.71    5.72
 -10   4   4    8.73    1.36
  10   4  -4    6.69    1.65
  10   4  -4    7.37    1.36
 -10  -4   4   10.86    1.84
 -10  -4   4    7.08    1.26
  10  -4  -4    8.73    1.65
  -9   4   4   24.05    2.52
  -9   4   4   32.20    3.20
   9   4  -4   29.48    3.20
   9   4  -4   25.22    2.72
  -9  -4   4   25.80    2.81
  -9  -4   4   26.96    2.91
   9  -4  -4   27.74    2.72
   9  -4  -4   29.77    3.39
  -8   4   4   19.20    2.13
  -8   4   4   15.81    1.94
   8   4  -4   15.23    2.04
   8   4  -4   15.91    1.94
  -8  -4   4   18.04    2.13
  -8  -4   4   20.27    2.33
   8  -4  -4   17.07    1.94
   8  -4  -4   17.26    2.33
  -7   4   4   77.10    7.08
  -7   4   4   78.46    7.27
   7   4  -4   79.62    7.27
   7   4  -4   79.62    7.27
  -7  -4   4   88.55    8.05
  -7  -4   4   98.24    8.92
   7  -4  -4   85.35    7.95
   7  -4  -4   78.85    7.18
  -6   4   4   14.16    1.65
  -6   4   4   12.12    1.55
   6   4  -4   12.51    1.65
   6   4  -4   13.77    1.65
  -6  -4   4   20.56    2.23
   6  -4  -4   15.81    1.75
   6  -4  -4   12.70    1.84
  -5   4   4   12.90    1.55
  -5   4   4   13.09    1.75
   5   4  -4    9.50    1.16
   5   4  -4   10.18    1.45
  -5  -4   4   12.51    1.55
  -5  -4   4   10.67    1.36
   5  -4  -4   15.61    1.84
   5  -4  -4   12.70    1.84
  -4   4   4    8.83    1.26
  -4   4   4    8.83    1.36
   4   4  -4    7.76    1.07
   4   4  -4    6.30    0.87
  -4  -4   4    7.76    0.97
  -4  -4   4    6.69    0.97
   4  -4  -4    8.44    1.26
   4  -4  -4    8.53    1.45
  -3   4   4   67.11    6.11
  -3   4   4   69.63    6.50
   3  -4  -4   68.76    6.30
   3  -4  -4   66.34    6.21
  -2   4   4  186.98   16.58
  -2   4   4  221.32   19.78
   2  -4  -4  207.64   18.52
   2  -4  -4  232.66   20.66
  -1   4   4  165.94   14.94
  -1   4   4  143.05   12.80
   1  -4  -4  164.48   14.74
   1  -4  -4  160.02   14.26
   0   4   4  522.35   46.16
   0   4   4  468.82   41.31
   0  -4  -4  537.68   47.52
   0  -4  -4  537.87   47.42
  -1  -4  -4   38.79    3.78
  -1  -4  -4   41.41    3.88
   2   4   4  137.81   12.41
   2   4   4  172.05   15.42
   2  -4   4  165.74   14.64
  -2  -4  -4  156.92   14.06
  -2  -4  -4  151.00   13.48
   3   4   4   33.85    3.39
  -3   4  -4   38.79    3.59
  -3   4  -4   38.21    3.49
   3  -4   4   40.05    3.69
   3  -4   4   35.50    3.30
  -3  -4  -4   45.97    4.46
  -3  -4  -4   41.41    3.98
   4   4   4   46.94    4.46
   4   4   4   41.61    4.07
  -4   4  -4   39.28    3.69
  -4   4  -4   41.12    3.88
   4  -4   4   41.31    3.98
   4  -4   4   38.31    3.59
  -4  -4  -4   39.38    3.78
  -4  -4  -4   43.45    4.17
   5   4   4    0.29    1.07
   5   4   4   -0.39    1.07
  -5   4  -4    1.65    0.87
  -5   4  -4    3.49    1.16
   5  -4   4    0.48    0.97
  -5  -4  -4    0.39    0.87
  -5  -4  -4    0.29    1.07
   6   4   4   -0.48    0.87
   6   4   4    1.36    0.97
  -6   4  -4    0.29    0.87
  -6   4  -4    0.97    1.26
   6  -4   4    0.39    0.97
   6  -4   4    1.94    1.07
  -6  -4  -4    0.48    0.97
  -6  -4  -4   -0.87    1.07
   7   4   4   -0.68    1.07
   7   4   4   -0.10    1.26
  -7   4  -4    0.10    0.87
  -7   4  -4   -0.87    1.26
   7  -4   4   -0.29    1.07
   7  -4   4   -1.07    1.16
  -7  -4  -4   -0.58    1.07
  -7  -4  -4    2.13    1.36
   8   4   4   -0.39    1.16
   8   4   4   -0.19    0.97
  -8   4  -4   -0.19    1.45
  -8   4  -4   -0.10    1.07
   8  -4   4    2.23    1.26
  -8  -4  -4    1.45    1.07
  -8  -4  -4    0.00    1.07
   9   4   4    0.78    1.55
  -9   4  -4    3.78    1.26
   9  -4   4   17.36    2.42
  -9  -4  -4   10.18    1.84
  -9  -4  -4   13.09    1.94
 -10   5   4   -1.65    1.16
 -10   5   4   -0.68    0.97
  10   5  -4    0.87    1.55
  10   5  -4    0.87    0.97
 -10  -5   4   -0.48    1.36
 -10  -5   4    0.39    1.26
  10  -5  -4   -1.94    1.55
  10  -5  -4    0.68    0.87
   9   5  -4   37.14    3.88
   9   5  -4   34.62    3.49
  -9  -5   4   44.03    4.36
  -9  -5   4   39.47    4.07
  -8   5   4    0.39    0.97
  -8   5   4   -0.10    0.78
   8   5  -4    0.97    1.16
   8   5  -4    0.87    1.45
  -8  -5   4    0.78    1.07
  -8  -5   4    0.48    1.26
   8  -5  -4    1.16    1.26
   8  -5  -4   -0.97    0.97
  -7   5   4   23.08    2.52
  -7   5   4   18.72    2.04
   7   5  -4   18.43    2.23
   7   5  -4   20.56    2.42
  -7  -5   4   22.89    2.52
  -7  -5   4   28.13    3.10
   7  -5  -4   20.56    2.42
   7  -5  -4   25.22    2.52
  -6   5   4   -0.10    0.68
  -6   5   4    0.48    0.97
   6   5  -4    0.00    1.36
   6   5  -4    2.81    0.87
  -6  -5   4    3.01    1.07
   6  -5  -4    0.48    1.07
   6  -5  -4   -0.10    0.87
  -5   5   4   54.70    5.04
   5   5  -4   59.06    5.43
   5   5  -4   59.84    5.53
  -5  -5   4   63.62    5.82
  -5  -5   4   50.72    4.66
   5  -5  -4   64.49    6.11
  -4   5   4   47.13    4.36
  -4   5   4   49.07    4.75
   4   5  -4   41.02    3.78
  -4  -5   4   38.99    3.59
  -4  -5   4   47.42    4.27
   4  -5  -4   55.67    5.33
   4  -5  -4   51.50    4.85
  -3   5   4   24.73    2.72
   3  -5  -4   21.05    2.23
  -2   5   4   16.10    2.04
   2  -5  -4   14.64    1.75
  -1   5   4   -0.68    0.78
   1  -5  -4    0.00    0.68
   0   5   4   87.77    8.15
   0  -5  -4   93.78    8.53
   1   5   4   26.28    2.81
   1   5   4   23.28    2.62
  -1  -5  -4   22.21    2.52
  -1  -5  -4   23.47    2.52
   2   5   4  332.36   29.48
   2   5   4  277.57   24.73
  -2  -5  -4  316.65   28.13
  -2  -5  -4  300.26   26.67
   3   5   4   27.25    2.81
   3   5   4   28.03    3.01
  -3  -5  -4   29.29    2.91
  -3  -5  -4   29.58    3.01
   4   5   4    2.33    1.36
   4   5   4   -0.39    0.87
  -4   5  -4    0.19    0.68
  -4   5  -4    0.39    0.48
   4  -5   4    0.10    0.68
   4  -5   4    0.97    0.68
  -4  -5  -4    0.29    0.68
  -4  -5  -4    0.19    0.78
   5   5   4    1.55    1.07
   5   5   4    1.07    0.87
  -5   5  -4    0.19    0.87
   5  -5   4    0.29    0.87
   5  -5   4    0.00    0.78
  -5  -5  -4    0.68    0.87
  -5  -5  -4   -0.29    1.07
   6   5   4    5.63    1.16
  -6   5  -4    5.82    1.16
  -6   5  -4    5.33    1.26
   6  -5   4    7.18    1.26
   6  -5   4    6.21    1.45
  -6  -5  -4    6.59    1.16
   7   5   4    7.27    1.75
   7   5   4   10.28    1.45
  -7   5  -4   12.70    1.65
  -7   5  -4   14.16    2.04
   7  -5   4   10.18    1.84
   7  -5   4   14.55    1.84
  -7  -5  -4   10.09    1.55
  -7  -5  -4   10.47    1.75
   8   5   4   29.87    3.10
  -8   5  -4   32.59    3.39
  -8   5  -4   28.42    3.01
   8  -5   4   45.29    4.66
  -8  -5  -4   35.59    3.59
  -8  -5  -4   38.11    3.78
  -8   6   4    0.39    1.07
  -8   6   4    2.91    0.97
   8   6  -4    0.78    0.97
   8   6  -4    2.42    1.45
  -8  -6   4    0.39    1.36
  -8  -6   4   -0.68    1.16
   8  -6  -4    1.65    1.36
   8  -6  -4    1.55    0.97
  -7   6   4   10.77    1.65
  -7   6   4    7.76    1.26
   7   6  -4    7.27    1.36
   7   6  -4    8.63    1.75
  -7  -6   4   10.18    1.75
  -7  -6   4    5.82    1.26
   7  -6  -4    5.04    1.36
  -6   6   4   72.93    6.69
  -6   6   4   90.68    8.24
   6   6  -4   80.40    7.37
   6   6  -4   81.85    7.56
  -6  -6   4  109.98    9.99
   6  -6  -4   89.71    8.34
   6  -6  -4   99.41    9.02
  -5   6   4    4.75    0.97
  -5   6   4    3.39    1.07
   5   6  -4    1.45    0.78
   5   6  -4    2.23    0.87
  -5  -6   4    3.20    0.97
  -5  -6   4    2.04    0.68
   5  -6  -4    4.07    1.26
   5  -6  -4    5.04    1.07
  -4   6   4    4.95    1.26
  -4   6   4    4.95    0.87
   4  -6  -4    7.18    1.16
   4  -6  -4    6.59    1.26
  -3   6   4    5.43    1.36
  -3   6   4    5.63    0.97
   3  -6  -4    5.72    1.26
  -2   6   4   11.35    1.75
  -2   6   4    8.63    1.26
   2  -6  -4   11.64    1.45
  -1   6   4   46.65    4.66
   1  -6  -4   45.68    4.36
   0   6   4   41.80    4.17
   0  -6  -4   37.63    3.69
   0  -6  -4   38.41    3.88
   1   6   4    2.72    1.16
  -1  -6  -4    2.91    0.97
  -1  -6  -4    5.04    1.16
   2   6   4   40.54    4.07
  -2  -6  -4   45.00    4.36
   3   6   4    9.31    1.55
  -3  -6  -4    7.08    1.36
   4   6   4   34.04    3.49
  -4  -6  -4   33.07    3.49
  -4  -6  -4   40.15    3.98
   5   6   4    6.50    1.65
  -5   6  -4    2.42    0.78
  -5   6  -4    1.75    0.48
   5  -6   4    2.42    0.68
   5  -6   4    2.33    0.78
  -5  -6  -4    3.69    1.55
   6   6   4   14.06    1.75
   6   6   4   13.48    1.94
  -6  -6  -4   18.14    2.23
  -6  -6  -4   13.67    1.75
  -6   7   4    9.80    1.55
  -6   7   4    8.92    1.45
   5  -7  -4   56.44    5.43
  -4   7   4    1.36    0.87
  -4   7   4    1.16    0.87
   4  -7  -4    0.58    0.87
  -3   7   4   -0.68    0.78
  -3   7   4    1.65    0.97
   3  -7  -4   -0.68    0.97
   3  -7  -4    2.42    0.97
  -2   7   4   20.56    2.23
  -2   7   4   21.24    2.42
   2  -7  -4   23.18    2.42
   2  -7  -4   26.38    2.81
  -1   7   4    4.36    1.16
  -1   7   4    6.50    1.36
   1  -7  -4    5.43    1.26
   1  -7  -4    7.76    1.26
   0   7   4    9.02    1.55
   0   7   4    8.15    1.36
   0  -7  -4    9.80    1.45
   0  -7  -4    5.14    1.26
   1   7   4    1.94    0.97
  -1  -7  -4    1.07    0.87
   2   7   4    6.11    1.26
   2   7   4    6.79    1.16
  -2  -7  -4    4.95    1.16
  -2  -7  -4    5.72    1.36
   3   7   4   -0.87    1.36
   3   7   4   -0.58    0.97
  -3  -7  -4   -1.45    1.16
  -3  -7  -4    0.10    0.97
   4   7   4   10.09    1.65
  -4  -7  -4   10.86    1.75
 -12   0   5    0.10    1.26
 -12   0   5    0.97    1.26
  12   0  -5    1.07    1.65
  12   0  -5    0.78    1.07
 -11   0   5    0.00    1.16
 -11   0   5    0.68    1.16
  11   0  -5   -1.07    1.36
  11   0  -5   -1.55    0.97
 -10   0   5    2.13    1.36
 -10   0   5    1.36    1.16
  10   0  -5    0.19    1.07
  10   0  -5   -0.97    1.26
  -9   0   5    0.78    1.16
  -9   0   5   -1.26    1.07
   9   0  -5    0.10    1.26
   9   0  -5   -2.42    1.07
  -8   0   5   -0.87    1.07
  -8   0   5    0.10    1.07
   8   0  -5    2.04    1.16
   8   0  -5   -0.29    0.87
  -7   0   5    0.78    0.97
  -7   0   5   -0.39    0.68
   7   0  -5    0.87    0.78
   7   0  -5   -1.26    1.26
  -6   0   5    0.10    0.87
  -6   0   5   -0.97    0.97
   6   0  -5    0.58    0.87
   6   0  -5    0.00    1.07
  -5   0   5   -1.07    0.97
  -5   0   5   -0.29    0.68
   5   0  -5    0.00    0.78
  -4   0   5    1.26    0.87
  -4   0   5    0.19    0.58
   4   0  -5    0.19    0.68
   4   0  -5   -0.29    0.78
  -3   0   5   -0.39    0.78
   3   0  -5    0.29    0.68
  -2   0   5    0.19    0.48
  -2   0   5    0.10    0.68
   2   0  -5   -0.10    0.58
   2   0  -5   -0.58    0.58
  -1   0   5    1.16    0.68
  -1   0   5    0.39    0.58
   1   0  -5    0.29    0.58
   1   0  -5   -0.29    0.58
   0   0   5    0.87    0.58
   0   0   5   -0.10    0.78
   0   0  -5    0.29    0.48
   0   0  -5    0.78    0.68
   1   0   5    1.16    0.68
  -1   0  -5    0.19    0.58
   2   0   5    1.26    0.78
   2   0   5   -0.29    0.97
  -2   0  -5    0.00    0.58
  -2   0  -5    0.19    0.58
   3   0   5    0.00    1.16
   3   0   5    0.68    0.78
  -3   0  -5    0.68    0.97
   4   0   5    0.19    0.97
   4   0   5   -0.39    0.97
  -4   0  -5   -1.16    0.87
  -4   0  -5    1.75    0.97
   5   0   5   -2.13    0.97
   5   0   5   -0.68    0.87
  -5   0  -5    0.68    0.97
  -5   0  -5    0.97    1.16
   6   0   5   -0.19    0.87
   6   0   5   -0.19    0.87
  -6   0  -5   -0.29    0.97
  -6   0  -5    0.19    0.97
   7   0   5   -2.13    1.36
  -7   0  -5   -1.26    1.07
   8   0   5   -0.58    1.07
  -8   0  -5    1.07    1.07
   9   0   5    0.97    1.16
  -9   0  -5   -0.10    1.16
  10   0   5   -0.29    1.07
  10   0   5    0.19    0.97
 -10   0  -5   -0.19    1.16
 -10   0  -5    0.19    0.87
 -12   1   5    0.97    0.87
 -12   1   5    0.00    1.16
  12   1  -5   -1.26    1.26
 -12  -1   5   -0.10    1.36
  12  -1  -5    1.55    0.87
  12  -1  -5    0.48    1.45
 -11   1   5   -0.39    0.87
  11   1  -5   -0.39    0.78
 -11  -1   5    0.58    0.87
  11  -1  -5    0.58    0.78
 -10   1   5   21.53    2.42
 -10   1   5   28.32    2.91
  10   1  -5   22.79    2.72
 -10  -1   5   24.63    2.72
 -10  -1   5   19.69    2.13
  10  -1  -5   22.31    2.81
  10  -1  -5   24.83    2.62
  -9   1   5   27.16    2.81
  -9   1   5   19.98    2.13
   9   1  -5   18.43    2.42
   9   1  -5   23.57    2.52
  -9  -1   5   21.72    2.33
   9  -1  -5   21.05    2.33
   9  -1  -5   27.54    3.10
  -8   1   5   43.45    4.17
   8   1  -5   40.25    3.98
   8   1  -5   46.65    4.36
  -8  -1   5   36.76    3.49
  -8  -1   5   51.21    4.85
   8  -1  -5   38.89    3.69
  -7   1   5    2.72    0.97
  -7   1   5    3.10    1.16
   7   1  -5    2.91    0.97
   7   1  -5    1.26    1.07
  -7  -1   5    4.07    1.16
  -7  -1   5    2.91    1.16
   7  -1  -5    3.69    1.07
   7  -1  -5    2.42    1.16
  -6   1   5   -1.16    0.78
  -6   1   5   -0.58    0.87
   6   1  -5    0.68    1.07
   6   1  -5    1.07    0.87
  -6  -1   5    1.16    1.07
  -6  -1   5   -0.58    0.58
   6  -1  -5    0.29    0.97
   6  -1  -5   -0.68    1.07
  -5   1   5   66.43    6.11
  -5   1   5   65.66    6.11
   5   1  -5   69.34    6.40
   5   1  -5   56.54    5.14
  -5  -1   5   60.23    5.53
  -5  -1   5   75.55    6.89
   5  -1  -5   74.00    6.79
   5  -1  -5   69.54    6.50
  -4   1   5  135.29   12.12
  -4   1   5  135.20   12.03
   4   1  -5  135.10   12.12
   4   1  -5  129.28   11.54
  -4  -1   5  121.42   10.86
  -4  -1   5  141.89   12.61
   4  -1  -5  131.12   11.74
   4  -1  -5  131.41   11.83
  -3   1   5   16.10    1.75
   3   1  -5   16.20    1.75
   3   1  -5   20.27    2.04
  -3  -1   5   18.72    1.84
  -3  -1   5   17.17    1.75
   3  -1  -5   16.88    1.94
  -2   1   5    9.70    1.16
  -2   1   5   11.93    1.55
   2   1  -5   10.28    1.16
   2   1  -5   12.03    1.36
  -2  -1   5   12.90    1.45
  -2  -1   5    9.80    1.07
   2  -1  -5    8.83    1.26
   2  -1  -5   12.41    1.36
  -1   1   5   47.33    4.46
  -1   1   5   49.07    4.56
   1   1  -5   54.99    4.95
   1   1  -5   50.14    4.56
  -1  -1   5   45.49    4.17
  -1  -1   5   51.69    4.75
   1  -1  -5   47.42    4.46
   1  -1  -5   47.62    4.36
   0   1   5  486.47   42.96
   0   1   5  460.38   40.64
   0   1  -5  522.06   45.97
   0   1  -5  535.25   47.13
   0  -1   5  526.52   46.36
   0  -1   5  624.67   54.99
   0  -1  -5  480.75   42.38
   0  -1  -5  486.57   42.96
   1   1   5    7.66    1.36
  -1   1  -5    5.43    0.87
  -1   1  -5    6.21    0.87
   1  -1   5    3.49    0.68
   1  -1   5    5.24    1.07
  -1  -1  -5    5.53    1.07
   2   1   5   13.38    1.75
   2   1   5    9.21    1.36
  -2   1  -5    8.83    1.26
  -2   1  -5    9.50    1.26
   2  -1   5    8.73    1.26
   2  -1   5    9.89    1.26
  -2  -1  -5   10.09    1.45
  -2  -1  -5   10.18    1.26
   3   1   5   18.81    2.13
   3   1   5   20.46    2.42
  -3   1  -5   18.62    1.94
  -3   1  -5   16.78    1.84
   3  -1   5   15.42    1.84
   3  -1   5   14.94    1.75
  -3  -1  -5   16.39    1.84
  -3  -1  -5   17.65    1.94
   4   1   5  376.49   33.36
   4   1   5  419.94   37.14
  -4   1  -5  403.35   35.59
   4  -1   5  342.06   30.26
   4  -1   5  414.41   36.66
  -4  -1  -5  375.81   33.17
  -4  -1  -5  387.35   34.24
   5   1   5  118.71   10.67
   5   1   5  118.42   10.77
  -5   1  -5  116.28   10.38
  -5   1  -5  158.67   14.26
   5  -1   5  130.35   11.74
  -5  -1  -5  120.16   10.77
  -5  -1  -5  119.29   10.77
   6   1   5   26.19    2.81
   6   1   5   22.40    2.52
  -6   1  -5   20.95    2.23
  -6   1  -5   32.88    3.39
   6  -1   5   21.82    2.42
   6  -1   5   23.57    2.52
  -6  -1  -5   33.65    3.39
  -6  -1  -5   22.02    2.33
   7   1   5   22.89    2.62
   7   1   5   24.44    2.72
  -7   1  -5   22.99    2.42
  -7   1  -5   29.97    3.30
   7  -1   5   27.83    3.01
  -7  -1  -5   23.76    2.62
  -7  -1  -5   31.33    3.39
   8   1   5    5.92    1.16
  -8   1  -5    4.66    1.16
  -8   1  -5   11.15    1.84
   8  -1   5   11.54    1.55
   8  -1   5    7.86    1.55
  -8  -1  -5   11.44    1.65
  -8  -1  -5    8.24    1.36
  -9   1  -5   50.14    4.85
  -9   1  -5   37.82    3.69
   9  -1   5   48.49    4.66
  -9  -1  -5   54.21    5.24
  10   1   5    2.91    1.26
  10   1   5   -1.36    1.36
 -10   1  -5    0.68    1.26
 -10   1  -5    0.10    1.26
  10  -1   5    2.42    1.16
  10  -1   5    1.16    1.16
 -10  -1  -5    0.78    1.36
 -12   2   5    0.87    0.78
 -12   2   5   -0.87    1.26
  12   2  -5   -1.36    1.45
 -12  -2   5   -1.94    1.55
 -12  -2   5    2.42    1.26
  12  -2  -5    3.39    0.97
  12  -2  -5    2.62    1.65
 -11   2   5   -1.07    1.16
  11   2  -5    3.30    1.36
  11   2  -5    1.75    0.87
 -11  -2   5    2.04    1.26
 -11  -2   5    2.04    1.45
  11  -2  -5    1.45    1.55
 -10   2   5   41.12    4.07
 -10   2   5   38.89    3.78
  10   2  -5   41.02    3.98
  10   2  -5   39.47    4.07
 -10  -2   5   35.88    3.69
 -10  -2   5   39.38    3.98
  10  -2  -5   34.82    3.39
  10  -2  -5   38.02    3.88
  -9   2   5  257.88   22.89
  -9   2   5  208.32   18.52
   9   2  -5  246.34   21.82
  -9  -2   5  221.03   19.69
   9  -2  -5  205.41   18.23
   9  -2  -5  255.75   22.89
  -8   2   5    7.56    1.26
   8   2  -5   10.28    1.55
   8   2  -5    7.27    1.45
  -8  -2   5    7.27    1.45
  -8  -2   5    8.83    1.55
   8  -2  -5    8.63    1.75
  -7   2   5   13.29    1.55
  -7   2   5   13.29    1.75
   7   2  -5   13.48    1.84
   7   2  -5   13.67    1.65
  -7  -2   5   15.81    1.94
  -7  -2   5   13.29    1.65
   7  -2  -5   10.28    1.75
   7  -2  -5   14.45    1.65
  -6   2   5   35.30    3.49
  -6   2   5   44.32    4.17
   6   2  -5   43.35    4.27
  -6  -2   5   49.56    4.66
   6  -2  -5   45.68    4.56
   6  -2  -5   43.16    4.07
  -5   2   5  128.89   11.64
  -5   2   5  121.13   10.86
   5   2  -5  126.47   11.25
   5  -2  -5  130.64   11.83
   5  -2  -5  134.23   12.03
  -4   2   5  898.94   79.14
  -4   2   5  857.43   75.45
   4   2  -5  886.43   77.88
   4   2  -5 1019.30   89.61
  -4  -2   5  951.60   83.70
   4  -2  -5  909.71   80.11
   4  -2  -5  895.16   78.75
  -3   2   5   66.92    6.11
  -3   2   5   69.15    6.40
   3   2  -5   66.63    6.11
   3   2  -5   60.81    5.43
   3  -2  -5   70.02    6.40
   3  -2  -5   67.50    6.30
  -2   2   5    4.27    1.07
  -2   2   5    3.69    0.78
   2   2  -5    4.66    0.68
   2   2  -5    4.17    0.68
   2  -2  -5    3.88    0.87
   2  -2  -5    4.66    0.97
  -1   2   5    3.59    0.78
  -1   2   5    4.36    1.07
   1   2  -5    4.36    0.58
   1   2  -5    4.85    0.68
  -1  -2   5    5.92    0.78
  -1  -2   5    4.36    0.68
   1  -2  -5    3.78    0.87
   1  -2  -5    3.98    0.87
   0   2   5   33.85    3.39
   0   2   5   31.62    3.10
   0   2  -5   39.57    3.59
   0   2  -5   40.54    3.69
   0  -2   5   35.59    3.20
   0  -2   5   39.76    3.69
   0  -2  -5   36.85    3.49
   0  -2  -5   34.62    3.39
   1   2   5   96.40    8.73
   1   2   5  128.89   11.64
  -1   2  -5  109.40    9.70
  -1   2  -5  114.25   10.18
   1  -2   5   98.92    8.83
   1  -2   5   90.49    8.05
  -1  -2  -5   97.95    8.83
  -1  -2  -5  114.54   10.38
   2   2   5    1.26    0.87
   2   2   5    3.78    1.16
  -2   2  -5    1.26    0.68
  -2   2  -5    1.84    0.68
   2  -2   5    0.58    0.68
   2  -2   5    1.65    0.68
  -2  -2  -5    2.13    0.97
  -2  -2  -5    2.04    0.87
   3   2   5   29.97    3.01
   3   2   5   42.28    4.07
  -3   2  -5   33.46    3.20
  -3   2  -5   32.10    3.10
   3  -2   5   31.52    3.01
   3  -2   5   35.30    3.39
  -3  -2  -5   32.20    3.10
  -3  -2  -5   33.85    3.30
   4   2   5    2.72    1.36
   4   2   5    2.42    1.07
  -4   2  -5    2.33    1.16
  -4   2  -5    1.94    0.87
   4  -2   5    1.94    0.97
  -4  -2  -5    2.13    1.07
  -4  -2  -5    4.75    1.26
   5   2   5   20.46    2.42
  -5   2  -5   29.29    3.01
  -5   2  -5   22.11    2.23
   5  -2   5   23.76    2.52
   5  -2   5   24.83    2.62
  -5  -2  -5   33.56    3.49
  -5  -2  -5   21.92    2.42
   6   2   5   18.14    2.23
   6   2   5   16.58    2.13
  -6   2  -5   25.22    2.72
  -6   2  -5   14.55    1.75
   6  -2   5   16.78    1.94
   6  -2   5   19.20    2.23
  -6  -2  -5   19.78    2.33
  -6  -2  -5   20.56    2.42
   7   2   5    0.58    1.16
   7   2   5    1.45    1.36
  -7   2  -5    0.58    1.36
   7  -2   5    1.84    0.97
   7  -2   5   -0.19    1.16
  -7  -2  -5   -0.87    1.07
  -7  -2  -5    2.23    1.16
   8   2   5   13.58    1.84
  -8   2  -5   14.94    1.84
  -8   2  -5   18.52    2.33
   8  -2   5   14.64    1.94
   8  -2   5   11.83    1.75
  -8  -2  -5   11.93    1.55
   9   2   5    4.36    1.26
  -9   2  -5    8.53    1.55
  -9   2  -5    5.43    1.26
   9  -2   5    6.89    1.65
   9  -2   5    7.18    1.16
  -9  -2  -5    4.66    1.55
 -11   3   5    2.91    1.16
 -11   3   5    0.29    1.26
  11   3  -5    1.55    1.07
  11   3  -5    1.84    1.36
 -11  -3   5    2.33    1.45
 -11  -3   5    0.48    1.26
  11  -3  -5   -1.55    1.45
  11  -3  -5    1.55    1.07
 -10   3   5    1.75    0.78
 -10   3   5    1.07    0.97
  10   3  -5    0.97    1.26
  10   3  -5    0.78    1.16
 -10  -3   5    1.07    1.26
 -10  -3   5    1.07    1.36
  10  -3  -5   -0.58    0.68
  10  -3  -5    0.48    1.26
  -9   3   5    1.75    1.16
  -9   3   5    0.10    0.97
   9   3  -5    3.30    1.16
  -9  -3   5    2.13    1.36
   9  -3  -5    2.23    1.36
   9  -3  -5    1.07    0.87
  -8   3   5   22.02    2.33
  -8   3   5   19.59    2.23
   8   3  -5   16.49    2.13
   8   3  -5   19.30    2.23
  -8  -3   5   20.08    2.33
  -8  -3   5   22.40    2.52
   8  -3  -5   23.57    2.72
   8  -3  -5   20.56    2.23
  -7   3   5    6.59    1.26
   7   3  -5    7.86    1.36
   7   3  -5    5.24    1.36
  -7  -3   5    6.89    1.45
  -7  -3   5   10.57    1.65
   7  -3  -5    5.14    1.45
  -6   3   5    0.58    0.87
   6   3  -5    0.87    1.07
   6   3  -5   -0.39    0.87
  -6  -3   5   -0.29    0.87
   6  -3  -5    1.65    0.78
  -5   3   5    9.99    1.36
  -5   3   5   11.74    1.65
   5   3  -5   11.25    1.36
   5   3  -5    8.05    1.26
  -5  -3   5   11.54    1.36
  -5  -3   5    8.92    1.26
   5  -3  -5   15.03    1.94
   5  -3  -5   11.15    1.45
  -4   3   5  153.04   13.77
  -4   3   5  141.79   12.70
   4   3  -5  161.38   14.35
   4   3  -5  164.58   14.55
  -4  -3   5  151.10   13.38
  -4  -3   5  145.67   12.90
   4  -3  -5  152.85   13.67
   4  -3  -5  155.95   14.06
  -3   3   5    3.30    0.87
  -3   3   5    5.72    1.07
   3   3  -5    3.49    0.48
   3   3  -5    3.49    0.58
  -3  -3   5    3.59    0.48
  -3  -3   5    2.52    0.58
   3  -3  -5    5.04    1.16
   3  -3  -5    4.66    0.87
  -2   3   5    1.45    0.78
  -2   3   5    0.00    0.68
   2  -3  -5    2.52    0.78
   2  -3  -5    1.65    0.87
  -1   3   5  538.55   47.42
  -1   3   5  577.05   50.92
   1  -3  -5  565.51   49.85
   1  -3  -5  554.94   48.98
   0   3   5   -1.45    0.68
   0   3   5   -0.29    0.87
   0  -3  -5   -0.78    0.87
   0  -3  -5    0.68    0.68
   1   3   5  236.54   21.05
   1   3   5  175.25   15.71
  -1  -3  -5  185.53   16.49
  -1  -3  -5  183.01   16.39
   2   3   5    1.16    0.87
   2   3   5   -0.48    0.78
  -2   3  -5    0.19    0.48
  -2   3  -5   -0.19    0.39
   2  -3   5    0.29    0.48
   2  -3   5    1.16    0.58
  -2  -3  -5   -0.68    0.68
  -2  -3  -5    0.29    0.68
   3   3   5   15.03    1.75
   3   3   5   19.40    2.23
  -3   3  -5   20.08    1.94
  -3   3  -5   13.97    1.45
   3  -3   5   16.10    1.65
   3  -3   5   17.36    1.84
  -3  -3  -5   18.81    2.04
  -3  -3  -5   19.78    2.23
   4   3   5   87.67    8.05
   4   3   5   92.13    8.44
  -4   3  -5  110.66    9.99
   4  -3   5   93.59    8.44
  -4  -3  -5   96.30    8.73
  -4  -3  -5   94.56    8.53
   5   3   5   52.95    5.04
   5   3   5   60.23    5.72
  -5   3  -5   62.55    5.72
   5  -3   5   62.94    5.82
   5  -3   5   58.97    5.43
  -5  -3  -5   61.68    5.82
  -5  -3  -5   66.82    6.21
   6   3   5    0.78    1.16
   6   3   5    0.58    0.97
  -6   3  -5    1.07    1.16
  -6   3  -5    1.75    0.97
   6  -3   5    1.65    1.07
   6  -3   5    1.84    1.16
  -6  -3  -5   -1.36    1.07
  -6  -3  -5    0.39    0.78
   7   3   5    5.24    1.26
   7   3   5    2.72    0.97
  -7   3  -5    3.59    1.16
  -7   3  -5    3.10    1.45
   7  -3   5    2.33    1.07
   7  -3   5    2.23    1.16
  -7  -3  -5    3.59    1.16
  -7  -3  -5    3.49    0.97
   8   3   5   59.94    5.63
  -8   3  -5   73.32    6.79
   8  -3   5   68.86    6.50
   8  -3   5   80.21    7.37
  -8  -3  -5   75.36    7.08
  -8  -3  -5   71.57    6.69
   9   3   5   12.90    1.65
  -9   3  -5   14.45    2.04
  -9   3  -5   11.54    1.75
   9  -3   5    9.41    1.84
   9  -3   5   14.64    1.84
  -9  -3  -5    7.18    1.55
  -9  -3  -5    9.80    1.36
 -11   4   5    2.81    1.16
  11   4  -5    2.23    0.97
  11   4  -5    0.68    1.45
 -11  -4   5   -1.07    1.45
 -11  -4   5    1.84    1.16
  11  -4  -5    1.84    0.97
 -10   4   5   19.01    2.13
 -10   4   5   12.80    1.55
  10   4  -5   15.61    1.94
 -10  -4   5   14.45    2.23
 -10  -4   5   14.94    2.04
  10  -4  -5   14.55    1.55
  10  -4  -5   16.97    2.33
  -9   4   5    4.85    1.26
   9   4  -5    4.46    1.16
  -9  -4   5    8.73    1.75
   9  -4  -5    8.83    1.36
  -8   4   5   65.17    6.01
  -8   4   5   65.37    6.01
   8   4  -5   62.85    5.82
   8   4  -5   53.34    5.24
  -8  -4   5   77.30    7.18
  -8  -4   5   69.44    6.50
   8  -4  -5   67.69    6.21
   8  -4  -5   67.11    6.40
  -7   4   5   18.52    2.04
  -7   4   5   19.78    2.33
   7   4  -5   17.65    2.23
   7   4  -5   17.46    1.94
  -7  -4   5   24.63    2.62
  -7  -4   5   20.85    2.42
   7  -4  -5   21.63    2.62
   7  -4  -5   21.63    2.33
  -6   4   5   73.32    6.69
  -6   4   5   65.17    6.11
   6   4  -5   72.16    6.69
   6   4  -5   74.97    6.79
  -6  -4   5   83.02    7.56
  -6  -4   5   88.16    8.05
   6  -4  -5   75.36    7.08
   6  -4  -5   80.40    7.37
  -5   4   5   36.27    3.49
  -5   4   5   38.41    3.78
   5   4  -5   40.83    3.78
   5   4  -5   30.55    3.01
  -5  -4   5   42.58    3.98
  -5  -4   5   36.17    3.39
   5  -4  -5   41.61    3.98
   5  -4  -5   39.86    3.98
  -4   4   5   65.27    6.11
  -3   4   5   51.79    4.95
  -3   4   5   42.58    3.98
   3  -4  -5   51.50    4.85
   3  -4  -5   49.17    4.56
  -2   4   5   24.92    2.52
  -2   4   5   30.84    3.20
   2  -4  -5   31.23    3.10
   2  -4  -5   27.74    2.81
  -1   4   5  337.11   29.97
  -1   4   5  294.93   26.09
   1  -4  -5  330.71   29.29
   1  -4  -5  312.38   27.74
   0   4   5   20.66    2.33
   0   4   5   17.75    1.94
   0  -4  -5   17.26    2.04
   0  -4  -5   23.08    2.33
   1   4   5   67.69    6.30
  -1  -4  -5   75.84    6.98
   2   4   5    3.30    1.07
   2   4   5    3.49    1.26
  -2  -4  -5    4.07    0.97
  -2  -4  -5    4.46    1.07
   3   4   5    2.04    1.16
  -3   4  -5    0.87    0.39
  -3   4  -5    0.19    0.29
   3  -4   5    0.87    0.58
   3  -4   5    0.29    0.48
  -3  -4  -5    0.10    0.97
   4   4   5    7.08    1.26
   4   4   5   10.67    1.75
  -4   4  -5    6.11    0.87
  -4   4  -5    9.99    1.36
   4  -4   5    9.12    1.26
   4  -4   5    7.56    1.16
  -4  -4  -5    8.83    1.45
  -4  -4  -5    6.50    1.36
   5   4   5    9.31    1.65
   5   4   5   10.86    1.55
  -5   4  -5    9.60    1.36
  -5   4  -5    8.63    1.36
   5  -4   5    9.60    1.55
  -5  -4  -5   14.74    1.94
  -5  -4  -5   11.15    1.45
   6   4   5   -0.10    1.26
   6   4   5    2.42    1.07
  -6   4  -5    1.45    0.97
  -6   4  -5    1.65    0.97
   6  -4   5    2.04    1.07
   6  -4   5    0.78    1.07
  -6  -4  -5   -0.68    1.36
  -6  -4  -5    3.88    1.26
   7   4   5   -1.65    1.16
   7   4   5    0.19    0.87
  -7   4  -5   -0.68    1.07
  -7   4  -5    2.04    1.26
   7  -4   5    1.07    0.87
   7  -4   5    1.07    1.26
  -7  -4  -5    1.07    1.07
  -7  -4  -5    0.29    1.16
   8   4   5    4.17    0.97
   8   4   5    0.48    1.45
  -8   4  -5    1.26    1.26
  -8   4  -5    4.75    1.45
   8  -4   5    5.72    1.36
   8  -4   5    5.72    1.65
  -8  -4  -5    5.82    1.07
  -8  -4  -5    3.78    1.45
  -9   5   5    1.07    0.97
  -9   5   5    0.29    0.87
   9   5  -5   -2.04    1.36
   9   5  -5    1.26    0.97
  -9  -5   5   -0.68    1.36
  -9  -5   5   -0.48    1.26
   9  -5  -5    1.45    0.78
   9  -5  -5   -0.58    1.07
  -8   5   5    8.44    1.36
  -8   5   5   13.97    1.84
   8   5  -5   10.28    1.65
   8   5  -5    9.50    1.84
  -8  -5   5   17.75    2.23
  -8  -5   5   10.86    1.84
   8  -5  -5   14.45    1.84
   8  -5  -5   13.00    1.84
  -7   5   5   22.50    2.33
  -7   5   5   23.76    2.62
   7   5  -5   17.26    2.23
  -7  -5   5   23.08    2.52
  -7  -5   5   24.05    2.62
   7  -5  -5   28.90    3.01
   7  -5  -5   23.57    2.72
  -6   5   5    8.24    1.36
  -6   5   5   10.28    1.36
   6   5  -5    5.43    1.07
  -6  -5   5    7.76    1.16
   6  -5  -5    9.89    1.36
   6  -5  -5   12.22    1.75
  -5   5   5    6.79    1.36
  -5   5   5    7.18    1.16
   5  -5  -5    4.75    1.07
   5  -5  -5    4.17    1.16
  -4   5   5    4.75    0.97
  -4   5   5    6.21    1.36
   4  -5  -5    5.04    1.07
   4  -5  -5    6.69    1.26
  -3   5   5   52.76    4.85
  -3   5   5   58.87    5.63
   3  -5  -5   58.09    5.33
   3  -5  -5   60.91    5.72
  -2   5   5    4.07    0.87
   2  -5  -5    2.72    0.97
  -1   5   5   -0.48    0.68
   1  -5  -5    0.68    0.97
   0   5   5    2.04    0.97
   0  -5  -5    1.75    0.87
   0  -5  -5    1.84    0.97
   1   5   5  309.38   27.45
   1   5   5  256.72   22.99
  -1  -5  -5  262.05   23.28
  -1  -5  -5  276.21   24.54
   2   5   5  111.53   10.18
   2   5   5  117.74   10.67
  -2  -5  -5  112.79   10.18
  -2  -5  -5  110.66    9.99
   3   5   5   33.56    3.49
   3   5   5   41.70    4.07
  -3  -5  -5   38.02    3.69
  -3  -5  -5   43.06    4.07
   4   5   5    9.12    1.45
   4   5   5    6.40    1.26
  -4  -5  -5    8.15    1.26
  -4  -5  -5    6.79    1.26
   5   5   5   -0.19    0.87
   5   5   5    0.00    1.26
  -5   5  -5    0.58    0.58
  -5   5  -5    0.97    0.68
   5  -5   5    1.84    0.87
   5  -5   5    0.87    0.78
  -5  -5  -5    1.26    0.97
  -5  -5  -5    1.36    1.36
   6   5   5   13.77    2.13
   6   5   5   13.77    1.65
  -6   5  -5   11.83    1.55
   6  -5   5   12.32    1.84
   6  -5   5   16.88    1.94
  -6  -5  -5   17.46    2.23
  -6  -5  -5   13.48    1.84
   7   5   5   54.21    5.14
   7   5   5   51.01    4.85
   7  -5   5   66.92    6.30
  -7  -5  -5   77.68    7.18
  -7  -5  -5   75.84    6.98
  -8   6   5    4.56    1.16
  -8   6   5    8.83    1.45
   7   6  -5    0.78    1.16
   7   6  -5    2.13    0.97
  -7  -6   5    2.91    1.07
   7  -6  -5    3.10    1.36
   7  -6  -5    6.50    1.26
  -6   6   5   32.88    3.30
  -6   6   5   38.31    3.69
  -6  -6   5   19.88    2.04
  -6  -6   5   21.82    2.13
   6  -6  -5   23.76    2.72
  -5   6   5    2.52    1.07
   5  -6  -5    1.65    0.87
  -4   6   5   -1.26    0.78
   4  -6  -5    0.87    0.87
   4  -6  -5    1.45    0.97
  -3   6   5    6.79    1.45
  -3   6   5    7.08    1.16
   3  -6  -5    8.73    1.26
   3  -6  -5    9.70    1.55
  -2   6   5   58.38    5.43
  -2   6   5   72.45    6.79
   2  -6  -5   66.82    6.30
   2  -6  -5   69.93    6.40
  -1   6   5   31.03    3.10
  -1   6   5   37.63    3.78
   1  -6  -5   37.14    3.59
   1  -6  -5   38.21    3.88
   0   6   5    7.66    1.45
   0   6   5    6.01    1.26
   0  -6  -5    7.76    1.55
   0  -6  -5    4.85    0.97
   1   6   5   49.56    4.85
   1   6   5   39.57    3.98
  -1  -6  -5   40.25    3.98
  -1  -6  -5   40.73    3.88
   2   6   5   99.31    9.21
   2   6   5   93.78    8.63
  -2  -6  -5  107.36    9.70
  -2  -6  -5   98.83    9.02
   3   6   5   27.45    2.91
   3   6   5   23.66    2.52
  -3  -6  -5   29.10    2.91
  -3  -6  -5   24.92    2.62
   4   6   5   -0.39    1.55
   4   6   5    0.48    0.97
  -4  -6  -5    1.65    1.26
  -4  -6  -5    1.26    0.87
   5   6   5    1.07    1.45
  -5  -6  -5    0.78    1.16
  -5  -6  -5    2.52    0.97
  -5   7   5    3.78    1.16
  -5   7   5    2.42    1.07
   5  -7  -5    2.52    1.16
   5  -7  -5    4.66    1.07
  -4   7   5   -1.16    0.97
  -4   7   5    1.16    1.07
   4  -7  -5   -0.58    0.87
   4  -7  -5   -0.78    0.97
  -3   7   5    2.13    1.07
  -3   7   5    3.30    0.97
   3  -7  -5    2.62    0.97
   3  -7  -5    1.94    1.16
  -2   7   5   31.33    3.10
   2  -7  -5   26.77    3.01
   2  -7  -5   31.71    3.10
  -1   7   5    1.36    1.16
   1  -7  -5   -0.19    0.87
   1  -7  -5    0.78    0.78
   0   7   5    0.10    0.97
   0   7   5   -1.26    1.16
   0  -7  -5    0.10    1.26
   0  -7  -5   -0.29    0.78
   1   7   5    1.26    0.97
   1   7   5    0.78    1.26
  -1  -7  -5    2.04    0.68
  -1  -7  -5    1.75    0.97
   2   7   5   15.32    1.94
   2   7   5   16.10    1.84
 -12   0   6    2.33    0.87
  12   0  -6    4.17    1.16
 -11   0   6    0.97    0.87
  11   0  -6    0.39    0.97
 -10   0   6   78.75    7.18
 -10   0   6   67.79    6.21
  10   0  -6   68.96    6.30
  10   0  -6   76.52    7.18
  -9   0   6    2.72    1.07
   9   0  -6    3.78    1.36
  -8   0   6   -0.48    0.97
   8   0  -6   -0.68    0.78
  -7   0   6   17.84    2.04
  -7   0   6   17.46    1.94
   7   0  -6   19.01    2.33
   7   0  -6   16.68    1.84
  -6   0   6  261.66   23.18
  -6   0   6  220.15   19.49
   6   0  -6  249.73   22.21
   6   0  -6  231.98   20.56
  -5   0   6  447.77   39.47
  -5   0   6  394.53   34.82
   5   0  -6  445.25   39.38
   5   0  -6  439.14   38.70
  -4   0   6   12.70    1.55
  -4   0   6   10.67    1.45
   4   0  -6   12.12    1.65
  -3   0   6   78.27    7.27
  -3   0   6   66.63    6.11
   3   0  -6   67.89    6.21
   3   0  -6   61.58    5.72
  -2   0   6   38.70    3.78
  -2   0   6   35.69    3.39
   2   0  -6   32.49    3.10
   2   0  -6   36.95    3.49
  -1   0   6  888.76   78.17
  -1   0   6  936.67   82.44
   1   0  -6  869.07   76.52
   1   0  -6  889.53   78.27
   0   0   6   25.99    2.72
   0   0   6   19.59    2.13
   0   0  -6   19.59    2.04
   0   0  -6   19.11    1.94
   1   0   6   11.25    1.45
  -1   0  -6   11.64    1.45
   2   0   6   21.82    2.33
   2   0   6   25.51    2.62
  -2   0  -6   22.99    2.33
  -2   0  -6   23.86    2.42
   3   0   6 1136.65   99.99
   3   0   6 1274.36  112.02
  -3   0  -6 1169.62  102.90
  -3   0  -6 1179.32  103.68
   4   0   6 1107.55   97.47
   4   0   6 1157.98  101.93
  -4   0  -6 1127.92   99.21
  -4   0  -6 1114.34   97.95
   5   0   6   20.08    2.42
   5   0   6   20.56    2.42
   6   0   6    5.33    1.55
  -6   0  -6    2.04    1.16
  -6   0  -6    3.59    1.16
   7   0   6    0.68    0.97
   7   0   6    2.81    1.26
  -7   0  -6    1.26    1.07
  -7   0  -6    0.39    0.97
   8   0   6   54.31    5.24
  -8   0  -6   45.58    4.36
   9   0   6    1.26    1.07
   9   0   6   -0.87    1.55
  -9   0  -6    0.00    1.26
  -9   0  -6    0.48    0.97
 -12   1   6    7.95    1.45
 -12   1   6    5.53    1.36
  12   1  -6   10.57    1.55
  12   1  -6    4.85    1.65
 -12  -1   6   10.09    1.55
  12  -1  -6   10.47    1.45
  12  -1  -6    4.95    1.84
 -11   1   6    8.15    1.45
 -11   1   6    6.11    1.45
  11   1  -6    5.82    1.26
  11   1  -6    6.50    1.55
 -11  -1   6    6.98    1.55
 -11  -1   6    7.66    1.45
  11  -1  -6    9.50    1.45
  11  -1  -6    4.27    1.65
 -10   1   6  273.59   24.25
 -10   1   6  318.78   28.22
  10   1  -6  295.90   26.19
  10   1  -6  308.21   27.45
 -10  -1   6  266.51   23.66
 -10  -1   6  337.41   29.87
  10  -1  -6  258.46   22.89
  10  -1  -6  311.61   27.83
  -9   1   6   93.01    8.44
  -9   1   6   75.65    6.98
   9   1  -6   79.43    7.27
   9   1  -6   91.75    8.53
  -9  -1   6   75.07    6.98
  -9  -1   6   98.05    8.92
   9  -1  -6   85.64    7.95
   9  -1  -6   70.02    6.40
  -8   1   6   14.16    1.75
  -8   1   6   11.93    1.65
   8   1  -6   15.32    1.84
   8   1  -6   12.70    1.84
  -8  -1   6   11.93    1.65
   8  -1  -6   11.83    1.55
   8  -1  -6   13.67    1.94
  -7   1   6   -0.68    0.97
  -7   1   6    0.10    1.07
   7   1  -6    1.07    0.87
   7   1  -6   -0.58    1.16
  -7  -1   6    0.19    0.97
   7  -1  -6    0.39    0.97
   7  -1  -6   -1.45    0.97
  -6   1   6   67.99    6.30
  -6   1   6   72.06    6.59
   6   1  -6   55.77    5.14
  -6  -1   6   65.08    5.92
  -6  -1   6   76.04    6.98
   6  -1  -6   68.28    6.40
   6  -1  -6   68.08    6.21
  -5   1   6  245.95   21.92
  -5   1   6  263.41   23.37
  -5  -1   6  273.40   24.25
   5  -1  -6  260.59   23.18
   5  -1  -6  260.59   23.08
  -4   1   6    1.36    0.78
  -4   1   6    0.39    1.07
   4   1  -6    0.97    1.07
  -4  -1   6   -0.10    0.68
  -4  -1   6    3.20    0.97
   4  -1  -6    0.68    0.87
   4  -1  -6    1.16    1.07
  -3   1   6    1.16    0.87
  -3   1   6    2.72    0.78
   3   1  -6    2.62    0.87
  -3  -1   6    2.33    0.78
  -3  -1   6    2.42    0.97
   3  -1  -6    2.42    0.78
   3  -1  -6    3.59    0.97
  -2   1   6  114.05   10.28
  -2   1   6  119.19   10.86
  -2  -1   6  124.82   11.25
  -2  -1   6  111.82    9.99
   2  -1  -6  111.43   10.09
   2  -1  -6  114.25   10.28
  -1   1   6  121.81   11.06
  -1   1   6  121.33   10.86
  -1  -1   6  115.80   10.38
  -1  -1   6  136.36   12.22
   1  -1  -6  119.19   10.67
   1  -1  -6  122.68   11.06
   0   1   6   43.74    4.27
   0   1   6   36.56    3.49
   0   1  -6   42.96    3.98
   0  -1   6   39.57    3.78
   0  -1  -6   37.82    3.59
   0  -1  -6   38.02    3.69
   1   1   6   -1.36    1.16
   1   1   6    0.48    0.87
  -1   1  -6    0.48    0.68
  -1  -1  -6    0.19    0.68
  -1  -1  -6    0.68    0.87
   2   1   6    7.56    1.26
   2   1   6    7.66    1.45
  -2   1  -6    6.79    1.16
  -2   1  -6    6.30    1.07
   2  -1   6    5.92    1.16
   2  -1   6    5.72    1.16
  -2  -1  -6    6.69    1.16
  -2  -1  -6    7.37    1.07
   3   1   6   31.91    3.20
   3   1   6   33.75    3.49
  -3   1  -6   33.46    3.30
   3  -1   6   30.26    3.10
   3  -1   6   29.48    3.01
  -3  -1  -6   27.25    2.72
  -3  -1  -6   28.90    2.91
   4   1   6   90.68    8.34
   4   1   6  102.51    9.31
  -4   1  -6  105.62    9.50
  -4   1  -6   99.70    9.02
   4  -1   6   94.07    8.53
   4  -1   6   96.50    8.83
  -4  -1  -6  101.35    9.21
  -4  -1  -6   94.17    8.53
   5   1   6    1.94    1.16
   5   1   6    0.97    1.36
  -5   1  -6    0.00    0.97
  -5   1  -6    0.97    0.97
   5  -1   6    1.26    1.07
   5  -1   6    0.48    0.97
  -5  -1  -6    0.39    1.07
  -5  -1  -6    1.75    1.16
   6   1   6    4.36    1.45
   6   1   6    2.91    1.26
  -6   1  -6    6.11    1.36
   6  -1   6    2.91    1.45
   6  -1   6    2.42    1.26
  -6  -1  -6    2.62    1.16
  -6  -1  -6    2.52    1.07
   7   1   6    1.75    1.07
   7   1   6   -1.26    0.97
  -7   1  -6    0.58    0.97
   7  -1   6    0.48    1.07
   7  -1   6   -0.78    1.07
  -7  -1  -6   -1.55    1.07
  -7  -1  -6    0.58    0.97
   8   1   6   12.51    2.04
  -8   1  -6   15.91    1.94
   8  -1   6   17.46    2.13
  -8  -1  -6   13.58    1.94
   9  -1   6   14.16    1.94
  -9  -1  -6   15.61    1.94
  -9  -1  -6   14.06    1.94
 -12   2   6   -1.36    0.97
  12   2  -6    0.87    1.55
  12   2  -6    1.26    0.97
 -12  -2   6    3.30    1.65
 -12  -2   6    0.29    1.16
  12  -2  -6    0.78    0.87
 -11   2   6   17.17    2.04
 -11   2   6   16.29    1.94
  11   2  -6   16.97    2.04
  11   2  -6   10.38    1.94
 -11  -2   6   11.93    1.84
 -11  -2   6   13.09    2.04
  11  -2  -6   16.49    2.23
  11  -2  -6   20.75    2.23
 -10   2   6   23.28    2.42
  10   2  -6   21.05    2.62
  10   2  -6   28.90    2.91
 -10  -2   6   24.44    2.72
 -10  -2   6   21.14    2.42
  10  -2  -6   20.75    2.13
  -9   2   6   42.38    4.07
  -9   2   6   39.18    3.88
   9   2  -6   44.32    4.27
   9   2  -6   33.75    3.69
  -9  -2   6   37.53    3.69
   9  -2  -6   39.86    4.17
   9  -2  -6   35.01    3.39
  -8   2   6    1.65    1.16
  -8   2   6    1.65    0.97
   8   2  -6   -0.48    1.07
   8   2  -6    1.07    1.26
  -8  -2   6    0.29    1.07
  -8  -2   6    0.97    1.16
   8  -2  -6   -0.97    0.97
   8  -2  -6   -0.58    1.26
  -7   2   6   -0.39    1.16
  -7   2   6    0.29    0.97
   7   2  -6    2.52    1.36
   7   2  -6    1.07    0.87
  -7  -2   6    0.78    1.07
  -7  -2   6    0.78    0.87
   7  -2  -6    1.36    1.26
   7  -2  -6    1.65    1.07
  -6   2   6    1.55    0.87
  -6   2   6   -0.68    0.78
   6   2  -6    1.55    0.97
  -6  -2   6    0.97    0.87
  -6  -2   6    0.19    0.97
   6  -2  -6   -0.10    1.26
   6  -2  -6    0.48    0.87
  -5   2   6  609.35   53.73
  -5   2   6  586.46   51.69
   5   2  -6  670.54   59.16
   5   2  -6  580.93   51.11
  -5  -2   6  477.26   41.99
   5  -2  -6  599.55   52.86
   5  -2  -6  628.74   55.57
  -4   2   6  181.55   16.29
  -4   2   6  175.25   15.61
   4   2  -6  185.14   16.49
   4   2  -6  163.32   14.45
  -4  -2   6  158.57   14.06
  -4  -2   6  186.11   16.49
   4  -2  -6  186.98   16.68
   4  -2  -6  168.07   15.13
  -3   2   6   95.04    8.73
  -3   2   6   81.66    7.37
   3   2  -6   88.35    7.86
   3   2  -6   92.04    8.24
  -3  -2   6   93.30    8.34
  -3  -2   6   83.11    7.47
   3  -2  -6   87.96    7.95
   3  -2  -6   80.98    7.47
  -2   2   6  117.54   10.67
  -2   2   6  105.52    9.50
   2   2  -6  117.06   10.47
   2   2  -6  127.34   11.25
  -2  -2   6  111.82    9.99
  -2  -2   6  113.28   10.09
   2  -2  -6  112.69   10.18
   2  -2  -6  103.87    9.41
  -1   2   6    0.58    0.87
  -1   2   6   -0.87    0.68
   1   2  -6   -0.10    0.48
   1   2  -6    0.97    0.48
  -1  -2   6    0.58    0.58
  -1  -2   6    0.68    0.68
   1  -2  -6    1.36    0.78
   1  -2  -6    0.39    0.68
   0   2   6   82.73    7.66
   0   2   6   65.85    6.01
   0   2  -6   92.23    8.24
   0   2  -6   88.55    7.86
   0  -2   6   88.45    7.95
   0  -2   6   89.90    8.05
   0  -2  -6   81.37    7.37
   0  -2  -6   70.12    6.50
   1   2   6   11.74    1.75
   1   2   6    8.92    1.36
  -1   2  -6    9.21    1.07
  -1   2  -6   10.77    1.26
   1  -2   6    6.98    0.97
   1  -2   6    8.24    1.07
  -1  -2  -6    9.99    1.45
  -1  -2  -6    9.50    1.26
   2   2   6   40.15    3.98
   2   2   6   31.71    3.20
  -2   2  -6   31.91    3.01
  -2   2  -6   29.58    2.81
   2  -2   6   29.00    2.81
   2  -2   6   29.48    2.81
  -2  -2  -6   31.13    3.10
  -2  -2  -6   29.77    2.91
   3   2   6  140.53   12.61
   3   2   6  122.78   11.15
  -3   2  -6  138.69   12.41
  -3   2  -6  122.10   10.86
   3  -2   6  123.94   11.15
   3  -2   6  114.05   10.18
  -3  -2  -6  128.89   11.54
  -3  -2  -6  123.56   11.06
   4   2   6   68.57    6.50
   4   2   6   59.06    5.53
  -4   2  -6   56.15    5.14
   4  -2   6   52.86    4.95
   4  -2   6   54.50    5.14
  -4  -2  -6   54.41    5.04
  -4  -2  -6   61.78    5.82
   5   2   6    5.72    1.36
   5   2   6    7.27    1.65
  -5   2  -6    5.43    1.07
  -5   2  -6    5.33    1.07
   5  -2   6    5.43    1.26
   5  -2   6    3.88    1.07
  -5  -2  -6    2.81    1.26
  -5  -2  -6    3.69    1.26
   6   2   6    2.81    1.07
   6   2   6    3.98    1.36
  -6   2  -6    1.94    1.07
  -6   2  -6    4.75    1.55
   6  -2   6    2.23    1.07
   6  -2   6    2.52    1.07
  -6  -2  -6    3.88    1.26
  -6  -2  -6    2.23    1.07
   7   2   6   33.46    3.30
   7   2   6   46.36    4.56
  -7   2  -6   44.22    4.27
   7  -2   6   41.70    4.07
  -7  -2  -6   42.67    4.17
  -7  -2  -6   47.62    4.56
   8   2   6   12.22    1.94
   8   2   6   20.46    2.42
  -8   2  -6   16.39    1.94
   8  -2   6   21.92    2.52
   8  -2   6   25.12    2.72
  -8  -2  -6   22.21    2.52
  -8  -2  -6   19.01    2.42
   9   2   6   -0.10    0.97
   9   2   6    0.19    0.97
  -9   2  -6    0.68    0.87
   9  -2   6    1.36    1.07
  -9  -2  -6    1.16    1.16
  -9  -2  -6    1.84    1.16
 -11   3   6    2.91    0.78
 -11   3   6   -0.48    1.16
  11   3  -6   -0.19    1.36
  11   3  -6    2.91    1.16
 -11  -3   6    0.78    1.07
 -11  -3   6   -0.29    1.45
  11  -3  -6    0.97    1.55
  11  -3  -6    2.04    0.68
 -10   3   6    3.39    1.26
 -10   3   6    0.68    1.16
  10   3  -6    2.91    1.26
  10   3  -6    2.33    1.55
 -10  -3   6    2.04    1.36
 -10  -3   6    1.84    1.36
  10  -3  -6    2.91    1.16
  10  -3  -6    0.78    1.45
  -9   3   6    2.33    0.97
  -9   3   6    4.85    1.16
   9   3  -6    4.27    1.26
  -9  -3   6    0.19    1.36
   9  -3  -6    2.81    0.97
   9  -3  -6    3.49    1.26
  -8   3   6    0.39    0.97
  -8   3   6    0.68    1.07
   8   3  -6    0.19    1.07
   8   3  -6   -1.07    1.26
  -8  -3   6    0.00    1.16
  -8  -3   6    0.39    1.26
   8  -3  -6    0.19    1.26
   8  -3  -6   -0.10    0.68
  -7   3   6   -0.97    0.58
  -7   3   6    0.48    0.97
   7   3  -6    0.58    1.26
   7   3  -6    0.97    0.97
  -7  -3   6    1.16    1.07
  -7  -3   6   -0.58    0.87
   7  -3  -6    0.68    0.68
   7  -3  -6    0.10    0.87
  -6   3   6    2.23    0.78
   6   3  -6    3.01    1.07
   6   3  -6    4.75    0.97
  -6  -3   6    2.52    0.78
   6  -3  -6    0.48    0.97
  -5   3   6   98.15    9.02
   5   3  -6  103.48    9.41
   5   3  -6   98.54    8.83
  -5  -3   6  103.38    9.21
  -5  -3   6   80.21    7.18
   5  -3  -6  101.74    9.21
  -4   3   6   89.03    8.05
  -4   3   6   99.21    9.12
   4   3  -6   91.46    8.15
   4   3  -6   93.59    8.44
  -4  -3   6   94.56    8.44
  -4  -3   6   76.91    6.89
   4  -3  -6   93.01    8.53
   4  -3  -6   93.98    8.53
  -3   3   6    6.01    0.97
  -3   3   6    6.59    1.26
   3   3  -6    5.14    0.58
   3   3  -6    5.04    0.58
  -3  -3   6    4.36    0.58
  -3  -3   6    5.33    0.58
   3  -3  -6    5.14    1.16
   3  -3  -6    4.85    0.87
  -2   3   6  313.45   27.74
  -2   3   6  339.73   30.16
   2  -3  -6  327.80   29.00
   2  -3  -6  322.18   28.61
  -1   3   6  335.27   29.77
  -1   3   6  294.54   26.09
   1  -3  -6  304.14   26.96
   1  -3  -6  316.94   28.03
   0   3   6   83.89    7.76
   0   3   6   72.93    6.69
   0  -3  -6   84.18    7.76
   0  -3  -6   85.35    7.76
   1   3   6   32.88    3.30
   1   3   6   24.15    2.62
  -1  -3  -6   28.51    2.81
  -1  -3  -6   28.42    2.91
   2   3   6   24.34    2.62
  -2   3  -6   19.88    1.94
  -2   3  -6   17.65    1.75
   2  -3   6   19.40    1.94
   2  -3   6   19.98    1.94
  -2  -3  -6   22.69    2.42
  -2  -3  -6   27.35    2.91
   3   3   6   35.11    3.49
  -3   3  -6   26.19    2.52
  -3   3  -6   26.38    2.52
   3  -3   6   26.38    2.52
   3  -3   6   25.89    2.62
  -3  -3  -6   29.97    3.01
   4   3   6   74.77    6.98
   4   3   6   57.51    5.43
  -4   3  -6   59.45    5.53
  -4   3  -6   60.03    5.53
   4  -3   6   58.77    5.53
   4  -3   6   58.38    5.33
  -4  -3  -6   63.72    5.92
  -4  -3  -6   65.66    6.01
   5   3   6   22.99    2.62
   5   3   6   30.65    3.20
  -5   3  -6   22.21    2.42
  -5   3  -6   28.32    2.91
   5  -3   6   24.83    2.72
   5  -3   6   27.16    2.81
  -5  -3  -6   26.67    2.81
  -5  -3  -6   31.52    3.20
   6   3   6   12.41    1.75
   6   3   6   10.67    1.55
  -6   3  -6   15.91    2.13
  -6   3  -6   11.44    1.55
   6  -3   6   12.80    1.75
   6  -3   6   11.35    1.75
  -6  -3  -6   12.41    1.75
  -6  -3  -6   11.64    1.65
   7   3   6    9.41    1.55
   7   3   6    9.60    1.75
  -7   3  -6   14.84    2.13
   7  -3   6   14.64    1.94
  -7  -3  -6   14.16    2.04
  -7  -3  -6   10.47    1.75
   8   3   6   40.64    3.98
  -8   3  -6   53.63    5.14
  -8   3  -6   38.21    3.88
   8  -3   6   47.72    4.66
   8  -3   6   48.78    4.75
  -8  -3  -6   35.69    3.69
  -8  -3  -6   44.90    4.36
 -10   4   6    5.63    1.16
 -10   4   6    5.04    1.26
  10   4  -6    0.29    1.36
  10   4  -6    4.75    1.16
 -10  -4   6    5.72    1.55
 -10  -4   6    3.98    1.45
  10  -4  -6    4.95    1.36
  10  -4  -6    3.49    0.97
  -9   4   6    4.75    0.97
  -9   4   6    3.49    0.87
   9   4  -6    3.30    1.07
  -9  -4   6    3.69    1.45
   9  -4  -6    4.17    1.45
   9  -4  -6    3.49    0.87
  -8   4   6    4.27    1.26
   8   4  -6    5.24    1.16
   8   4  -6    3.49    1.45
  -8  -4   6    3.39    1.36
  -8  -4   6    5.04    1.26
   8  -4  -6    5.53    1.16
  -7   4   6   13.09    1.75
  -7   4   6   13.58    1.55
   7   4  -6   18.14    2.42
  -7  -4   6   15.91    1.94
  -7  -4   6   18.33    2.23
   7  -4  -6   15.13    2.04
   7  -4  -6   14.55    1.75
  -6   4   6   57.90    5.33
  -6   4   6   56.54    5.43
   6   4  -6   62.94    5.72
  -6  -4   6   64.59    5.92
   6  -4  -6   66.34    6.11
   6  -4  -6   64.88    6.11
  -5   4   6    2.13    1.07
  -5   4   6    2.81    0.87
  -5  -4   6    2.04    0.58
  -5  -4   6    2.62    0.78
   5  -4  -6    2.42    0.97
   5  -4  -6    4.27    1.16
  -4   4   6   31.13    3.10
   4  -4  -6   31.23    3.20
  -3   4   6    0.00    0.58
   3  -4  -6    1.75    0.78
  -2   4   6  233.25   20.85
  -2   4   6  199.20   17.75
   2  -4  -6  228.20   20.27
   2  -4  -6  213.46   19.11
  -1   4   6    5.33    0.97
  -1   4   6    8.24    1.45
   1  -4  -6    7.86    1.16
   1  -4  -6    6.01    1.16
   0  -4  -6   15.61    1.94
   1   4   6   14.64    1.94
   1   4   6   18.91    2.33
  -1  -4  -6   13.77    1.75
  -1  -4  -6   18.62    2.23
   2   4   6    0.68    0.97
   2   4   6   -0.48    1.16
  -2  -4  -6    1.65    0.87
  -2  -4  -6    1.94    1.07
   3   4   6    4.17    0.97
   3   4   6    2.81    1.07
  -3  -4  -6    4.27    0.97
  -3  -4  -6    2.62    0.97
   4   4   6    0.68    0.87
   4   4   6   -0.68    1.07
  -4   4  -6    0.58    0.58
  -4   4  -6    0.10    0.48
   4  -4   6    0.78    0.68
   4  -4   6   -0.19    0.68
  -4  -4  -6    1.07    0.97
  -4  -4  -6   -0.58    0.87
   5   4   6   11.44    1.55
  -5   4  -6    9.89    1.26
  -5   4  -6    8.53    1.36
   5  -4   6    9.21    1.45
  -5  -4  -6   12.90    1.75
   6   4   6   15.81    1.94
   6   4   6   17.75    2.42
  -6   4  -6   14.64    2.04
  -6   4  -6   18.43    2.13
   6  -4   6   17.55    2.23
   6  -4   6   17.84    2.13
  -6  -4  -6   20.27    2.33
  -6  -4  -6   26.77    3.10
   7   4   6    4.46    1.16
   7   4   6    2.13    1.07
  -7   4  -6    3.98    1.36
  -7   4  -6    1.75    1.07
   7  -4   6    4.56    1.36
   7  -4   6    7.66    1.55
  -7  -4  -6    4.75    1.26
  -7  -4  -6    4.66    1.16
  -9   5   6    5.14    1.16
   9   5  -6    3.59    1.75
  -9  -5   6   11.93    1.75
  -9  -5   6    8.15    1.65
   9  -5  -6   12.90    1.65
   9  -5  -6    7.66    1.45
  -8   5   6   15.23    1.84
  -8   5   6    9.41    1.55
   8   5  -6    9.21    1.55
  -8  -5   6   11.74    1.84
  -8  -5   6    9.31    1.65
   8  -5  -6   15.23    1.75
   8  -5  -6    8.15    1.45
  -7   5   6   -0.68    0.87
  -7   5   6   -0.97    0.87
   7   5  -6    0.78    1.07
   7   5  -6   -0.29    0.78
  -7  -5   6   -0.68    0.78
   7  -5  -6    0.48    1.07
   7  -5  -6    2.04    0.97
  -6   5   6   13.29    1.65
  -6   5   6   19.01    2.23
  -6  -5   6    9.21    1.07
  -6  -5   6    9.31    1.16
  -5   5   6    7.37    1.16
  -5   5   6    8.24    1.45
   5  -5  -6    8.73    1.26
   5  -5  -6   10.38    1.55
  -4   5   6   79.82    7.27
  -4   5   6   94.66    8.73
   4  -5  -6   95.53    8.63
   4  -5  -6   85.35    7.86
  -3   5   6    8.05    1.36
  -3   5   6    6.50    1.07
   3  -5  -6   10.86    1.45
   3  -5  -6    6.89    1.07
  -2   5   6   29.10    2.81
  -2   5   6   32.59    3.39
   2  -5  -6   33.56    3.30
   2  -5  -6   34.24    3.30
  -1   5   6    2.42    0.78
  -1   5   6    2.62    0.87
   1  -5  -6    4.07    0.87
   1  -5  -6    2.04    0.97
   0   5   6  108.62    9.89
   0   5   6   89.71    8.34
   0  -5  -6   86.99    8.05
   0  -5  -6   86.51    7.86
   1   5   6   95.82    8.83
   1   5   6   78.94    7.37
  -1  -5  -6   82.73    7.66
  -1  -5  -6   79.91    7.27
   2   5   6    9.12    1.65
   2   5   6   11.64    1.65
  -2  -5  -6   10.57    1.65
  -2  -5  -6   10.28    1.45
   3   5   6   -0.68    1.07
  -3  -5  -6   -0.48    0.87
   4   5   6   -0.19    1.16
  -4  -5  -6   -0.29    0.78
   5   5   6   -0.19    0.87
   5   5   6   -1.07    1.55
  -5   5  -6   -0.29    0.19
  -5  -5  -6    1.65    1.36
  -5  -5  -6    0.29    0.78
  -6  -5  -6   30.16    3.30
  -6  -5  -6   37.24    3.59
  -7   6   6   57.03    5.33
   7  -6  -6   67.69    6.21
  -6   6   6    5.43    1.16
  -6   6   6    4.07    1.16
   6  -6  -6    5.04    1.26
   6  -6  -6    6.59    1.07
  -5   6   6    0.58    1.07
  -5   6   6    0.19    0.87
   5  -6  -6   -0.10    0.87
   5  -6  -6    0.48    0.87
  -4   6   6    2.62    1.16
  -4   6   6    3.01    0.97
   4  -6  -6    3.49    1.07
  -3   6   6   25.89    2.72
  -3   6   6   23.95    2.72
   3  -6  -6   24.15    2.42
   3  -6  -6   24.73    2.62
  -2   6   6   35.88    3.59
  -2   6   6   40.15    3.98
   2  -6  -6   35.79    3.49
  -1   6   6    4.56    1.16
  -1   6   6    6.98    1.45
   1  -6  -6    6.21    1.36
   1  -6  -6    6.30    1.16
   0   6   6  103.00    9.41
   0   6   6   90.58    8.44
   0  -6  -6   91.46    8.34
   0  -6  -6   97.57    8.83
   1   6   6   43.64    4.27
  -1  -6  -6   38.11    3.78
   2   6   6   54.31    5.24
   2   6   6   68.37    6.50
  -2  -6  -6   57.80    5.43
  -2  -6  -6   59.64    5.53
   3   6   6    3.69    1.45
   3   6   6    0.97    0.97
  -3  -6  -6    3.78    0.97
  -3  -6  -6    1.26    0.87
   4   6   6   -0.10    1.36
   4   6   6   -0.97    0.87
  -4  -6  -6    0.19    0.87
  -4  -6  -6   -0.10    1.16
  -2   7   6   -1.16    0.97
   2  -7  -6    0.29    0.58
   2  -7  -6    1.26    1.16
  -1   7   6    3.49    1.26
  -1   7   6    6.79    1.26
   1  -7  -6    6.98    1.16
   1  -7  -6    3.01    1.26
 -12   0   7   -1.16    0.78
 -12   0   7   -1.07    1.36
  12   0  -7   -0.78    1.45
  12   0  -7   -0.48    0.87
 -11   0   7   -0.29    1.36
 -11   0   7    0.00    1.16
  11   0  -7    0.39    0.68
  11   0  -7   -0.58    1.36
 -10   0   7    0.39    1.07
 -10   0   7   -1.65    1.36
  10   0  -7    0.19    1.36
  10   0  -7   -2.13    0.97
  -9   0   7   -0.10    0.78
  -9   0   7   -0.87    1.07
   9   0  -7   -0.19    0.97
   9   0  -7    0.68    1.36
  -8   0   7   -0.19    1.07
  -8   0   7   -1.75    1.07
   8   0  -7    0.48    0.97
  -7   0   7    1.45    0.97
  -7   0   7    0.48    1.07
   7   0  -7   -0.39    1.16
  -6   0   7   -0.97    0.87
  -6   0   7    0.78    1.07
   6   0  -7   -0.68    1.07
   6   0  -7    0.48    1.07
  -5   0   7   -0.29    0.68
  -5   0   7   -0.39    0.87
   5   0  -7   -0.29    0.78
   5   0  -7    0.29    1.07
  -4   0   7    0.19    0.87
  -4   0   7    0.29    0.78
   4   0  -7    1.65    0.97
   4   0  -7    0.29    0.78
  -3   0   7    0.97    0.68
  -3   0   7    1.07    0.97
   3   0  -7   -0.68    0.68
   3   0  -7    0.10    0.87
  -2   0   7    1.36    0.68
  -2   0   7   -0.19    0.87
   2   0  -7    0.78    0.58
   2   0  -7    0.19    0.78
  -1   0   7    1.55    0.87
  -1   0   7   -0.10    0.68
   1   0  -7    0.19    0.78
   1   0  -7   -0.68    0.58
   0   0   7   -1.07    0.87
   0   0   7    1.65    1.07
   0   0  -7   -0.68    0.78
   1   0   7    0.97    0.97
  -1   0  -7   -0.39    0.78
   2   0   7   -2.04    1.16
  -2   0  -7   -1.84    0.78
  -2   0  -7    0.19    0.87
   3   0   7   -0.48    1.16
   3   0   7   -0.29    0.97
  -3   0  -7   -1.36    1.07
  -3   0  -7   -0.19    0.87
   4   0   7   -1.75    1.07
   4   0   7    1.07    1.26
  -4   0  -7    1.84    1.07
  -4   0  -7    0.68    0.97
   5   0   7    0.48    1.26
   5   0   7   -0.87    1.16
  -5   0  -7    0.87    0.97
  -5   0  -7    0.97    0.97
   6   0   7   -1.55    1.16
   6   0   7   -0.97    1.26
  -6   0  -7   -0.39    1.07
  -6   0  -7    1.75    1.07
   7   0   7   -0.58    1.16
   7   0   7    0.68    1.07
  -7   0  -7   -0.10    0.87
  -7   0  -7   -0.78    0.87
   8   0   7    0.10    1.16
  -8   0  -7   -2.13    1.16
 -12   1   7   -0.19    0.97
 -12   1   7    0.29    1.16
  12   1  -7    1.45    0.97
  12   1  -7    0.19    1.26
 -12  -1   7   -0.58    1.36
 -12  -1   7    1.75    0.87
  12  -1  -7    0.29    1.16
 -11   1   7   70.60    6.50
 -11   1   7   74.19    6.89
  11   1  -7   71.77    6.59
 -11  -1   7   67.79    6.21
  11  -1  -7   58.58    5.92
  11  -1  -7   75.07    6.89
 -10   1   7    1.07    0.97
 -10   1   7    1.07    1.07
  10   1  -7    0.19    0.97
  10   1  -7    1.16    1.07
 -10  -1   7    0.78    0.87
 -10  -1   7   -0.10    1.07
  10  -1  -7    1.26    0.87
  10  -1  -7    1.36    1.36
  -9   1   7   12.41    1.65
  -9   1   7   11.25    1.55
   9   1  -7   11.44    1.75
  -9  -1   7   10.77    1.55
  -9  -1   7   11.74    1.65
   9  -1  -7   10.96    1.45
   9  -1  -7    9.60    1.75
  -8   1   7   19.30    2.23
  -8   1   7   14.45    1.84
   8   1  -7   16.00    1.84
  -8  -1   7   15.32    1.94
  -8  -1   7   18.91    2.23
   8  -1  -7   19.01    2.52
   8  -1  -7   16.58    1.94
  -7   1   7   24.34    2.62
  -7   1   7   26.28    2.72
   7   1  -7   18.72    2.04
   7   1  -7   21.53    2.52
  -7  -1   7   24.15    2.52
  -7  -1   7   18.23    2.04
   7  -1  -7   23.18    2.52
   7  -1  -7   23.08    2.72
  -6   1   7   32.59    3.20
  -6   1   7   29.87    3.01
   6   1  -7   26.77    2.72
   6   1  -7   31.13    3.30
  -6  -1   7   30.74    3.10
  -6  -1   7   32.30    3.20
   6  -1  -7   33.46    3.30
   6  -1  -7   34.53    3.59
  -5   1   7    3.59    1.07
  -5   1   7    4.56    0.97
   5   1  -7    2.62    1.07
   5   1  -7    3.39    0.97
  -5  -1   7    3.01    0.97
  -5  -1   7    2.62    0.87
   5  -1  -7    3.59    0.87
   5  -1  -7    4.36    1.16
  -4   1   7    1.36    0.97
  -4   1   7    2.04    0.87
   4   1  -7    0.97    0.97
  -4  -1   7    1.84    0.78
   4  -1  -7    1.16    0.78
   4  -1  -7    2.13    0.97
  -3   1   7    1.36    0.87
  -3   1   7    0.39    0.87
   3   1  -7    1.55    0.78
   3   1  -7    1.26    0.68
  -3  -1   7    0.78    0.58
  -3  -1   7    1.45    0.87
   3  -1  -7   -1.16    0.78
   3  -1  -7    0.58    0.58
  -2   1   7  110.46   10.09
  -2   1   7   97.76    8.83
   2   1  -7  108.52    9.70
   2   1  -7  103.19    9.31
  -2  -1   7  112.40   10.18
   2  -1  -7  101.15    9.12
   2  -1  -7   92.04    8.34
  -1   1   7   27.54    2.91
  -1   1   7   24.05    2.42
   1   1  -7   32.10    3.20
   1   1  -7   29.77    2.81
  -1  -1   7   30.45    3.10
   1  -1  -7   27.06    2.81
   1  -1  -7   27.16    2.62
   0   1   7   28.13    3.01
   0   1   7   36.08    3.69
   0   1  -7   28.03    2.72
   0   1  -7   27.64    2.72
   0  -1   7   34.53    3.39
   0  -1   7   25.89    2.62
   0  -1  -7   25.31    2.52
   0  -1  -7   25.70    2.62
   1   1   7   60.32    5.72
   1   1   7   45.78    4.46
  -1   1  -7   51.11    4.75
  -1   1  -7   51.01    4.75
   1  -1   7   58.19    5.43
  -1  -1  -7   48.59    4.56
  -1  -1  -7   53.15    4.95
   2   1   7   33.36    3.39
   2   1   7   41.22    4.07
  -2   1  -7   35.79    3.49
  -2   1  -7   40.54    3.88
   2  -1   7   40.25    3.88
   2  -1   7   35.21    3.49
  -2  -1  -7   38.50    3.69
  -2  -1  -7   35.79    3.49
   3   1   7  258.46   22.99
   3   1   7  290.85   25.89
  -3   1  -7  279.31   24.73
  -3   1  -7  283.58   25.12
   3  -1   7  257.49   22.89
   3  -1   7  263.02   23.37
  -3  -1  -7  268.94   23.86
  -3  -1  -7  266.51   23.66
   4   1   7   -1.16    1.36
   4   1   7    0.48    1.16
  -4   1  -7   -0.19    0.87
  -4   1  -7    0.29    0.97
   4  -1   7   -1.07    1.07
   4  -1   7    0.29    1.16
  -4  -1  -7    1.55    1.07
  -4  -1  -7   -0.29    0.87
   5   1   7    0.48    1.36
   5   1   7    2.62    1.16
  -5   1  -7    2.62    1.07
  -5   1  -7    0.00    0.97
   5  -1   7    1.45    1.16
   5  -1   7    1.94    1.16
  -5  -1  -7    2.52    1.16
   6   1   7   -0.10    1.26
   6   1   7    1.16    1.16
  -6   1  -7    0.19    1.07
   6  -1   7   -1.16    1.16
  -6  -1  -7    0.10    1.16
  -6  -1  -7    1.84    0.97
   7   1   7   69.25    6.50
  -7   1  -7   71.96    6.69
  -7   1  -7   54.99    5.14
   7  -1   7   64.20    6.11
  -7  -1  -7   76.04    6.98
   8   1   7   -0.48    1.07
   8   1   7    0.00    1.55
  -8   1  -7    3.10    1.16
   8  -1   7    0.87    1.16
  -8  -1  -7    1.45    1.26
  -8  -1  -7    1.55    1.16
 -11   2   7   20.95    2.42
 -11   2   7   25.51    2.62
  11   2  -7   23.76    2.52
 -11  -2   7   24.05    2.62
  11  -2  -7   24.73    2.52
  11  -2  -7   23.18    3.10
 -10   2   7   35.59    3.59
  10   2  -7   34.62    3.39
  10   2  -7   32.39    3.49
 -10  -2   7   27.06    2.91
 -10  -2   7   28.51    3.10
  10  -2  -7   29.87    3.49
  -9   2   7    1.94    1.07
  -9   2   7    1.07    1.07
   9   2  -7    2.81    1.07
   9   2  -7   -1.45    1.16
  -9  -2   7    0.39    1.16
  -9  -2   7    0.58    1.07
   9  -2  -7    1.75    0.87
   9  -2  -7   -3.30    1.36
  -8   2   7    1.45    1.16
  -8   2   7   -1.07    0.97
   8   2  -7    1.26    1.26
   8   2  -7   -1.45    0.97
  -8  -2   7    3.01    0.97
  -8  -2   7    0.87    0.97
   8  -2  -7    2.91    1.36
   8  -2  -7   -0.39    0.97
  -7   2   7    2.13    0.87
  -7   2   7    4.36    1.26
   7   2  -7    3.30    1.26
   7   2  -7    3.10    1.07
  -7  -2   7    2.62    0.87
  -7  -2   7    3.30    1.07
   7  -2  -7    3.78    1.16
   7  -2  -7    3.30    1.36
  -6   2   7  164.77   14.84
  -6   2   7  171.18   15.32
   6   2  -7  162.06   14.45
   6   2  -7  180.20   16.20
  -6  -2   7  146.93   13.09
  -6  -2   7  180.97   16.10
   6  -2  -7  158.76   14.35
   6  -2  -7  180.00   16.00
  -5   2   7   97.08    8.92
   5   2  -7   98.44    9.02
   5   2  -7   86.99    7.86
  -5  -2   7   98.34    8.83
   5  -2  -7   97.57    8.83
  -4   2   7   -0.39    0.97
  -4   2   7    0.10    0.78
   4   2  -7   -0.10    0.58
  -4  -2   7   -0.39    0.68
  -4  -2   7    0.10    0.68
   4  -2  -7    0.19    0.87
   4  -2  -7    1.55    0.87
  -3   2   7   74.87    6.79
  -3   2   7   83.70    7.76
   3   2  -7   85.35    7.66
   3   2  -7   78.94    7.18
  -3  -2   7   75.74    6.79
  -3  -2   7   77.00    6.98
   3  -2  -7   70.99    6.59
   3  -2  -7   78.65    7.18
  -2   2   7  142.18   12.70
  -2   2   7  161.96   14.55
   2   2  -7  167.49   14.94
   2   2  -7  170.21   15.03
  -2  -2   7  160.99   14.35
   2  -2  -7  146.64   13.09
   2  -2  -7  138.78   12.51
  -1   2   7    4.95    1.16
  -1   2   7    3.10    0.78
   1   2  -7    5.92    0.87
   1   2  -7    5.63    0.87
  -1  -2   7    4.75    0.97
  -1  -2   7    5.04    0.97
   1  -2  -7    4.56    0.97
   1  -2  -7    3.98    0.78
   0   2   7    2.62    0.97
   0   2   7    3.01    1.07
   0   2  -7    1.55    0.58
   0   2  -7    1.36    0.68
   0  -2   7    0.97    0.78
   0  -2   7    2.33    0.78
   0  -2  -7    2.23    0.87
   0  -2  -7    0.10    0.68
   1   2   7    0.87    0.97
   1   2   7    0.87    1.16
  -1   2  -7    0.48    0.58
  -1   2  -7    0.00    0.58
   1  -2   7    0.19    0.78
   1  -2   7    0.39    0.68
  -1  -2  -7   -0.10    0.87
  -1  -2  -7    1.84    0.97
   2   2   7   78.46    7.27
  -2   2  -7   87.96    7.95
   2  -2   7   69.93    6.50
  -2  -2  -7   75.16    6.89
   3   2   7   62.07    5.92
  -3   2  -7   58.29    5.33
   3  -2   7   48.10    4.46
   3  -2   7   47.42    4.46
  -3  -2  -7   57.51    5.43
   4   2   7   15.03    2.13
  -4   2  -7   15.32    1.84
  -4   2  -7   12.61    1.65
   4  -2   7   15.03    1.94
   4  -2   7   10.47    1.55
  -4  -2  -7   15.91    1.94
  -4  -2  -7   15.23    1.94
   5   2   7   -0.19    1.26
   5   2   7    0.97    1.07
  -5   2  -7   -0.78    0.97
  -5   2  -7   -1.07    0.97
   5  -2   7    1.65    1.16
   5  -2   7   -0.68    1.16
  -5  -2  -7   -1.94    0.87
  -5  -2  -7    1.84    1.26
   6   2   7   40.73    4.07
  -6   2  -7   41.22    4.07
   6  -2   7   38.70    3.98
  -6  -2  -7   47.62    4.56
   7   2   7    1.36    1.07
   7   2   7    0.58    0.97
  -7   2  -7    0.39    1.07
  -7   2  -7    0.97    0.97
   7  -2   7   -0.68    1.16
   7  -2   7    1.16    1.16
  -7  -2  -7    0.87    1.07
  -7  -2  -7    4.17    1.26
   8   2   7    7.27    1.26
  -8   2  -7    5.04    1.45
   8  -2   7    4.07    1.26
   8  -2   7    4.17    1.45
  -8  -2  -7    5.72    1.36
  -8  -2  -7    1.26    1.55
 -11   3   7    3.10    1.07
  11   3  -7    4.27    1.36
  11   3  -7   -0.87    1.55
 -11  -3   7    0.87    1.45
 -11  -3   7    4.07    1.26
  11  -3  -7    3.98    0.87
 -10   3   7    4.46    1.36
 -10   3   7    5.53    1.16
  10   3  -7    7.56    1.45
  10   3  -7    2.42    1.55
 -10  -3   7    6.89    1.45
 -10  -3   7    4.56    1.45
  10  -3  -7    5.53    1.75
  10  -3  -7    5.53    1.07
  -9   3   7    2.23    1.07
  -9   3   7    2.62    1.16
   9   3  -7    2.72    1.16
  -9  -3   7   -0.19    1.26
   9  -3  -7    1.94    1.45
   9  -3  -7    3.39    1.07
  -8   3   7    5.33    0.97
  -8   3   7    3.59    0.97
   8   3  -7    5.33    1.55
   8   3  -7    4.66    1.16
  -8  -3   7    2.42    0.97
  -8  -3   7    5.14    1.36
   8  -3  -7    3.10    1.16
   8  -3  -7    6.79    1.07
  -7   3   7   73.71    6.79
  -7   3   7   75.84    6.98
   7   3  -7   78.56    7.47
   7   3  -7   80.88    7.37
  -7  -3   7   76.13    7.08
  -7  -3   7   80.79    7.37
   7  -3  -7   74.00    6.98
   7  -3  -7   73.32    6.69
  -6   3   7  125.30   11.35
  -6   3   7  132.09   11.83
   6   3  -7  150.03   13.58
   6   3  -7  139.56   12.41
  -6  -3   7  134.32   12.03
   6  -3  -7  133.84   12.03
   6  -3  -7  126.76   11.54
  -5   3   7  135.68   12.12
  -5   3   7  143.44   13.00
   5   3  -7  138.40   12.32
   5   3  -7  151.10   13.58
  -5  -3   7  145.86   13.00
  -5  -3   7  129.38   11.54
   5  -3  -7  140.72   12.61
   5  -3  -7  134.81   12.22
  -4   3   7   17.55    1.94
   4   3  -7   17.17    1.75
   4   3  -7   19.40    1.94
  -4  -3   7   17.55    1.75
  -4  -3   7   15.23    1.55
   4  -3  -7   20.46    2.33
  -3   3   7  249.05   22.11
  -3   3   7  285.71   25.51
   3  -3  -7  259.92   23.08
   3  -3  -7  257.30   22.89
  -2   3   7  126.76   11.54
  -2   3   7  117.74   10.57
   2  -3  -7  126.47   11.35
   2  -3  -7  123.07   11.15
  -1   3   7  193.00   17.36
  -1   3   7  171.76   15.32
   1  -3  -7  184.46   16.39
   1  -3  -7  183.01   16.39
   0   3   7    3.49    1.07
   0   3   7    3.39    1.16
   0  -3  -7    2.72    0.87
   0  -3  -7    3.20    0.87
   1   3   7    9.89    1.65
  -1  -3  -7    7.76    1.26
   2   3   7   30.26    3.20
  -2   3  -7   25.60    2.42
  -2   3  -7   24.83    2.33
   2  -3   7   26.28    2.52
   2  -3   7   30.74    3.01
  -2  -3  -7   31.81    3.10
  -2  -3  -7   33.17    3.39
   3   3   7   26.28    2.81
   3   3   7   33.46    3.39
  -3   3  -7   24.34    2.33
  -3   3  -7   24.15    2.33
   3  -3   7   24.63    2.42
   3  -3   7   26.19    2.62
  -3  -3  -7   30.74    3.01
  -3  -3  -7   28.80    2.91
   4   3   7   32.88    3.49
   4   3   7   22.40    2.42
  -4   3  -7   25.80    2.62
  -4   3  -7   24.34    2.52
   4  -3   7   23.08    2.42
  -4  -3  -7   26.96    2.91
  -4  -3  -7   25.41    2.52
   5   3   7   -0.97    0.97
  -5   3  -7   -0.87    0.97
  -5   3  -7   -0.29    0.87
   5  -3   7   -2.72    1.07
   5  -3   7   -1.16    1.07
  -5  -3  -7   -1.26    1.07
   6   3   7    3.59    1.07
   6   3   7    1.65    1.26
  -6   3  -7    1.94    1.16
  -6   3  -7    1.55    1.16
   6  -3   7    2.13    1.16
   6  -3   7    0.78    1.07
  -6  -3  -7    1.55    1.36
  -6  -3  -7    1.75    1.07
   7   3   7   -0.39    0.97
   7   3   7    1.07    1.16
  -7   3  -7    0.48    1.16
  -7   3  -7    0.00    1.16
   7  -3   7   -1.65    1.26
  -7  -3  -7    0.00    1.26
  -7  -3  -7    2.33    1.16
 -10   4   7    4.07    1.16
  10   4  -7   -0.39    1.45
  10   4  -7    2.04    1.07
 -10  -4   7   -0.10    1.36
 -10  -4   7    3.69    1.45
  10  -4  -7    3.78    0.97
  -9   4   7    2.52    0.78
  -9   4   7    1.16    0.97
   9   4  -7    3.69    1.07
   9   4  -7   -0.39    1.45
  -9  -4   7    2.52    1.16
  -9  -4   7    4.07    1.55
   9  -4  -7    1.75    1.26
   9  -4  -7    3.59    0.78
  -8   4   7    7.47    1.36
   8   4  -7    8.24    1.36
   8   4  -7    9.70    1.94
  -8  -4   7   12.03    1.84
  -8  -4   7    8.34    1.45
   8  -4  -7    7.76    1.65
   8  -4  -7   13.00    1.75
  -7   4   7   16.58    2.04
   7   4  -7   12.03    1.84
   7   4  -7   12.90    1.65
  -7  -4   7   12.51    1.55
   7  -4  -7   19.11    2.13
  -6   4   7    3.49    0.87
  -6   4   7    5.33    1.26
   6   4  -7    2.72    0.68
   6   4  -7    1.26    0.87
  -6  -4   7    1.84    0.68
  -6  -4   7    1.07    0.87
   6  -4  -7    3.01    0.97
   6  -4  -7    2.91    1.07
  -5   4   7    1.65    0.78
  -5   4   7    1.45    1.16
  -5  -4   7    0.48    0.48
  -5  -4   7    0.19    0.39
   5  -4  -7    1.65    0.87
   5  -4  -7    0.29    0.78
  -4   4   7    0.68    1.16
  -4   4   7    0.68    0.68
   4  -4  -7    0.19    0.78
   4  -4  -7    1.55    0.87
  -3   4   7    1.84    0.68
  -3   4   7    2.04    0.97
   3  -4  -7    2.72    0.78
   3  -4  -7    4.07    0.97
  -2   4   7    8.73    1.45
  -2   4   7    8.73    1.26
   2  -4  -7   10.28    1.36
   2  -4  -7    8.34    1.36
  -1   4   7    7.47    1.26
  -1   4   7    9.21    1.26
   1  -4  -7   11.64    1.55
   1  -4  -7   11.35    1.36
   0   4   7   25.41    2.81
   0   4   7   30.55    3.20
   0  -4  -7   25.02    2.62
   0  -4  -7   26.57    2.72
   1   4   7    2.81    1.07
   1   4   7    3.30    1.26
  -1  -4  -7    2.91    1.16
  -1  -4  -7    2.13    0.87
   2   4   7    2.81    1.16
   2   4   7    5.14    1.36
  -2  -4  -7    5.72    1.36
  -2  -4  -7    3.39    0.97
   3   4   7   31.13    3.20
   3   4   7   27.64    3.01
  -3  -4  -7   28.42    3.01
  -3  -4  -7   32.88    3.30
   4   4   7    0.29    1.36
   4   4   7   -1.26    0.78
   4  -4   7    1.07    0.68
   4  -4   7    0.48    0.58
  -4  -4  -7    0.10    0.78
  -4  -4  -7    0.58    1.07
   5   4   7    2.91    1.26
   5   4   7    1.65    0.87
  -5   4  -7    1.26    0.78
  -5   4  -7    1.94    0.78
   5  -4   7    1.26    0.87
  -5  -4  -7    1.26    0.87
  -5  -4  -7    2.72    1.07
   6   4   7   67.79    6.30
   6   4   7   74.00    6.89
  -6  -4  -7   94.46    8.63
  -6  -4  -7  101.74    9.31
  -8   5   7    3.69    1.26
  -8   5   7    7.76    1.45
   8  -5  -7    7.08    1.26
   8  -5  -7    3.39    1.26
  -7   5   7    7.18    1.36
  -7   5   7    9.21    1.36
   7  -5  -7   11.25    1.45
   7  -5  -7    7.86    1.55
  -6   5   7    3.49    1.16
  -6   5   7    3.20    1.07
   6  -5  -7    5.04    1.07
   6  -5  -7    2.13    1.16
  -5   5   7   27.16    2.91
  -5   5   7   19.40    2.13
   5  -5  -7   20.27    2.33
   5  -5  -7   24.44    2.52
  -4   5   7   44.32    4.46
   4  -5  -7   45.00    4.27
  -3   5   7   23.08    2.42
  -3   5   7   29.00    3.10
   3  -5  -7   28.22    2.91
   3  -5  -7   25.60    2.62
  -2   5   7    6.98    1.16
  -2   5   7    6.79    1.16
   2  -5  -7    7.76    1.16
   2  -5  -7    9.80    1.45
  -1   5   7   39.96    3.78
  -1   5   7   51.79    5.04
   1  -5  -7   52.27    4.85
   1  -5  -7   45.19    4.36
   0   5   7   46.65    4.56
   0  -5  -7   49.17    4.66
   1   5   7   68.96    6.50
   1   5   7   55.09    5.33
  -1  -5  -7   61.29    5.72
  -1  -5  -7   57.80    5.53
   2   5   7    5.82    1.26
  -2  -5  -7    7.47    1.26
   3   5   7    1.94    1.36
   3   5   7    1.26    0.87
  -3  -5  -7    1.36    0.87
  -3  -5  -7   -0.87    1.07
   4   5   7    9.99    1.45
   4   5   7   13.97    2.23
  -4  -5  -7   12.41    1.94
  -4  -5  -7    9.80    1.36
  -6   6   7    2.33    1.07
   6  -6  -7    3.88    0.97
  -5   6   7   23.95    2.62
  -5   6   7   24.34    2.62
   5  -6  -7   24.54    2.62
   5  -6  -7   24.25    2.42
  -4   6   7    1.45    1.07
  -4   6   7    1.16    0.87
   4  -6  -7    1.16    0.97
   4  -6  -7   -0.19    0.78
  -3   6   7   26.48    2.72
  -3   6   7   25.70    2.72
   3  -6  -7   21.53    2.23
   3  -6  -7   27.93    2.91
  -2   6   7    8.15    1.36
  -2   6   7    7.27    1.36
   2  -6  -7    8.24    1.16
   2  -6  -7    9.60    1.45
  -1   6   7   37.82    3.98
  -1   6   7   27.25    2.81
   1  -6  -7   26.09    2.62
   1  -6  -7   29.00    3.01
   0   6   7  198.14   17.75
   0   6   7  153.91   13.87
   0  -6  -7  164.87   14.84
   0  -6  -7  159.54   14.26
   1   6   7   27.06    2.81
   1   6   7   20.95    2.62
  -1  -6  -7   23.18    2.33
  -1  -6  -7   21.82    2.52
   2   6   7    0.78    0.97
   2   6   7    1.16    0.97
  -2  -6  -7    2.62    1.07
  -2  -6  -7    0.10    0.78
 -11   0   8   94.46    8.73
 -11   0   8  109.20    9.89
  11   0  -8  103.68    9.31
  11   0  -8  115.22   10.67
 -10   0   8    3.49    1.36
  10   0  -8    2.91    1.55
  10   0  -8    6.79    1.26
  -9   0   8    1.26    0.97
  -9   0   8    1.16    1.07
   9   0  -8    1.45    1.16
   9   0  -8    0.10    0.87
  -8   0   8   23.08    2.52
  -8   0   8   20.85    2.33
   8   0  -8   16.78    1.94
   8   0  -8   21.05    2.62
  -7   0   8  262.15   23.28
  -7   0   8  254.29   22.60
   7   0  -8  239.45   21.24
   7   0  -8  279.89   25.02
  -6   0   8   11.15    1.75
  -6   0   8    9.02    1.36
   6   0  -8   10.77    1.55
   6   0  -8    8.63    1.55
  -5   0   8   35.11    3.49
  -5   0   8   33.46    3.30
   5   0  -8   31.91    3.30
   5   0  -8   34.24    3.30
  -4   0   8    6.79    1.26
  -4   0   8    6.69    1.16
   4   0  -8    5.33    1.16
   4   0  -8    4.17    0.97
  -3   0   8  376.20   33.36
  -3   0   8  334.59   29.58
   3   0  -8  359.71   31.81
   3   0  -8  345.65   30.65
  -2   0   8  196.39   17.46
  -2   0   8  238.29   21.34
   2   0  -8  205.02   18.33
   2   0  -8  215.21   19.11
  -1   0   8   30.06    3.01
  -1   0   8   26.28    2.81
   1   0  -8   24.25    2.42
   1   0  -8   23.28    2.42
   0   0   8    2.23    0.97
   0   0   8    3.01    1.16
   0   0  -8    1.45    0.87
   0   0  -8    2.42    0.78
   1   0   8   66.63    6.21
   1   0   8   52.76    5.14
  -1   0  -8   52.08    4.85
  -1   0  -8   59.16    5.53
   2   0   8  363.11   32.20
   2   0   8  314.81   28.03
  -2   0  -8  338.47   29.97
  -2   0  -8  333.24   29.48
   3   0   8   -0.39    1.36
   3   0   8    1.55    0.97
  -3   0  -8    1.84    0.87
   4   0   8    0.48    1.16
  -4   0  -8    2.23    1.07
  -4   0  -8    1.45    0.87
   5   0   8   13.38    1.84
   5   0   8   12.22    1.84
  -5   0  -8   16.29    1.84
  -5   0  -8   15.42    1.94
   6   0   8   10.47    1.84
   6   0   8   12.90    1.75
  -6   0  -8   13.77    1.75
  -6   0  -8   14.26    1.84
   7   0   8    0.29    0.97
  -7   0  -8    2.42    1.16
  -7   0  -8    2.91    1.07
 -11   1   8    5.63    1.65
 -11   1   8   10.18    1.55
  11   1  -8    7.18    1.36
  11   1  -8    5.72    1.75
  11  -1  -8    9.41    1.94
  11  -1  -8   10.18    1.45
 -10   1   8    2.13    1.16
  10   1  -8    4.27    1.07
  10   1  -8    0.78    1.36
 -10  -1   8    5.04    1.07
 -10  -1   8    2.33    1.26
  10  -1  -8    3.20    1.55
  10  -1  -8    2.13    0.78
  -9   1   8    2.62    1.16
   9   1  -8    1.84    1.26
   9   1  -8    2.33    1.07
  -9  -1   8    4.56    1.26
  -9  -1   8    2.91    1.16
   9  -1  -8    3.78    1.07
  -8   1   8    0.48    0.87
  -8   1   8   -0.68    1.16
   8   1  -8    1.45    0.97
   8   1  -8    0.29    1.26
  -8  -1   8    0.10    0.97
  -8  -1   8    1.26    1.26
   8  -1  -8    0.58    1.07
  -7   1   8    5.24    1.45
  -7   1   8    5.04    1.07
   7   1  -8    3.69    0.97
   7   1  -8    2.04    1.26
  -7  -1   8    5.92    1.16
  -7  -1   8    4.95    1.07
   7  -1  -8    3.98    1.16
   7  -1  -8    4.07    1.36
  -6   1   8   14.55    1.84
  -6   1   8   16.20    1.84
   6   1  -8   13.00    1.84
   6   1  -8   14.94    1.75
  -6  -1   8   13.87    1.75
  -6  -1   8   15.61    1.75
   6  -1  -8   18.04    2.23
   6  -1  -8   15.03    1.75
  -5   1   8   11.15    1.65
   5   1  -8   10.86    1.45
   5   1  -8    9.21    1.55
  -5  -1   8   10.09    1.45
  -5  -1   8   10.96    1.36
   5  -1  -8   10.67    1.45
  -4   1   8    6.40    1.36
  -4   1   8    7.08    1.16
   4   1  -8    5.53    1.07
   4   1  -8    7.56    1.16
  -4  -1   8    6.50    1.07
  -4  -1   8    6.50    1.16
   4  -1  -8    6.69    1.16
   4  -1  -8    6.50    1.26
  -3   1   8   61.97    5.72
  -3   1   8   69.44    6.50
   3   1  -8   70.31    6.40
   3   1  -8   65.08    6.01
  -3  -1   8   63.72    5.82
  -3  -1   8   66.05    6.11
   3  -1  -8   60.23    5.63
   3  -1  -8   61.88    5.72
  -2   1   8    8.92    1.26
  -2   1   8    7.76    1.45
   2   1  -8    9.60    1.26
  -2  -1   8    8.63    1.45
  -2  -1   8    6.79    1.07
   2  -1  -8    8.83    1.26
   2  -1  -8    7.66    1.07
  -1   1   8   -0.68    0.78
  -1   1   8    0.97    0.78
   1   1  -8    1.94    0.78
  -1  -1   8    0.10    0.87
  -1  -1   8    1.07    0.87
   1  -1  -8    0.39    0.78
   1  -1  -8    0.87    0.68
   0   1   8   18.91    2.23
   0   1   8   18.52    2.23
   0   1  -8   17.65    1.94
   0   1  -8   14.55    1.65
   0  -1   8   16.20    1.94
   0  -1   8   15.61    1.94
   0  -1  -8   16.10    1.94
   1   1   8  124.04   11.35
   1   1   8  146.25   13.19
  -1   1  -8  129.57   11.64
  -1   1  -8  132.58   11.93
   1  -1   8  140.82   12.70
   1  -1   8  138.49   12.61
  -1  -1  -8  131.80   11.83
   2   1   8  474.44   41.99
  -2   1  -8  544.08   48.01
  -2   1  -8  545.82   48.10
   2  -1   8  535.16   47.23
   2  -1   8  515.27   45.58
  -2  -1  -8  494.81   43.64
  -2  -1  -8  490.74   43.35
   3   1   8   23.57    2.72
  -3   1  -8   21.92    2.42
  -3   1  -8   19.88    2.13
   3  -1   8   16.78    2.04
   3  -1   8   18.62    2.23
  -3  -1  -8   22.02    2.42
   4   1   8   17.84    2.13
   4   1   8   19.01    2.23
  -4   1  -8   21.72    2.42
  -4   1  -8   19.01    2.23
   4  -1   8   17.07    2.13
   4  -1   8   14.64    1.84
  -4  -1  -8   18.62    2.13
  -4  -1  -8   22.11    2.42
   5   1   8   10.67    1.65
   5   1   8   12.03    1.65
  -5   1  -8    9.31    1.45
  -5   1  -8   16.78    2.04
   5  -1   8    9.60    1.55
  -5  -1  -8   15.42    1.94
  -5  -1  -8   13.77    1.75
   6   1   8    0.87    1.45
   6   1   8    0.00    1.07
  -6   1  -8    2.13    1.07
  -6   1  -8   -0.10    1.07
   6  -1   8    1.94    1.36
   6  -1   8    1.16    1.07
  -6  -1  -8    0.97    0.87
  -6  -1  -8   -1.65    0.97
   7   1   8   10.09    1.55
  -7   1  -8    9.12    1.55
   7  -1   8    6.89    1.36
  -7  -1  -8    5.43    1.45
  -7  -1  -8    8.15    1.45
 -10   2   8    2.91    1.07
 -10   2   8    4.07    1.07
  10   2  -8    4.75    1.26
  10   2  -8    1.45    1.45
 -10  -2   8    2.81    1.26
 -10  -2   8    3.39    1.16
  10  -2  -8    2.23    0.87
  10  -2  -8    1.45    1.16
  -9   2   8    5.33    1.26
  -9   2   8    5.53    1.16
   9   2  -8    2.52    1.45
  -9  -2   8    3.88    1.36
  -9  -2   8    5.14    1.36
   9  -2  -8    6.69    1.16
   9  -2  -8    4.46    1.55
  -8   2   8    5.43    1.36
  -8   2   8    3.49    0.97
   8   2  -8    4.66    1.16
   8   2  -8    3.10    1.45
  -8  -2   8    3.20    1.07
  -8  -2   8    6.11    1.26
   8  -2  -8    5.92    1.16
   8  -2  -8    2.91    1.26
  -7   2   8   36.76    3.59
  -7   2   8   29.97    3.10
   7   2  -8   38.89    3.69
   7   2  -8   35.40    3.78
  -7  -2   8   38.11    3.69
  -7  -2   8   32.20    3.30
   7  -2  -8   32.00    3.39
   7  -2  -8   33.56    3.30
  -6   2   8   65.95    6.21
  -6   2   8   68.66    6.30
   6   2  -8   60.81    5.63
   6   2  -8   71.28    6.69
  -6  -2   8   67.69    6.21
  -6  -2   8   70.51    6.50
   6  -2  -8   68.86    6.30
   6  -2  -8   61.10    5.82
  -5   2   8   52.27    5.04
  -5   2   8   49.27    4.66
   5   2  -8   52.18    4.95
  -5  -2   8   48.20    4.46
  -5  -2   8   52.86    4.95
   5  -2  -8   49.56    4.75
  -4   2   8   76.71    7.18
  -4   2   8   70.70    6.50
   4   2  -8   68.76    6.21
   4   2  -8   68.76    6.30
  -4  -2   8   68.37    6.21
  -4  -2   8   67.99    6.21
   4  -2  -8   67.60    6.30
   4  -2  -8   77.68    7.08
  -3   2   8  228.30   20.27
  -3   2   8  260.69   23.28
   3   2  -8  257.39   22.79
  -3  -2   8  242.17   21.43
   3  -2  -8  226.75   20.17
   3  -2  -8  219.28   19.59
  -2   2   8    5.82    1.07
  -2   2   8    5.43    1.36
   2   2  -8    8.15    1.07
   2   2  -8    7.37    1.07
  -2  -2   8    7.95    1.16
  -2  -2   8    9.50    1.36
   2  -2  -8    5.24    1.07
   2  -2  -8    6.59    1.07
  -1   2   8    2.91    0.97
  -1   2   8    2.81    1.16
   1   2  -8    3.30    0.78
   1   2  -8    3.20    0.78
  -1  -2   8    1.55    0.87
  -1  -2   8    1.94    0.78
   1  -2  -8    3.39    0.87
   1  -2  -8    1.45    0.97
   0   2   8    4.07    1.26
   0   2   8    8.53    1.65
   0   2  -8    5.53    0.97
   0   2  -8    7.37    1.26
   0  -2   8    4.95    1.07
   0  -2   8    6.69    1.16
   0  -2  -8    6.01    1.26
   0  -2  -8    6.30    1.16
   1   2   8   84.76    7.86
  -1   2  -8   73.51    6.69
  -1   2  -8   71.48    6.50
   1  -2   8   55.18    5.14
   1  -2   8   63.82    6.01
  -1  -2  -8   70.02    6.50
   2   2   8   16.68    1.94
   2   2   8   14.55    2.04
  -2   2  -8   16.97    1.94
   2  -2   8   14.74    1.75
   2  -2   8   13.87    1.84
  -2  -2  -8   15.42    1.84
  -2  -2  -8   15.32    1.84
   3   2   8    8.44    1.55
   3   2   8    8.83    1.65
  -3   2  -8    8.53    1.26
  -3   2  -8   10.38    1.45
   3  -2   8    7.56    1.36
   3  -2   8    8.44    1.36
  -3  -2  -8    9.50    1.45
  -3  -2  -8    8.83    1.36
   4   2   8   -0.29    1.26
   4   2   8    1.07    0.97
  -4   2  -8    0.48    0.87
  -4   2  -8   -0.87    0.87
   4  -2   8    0.58    0.97
   4  -2   8    0.19    0.97
  -4  -2  -8    0.58    1.26
  -4  -2  -8   -0.10    0.87
   5   2   8    9.89    1.45
  -5   2  -8    5.63    1.26
  -5   2  -8    8.24    1.45
   5  -2   8   10.77    1.65
   5  -2   8    8.24    1.45
  -5  -2  -8    9.60    1.75
  -5  -2  -8    7.86    1.36
   6   2   8   62.65    6.01
  -6   2  -8   55.57    5.24
   6  -2   8   72.25    6.69
   6  -2   8   77.88    7.37
  -6  -2  -8   84.38    7.66
  -6  -2  -8  104.65    9.50
 -10   3   8    1.26    0.87
  10   3  -8   -0.68    1.45
 -10  -3   8    4.56    1.36
 -10  -3   8    4.17    1.26
  10  -3  -8    5.33    1.07
  -9   3   8    1.07    0.97
  -9   3   8    0.29    0.78
   9   3  -8    2.91    1.07
   9   3  -8   -0.78    1.36
  -9  -3   8    1.07    1.16
  -9  -3   8    0.48    1.36
   9  -3  -8    1.16    0.68
   9  -3  -8    0.78    1.26
  -8   3   8    7.27    1.36
   8   3  -8   12.32    2.04
   8   3  -8   11.64    1.65
  -8  -3   8    5.63    1.36
  -8  -3   8    8.53    1.55
   8  -3  -8   10.96    1.65
   8  -3  -8    5.33    1.45
  -7   3   8  113.57   10.28
  -7   3   8  114.15   10.38
   7   3  -8   96.30    9.02
   7   3  -8  105.81    9.50
  -7  -3   8   99.89    9.02
  -7  -3   8   99.51    9.02
   7  -3  -8   99.51    9.21
   7  -3  -8  113.76   10.18
  -6   3   8  147.12   13.29
  -6   3   8  142.57   12.80
   6   3  -8  143.83   13.00
   6   3  -8  149.26   13.29
  -6  -3   8  146.64   13.09
   6  -3  -8  151.49   13.58
   6  -3  -8  140.63   12.70
  -5   3   8    0.78    1.16
  -5   3   8   -0.10    0.87
   5   3  -8   -0.29    0.78
   5   3  -8    0.19    0.68
  -5  -3   8   -0.29    0.58
  -5  -3   8    0.00    0.78
   5  -3  -8    1.75    0.87
   5  -3  -8    1.75    0.97
  -4   3   8  118.13   10.86
  -4   3   8  104.55    9.41
   4   3  -8  103.68    9.31
   4   3  -8   97.66    8.73
  -4  -3   8  107.17    9.60
  -4  -3   8   98.63    8.83
   4  -3  -8  102.71    9.31
   4  -3  -8  109.30    9.89
  -3   3   8  126.08   11.35
  -3   3   8  146.25   13.29
   3  -3  -8  134.13   12.12
   3  -3  -8  129.18   11.54
  -2   3   8   21.43    2.52
  -2   3   8   22.89    2.42
   2  -3  -8   23.08    2.52
   2  -3  -8   21.82    2.23
  -1   3   8    6.98    1.16
  -1   3   8    5.43    1.07
   1  -3  -8    6.21    0.97
   1  -3  -8    6.21    1.26
   0   3   8   -0.48    0.97
   0   3   8   -1.55    1.26
   0  -3  -8    0.29    0.78
   0  -3  -8    1.16    1.07
   1   3   8    3.98    1.36
   1   3   8    3.49    1.26
  -1  -3  -8    2.81    0.87
  -1  -3  -8    3.88    1.16
   2   3   8   28.32    3.01
   2   3   8   22.69    2.52
  -2   3  -8   17.94    1.75
  -2   3  -8   21.63    2.13
   2  -3   8   21.63    2.13
   2  -3   8   23.76    2.42
  -2  -3  -8   24.34    2.52
  -2  -3  -8   30.26    3.10
   3   3   8   23.47    2.62
   3   3   8   17.65    2.13
  -3   3  -8   19.01    1.94
   3  -3   8   19.78    2.23
  -3  -3  -8   19.30    2.23
  -3  -3  -8   20.85    2.23
   4   3   8    0.10    1.26
   4   3   8    2.62    1.07
  -4   3  -8    1.94    0.97
   4  -3   8    1.07    0.87
   4  -3   8    2.04    1.07
  -4  -3  -8    2.04    0.78
  -4  -3  -8    1.75    1.36
   5   3   8   -0.10    0.87
   5   3   8    1.94    1.07
  -5   3  -8    1.45    1.07
  -5   3  -8    1.26    0.97
   5  -3   8    2.52    1.16
   5  -3   8   -0.87    0.87
  -5  -3  -8    1.07    0.78
  -5  -3  -8    1.26    1.07
   6   3   8    1.07    0.87
   6   3   8    1.16    1.26
   6  -3   8    0.58    0.97
  -6  -3  -8    2.23    1.07
  -6  -3  -8   -0.39    1.45
  -9   4   8    1.45    1.07
  -9  -4   8    0.19    1.16
   9  -4  -8   -0.68    0.87
  -8   4   8   21.82    2.42
  -8   4   8   17.75    2.13
   8   4  -8   13.87    1.75
  -8  -4   8   12.12    1.84
  -8  -4   8    7.47    1.26
   8  -4  -8    9.99    1.84
  -7   4   8    0.39    0.68
  -7   4   8    2.42    1.07
   7   4  -8    1.26    0.68
  -7  -4   8    0.10    0.78
  -7  -4   8    0.58    0.97
   7  -4  -8    0.00    1.07
   7  -4  -8   -0.10    0.87
  -6   4   8   51.30    4.85
  -6   4   8   56.35    5.33
  -6  -4   8   36.76    3.39
   6  -4  -8   53.92    5.04
   6  -4  -8   44.42    4.36
  -5   4   8    2.13    1.16
   5  -4  -8    2.91    0.97
  -4   4   8    0.87    0.78
  -4   4   8    1.65    1.16
   4  -4  -8    0.58    0.78
   4  -4  -8   -0.87    0.87
  -3   4   8   -1.16    0.68
  -3   4   8    1.45    0.78
   3  -4  -8    0.29    0.87
   3  -4  -8    0.29    0.48
  -2   4   8   56.15    5.24
  -2   4   8   63.91    6.11
   2  -4  -8   59.35    5.53
   2  -4  -8   58.29    5.53
  -1   4   8    7.47    1.45
  -1   4   8    5.24    0.87
   1  -4  -8    4.95    0.97
   1  -4  -8    6.21    1.16
   0   4   8   -0.10    0.97
   0   4   8    2.72    0.97
   0  -4  -8    1.26    0.68
   0  -4  -8    0.87    0.97
   1   4   8    0.97    0.97
  -1  -4  -8    1.07    0.78
   2   4   8    2.04    1.26
   2   4   8    0.39    0.97
  -2  -4  -8    0.19    1.16
  -2  -4  -8    0.00    0.78
   3   4   8   57.71    5.43
   3   4   8   49.85    4.85
  -3  -4  -8   53.34    5.04
  -3  -4  -8   57.80    5.43
   4   4   8    4.95    1.45
   4   4   8    7.27    1.26
  -4  -4  -8    5.33    0.97
  -4  -4  -8    6.11    1.55
  -7   5   8   -0.78    0.78
   7  -5  -8   -1.36    0.87
  -6   5   8   22.31    2.42
  -6   5   8   21.14    2.23
   6  -5  -8   23.76    2.42
   6  -5  -8   17.46    2.13
  -5   5   8    2.13    0.87
  -5   5   8    1.65    0.97
   5  -5  -8    1.55    0.97
   5  -5  -8    3.01    0.87
  -4   5   8   77.97    7.18
  -4   5   8   75.84    7.08
   4  -5  -8   71.28    6.50
   4  -5  -8   74.48    6.98
  -3   5   8   11.35    1.55
  -3   5   8   14.94    1.84
   3  -5  -8   13.29    1.84
   3  -5  -8   11.44    1.36
  -2   5   8    0.78    0.97
  -2   5   8   -0.58    0.87
   2  -5  -8    3.20    1.16
   2  -5  -8    0.97    0.68
  -1   5   8    9.50    1.36
  -1   5   8   10.86    1.94
   1  -5  -8    8.73    1.45
   1  -5  -8    8.53    1.16
   0  -5  -8   38.79    3.88
   0  -5  -8   30.65    3.01
   1   5   8   16.20    1.94
   1   5   8   19.40    2.52
  -1  -5  -8   19.98    2.33
  -1  -5  -8   16.49    1.84
   2   5   8   -0.39    0.97
   2   5   8   -0.87    0.87
  -2  -5  -8   -2.52    1.16
  -2  -5  -8   -1.36    0.78
   3   5   8    0.29    0.87
  -3  -5  -8   -0.29    0.78
  -2   6   8   14.64    1.94
   2  -6  -8   17.84    1.94
 -10   0   9    0.58    1.16
  10   0  -9   -0.29    1.36
  -9   0   9    0.97    0.97
  -9   0   9   -1.45    1.07
   9   0  -9   -0.10    0.87
   9   0  -9    0.68    1.26
  -8   0   9   -0.10    0.97
  -8   0   9   -0.97    0.87
   8   0  -9    1.07    0.78
   8   0  -9    1.45    1.16
  -7   0   9    0.68    0.97
  -7   0   9   -1.26    0.97
   7   0  -9    0.68    0.97
   7   0  -9    0.48    1.07
  -6   0   9    0.19    1.16
  -6   0   9   -1.94    0.87
   6   0  -9    0.58    0.97
   6   0  -9    1.75    1.16
  -5   0   9    1.94    0.97
  -5   0   9    0.58    0.87
   5   0  -9    2.33    0.97
  -4   0   9    0.68    0.68
  -4   0   9   -0.19    0.97
   4   0  -9   -0.78    0.87
   4   0  -9   -0.29    0.78
  -3   0   9   -0.78    1.07
  -3   0   9    0.87    0.78
   3   0  -9   -0.58    0.87
   3   0  -9   -1.94    0.87
  -2   0   9   -0.87    0.87
  -2   0   9    0.48    0.78
   2   0  -9    0.39    0.87
   2   0  -9    0.29    0.58
  -1   0   9    0.48    0.97
  -1   0   9    2.04    1.16
   1   0  -9    0.00    0.68
   1   0  -9   -0.97    0.87
   0   0   9    1.26    0.97
   0   0   9    0.00    1.07
   0   0  -9   -0.29    0.87
   0   0  -9    1.45    0.68
   1   0   9    0.00    1.16
   1   0   9    0.68    1.07
  -1   0  -9   -0.78    0.78
  -1   0  -9   -0.68    0.78
   2   0   9    0.39    1.36
   2   0   9   -0.48    1.07
  -2   0  -9    0.00    0.87
  -2   0  -9   -2.13    1.07
   3   0   9   -0.97    1.07
   3   0   9    1.45    1.26
  -3   0  -9   -0.10    0.97
   4   0   9    0.87    0.97
   4   0   9   -1.36    1.26
  -4   0  -9    0.87    0.97
  -4   0  -9    1.55    0.97
   5   0   9   -0.97    0.87
   5   0   9   -0.10    1.45
  -5   0  -9   -1.84    1.16
  -5   0  -9   -0.68    0.78
 -10   1   9    1.94    0.97
 -10   1   9   -0.39    1.16
  10   1  -9   -0.48    0.87
 -10  -1   9    1.84    1.16
  10  -1  -9    1.65    0.87
  10  -1  -9    1.65    1.36
  -9   1   9    0.10    1.07
  -9   1   9    0.19    1.16
   9   1  -9   -0.10    0.97
   9   1  -9   -1.65    1.36
  -9  -1   9   -0.97    1.07
  -9  -1   9    1.55    1.07
   9  -1  -9   -2.33    1.26
   9  -1  -9    0.68    0.87
  -8   1   9   51.11    4.75
  -8   1   9   45.00    4.36
   8   1  -9   41.31    3.98
   8   1  -9   35.30    3.78
  -8  -1   9   39.08    3.78
  -8  -1   9   42.28    4.17
   8  -1  -9   44.61    4.17
   8  -1  -9   42.87    4.36
  -7   1   9    1.45    0.97
   7   1  -9    2.42    1.26
   7   1  -9    2.72    0.97
  -7  -1   9    4.75    1.07
   7  -1  -9    4.07    1.36
   7  -1  -9    2.81    1.07
  -6   1   9   -0.68    0.97
  -6   1   9    1.36    0.87
   6   1  -9    1.45    1.16
   6   1  -9    2.13    0.97
  -6  -1   9    0.29    0.97
  -6  -1   9    0.00    0.78
   6  -1  -9   -0.39    1.07
   6  -1  -9    2.13    0.87
  -5   1   9    4.95    1.26
  -5   1   9    5.92    1.16
   5   1  -9    5.33    1.16
   5   1  -9    6.40    1.26
  -5  -1   9    8.44    1.55
  -5  -1   9    5.72    1.07
   5  -1  -9    6.59    1.45
  -4   1   9    3.69    0.97
  -4   1   9    6.98    1.45
   4   1  -9    6.11    1.16
   4   1  -9    6.59    1.16
  -4  -1   9    5.53    1.07
  -4  -1   9    7.18    1.16
   4  -1  -9    6.30    1.07
   4  -1  -9    6.50    1.26
  -3   1   9   38.89    3.98
  -3   1   9   38.70    3.78
   3   1  -9   38.89    3.88
   3   1  -9   38.99    3.69
  -3  -1   9   36.66    3.69
  -3  -1   9   38.02    3.69
   3  -1  -9   35.11    3.49
   3  -1  -9   33.65    3.30
  -2   1   9    0.10    1.07
  -2   1   9    0.97    0.87
   2   1  -9    1.07    0.78
   2   1  -9    0.68    0.87
  -2  -1   9    0.78    1.07
  -2  -1   9    3.59    1.07
   2  -1  -9    0.87    0.97
   2  -1  -9    0.87    0.68
  -1   1   9    0.39    0.97
  -1   1   9    1.07    1.26
   1   1  -9    0.39    0.87
   1   1  -9    0.78    0.68
  -1  -1   9   -0.19    0.97
  -1  -1   9   -0.58    0.87
   1  -1  -9    0.39    0.87
   1  -1  -9    0.87    0.68
   0   1   9   15.03    1.84
   0   1  -9   14.16    1.75
   0   1  -9   14.55    1.65
   0  -1   9   13.09    1.84
   0  -1   9   15.71    1.84
   0  -1  -9   14.55    1.65
   0  -1  -9   14.55    1.84
   1   1   9   77.78    7.37
   1   1   9   83.50    7.76
  -1   1  -9   85.35    7.86
  -1   1  -9   72.74    6.69
   1  -1   9   65.27    6.21
   1  -1   9   86.99    7.95
  -1  -1  -9   70.41    6.50
   2   1   9   23.95    2.62
   2   1   9   20.85    2.42
  -2   1  -9   25.12    2.72
  -2   1  -9   25.70    2.62
   2  -1   9   22.69    2.62
   2  -1   9   21.63    2.42
  -2  -1  -9   22.69    2.42
  -2  -1  -9   23.18    2.42
   3   1   9    2.23    1.16
   3   1   9    0.58    1.16
  -3   1  -9    1.75    0.97
   3  -1   9    0.97    1.07
  -3  -1  -9    1.84    1.16
  -3  -1  -9   -0.19    0.78
   4   1   9    1.45    1.36
   4   1   9   -0.68    0.97
  -4   1  -9   -1.45    0.87
  -4   1  -9    1.75    1.16
   4  -1   9    2.91    1.36
   4  -1   9    1.65    1.07
  -4  -1  -9    1.94    0.87
  -4  -1  -9   -0.48    0.78
   5   1   9   42.48    4.27
  -5   1  -9   46.65    4.46
  -5   1  -9   43.06    4.17
   5  -1   9   35.59    3.59
   5  -1   9   43.74    4.27
  -5  -1  -9   49.27    4.66
 -10   2   9    0.78    0.97
 -10  -2   9    0.87    0.87
  10  -2  -9    0.58    0.87
  -9   2   9   12.22    1.65
   9   2  -9    9.60    1.55
  -9  -2   9    8.63    1.45
  -9  -2   9    8.44    1.45
   9  -2  -9   10.09    1.45
  -8   2   9    7.47    1.36
  -8   2   9   10.86    1.75
   8   2  -9    7.47    1.36
  -8  -2   9    3.88    1.16
   8  -2  -9    1.65    1.16
  -7   2   9    3.69    1.07
  -7   2   9    4.85    1.16
   7   2  -9    4.56    1.36
   7   2  -9    6.30    1.16
  -7  -2   9    4.66    1.16
  -7  -2   9    3.49    1.07
   7  -2  -9    3.69    0.97
   7  -2  -9    5.24    1.36
  -6   2   9    4.56    1.16
  -6   2   9    8.44    1.36
   6   2  -9    4.85    1.16
   6   2  -9    4.07    1.26
  -6  -2   9    5.04    1.07
  -6  -2   9    7.47    1.36
   6  -2  -9    6.69    1.16
   6  -2  -9    4.75    1.26
  -5   2   9   29.29    3.10
  -5   2   9   26.09    2.72
   5   2  -9   23.76    2.52
   5   2  -9   22.02    2.23
  -5  -2   9   22.21    2.33
  -5  -2   9   23.76    2.42
   5  -2  -9   22.50    2.52
   5  -2  -9   25.89    2.62
  -4   2   9  252.93   22.60
  -4   2   9  223.16   19.88
   4   2  -9  249.15   22.21
  -4  -2   9  241.00   21.43
  -4  -2   9  226.46   20.08
   4  -2  -9  218.12   19.49
   4  -2  -9  231.69   20.56
  -3   2   9   22.99    2.42
  -3   2   9   20.95    2.52
   3   2  -9   27.16    2.72
   3   2  -9   26.38    2.72
  -3  -2   9   32.10    3.20
   3  -2  -9   22.69    2.33
   3  -2  -9   24.44    2.62
  -2   2   9   17.07    2.23
  -2   2   9   16.58    1.84
   2   2  -9   17.65    1.84
   2   2  -9   19.59    2.13
  -2  -2   9   20.95    2.33
  -2  -2   9   16.10    1.84
   2  -2  -9   16.78    2.04
   2  -2  -9   17.55    1.94
  -1   2   9   22.89    2.52
  -1   2   9   18.52    2.33
   1   2  -9   17.55    1.94
   1   2  -9   18.81    1.94
  -1  -2   9   17.84    2.04
  -1  -2   9   19.59    2.13
   1  -2  -9   17.65    2.04
   1  -2  -9   12.41    1.45
   0   2   9   17.94    2.13
   0   2   9   14.64    1.94
   0   2  -9   15.03    1.75
   0   2  -9   15.32    1.65
   0  -2   9   13.09    1.65
   0  -2  -9   14.45    1.84
   1   2   9  176.12   15.91
  -1   2  -9  200.46   17.84
   1  -2   9  191.93   17.26
   1  -2   9  176.03   15.71
  -1  -2  -9  171.08   15.32
   2   2   9    9.50    1.65
  -2   2  -9   15.91    1.94
  -2   2  -9   12.22    1.55
   2  -2   9   10.28    1.45
   2  -2   9    9.70    1.55
  -2  -2  -9   12.90    1.65
   3   2   9    1.36    1.16
  -3   2  -9    1.45    0.97
  -3   2  -9    0.29    0.87
   3  -2   9    0.29    0.97
   3  -2   9    4.36    1.26
  -3  -2  -9    2.33    0.97
   4   2   9   11.64    1.75
  -4   2  -9   12.22    1.65
  -4   2  -9    8.73    1.45
   4  -2   9    8.53    1.55
   4  -2   9    8.44    1.55
  -4  -2  -9   15.23    2.04
   5   2   9    0.58    1.45
   5   2   9   -0.68    0.97
  -5   2  -9    0.68    0.97
  -5   2  -9    0.87    0.97
   5  -2   9    0.58    1.16
  -5  -2  -9    3.10    0.97
  -5  -2  -9    0.87    0.97
  -8   3   9    2.13    0.78
  -8   3   9    3.30    1.16
   8   3  -9    1.36    1.26
   8   3  -9    3.01    1.16
  -8  -3   9    3.20    1.16
  -8  -3   9    1.45    0.97
   8  -3  -9    5.14    1.07
   8  -3  -9    1.36    1.36
  -7   3   9  140.72   12.70
  -7   3   9  153.23   13.77
   7   3  -9  111.53   10.28
   7   3  -9  146.45   13.09
  -7  -3   9  126.95   11.44
  -7  -3   9  151.29   13.58
   7  -3  -9  129.28   11.83
   7  -3  -9  148.58   13.29
  -6   3   9    0.29    0.97
  -6   3   9   -0.29    1.07
   6   3  -9    1.45    0.87
   6   3  -9    0.19    0.97
  -6  -3   9   -0.29    0.87
   6  -3  -9    0.58    0.87
   6  -3  -9    0.48    1.07
  -5   3   9   -0.68    0.78
  -5   3   9    0.68    1.07
   5   3  -9    0.97    0.78
   5   3  -9    0.78    0.68
  -5  -3   9    0.39    0.78
  -5  -3   9    0.48    0.78
   5  -3  -9    1.84    0.87
   5  -3  -9    0.97    0.97
  -4   3   9   52.08    4.85
  -4   3   9   59.45    5.72
  -4  -3   9   42.09    3.88
  -4  -3   9   64.30    5.82
   4  -3  -9   53.73    5.14
   4  -3  -9   53.05    4.95
  -3   3   9   32.00    3.30
  -3   3   9   29.39    2.91
   3  -3  -9   27.06    2.72
   3  -3  -9   29.00    3.01
  -2   3   9    3.98    1.26
  -2   3   9    2.13    0.87
   2  -3  -9    1.94    0.97
   2  -3  -9    2.81    0.78
  -1   3   9    5.43    1.07
  -1   3   9    6.40    1.26
   1  -3  -9    5.53    0.87
   1  -3  -9    6.01    1.16
   0   3   9   12.70    1.65
   0   3   9   10.96    1.65
   0  -3  -9   13.97    1.75
   0  -3  -9   10.57    1.36
   1   3   9   -0.39    1.07
  -1  -3  -9    2.62    0.97
   2   3   9    3.01    1.36
   2  -3   9    4.46    0.97
   2  -3   9    4.95    0.87
  -2  -3  -9    4.46    1.07
  -2  -3  -9    1.26    1.16
   3   3   9    4.07    1.16
   3   3   9    4.56    1.55
  -3   3  -9    1.65    0.78
  -3   3  -9    2.33    0.78
   3  -3   9    4.85    1.07
  -3  -3  -9    4.27    0.97
  -3  -3  -9    3.59    1.26
   4   3   9   38.79    3.88
   4   3   9   47.62    4.56
  -4  -3  -9   47.23    4.56
  -7   4   9   26.28    2.81
  -7   4   9   29.58    3.01
  -6   4   9    2.62    0.87
  -6   4   9    1.55    0.87
   6  -4  -9    0.97    0.78
   6  -4  -9   -0.19    1.07
  -5   4   9   11.74    1.55
  -5   4   9   11.44    1.65
   5  -4  -9   11.83    1.65
   5  -4  -9    9.89    1.36
  -4   4   9   16.39    1.94
  -4   4   9   13.48    1.75
   4  -4  -9   15.52    1.94
   4  -4  -9   15.23    1.75
  -3   4   9   27.45    2.81
   3  -4  -9   32.00    3.30
  -2   4   9   47.81    4.56
   2  -4  -9   51.50    4.95
  -1   4   9   12.12    1.94
  -1   4   9   11.15    1.65
   1  -4  -9   12.90    1.75
   1  -4  -9   11.74    1.55
   0   4   9   30.16    3.20
   0   4   9   40.15    4.07
   0  -4  -9   31.52    3.20
   0  -4  -9   31.62    3.10
   1   4   9   10.47    1.55
   1   4   9   12.70    1.75
  -1  -4  -9   13.19    1.75
  -1  -4  -9   14.64    1.65
   2   4   9   13.67    1.84
   2   4   9    8.15    1.55
  -2  -4  -9   13.19    1.65
  -2  -4  -9    8.53    1.65
   3   4   9    0.97    1.07
  -3  -4  -9    1.07    0.68
  -4   5   9    2.23    1.07
   4  -5  -9    0.87    0.87
  -3   5   9    0.58    0.68
  -3   5   9    0.29    0.87
   3  -5  -9   -0.10    0.87
   3  -5  -9    0.39    0.68
  -2   5   9   -0.10    0.87
  -2   5   9    2.04    0.78
   2  -5  -9   -0.58    0.68
   2  -5  -9   -0.68    0.97
  -1   5   9   11.64    1.94
  -1   5   9   14.16    1.84
   0   5   9   12.70    1.75
   0  -5  -9   10.67    1.36
  -9   0  10   16.58    2.23
   9   0 -10   21.43    2.23
  -8   0  10    0.48    1.07
  -8   0  10    2.04    1.07
   8   0 -10   -1.26    0.87
   8   0 -10    1.07    1.16
  -7   0  10    5.04    1.16
  -7   0  10    0.48    1.07
   7   0 -10    2.91    0.87
   7   0 -10    0.58    1.16
  -6   0  10    6.21    1.36
  -6   0  10    2.42    1.07
   6   0 -10    1.75    1.07
   6   0 -10    0.87    0.97
  -5   0  10    0.48    1.07
  -5   0  10    0.19    0.87
   5   0 -10   -0.39    0.87
  -4   0  10   23.86    2.52
   4   0 -10   23.18    2.52
   4   0 -10   22.02    2.42
  -3   0  10   -0.10    0.87
  -3   0  10   -0.39    1.07
   3   0 -10   -0.48    0.87
   3   0 -10   -0.39    1.07
  -2   0  10   30.94    3.30
  -2   0  10   22.60    2.62
   2   0 -10   22.50    2.33
   2   0 -10   25.60    2.91
  -1   0  10   14.16    1.94
  -1   0  10   12.22    1.84
   1   0 -10   11.74    1.65
   1   0 -10   10.86    1.36
   0   0  10   14.35    1.75
   0   0 -10   14.35    1.75
   0   0 -10   13.38    1.75
   1   0  10    3.39    1.36
   1   0  10    2.13    1.07
  -1   0 -10    0.19    0.97
   2   0  10   -0.97    1.36
   2   0  10    2.23    1.16
  -2   0 -10    1.16    0.97
  -2   0 -10    0.68    0.97
   3   0  10    2.42    1.16
   3   0  10    0.78    1.36
  -3   0 -10    3.30    0.97
  -3   0 -10    3.01    0.97
   4   0  10   26.77    2.91
  -4   0 -10   37.24    3.69
  -9   1  10   -1.16    1.36
   9   1 -10   -0.68    1.45
  -9  -1  10    3.30    1.26
  -9  -1  10    2.13    1.26
   9  -1 -10    2.13    1.36
   9  -1 -10    6.79    1.16
  -8   1  10    9.21    1.45
   8   1 -10   13.67    1.65
  -8  -1  10   16.10    1.84
  -8  -1  10   13.48    1.75
   8  -1 -10   18.52    2.13
   8  -1 -10   11.25    1.84
  -7   1  10   10.38    1.65
   7   1 -10    7.08    1.55
  -7  -1  10   14.45    1.84
  -7  -1  10   13.48    1.75
   7  -1 -10   17.84    2.04
  -6   1  10    7.47    1.36
  -6   1  10    4.95    1.16
   6   1 -10    5.24    1.26
   6   1 -10   10.77    1.55
  -6  -1  10    6.69    1.16
  -6  -1  10    7.95    1.45
   6  -1 -10    6.50    1.36
   6  -1 -10    7.18    1.16
  -5   1  10  174.76   15.71
  -5   1  10  179.03   16.00
   5   1 -10  173.50   15.52
   5   1 -10  175.35   15.81
  -5  -1  10  171.37   15.32
  -5  -1  10  166.52   14.94
   5  -1 -10  161.09   14.35
   5  -1 -10  159.34   14.35
  -4   1  10  121.13   10.96
  -4   1  10  132.67   12.12
   4   1 -10  122.20   11.15
   4   1 -10  130.54   11.74
  -4  -1  10  123.75   11.15
  -4  -1  10  121.81   10.96
   4  -1 -10  112.50   10.18
   4  -1 -10  121.62   11.06
  -3   1  10    0.58    1.07
  -3   1  10    1.65    0.87
   3   1 -10    4.07    1.07
   3   1 -10    2.42    1.07
  -3  -1  10    2.33    0.97
  -3  -1  10    1.36    1.07
   3  -1 -10    1.75    0.87
   3  -1 -10    2.62    1.07
  -2   1  10    2.52    1.16
   2   1 -10    1.75    0.87
   2   1 -10    0.68    0.97
  -2  -1  10    1.07    1.07
  -2  -1  10    1.45    0.97
   2  -1 -10   -0.10    0.68
   2  -1 -10    0.10    0.87
  -1   1  10   19.01    2.33
  -1   1  10   29.00    3.10
   1   1 -10   24.63    2.62
   1   1 -10   23.86    2.42
  -1  -1  10   19.49    2.33
  -1  -1  10   25.41    2.72
   1  -1 -10   22.40    2.33
   1  -1 -10   22.40    2.33
   0   1  10  253.90   22.69
   0   1  10  280.86   25.02
   0   1 -10  273.78   24.34
   0   1 -10  261.95   23.28
   0  -1  10  257.10   22.99
   0  -1  10  270.87   24.15
   0  -1 -10  237.71   21.14
   0  -1 -10  243.43   21.63
   1   1  10   23.76    2.72
   1   1  10   27.16    2.81
  -1   1 -10   30.06    3.10
  -1   1 -10   22.31    2.42
   1  -1  10   25.70    2.81
   1  -1  10   23.76    2.72
  -1  -1 -10   22.31    2.33
  -1  -1 -10   21.92    2.42
   2   1  10   19.01    2.33
   2   1  10   18.72    2.52
  -2   1 -10   16.78    1.94
  -2   1 -10   21.14    2.42
   2  -1  10   14.45    2.04
   2  -1  10   15.71    2.04
  -2  -1 -10   17.94    2.04
  -2  -1 -10   18.62    2.23
   3   1  10    3.20    1.26
   3   1  10    4.66    1.26
   3  -1  10    6.40    1.45
   3  -1  10    5.04    1.36
  -3  -1 -10    9.50    1.65
  -3  -1 -10    6.01    1.07
   4   1  10   14.16    2.04
  -4   1 -10    8.44    1.65
  -8   2  10   -0.97    1.16
  -8   2  10   -0.19    1.07
   8   2 -10    0.19    1.26
  -8  -2  10   -0.87    1.16
  -8  -2  10   -1.16    1.16
   8  -2 -10    1.26    1.16
   8  -2 -10    0.87    0.68
  -7   2  10    3.20    1.07
  -7   2  10    1.84    1.07
   7   2 -10    2.62    1.07
  -7  -2  10    3.20    1.26
  -7  -2  10    0.87    1.07
   7  -2 -10    4.07    1.36
   7  -2 -10    3.69    0.97
  -6   2  10   11.44    1.65
  -6   2  10    7.66    1.26
   6   2 -10    6.01    1.26
   6   2 -10   11.06    1.55
  -6  -2  10    8.73    1.45
  -6  -2  10    6.40    1.07
   6  -2 -10   10.18    1.36
   6  -2 -10    8.73    1.55
  -5   2  10  133.55   12.12
  -5   2  10  116.67   10.57
   5   2 -10  116.57   10.67
   5   2 -10  121.23   10.86
  -5  -2  10  133.16   12.03
  -5  -2  10  113.57   10.18
   5  -2 -10  121.71   10.96
  -4   2  10    3.10    1.16
  -4   2  10    1.36    0.97
   4   2 -10    0.48    0.87
   4   2 -10    2.23    0.97
  -4  -2  10    0.78    0.97
   4  -2 -10    0.87    0.78
   4  -2 -10    1.36    0.87
  -3   2  10    8.44    1.55
  -3   2  10    9.02    1.45
   3   2 -10    8.05    1.45
  -3  -2  10    6.30    1.26
  -3  -2  10   10.18    1.55
   3  -2 -10    6.98    1.36
   3  -2 -10    6.21    0.97
  -2   2  10    0.00    0.68
  -2   2  10   -0.19    1.07
   2   2 -10    0.00    0.87
  -2  -2  10    0.10    1.07
  -2  -2  10   -0.10    0.87
   2  -2 -10    1.07    0.68
   2  -2 -10    0.19    0.87
  -1   2  10   26.19    2.91
  -1   2  10   26.28    2.81
   1   2 -10   27.74    2.91
  -1  -2  10   24.73    2.72
  -1  -2  10   22.69    2.42
   1  -2 -10   25.60    2.72
   1  -2 -10   20.27    2.13
   0   2  10   78.94    7.37
   0   2  10   65.08    6.21
   0   2 -10   81.27    7.47
   0   2 -10   83.60    7.66
   0  -2  10   82.15    7.56
   0  -2  10   77.97    7.27
   0  -2 -10   65.27    6.01
   0  -2 -10   68.28    6.30
   1   2  10   84.76    7.95
  -1   2 -10  101.06    9.12
  -1   2 -10  103.58    9.41
   1  -2  10   81.85    7.56
   1  -2  10   86.99    8.15
  -1  -2 -10   85.35    7.76
  -1  -2 -10   78.46    7.18
   2   2  10    8.15    1.65
   2   2  10    3.69    1.45
  -2   2 -10    6.98    1.26
  -2   2 -10    5.04    1.26
   2  -2  10    5.33    1.26
   2  -2  10    5.53    1.26
  -2  -2 -10    6.98    1.36
   3   2  10    0.58    1.07
   3   2  10    0.10    1.45
  -3   2 -10   -0.68    0.97
  -3   2 -10   -0.19    0.97
   3  -2  10   -0.68    0.97
   3  -2  10    0.10    0.97
  -3  -2 -10   -1.45    0.87
  -3  -2 -10   -0.19    1.16
  -7   3  10    0.10    0.97
  -7   3  10    0.48    0.87
   7  -3 -10    2.42    1.07
  -6   3  10    7.37    1.07
  -6   3  10    6.21    1.26
  -6  -3  10   -0.10    0.97
  -6  -3  10    2.62    0.97
   6  -3 -10    1.45    1.16
  -5   3  10    2.52    0.68
  -5   3  10    4.36    1.07
  -5  -3  10    2.62    0.78
  -5  -3  10    0.87    0.87
   5  -3 -10    3.78    0.87
   5  -3 -10    5.04    1.16
  -4   3  10    3.49    1.07
  -4   3  10    1.55    1.16
   4  -3 -10    2.33    1.07
   4  -3 -10    1.94    0.97
  -3   3  10    0.39    0.87
   3  -3 -10   -1.16    0.87
  -2   3  10    0.39    0.68
   2  -3 -10   -0.29    0.97
  -1   3  10   -0.78    1.36
  -1   3  10   -0.10    0.87
   1  -3 -10    1.26    0.97
   0   3  10    0.10    0.68
   0  -3 -10    0.10    0.68
   1   3  10    3.69    1.16
  -1  -3 -10    1.94    0.68
  -1  -3 -10    3.39    1.16
   2   3  10    0.87    1.26
   2   3  10    3.01    1.07
  -2  -3 -10    1.45    0.97
  -2  -3 -10    0.29    0.78
  -5   4  10   11.35    1.65
   5  -4 -10   11.83    1.45
  -4   4  10   10.47    1.65
  -4   4  10    7.66    1.36
   4  -4 -10    7.76    1.45
   4  -4 -10   11.54    1.55
  -3   4  10    6.01    1.26
  -3   4  10    4.27    1.07
   3  -4 -10    3.69    1.16
   3  -4 -10    5.72    0.97
  -2   4  10    4.07    1.07
  -2   4  10    2.23    0.97
   2  -4 -10    3.78    0.87
   2  -4 -10    1.36    1.07
  -1   4  10   14.16    1.94
  -1   4  10   12.90    1.75
  -7   0  11   -0.78    1.07
   7   0 -11    0.10    0.87
  -6   0  11    0.10    0.87
  -6   0  11    0.48    1.07
   6   0 -11   -0.10    0.97
   6   0 -11    0.87    0.97
  -5   0  11   -0.19    0.87
  -5   0  11   -0.10    0.87
   5   0 -11    0.87    0.87
   5   0 -11    1.07    0.87
  -4   0  11    0.58    0.87
  -4   0  11   -0.10    0.97
   4   0 -11   -0.78    0.87
   4   0 -11    0.87    0.87
  -3   0  11    0.00    1.26
  -3   0  11    0.39    0.97
   3   0 -11    1.26    0.87
   3   0 -11    0.87    0.87
  -2   0  11   -0.68    1.16
  -2   0  11   -0.48    0.97
   2   0 -11   -0.10    0.87
   2   0 -11   -1.16    0.87
  -1   0  11    1.75    1.26
  -1   0  11   -0.97    0.87
   1   0 -11    1.26    0.97
   1   0 -11   -0.10    0.68
   0   0  11   -1.36    0.97
   0   0  11   -0.68    0.78
   0   0 -11   -0.10    0.68
   0   0 -11   -0.10    0.97
   1   0  11    0.87    0.97
   1   0  11    2.72    1.36
  -1   0 -11    0.00    1.16
  -1   0 -11    0.39    0.78
  -7   1  11    1.36    1.26
  -7   1  11    0.29    1.26
   7   1 -11    0.19    0.87
   7   1 -11    0.68    1.07
  -7  -1  11   -0.10    0.97
  -7  -1  11    0.68    1.07
   7  -1 -11    0.00    0.97
  -6   1  11   38.31    3.88
   6   1 -11   31.23    3.30
   6   1 -11   38.11    3.69
  -6  -1  11   43.45    4.17
  -6  -1  11   41.80    4.17
   6  -1 -11   36.37    3.69
   6  -1 -11   41.61    3.98
  -5   1  11    0.87    1.07
   5   1 -11    0.19    0.97
   5   1 -11    1.07    1.07
  -5  -1  11    0.10    0.97
   5  -1 -11    2.23    0.87
  -4   1  11    7.27    1.36
  -4   1  11   10.09    1.55
   4   1 -11    8.34    1.45
   4   1 -11   10.09    1.45
  -4  -1  11    9.41    1.45
  -4  -1  11    8.15    1.36
   4  -1 -11    8.83    1.45
   4  -1 -11   10.18    1.36
  -3   1  11    6.11    1.16
  -3   1  11    7.95    1.45
   3   1 -11    6.11    1.16
  -3  -1  11    7.18    1.45
   3  -1 -11    5.72    1.07
   3  -1 -11    2.62    1.16
  -2   1  11    5.92    1.26
  -2   1  11    2.81    1.07
   2   1 -11    4.27    0.97
  -2  -1  11    6.01    1.36
   2  -1 -11    4.17    1.16
   2  -1 -11    3.49    0.78
  -1   1  11    2.81    1.07
  -1   1  11    0.10    1.26
   1   1 -11    1.45    0.78
  -1  -1  11    2.72    1.26
   1  -1 -11    0.97    0.97
   1  -1 -11    1.16    0.68
   0   1  11    7.18    1.36
   0   1 -11    8.15    1.45
   0   1 -11    7.66    1.16
   0  -1  11    9.99    1.75
   0  -1 -11    6.89    1.07
   1   1  11    0.19    1.16
  -1   1 -11   -0.19    1.07
   1  -1  11   -1.07    0.97
   1  -1  11   -0.78    1.16
  -1  -1 -11   -1.07    0.68
  -1  -1 -11   -0.29    0.68
  -6   2  11   54.02    5.14
   6  -2 -11   49.66    4.66
  -5   2  11   52.18    5.04
  -5   2  11   54.41    5.24
  -5  -2  11   38.31    3.98
  -5  -2  11   43.74    4.17
   5  -2 -11   49.85    4.66
   5  -2 -11   46.36    4.46
  -4   2  11    2.04    1.16
  -4   2  11    2.42    1.16
   4   2 -11    0.39    0.97
   4   2 -11    0.19    0.87
  -4  -2  11    1.65    1.07
  -4  -2  11    2.91    1.07
   4  -2 -11    3.78    0.97
   4  -2 -11    1.45    0.97
  -3   2  11    1.75    1.16
  -3   2  11    0.39    1.07
   3   2 -11    1.84    1.07
   3   2 -11   -0.29    0.97
  -3  -2  11    0.87    1.16
  -3  -2  11    1.45    1.07
   3  -2 -11    1.36    0.97
  -2   2  11    4.56    1.55
  -2   2  11    0.58    0.97
   2   2 -11   -0.39    0.87
  -2  -2  11   -1.16    1.16
  -2  -2  11   -0.87    0.78
   2  -2 -11    0.58    1.16
  -1   2  11   72.74    6.89
  -1   2  11   79.53    7.37
   1  -2 -11   69.63    6.40
   1  -2 -11   67.69    6.30
   0   2  11   45.87    4.56
   0   2  11   47.91    4.75
   0  -2 -11   50.82    4.85
   0  -2 -11   50.24    4.85
   0   0   0    0.00    0.00

_computing_structure_solution     'SHELXT 2018/2 (Sheldrick, 2018)'
;
_shelx_hkl_checksum              51257
loop_
_space_group_symop_operation_xyz
'x, y, z'
'-x, y+1/2, -z+1/2'
'-x, -y, -z'
'x, -y-1/2, z-1/2'
loop_
_atom_site_label
_atom_site_type_symbol
_atom_site_fract_x
_atom_site_fract_y
_atom_site_fract_z
_atom_site_U_iso_or_equiv
_atom_site_adp_type
_atom_site_occupancy
_atom_site_site_symmetry_order
_atom_site_calc_flag
_atom_site_refinement_flags_posn
_atom_site_refinement_flags_adp
_atom_site_refinement_flags_occupancy
_atom_site_disorder_assembly
_atom_site_disorder_group
C1_1 C 0.36197(13) 0.5801(2) 0.41852(13) 0.0260(3) Uani 1 1 d . U . . .
C2_1 C 0.22362(13) 0.6553(2) 0.33832(14) 0.0268(3) Uani 1 1 d . U . . .
H2_1 H 0.189417 0.798303 0.365456 0.032 Uiso 1 1 calc R U . . .
C3_1 C 0.13511(14) 0.5181(2) 0.21701(15) 0.0287(3) Uani 1 1 d . U . . .
H3_1 H 0.042229 0.569868 0.162704 0.034 Uiso 1 1 calc R U . . .
C4_1 C 0.18541(14) 0.3039(2) 0.17706(14) 0.0288(3) Uani 1 1 d . U . . .
H4_1 H 0.126792 0.212840 0.095120 0.035 Uiso 1 1 calc R U . . .
C5_1 C 0.32383(13) 0.2258(2) 0.25993(14) 0.0262(3) Uani 1 1 d . U . . .
H5_1 H 0.357040 0.081398 0.234252 0.031 Uiso 1 1 calc R U . . .
C6_1 C 0.41215(13) 0.3621(2) 0.38033(14) 0.0256(3) Uani 1 1 d . U . . .
N1 N 0.4528(19) 0.721(3) 0.5507(18) 0.0283(13) Uani 0.5 1 d . U P A -1
H1 H 0.421738 0.872499 0.572631 0.053(11) Uiso 0.5 1 d R . P A -1
O1 O 0.5506(15) 0.284(2) 0.4736(14) 0.0281(14) Uani 0.5 1 d . U P B -1
loop_
_atom_site_aniso_label
_atom_site_aniso_U_11
_atom_site_aniso_U_22
_atom_site_aniso_U_33
_atom_site_aniso_U_23
_atom_site_aniso_U_13
_atom_site_aniso_U_12
C1_1 0.0317(6) 0.0245(5) 0.0215(5) 0.0018(4) 0.0057(4) -0.0055(4)
C2_1 0.0344(6) 0.0221(5) 0.0251(5) 0.0009(4) 0.0091(4) -0.0008(4)
C3_1 0.0310(6) 0.0289(6) 0.0253(5) 0.0014(4) 0.0043(4) 0.0011(4)
C4_1 0.0338(6) 0.0290(6) 0.0228(5) -0.0027(4) 0.0046(4) -0.0026(4)
C5_1 0.0331(6) 0.0237(5) 0.0230(5) 0.0001(4) 0.0089(4) -0.0007(4)
C6_1 0.0291(6) 0.0254(6) 0.0225(5) 0.0033(4) 0.0063(4) -0.0030(4)
N1 0.033(2) 0.0237(18) 0.025(3) -0.0090(18) 0.0005(19) -0.0046(15)
O1 0.0314(15) 0.0203(18) 0.027(3) -0.004(2) -0.0045(19) 0.0019(12)
loop_
_atom_type_symbol
_atom_type_description
_atom_type_scat_dispersion_real
_atom_type_scat_dispersion_imag
_atom_type_scat_source
C C 0.0033 0.0016 'International Tables Vol C Tables 4.2.6.8 and 6.1.1.4'
N N 0.0064 0.0033 'International Tables Vol C Tables 4.2.6.8 and 6.1.1.4'
O O 0.0110 0.0060 'International Tables Vol C Tables 4.2.6.8 and 6.1.1.4'
H H 0.0000 0.0000 'International Tables Vol C Tables 4.2.6.8 and 6.1.1.4'
loop_
_geom_angle_atom_site_label_1
_geom_angle_atom_site_label_2
_geom_angle_atom_site_label_3
_geom_angle
_geom_angle_site_symmetry_1
_geom_angle_site_symmetry_3
_geom_angle_publ_flag
C2_1 C1_1 C6_1 119.84(11) . . ?
C2_1 C1_1 N1 120.2(7) . . ?
C6_1 C1_1 N1 119.8(7) . . ?
C1_1 C2_1 C3_1 120.27(11) . . ?
C1_1 C2_1 H2_1 119.9 . . ?
C3_1 C2_1 H2_1 119.9 . . ?
C4_1 C3_1 C2_1 120.01(12) . . ?
C4_1 C3_1 H3_1 120.0 . . ?
C2_1 C3_1 H3_1 120.0 . . ?
C3_1 C4_1 C5_1 119.84(11) . . ?
C3_1 C4_1 H4_1 120.1 . . ?
C5_1 C4_1 H4_1 120.1 . . ?
C6_1 C5_1 C4_1 120.26(11) . . ?
C6_1 C5_1 H5_1 119.9 . . ?
C4_1 C5_1 H5_1 119.9 . . ?
C5_1 C6_1 C1_1 119.77(11) . . ?
C5_1 C6_1 O1 122.0(5) . . ?
C1_1 C6_1 O1 118.1(5) . . ?
C1_1 N1 H1 120.0 . . ?
loop_
_geom_bond_atom_site_label_1
_geom_bond_atom_site_label_2
_geom_bond_distance
_geom_bond_site_symmetry_2
_geom_bond_publ_flag
C1_1 C2_1 1.3803(17) . ?
C1_1 C6_1 1.4028(18) . ?
C1_1 N1 1.465(15) . ?
C2_1 C3_1 1.3915(16) . ?
C2_1 H2_1 0.9300 . ?
C3_1 C4_1 1.3877(17) . ?
C3_1 H3_1 0.9300 . ?
C4_1 C5_1 1.3922(17) . ?
C4_1 H4_1 0.9300 . ?
C5_1 C6_1 1.3832(16) . ?
C5_1 H5_1 0.9300 . ?
C6_1 O1 1.418(13) . ?
N1 H1 0.9529 . ?
