#------------------------------------------------------------------------------
#$Date: 2022-01-04 00:06:24 +0200 (Tue, 04 Jan 2022) $
#$Revision: 271759 $
#$URL: file:///home/coder/svn-repositories/cod/cif/4/51/92/4519264.cif $
#------------------------------------------------------------------------------
#
# This file is available in the Crystallography Open Database (COD),
# http://www.crystallography.net/
#
# All data on this site have been placed in the public domain by the
# contributors.
#
data_4519264
loop_
_publ_author_name
'Yu, Ying'
'Xing, Hao'
'Park, Hojeong'
'Zhang, Ruoyao'
'Peng, Chen'
'Sung, Herman H.-Y.'
'Williams, Ian D.'
'Ma, Chao'
'Wong, Kam Sing'
'Li, Shijie'
'Xiong, Qingping'
'Li, Min-Hui'
'Zhao, Zheng'
'Tang, Ben Zhong'
_publ_section_title
;
 Deep-Red Aggregation-Induced Emission Luminogen Based on
 Dithiofuvalene-Fused Benzothiadiazole for Lipid Droplet-Specific Imaging
;
_journal_issue                   1
_journal_name_full               'ACS Materials Letters'
_journal_page_first              159
_journal_page_last               164
_journal_paper_doi               10.1021/acsmaterialslett.1c00570
_journal_volume                  4
_journal_year                    2021
_chemical_formula_moiety         'C14 N6 S5, C6 H5 Cl'
_chemical_formula_sum            'C20 H5 Cl N6 S5'
_chemical_formula_weight         525.05
_space_group_crystal_system      triclinic
_space_group_IT_number           2
_space_group_name_Hall           '-P 1'
_space_group_name_H-M_alt        'P -1'
_atom_sites_solution_hydrogens   geom
_atom_sites_solution_primary     direct
_audit_creation_date             2020-04-22
_audit_creation_method
;
Olex2 1.2
(compiled 2018.05.29 svn.r3508 for OlexSys, GUI svn.r5506)
;
_cell_angle_alpha                79.644(5)
_cell_angle_beta                 75.956(5)
_cell_angle_gamma                77.935(5)
_cell_formula_units_Z            2
_cell_length_a                   7.3216(5)
_cell_length_b                   10.4441(6)
_cell_length_c                   14.9898(9)
_cell_measurement_reflns_used    4418
_cell_measurement_temperature    100.00(10)
_cell_measurement_theta_max      73.7850
_cell_measurement_theta_min      4.3510
_cell_volume                     1077.30(12)
_computing_cell_refinement       'CrysAlisPro 1.171.39.46 (Rigaku OD, 2018)'
_computing_data_collection       'CrysAlisPro 1.171.39.46 (Rigaku OD, 2018)'
_computing_data_reduction        'CrysAlisPro 1.171.39.46 (Rigaku OD, 2018)'
_computing_molecular_graphics    'Olex2 (Dolomanov et al., 2009)'
_computing_publication_material  'Olex2 (Dolomanov et al., 2009)'
_computing_structure_refinement  'ShelXL (Sheldrick, 2015)'
_computing_structure_solution    'ShelXS (Sheldrick, 2008)'
_diffrn_ambient_environment      N~2~
_diffrn_ambient_temperature      100.00(10)
_diffrn_detector                 'CCD plate'
_diffrn_detector_area_resol_mean 10.3577
_diffrn_detector_type            Atlas
_diffrn_measured_fraction_theta_full 0.986
_diffrn_measured_fraction_theta_max 0.949
_diffrn_measurement_details
;
List of Runs (angles in degrees, time in seconds):

  # Type    Start    End  Width  t~exp~   \w     \q     \k     \f   Frames
--------------------------------------------------------------------------
  1  \w     38.00 117.00   1.00    5.00    --  106.99-125.00  30.00   79
  2  \w   -117.00 -29.00   1.00    2.00    --  -40.57 -37.00  90.00   88
  3  \w   -119.00 -18.00   1.00    2.00    --  -40.57 -77.00-150.00  101
  4  \w      2.00  83.00   1.00    2.00    --   40.57 -99.00 -30.00   81
  5  \w     60.00 115.00   1.00    5.00    --  106.99-125.00-120.00   55
  6  \w     40.00 132.00   1.00    5.00    --  106.99 -30.00 -30.00   92
  7  \w     80.00 176.00   1.00    5.00    --  106.99  45.00 150.00   96
  8  \w     41.00 123.00   1.00    5.00    --  106.99 -61.00-150.00   82
  9  \w     38.00 136.00   1.00    5.00    --  106.99 -30.00 120.00   98
 10  \w     86.00 137.00   1.00    5.00    --  106.99  45.00 -60.00   51
 11  \w     35.00 138.00   1.00    5.00    --  106.99 -77.00  30.00  103
;
_diffrn_measurement_device       'kappa diffractometer'
_diffrn_measurement_device_type  'SuperNova, Dual, Cu at zero, Atlas'
_diffrn_measurement_method       '\w scans'
_diffrn_orient_matrix_type
'CrysAlisPro convention (1999,Acta A55,543-557)'
_diffrn_orient_matrix_UB_11      -0.0816698000
_diffrn_orient_matrix_UB_12      -0.0410876000
_diffrn_orient_matrix_UB_13      -0.0740222000
_diffrn_orient_matrix_UB_21      -0.0967776000
_diffrn_orient_matrix_UB_22      -0.1017597000
_diffrn_orient_matrix_UB_23      0.0740812000
_diffrn_orient_matrix_UB_31      -0.1801797000
_diffrn_orient_matrix_UB_32      0.1055338000
_diffrn_orient_matrix_UB_33      0.0216276000
_diffrn_radiation_monochromator  mirror
_diffrn_radiation_probe          x-ray
_diffrn_radiation_type           CuK\a
_diffrn_radiation_wavelength     1.54184
_diffrn_reflns_av_R_equivalents  0.0111
_diffrn_reflns_av_unetI/netI     0.0155
_diffrn_reflns_Laue_measured_fraction_full 0.986
_diffrn_reflns_Laue_measured_fraction_max 0.949
_diffrn_reflns_limit_h_max       6
_diffrn_reflns_limit_h_min       -9
_diffrn_reflns_limit_k_max       13
_diffrn_reflns_limit_k_min       -11
_diffrn_reflns_limit_l_max       18
_diffrn_reflns_limit_l_min       -18
_diffrn_reflns_number            6177
_diffrn_reflns_point_group_measured_fraction_full 0.986
_diffrn_reflns_point_group_measured_fraction_max 0.949
_diffrn_reflns_theta_full        67.684
_diffrn_reflns_theta_max         73.857
_diffrn_reflns_theta_min         4.370
_diffrn_source                   'micro-focus sealed X-ray tube'
_diffrn_source_current           0.80
_diffrn_source_power             0.040
_diffrn_source_target            Cu
_diffrn_source_type              'SuperNova (Cu) X-ray Source'
_diffrn_source_voltage           50
_exptl_absorpt_coefficient_mu    6.299
_exptl_absorpt_correction_T_max  1.00000
_exptl_absorpt_correction_T_min  0.68624
_exptl_absorpt_correction_type   multi-scan
_exptl_absorpt_process_details
;
CrysAlisPro 1.171.39.46 (Rigaku Oxford Diffraction, 2018)
Empirical absorption correction using spherical harmonics,
 implemented in SCALE3 ABSPACK scaling algorithm.
;
_exptl_crystal_colour            yellow
_exptl_crystal_colour_primary    yellow
_exptl_crystal_density_diffrn    1.619
_exptl_crystal_description       block
_exptl_crystal_F_000             528
_exptl_crystal_size_max          0.2
_exptl_crystal_size_mid          0.1
_exptl_crystal_size_min          0.05
_refine_diff_density_max         0.317
_refine_diff_density_min         -0.245
_refine_diff_density_rms         0.051
_refine_ls_extinction_method     none
_refine_ls_goodness_of_fit_ref   1.037
_refine_ls_hydrogen_treatment    constr
_refine_ls_matrix_type           full
_refine_ls_number_parameters     289
_refine_ls_number_reflns         4140
_refine_ls_number_restraints     0
_refine_ls_restrained_S_all      1.037
_refine_ls_R_factor_all          0.0233
_refine_ls_R_factor_gt           0.0225
_refine_ls_shift/su_max          0.001
_refine_ls_shift/su_mean         0.000
_refine_ls_structure_factor_coef Fsqd
_refine_ls_weighting_details
'w=1/[\s^2^(Fo^2^)+(0.0346P)^2^+0.4590P] where P=(Fo^2^+2Fc^2^)/3'
_refine_ls_weighting_scheme      calc
_refine_ls_wR_factor_gt          0.0600
_refine_ls_wR_factor_ref         0.0606
_reflns_Friedel_coverage         0.000
_reflns_number_gt                4000
_reflns_number_total             4140
_reflns_threshold_expression     'I > 2\s(I)'
_cod_data_source_file            tz1c00570_si_002.cif
_cod_data_source_block           yyu3cult
_cod_original_cell_volume        1077.31(12)
_cod_database_code               4519264
_shelx_shelxl_version_number     2014/7
_shelx_space_group_comment
;
The symmetry employed for this shelxl refinement is uniquely defined
by the following loop, which should always be used as a source of
symmetry information in preference to the above space-group names.
They are only intended as comments.
;
_shelx_estimated_absorpt_t_max   0.744
_shelx_estimated_absorpt_t_min   0.366
_reflns_odcompleteness_completeness 98.65
_reflns_odcompleteness_iscentric 1
_reflns_odcompleteness_theta     66.97
_olex2_refinement_description
;
1. Fixed Uiso
 At 1.2 times of:
  All C(H) groups
2.a Aromatic/amide H refined with riding coordinates:
 C32(H32), C33(H33), C34(H34), C35(H35), C36(H36)
;
_shelx_res_file
;
    yyu3cult.res created by SHELXL-2014/7

TITL yyu3CuLT in P-1 #2
REM reset to P-1 #2
CELL 1.54184 7.321635 10.444147 14.989767 79.6437 75.9558 77.9349
ZERR 2 0.000456 0.000623 0.000938 0.0052 0.0054 0.0052
LATT 1
SFAC C H Cl N S
UNIT 40 10 2 12 10

L.S. 8
PLAN  20
SIZE 0.05 0.1 0.2
TEMP -173
BOND $H
CONF
fmap 2
acta
REM <olex2.extras>
REM <HklSrc "%.\\yyu3CuLT.hkl">
REM </olex2.extras>

WGHT    0.034600    0.459000
FVAR       5.77833
S1    5    0.440662    0.186053   -0.008270    11.00000    0.02094    0.01386 =
         0.01081   -0.00276   -0.00637   -0.00050
S2    5    0.670785   -0.081789    0.250084    11.00000    0.02240    0.00911 =
         0.01414   -0.00237   -0.00771    0.00106
S3    5    0.648643    0.089779    0.389301    11.00000    0.02021    0.01032 =
         0.01043   -0.00124   -0.00626    0.00000
S4    5    0.462623    0.411120    0.354856    11.00000    0.02238    0.00952 =
         0.01067   -0.00181   -0.00699    0.00056
S5    5    0.347518    0.527391    0.178823    11.00000    0.02105    0.00899 =
         0.01155   -0.00089   -0.00739    0.00005
N1    4    0.400206    0.317723    0.041099    11.00000    0.01719    0.01399 =
         0.01165   -0.00280   -0.00424   -0.00143
N2    4    0.517518    0.074895    0.070830    11.00000    0.01841    0.01385 =
         0.01144   -0.00205   -0.00518   -0.00146
N3    4    0.881293   -0.402004    0.357342    11.00000    0.03920    0.01837 =
         0.03810   -0.00596   -0.00744    0.00111
N4    4    0.861278   -0.137508    0.565363    11.00000    0.03099    0.03798 =
         0.01869   -0.00125   -0.01020   -0.00161
N5    4    0.373944    0.712190    0.470846    11.00000    0.04716    0.01822 =
         0.02309   -0.00697   -0.01752    0.00448
N6    4    0.191639    0.872522    0.206426    11.00000    0.03552    0.01611 =
         0.02389   -0.00081   -0.01041    0.00141
C1    1    0.445300    0.277995    0.124251    11.00000    0.01379    0.01259 =
         0.01091   -0.00099   -0.00310   -0.00158
C2    1    0.513092    0.139223    0.141220    11.00000    0.01471    0.01147 =
         0.01267   -0.00267   -0.00264   -0.00259
C3    1    0.571154    0.083859    0.226015    11.00000    0.01518    0.00990 =
         0.01290   -0.00089   -0.00358   -0.00111
C4    1    0.559588    0.164409    0.290713    11.00000    0.01453    0.01183 =
         0.01089    0.00001   -0.00398   -0.00170
C5    1    0.485486    0.302708    0.274962    11.00000    0.01600    0.01040 =
         0.01135   -0.00227   -0.00294   -0.00253
C6    1    0.430881    0.358583    0.193336    11.00000    0.01535    0.00966 =
         0.01261   -0.00131   -0.00367   -0.00169
C10   1    0.714849   -0.066689    0.355902    11.00000    0.01599    0.01303 =
         0.01307   -0.00145   -0.00348   -0.00155
C11   1    0.797690   -0.172298    0.410760    11.00000    0.01952    0.01315 =
         0.01534   -0.00010   -0.00514    0.00017
C12   1    0.844806   -0.300870    0.382592    11.00000    0.02268    0.01658 =
         0.02086    0.00100   -0.00604    0.00088
C13   1    0.834839   -0.155137    0.496484    11.00000    0.01924    0.01641 =
         0.01760    0.00265   -0.00418    0.00080
C20   1    0.376236    0.550097    0.285379    11.00000    0.01703    0.01270 =
         0.01125   -0.00072   -0.00493   -0.00225
C21   1    0.331334    0.674136    0.313283    11.00000    0.02139    0.01071 =
         0.01493   -0.00221   -0.00657   -0.00079
C22   1    0.354290    0.694528    0.400853    11.00000    0.02623    0.00998 =
         0.01970   -0.00302   -0.00860    0.00186
C23   1    0.254185    0.784950    0.255076    11.00000    0.02259    0.01351 =
         0.01628   -0.00512   -0.00529   -0.00152
CL1   3    0.929129    0.234194   -0.035339    11.00000    0.02826    0.03467 =
         0.01917    0.00088   -0.01141   -0.00225
C31   1    0.939348    0.272570    0.071703    11.00000    0.01692    0.02175 =
         0.01699    0.00202   -0.00457   -0.00466
C32   1    1.010495    0.171730    0.134672    11.00000    0.01738    0.01521 =
         0.01999    0.00152   -0.00482   -0.00330
AFIX  43
H32   2    1.049202    0.083774    0.120385    11.00000   -1.20000
AFIX   0
C33   1    1.023911    0.202094    0.218977    11.00000    0.01696    0.02052 =
         0.01898    0.00285   -0.00508   -0.00375
AFIX  43
H33   2    1.073030    0.134466    0.262861    11.00000   -1.20000
AFIX   0
C34   1    0.965918    0.330871    0.239630    11.00000    0.01891    0.02639 =
         0.02204   -0.00430   -0.00244   -0.00675
AFIX  43
H34   2    0.974730    0.350987    0.297622    11.00000   -1.20000
AFIX   0
C35   1    0.894934    0.430304    0.175269    11.00000    0.01732    0.01650 =
         0.03338   -0.00403   -0.00049   -0.00348
AFIX  43
H35   2    0.856348    0.518359    0.189362    11.00000   -1.20000
AFIX   0
C36   1    0.880082    0.401694    0.090486    11.00000    0.01627    0.01919 =
         0.02756    0.00711   -0.00422   -0.00180
AFIX  43
H36   2    0.830537    0.469009    0.046547    11.00000   -1.20000
AFIX   0
HKLF 4

REM  yyu3CuLT in P-1 #2
REM R1 =  0.0225 for    4000 Fo > 4sig(Fo)  and  0.0233 for all    4140 data
REM    289 parameters refined using      0 restraints

END

WGHT      0.0339      0.4670

REM Highest difference peak  0.317,  deepest hole -0.245,  1-sigma level  0.051
Q1    1   0.6023  0.1385  0.3362  11.00000  0.05    0.32
Q2    1   0.6209  0.0068  0.2328  11.00000  0.05    0.31
Q3    1   0.4427  0.3190  0.1609  11.00000  0.05    0.29
Q4    1   0.4127  0.4812  0.3182  11.00000  0.05    0.29
Q5    1   0.4725  0.1196  0.0364  11.00000  0.05    0.28
Q6    1   0.5378  0.1086  0.1844  11.00000  0.05    0.27
Q7    1   0.5269  0.2266  0.2810  11.00000  0.05    0.27
Q8    1   0.6168  0.1288  0.2440  11.00000  0.05    0.27
Q9    1   0.4773  0.2103  0.1405  11.00000  0.05    0.27
Q10   1   0.9822  0.2228  0.1044  11.00000  0.05    0.26
Q11   1   0.3587  0.5400  0.2403  11.00000  0.05    0.26
Q12   1   0.4000  0.4373  0.1810  11.00000  0.05    0.26
Q13   1   0.3558  0.6126  0.3015  11.00000  0.05    0.26
Q14   1   0.8126  0.5944  0.1640  11.00000  0.05    0.26
Q15   1   0.9457  0.3766  0.2014  11.00000  0.05    0.25
Q16   1   0.9895  0.1875  0.1785  11.00000  0.05    0.25
Q17   1   0.7629 -0.1171  0.3845  11.00000  0.05    0.25
Q18   1   0.4968  0.3444  0.2256  11.00000  0.05    0.24
Q19   1   0.3127  0.7326  0.2763  11.00000  0.05    0.23
Q20   1   0.3416  0.6849  0.3541  11.00000  0.05    0.22
;
_shelx_res_checksum              33444
_shelx_hkl_file
;
   0   0  -2 49253.2 310.858   3
   0   0  -3 72847.9 459.506   3
   0   0  -3 72116.3 586.611   2
   0   0  -4 9648.46 250.938   2
   0   0  -4 9479.86 195.072   3
   0   0  -5 184440. 1227.49   2
   0   0  -5 179249. 959.834   3
   0   0  -6 329.316 66.7254   2
   0   0  -6 288.100 47.1857   3
   0   0  -7 11945.2 387.236   2
   0   0  -7 11677.9 296.763   3
   0   0  -8 48139.3 847.740   2
   0   0  -9 25917.6 676.390   2
   0   0 -10 1125.45 156.400   2
   0   0  11 10037.8 328.259   6
   0   0  11 10055.9 289.042  10
   0   0 -11 9906.43 480.650   2
   0   0  12 764.861 87.4562  10
   0   0 -12 533.201 90.1208   7
   0   0  12 550.754 86.4456   6
   0   0 -13 1360.97 132.256   7
   0   0  13 1289.22 114.116  10
   0   0 -14 3587.85 201.928   7
   0   0  14 3378.18 176.140  10
   0   0  15 55.5527 36.2524  10
   0   0 -15 65.4718 45.9722   7
   0   0 -16 4842.35 197.761   7
   0   0 -17 7094.75 205.744   7
   0   1 -17 33855.9 403.358   7
   0   1 -16 3024.42 148.045   7
   0  -1  15 16920.1 362.570  10
   0   1 -15 16743.4 385.185   7
   0   1 -14 575.021 85.6803   7
   0  -1  14 571.776 78.1867  10
   0  -1  13 3160.20 174.734  10
   0   1 -13 3470.62 197.665   7
   0  -1  12 1983.97 137.817  10
   0   1 -12 2007.48 161.039   7
   0  -1  12 2038.54 158.167   6
   0  -1  11 80775.3 939.746   6
   0  -1  11 81510.2 830.206  10
   0  -1  10 2627.51 164.858   6
   0   1 -10 2355.23 226.599   2
   0  -1  10 2416.47 138.128  10
   0   1  -9 3379.73 250.461   2
   0   1  -8 19408.1 548.403   2
   0   1  -7 4198.12 238.547   2
   0   1  -6 229765. 1587.79   2
   0   1  -5 13480.0 350.009   2
   0   1  -4 46473.4 577.146   2
   0   1  -3 8713.24 221.036   2
   0   1  -2 175573. 821.762   2
   0   1  -1 18842.4 220.199   2
   0   1   0 6483.38 111.738   2
   0   1   1 60335.4 256.565   4
   0  -1  -1 60704.5 353.542   3
   0  -1  -2 18428.9 219.836   3
   0  -1  -3 95.4060 23.0505   3
   0  -1  -4 65068.5 528.651   3
   0  -1  -5 64960.3 591.108   3
   0  -1  -6 51719.0 577.095   3
   0  -1  -7 64328.8 695.471   3
   0  -1  -7 64257.3 881.714   2
   0  -1  -8 158850. 1518.12   2
   0  -1  -8 158668. 1180.41   3
   0  -1  -9 34245.5 769.252   2
   0  -1 -10 10276.1 459.781   2
   0   1  11 17535.5 429.967   6
   0  -1 -11 17396.1 636.908   2
   0   1  11 17372.4 379.564  10
   0   1  11 16787.1 352.265  11
   0  -1 -12 6612.23 289.758   7
   0  -1 -12 6074.63 396.905   2
   0   1  12 6191.22 221.020  11
   0   1  12 6841.26 249.120  10
   0   1  13 159562. 1218.97  10
   0   1  13 159655. 1113.65  11
   0   1  14 1081.62 93.7247  11
   0   1  14 1183.58 109.480  10
   0  -1 -14 1133.89 122.023   7
   0  -1 -15 6168.09 253.018   7
   0  -1 -16 5618.07 219.294   7
   0  -1 -17 7554.50 220.660   7
   0  -1 -18 45.0589 23.9694   7
   0   2 -16 16323.2 302.532   7
   0  -2  16 16442.9 300.698  10
   0  -2  15 14834.6 326.652  10
   0   2 -15 14526.6 329.900   7
   0  -2  14 777.982 86.5353  10
   0   2 -14 701.180 85.6008   7
   0  -2  13 8452.76 280.971  10
   0   2 -13 8689.33 295.092   7
   0  -2  12 15165.5 375.926  10
   0  -2  12 14878.5 417.595   6
   0   2 -12 15114.9 402.025   7
   0  -2  11 105248. 963.512  10
   0   2 -11 103155. 1606.28   2
   0  -2  11 104646. 1078.26   6
   0   2 -11 105068. 1085.40   7
   0   2 -10 12955.8 537.651   2
   0  -2  10 13019.0 367.643   6
   0  -2  10 13232.2 326.945  10
   0   2  -9 73605.6 1196.16   2
   0   2  -8 1282.64 149.599   2
   0   2  -7 52999.7 871.872   2
   0   2  -6 20020.4 491.314   2
   0   2  -5 16603.7 410.986   2
   0   2  -4 188918. 1249.67   2
   0   2  -3 2007.60 119.059   2
   0   2  -2 353778. 1378.54   2
   0   2  -1 81979.5 596.591   2
   0   2   1 26144.6 240.087   4
   0   2   2 81508.5 417.521   4
   0  -2  -2 81635.9 593.668   3
   0  -2  -3 224563. 1040.69   3
   0  -2  -4 34817.2 443.141   3
   0  -2  -5 51962.8 580.308   3
   0  -2  -6 60219.7 670.656   3
   0  -2  -7 26543.2 473.604   3
   0  -2  -8 53671.2 888.846   2
   0  -2  -8 53988.9 723.612   3
   0  -2  -9 11495.2 350.737   3
   0  -2  -9 10963.8 436.888   2
   0  -2 -10 307.275 88.7237   2
   0  -2 -11 4507.08 330.158   2
   0  -2 -11 4280.25 233.835   7
   0   2  11 4362.79 192.155  10
   0   2  11 4278.21 187.461  11
   0  -2 -12 137248. 1288.11   7
   0   2  12 133896. 1064.02  11
   0  -2 -12 134496. 1878.23   2
   0   2  12 137175. 1101.84  10
   0   2  13 7689.88 257.504  11
   0  -2 -13 7793.99 308.950   7
   0   2  14 9419.27 277.060  11
   0  -2 -14 10028.7 339.793   7
   0   2  15 338.175 56.7025  11
   0  -2 -15 232.889 62.7705   7
   0  -2 -16 348.040 65.0221   7
   0  -2 -17 41823.3 517.361   7
   0  -2 -18 478.890 46.9893   7
   0  -3  16-8.50104 22.9496  10
   0  -3  15 3762.85 156.938  10
   0   3 -15 3752.75 149.508   7
   0  -3  14 41.8802 36.0409  10
   0   3 -14 57.8439 33.4125   7
   0   3 -13 191.700 50.3424   7
   0  -3  13 224.731 55.6796  10
   0  -3  12 12701.0 380.789   6
   0   3 -12 12806.5 346.714   7
   0  -3  12 12835.2 345.690  10
   0   3 -11 6813.65 259.842   7
   0  -3  11 6321.15 244.129  10
   0  -3  11 6323.60 269.499   6
   0   3 -10 9079.84 302.999   7
   0  -3  10 9683.98 289.231  10
   0  -3  10 9291.30 313.806   6
   0   3 -10 9562.20 479.921   2
   0  -3   9 2513.38 144.355  10
   0   3  -9 2413.57 231.150   2
   0  -3   9 2591.01 160.840   6
   0   3  -8 2834.61 232.985   2
   0   3  -7 20569.7 579.242   2
   0   3  -6 2243.71 179.105   2
   0   3  -5 49521.4 768.219   2
   0   3  -4 9155.29 303.695   2
   0   3  -3 378820. 1795.60   2
   0   3  -2 45860.9 579.505   2
   0   3  -1 18331.3 345.726   2
   0   3   0 88063.6 646.196   4
   0   3   1 58738.7 467.153   4
   0  -3  -2 20113.6 359.946   3
   0   3   2 20011.0 253.033   4
   0   3   3 111032. 584.569   4
   0  -3  -3 109604. 857.437   3
   0  -3  -4 40684.7 553.275   3
   0  -3  -5 48742.1 633.024   3
   0  -3  -6 205634. 1370.20   3
   0  -3  -7 89753.7 954.529   3
   0  -3  -8 8006.80 302.199   3
   0  -3  -9 6545.14 285.841   3
   0  -3 -10 15337.1 568.399   2
   0   3  10 15433.7 352.649  11
   0  -3 -11 47054.3 733.220   7
   0  -3 -11 47338.4 1068.11   2
   0   3  11 47639.9 641.695  11
   0   3  12 3020.47 168.466  11
   0  -3 -12 3209.71 302.389   2
   0  -3 -12 3179.14 196.778   7
   0  -3 -13 36.9877 44.0523   7
   0   3  13 56.4922 42.8365  11
   0  -3 -14 18877.7 457.845   7
   0   3  14 18663.4 399.997  11
   0  -3 -15 3769.31 195.436   7
   0   3  15 3951.79 174.050  11
   0  -3 -16 10920.3 299.950   7
   0  -3 -17 1129.00 87.3642   7
   0  -4  16 1965.14 83.9955  10
   0  -4  15 3524.66 138.612  10
   0  -4  14 12374.1 293.929  10
   0  -4  13 234.563 53.0640  10
   0  -4  12 660.669 84.6274  10
   0  -4  11 20238.6 470.357   6
   0  -4  11 21075.2 440.658  10
   0   4 -10 480.467 111.439   2
   0  -4  10 509.289 82.6159   6
   0  -4  10 726.790 88.9211  10
   0  -4   9 30221.5 544.703   6
   0   4  -9 30720.8 838.437   2
   0  -4   9 31358.3 524.387  10
   0   4  -8 5235.49 332.983   2
   0   4  -8 5709.38 218.921   9
   0   4  -7 27803.9 714.296   2
   0   4  -6 56085.4 951.850   2
   0   4  -5 22750.4 565.718   2
   0   4  -4 27552.6 582.781   2
   0   4  -3 2716.80 173.692   2
   0   4  -2 126041. 1102.67   2
   0   4  -1 70969.0 736.488   4
   0   4   0 71427.5 680.611   4
   0   4   1 91796.0 696.436   4
   0   4   2 1375.53 78.6030   4
   0  -4  -2 1180.14 107.220   3
   0   4   3 21734.0 291.047   4
   0  -4  -3 21271.9 439.655   3
   0  -4  -4 14710.5 377.243   3
   0  -4  -5 61162.6 800.732   3
   0  -4  -6 9386.44 328.607   3
   0  -4  -7 917.446 110.419   3
   0  -4  -8 157517. 1456.31   3
   0  -4  -9 117.066 51.8806   3
   0   4  10 95.8996 42.3735  11
   0  -4 -10 35.0947 45.8657   2
   0  -4 -10 45.9666 40.3564   7
   0   4  11 23762.4 469.108  11
   0  -4 -11 23300.6 762.781   2
   0  -4 -11 22385.7 494.018   7
   0   4  12 1597.14 127.533  11
   0  -4 -12 1792.01 146.434   7
   0   4  13 20198.9 433.192  11
   0  -4 -13 19065.7 462.333   7
   0   4  14 25172.4 468.519  11
   0  -4 -14 24405.1 502.733   7
   0  -4 -15 238.970 58.2349   7
   0   4  15 209.679 50.8349  11
   0  -4 -16 16443.2 346.835   7
   0  -4 -17 5873.85 170.710   7
   0  -5  15 707.431 56.5475  10
   0  -5  14 56538.7 568.409  10
   0  -5  13 12708.5 304.708  10
   0  -5  12 7184.33 247.662  10
   0  -5  11 15539.1 375.780  10
   0  -5  10 246.544 58.1023  10
   0  -5  10 136.435 49.5923   6
   0  -5   9 12223.0 345.686   6
   0  -5   9 12956.5 352.223  10
   0   5  -8 11097.8 316.195   9
   0  -5   8 10427.5 310.754   6
   0   5  -8 11153.7 301.676   8
   0   5  -8 10899.2 498.125   2
   0   5  -7 8265.05 254.011   8
   0   5  -7 8473.75 262.580   9
   0   5  -7 7780.85 399.227   2
   0   5  -6 84125.2 1251.71   2
   0   5  -5 17032.0 534.342   2
   0   5  -4 2540.82 197.650   2
   0   5  -3 111805. 1222.53   2
   0   5  -3 122733. 1255.02   4
   0   5  -2 3924.06 211.934   4
   0   5  -1 1885.18 139.305   4
   0   5   0 40564.8 582.997   4
   0  -5  -1 116400. 1203.38   3
   0   5   1 120889. 911.274   4
   0   5   2 84429.2 696.752   4
   0  -5  -2 82082.9 994.829   3
   0  -5  -3 4520.99 236.539   3
   0  -5  -4 285.329 67.4966   3
   0  -5  -5 12483.8 408.119   3
   0  -5  -6 58136.3 908.155   3
   0  -5  -7 22509.6 584.760   3
   0  -5  -8 40791.4 810.190   3
   0  -5  -9 134345. 1514.99   3
   0   5   9 131596. 1070.37  11
   0   5  10 1383.51 118.420  11
   0   5  11 5473.60 232.420  11
   0   5  12 19184.7 432.524  11
   0  -5 -12 18035.4 428.667   7
   0   5  13 6291.41 243.916  11
   0  -5 -13 6022.69 245.898   7
   0  -5 -14 55906.8 715.854   7
   0   5  14 56634.4 694.343  11
   0  -5 -15 22046.7 409.310   7
   0   5  15 22666.6 404.046  11
   0  -5 -16 29740.8 404.658   7
   0   5  17 4999.46 129.104   9
   0  -6  14 2683.12 107.957  10
   0  -6  13 864.125 74.9468  10
   0  -6  12 552.741 69.4310  10
   0  -6  11 7.33111 39.9364  10
   0  -6  10 6458.47 244.297  10
   0  -6   9 13936.7 368.918  10
   0   6  -8 69702.8 774.385   8
   0   6  -8 69556.7 802.175   9
   0   6  -7 98935.6 926.986   9
   0   6  -7 99307.2 922.453   8
   0   6  -7 101124. 1565.46   4
   0   6  -6 43035.5 603.448   8
   0   6  -6 42363.7 582.689   9
   0   6  -6 42124.1 967.244   4
   0   6  -5 13269.7 327.506   8
   0   6  -5 12834.5 505.810   4
   0   6  -4 1177.71 146.551   4
   0   6  -3 78611.0 1114.53   4
   0   6  -2 8176.80 337.556   4
   0   6  -1 20691.5 500.338   4
   0   6   0 34153.0 587.459   4
   0  -6   0 32555.6 739.693   3
   0  -6  -1 195.534 64.3858   3
   0  -6  -2 2698.05 211.100   3
   0  -6  -3 5831.00 302.785   3
   0  -6  -4 127681. 1433.50   3
   0  -6  -5 11953.9 450.680   3
   0  -6  -6 25431.1 667.713   3
   0  -6  -7 49997.3 959.712   3
   0  -6  -8 851.851 133.195   3
   0   6   8 910.490 93.6000  11
   0  -6  -9 60094.3 1097.87   3
   0   6   9 60615.4 746.126  11
   0   6  10 145146. 1181.18  11
   0   6  11 6743.99 257.749  11
   0   6  12 4730.87 215.153  11
   0   6  13 147.311 52.8324  11
   0   6  14 9403.39 274.249  11
   0   6  15 4721.42 165.903   9
   0   6  15 5231.10 184.602  11
   0   6  16 9798.40 198.467   9
   0  -7  13 21847.5 298.550  10
   0  -7  12 10178.8 240.134  10
   0  -7  11 147.565 45.8087  10
   0  -7  10 16963.1 371.696  10
   0  -7   9 17803.4 403.865  10
   0   7  -9 17376.0 366.985   8
   0   7  -8 1647.47 125.335   9
   0   7  -8 1806.72 127.911   8
   0   7  -7 1165.59 107.472   8
   0   7  -7 1133.70 103.616   9
   0   7  -6 1137.07 107.472   8
   0   7  -6 1080.32 100.993   9
   0   7  -6 960.921 150.839   4
   0   7  -5 933.332 151.201   4
   0   7  -5 812.835 85.0145   9
   0   7  -5 806.865 92.2952   8
   0   7  -4 5704.95 228.000   8
   0   7  -4 5606.81 337.008   4
   0   7  -4 5643.64 212.630   9
   0   7  -3 51375.5 678.104   8
   0   7  -3 50590.6 619.630   9
   0  -7   2 41798.7 967.382   3
   0  -7   1 65368.5 1193.36   3
   0  -7   0 2488.38 230.763   3
   0  -7  -1 868.212 137.982   3
   0  -7  -2 1425.40 170.821   3
   0  -7  -3 10393.9 452.627   3
   0  -7  -4 89848.3 1347.20   3
   0  -7  -5 144321. 1737.71   3
   0  -7  -6 39270.1 916.942   3
   0   7   6 39121.1 520.529   9
   0  -7  -7 1057.55 155.254   3
   0   7   7 1504.69 108.576   9
   0   7   8 2149.58 132.288   9
   0  -7  -8 2274.77 232.488   3
   0   7   8 2312.03 141.778  11
   0   7   9 10849.9 312.308  11
   0   7   9 11547.7 307.177   9
   0   7  10 14438.0 345.432   9
   0   7  10 14265.8 363.427  11
   0   7  11 7571.15 249.308   9
   0   7  11 7556.96 265.503  11
   0   7  12 2877.48 162.716  11
   0   7  12 2935.60 150.786   9
   0   7  13 356.341 56.0882   9
   0   7  13 415.286 68.1750  11
   0   7  14 58672.2 579.965   5
   0   7  14 58671.5 622.924  11
   0   7  15 423.444 45.5771   9
   0  -8  12 13352.0 221.222  10
   0  -8  11 38537.8 443.136  10
   0  -8  10 2360.86 126.421  10
   0  -8   9 7322.06 238.583  10
   0   8  -9 6726.19 206.775   8
   0   8  -8 16504.0 358.043   8
   0   8  -7 2748.33 158.013   8
   0   8  -7 2961.05 159.780   9
   0   8  -6 2244.68 140.373   9
   0   8  -6 2066.74 142.472   8
   0   8  -5 5010.93 205.050   9
   0   8  -5 5227.22 227.770   8
   0   8  -4 1469.70 113.978   9
   0   8  -4 1373.17 121.530   8
   0  -8   3 66536.7 1319.63   3
   0   8  -3 67978.8 741.511   9
   0   8  -3 67130.5 819.864   8
   0   8  -2 30253.8 546.609   8
   0   8  -2 30085.6 490.502   9
   0  -8   1 43779.2 1066.21   3
   0   8  -1 43453.3 577.586   9
   0  -8   0 63280.2 1265.78   3
   0   8   0 63574.3 689.332   9
   0   8   1 28902.8 459.404   9
   0  -8  -1 28363.7 841.637   3
   0  -8  -2 13858.7 576.183   3
   0   8   2 13487.8 312.257   9
   0  -8  -3 3997.75 314.162   3
   0   8   3 3995.12 170.597   9
   0  -8  -4 33553.4 908.249   3
   0   8   4 35122.5 497.620   9
   0  -8  -5 433.018 102.909   3
   0   8   5 385.630 58.9989   9
   0  -8  -6 10955.5 522.181   3
   0   8   6 11445.5 289.846   9
   0   8   7 28378.0 462.617   9
   0   8   8 43369.9 577.525   9
   0   8   9 12358.3 313.330  11
   0   8   9 12431.8 307.789   9
   0   8  10 105.231 42.2315  11
   0   8  10 85.6700 38.2167   9
   0   8  11 14300.2 313.590   9
   0   8  11 13804.1 328.113  11
   0   8  12 93182.1 759.088   9
   0   8  12 92969.0 810.806  11
   0   8  13 11488.1 243.498   9
   0   8  13 11870.9 284.140   5
   0   8  14-0.27341 17.2888   9
   0   8  14-9.56397 24.6830   5
   0  -9  10 8053.79 187.060  10
   0  -9   9 146.747 38.5336  10
   0  -9   8 3478.53 157.340  10
   0   9  -8 3338.36 143.712   8
   0   9  -7 7313.94 232.563   8
   0   9  -6 41082.8 539.560   9
   0   9  -6 41327.8 589.197   8
   0   9  -5 33974.2 500.258   9
   0   9  -5 34334.1 560.081   8
   0   9  -4 8767.40 293.567   8
   0   9  -4 8635.68 256.225   9
   0   9  -3 6487.63 227.652   9
   0   9  -3 6578.58 258.125   8
   0   9  -2 12319.0 358.851   8
   0   9  -2 12197.4 312.435   9
   0   9  -1 6038.08 219.610   9
   0   9  -1 5832.36 250.622   8
   0   9   0 2224.09 134.264   9
   0   9   1 17366.7 364.241   9
   0   9   2 1782.23 129.755   5
   0   9   2 1777.69 117.900   9
   0   9   3 9262.51 294.959   5
   0   9   3 9427.93 267.576   9
   0   9   4 4335.39 181.815   9
   0   9   4 4104.02 202.736   5
   0   9   5 4269.76 178.944   9
   0   9   6 15964.2 340.124   9
   0   9   7 11558.2 286.633   9
   0   9   8 6571.06 212.362   9
   0   9   9 19737.8 356.764   9
   0   9  10 18499.0 331.454   9
   0   9  11 463.657 70.4812   5
   0   9  11 453.323 52.5711   9
   0   9  12 490.876 64.6397   5
   0   9  13 5935.33 178.812   5
   0 -10   9 11335.8 188.917  10
   0 -10   8 21025.6 303.439  10
   0 -10   7 101.048 34.6089  10
   0  10  -7 138.243 35.6634   8
   0  10  -6 1643.79 105.375   8
   0  10  -5 4931.99 193.145   8
   0  10  -4 22501.0 430.360   8
   0  10  -3 3678.45 184.702   8
   0  10  -2 159.591 54.8925   8
   0  10  -1 188.925 57.5008   8
   0  10   0 32293.9 562.189   8
   0  10   1 25046.8 494.515   8
   0  10   2 144.894 54.1460   8
   0  10   3 53376.0 676.635   5
   0  10   4 1643.98 125.569   5
   0  10   5 19685.8 424.147   5
   0  10   6 5395.57 224.993   5
   0  10   7 15389.4 374.042   5
   0  10   8 40520.4 595.380   5
   0  10   9 6448.62 231.937   5
   0  10  10 2902.70 149.317   5
   0  10  11 47053.2 546.452   5
   0  10  12 16523.2 287.259   5
   0  11  -6 11744.8 203.944   8
   0 -11   6 12473.4 218.821  10
   0  11  -5 25954.4 353.220   8
   0  11  -4 30813.9 425.198   8
   0  11  -3 6937.49 215.806   8
   0  11  -2 4463.38 183.004   8
   0  11  -1 595.054 77.1822   8
   0  11   0 5464.91 209.913   8
   0  11   1 13500.8 329.976   8
   0  11   2 1340.71 109.294   8
   0  11   3 722.209 81.7370   8
   0  11   4 294.123 54.9544   8
   0  11   4 225.977 45.3902   5
   0  11   5 111.280 39.7296   8
   0  11   5 106.499 38.4510   5
   0  11   6 641.044 68.6146   8
   0  11   6 714.567 77.2778   5
   0  11   7 37366.2 508.608   5
   0  11   7 34973.8 429.930   8
   0  11   8 10197.9 258.480   5
   0  11   9 8371.43 223.367   5
   0  11  10 4112.35 145.347   5
   0  11  11 2915.58 107.409   5
   0  12  -3 19845.3 270.860   8
   0  12  -2 193.950 36.4674   8
   0  12  -1 2043.14 102.371   8
   0  12   0 27857.1 382.280   8
   0  12   1 22793.3 351.699   8
   0  12   2 1769.28 101.033   8
   0  12   3 20531.8 328.401   8
   0  12   4 3705.51 136.021   8
   0  12   5 7226.19 174.800   8
   0  12   6 19443.7 271.582   5
   0  12   7 7923.78 171.559   5
  -1  12   2 1688.43 80.1599   8
  -1  12   1 195.034 33.9878   8
  -1  12   0 2046.20 92.0529   8
  -1  12  -1 85967.4 568.468   8
  -1  12  -2 163.251 29.7893   8
  -1  11   9 296.102 42.6445   5
  -1  11   8 11385.1 244.450   5
  -1  11   7 822.305 73.6962   5
  -1  11   6 10838.4 260.828   5
  -1  11   5 49110.5 558.310   5
  -1  11   4 20744.6 337.630   8
  -1  11   4 21811.5 370.481   5
  -1  11   3 225.966 45.5176   8
  -1  11   3 241.192 46.3015   5
  -1  11   2 4663.34 176.454   8
  -1  11   1 29522.9 446.471   8
  -1  11   0 46779.1 565.055   8
  -1  11  -1 3198.15 148.965   8
  -1  11  -2 1242.59 93.2155   8
  -1  11  -3 16935.1 319.848   8
  -1  11  -4 23620.4 356.009   8
  -1  11  -5 1655.93 89.1184   8
   1 -11   5 1585.43 73.9425  10
  -1  11  -6 25996.0 298.444   8
  -1  10  11 1974.95 97.7988   5
  -1  10  10 8638.13 228.496   5
  -1  10   9 3330.51 156.280   5
  -1  10   8 45218.9 597.340   5
  -1  10   7 14552.6 351.389   5
  -1  10   6 3481.36 177.222   5
  -1  10   5 3836.27 164.590   8
  -1  10   5 3714.76 184.878   5
  -1  10   4 8740.90 259.637   8
  -1  10   4 8778.88 282.523   5
  -1  10   3 27116.7 477.041   8
  -1  10   3 27633.3 487.374   5
  -1  10   2 382.837 65.5784   8
  -1  10   2 451.554 69.5736   5
  -1  10   1 153.671 47.6360   8
  -1  10   0 35840.0 563.209   8
  -1  10  -1 99.8995 47.2655   8
  -1  10  -2 9482.76 290.440   8
  -1  10  -3 26335.2 471.278   8
  -1  10  -4 32471.2 509.011   8
  -1  10  -5 582.519 73.1076   8
   1 -10   6 451.984 55.6081  10
  -1  10  -6 378.725 56.0201   8
   1 -10   7 26299.6 343.345  10
  -1  10  -7 26508.8 370.023   8
  -1  10  -8 25390.9 309.466   8
   1 -10   8 26190.1 296.960  10
  -1   9  12 4599.22 155.917   5
  -1   9  11 357.288 58.7574   5
  -1   9  10 56792.8 676.405   5
  -1   9   9 3507.31 181.284   5
  -1   9   8 7694.10 274.900   5
  -1   9   7 4408.46 213.298   5
  -1   9   6 4621.63 220.206   5
  -1   9   5 26705.7 469.449   8
  -1   9   5 26462.4 516.337   5
  -1   9   4 1035.57 100.597   8
  -1   9   4 996.087 108.972   5
  -1   9   3 3533.96 190.154   5
  -1   9   3 3315.08 177.910   8
  -1   9   2 59189.1 754.102   5
  -1   9   2 59083.5 751.244   8
  -1   9   1 2478.67 153.322   5
  -1   9   1 2497.72 159.514   8
  -1   9   0 2072.25 147.920   8
  -1   9  -1 3487.74 189.846   8
  -1   9  -2 9.42743 38.6260   8
  -1   9  -3 15086.9 387.708   8
  -1   9  -4 5261.08 228.450   8
  -1   9  -5 29354.8 521.096   8
  -1   9  -6 1201.31 107.076   8
  -1   9  -7 721.687 80.2636   8
  -1   9  -8 1617.84 105.810   8
   1  -9   8 1608.02 102.368  10
  -1   9  -9 76.4475 29.9119   8
   1  -9   9 48.5599 27.9794  10
   1  -9  10 7637.03 168.203  10
  -1   8  13 186.595 37.2781   5
  -1   8  12 25248.4 412.936   5
  -1   8  12 25026.2 376.305  11
  -1   8  11 1877.50 113.090  11
  -1   8  11 1922.46 130.393   5
  -1   8  10 3257.43 153.710  11
  -1   8  10 3274.16 178.414   5
  -1   8   9 617.410 72.2004  11
  -1   8   9 806.831 96.7511   5
  -1   8   8 167.562 53.9017   5
  -1   8   7 4.09610 37.7165   5
  -1   8   6 14047.6 384.568   5
  -1   8   5 3069.62 181.538   5
   1  -8  -4 1465.83 196.722   3
  -1   8   4 1511.12 127.086   5
  -1   8   3 7951.60 280.399   5
   1  -8  -3 8505.76 461.102   3
   1  -8  -2 5720.12 385.417   3
  -1   8   2 6191.37 243.084   5
   1  -8  -1 52735.3 1171.73   3
  -1   8   1 51579.1 689.695   5
   1  -8   0 126670. 1839.87   3
  -1   8   0 127833. 1114.04   8
  -1   8   0 128648. 1055.03   5
  -1   8  -1 39921.5 630.689   8
   1  -8   1 38980.5 1031.21   3
  -1   8  -2 38764.7 626.242   8
  -1   8  -3 143097. 1199.08   8
  -1   8  -4 5643.80 244.008   8
  -1   8  -5 66501.7 817.592   8
  -1   8  -6 2412.36 157.695   8
  -1   8  -7 1806.49 133.745   8
  -1   8  -8 5545.96 217.269   8
   1  -8   8 5532.00 214.040  10
  -1   8  -9 36042.0 508.475   8
   1  -8   9 37438.2 515.484  10
   1  -8  10 10350.0 250.246  10
  -1   8 -10 10279.0 241.039   8
   1  -8  11 20483.6 311.052  10
   1  -8  12 23818.4 280.432  10
  -1   7  14 3339.58 133.919  11
  -1   7  13 12571.4 287.878  11
  -1   7  13 12825.6 276.824   5
  -1   7  12 1359.78 106.789  11
  -1   7  12 1113.85 96.2531   5
  -1   7  11 9673.81 297.796   5
  -1   7  11 9604.98 283.331  11
  -1   7  10 18488.2 431.594   5
  -1   7  10 18303.9 398.527  11
  -1   7   9 2183.11 141.875  11
  -1   7   8 175.153 50.9991  11
   1  -7  -7 58022.0 1123.10   3
   1  -7  -6 72821.8 1255.23   3
   1  -7  -5 105352. 1510.66   3
   1  -7  -4 1264.68 166.353   3
  -1   7   4 1357.68 113.438   1
   1  -7  -3 3284.06 268.189   3
  -1   7   2 8237.22 264.206   5
   1  -7  -2 8613.98 435.118   3
   1  -7  -1 665.508 124.721   3
  -1   7   1 627.870 77.7682   5
   1  -7   0 2215.23 226.920   3
  -1   7  -1 15218.5 367.976   8
  -1   7  -2 68666.0 796.520   8
  -1   7  -2 73022.1 1145.41   4
  -1   7  -3 7761.14 392.523   4
  -1   7  -3 7657.28 267.953   8
  -1   7  -4 299.544 88.2473   4
  -1   7  -4 169.090 51.3571   8
  -1   7  -5 123.121 49.5666   8
  -1   7  -5-41.8082 37.3228   4
  -1   7  -6 465.021 75.7140   8
  -1   7  -7 24699.9 493.581   8
  -1   7  -8 11367.0 328.440   8
  -1   7  -9 66.2135 38.3436   8
   1  -7   9 25.5109 35.7187  10
  -1   7 -10 33029.4 498.500   8
   1  -7  10 33867.7 512.706  10
   1  -7  11 821.360 78.8223  10
  -1   7 -11 836.070 73.4505   8
   1  -7  12 22075.7 345.168  10
   1  -7  13 26921.3 324.872  10
  -1   6  15 17556.7 297.442  11
  -1   6  14 1085.23 89.7591  11
  -1   6  13 22217.5 418.796  11
  -1   6  13 20761.6 348.029   9
  -1   6  12 864.834 92.7709  11
  -1   6  12 918.691 93.1880   5
  -1   6  11 3264.49 178.082  11
  -1   6  10 44361.4 647.268  11
  -1   6   9 4809.23 212.931  11
   1  -6  -9 5022.38 360.250   2
  -1   6   8 7939.12 264.605  11
  -1   6   7 26794.4 466.875  11
   1  -6  -7 27195.8 707.856   3
   1  -6  -6 5847.82 325.494   3
   1  -6  -5 6819.39 345.989   3
   1  -6  -4 71101.5 1090.58   3
   1  -6  -3 9221.54 398.467   3
   1  -6  -2 80711.0 1184.52   3
  -1   6   1 1403.97 130.551   4
  -1   6   0 36662.0 693.112   4
  -1   6  -1 243802. 1857.15   4
  -1   6  -2 32658.6 719.193   4
  -1   6  -3 9534.82 410.580   4
  -1   6  -4 6678.87 359.609   4
  -1   6  -4 7200.69 247.821   8
  -1   6  -5 5091.14 334.788   4
  -1   6  -5 4918.29 210.170   8
  -1   6  -6 26833.3 791.326   4
  -1   6  -6 27121.0 500.857   8
  -1   6  -7 44211.4 595.999   9
  -1   6  -7 44841.2 652.435   8
  -1   6  -8 12722.6 349.654   8
   1  -6   9 3586.65 186.221  10
  -1   6  -9 3301.65 178.260   8
  -1   6 -10 16969.7 383.818   8
   1  -6  10 17471.3 392.574  10
   1  -6  11 21775.3 420.455  10
  -1   6 -11 21139.9 394.735   8
   1  -6  12 1045.74 91.2745  10
   1  -6  13 4437.18 161.987  10
   1  -6  14 1390.42 79.5482  10
  -1   5  15 904.262 79.4847  11
  -1   5  14 6477.91 222.258  11
  -1   5  13 285.655 63.5952  11
  -1   5  12 20081.1 434.338  11
  -1   5  11 32788.5 562.415  11
  -1   5  10 1262.61 113.664  11
   1  -5 -10 1034.82 170.659   2
   1  -5  -9 46579.4 1050.79   2
  -1   5   9 45174.1 639.315  11
  -1   5   8 548.100 73.2447  11
   1  -5  -7 103797. 1248.16   3
   1  -5  -6 2942.59 209.925   3
   1  -5  -5 144.463 52.7105   3
   1  -5  -4 20426.4 522.901   3
  -1   5   3 553.965 72.5924   4
   1  -5  -3 674.145 102.288   3
   1  -5  -2 176628. 1556.59   3
  -1   5   2 178379. 1267.33   4
  -1   5   1 251.749 56.3319   4
  -1   5   0 3849.13 204.122   4
  -1   5  -1 223.214 60.0034   4
  -1   5  -2 1040.54 120.657   4
  -1   5  -3 35277.6 720.712   4
  -1   5  -4 45653.8 866.065   4
  -1   5  -5 53569.1 994.624   4
  -1   5  -6 149631. 1746.74   4
  -1   5  -7 35587.7 897.781   4
  -1   5  -7 35383.6 520.933   9
  -1   5  -7 35424.6 553.699   8
  -1   5  -8 946.739 159.864   4
  -1   5  -8 1103.78 103.642   8
  -1   5  -9 93540.6 929.192   8
  -1   5  -9 95579.6 1589.97   4
   1  -5  10 38120.2 593.913  10
  -1   5 -10 38266.4 585.103   8
  -1   5 -11 23621.7 445.061   8
   1  -5  11 24089.2 463.779  10
   1  -5  12 49.2277 39.3162  10
   1  -5  13 2776.92 145.559  10
   1  -5  14 39737.1 484.346  10
   1  -5  15 4674.38 141.773  10
   1  -4 -16 7864.06 203.270   7
  -1   4  16 7945.80 194.599  11
   1  -4 -15 31091.1 473.311   7
  -1   4  15 30878.8 446.496  11
   1  -4 -14 511.451 73.4024   7
  -1   4  14 567.760 73.8533  11
  -1   4  13 1659.82 126.557  11
   1  -4 -13 1522.61 128.251   7
  -1   4  12 3515.78 184.629  11
   1  -4 -12 3336.54 191.952   7
  -1   4  11 28101.6 515.175  11
   1  -4 -11 28009.2 553.217   7
   1  -4 -10 101393. 1065.61   7
  -1   4  10 103900. 973.438  11
   1  -4 -10 105012. 1622.34   2
   1  -4  -9 18243.6 638.770   2
  -1   4   9 18269.3 395.084  11
   1  -4  -8 56540.6 1057.18   2
   1  -4  -7 13833.7 406.494   3
   1  -4  -6 2356.97 167.153   3
   1  -4  -5 8412.31 302.098   3
   1  -4  -4 602.525 81.4997   3
   1  -4  -3 44166.7 673.950   3
  -1   4   3 43422.1 571.562   4
  -1   4   2 2147.03 129.784   4
  -1   4   1 284015. 1511.68   4
  -1   4   0 37845.1 573.197   4
  -1   4  -1 4684.14 214.358   4
  -1   4  -2 213441. 1516.02   4
  -1   4  -3 6418.73 283.638   4
  -1   4  -4 53449.8 857.445   4
  -1   4  -4 47953.7 672.836   2
  -1   4  -5 1356.00 123.142   2
  -1   4  -5 1306.96 145.024   4
  -1   4  -6 17053.8 547.244   4
  -1   4  -6 18014.0 474.744   2
  -1   4  -7 3936.40 278.688   4
  -1   4  -8 46568.4 1002.30   4
  -1   4  -8 45465.3 615.691   8
  -1   4  -9 3364.27 171.856   8
  -1   4  -9 3431.45 291.024   4
   1  -4   9 3334.98 173.275  10
  -1   4 -10 21456.4 753.453   4
  -1   4 -10 20231.5 423.481   8
   1  -4  10 20303.2 429.073  10
   1  -4  11 14577.6 367.536  10
  -1   4 -11 14534.5 354.418   8
   1  -4  12 1263.91 110.948  10
   1  -4  13 67041.8 750.578  10
   1  -4  14 19215.8 372.358  10
   1  -4  15 65.4256 32.3088  10
   1  -4  16 10968.6 207.430  10
   1  -3 -17 11233.9 214.910   7
  -1   3  16 23488.8 335.489  11
   1  -3 -16 24682.2 397.553   7
  -1   3  15 20485.3 366.595  11
   1  -3 -15 20905.0 417.845   7
   1  -3 -14 1810.56 139.454   7
  -1   3  14 2018.06 129.499  11
   1  -3 -13 3047.18 187.707   7
  -1   3  13 2970.42 165.794  11
  -1   3  12 609.382 81.4894  11
   1  -3 -12 575.299 93.8033   7
  -1   3  11 34723.1 559.216  11
   1  -3 -11 35097.4 972.789   2
   1  -3 -10 25466.1 789.879   2
  -1   3  10 25117.4 466.550  11
  -1   3   9 13373.7 326.829  11
   1  -3  -9 13712.8 544.203   2
   1  -3  -8 278.505 80.7855   2
   1  -3  -7 618.168 79.0160   3
   1  -3  -6 24538.6 465.614   3
   1  -3  -5 45157.3 613.440   3
   1  -3  -4 87107.9 801.591   3
   1  -3  -3 233409. 1317.33   3
  -1   3   3 233699. 1227.02   4
  -1   3   2 164620. 1007.03   4
  -1   3   1 634.613 67.9204   4
  -1   3   0 81.0460 35.5481   4
  -1   3  -1 3178.94 156.484   4
  -1   3  -2 98653.6 926.006   4
  -1   3  -3 407.315 53.7237   2
  -1   3  -3 46.0472 39.0899   4
  -1   3  -4 25742.4 438.887   2
  -1   3  -5 8615.30 283.898   2
  -1   3  -6 3511.07 197.861   2
  -1   3  -7 23764.3 563.628   2
  -1   3  -8 119785. 1369.57   2
  -1   3  -9 10227.8 428.828   2
   1  -3   9 10182.4 285.298  10
   1  -3   9 9962.24 310.069   6
  -1   3 -10 28848.8 492.205   8
   1  -3  10 27263.9 533.544   6
   1  -3  10 27894.4 490.683  10
  -1   3 -11 5791.54 387.373   4
   1  -3  11 5664.14 229.719  10
   1  -3  12 125331. 1077.49  10
   1  -3  13 10538.0 307.817  10
   1  -3  14 1418.15 111.889  10
   1  -3  15 44120.9 546.888  10
   1  -3  16 75.9396 30.2068  10
   1  -2 -17 129.348 34.0165   7
   1  -2 -16 7629.42 233.823   7
  -1   2  15 2859.16 136.170  11
   1  -2 -15 2848.82 163.663   7
   1  -2 -14 13096.2 375.083   7
  -1   2  14 12683.5 311.443  11
  -1   2  13 3507.14 176.177  11
   1  -2 -13 3565.17 213.362   7
   1  -2 -12 3990.41 236.172   7
  -1   2  12 4458.45 200.255  11
  -1   2  11 22320.1 470.578   6
   1  -2 -11 21973.9 762.771   2
  -1   2  11 22173.0 435.878  11
  -1   2  10 3938.97 178.432  11
   1  -2 -10 4047.30 313.964   2
  -1   2  10 3665.47 166.345  10
   1  -2  -9 38040.1 894.682   2
   1  -2  -8 24546.1 661.906   2
   1  -2  -7 165481. 1581.93   2
   1  -2  -6 658.427 99.7843   2
   1  -2  -6 897.745 78.8114   3
   1  -2  -5 96970.2 759.866   3
   1  -2  -4 7015.88 195.443   3
  -1   2   3 18180.0 322.255   4
   1  -2  -3 18531.9 304.454   3
  -1   2   2 128195. 809.694   4
  -1   2   1 36218.4 422.336   4
  -1   2   0 10448.5 231.163   4
  -1   2  -1 2643.72 125.818   4
  -1   2  -2 10542.0 185.433   2
  -1   2  -3 12631.3 238.822   2
  -1   2  -4 135734. 913.085   2
  -1   2  -5 29561.7 483.680   2
  -1   2  -6 30715.0 547.353   2
  -1   2  -7 81932.6 985.374   2
  -1   2  -8 2318.03 184.604   2
  -1   2  -9 276139. 2146.94   2
   1  -2  10 62746.0 710.623  10
   1  -2  10 61296.6 796.144   6
  -1   2 -10 62931.2 1104.90   2
   1  -2  11 33.8598 37.1530  10
  -1   2 -11-40.3133 39.8738   2
  -1   2 -11 106.862 48.2324   7
  -1   2 -12 135281. 1140.63   7
   1  -2  12 132862. 1121.28  10
  -1   2 -13 33.2366 42.2313   7
   1  -2  13 93.1579 44.9660  10
   1  -2  14 119.850 51.8120  10
  -1   2 -14 171.841 48.9928   7
  -1   2 -15 7396.76 238.659   7
   1  -2  15 7615.29 243.799  10
  -1   2 -16 9796.22 232.961   7
   1  -2  16 9718.56 245.262  10
   1  -1 -17 351.304 49.6150   7
   1  -1 -16 509.326 67.5289   7
   1  -1 -15 0.19123 44.3496   7
  -1   1  15 6.17770 25.5018  11
  -1   1  14 1706.82 113.886  11
   1  -1 -14 1721.90 144.432   7
   1  -1 -13 201420. 1611.43   7
  -1   1  13 202168. 1263.83  11
  -1   1  12 4270.47 217.828   6
  -1   1  12 4337.33 189.968  11
  -1   1  12 4469.79 196.084  10
   1  -1 -11 27472.3 845.670   2
  -1   1  11 26196.4 454.984  11
  -1   1  11 26948.0 465.534  10
  -1   1  11 27302.4 533.439   6
  -1   1  10 231.568 48.4352  11
   1  -1 -10 225.770 83.8687   2
  -1   1  10 86.7794 45.6850   6
  -1   1  10 92.5954 28.9650  10
   1  -1  -9 14836.1 555.655   2
   1  -1  -8 5.62123 46.7921   2
   1  -1  -7 15820.0 491.253   2
   1  -1  -6 95566.0 673.154   3
   1  -1  -6 98661.8 1117.92   2
   1  -1  -5 2402.77 161.538   2
   1  -1  -5 2494.60 101.990   3
   1  -1  -4 23567.8 284.418   3
   1  -1  -4 22885.8 437.958   2
   1  -1  -3 26339.2 284.153   3
  -1   1   2 17071.7 277.590   4
   1  -1  -2 17200.2 222.041   3
  -1   1   1 191089. 866.138   4
  -1   1  -2 1251.33 50.0051   2
  -1   1  -3 76334.6 524.808   2
  -1   1  -4 106957. 752.333   2
  -1   1  -5 12490.7 296.705   2
  -1   1  -6 21963.7 443.071   2
  -1   1  -7 12142.0 366.138   2
  -1   1  -8 2687.12 192.303   2
  -1   1  -9 1919.83 177.649   2
  -1   1 -10 35419.8 807.028   2
   1  -1  11 262.175 55.9238  10
  -1   1 -11 307.865 61.8084   7
  -1   1 -11 268.250 77.7821   2
   1  -1  12 2204.97 146.836  10
  -1   1 -12 2056.24 149.465   7
  -1   1 -13 201.814 54.7246   7
   1  -1  13 229.510 59.3758  10
  -1   1 -14 48969.3 699.577   7
   1  -1  14 49004.4 673.238  10
  -1   1 -15 23170.5 457.307   7
   1  -1  15 23151.0 439.750  10
  -1   1 -16 3405.80 160.522   7
   1  -1  16 3409.46 155.627  10
  -1   1 -17 51101.1 504.529   7
   1   0 -17 29645.3 373.873   7
   1   0 -16 22785.8 395.558   7
   1   0 -15 15575.7 374.094   7
   1   0 -14 17217.7 432.409   7
  -1   0  14 16906.2 361.711  10
  -1   0  13 12216.6 369.329   6
   1   0 -13 12399.8 401.796   7
  -1   0  13 12107.8 320.895  10
  -1   0  12 3000.97 162.884  10
  -1   0  12 3097.71 191.146   6
  -1   0  12 3125.31 153.782  11
   1   0 -11 29528.3 881.492   2
  -1   0  11 29833.8 493.963  10
  -1   0  11 29936.3 566.003   6
  -1   0  11 29132.0 462.688  11
  -1   0  10 477.640 63.5592  10
  -1   0  10 341.659 69.9625   6
   1   0 -10 293.692 93.7369   2
   1   0  -9 4333.09 302.381   2
   1   0  -8 14824.0 517.968   2
   1   0  -7 79333.2 1108.76   2
   1   0  -6 60745.3 892.368   2
   1   0  -5 824.930 102.267   2
   1   0  -5 727.434 49.3313   3
   1   0  -4 6889.33 121.574   3
   1   0  -4 7038.55 252.109   2
   1   0  -3 107799. 366.201   3
   1   0  -3 105561. 861.331   2
   1   0  -2 193781. 994.948   2
   1   0  -1 3618.67 111.472   2
  -1   0   0 269265. 862.918   4
   1   0   0 264716. 677.521   2
  -1   0  -1 8238.44 150.385   4
  -1   0  -1 8238.27 150.324   3
  -1   0  -2 4358.82 123.210   4
  -1   0  -2 4430.63 129.421   3
  -1   0  -3 16874.3 281.563   3
  -1   0  -4 10819.8 250.588   3
  -1   0  -5 12774.0 289.006   2
  -1   0  -5 12917.4 300.587   3
  -1   0  -6 3260.37 165.802   3
  -1   0  -6 3153.66 164.716   2
  -1   0  -7 268485. 1614.50   3
  -1   0  -7 269896. 1689.71   2
  -1   0  -8 37511.6 694.344   2
  -1   0  -8 37641.6 648.902   3
  -1   0  -9 21945.4 581.234   2
  -1   0 -10 12592.4 478.176   2
   1   0  11 66903.6 749.567  10
  -1   0 -11 65695.7 1169.77   2
  -1   0 -11 67777.1 839.195   7
  -1   0 -12 39228.1 652.833   7
   1   0  12 39429.3 600.804  10
  -1   0 -13 69.4043 48.5077   7
   1   0  13 82.4768 41.1113  10
  -1   0 -14 415.430 77.6815   7
   1   0  14 422.082 72.5569  10
   1   0  15 16263.9 378.724  10
  -1   0 -15 16238.4 402.386   7
  -1   0 -16 203.373 55.3770   7
  -1   0 -17 21043.4 366.065   7
  -1   0 -18 146.621 30.3643   7
   1   1 -17 6102.67 152.037   7
   1   1 -16 356.702 53.2407   7
   1   1 -15 3140.90 164.205   7
   1   1 -14 855.698 101.802   7
  -1  -1  14 802.382 83.1891  10
  -1  -1  13 18338.8 394.247  10
   1   1 -13 17938.9 469.712   7
  -1  -1  13 18396.3 455.675   6
  -1  -1  12 30636.2 517.055  10
  -1  -1  12 31175.2 598.112   6
  -1  -1  11 2965.89 159.377  10
  -1  -1  11 2969.84 184.140   6
   1   1 -11 2924.82 283.177   2
  -1  -1  10 15805.9 349.626  10
   1   1 -10 15980.0 623.845   2
  -1  -1  10 15694.6 402.761   6
   1   1  -9 46038.8 996.760   2
   1   1  -8 196002. 1914.65   2
   1   1  -7 2190.33 191.430   2
   1   1  -6 10823.2 389.163   2
   1   1  -5 2961.09 188.399   2
   1   1  -4 35183.8 579.301   2
   1   1  -3 36464.9 529.743   2
   1   1  -2 4006.18 155.771   2
   1   1  -1 266386. 1089.47   2
  -1  -1   0 384.455 27.4981   3
   1   1   0 383.051 40.5148   2
  -1  -1  -1 166099. 523.996   4
  -1  -1  -1 167439. 659.758   3
  -1  -1  -2 148982. 510.177   4
  -1  -1  -2 148311. 725.970   3
  -1  -1  -3 1584.89 87.1890   3
  -1  -1  -4 17979.9 316.436   3
  -1  -1  -5 38065.0 503.421   3
  -1  -1  -6 232121. 1352.85   3
  -1  -1  -7 688.546 85.6201   3
  -1  -1  -8 67.7292 41.3202   3
  -1  -1  -8 130.996 53.5218   2
  -1  -1  -9 5926.60 300.311   2
  -1  -1  -9 5723.20 268.335   3
  -1  -1 -10 13858.9 444.154   3
  -1  -1 -10 13239.8 487.859   2
   1   1  11 10963.3 280.780  11
   1   1  11 11482.1 308.924  10
  -1  -1 -11 10760.0 477.505   2
  -1  -1 -11 12137.0 360.292   7
   1   1  12 9805.27 273.741  11
   1   1  12 9767.38 299.162  10
  -1  -1 -12 9637.15 479.222   2
  -1  -1 -12 9991.21 336.987   7
  -1  -1 -13 23617.6 522.982   7
   1   1  13 23510.9 476.959  10
   1   1  13 23424.6 424.535  11
  -1  -1 -14 23218.8 513.140   7
   1   1  14 22928.1 468.939  10
  -1  -1 -15 30129.6 561.720   7
  -1  -1 -16 44967.7 645.302   7
  -1  -1 -17 3185.08 152.615   7
  -1  -1 -18 140.148 33.2058   7
   1   2 -16 7926.80 196.517   7
   1   2 -15 47643.8 577.069   7
  -1  -2  15 47236.2 525.130  10
  -1  -2  14 1386.98 105.710  10
   1   2 -14 1398.83 117.460   7
  -1  -2  13 334.580 60.7711  10
  -1  -2  13 317.388 74.3146   6
   1   2 -13 471.225 82.6964   7
  -1  -2  12 11149.2 313.031  10
  -1  -2  12 10873.5 356.990   6
  -1  -2  11 2802.86 158.472  10
  -1  -2  11 2670.52 177.804   6
   1   2 -10 23525.4 781.140   2
  -1  -2  10 23393.1 435.533  10
  -1  -2  10 23794.5 502.659   6
  -1  -2   9 9347.55 300.897   6
   1   2  -9 8419.83 442.601   2
   1   2  -8 43.1943 58.6646   2
   1   2  -7 41675.8 851.841   2
   1   2  -6 17453.1 511.430   2
   1   2  -5 50395.7 802.093   2
   1   2  -4 37323.5 641.027   2
   1   2  -3 1398.46 118.154   2
   1   2  -2 98.2771 40.1135   2
   1   2  -1 23995.8 386.930   2
  -1  -2   1 25191.4 284.948   3
   1   2   0 179092. 985.529   2
  -1  -2   0 179798. 771.763   3
  -1  -2  -1 17764.5 260.172   3
  -1  -2  -2 20621.1 306.561   3
  -1  -2  -3 25335.4 365.508   3
  -1  -2  -4 8743.63 235.092   3
  -1  -2  -5 112262. 912.649   3
  -1  -2  -6 12831.6 331.277   3
  -1  -2  -7 734.426 89.4938   3
  -1  -2  -8 29356.1 574.885   3
  -1  -2  -9 124.600 46.7785   3
  -1  -2 -10 31503.8 676.632   3
  -1  -2 -10 32144.3 763.088   2
   1   2  11 14298.5 333.063  11
  -1  -2 -11 14195.6 548.406   2
  -1  -2 -11 14695.5 399.989   7
   1   2  11 14920.7 354.408  10
  -1  -2 -11 14318.3 476.813   3
  -1  -2 -12 226320. 1623.78   7
  -1  -2 -12 225273. 2338.11   2
   1   2  12 226850. 1446.82  10
   1   2  12 225097. 1362.42  11
   1   2  13 21285.1 423.157  11
  -1  -2 -13 21492.6 505.395   7
   1   2  14 12092.5 315.353  11
  -1  -2 -14 12591.3 385.459   7
  -1  -2 -15 1872.11 147.752   7
  -1  -2 -16 1119.67 109.914   7
  -1  -2 -17 23792.4 418.426   7
  -1  -2 -18 224.958 41.3835   7
   1   3 -15 326.339 48.4719   7
  -1  -3  15 291.058 44.6930  10
  -1  -3  14 309.123 53.5581  10
   1   3 -14 244.986 53.2849   7
   1   3 -13 103136. 964.795   7
  -1  -3  13 103120. 1038.96   6
  -1  -3  13 103138. 902.551  10
  -1  -3  12 1478.20 117.730  10
  -1  -3  12 1292.23 129.063   6
   1   3 -12 1162.84 119.519   7
  -1  -3  11 48941.2 748.015   6
  -1  -3  11 50196.8 664.120  10
  -1  -3  10 194698. 1456.91   6
  -1  -3  10 193451. 1277.24  10
   1   3  -9 1968.46 225.118   2
  -1  -3   9 2044.19 148.779   6
  -1  -3   9 2360.89 140.329  10
   1   3  -8 53494.4 1090.06   2
   1   3  -7 37716.4 862.296   2
   1   3  -6 5220.53 300.179   2
   1   3  -5 150949. 1493.16   2
   1   3  -4 207.702 68.6050   2
   1   3  -3 537.111 86.2625   2
   1   3  -2 15201.8 382.128   2
   1   3  -1 441.800 69.9512   2
  -1  -3   0 14077.3 279.591   3
   1   3   0 13959.5 329.946   2
  -1  -3  -1 167428. 974.573   3
  -1  -3  -2 30349.3 431.612   3
  -1  -3  -3 773.249 77.4740   3
  -1  -3  -4 98727.4 867.371   3
  -1  -3  -5 569.113 75.0254   3
  -1  -3  -6 170647. 1299.62   3
  -1  -3  -7 6508.80 270.873   3
  -1  -3  -8 102411. 1138.62   3
  -1  -3  -9 9125.86 359.299   3
  -1  -3 -10 36689.8 756.614   3
  -1  -3 -11 4855.99 328.491   2
  -1  -3 -11 4962.28 235.637   7
  -1  -3 -11 4947.49 291.816   3
   1   3  11 5246.93 212.331  11
  -1  -3 -12 2584.34 178.386   7
   1   3  12 2798.68 161.570  11
  -1  -3 -12 2609.35 255.207   2
   1   3  13 18062.0 404.714  11
  -1  -3 -13 18117.8 467.348   7
  -1  -3 -14 5049.74 245.964   7
   1   3  14 4756.35 206.312  11
  -1  -3 -15 21615.7 487.417   7
  -1  -3 -16 5151.75 222.171   7
  -1  -3 -17 9140.16 255.036   7
  -1  -3 -18 88978.3 647.170   7
  -1  -4  15 55.0520 24.9727  10
  -1  -4  14 1984.69 110.725  10
   1   4 -13 39247.7 517.954   7
  -1  -4  13 40334.1 542.273  10
  -1  -4  12 6504.77 265.058   6
   1   4 -12 6352.19 233.191   7
  -1  -4  12 6422.17 233.922  10
  -1  -4  11 58553.5 808.869   6
  -1  -4  11 58319.9 720.746  10
   1   4 -11 59137.0 771.450   7
  -1  -4  10 177.025 51.2830  10
  -1  -4  10 257.075 68.6873   6
  -1  -4   9 34194.7 598.190   6
   1   4  -9 32702.7 931.245   2
  -1  -4   9 33848.2 537.748  10
   1   4  -8 1968.08 224.904   2
   1   4  -8 2160.69 141.618   9
  -1  -4   8 2318.09 153.864   6
   1   4  -7 18955.5 644.706   2
   1   4  -6 1094.26 151.005   2
   1   4  -5 16868.0 539.236   2
   1   4  -4 237.422 69.3813   2
   1   4  -3 76863.6 1012.40   2
   1   4  -2 2319.55 169.860   2
   1   4  -1 107.484 46.8169   2
  -1  -4   0 13530.6 335.030   3
  -1  -4  -1 51860.4 654.507   3
   1   4   1 53490.2 449.066   4
  -1  -4  -2 407757. 1826.75   3
   1   4   2 388182. 784.880   4
  -1  -4  -3 140142. 1113.37   3
  -1  -4  -4 50561.8 702.717   3
  -1  -4  -5 34938.8 610.658   3
  -1  -4  -6 769.591 100.097   3
  -1  -4  -7 813.890 108.027   3
  -1  -4  -8 12234.1 420.363   3
  -1  -4  -9 41362.7 807.265   3
   1   4  10 26675.4 477.018  11
  -1  -4 -10 25639.4 668.524   3
  -1  -4 -11 806.602 100.715   7
   1   4  11 920.142 96.2077  11
  -1  -4 -11 835.090 131.593   3
  -1  -4 -12 11417.3 366.199   7
  -1  -4 -12 12007.4 555.956   2
   1   4  12 11693.8 335.520  11
   1   4  13 75.2349 50.3591  11
  -1  -4 -13 52.9541 50.4173   7
   1   4  14 17922.7 404.234  11
  -1  -4 -14 18135.2 457.884   7
  -1  -4 -15 16763.7 419.038   7
  -1  -4 -16 2240.25 142.285   7
  -1  -4 -17 5181.45 182.527   7
  -1  -4 -18 247.288 36.1815   7
  -1  -5  14 46773.5 469.058  10
  -1  -5  13 895.076 80.3517  10
  -1  -5  12 11364.1 326.216   6
  -1  -5  12 11217.1 294.453  10
  -1  -5  11 29672.1 502.788  10
  -1  -5  11 28826.7 542.806   6
  -1  -5  10 9441.41 293.622  10
  -1  -5  10 9677.46 321.253   6
  -1  -5   9 53422.1 700.600  10
  -1  -5   9 52382.1 738.968   6
   1   5  -8 12132.5 339.985   9
   1   5  -8 11358.0 545.239   2
  -1  -5   8 11840.4 343.801   6
  -1  -5   7 23926.0 465.417   6
   1   5  -7 23642.4 756.983   2
   1   5  -7 23905.8 454.024   9
   1   5  -6 8465.96 433.425   2
   1   5  -5 6168.55 352.952   2
   1   5  -4 3463.22 253.894   2
   1   5  -3 208033. 1855.44   2
   1   5  -2 69.6261 51.9065   2
  -1  -5   1 33756.2 631.202   3
  -1  -5   0 181028. 1434.43   3
   1   5   0 180260. 1118.72   4
  -1  -5  -1 2051.02 155.768   3
   1   5   1 2169.06 105.786   4
  -1  -5  -2 15924.5 422.050   3
  -1  -5  -3 872.946 105.888   3
  -1  -5  -4 4296.31 233.237   3
  -1  -5  -5 4783.22 255.103   3
  -1  -5  -6 15484.8 470.563   3
  -1  -5  -7 69319.5 1029.23   3
  -1  -5  -8 25713.5 656.905   3
  -1  -5  -9 121922. 1487.35   3
   1   5  10 53554.8 704.199  11
  -1  -5 -10 51865.5 711.538   7
  -1  -5 -10 54174.9 1022.64   3
  -1  -5 -11 2580.86 230.137   3
  -1  -5 -11 3073.02 184.380   7
   1   5  11 2835.47 169.315  11
   1   5  12-7.72189 46.0995  11
  -1  -5 -12 16.9115 41.1799   7
   1   5  13 3741.37 195.277  11
  -1  -5 -13 3273.33 196.576   7
  -1  -5 -14 54714.9 758.258   7
   1   5  14 55900.8 714.165  11
  -1  -5 -15 6763.23 249.410   7
  -1  -5 -16 5746.11 204.755   7
  -1  -5 -17 8099.64 202.182   7
  -1  -6  14 8849.53 169.575  10
  -1  -6  13 2204.12 106.855  10
  -1  -6  12 8427.72 234.845  10
  -1  -6  11 8633.01 272.764   6
  -1  -6  11 9437.87 271.022  10
  -1  -6  10 30375.9 513.033  10
  -1  -6  10 29251.4 524.621   6
  -1  -6   9 10140.3 318.060   6
  -1  -6   9 10205.0 309.926  10
  -1  -6   8 39112.8 612.233   6
   1   6  -8 40856.1 629.990   9
  -1  -6   7 112939. 1032.85   6
   1   6  -7 115650. 1763.30   2
   1   6  -7 117793. 1037.67   9
   1   6  -6 47472.7 1097.04   2
   1   6  -6 50073.4 657.482   9
   1   6  -5 23117.6 736.628   2
   1   6  -5 25152.7 454.100   9
   1   6  -4 24010.6 712.290   2
  -1  -6   4 24455.3 648.016   3
  -1  -6   3 3260.08 234.514   3
  -1  -6   2 5176.91 291.056   3
  -1  -6   1 5240.47 288.158   3
   1   6  -1 5282.28 238.115   4
  -1  -6   0 15378.5 485.121   3
  -1  -6  -1 205599. 1756.16   3
  -1  -6  -2 5792.25 292.113   3
  -1  -6  -3 7459.95 338.910   3
  -1  -6  -4 8612.03 370.252   3
  -1  -6  -5 16532.1 524.068   3
  -1  -6  -6 114333. 1407.69   3
  -1  -6  -7 5770.36 327.745   3
  -1  -6  -8 51638.2 1006.49   3
  -1  -6  -9-2.17805 34.8148   3
   1   6   9 52.7904 38.6973  11
   1   6  10 47395.1 677.863  11
  -1  -6 -10 46139.6 999.832   3
   1   6  11 19182.4 439.932  11
   1   6  12 6562.46 259.040  11
   1   6  13 2642.51 163.562  11
   1   6  14 190.423 54.2893  11
  -1  -6 -14 35.9690 40.1384   7
  -1  -6 -15 5943.26 204.881   7
   1   6  16 9554.94 234.162   9
   1   6  17 6498.07 159.078   9
  -1  -7  13 4107.16 118.002  10
  -1  -7  12 32404.9 400.777  10
  -1  -7  11 24746.0 398.539  10
  -1  -7  10 5194.36 201.547  10
  -1  -7   9 17762.0 393.238  10
   1   7  -8 12269.1 344.015   9
   1   7  -7 4343.98 205.168   9
   1   7  -6 23836.4 468.829   9
   1   7  -6 23541.9 444.563   8
   1   7  -5 517.657 74.6659   9
   1   7  -5 540.388 111.599   4
   1   7  -5 470.980 70.5468   8
   1   7  -4 558.168 77.1878   8
   1   7  -4 296.553 57.9125   9
   1   7  -3 7626.37 251.018   9
  -1  -7   3 7045.17 382.080   3
   1   7  -2 108322. 904.960   9
  -1  -7   2 106297. 1480.85   3
  -1  -7   1 62486.9 1116.40   3
  -1  -7   0 804.511 132.388   3
  -1  -7  -1 67262.0 1132.84   3
  -1  -7  -2 2517.32 220.894   3
  -1  -7  -3 50496.0 990.955   3
  -1  -7  -4 8959.69 423.410   3
  -1  -7  -5 6993.76 380.939   3
  -1  -7  -6 43958.6 964.911   3
   1   7   6 44471.8 567.173   9
  -1  -7  -7 441.490 101.839   3
   1   7   7 581.784 72.2406   9
  -1  -7  -8 10399.9 486.235   3
   1   7   8 10538.4 294.368   9
   1   7   8 10048.0 291.471  11
   1   7   9 58138.5 727.842  11
   1   7   9 59554.9 714.418   9
  -1  -7  -9 60334.2 1185.85   3
   1   7  10 1521.74 120.752   9
   1   7  10 1494.07 124.609  11
   1   7  11 3737.64 186.499   9
   1   7  11 3763.95 194.647  11
   1   7  12 29244.7 523.884  11
   1   7  12 29473.1 514.870   9
   1   7  13 429.103 68.7312   9
   1   7  14 17387.6 356.462   9
   1   7  15 554.346 63.2661   9
   1   7  16 26187.0 335.836   9
  -1  -8  12 425.560 39.7486  10
  -1  -8  11 12261.1 238.598  10
  -1  -8  10 352.457 53.1218  10
  -1  -8   9 5181.38 196.573  10
   1   8  -8 12799.1 332.627   9
   1   8  -7 702.561 85.2340   9
   1   8  -6 1572.81 118.585   8
   1   8  -6 1812.76 132.500   9
   1   8  -5 5092.52 216.007   8
   1   8  -5 5438.02 225.281   9
   1   8  -4 34172.0 556.891   9
   1   8  -4 34680.0 562.805   8
   1   8  -3 102987. 958.545   9
   1   8  -3 102691. 984.136   8
  -1  -8   2 30361.5 854.475   3
   1   8  -2 30504.9 513.452   9
   1   8  -1 8755.18 269.027   9
  -1  -8   1 8018.97 438.066   3
   1   8   0 2062.83 132.158   9
  -1  -8   0 2065.55 224.492   3
  -1  -8  -1 32266.8 875.065   3
   1   8   1 33246.2 509.205   9
  -1  -8  -2 861.939 146.446   3
   1   8   2 763.866 81.7828   9
   1   8   3 6497.88 222.318   9
  -1  -8  -3 6527.39 400.471   3
   1   8   4 125238. 973.640   9
  -1  -8  -4 124272. 1749.01   3
  -1  -8  -5 70445.8 1323.07   3
   1   8   5 70691.3 735.645   9
  -1  -8  -6 50592.0 1122.84   3
   1   8   6 49960.4 629.275   9
  -1  -8  -7 2664.74 264.137   3
   1   8   7 2873.91 155.366   9
   1   8   8 193.000 50.0652   9
   1   8   9 24967.5 463.775   9
   1   8  10 11253.7 311.930   9
   1   8  11 2776.15 155.607   9
   1   8  12 16914.5 364.342   9
   1   8  13 2714.64 140.623   9
   1   8  14 1057.80 82.1922   9
   1   8  15 9602.79 201.845   5
   1   8  15 9321.39 200.430   9
  -1  -9  10 46006.3 429.273  10
  -1  -9   9 916.879 74.9059  10
  -1  -9   8 129.082 43.3798  10
   1   9  -7 112.291 40.9558   9
   1   9  -6 35449.0 533.165   9
   1   9  -6 35747.1 512.459   8
   1   9  -5 631.396 81.1074   8
   1   9  -5 605.475 78.3753   9
   1   9  -4 58521.2 727.351   8
   1   9  -4 61549.6 728.202   9
   1   9  -3 11668.5 335.095   8
   1   9  -3 11481.1 320.861   9
   1   9  -2 49211.9 703.856   8
   1   9  -2 48801.3 659.634   9
   1   9  -1 92302.7 903.950   9
   1   9   0 35849.8 554.288   9
   1   9   1 1769.01 125.491   9
   1   9   2 4536.53 197.056   9
   1   9   3 329.968 60.0807   9
   1   9   4 10128.7 291.461   9
   1   9   5 25705.0 459.787   9
   1   9   6 483.877 68.7141   9
   1   9   7 235.820 51.6678   9
   1   9   8 5613.33 213.764   9
   1   9   9 14327.3 339.731   9
   1   9  10 386.680 61.0618   9
   1   9  11 37560.8 512.887   9
   1   9  12 77.3967 32.5428   9
   1   9  13 170.061 35.8785   9
   1   9  14 311.869 38.5777   9
   1   9  14 340.121 46.7766   5
  -1 -10   9 1767.45 74.7446  10
  -1 -10   8 5381.37 154.765  10
  -1 -10   7 377.806 53.6465  10
   1  10  -6 34611.0 431.717   8
   1  10  -6 34795.0 459.626   9
   1  10  -5 11991.1 283.120   8
   1  10  -5 11461.1 277.851   9
   1  10  -4 2769.88 149.039   8
   1  10  -4 2867.59 145.941   9
   1  10  -3 8399.82 269.858   8
   1  10  -3 8342.65 252.977   9
   1  10  -2 21483.2 443.707   8
   1  10  -2 20808.4 407.538   9
   1  10  -1 6608.39 254.807   8
   1  10  -1 6458.76 231.680   9
   1  10   0 9525.60 310.008   8
   1  10   0 9583.07 282.965   9
   1  10   1 26060.3 462.917   9
   1  10   2 9535.63 280.964   9
   1  10   3 854.876 87.8201   9
   1  10   4 12853.5 331.312   5
   1  10   4 12807.0 323.523   9
   1  10   5 10433.8 289.902   9
   1  10   6 2208.73 133.878   9
   1  10   7 9833.69 271.986   9
   1  10   8 3592.34 161.838   9
   1  10   9 53136.0 593.105   9
   1  10  10 968.840 79.6016   9
   1  10  11 5064.10 194.644   5
   1  10  11 4776.04 159.388   9
   1  10  12 23235.3 377.623   5
   1  10  12 20932.1 297.099   9
   1  10  13 2686.98 114.649   5
  -1 -11   6 100.583 27.8567  10
   1  11  -5 16080.4 258.393   8
   1  11  -4 16041.8 295.584   8
   1  11  -4 15979.6 276.780   9
   1  11  -3 3857.37 144.916   9
   1  11  -3 3921.28 160.852   8
   1  11  -2 658.528 76.0415   8
   1  11  -2 652.064 66.5476   9
   1  11  -1 31066.6 495.075   8
   1  11  -1 29805.7 432.094   9
   1  11   0 855.798 91.4103   8
   1  11   0 882.209 81.0270   9
   1  11   1 202.199 44.5068   9
   1  11   1 210.832 58.0762   8
   1  11   2 45945.9 633.823   8
   1  11   2 45275.0 556.611   9
   1  11   3 13128.0 298.106   9
   1  11   4 5899.56 198.278   9
   1  11   5 5.98015 32.0695   9
   1  11   5 10.7547 28.4640   5
   1  11   6 3515.69 149.012   9
   1  11   6 3642.95 164.320   5
   1  11   7 70543.0 713.873   5
   1  11   7 71602.8 639.829   9
   1  11   8 119.945 42.1351   5
   1  11   8 169.930 38.6794   9
   1  11   9 4846.62 149.637   9
   1  11   9 5156.76 185.413   5
   1  11  10 7157.08 163.455   9
   1  11  10 7855.49 215.754   5
   1  11  11 413.691 50.9951   5
   1  11  12 107.840 28.5443   5
   1  12  -3 25.6120 19.3659   8
   1  12  -2 3745.09 130.837   8
   1  12  -1 23855.9 352.265   8
   1  12   0 10163.5 242.458   8
   1  12   1 12188.3 271.389   8
   1  12   2 922.850 79.7932   8
   1  12   3 21171.3 365.336   8
   1  12   4 45320.7 525.220   8
   1  12   5 4785.02 168.103   8
   1  12   6 34.3243 26.7384   8
   1  12   7 10028.9 204.915   5
   1  12   7 9819.16 209.968   8
   1  12   8 220.595 34.7485   5
  -2  11   7 13393.8 231.030   5
  -2  11   6 14406.3 256.994   5
  -2  11   5 4598.26 151.563   5
  -2  11   4 16251.3 287.151   5
  -2  11   3 3549.21 133.522   5
  -2  11   2 25083.9 333.491   5
  -2  11   2 23610.6 306.902   8
  -2  11   1 34565.3 395.728   8
  -2  11   0 2610.20 114.539   8
  -2  11  -1 267.118 42.1207   8
  -2  11  -2 14985.8 266.952   8
  -2  11  -3 17291.1 278.391   8
  -2  11  -4 661.009 55.1365   8
  -2  10  10 2882.08 104.577   5
  -2  10   9 13421.4 260.538   5
  -2  10   8 34035.5 452.504   5
  -2  10   7 516.407 67.7438   5
  -2  10   6 217.707 50.9955   5
  -2  10   5 52.7917 40.0763   5
  -2  10   4 371.399 64.4557   5
  -2  10   3 3041.86 160.442   5
  -2  10   2 11787.8 302.244   5
  -2  10   2 11196.2 273.266   8
  -2  10   1 2770.41 142.590   8
  -2  10   1 2857.05 146.745   5
  -2  10   0 3136.70 154.179   8
  -2  10  -1 3615.96 166.587   8
  -2  10  -2 7554.99 238.864   8
  -2  10  -3 31913.6 481.959   8
  -2  10  -4 21516.8 384.103   8
  -2  10  -5 24622.1 391.736   8
  -2  10  -6 56.3697 34.4010   8
  -2  10  -7 4927.49 149.256   8
  -2   9  11 270.997 41.5480   5
  -2   9  10 15555.0 305.557   5
  -2   9   9 21180.6 392.420   5
  -2   9   8 17193.9 379.241   5
  -2   9   7 4390.52 202.687   5
  -2   9   6 28368.7 523.595   5
  -2   9   5 2632.51 165.289   5
  -2   9   4 43965.3 662.040   5
  -2   9   3 229.691 50.7077   8
  -2   9   3 183.809 58.4365   5
  -2   9   2 21982.5 424.568   8
  -2   9   2 21538.5 456.545   5
  -2   9   1 34555.0 546.806   8
  -2   9   1 34796.8 570.626   5
  -2   9   0 828.204 92.3756   8
  -2   9   0 870.353 93.4886   5
  -2   9  -1 789.225 91.9234   8
  -2   9  -2 1858.55 134.667   8
  -2   9  -3 26306.4 491.684   8
  -2   9  -4 5680.65 228.062   8
  -2   9  -5 2005.11 136.768   8
  -2   9  -6 545.785 73.4351   8
   2  -9   6 625.826 64.4976  10
  -2   9  -7 13634.8 312.372   8
   2  -9   7 13051.6 257.128  10
   2  -9   8 3945.48 127.764  10
  -2   9  -8 4029.71 158.119   8
  -2   9  -9 10312.2 222.221   8
  -2   8  12 2236.71 91.4110  11
  -2   8  12 2064.98 95.3315   5
  -2   8  11 26809.6 353.347  11
  -2   8  11 26167.2 402.332   5
  -2   8  10 19275.9 322.632  11
  -2   8  10 18728.9 384.378   5
  -2   8   9 6546.12 245.267   5
  -2   8   8 3646.99 193.702   5
  -2   8   7 3740.53 201.697   5
  -2   8   6 12615.5 367.643   5
  -2   8   5 139.007 58.3034   5
  -2   8   4 3384.86 194.975   5
  -2   8   4 3410.30 182.642   1
  -2   8   3 8301.13 264.878   8
  -2   8   3 8613.19 304.750   5
  -2   8   3 8129.68 279.034   1
  -2   8   2 7285.10 256.365   8
  -2   8   2 7388.55 257.708   1
  -2   8   2 7305.34 276.603   5
  -2   8   1 7472.54 261.413   8
  -2   8   1 7322.32 273.207   5
  -2   8   0 10745.5 319.109   8
  -2   8   0 11045.5 328.430   5
  -2   8  -1 8492.65 283.748   5
  -2   8  -1 8374.02 285.940   8
  -2   8  -2 245.779 57.4173   8
  -2   8  -3 10954.7 333.771   8
  -2   8  -4 35138.1 593.963   8
  -2   8  -5 55188.7 744.948   8
  -2   8  -6 9076.79 297.838   8
  -2   8  -7 972.743 100.197   8
   2  -8   7 831.512 81.6263  10
   2  -8   8 343.129 52.8683  10
  -2   8  -8 406.308 66.0286   8
   2  -8   9 5347.32 172.992  10
  -2   8  -9 5564.83 201.054   8
   2  -8  10 29056.4 361.498  10
  -2   8 -10 29489.0 411.100   8
   2  -8  11 15631.0 226.275  10
  -2   8 -11 15203.4 246.210   8
  -2   7  14 1877.44 79.1092  11
  -2   7  13 41534.7 440.698  11
  -2   7  12 22280.3 361.249  11
  -2   7  12 21721.3 345.705   5
  -2   7  11 300.798 54.8438   5
  -2   7  11 210.289 47.7124  11
  -2   7  10 10835.0 287.656  11
  -2   7  10 10557.3 310.277   5
  -2   7   9 36377.9 534.927  11
  -2   7   9 35040.5 597.283   5
  -2   7   8 16792.2 424.437   5
  -2   7   8 17592.8 375.919  11
  -2   7   7 8356.07 303.330   5
  -2   7   6 3337.27 195.382   5
  -2   7   5 46694.2 683.143   1
  -2   7   5 45689.9 697.279   5
   2  -7  -4 15411.4 581.944   3
  -2   7   4 15410.3 401.815   5
  -2   7   4 15572.2 389.440   1
   2  -7  -3 22878.8 719.317   3
  -2   7   3 23689.9 491.743   5
  -2   7   3 23669.2 471.376   1
  -2   7   2 29358.2 516.128   1
  -2   7   2 30440.4 508.849   8
   2  -7  -2 28391.8 815.034   3
  -2   7   2 29638.3 543.460   5
  -2   7   1 62715.6 745.111   8
  -2   7   1 62885.1 735.614   1
   2  -7  -1 61828.7 1223.14   3
  -2   7   1 61822.0 772.075   5
  -2   7   0 45165.5 647.122   5
   2  -7   0 45353.1 1071.11   3
  -2   7   0 44532.8 635.050   8
  -2   7  -1 16120.4 386.225   8
  -2   7  -1 16115.6 384.711   5
  -2   7  -2 99644.2 1451.53   4
  -2   7  -2 99150.5 930.258   5
  -2   7  -2 101074. 973.648   8
  -2   7  -3 996.108 106.121   8
  -2   7  -3 1118.71 170.838   4
  -2   7  -4 4013.66 203.762   8
  -2   7  -4 4391.52 326.231   4
  -2   7  -5 1749.38 138.279   8
  -2   7  -6 8209.42 294.664   8
  -2   7  -7 12743.9 361.328   8
   2  -7   8 14864.2 345.730  10
  -2   7  -8 14693.3 378.139   8
  -2   7  -9 32.0871 36.6820   8
   2  -7   9 11.7224 31.9368  10
   2  -7  10 32345.4 459.630  10
  -2   7 -10 33283.0 507.576   8
  -2   7 -11 27722.6 415.390   8
   2  -7  11 27839.3 392.281  10
   2  -7  12 3686.70 127.331  10
  -2   7 -12 3378.72 124.241   8
  -2   6  15 55086.5 415.508  11
  -2   6  14 1270.18 81.3971  11
  -2   6  13 1095.97 87.6760  11
  -2   6  12 14317.4 327.845  11
  -2   6  11 2671.73 150.758   5
  -2   6  11 2555.38 149.396  11
  -2   6  10 161.092 52.5873   5
  -2   6  10 185.111 56.3198  11
  -2   6   9 4272.83 199.408  11
  -2   6   9 4117.81 207.655   5
  -2   6   8 9413.71 291.224  11
  -2   6   8 9752.42 323.852   5
  -2   6   7 54975.7 682.795  11
  -2   6   7 52525.6 747.105   5
  -2   6   6 73229.1 870.194   5
  -2   6   6 75369.2 776.570  11
  -2   6   6 76029.7 865.913   1
  -2   6   5 37664.5 612.857   5
  -2   6   5 37777.4 597.698   1
   2  -6  -5 36958.0 823.069   3
  -2   6   4 34805.7 575.515   5
   2  -6  -4 34716.0 789.116   3
  -2   6   4 34510.3 555.413   1
  -2   6   3 649.770 79.6852   1
  -2   6   3 981.845 100.562   5
   2  -6  -3 920.157 133.133   3
  -2   6   2 509.737 88.9175   4
   2  -6  -2 444.138 101.163   3
  -2   6   2 492.529 72.3235   5
  -2   6   1 2610.37 202.891   4
  -2   6   0 65699.9 1038.18   4
  -2   6  -1 37081.3 808.219   4
  -2   6  -2 59745.2 711.915   8
  -2   6  -2 61341.9 1090.68   4
  -2   6  -3 8113.25 269.571   8
  -2   6  -3 7766.93 396.612   4
  -2   6  -4 993.515 153.111   4
  -2   6  -4 624.354 82.8680   8
  -2   6  -5 614.161 81.0855   8
  -2   6  -5 723.361 137.461   4
  -2   6  -6 655.006 89.1563   8
  -2   6  -6 543.036 125.076   4
  -2   6  -7 1274.26 118.356   8
  -2   6  -8 27538.5 528.300   8
   2  -6   8 26743.1 484.251  10
  -2   6  -9 11600.7 338.616   8
   2  -6   9 10948.2 303.875  10
  -2   6 -10 1948.78 137.043   8
   2  -6  10 1789.77 122.164  10
   2  -6  11 9644.83 263.806  10
  -2   6 -11 9666.51 279.098   8
   2  -6  12 17141.1 326.124  10
  -2   6 -12 16207.5 322.767   8
   2  -6  13 38871.1 434.145  10
  -2   6 -13 35440.2 397.457   8
   2  -6  14 311.353 36.7944  10
  -2   5  15 1485.31 82.5257  11
  -2   5  14 520.395 61.8861  11
  -2   5  13 2197.98 131.235  11
  -2   5  12 1738.34 125.535  11
  -2   5  11 125820. 1072.39  11
  -2   5  10 52257.7 706.422  11
  -2   5  10 54490.6 714.234   5
  -2   5   9 778.763 92.0117  11
  -2   5   9 954.855 99.8863   5
  -2   5   8 58542.0 768.224   5
  -2   5   8 58678.6 729.710  11
  -2   5   7 45468.3 669.284   5
  -2   5   7 46555.5 634.943  11
  -2   5   6 19915.2 435.307   5
  -2   5   6 21326.2 413.602  11
  -2   5   6 20899.5 439.626   1
   2  -5  -5 125083. 1357.95   3
   2  -5  -4 1551.67 152.014   3
   2  -5  -3 7944.20 347.222   3
  -2   5   3 8385.94 331.308   4
  -2   5   2 11108.7 381.112   4
  -2   5   1 6113.01 285.494   4
  -2   5   0 35224.2 701.924   4
  -2   5  -1 17436.9 515.957   4
  -2   5  -2 68188.9 1048.98   4
  -2   5  -3 453.106 99.0094   4
  -2   5  -4 1711.77 185.729   4
  -2   5  -5 47191.1 992.857   4
  -2   5  -5 47932.1 639.610   8
  -2   5  -6 88541.9 901.851   8
  -2   5  -6 91492.4 1437.04   4
  -2   5  -7 122235. 1728.98   4
  -2   5  -7 121605. 1082.49   8
  -2   5  -8 26373.3 511.300   8
  -2   5  -8 27004.9 840.500   4
   2  -5   8 25936.4 472.507  10
   2  -5   9 7173.43 251.107  10
  -2   5  -9 7584.02 276.600   8
  -2   5 -10 23.6594 38.0223   8
   2  -5  10 28.4789 31.7070  10
  -2   5 -11 441.086 72.0285   8
   2  -5  11 289.955 57.7305  10
  -2   5 -12 692.786 78.6929   8
   2  -5  12 727.401 80.0513  10
  -2   5 -13 3150.53 142.062   8
   2  -5  13 3294.12 149.056  10
   2  -5  14 803.335 68.7047  10
   2  -5  15 905.435 58.8545  10
  -2   4  15 27664.1 367.722  11
   2  -4 -14 10921.0 266.082   7
  -2   4  14 11019.8 269.282  11
  -2   4  13 1986.69 130.141  11
   2  -4 -13 1806.71 124.144   7
   2  -4 -12 206.256 55.2722   7
  -2   4  12 176.490 53.7165  11
   2  -4 -11 6634.15 268.128   7
  -2   4  11 6292.30 246.337  11
  -2   4  10 49112.1 682.673  11
  -2   4   9 3515.04 182.669  11
   2  -4  -9 4195.57 329.594   2
  -2   4   8 43.7612 32.3227   5
  -2   4   8 58.3048 35.9094  11
   2  -4  -7 7767.10 400.052   2
  -2   4   7 6878.19 238.991  11
   2  -4  -6 214.656 70.9676   2
   2  -4  -5 3812.64 241.611   2
   2  -4  -5 3877.11 211.593   3
   2  -4  -4 1057.71 112.703   3
  -2   4   3 69749.7 890.798   4
   2  -4  -3 70755.6 906.256   3
  -2   4   2 72543.0 897.742   4
  -2   4   1 29584.6 581.319   4
  -2   4   0 668.035 94.2654   4
  -2   4  -1 25481.2 568.428   4
  -2   4  -2 174558. 1534.78   4
  -2   4  -3 15282.2 478.928   4
  -2   4  -4 12655.9 454.937   4
  -2   4  -5 151326. 1647.99   4
  -2   4  -6 1767.43 193.666   4
  -2   4  -7 8107.98 267.963   8
  -2   4  -7 8265.73 426.641   4
  -2   4  -8 25503.9 782.229   4
   2  -4   8 24566.9 444.565  10
  -2   4  -8 25180.0 481.374   8
  -2   4  -9 114.687 43.2624   8
  -2   4  -9 85.0105 74.0899   4
   2  -4   9 61.2465 31.9940  10
   2  -4  10 13033.9 336.716  10
  -2   4 -10 13598.9 365.416   8
   2  -4  11 10209.4 300.720  10
  -2   4 -11 10369.2 316.606   8
  -2   4 -12 21010.5 432.328   8
   2  -4  12 21663.3 432.097  10
  -2   4 -13 67231.1 709.346   8
   2  -4  13 67192.3 723.591  10
   2  -4  14 105.152 36.5658  10
   2  -4  15 3836.02 141.907  10
   2  -4  16 1174.83 65.4952  10
  -2   3  16 132.783 26.7543  11
   2  -3 -16 204.182 34.7956   7
  -2   3  15 13111.7 259.882  11
   2  -3 -15 12711.6 279.292   7
  -2   3  14 17329.2 343.573  11
   2  -3 -14 16888.6 369.150   7
   2  -3 -13 524.125 81.3637   7
  -2   3  13 505.163 72.7562  11
   2  -3 -12 22282.0 515.366   7
  -2   3  12 23345.5 458.020  11
  -2   3  11 3208.90 176.266  11
   2  -3 -10 2462.94 267.235   2
  -2   3  10 2470.86 154.573  11
   2  -3  -9 156849. 1996.04   2
  -2   3   9 151836. 1160.58  11
   2  -3  -8 3781.67 295.524   2
  -2   3   8 3776.48 179.423  11
   2  -3  -7 21142.9 650.625   2
   2  -3  -6 82707.9 1187.85   2
   2  -3  -5 32.8296 35.2774   2
   2  -3  -4 54232.7 811.815   2
   2  -3  -4 53537.6 657.365   3
  -2   3   3 20656.8 456.495   4
   2  -3  -3 21180.6 426.458   3
   2  -3  -3 20363.5 448.686   2
  -2   3   2 27171.7 510.462   4
  -2   3   1 86654.7 907.915   4
  -2   3   0 23851.6 485.272   4
  -2   3  -1 86985.3 954.535   4
  -2   3  -2 128.798 50.0589   4
  -2   3  -3 23574.0 542.791   4
  -2   3  -4 27623.7 617.554   4
  -2   3  -5 61668.1 974.224   4
  -2   3  -6 21148.5 605.235   4
  -2   3  -7 4208.54 287.196   4
  -2   3  -8 39372.8 914.271   4
  -2   3  -9 298.103 60.5141   8
  -2   3  -9 228.245 97.7524   4
   2  -3   9 223.368 47.5297  10
  -2   3 -10 47140.4 1097.10   4
  -2   3 -10 45929.4 659.923   8
   2  -3  11 667.497 83.4323  10
  -2   3 -11 676.553 86.4312   8
  -2   3 -12 100.781 44.2450   8
   2  -3  12 48.3660 41.6827  10
   2  -3  13 14301.6 351.143  10
  -2   3 -13 14219.1 345.992   8
   2  -3  14 3557.49 168.921  10
   2  -3  15 3573.27 153.162  10
   2  -3  16 440.362 51.0848  10
   2  -2 -16 108.175 31.9654   7
   2  -2 -15 5308.12 194.679   7
  -2   2  15 5293.90 162.959  11
   2  -2 -14 3152.52 173.298   7
  -2   2  14 3073.42 145.404  11
   2  -2 -13 173.875 65.3203   7
  -2   2  13 267.795 57.3414  11
  -2   2  12 13890.0 349.868  11
  -2   2  11 369.940 66.9544  11
   2  -2 -10 141.600 70.6519   2
  -2   2  10 31.3797 38.8402  11
  -2   2   9 461.170 70.3832  11
   2  -2  -9 500.371 149.023   2
   2  -2  -8 29966.3 817.304   2
   2  -2  -7 117655. 1514.44   2
   2  -2  -6 10658.1 425.255   2
   2  -2  -5 9849.49 372.607   2
   2  -2  -4 68951.8 890.794   2
   2  -2  -4 70086.5 620.994   3
   2  -2  -3 2535.23 155.317   2
  -2   2   3 2492.88 154.277   4
   2  -2  -2 81134.3 749.763   2
  -2   2   2 84504.3 841.379   4
   2  -2  -1 145719. 829.638   2
  -2   2   1 150196. 1103.64   4
   2  -2   0 31385.0 251.628   2
  -2   2   0 32165.1 508.111   4
  -2   2  -1 89599.2 870.460   4
  -2   2  -2 209491. 1400.97   4
  -2   2  -3 93716.3 976.319   4
  -2   2  -4 169550. 1402.68   4
  -2   2  -5 4269.19 239.963   4
  -2   2  -6 43507.6 803.481   4
  -2   2  -7 229.170 74.6003   4
  -2   2  -8 73.8145 54.8567   4
  -2   2  -9 18997.2 635.231   4
  -2   2 -10 6636.43 393.550   4
   2  -2  10 6756.34 236.245  10
  -2   2 -10 7060.68 254.590   8
  -2   2 -11 11113.0 316.340   7
  -2   2 -11 11565.4 543.321   4
   2  -2  11 11452.6 318.323  10
  -2   2 -11 11561.2 329.024   8
  -2   2 -12 3162.14 174.673   7
   2  -2  12 2966.38 167.927  10
  -2   2 -12 2995.67 170.185   8
  -2   2 -13 240.588 58.1851   8
  -2   2 -13 296.325 59.1306   7
   2  -2  13 225.386 53.1507  10
   2  -2  14 8417.32 269.833  10
  -2   2 -14 8753.24 268.846   7
  -2   2 -15 135.172 37.5386   7
   2  -2  15 117.993 43.5284  10
   2  -2  16 16663.8 314.724  10
   2  -1 -16 121.177 35.2222   7
   2  -1 -15 2923.98 150.820   7
  -2   1  15 2564.64 106.964  11
   2  -1 -14 14252.2 375.251   7
  -2   1  14 13322.7 286.559  11
  -2   1  13 109882. 905.848  11
  -2   1  12 5599.87 237.076   6
  -2   1  12 5368.41 212.988  11
  -2   1  11 219.121 59.2970   6
  -2   1  11 443.928 69.0412  11
   2  -1 -10 16562.4 672.961   2
  -2   1  10 16459.7 371.437  11
  -2   1  10 16737.6 403.046   6
   2  -1  -9 6351.11 398.563   2
  -2   1   9 6537.39 228.418  11
   2  -1  -8 441.392 106.158   2
   2  -1  -7 82930.5 1261.02   2
   2  -1  -6 57818.9 977.829   2
   2  -1  -5 6308.26 297.447   2
   2  -1  -4 52185.4 776.479   2
   2  -1  -3 9231.60 294.674   2
   2  -1  -3 8986.62 166.452   3
  -2   1   2 366.075 57.4255   4
   2  -1  -2 262.695 49.8608   2
  -2   1   1 28393.9 443.582   4
   2  -1  -1 27172.5 350.367   2
   2  -1   0 28236.2 246.039   2
  -2   1  -1 280284. 1385.77   4
  -2   1  -2 20034.1 383.653   4
  -2   1  -3 184550. 1237.36   4
  -2   1  -4 19244.0 240.721   2
  -2   1  -4 18423.0 422.194   4
  -2   1  -5 20413.9 318.951   2
  -2   1  -5 20243.3 474.407   4
  -2   1  -6 101141. 840.045   2
  -2   1  -6 100040. 1121.03   4
  -2   1  -7 116.962 55.3651   4
  -2   1  -7 174.974 46.9995   2
  -2   1  -8 100929. 1057.17   2
  -2   1  -8 96174.6 1265.99   4
  -2   1  -9 25951.2 589.411   2
  -2   1  -9 23100.9 658.852   4
  -2   1 -10 101735. 1461.75   4
   2  -1  10 100161. 889.527  10
   2  -1  11 39944.1 588.331  10
  -2   1 -11 40696.3 623.194   7
  -2   1 -11 38845.9 946.349   4
  -2   1 -11 39967.4 601.624   8
  -2   1 -12 23923.8 770.319   4
   2  -1  12 24523.5 474.921  10
  -2   1 -12 25795.2 511.790   7
  -2   1 -12 25075.6 484.532   8
  -2   1 -13 543.139 80.1080   7
   2  -1  13 391.343 68.1864  10
  -2   1 -13 520.155 75.5646   8
   2  -1  14 16053.1 381.988  10
  -2   1 -14 16307.8 401.050   7
  -2   1 -15 28877.4 498.457   7
   2  -1  15 28806.4 485.155  10
  -2   1 -16 40.8396 33.2428   7
   2  -1  16 12.7014 32.6528  10
  -2   1 -17 63.5393 29.4768   7
   2   0 -16 4292.35 150.003   7
   2   0 -15 45.0513 39.3734   7
   2   0 -14 77065.6 881.564   7
  -2   0  13 60.9063 38.0663  11
  -2   0  13 117.059 50.2427   6
  -2   0  12 28226.1 460.536  11
  -2   0  12 27848.6 451.789  10
  -2   0  12 27758.9 544.498   6
  -2   0  11 4922.98 232.095   6
  -2   0  11 4907.52 197.838  11
  -2   0  11 5134.45 196.137  10
  -2   0  10 16662.0 357.998  11
   2   0 -10 17359.9 692.142   2
  -2   0  10 17048.9 419.385   6
   2   0  -9 68530.8 1312.06   2
  -2   0   9 68133.9 705.621  11
  -2   0   9 68284.5 802.458   6
   2   0  -8 19812.8 662.794   2
   2   0  -7 33212.3 803.318   2
   2   0  -6 43290.9 848.179   2
   2   0  -5 58078.5 904.870   2
   2   0  -4 5010.17 243.401   2
   2   0  -3 4525.69 208.984   2
   2   0  -2 2381.43 133.418   2
   2   0  -2 3724.48 60.3825   3
   2   0  -1 84944.8 663.996   2
   2   0   0 180138. 798.569   2
  -2   0  -1 405356. 1484.15   4
  -2   0  -2 56578.3 570.358   4
  -2   0  -2 54524.8 562.827   3
  -2   0  -3 97511.7 794.419   4
  -2   0  -3 96449.4 806.857   3
  -2   0  -4 134.568 40.7606   4
  -2   0  -4 101.436 42.2544   3
  -2   0  -5 165547. 1223.42   3
  -2   0  -5 163431. 1206.72   4
  -2   0  -6 4357.50 176.185   2
  -2   0  -6 4417.35 217.793   4
  -2   0  -6 4293.13 215.177   3
  -2   0  -7 63514.0 761.467   2
  -2   0  -7 63992.7 883.127   3
  -2   0  -8 4533.62 227.293   2
  -2   0  -8 4321.54 252.003   4
  -2   0  -9 4463.89 249.304   2
  -2   0  -9 3925.81 256.472   4
  -2   0 -10 102114. 1385.51   4
  -2   0 -10 102293. 1287.13   2
  -2   0 -11 1116.15 146.654   2
  -2   0 -11 1037.87 108.085   7
  -2   0 -11 1124.38 156.619   4
   2   0  11 1207.36 103.774  10
  -2   0 -11 918.823 94.7964   8
  -2   0 -12 1085.22 112.340   7
   2   0  12 1020.17 99.8001  10
  -2   0 -12 1056.40 103.771   8
   2   0  13 768.773 92.0432  10
  -2   0 -13 1004.08 111.933   7
   2   0  14 12735.4 348.624  10
  -2   0 -14 12734.2 374.016   7
   2   0  15 855.081 92.5405  10
  -2   0 -15 819.226 97.7567   7
  -2   0 -16 58036.9 688.811   7
  -2   0 -17 6172.22 195.443   7
  -2   0 -18 5069.55 138.124   7
   2   1 -16 602.122 57.1968   7
   2   1 -15 3009.70 146.488   7
   2   1 -14 745.795 92.5817   7
  -2  -1  13 54.7217 33.9852  10
  -2  -1  13 56.2326 51.9656   6
  -2  -1  12 1465.38 108.816  10
  -2  -1  12 1651.85 142.361   6
  -2  -1  11 7515.27 291.788   6
  -2  -1  11 7307.49 237.793  10
   2   1 -10 41366.2 1086.46   2
  -2  -1  10 40454.1 658.820   6
  -2  -1  10 40807.6 549.080  10
  -2  -1   9 15208.1 386.587   6
   2   1  -9 14980.4 625.312   2
   2   1  -8 16994.2 628.688   2
   2   1  -7 1534.55 180.602   2
   2   1  -6 54743.1 977.570   2
   2   1  -5 1499.96 152.026   2
   2   1  -4 14294.0 422.825   2
   2   1  -3 6716.98 265.595   2
   2   1  -2 37052.8 557.544   2
  -2  -1   0 9076.67 217.584   4
   2   1   0 8683.54 215.221   2
  -2  -1   0 8783.18 161.613   3
  -2  -1  -1 138644. 784.517   4
   2   1   1 140224. 790.605   2
  -2  -1  -2 62149.5 518.768   4
  -2  -1  -2 63127.3 564.643   3
  -2  -1  -3 23462.6 329.276   4
  -2  -1  -3 22876.7 376.957   3
  -2  -1  -4 223689. 1115.58   4
  -2  -1  -4 227451. 1283.62   3
  -2  -1  -5 3803.32 162.949   4
  -2  -1  -5 4124.28 189.469   3
  -2  -1  -6 1556.56 117.518   4
  -2  -1  -6 1625.13 131.355   3
  -2  -1  -7 102543. 1035.04   4
  -2  -1  -7 107052. 1110.40   3
  -2  -1  -8 2614.18 183.303   4
  -2  -1  -8 2458.40 183.549   3
  -2  -1  -9 4575.53 252.390   2
  -2  -1  -9 4168.25 245.638   4
  -2  -1  -9 4559.02 263.880   3
  -2  -1 -10 35597.0 764.364   2
  -2  -1 -10 34691.3 753.117   4
  -2  -1 -10 35546.1 779.325   3
  -2  -1 -11 8047.15 395.398   2
  -2  -1 -11 8422.27 300.128   7
  -2  -1 -11 8360.74 271.678   8
   2   1  11 8679.46 271.286  10
  -2  -1 -12 21.1337 38.6340   7
   2   1  12-2.69561 38.4888  10
  -2  -1 -12 114.166 64.2403   2
  -2  -1 -13 362.466 76.4020   7
   2   1  13 480.001 75.3989  10
  -2  -1 -14 2621.22 179.492   7
   2   1  14 2584.93 161.489  10
  -2  -1 -15 9014.65 314.474   7
  -2  -1 -16 7116.96 257.673   7
  -2  -1 -17 6380.64 213.517   7
  -2  -1 -18 22850.0 331.157   7
   2   2 -15 468.894 58.9607   7
   2   2 -14 3320.75 169.015   7
  -2  -2  13 786.490 75.8429  10
  -2  -2  13 821.743 100.622   6
  -2  -2  12 33423.5 503.024  10
  -2  -2  12 34045.6 614.344   6
  -2  -2  11 138.793 60.7517   6
  -2  -2  11 35.8437 35.3145  10
   2   2 -10 112.353 90.4929   2
  -2  -2  10 225.790 48.5123  10
   2   2  -9 5611.11 394.743   2
  -2  -2   9 5934.10 250.367   6
  -2  -2   9 5886.96 207.376  10
   2   2  -8 8831.85 468.644   2
  -2  -2   8 8799.84 289.097   6
   2   2  -7 135406. 1713.37   2
   2   2  -6 16149.2 558.711   2
   2   2  -5 9412.35 396.306   2
   2   2  -4 336.268 78.2839   2
   2   2  -3 2725.60 182.806   2
  -2  -2   2 29918.7 179.308   3
   2   2  -2 30713.4 556.114   2
   2   2  -1 24318.1 455.681   2
  -2  -2   1 24994.0 255.355   3
  -2  -2   0 176645. 803.190   3
   2   2   0 176133. 1135.19   2
  -2  -2  -1 69585.6 560.800   3
   2   2   1 70099.9 680.723   2
  -2  -2  -2 15566.0 227.147   4
  -2  -2  -2 15797.9 294.087   3
  -2  -2  -3 8191.01 156.490   4
  -2  -2  -3 8446.61 234.486   3
  -2  -2  -4 24251.5 283.906   4
  -2  -2  -4 24808.8 430.798   3
  -2  -2  -5 89592.8 618.742   4
  -2  -2  -5 90692.6 890.655   3
  -2  -2  -6 66071.0 618.604   4
  -2  -2  -6 66744.2 824.774   3
  -2  -2  -7 176919. 1424.07   3
  -2  -2  -7 174323. 1152.15   4
  -2  -2  -8 19130.6 502.018   3
  -2  -2  -9 6674.44 318.359   3
  -2  -2 -10 9724.18 408.448   3
  -2  -2 -10 10128.1 415.820   2
  -2  -2 -11 21597.1 651.610   2
   2   2  11 21675.3 429.868  10
  -2  -2 -11 22246.3 497.755   7
   2   2  11 21524.6 411.003  11
  -2  -2 -11 21574.3 637.857   3
  -2  -2 -12 239810. 2312.85   2
   2   2  12 238095. 1487.17  10
  -2  -2 -12 241673. 1688.14   7
  -2  -2 -12 237346. 2210.38   3
  -2  -2 -13 4600.73 240.847   7
  -2  -2 -14 6365.33 280.193   7
  -2  -2 -15 10305.6 343.165   7
  -2  -2 -16 6655.66 256.551   7
  -2  -2 -17 1488.13 110.035   7
  -2  -2 -18 83.2256 33.2503   7
   2   3 -15 175.955 35.4679   7
   2   3 -14 2678.80 133.936   7
  -2  -3  14 2520.02 109.937  10
  -2  -3  13 5346.10 183.008  10
  -2  -3  13 5410.99 231.096   6
   2   3 -13 5320.44 225.893   7
  -2  -3  12 71499.3 725.871  10
  -2  -3  12 72635.1 886.070   6
  -2  -3  11 6968.07 285.961   6
  -2  -3  11 6416.39 226.576  10
  -2  -3  10 44395.8 711.392   6
  -2  -3  10 44420.1 597.033  10
   2   3  -9 6392.63 429.638   2
  -2  -3   9 6679.73 227.120  10
  -2  -3   9 6460.24 266.470   6
   2   3  -8 12213.1 570.579   2
  -2  -3   8 12115.7 348.523   6
  -2  -3   8 12009.8 295.497  10
   2   3  -7 4299.60 323.033   2
   2   3  -6 2261.07 223.691   2
   2   3  -5 72252.4 1157.10   2
   2   3  -4 1059.35 138.082   2
   2   3  -3 133497. 1362.03   2
  -2  -3   2 34360.3 370.363   3
   2   3  -2 35160.5 653.747   2
   2   3  -1 29724.9 563.721   2
  -2  -3   1 29362.7 372.276   3
   2   3   0 20331.0 446.010   2
  -2  -3   0 19802.4 325.133   3
  -2  -3  -1 84522.7 706.439   3
  -2  -3  -2 224922. 1229.21   3
  -2  -3  -3 29300.5 473.214   3
  -2  -3  -4 15605.5 368.276   3
  -2  -3  -5 3617.83 188.898   3
  -2  -3  -6 133660. 1217.80   3
  -2  -3  -7 152974. 1378.27   3
  -2  -3  -8 1210.81 134.616   3
  -2  -3  -9 891.919 123.246   3
  -2  -3 -10 586.284 106.847   3
  -2  -3 -11 86635.8 996.101   7
   2   3  11 87664.0 866.373  11
  -2  -3 -11 88344.8 1309.24   3
  -2  -3 -11 88575.4 1356.57   2
   2   3  12 64.0863 43.7016  11
  -2  -3 -12 164.909 82.1279   2
  -2  -3 -12 31.5119 51.7854   3
  -2  -3 -13 31905.9 636.543   7
  -2  -3 -14 334.741 74.3811   7
  -2  -3 -15 459.400 83.0711   7
  -2  -3 -16 39831.7 619.098   7
  -2  -3 -17 88.7195 43.8522   7
  -2  -3 -18 60104.1 565.118   7
   2   4 -14 691.839 58.0053   7
  -2  -4  14 819.741 58.6701  10
   2   4 -13 12021.4 281.065   7
  -2  -4  13 12977.1 331.629   6
  -2  -4  13 12517.0 263.979  10
   2   4 -12 3287.97 177.167   7
  -2  -4  12 3697.04 196.456   6
  -2  -4  12 3493.89 157.713  10
  -2  -4  11 6291.54 267.452   6
  -2  -4  11 5975.24 217.139  10
  -2  -4  10 2371.87 169.746   6
  -2  -4  10 2519.93 145.306  10
  -2  -4   9 1965.86 153.303   6
  -2  -4   9 2096.90 133.179  10
   2   4  -8 9571.96 524.148   2
  -2  -4   8 9825.60 320.793   6
   2   4  -8 9584.23 305.208   9
  -2  -4   8 9690.35 278.774  10
   2   4  -7 9946.77 511.141   2
   2   4  -7 10207.6 298.164   9
  -2  -4   7 10059.1 311.100   6
   2   4  -6 5890.84 373.465   2
   2   4  -5 4477.71 308.457   2
   2   4  -4 299255. 2351.43   2
   2   4  -3 13576.4 474.580   2
  -2  -4   2 1060.67 86.5980   3
   2   4  -2 3044.64 215.770   2
   2   4  -1 4848.93 260.533   2
  -2  -4   1 4641.81 183.492   3
  -2  -4   0 3256.22 159.410   3
   2   4   0 2730.14 187.958   2
  -2  -4  -1 51803.1 648.665   3
  -2  -4  -2 53739.2 688.189   3
  -2  -4  -3 27844.1 515.960   3
  -2  -4  -4 22156.8 477.180   3
  -2  -4  -5 141894. 1273.71   3
  -2  -4  -6 84503.9 1033.08   3
  -2  -4  -7 7255.92 320.943   3
  -2  -4  -8 10183.0 399.168   3
  -2  -4  -9 38604.0 819.043   3
  -2  -4 -10 75273.9 1193.24   3
   2   4  10 73919.5 803.603  11
  -2  -4 -11 10954.6 359.717   7
  -2  -4 -11 11524.7 487.565   3
   2   4  11 11263.5 326.204  11
  -2  -4 -12 2453.08 249.550   2
  -2  -4 -12 2390.74 176.631   7
   2   4  12 2561.25 159.534  11
  -2  -4 -12 2404.37 231.890   3
  -2  -4 -13 40143.4 712.547   7
  -2  -4 -14 15907.2 441.467   7
  -2  -4 -15 26235.9 536.623   7
  -2  -4 -16 540.962 79.4680   7
  -2  -4 -17 5667.70 202.318   7
  -2  -4 -18 234.065 38.9568   7
  -2  -5  13 93.0195 28.8657  10
  -2  -5  12 8712.94 276.181   6
  -2  -5  12 8525.48 229.880  10
  -2  -5  11 1533.06 130.518   6
  -2  -5  11 1441.57 106.262  10
  -2  -5  10 16935.8 428.365   6
  -2  -5  10 16735.6 365.577  10
  -2  -5   9 3280.95 169.042  10
  -2  -5   9 3425.57 198.903   6
  -2  -5   8 18244.1 441.585   6
  -2  -5   8 18432.6 398.644  10
   2   5  -8 18054.5 425.536   9
   2   5  -7 22991.4 807.435   2
   2   5  -7 23345.2 463.883   9
  -2  -5   7 23325.9 487.424   6
   2   5  -6 5359.88 213.738   9
  -2  -5   6 5163.34 219.337   6
   2   5  -6 5349.55 376.423   2
   2   5  -5 6948.57 412.174   2
   2   5  -4 1012.79 154.549   2
   2   5  -3 56890.8 1060.89   2
  -2  -5   2 44354.9 667.952   3
   2   5  -2 47240.7 927.304   2
  -2  -5   1 32875.2 582.495   3
   2   5  -1 33666.2 744.277   2
  -2  -5   0 73577.7 886.713   3
  -2  -5  -1 2078.68 154.745   3
  -2  -5  -2 2579.15 175.502   3
  -2  -5  -3 46500.1 751.532   3
  -2  -5  -4 8044.02 323.066   3
  -2  -5  -5 1070.23 125.432   3
  -2  -5  -6 26248.2 624.574   3
  -2  -5  -7 72760.8 1084.50   3
  -2  -5  -8 21963.7 626.355   3
  -2  -5  -9 15139.8 539.969   3
  -2  -5 -10 6629.24 264.400   7
   2   5  10 6649.66 252.062  11
  -2  -5 -10 7410.75 394.009   3
  -2  -5 -11 121.148 49.1940   7
   2   5  11 44.0959 44.5746  11
  -2  -5 -11 17.2753 33.1802   3
  -2  -5 -12 7453.65 300.431   7
   2   5  12 7856.18 284.462  11
  -2  -5 -13 19287.9 477.314   7
  -2  -5 -14 291.692 64.0914   7
  -2  -5 -15 14436.2 379.721   7
  -2  -5 -16 3727.99 177.103   7
  -2  -5 -17 4146.26 158.666   7
   2   5  18 44799.8 400.244   9
  -2  -6  13 2304.80 87.1078  10
  -2  -6  12 15830.7 279.307  10
  -2  -6  11 24.9052 33.4340  10
  -2  -6  11 86.5727 42.5380   6
  -2  -6  10 7744.84 240.680  10
  -2  -6  10 7645.96 272.589   6
  -2  -6   9 7046.72 268.638   6
  -2  -6   9 7157.52 244.325  10
  -2  -6   8 8279.25 272.295  10
  -2  -6   8 8785.77 304.440   6
   2   6  -8 8281.56 290.682   9
  -2  -6   7 39343.6 635.011   6
   2   6  -7 39787.9 617.814   9
   2   6  -6 11642.0 581.954   2
  -2  -6   6 11740.1 337.273   6
   2   6  -6 11450.1 325.514   9
  -2  -6   5 146.824 52.5720   6
   2   6  -5 100.978 65.8693   2
   2   6  -5 8.51529 34.5685   9
   2   6  -4 42229.6 587.031   9
   2   6  -4 40675.3 1014.07   2
   2   6  -3 1304.18 179.759   2
  -2  -6   2 10442.2 383.358   3
  -2  -6   1 33446.1 690.447   3
  -2  -6   0 63422.2 958.612   3
  -2  -6  -1 35972.3 725.338   3
  -2  -6  -2 723.785 107.181   3
  -2  -6  -3 84.0714 52.7904   3
  -2  -6  -4 14567.0 486.079   3
  -2  -6  -5 91925.9 1240.32   3
  -2  -6  -6 46023.6 907.407   3
  -2  -6  -7 63404.7 1095.08   3
  -2  -6  -8 171225. 1858.13   3
  -2  -6  -9 40.0465 45.0553   3
   2   6   9 19.0093 35.8869  11
   2   6  10 20103.1 443.596  11
  -2  -6 -10 21106.8 693.512   3
  -2  -6 -11 48216.0 705.443   7
  -2  -6 -12 1383.56 126.678   7
  -2  -6 -13 85204.4 941.890   7
  -2  -6 -14 14346.7 373.277   7
  -2  -6 -15 21500.9 423.662   7
  -2  -6 -16 25711.2 403.185   7
   2   6  16 26071.4 411.141   9
  -2  -6 -17 994.129 66.0604   7
   2   6  17 1038.49 72.4659   9
  -2  -7  12 160.155 29.3222  10
  -2  -7  11 3502.92 134.245  10
  -2  -7  10 3770.32 167.434   6
  -2  -7  10 3964.77 160.475  10
  -2  -7   9 23393.1 442.295   6
  -2  -7   9 23778.5 422.952  10
  -2  -7   8 83468.9 873.688   6
   2   7  -8 84294.3 901.727   9
  -2  -7   8 83838.2 844.006  10
   2   7  -7 31642.0 556.503   9
  -2  -7   7 31361.6 542.271   6
   2   7  -6 17465.5 407.489   9
   2   7  -5 1344.28 116.258   9
   2   7  -4 42561.3 619.717   9
   2   7  -3 4756.48 205.674   9
   2   7  -2 11277.9 302.336   9
  -2  -7   1 44320.8 901.930   3
   2   7  -1 43148.3 575.586   9
  -2  -7   0 2673.56 225.829   3
  -2  -7  -1 556.452 108.896   3
  -2  -7  -2 11982.6 480.404   3
  -2  -7  -3 63055.8 1110.92   3
  -2  -7  -4 46.2443 46.9968   3
  -2  -7  -5 749.163 131.182   3
   2   7   5 682.962 73.6305   9
   2   7   6 12976.2 312.540   9
  -2  -7  -6 13378.3 537.067   3
  -2  -7  -7 7995.98 423.532   3
   2   7   7 7912.39 252.431   9
  -2  -7  -8 28749.8 821.146   3
   2   7   8 28395.6 489.044   9
   2   7   9 88588.4 888.057   9
  -2  -7  -9 86334.7 1450.97   3
   2   7  10 23093.6 466.530   9
   2   7  11 1511.70 125.190   9
   2   7  12 281.276 62.6992   9
   2   7  13 14875.7 367.957   9
   2   7  14 10064.6 287.508   9
   2   7  15 22083.0 390.174   9
   2   7  16 6182.89 183.591   9
   2   7  17 2675.09 97.5649   9
  -2  -8  11 9382.07 175.750  10
  -2  -8  10 3401.30 129.664  10
  -2  -8   9 3935.81 156.437  10
   2   8  -8 424.013 69.6542   9
  -2  -8   8 447.246 65.2460  10
   2   8  -7 172.726 52.3301   9
   2   8  -6 301.544 65.3190   9
   2   8  -5 3197.41 177.439   9
   2   8  -4 26316.5 462.245   8
   2   8  -4 26148.2 498.052   9
   2   8  -3 38020.7 574.899   8
   2   8  -3 37845.9 596.752   9
   2   8  -2 36862.8 579.649   9
   2   8  -1 1210.83 106.146   9
   2   8   0 193.473 49.5126   9
  -2  -8   0 139.808 73.8764   3
  -2  -8  -1 3651.57 297.094   3
   2   8   1 3598.13 174.844   9
  -2  -8  -2 2570.45 250.513   3
   2   8   2 2584.56 146.239   9
  -2  -8  -3 90675.0 1480.13   3
   2   8   3 92398.4 857.515   9
   2   8   4 141185. 1052.65   9
  -2  -8  -4 143048. 1865.25   3
   2   8   5 29893.4 487.745   9
  -2  -8  -5 30739.4 872.123   3
  -2  -8  -6 133.072 81.0684   3
   2   8   6 257.794 56.1692   9
  -2  -8  -7 19406.0 706.017   3
   2   8   7 19790.8 410.008   9
   2   8   8 30523.5 519.609   9
   2   8   9 28200.1 506.949   9
   2   8  10 1323.94 113.835   9
   2   8  11 7604.14 264.585   9
   2   8  12 911.445 93.8878   9
   2   8  13 31880.9 501.772   9
   2   8  14 1930.50 117.680   9
   2   8  15 13047.0 266.761   9
   2   8  16 4437.97 130.595   9
  -2  -9   9 14220.8 245.616  10
  -2  -9   8 290.325 46.6089  10
   2   9  -7 3087.85 154.983   9
  -2  -9   7 3093.81 148.155  10
   2   9  -6 6214.40 227.863   9
   2   9  -5 454.929 70.0332   9
   2   9  -4 38706.6 546.548   8
   2   9  -4 37766.8 582.645   9
   2   9  -3 27137.1 483.623   8
   2   9  -3 26949.6 498.554   9
   2   9  -2 25747.2 485.133   8
   2   9  -2 25711.1 493.648   9
   2   9  -1 52492.0 698.276   9
   2   9   0 18533.3 409.330   9
   2   9   1 1926.46 135.562   9
   2   9   2 436.689 70.0424   9
   2   9   3 11987.6 326.108   9
   2   9   4 1374.52 113.870   9
   2   9   5 18730.5 402.671   9
   2   9   6 20453.6 419.887   9
   2   9   7 22436.5 442.510   9
   2   9   8 4706.65 204.792   9
   2   9   9 91.2930 42.4623   9
   2   9  10 8509.94 269.000   9
   2   9  11 128210. 1011.54   9
   2   9  12 18897.2 371.134   9
   2   9  13 101.677 35.6865   9
   2   9  14 7360.32 194.570   9
   2   9  15 876.028 61.1902   5
   2   9  15 895.868 59.6393   9
  -2 -10   8 1869.23 81.5862  10
  -2 -10   7 17486.4 287.537  10
   2  10  -6 24390.5 388.955   9
   2  10  -5 4581.50 179.572   9
   2  10  -4 15140.0 312.917   8
   2  10  -4 15616.5 342.023   9
   2  10  -3 9784.02 271.192   8
   2  10  -3 8866.62 267.868   9
   2  10  -2 2336.28 143.108   8
   2  10  -2 2380.64 145.095   9
   2  10  -1 471.010 76.3128   8
   2  10  -1 453.574 72.0459   9
   2  10   0 17797.4 397.394   9
   2  10   1 466.883 71.0128   9
   2  10   2 8131.77 268.964   9
   2  10   3 7262.74 254.486   9
   2  10   4 778.025 88.1358   9
   2  10   5 21338.8 429.075   9
   2  10   6 14796.7 355.076   9
   2  10   7 5166.14 209.051   9
   2  10   8 12186.9 313.276   9
   2  10   9 4829.14 193.383   9
   2  10  10 945.298 86.6541   9
   2  10  11 415.623 57.2871   9
   2  10  12 2258.89 113.567   9
   2  10  13 17609.1 277.529   9
   2  10  14 691.124 55.4140   5
  -2 -11   6 4920.75 130.898  10
   2  11  -5 9934.43 211.755   9
   2  11  -4 6248.88 182.434   9
   2  11  -3 259.909 44.2588   8
   2  11  -3 208.167 44.3496   9
   2  11  -2 77.7939 34.9309   8
   2  11  -2 163.281 44.1064   9
   2  11  -1 21256.3 390.560   8
   2  11  -1 20666.3 377.789   9
   2  11   0 19892.6 396.610   8
   2  11   0 19518.7 377.546   9
   2  11   1 12.3284 37.5396   8
   2  11   1 102.548 43.6441   9
   2  11   2 43682.5 575.364   9
   2  11   3 181.994 49.2800   9
   2  11   4 6543.43 221.752   9
   2  11   5 8040.00 244.761   9
   2  11   6 12915.7 294.741   5
   2  11   6 13191.8 309.027   9
   2  11   7 47647.1 576.496   5
   2  11   7 47147.5 568.433   9
   2  11   8 1928.52 114.580   9
   2  11   9 3714.49 150.728   9
   2  11  10 52104.6 564.781   5
   2  11  10 50996.3 513.224   9
   2  11  11 11727.1 250.950   5
   2  11  11 11541.5 223.677   9
   2  11  12 58.7326 24.2148   5
   2  11  12 44.8463 20.0122   9
   2  12  -2 241.107 34.9038   8
   2  12  -2 244.560 35.3028   9
   2  12  -1 8610.52 199.808   8
   2  12  -1 8729.82 191.976   9
   2  12   0 10654.5 238.256   8
   2  12   0 10268.1 219.049   9
   2  12   1 435.273 57.0314   8
   2  12   1 386.083 49.9036   9
   2  12   2 2597.26 130.247   8
   2  12   2 2321.88 113.035   9
   2  12   3 414.231 59.9175   8
   2  12   3 447.845 55.3632   9
   2  12   4 1166.14 91.1322   8
   2  12   4 1016.67 78.1209   9
   2  12   5 612.478 60.6434   9
   2  12   6 25198.2 347.767   9
   2  12   7 3568.48 126.856   9
   2  12   8 15350.4 243.917   9
   2  12   8 14869.7 241.103   5
   2  12   9 2125.39 90.1664   8
   2  12   9 2344.70 87.8736   9
   2  13   3 2660.65 96.7553   8
   2  13   4 2499.96 93.8843   8
  -3  10   7 7951.69 188.312   5
  -3  10   6 28377.3 383.976   5
  -3  10   5 10141.7 243.069   5
  -3  10   4 381.310 57.4973   5
  -3  10   3 1933.66 114.315   5
  -3  10   2 38953.6 491.692   5
  -3  10   1 50936.4 547.611   5
  -3  10   0 2536.28 110.109   8
  -3  10   0 2758.88 124.253   5
  -3  10  -1 4953.32 158.320   8
  -3  10  -2 4460.66 152.270   8
  -3  10  -3 41032.8 453.821   8
  -3  10  -4 8181.24 198.947   8
  -3  10  -5 15342.0 258.117   8
  -3  10  -6 6662.42 157.920   8
  -3   9   9 19967.3 303.721   5
  -3   9   8 21780.0 358.141   5
  -3   9   7 9370.64 256.761   5
  -3   9   6 963.756 92.9896   5
  -3   9   5 1933.77 132.168   5
  -3   9   4 6806.23 245.345   5
  -3   9   3 5545.53 223.931   5
  -3   9   2 831.930 94.0158   5
  -3   9   1 20335.3 423.345   5
  -3   9   0 819.743 80.3219   8
  -3   9   0 793.501 88.1154   5
  -3   9  -1 5520.86 203.442   8
  -3   9  -1 5942.87 214.849   5
  -3   9  -2 18357.7 372.789   8
  -3   9  -3 27472.0 455.021   8
  -3   9  -4 180.224 47.1187   8
  -3   9  -5 25.3667 33.4137   8
  -3   9  -6 41837.8 518.937   8
  -3   9  -7 30961.2 418.314   8
  -3   9  -8 42123.8 445.086   8
  -3   9  -9 2940.05 102.926   8
  -3   8  10 924.016 73.0862   5
  -3   8   9 1741.95 111.338   5
  -3   8   8 2248.02 137.781   5
  -3   8   7 3532.53 181.715   5
  -3   8   6 24709.5 491.243   5
  -3   8   5 2748.20 172.892   5
  -3   8   4 1246.90 123.145   5
  -3   8   4 1371.98 118.890   1
  -3   8   3 63468.8 775.219   1
  -3   8   3 64355.6 822.988   5
  -3   8   2 48.4519 45.9326   5
  -3   8   2 231.650 57.3081   1
  -3   8   1 21.1861 46.0149   5
  -3   8   1 44.4852 39.7666   1
  -3   8   0 2317.59 143.255   8
  -3   8   0 2471.51 149.521   1
  -3   8   0 2358.37 159.811   5
  -3   8  -1 8416.45 273.869   8
  -3   8  -1 8155.68 262.861   1
  -3   8  -1 8179.46 284.070   5
  -3   8  -2 35355.5 570.418   8
  -3   8  -2 36286.8 574.908   5
  -3   8  -3 239.962 58.1639   5
  -3   8  -3 84.1616 45.6360   8
  -3   8  -4 7695.19 267.784   8
  -3   8  -5 14333.9 360.289   8
  -3   8  -6 3773.21 183.939   8
  -3   8  -7 38.8779 37.6157   8
  -3   8  -8 288.613 54.2482   8
  -3   8  -9 5584.68 187.290   8
  -3   8 -10 6390.61 176.877   8
  -3   7  12 2121.10 87.5527  11
  -3   7  11 144.092 33.9281  11
  -3   7  10 23.9160 32.5036   5
  -3   7  10 13.4647 26.4206  11
  -3   7   9 610.768 66.0315  11
  -3   7   9 607.806 75.8819   5
  -3   7   8 956.310 85.1446  11
  -3   7   8 1047.91 104.500   5
  -3   7   7 2949.90 180.214   5
  -3   7   6 104.678 47.8639   5
  -3   7   5 6107.93 263.389   5
  -3   7   5 6209.57 256.762   1
  -3   7   4 5373.03 239.075   1
  -3   7   4 5468.21 250.360   5
  -3   7   3 4220.81 220.727   5
  -3   7   3 4355.49 214.172   1
  -3   7   2 35585.0 600.068   1
  -3   7   2 34927.3 617.320   5
  -3   7   1 89759.8 938.059   1
  -3   7   1 88916.4 979.072   5
  -3   7   0 41758.4 609.955   8
  -3   7   0 41833.6 662.183   5
  -3   7   0 41055.4 631.744   1
  -3   7  -1 41731.3 625.746   8
  -3   7  -1 41897.2 625.849   1
  -3   7  -2 163612. 1259.45   8
  -3   7  -2 165728. 1221.28   1
  -3   7  -2 162862. 1271.99   5
  -3   7  -3 4592.53 215.824   8
  -3   7  -3 4618.91 203.888   1
  -3   7  -3 4601.13 212.208   5
  -3   7  -4 57479.7 767.640   8
  -3   7  -5 3941.18 202.814   8
  -3   7  -6 4030.78 202.886   8
  -3   7  -7 14354.4 373.605   8
  -3   7  -8 17594.2 402.165   8
  -3   7  -9 28766.0 487.244   8
  -3   7 -10 44728.9 564.611   8
  -3   7 -11 14526.9 288.523   8
  -3   7 -12 659.409 55.2449   8
  -3   6  13 194.304 36.0272  11
  -3   6  12 5643.50 175.310  11
  -3   6  11 11892.4 278.893  11
  -3   6  10 2564.75 141.252  11
  -3   6  10 2536.95 141.336   5
  -3   6   9 853.851 89.9172  11
  -3   6   9 887.936 96.5662   5
  -3   6   8 37718.7 561.795  11
  -3   6   8 37749.6 625.922   5
  -3   6   7 40351.5 582.125  11
  -3   6   7 39345.6 662.152   5
  -3   6   6 74834.1 782.677  11
  -3   6   6 73486.1 883.969   1
  -3   6   6 72554.9 908.547   5
  -3   6   5 135.355 57.2397   5
  -3   6   5 156.088 54.4346   1
  -3   6   4 13003.6 365.935   1
  -3   6   4 12931.8 382.535   5
  -3   6   3 105.054 45.9065   5
  -3   6   3 31.6567 33.8217   1
  -3   6   2 7414.82 376.739   4
  -3   6   2 7571.73 273.108   1
   3  -6  -2 8337.64 420.516   3
  -3   6   2 7843.57 290.474   5
  -3   6   1 170.443 52.1842   5
  -3   6   1 455.891 70.6530   1
  -3   6   1 276.098 81.9635   4
   3  -6  -1 347.304 90.1804   3
  -3   6   0 345.621 57.3226   8
  -3   6   0 245.297 78.3606   4
  -3   6   0 272.121 57.5896   1
  -3   6  -1 18562.7 410.435   8
  -3   6  -1 18395.3 622.407   4
  -3   6  -1 18330.3 412.297   1
  -3   6  -1 19508.9 440.787   5
  -3   6  -2 3819.91 190.868   8
  -3   6  -2 3787.79 292.125   4
  -3   6  -2 4149.84 196.531   1
  -3   6  -2 4047.80 199.735   5
  -3   6  -3 9433.09 303.704   8
  -3   6  -3 8845.82 282.890   1
  -3   6  -3 9070.32 461.898   4
  -3   6  -3 9078.99 293.594   5
  -3   6  -4 4754.27 221.264   8
  -3   6  -4 5049.39 356.606   4
  -3   6  -4 4976.04 215.792   5
  -3   6  -4 4873.71 211.398   1
  -3   6  -5 1218.58 118.321   8
  -3   6  -5 1257.52 109.004   1
  -3   6  -6 16395.6 416.151   8
  -3   6  -6 17036.2 384.866   1
  -3   6  -7 6359.41 261.081   8
  -3   6  -8 1649.03 135.760   8
  -3   6  -9 42854.4 646.460   8
  -3   6 -10 2616.02 156.116   8
  -3   6 -11 32097.3 496.288   8
  -3   6 -12 40066.6 495.733   8
  -3   6 -13 550.464 54.4867   8
  -3   5  14 9195.82 185.231  11
  -3   5  13 49.8312 32.5817  11
  -3   5  12 5166.94 187.634  11
  -3   5  11 29026.0 477.114  11
  -3   5  10 1745.07 127.780  11
  -3   5   9 16772.5 391.305  11
  -3   5   9 17228.0 404.028   5
  -3   5   8 11372.3 326.771  11
  -3   5   8 11585.1 349.767   5
  -3   5   7 4141.55 197.379  11
  -3   5   7 4217.23 218.332   5
  -3   5   6 5809.84 229.042  11
  -3   5   6 5898.73 247.925   1
  -3   5   6 5752.51 254.789   5
  -3   5   5 53092.7 665.522  11
  -3   5   5 53244.8 724.522   1
  -3   5   5 51883.0 751.038   5
  -3   5   4 4180.13 202.459   1
  -3   5   4 4561.75 190.340  11
  -3   5   4 4442.25 218.859   5
  -3   5   3 34880.0 783.699   4
  -3   5   3 36126.1 578.055   1
  -3   5   3 35682.4 602.831   5
  -3   5   2 1080.19 142.958   4
  -3   5   2 1050.35 99.8256   1
   3  -5  -2 1132.01 141.944   3
  -3   5   2 1101.57 107.958   5
  -3   5   1 17287.9 553.340   4
  -3   5   1 18151.6 414.170   5
  -3   5   1 18211.0 394.851   1
  -3   5   0 219611. 2002.59   4
  -3   5   0 223959. 1432.51   5
  -3   5  -1 34992.7 817.896   4
  -3   5  -2 8821.33 423.417   4
  -3   5  -2 9052.96 284.635   5
  -3   5  -3 10289.8 472.763   4
  -3   5  -3 10302.3 301.514   5
  -3   5  -3 10235.3 296.751   1
  -3   5  -4 131.658 45.8975   5
  -3   5  -4 147.284 46.6043   8
  -3   5  -4 101.049 34.9979   1
  -3   5  -5 63417.6 786.951   8
  -3   5  -5 62145.5 1215.60   4
  -3   5  -5 60867.8 738.363   1
  -3   5  -6 80552.6 904.639   8
  -3   5  -6 81222.6 1426.90   4
  -3   5  -6 80722.5 853.901   1
  -3   5  -7 3481.79 192.392   8
  -3   5  -7 3164.86 296.373   4
  -3   5  -8 321.103 68.2678   8
  -3   5  -8 208.227 52.7521   1
  -3   5  -9 1730.47 126.609   1
  -3   5  -9 1785.82 140.301   8
   3  -5  10 1460.97 105.873  10
  -3   5 -10 1473.33 125.034   8
   3  -5  11 2445.62 131.197  10
  -3   5 -11 2551.01 157.174   8
   3  -5  12 15398.5 304.466  10
  -3   5 -12 15975.5 356.183   8
   3  -5  13 205.936 37.3702  10
  -3   5 -13 280.314 50.0726   8
   3  -5  14 43047.0 380.900  10
  -3   5 -14 41755.5 427.826   8
  -3   4  14 332.366 44.7818  11
  -3   4  13 14009.5 293.221  11
  -3   4  12 17739.1 365.617  11
  -3   4  11 1309.15 112.133  11
  -3   4  10 23460.4 465.232  11
  -3   4   9 1748.66 135.482  11
  -3   4   8 67749.2 805.517  11
  -3   4   7 62.9578 46.0289   5
  -3   4   7 51.5344 37.6154  11
  -3   4   7 125.391 51.0818   1
  -3   4   6 1195.39 112.261   1
  -3   4   6 1117.18 111.009   5
  -3   4   5 20533.3 429.516   1
  -3   4   5 20135.2 405.307  11
  -3   4   5 19639.0 443.753   5
  -3   4   3 80672.5 1137.91   4
  -3   4   2 11991.1 434.841   4
  -3   4   1 28511.9 665.112   4
  -3   4   0 3200.87 226.589   4
  -3   4  -1 1395.98 157.648   4
  -3   4  -2 18883.2 576.172   4
  -3   4  -3 23839.9 675.321   4
  -3   4  -4 16162.2 567.956   4
  -3   4  -5 94626.5 1418.86   4
  -3   4  -6 38681.8 602.397   8
  -3   4  -6 37507.1 925.338   4
  -3   4  -6 36998.0 567.029   1
  -3   4  -7 67.7375 42.8437   8
  -3   4  -7 127.965 79.7537   4
  -3   4  -7 123.760 44.6971   1
  -3   4  -8 133730. 1880.86   4
  -3   4  -8 130704. 1104.29   1
  -3   4  -8 132144. 1168.50   8
  -3   4  -9 55663.4 720.241   1
  -3   4  -9 54590.3 762.146   8
   3  -4  10 29640.3 484.791  10
  -3   4 -10 29460.2 560.985   8
  -3   4 -10 29929.7 526.380   1
   3  -4  11 2483.49 141.329  10
  -3   4 -11 2579.53 152.044   1
  -3   4 -11 2619.28 165.664   8
  -3   4 -12 80.0942 43.5284   8
  -3   4 -12 80.7666 39.0338   1
   3  -4  12 199.610 47.4422  10
   3  -4  13 83800.4 732.007  10
  -3   4 -13 85248.1 815.507   8
  -3   4 -14 57.8490 31.7433   8
   3  -4  14 70.9638 29.4669  10
   3  -4  15 23077.5 288.093  10
  -3   3  15 515.517 43.0447  11
   3  -3 -14 5294.66 164.933   7
  -3   3  14 5479.51 165.255  11
   3  -3 -13 1189.36 96.4393   7
  -3   3  13 1223.60 95.2193  11
   3  -3 -12 16290.5 397.176   7
  -3   3  12 16751.3 364.465  11
  -3   3  11 57953.8 714.504  11
  -3   3  10 7358.80 264.368  11
  -3   3   9 37943.7 600.947  11
  -3   3   8 8256.25 278.595  11
  -3   3   7 242.803 54.8301   1
  -3   3   7 252.902 56.7739  11
  -3   3   6 4410.97 198.320   1
  -3   3   6 4172.28 188.138  11
  -3   3   3 1742.64 160.342   4
  -3   3   2 141080. 1399.07   4
  -3   3   1 11644.0 398.836   4
  -3   3   0 1132.62 128.770   4
  -3   3  -1 114668. 1274.76   4
  -3   3  -2 26935.1 637.116   4
  -3   3  -3 104630. 1298.67   4
  -3   3  -4 606.215 110.143   4
  -3   3  -5 4652.21 297.836   4
  -3   3  -6 1128.64 159.358   4
  -3   3  -7 12166.8 333.660   8
  -3   3  -7 12121.0 524.888   4
  -3   3  -8 3541.74 297.573   4
  -3   3  -8 3678.93 191.798   8
  -3   3  -9 868.067 162.597   4
  -3   3  -9 1070.57 109.416   8
   3  -3  10 3986.95 181.730  10
  -3   3 -10 3732.09 327.104   4
  -3   3 -10 3718.48 200.868   8
   3  -3  11 666.645 80.8175  10
  -3   3 -11 543.703 83.2262   8
   3  -3  12 40110.7 573.827  10
  -3   3 -12 41163.0 637.887   8
  -3   3 -13 9525.16 280.576   1
   3  -3  13 9566.88 270.732  10
  -3   3 -13 9815.22 297.645   8
  -3   3 -14 3439.86 153.630   1
   3  -3  14 3281.93 149.515  10
  -3   3 -14 3352.85 161.201   8
   3  -3  15 12078.8 249.687  10
   3  -2 -15 2486.25 103.370   7
  -3   2  15 2249.90 82.5812  11
  -3   2  14 301.495 45.2113  11
   3  -2 -14 299.944 52.0424   7
   3  -2 -13 3218.80 174.234   7
  -3   2  13 3173.42 147.398  11
  -3   2  12 34270.3 521.881  11
  -3   2  11 8864.41 280.050  11
  -3   2  10 14420.2 367.588  11
  -3   2   9 258.762 59.7443  11
  -3   2   8 760.905 89.0426  11
   3  -2  -8 792.210 153.815   2
   3  -2  -7 19196.4 664.406   2
  -3   2   7 18290.1 394.833  11
   3  -2  -6 17630.8 596.936   2
   3  -2  -5 38760.6 809.392   2
   3  -2  -4 64092.7 933.646   2
  -3   2   2 1145.63 123.554   4
  -3   2   1 26.7420 30.7676   4
  -3   2   0 1007.72 112.624   4
  -3   2  -1 33984.0 640.108   4
  -3   2  -2 3859.48 225.359   4
  -3   2  -3 9614.24 362.414   4
  -3   2  -4 7815.07 339.748   4
  -3   2  -5 268.459 78.5024   4
  -3   2  -6 39212.5 844.218   4
  -3   2  -7 159285. 1773.92   4
  -3   2  -8 22838.0 704.900   4
  -3   2  -9 7329.23 419.863   4
  -3   2  -9 7453.49 270.866   8
  -3   2 -10 50717.1 1136.51   4
   3  -2  10 49761.3 632.956  10
  -3   2 -10 51044.1 719.750   8
   3  -2  11 206652. 1330.03  10
  -3   2 -11 208892. 1469.21   8
   3  -2  12 20154.2 418.247  10
  -3   2 -12 20096.5 453.980   8
   3  -2  13 7024.86 243.539  10
  -3   2 -13 7005.44 264.023   8
   3  -2  14 24684.4 433.293  10
  -3   2 -14 24621.8 458.267   8
   3  -2  15 3706.75 155.630  10
  -3   2 -16 27606.9 354.533   1
   3  -1 -15 3183.22 126.488   7
   3  -1 -14 328.725 61.1236   7
  -3   1  14 299.940 43.9903  11
  -3   1  13 406.787 58.0821  11
  -3   1  12 6257.50 220.233  11
  -3   1  11 2217.10 140.054  11
  -3   1  10 8421.09 276.377  11
   3  -1  -9 28824.3 913.110   2
  -3   1   9 27267.6 493.587  11
   3  -1  -8 107534. 1677.04   2
  -3   1   8 101523. 927.981  11
  -3   1   7 222.598 49.4210  11
   3  -1  -7 170.408 70.4625   2
   3  -1  -6 39976.3 902.833   2
   3  -1  -5 16111.1 530.594   2
   3  -1  -4 375.782 78.1052   2
   3  -1  -3 49501.4 744.563   2
  -3   1   2 9748.40 335.214   4
   3  -1  -2 9880.98 286.348   2
  -3   1   1 15759.7 411.515   4
   3  -1  -1 16220.5 301.339   2
  -3   1   0 1407.72 122.943   4
  -3   1  -1 14817.5 391.552   4
  -3   1  -2 24457.4 509.705   4
  -3   1  -3 64868.9 866.673   4
  -3   1  -4 48094.6 768.083   4
  -3   1  -5 5142.43 266.802   4
  -3   1  -6 49415.5 879.755   4
  -3   1  -7 12209.5 461.641   4
  -3   1  -8 204379. 1978.54   4
  -3   1  -9 24123.0 715.410   4
  -3   1 -10 10010.1 483.574   4
   3  -1  10 9094.71 269.796  10
  -3   1 -10 9754.65 296.456   7
  -3   1 -10 9079.94 300.481   8
   3  -1  11 92208.6 890.700  10
  -3   1 -11 95575.7 951.888   7
  -3   1 -11 91645.1 1504.19   4
  -3   1 -11 93855.0 975.328   8
  -3   1 -12 1711.27 133.025   7
   3  -1  12 1580.44 122.531  10
  -3   1 -12 1558.75 131.467   8
  -3   1 -13 194.915 61.9587   8
  -3   1 -13 203.712 51.0535   7
   3  -1  13 204.087 52.2133  10
  -3   1 -14 14330.1 354.589   7
   3  -1  14 13995.9 342.109  10
  -3   1 -15 19146.2 380.723   7
   3  -1  15 18699.1 370.106  10
  -3   1 -16 35640.9 449.641   7
  -3   1 -17 1974.40 91.3118   1
   3   0 -15 697.638 66.0126   7
   3   0 -14 147717. 1070.42   7
  -3   0  13 133.948 37.9153  11
  -3   0  12 12112.8 291.703  11
  -3   0  12 12556.6 338.644   6
  -3   0  11 3101.33 158.791  11
  -3   0  11 3199.86 183.275   6
  -3   0  10 1190.58 115.193   6
  -3   0  10 1162.24 102.969  11
  -3   0   9 1573.73 130.138   6
  -3   0   9 1594.88 119.750  11
   3   0  -9 1360.35 212.117   2
  -3   0   8 2753.94 151.383  11
   3   0  -8 3147.67 297.112   2
  -3   0   8 2884.36 164.254   6
   3   0  -7 31566.3 875.222   2
   3   0  -6 3560.37 277.082   2
   3   0  -5 6788.11 352.350   2
   3   0  -4 10052.7 390.906   2
   3   0  -3 3483.84 208.725   2
   3   0  -2 66412.0 792.802   2
  -3   0   1 176.276 50.7942   4
   3   0  -1 185.721 43.8237   2
  -3   0   0 7710.91 266.263   4
   3   0   0 8118.55 205.721   2
  -3   0  -1 1468.83 117.448   4
  -3   0  -2 38371.7 583.421   4
  -3   0  -3 57862.6 738.612   4
  -3   0  -4 8252.83 292.385   4
  -3   0  -5 13518.6 391.109   4
  -3   0  -6 34291.8 665.153   4
  -3   0  -7 27227.8 634.081   4
  -3   0  -8 3341.24 237.852   4
  -3   0  -9 81924.8 1236.03   4
  -3   0 -10 6545.33 369.399   4
  -3   0 -10 6741.97 256.980   7
  -3   0 -10 7378.00 266.099   8
  -3   0 -11 11531.4 348.461   7
   3   0  11 11132.2 309.447  10
  -3   0 -11 11384.2 342.902   8
  -3   0 -12 9746.24 328.296   7
   3   0  12 9261.57 292.240  10
  -3   0 -12 9219.79 313.916   8
  -3   0 -13 25024.7 518.458   7
   3   0  13 24627.1 476.513  10
  -3   0 -13 24159.3 501.525   8
  -3   0 -14 54031.9 741.347   7
   3   0  14 53101.6 690.151  10
  -3   0 -15 328.747 63.4379   7
  -3   0 -16 51416.7 615.531   7
  -3   0 -17 3204.45 131.799   7
   3   1 -15 4139.17 140.961   7
   3   1 -14 5709.05 207.893   7
  -3  -1  13 1965.04 130.903   6
  -3  -1  12 26105.2 499.880   6
  -3  -1  11 2774.72 175.787   6
  -3  -1  10 6127.24 259.213   6
  -3  -1  10 6054.27 216.056  11
  -3  -1   9 23758.9 429.694  11
  -3  -1   9 23501.2 495.441   6
  -3  -1   8 13051.5 357.907   6
   3   1  -8 13743.7 629.936   2
  -3  -1   8 13224.2 317.683  11
   3   1  -7 56411.3 1199.58   2
   3   1  -6 22114.8 708.661   2
   3   1  -5 6276.62 350.397   2
   3   1  -4 48244.0 886.607   2
   3   1  -3 76021.0 1018.52   2
   3   1  -2 78.2738 43.7922   2
   3   1  -1 143655. 1138.80   2
  -3  -1   0 1967.91 130.311   4
   3   1   0 1878.50 120.494   2
  -3  -1  -1 1556.82 113.130   4
  -3  -1  -1 1537.16 98.8898   3
  -3  -1  -2 2077.02 126.251   4
  -3  -1  -2 2601.98 138.373   3
  -3  -1  -3 13032.3 313.097   4
  -3  -1  -3 12078.3 317.204   3
  -3  -1  -4 2117.39 144.661   3
  -3  -1  -4 2240.28 137.028   4
  -3  -1  -5 99.3403 40.6724   4
  -3  -1  -5 109.354 46.8692   3
  -3  -1  -6 150815. 1256.82   4
  -3  -1  -6 152583. 1378.58   3
  -3  -1  -7 3711.36 211.749   4
  -3  -1  -7 3927.88 236.916   3
  -3  -1  -8 41094.7 813.747   3
  -3  -1  -8 42242.6 661.834   2
  -3  -1  -9 8216.24 361.208   4
  -3  -1  -9 8200.95 388.431   3
  -3  -1 -10 63190.3 808.353   7
  -3  -1 -10 64378.0 782.396   8
  -3  -1 -11 34802.5 623.232   7
  -3  -1 -11 33481.6 582.441   8
  -3  -1 -12 66.8130 47.5972   7
   3   1  12 88.3225 39.4005  10
  -3  -1 -13 1049.07 118.758   7
   3   1  13 141.938 47.3470  10
  -3  -1 -14 48980.8 741.568   7
  -3  -1 -15 2964.32 176.712   7
  -3  -1 -16 48845.9 646.309   7
  -3  -1 -17 5194.02 185.808   7
  -3  -1 -18 377.070 44.9413   7
   3   2 -15 2632.75 100.384   7
   3   2 -14 2848.43 137.334   7
  -3  -2  13 5247.78 208.300   6
  -3  -2  12 491.887 80.6977   6
  -3  -2  11 18979.1 453.201   6
  -3  -2  10 21588.8 490.056   6
  -3  -2   9 70913.2 878.315   6
  -3  -2   8 759.061 97.3436   6
   3   2  -8 549.309 132.197   2
   3   2  -7 952.692 167.442   2
  -3  -2   7 826.024 92.1299   6
   3   2  -6 2784.71 260.402   2
   3   2  -5 24292.0 719.065   2
   3   2  -4 32245.6 764.816   2
   3   2  -3 1766.56 170.175   2
   3   2  -2 133482. 1324.43   2
   3   2  -1 1824.66 145.884   2
   3   2   0 43330.5 650.171   2
  -3  -2   0 43179.8 437.815   3
  -3  -2  -1 77719.1 674.369   3
  -3  -2  -2 186.491 39.5225   4
  -3  -2  -2 82.5029 31.9264   3
  -3  -2  -3 14465.6 296.254   4
  -3  -2  -3 14215.7 341.823   3
  -3  -2  -4 10864.0 258.104   4
  -3  -2  -4 11090.5 325.898   3
  -3  -2  -5 221380. 1199.87   4
  -3  -2  -5 221684. 1532.63   3
  -3  -2  -6 765.681 78.2557   4
  -3  -2  -6 503.513 85.1148   3
  -3  -2  -7 147.668 56.0049   3
  -3  -2  -8 19878.5 562.466   3
  -3  -2  -9 2052.96 194.206   3
  -3  -2 -10 25713.0 641.136   2
  -3  -2 -10 25140.9 522.766   7
  -3  -2 -10 24368.4 696.852   3
  -3  -2 -11 2369.46 170.976   7
  -3  -2 -11 2371.37 230.941   3
  -3  -2 -12 15547.0 440.918   7
  -3  -2 -13 14772.0 430.293   7
  -3  -2 -14 13366.8 402.482   7
  -3  -2 -15 26706.0 540.187   7
  -3  -2 -16 312.228 65.6687   7
  -3  -2 -17 352.725 60.0730   7
  -3  -2 -18 19361.0 306.457   7
   3   3 -14 771.110 64.2038   7
   3   3 -13 15615.0 350.796   7
  -3  -3  13 16377.0 350.486   6
  -3  -3  12 914.845 101.579   6
  -3  -3  11 33097.5 597.535   6
  -3  -3  10 25867.2 539.659   6
  -3  -3   9 4002.67 217.410   6
   3   3  -8 51915.8 1268.62   2
  -3  -3   8 48297.3 725.308   6
   3   3  -7 17667.6 712.365   2
  -3  -3   7 17254.2 412.955   6
   3   3  -7 17412.1 387.603   9
   3   3  -6 8017.76 456.258   2
  -3  -3   6 7797.80 263.448   6
   3   3  -5 3871.88 302.858   2
   3   3  -4 10178.9 457.760   2
   3   3  -3 3426.27 249.123   2
   3   3  -2 6000.17 305.152   2
   3   3  -1 47386.8 806.576   2
   3   3   0 9278.92 339.429   2
  -3  -3   0 9158.68 224.496   3
  -3  -3  -1 11648.6 281.068   3
  -3  -3  -2 13140.3 319.580   3
  -3  -3  -3 15100.1 365.087   3
  -3  -3  -4 34027.5 588.771   3
  -3  -3  -5 272.602 63.7328   3
  -3  -3  -6 8810.49 338.631   3
  -3  -3  -7 17127.5 499.110   3
  -3  -3  -8 427.860 87.2045   3
  -3  -3  -9 14803.2 518.971   3
  -3  -3 -10 14383.0 539.490   3
  -3  -3 -10 14040.0 395.968   7
  -3  -3 -11 192795. 1533.68   7
  -3  -3 -11 201127. 2096.82   3
  -3  -3 -12 50355.7 1043.81   2
  -3  -3 -12 49023.6 792.542   7
  -3  -3 -12 49122.6 1081.99   3
  -3  -3 -13 40020.4 719.224   7
  -3  -3 -14 10003.5 354.026   7
  -3  -3 -15 7574.14 293.887   7
  -3  -3 -16 7975.35 279.220   7
  -3  -3 -17 10030.7 274.744   7
  -3  -3 -18 15817.6 282.940   7
   3   4 -13 112.318 36.1753   7
  -3  -4  13 108.166 43.7412   6
  -3  -4  12 14678.6 353.894   6
  -3  -4  11 74037.8 863.267   6
  -3  -4  10 9007.84 317.896   6
  -3  -4   9 14124.8 402.514   6
  -3  -4   8 19917.2 475.207   6
   3   4  -7 1407.38 210.132   2
  -3  -4   7 1184.58 116.911   6
   3   4  -7 1249.54 112.987   9
  -3  -4   6 89439.0 927.588   6
   3   4  -6 90445.0 866.258   9
  -3  -4   5 205.190 52.3376   6
   3   4  -5 296.577 90.5825   2
   3   4  -4 179.350 79.2863   2
   3   4  -3 26360.4 738.219   2
   3   4  -2 7310.69 368.393   2
   3   4  -1 274.643 79.9132   2
  -3  -4   0 99266.4 858.435   3
   3   4   0 101782. 1238.65   2
  -3  -4  -1 6917.74 241.212   3
  -3  -4  -2 1629.95 125.592   3
  -3  -4  -3 23084.1 493.550   3
  -3  -4  -4 705.026 95.1103   3
  -3  -4  -5 104345. 1154.12   3
  -3  -4  -6 282.310 71.1185   3
  -3  -4  -7 109218. 1310.17   3
  -3  -4  -8 9833.79 415.213   3
  -3  -4  -9 37385.5 846.972   3
  -3  -4 -10 2073.32 155.640   7
  -3  -4 -10 2180.76 215.976   3
  -3  -4 -11-22.4537 49.7208   7
  -3  -4 -11 35.5436 40.8391   3
  -3  -4 -12 10539.4 369.653   7
  -3  -4 -13 1699.38 151.997   7
  -3  -4 -14 21790.3 518.365   7
  -3  -4 -15 6871.04 279.259   7
  -3  -4 -16 8825.74 290.426   7
  -3  -4 -17 100113. 841.977   7
  -3  -4 -18 760.949 64.0924   7
   3   4  18 740.545 55.1114   9
  -3  -5  12 59060.5 645.401   6
  -3  -5  11 1195.17 109.915   6
  -3  -5  10 3087.38 182.845   6
  -3  -5   9 1466.63 103.731  10
  -3  -5   9 1516.14 135.649   6
  -3  -5   8 35084.9 625.362   6
  -3  -5   8 34978.3 508.170  10
   3   5  -8 34112.5 580.571   9
   3   5  -7 1040.21 106.861   9
  -3  -5   7 1266.61 124.768   6
  -3  -5   7 1240.19 97.8040  10
   3   5  -6 3835.80 346.851   2
  -3  -5   6 3863.18 201.005   6
   3   5  -6 3750.03 185.668   9
   3   5  -5 5450.65 399.907   2
  -3  -5   5 5318.02 224.911   6
   3   5  -5 5676.95 220.066   9
   3   5  -4 23163.5 785.303   2
  -3  -5   4 23041.9 437.684   6
   3   5  -4 23320.8 427.113   9
   3   5  -3 182.600 83.5009   2
   3   5  -2 846.604 142.880   2
   3   5  -1 12156.5 493.619   2
  -3  -5   0 9250.55 304.355   3
  -3  -5  -1 204450. 1492.16   3
  -3  -5  -2 90722.6 1040.47   3
  -3  -5  -3 32701.2 646.825   3
  -3  -5  -4 24146.0 578.908   3
  -3  -5  -5 4800.04 269.663   3
  -3  -5  -6 105.469 53.1645   3
  -3  -5  -7 12778.6 476.883   3
  -3  -5  -8 27539.5 725.937   3
  -3  -5  -9 16226.0 405.997   7
  -3  -5  -9 16552.4 590.528   3
  -3  -5 -10 2978.24 187.316   7
  -3  -5 -10 2964.45 260.145   3
  -3  -5 -11 16289.9 442.616   7
  -3  -5 -11 17601.9 646.370   3
  -3  -5 -12 223.281 69.8093   7
  -3  -5 -13 10427.1 360.900   7
  -3  -5 -14 5131.38 248.361   7
  -3  -5 -15 1892.18 143.944   7
  -3  -5 -16 15908.9 364.612   7
  -3  -5 -17 427.089 57.6692   7
   3   5  17 395.896 50.5162   9
  -3  -5 -18 26617.2 317.366   7
   3   5  18 26003.9 295.168   9
  -3  -6  12 14747.9 275.995   6
  -3  -6  11 4310.01 177.273   6
  -3  -6  10 27820.1 490.613   6
  -3  -6  10 27543.6 385.863  10
  -3  -6   9 7327.93 271.708   6
  -3  -6   9 7051.53 214.087  10
  -3  -6   8 13081.5 370.323   6
  -3  -6   8 12670.7 305.167  10
   3   6  -8 12702.7 350.571   9
  -3  -6   7 9064.11 315.804   6
  -3  -6   7 9160.45 269.998  10
   3   6  -7 8805.08 293.783   9
  -3  -6   6 46.5573 47.0623   6
   3   6  -6 359.946 67.1053   9
  -3  -6   5 16596.3 404.469   6
   3   6  -5 17122.9 737.285   2
   3   6  -5 16430.5 388.561   9
  -3  -6   4 140800. 1131.97   6
   3   6  -4 139468. 2025.64   2
   3   6  -4 141213. 1103.92   9
  -3  -6   3 3759.71 178.748   6
   3   6  -3 3521.18 311.195   2
   3   6  -3 3736.58 177.723   9
   3   6  -2 14332.1 332.257   9
  -3  -6  -1 88.2173 46.3149   3
  -3  -6  -2 12086.3 428.679   3
  -3  -6  -3 402.209 88.2619   3
  -3  -6  -4 1573.09 165.975   3
  -3  -6  -5 17069.1 554.774   3
  -3  -6  -6 41127.2 880.710   3
  -3  -6  -7 23774.1 695.840   3
   3   6   7 24177.2 428.909   9
  -3  -6  -8 88277.5 1381.51   3
   3   6   8 89076.8 853.736   9
  -3  -6  -9 78422.6 862.819   7
  -3  -6  -9 77249.4 1332.70   3
  -3  -6 -10 1251.81 178.305   3
  -3  -6 -10 1258.81 119.979   7
  -3  -6 -11 518.390 84.9135   7
  -3  -6 -12 2768.69 180.151   7
  -3  -6 -13 49702.4 740.007   7
  -3  -6 -14 9424.08 310.085   7
  -3  -6 -15 4010.17 189.061   7
   3   6  15 4125.35 183.254   9
  -3  -6 -16 10952.2 272.823   7
   3   6  16 12044.3 278.748   9
  -3  -6 -17 5764.59 163.277   7
   3   6  17 5824.00 165.799   9
  -3  -7  10 20009.9 357.760   6
  -3  -7  10 20478.8 292.191  10
  -3  -7   9 39856.8 558.356   6
  -3  -7   9 39316.6 466.406  10
  -3  -7   8 61941.2 744.639   6
  -3  -7   8 60183.1 630.796  10
  -3  -7   7 20645.5 447.053   6
  -3  -7   7 20510.2 396.064  10
   3   7  -7 20262.2 437.062   9
  -3  -7   6 1880.93 143.130   6
   3   7  -6 2056.98 143.602   9
  -3  -7   5 4785.46 221.396   6
   3   7  -5 4872.36 216.542   9
   3   7  -4 450.267 73.4653   9
  -3  -7   4 273.464 63.8735   6
  -3  -7   3 4240.68 196.960   6
   3   7  -3 4449.90 202.454   9
   3   7  -2 9945.07 297.320   9
   3   7  -1 15322.9 356.739   9
   3   7   0 124320. 994.466   9
  -3  -7  -1 4896.34 300.120   3
   3   7   1 5178.02 202.249   9
   3   7   2 1698.18 115.245   9
  -3  -7  -2 1344.59 165.329   3
  -3  -7  -3 16392.7 569.447   3
   3   7   3 17303.8 355.805   9
  -3  -7  -4 29173.5 773.635   3
   3   7   4 28285.4 454.778   9
   3   7   5 81539.8 782.220   9
  -3  -7  -5 80292.9 1311.42   3
  -3  -7  -6 7192.68 404.171   3
   3   7   6 7211.61 239.929   9
   3   7   7 28611.2 487.422   9
  -3  -7  -7 29681.8 832.484   3
  -3  -7  -8 5000.78 351.706   3
   3   7   8 5182.92 216.013   9
   3   7   9 55068.8 715.791   9
   3   7  10 16491.5 400.489   9
   3   7  11 17470.3 416.281   9
  -3  -7 -12 542.346 77.7307   7
   3   7  12 542.919 80.5332   9
   3   7  13 497.198 76.5144   9
  -3  -7 -13 476.233 71.0901   7
  -3  -7 -14 10596.1 285.789   7
   3   7  14 10945.0 302.128   9
  -3  -7 -15 8575.51 232.569   7
   3   7  15 8922.80 251.505   9
   3   7  16 4383.00 155.198   9
   3   7  17 1115.53 65.5844   9
  -3  -8   9 2780.34 108.731  10
  -3  -8   8 136.586 36.7660  10
  -3  -8   8 118.686 38.3071   6
  -3  -8   7 30501.0 448.010  10
  -3  -8   7 30626.5 479.169   6
   3   8  -7 31070.3 507.493   9
  -3  -8   6 365.788 62.5777   6
   3   8  -6 420.546 70.6356   9
   3   8  -5 2966.72 168.064   9
   3   8  -4 145.706 50.2801   9
   3   8  -3 22045.0 456.543   9
   3   8  -2 87567.9 908.291   9
   3   8  -1 10328.5 307.051   9
   3   8   0 28298.3 500.644   9
   3   8   1 880.809 92.8676   9
  -3  -8  -2 13684.8 564.363   3
   3   8   2 14017.4 346.760   9
  -3  -8  -3 13111.6 560.258   3
   3   8   3 13865.8 341.547   9
  -3  -8  -4 11227.6 525.299   3
   3   8   4 10844.7 303.541   9
   3   8   5 36509.7 551.236   9
  -3  -8  -5 36801.8 961.536   3
   3   8   6 427.358 67.1598   9
  -3  -8  -6 660.214 137.464   3
   3   8   7 9782.79 294.237   9
   3   8   8 50466.7 677.183   9
   3   8   9 235.540 58.1564   9
   3   8  10 6334.97 244.533   9
   3   8  11 24640.3 476.306   9
   3   8  12 360.791 66.0576   9
   3   8  13 21128.9 414.096   9
   3   8  14 285.374 53.1084   9
   3   8  15 32977.1 431.779   9
   3   8  16 60.8508 25.5909   9
  -3  -9   8 75.6198 26.3691  10
  -3  -9   7 1193.78 79.5881  10
  -3  -9   6 3959.44 159.230  10
   3   9  -6 4069.69 176.379   9
   3   9  -5 34743.9 527.476   9
   3   9  -4 74361.2 795.503   9
   3   9  -3 18443.0 408.226   9
   3   9  -2 5852.28 215.126   8
   3   9  -2 6035.81 239.513   9
   3   9  -1 3149.77 176.570   9
   3   9   0 39605.7 605.140   9
   3   9   1 5283.12 221.426   9
   3   9   2 8867.85 286.369   9
   3   9   3 102137. 967.339   9
   3   9   4 41213.2 611.292   9
   3   9   5 23860.2 466.219   9
   3   9   6 19280.4 418.385   9
   3   9   7 2188.32 143.982   9
   3   9   8 29864.6 515.865   9
   3   9   9 6293.72 237.366   9
   3   9  10 1846.28 131.264   9
   3   9  11 22606.8 431.806   9
   3   9  12 1339.29 105.603   9
   3   9  13 32.6547 34.8592   9
   3   9  14 6416.27 187.966   9
   3   9  15 25915.1 323.392   9
  -3 -10   7 9447.75 165.750  10
  -3 -10   6 1132.54 72.4608  10
   3  10  -6 1275.30 87.0349   9
   3  10  -5 9099.51 240.353   9
   3  10  -4 104.596 44.8002   9
   3  10  -3 53720.9 638.563   9
   3  10  -2 35844.1 487.864   8
   3  10  -2 35895.9 540.848   9
   3  10  -1 9839.01 276.506   8
   3  10  -1 9737.17 289.567   9
   3  10   0 906.628 96.3926   9
   3  10   1 146.331 48.6597   9
   3  10   2 225.929 55.9387   9
   3  10   3 7949.15 266.938   9
   3  10   4 18779.9 409.555   9
   3  10   5 407.937 68.8258   9
   3  10   6 531.698 75.3658   9
   3  10   7 10248.1 297.522   9
   3  10   8 25320.0 458.592   9
   3  10   9 4.06361 38.9882   9
   3  10  10 40154.6 543.153   9
   3  10  11 54.6432 35.1882   9
   3  10  12 84.1241 33.0982   9
   3  10  13 2220.06 106.237   9
   3  10  14 3682.51 116.941   9
  -3 -11   5 552.242 43.2948  10
   3  11  -4 12364.3 245.780   9
   3  11  -3 24097.2 364.275   9
   3  11  -2 4972.77 176.310   9
   3  11  -1 10999.3 249.039   8
   3  11  -1 11028.6 272.321   9
   3  11   0 6472.93 208.261   8
   3  11   0 6163.17 210.859   9
   3  11   1 14120.6 321.234   8
   3  11   1 13144.5 314.805   9
   3  11   2 6854.11 229.988   9
   3  11   3 1835.09 122.884   9
   3  11   4 17776.8 367.125   9
   3  11   5 23.0506 37.7843   9
   3  11   6 4054.12 175.599   9
   3  11   7 442.909 64.2638   9
   3  11   8 25064.5 412.719   9
   3  11   9 3999.46 161.346   9
   3  11  10 6843.17 198.143   9
   3  11  11 16742.9 285.937   9
   3  11  12 2190.86 94.4430   9
   3  12  -2 12796.9 215.753   9
   3  12  -1 236.458 38.3617   9
   3  12   0 185.913 34.9386   8
   3  12   0 279.229 42.8543   9
   3  12   1 34141.4 402.590   8
   3  12   1 34320.4 416.008   9
   3  12   2 7622.37 204.385   8
   3  12   2 7244.75 198.081   9
   3  12   3 4423.53 161.763   8
   3  12   3 4258.34 155.632   9
   3  12   4 1056.95 80.8712   9
   3  12   5 199.873 42.2126   9
   3  12   6 69410.2 602.896   9
   3  12   7 483.753 54.4165   9
   3  12   8 2151.75 100.203   9
   3  12   9 15942.4 248.964   9
  -4   9   7 114.298 29.0868   5
  -4   9   6 749.211 64.7258   5
  -4   9   5 3245.49 137.154   5
  -4   9   4 4767.73 174.605   5
  -4   9   3 8656.31 239.299   5
  -4   9   2 2049.24 121.369   5
  -4   9   1 3888.67 164.191   5
  -4   9   0 1297.73 97.8202   5
  -4   9  -1 4038.69 158.132   5
  -4   9  -3 11773.3 233.264   8
  -4   9  -4 30848.4 375.582   8
  -4   9  -5 225.621 36.9102   8
  -4   9  -6 4343.94 130.860   8
  -4   8   8 4639.14 149.144   5
  -4   8   7 21421.5 362.565   5
  -4   8   6 982.104 90.8629   5
  -4   8   5 21073.0 414.860   5
  -4   8   4 83.1977 49.3820   5
  -4   8   3 17497.5 376.166   1
  -4   8   3 17812.5 404.072   5
  -4   8   2 25869.8 490.277   5
  -4   8   2 25438.8 456.584   1
  -4   8   1 1142.87 110.247   5
  -4   8   1 1178.93 101.923   1
  -4   8   0 1170.57 109.463   5
  -4   8   0 1283.39 105.601   1
  -4   8  -1 924.262 89.3041   1
  -4   8  -1 928.909 98.6358   5
  -4   8  -2 17363.4 357.930   1
  -4   8  -2 16955.7 372.879   5
  -4   8  -2 17566.1 345.631   8
  -4   8  -3 7511.03 225.254   1
  -4   8  -3 7596.63 233.478   8
  -4   8  -4 788.654 80.1944   8
  -4   8  -5 318.082 54.8958   8
  -4   8  -6 6504.56 207.851   8
  -4   8  -7 603.308 65.0417   8
  -4   8  -8 16383.9 291.956   8
  -4   8  -9 15862.2 259.424   8
  -4   7   9 476.345 45.6652  11
  -4   7   9 467.922 52.2295   5
  -4   7   8 75.9121 38.9734   5
  -4   7   7 17768.6 379.625   5
  -4   7   6 1697.77 129.863   5
  -4   7   5 104.121 56.0327   5
  -4   7   5 81.4288 46.0996   1
  -4   7   4 19115.2 432.281   1
  -4   7   4 19369.3 451.570   5
  -4   7   3 269.359 68.0256   5
  -4   7   3 171.321 56.3009   1
  -4   7   2 14666.8 383.787   1
  -4   7   2 15029.1 406.155   5
  -4   7   1 16860.7 411.937   1
  -4   7   1 16901.0 430.417   5
  -4   7   0 4240.71 206.377   1
  -4   7   0 3979.13 210.350   5
  -4   7  -1 1138.59 110.688   1
  -4   7  -1 1241.63 120.942   5
  -4   7  -2 6612.46 237.529   8
  -4   7  -2 6298.88 245.274   1
  -4   7  -2 6353.33 256.273   5
  -4   7  -3 20525.9 425.046   8
  -4   7  -3 20958.9 432.393   1
  -4   7  -3 21061.2 448.316   5
  -4   7  -4 49299.2 662.505   8
  -4   7  -4 49936.8 648.690   1
  -4   7  -5 5736.57 214.229   1
  -4   7  -5 5949.09 232.356   8
  -4   7  -6 397.128 67.9901   8
  -4   7  -6 430.947 61.8538   1
  -4   7  -7 1628.53 119.713   8
  -4   7  -8 4598.06 188.731   8
  -4   7  -9 28433.8 434.317   8
  -4   7 -10 14787.1 287.176   8
  -4   7 -11 1387.39 79.3122   8
  -4   6  11 3905.09 124.113  11
  -4   6  10 13856.6 263.090  11
  -4   6   9 3020.63 135.869  11
  -4   6   8 12525.2 290.520  11
  -4   6   8 13043.8 324.757   5
  -4   6   7 2130.64 125.520  11
  -4   6   7 2133.07 147.442   5
  -4   6   6 32910.4 491.789  11
  -4   6   6 32701.3 588.052   5
  -4   6   5 15212.4 333.030  11
  -4   6   5 14556.4 392.140   1
  -4   6   5 14367.7 404.549   5
  -4   6   4 14472.2 413.944   5
  -4   6   4 14460.2 393.177   1
  -4   6   3 14098.9 388.962   1
  -4   6   3 14024.9 410.142   5
  -4   6   2 40533.7 655.575   1
  -4   6   2 40269.6 683.832   5
  -4   6   1 33616.3 594.239   1
  -4   6   1 33305.0 622.502   5
  -4   6   0 4304.58 215.086   1
  -4   6   0 4105.80 220.755   5
  -4   6  -1 110986. 1065.91   1
  -4   6  -1 111915. 1117.07   5
  -4   6  -2 114.227 52.8069   5
  -4   6  -2 256.111 57.0196   8
  -4   6  -2 129.177 51.7993   1
  -4   6  -3 4485.07 209.617   8
  -4   6  -3 4307.68 209.745   1
  -4   6  -3 4628.74 223.680   5
  -4   6  -4 2546.51 162.284   8
  -4   6  -4 2346.47 153.997   1
  -4   6  -4 2533.90 165.380   5
  -4   6  -5 9456.55 310.027   8
  -4   6  -5 9396.73 298.353   1
  -4   6  -6 9238.35 290.725   1
  -4   6  -6 9709.21 314.083   8
  -4   6  -7 16167.5 372.276   1
  -4   6  -7 16219.7 399.085   8
  -4   6  -8 1300.72 103.670   1
  -4   6  -8 1216.27 112.165   8
  -4   6  -9 22517.7 383.946   1
  -4   6  -9 22438.4 441.285   8
  -4   6 -10 40032.7 553.231   8
  -4   6 -11 874.359 80.2167   8
  -4   6 -12 3765.61 140.789   8
  -4   5  12 110.346 31.4501  11
  -4   5  11 2398.70 116.954  11
  -4   5  10 16184.0 328.503  11
  -4   5   9 16746.1 353.715  11
  -4   5   8 54005.1 664.737  11
  -4   5   8 55740.5 698.447   5
  -4   5   7 25006.6 465.061  11
  -4   5   7 25053.3 507.386   5
  -4   5   6 5167.51 216.493  11
  -4   5   6 5247.38 238.769   1
  -4   5   6 5096.63 242.557   5
  -4   5   5 63609.2 743.173  11
  -4   5   5 63209.6 820.036   1
  -4   5   5 62283.1 854.815   5
  -4   5   4 7965.38 292.034   1
  -4   5   4 8029.45 260.688  11
  -4   5   4 7666.19 304.282   5
  -4   5   3 417.252 83.1596   5
  -4   5   3 442.175 66.5435  11
  -4   5   3 410.464 74.3253   1
  -4   5   2 493.046 77.1574   1
  -4   5   2 370.643 96.8913   4
  -4   5   1 27077.9 775.656   4
  -4   5   1 26824.4 522.792   1
  -4   5   1 26864.2 554.277   5
  -4   5   0 28613.1 806.491   4
  -4   5   0 29449.6 543.984   1
  -4   5   0 29427.2 574.770   5
  -4   5  -1 33467.8 886.956   4
  -4   5  -1 34058.4 583.072   1
  -4   5  -1 34043.5 611.972   5
  -4   5  -2 4619.02 335.968   4
  -4   5  -2 4824.84 220.267   1
  -4   5  -2 4579.28 224.619   5
  -4   5  -3 901.890 96.9169   8
  -4   5  -3 856.055 156.249   4
  -4   5  -3 1097.83 108.380   1
  -4   5  -3 920.675 105.559   5
  -4   5  -4 358.186 68.6533   8
  -4   5  -4 292.289 101.029   4
  -4   5  -4 293.251 62.5543   1
  -4   5  -4 531.416 85.6872   5
  -4   5  -5 205.916 61.9328   8
  -4   5  -5 187.406 56.7861   1
  -4   5  -6 1978.18 143.928   1
  -4   5  -6 1975.39 149.201   8
  -4   5  -7 21733.8 463.735   1
  -4   5  -7 22033.0 487.037   8
  -4   5  -8 1471.03 121.206   1
  -4   5  -8 1573.51 132.852   8
  -4   5  -9 9460.13 288.754   1
  -4   5  -9 9439.71 311.060   8
  -4   5 -10 10233.9 283.261   1
  -4   5 -10 10212.7 310.152   8
  -4   5 -11 12304.0 283.718   1
  -4   5 -11 13037.7 330.297   8
  -4   5 -12 54582.6 617.649   8
  -4   5 -13 1236.63 86.5576   8
  -4   4  13 1095.61 65.6864  11
  -4   4  12 63148.9 569.776  11
  -4   4  11 21348.1 373.226  11
  -4   4  10 3498.46 166.950  11
  -4   4   9 31479.3 520.041  11
  -4   4   8 30374.3 529.254  11
  -4   4   7 8482.78 286.171  11
  -4   4   7 8430.21 293.421   5
  -4   4   6 62641.4 765.719  11
  -4   4   6 63039.6 811.065   1
  -4   4   6 63253.7 836.979   5
  -4   4   5 1042.86 103.358  11
  -4   4   5 1198.19 115.599   1
  -4   4   4 8013.13 285.688   1
  -4   4   4 8153.86 269.204  11
  -4   4   4 7805.36 302.978   5
  -4   4   3 24965.4 494.380   1
  -4   4   3 24657.6 451.301  11
  -4   4   3 24461.8 527.405   5
  -4   4   2 7.94773 48.6106   5
  -4   4   2 39.9132 32.3499   1
  -4   4   2 87.6136 35.4270  11
  -4   4   1 37470.3 880.910   4
  -4   4   1 37656.6 593.446   1
  -4   4   1 38294.8 646.844   5
  -4   4   0 24432.6 708.526   4
  -4   4   0 25917.0 491.862   1
  -4   4   0 25637.8 522.347   5
  -4   4  -1 27013.6 761.101   4
  -4   4  -1 28131.5 512.661   1
  -4   4  -1 28519.7 545.035   5
  -4   4  -2 10894.3 492.066   4
  -4   4  -2 11501.0 344.703   5
  -4   4  -2 11337.8 324.801   1
  -4   4  -3 3542.22 182.296   8
  -4   4  -3 3417.83 280.551   4
  -4   4  -3 3814.56 199.988   5
  -4   4  -3 3621.93 186.454   1
  -4   4  -4 47765.8 680.721   8
  -4   4  -4 49182.3 686.593   1
  -4   4  -4 47559.5 1069.87   4
  -4   4  -4 47980.8 690.493   5
  -4   4  -5 63990.9 808.551   8
  -4   4  -5 66606.1 1304.25   4
  -4   4  -5 66757.2 810.172   1
  -4   4  -5 63222.6 792.284   5
  -4   4  -6 117015. 1776.30   4
  -4   4  -6 112743. 1060.57   1
  -4   4  -6 115096. 1106.13   8
  -4   4  -7 22615.9 478.499   1
  -4   4  -7 23238.6 502.711   8
  -4   4  -8 11467.5 340.568   1
  -4   4  -8 11384.0 355.036   8
  -4   4  -9 75.4689 47.8974   8
  -4   4  -9 121.310 45.8580   1
  -4   4 -10 406.795 74.5655   8
  -4   4 -10 551.964 79.0411   1
  -4   4 -11 75.5117 49.1727   8
  -4   4 -11 47.7411 35.0160   1
  -4   4 -12 2002.35 123.510   1
  -4   4 -12 2142.69 139.662   8
  -4   4 -13 8.16054 37.7063   8
  -4   4 -13 41.3334 24.0193   1
  -4   4 -14 839.441 73.4173   8
  -4   3  13 2478.88 103.964  11
  -4   3  12 8224.76 219.675  11
  -4   3  11 10259.7 273.366  11
  -4   3  10 2436.39 148.781  11
  -4   3   9 10285.6 309.513  11
  -4   3   8 1081.12 109.869  11
  -4   3   7 4588.14 213.884  11
  -4   3   6 10500.5 315.174  11
  -4   3   6 10581.6 322.255   1
  -4   3   5 1774.81 130.309  11
  -4   3   5 1797.31 143.664   5
  -4   3   5 1849.17 136.637   1
  -4   3   4 28023.8 487.132  11
  -4   3   4 28632.2 514.638   1
  -4   3   4 27937.1 550.156   5
  -4   3   3 15714.5 373.237   1
  -4   3   3 15176.3 347.508  11
  -4   3   3 15077.1 400.113   5
  -4   3   2 25917.9 701.841   4
  -4   3   2 25846.6 471.304   1
  -4   3   1 591.156 113.099   4
  -4   3   0 21647.7 633.692   4
  -4   3  -1 119802. 1506.32   4
  -4   3  -2 16668.0 570.488   4
  -4   3  -3 9212.35 434.551   4
  -4   3  -4 140289. 1108.89   1
  -4   3  -4 138999. 1738.68   4
  -4   3  -4 136651. 1130.51   5
  -4   3  -5 416.588 69.6640   8
  -4   3  -5 413.416 110.015   4
  -4   3  -5 322.192 60.3339   1
  -4   3  -6 2905.10 275.424   4
  -4   3  -6 2887.29 168.021   1
  -4   3  -6 2999.83 176.714   8
  -4   3  -7 37079.6 989.736   4
  -4   3  -7 37468.2 607.240   1
  -4   3  -7 37984.5 631.748   8
  -4   3  -8 643.360 86.3362   1
  -4   3  -8 760.802 152.870   4
  -4   3  -8 772.010 97.6357   8
  -4   3  -9 11668.9 348.236   1
  -4   3  -9 12538.3 374.906   8
  -4   3 -10 6139.24 252.655   1
  -4   3 -10 5930.18 259.419   8
  -4   3 -11 17708.0 417.012   1
  -4   3 -11 17912.1 437.253   8
  -4   3 -12 69531.9 786.903   1
  -4   3 -12 69466.2 826.985   8
  -4   3 -13 1270.91 103.170   1
  -4   3 -13 1351.30 115.201   8
  -4   3 -14 10843.8 258.434   1
  -4   3 -14 11212.2 281.583   8
  -4   3 -15 10.8242 19.6375   1
   4  -2 -13 8883.51 211.698   7
  -4   2  13 9218.37 201.935  11
   4  -2 -12 2061.07 131.091   7
  -4   2  12 2196.73 118.289  11
  -4   2  11 1219.29 101.223  11
  -4   2  10 86017.5 858.350  11
  -4   2   9 3178.71 176.148  11
  -4   2   8 10339.5 317.765  11
  -4   2   7 50068.5 687.522  11
  -4   2   6 1285.04 112.998  11
  -4   2   6 1368.24 114.884   1
  -4   2   5 51471.1 664.071  11
  -4   2   5 53076.8 677.328   1
  -4   2   4 28430.6 487.393   1
  -4   2   4 27681.3 471.846  11
  -4   2   1 8.74901 45.3366   4
  -4   2   0 10484.2 418.476   4
  -4   2  -1 9466.50 399.183   4
  -4   2  -2 459.050 97.9922   4
  -4   2  -3 2451.66 211.793   4
  -4   2  -4 16236.8 556.947   4
  -4   2  -5 1712.56 194.518   4
  -4   2  -6 57.9142 55.3412   4
  -4   2  -6 10.8291 35.3128   1
  -4   2  -7 40498.1 981.439   4
  -4   2  -7 40321.4 634.804   8
  -4   2  -8 860.888 154.982   4
  -4   2  -8 982.498 107.410   8
  -4   2  -9 56701.2 1223.82   4
  -4   2  -9 59191.5 802.942   8
  -4   2 -10 980.577 111.050   8
  -4   2 -11 122.907 55.5548   8
  -4   2 -12 8536.16 303.401   8
  -4   2 -13 738.210 93.7494   8
  -4   2 -14 8106.30 252.713   1
  -4   2 -14 8452.52 265.557   8
  -4   2 -15 56.5186 32.2441   1
  -4   2 -16 12.8935 19.3369   1
   4  -1 -14 2091.26 90.3319   7
   4  -1 -13 1637.92 107.128   7
  -4   1  13 1498.35 81.1365  11
  -4   1  12 2897.29 133.443  11
  -4   1  11 3768.14 168.336  11
  -4   1  10 1129.75 104.055  11
  -4   1   9 2713.68 160.498  11
  -4   1   8 38311.1 599.774  11
  -4   1   7 1200.97 110.331  11
  -4   1   6 373.163 66.7671  11
  -4   1   6 339.573 58.8033   1
  -4   1   5 20764.4 414.344  11
  -4   1   5 21351.1 408.324   1
  -4   1   1 11328.4 415.359   4
  -4   1   0 55173.4 898.378   4
  -4   1  -1 49845.7 853.456   4
  -4   1  -2 103093. 1241.86   4
  -4   1  -3 187212. 1698.44   4
  -4   1  -4 14549.2 488.592   4
  -4   1  -5 45037.7 898.451   4
  -4   1  -6 3628.06 272.452   4
  -4   1  -7 5287.54 336.088   4
  -4   1  -8 32809.4 862.385   4
  -4   1  -8 33311.2 578.068   8
  -4   1  -9 1511.50 196.110   4
  -4   1  -9 1847.14 128.709   7
  -4   1  -9 1621.08 134.809   8
  -4   1 -10 12482.2 568.151   4
  -4   1 -10 13478.2 347.894   7
  -4   1 -10 12761.8 376.775   8
  -4   1 -11 2816.15 163.062   7
  -4   1 -11 2870.12 183.094   8
  -4   1 -12 1587.79 123.199   7
  -4   1 -12 1574.18 138.834   8
  -4   1 -13 9378.56 281.077   7
  -4   1 -13 9425.27 317.232   8
  -4   1 -14 433.783 61.3873   7
  -4   1 -16 39.2256 29.1423   1
  -4   1 -17 8591.10 173.001   1
   4   0 -14 52731.7 473.474   7
   4   0 -13 1187.08 98.4086   7
  -4   0  12 417.765 53.3655  11
  -4   0  11 8884.60 246.536  11
  -4   0  11 9200.41 268.554   6
  -4   0  10 373.009 64.4265  11
  -4   0  10 325.579 66.3658   6
  -4   0   9 4788.83 206.655  11
  -4   0   9 5166.10 223.538   6
  -4   0   8 53970.4 719.443   6
  -4   0   8 53468.3 690.993  11
  -4   0   7 35924.2 564.968  11
  -4   0   7 35902.9 574.324   6
  -4   0   6 299.220 58.4116  11
  -4   0   6 200.809 50.8652   6
  -4   0   5 3835.78 174.304  11
  -4   0   0 44903.5 775.968   4
  -4   0  -1 47586.4 785.470   4
  -4   0  -2 39414.9 712.996   4
  -4   0  -3 448.045 85.4452   4
  -4   0  -4 520.689 89.7199   4
  -4   0  -5 59782.7 948.652   4
  -4   0  -6 240.980 75.1710   4
  -4   0  -7 67635.6 1118.64   4
  -4   0  -8 20325.4 636.110   4
  -4   0  -9 71802.8 1241.60   4
  -4   0  -9 73918.4 831.426   7
  -4   0  -9 72669.6 867.708   8
  -4   0 -10 66793.4 816.362   7
  -4   0 -10 65659.7 850.919   8
  -4   0 -11 41576.5 658.614   7
  -4   0 -11 40805.7 686.939   8
  -4   0 -12 103.424 50.7310   8
  -4   0 -12 295.697 65.1648   7
  -4   0 -13 15021.2 388.626   7
  -4   0 -14 27478.9 497.864   7
  -4   0 -15 56.7490 39.6951   7
  -4   0 -16 1130.41 84.9028   7
  -4   0 -17 6110.73 150.307   7
  -4   0 -17 6934.51 183.773   1
   4   1 -14 1356.38 78.2485   7
   4   1 -13 25112.0 424.196   7
  -4  -1  12 1289.48 99.3697   6
  -4  -1  11 4483.36 163.609  11
  -4  -1  11 4567.02 199.607   6
  -4  -1  10 17341.9 353.280  11
  -4  -1  10 17344.5 409.781   6
  -4  -1   9 1120.53 99.5817  11
  -4  -1   9 1164.44 115.869   6
  -4  -1   8 26898.1 475.310  11
  -4  -1   8 26402.2 522.994   6
  -4  -1   7 15111.9 357.477  11
  -4  -1   7 14706.9 379.688   6
  -4  -1   6 26736.9 492.036   6
   4   1  -6 28671.4 875.754   2
  -4  -1   6 27867.8 470.154  11
   4   1  -5 2763.82 257.002   2
  -4  -1   5 2882.84 146.747  11
   4   1  -4 9389.61 435.418   2
   4   1  -3 10732.7 427.227   2
   4   1  -2 69131.8 969.274   2
   4   1  -1 144112. 1273.33   2
  -4  -1  -1 46477.8 736.940   4
  -4  -1  -2 55455.6 791.448   4
  -4  -1  -3 3614.08 204.126   4
  -4  -1  -4 32106.9 614.274   4
  -4  -1  -5 36289.7 673.369   4
  -4  -1  -6 98741.2 1153.31   4
  -4  -1  -7 554.757 97.5668   4
  -4  -1  -9 50457.5 709.373   7
  -4  -1  -9 52132.8 733.650   8
  -4  -1 -10 1270.46 122.820   7
  -4  -1 -10 1290.05 123.144   8
  -4  -1 -11 1900.57 151.242   7
  -4  -1 -11 2007.22 155.353   8
  -4  -1 -12 179.920 58.4377   7
  -4  -1 -13 8242.08 307.341   7
  -4  -1 -14 18.7432 41.5594   7
  -4  -1 -15 65435.1 767.090   7
  -4  -1 -16 5165.08 195.189   7
  -4  -1 -17 4427.78 151.085   7
  -4  -1 -18 8923.42 176.051   1
   4   2 -13 220.543 48.4256   7
  -4  -2  12 6015.60 208.375   6
  -4  -2  11 28999.2 504.705   6
  -4  -2  10 6966.32 265.363   6
  -4  -2   9 10445.3 335.134   6
  -4  -2   8 3615.82 200.633   6
  -4  -2   8 3801.35 173.570  11
   4   2  -7 12210.6 622.199   2
  -4  -2   7 11912.7 305.245  11
  -4  -2   7 11543.6 343.919   6
  -4  -2   6 12273.3 305.415  11
   4   2  -6 13097.5 617.404   2
  -4  -2   6 12046.2 340.836   6
  -4  -2   5 303.560 52.2368  11
  -4  -2   5 306.538 60.5588   6
   4   2  -4 4896.03 333.053   2
   4   2  -3 5011.37 314.183   2
   4   2  -2 999999. 4039.38   2
   4   2  -1 61716.0 936.071   2
   4   2   0 145763. 1320.80   2
  -4  -2  -2 5300.34 221.752   3
  -4  -2  -3 84900.8 917.807   4
  -4  -2  -3 83232.1 938.664   3
  -4  -2  -4 947.271 99.5563   4
  -4  -2  -4 846.872 105.539   3
  -4  -2  -5 230.370 53.2361   4
  -4  -2  -5 204.392 63.8122   3
  -4  -2  -6 92252.5 1178.38   3
  -4  -2  -7 1310.11 154.336   3
  -4  -2  -8 18496.4 592.749   3
  -4  -2  -9 54972.0 762.098   7
  -4  -2  -9 54016.2 1059.85   3
  -4  -2 -10 22915.5 512.680   7
  -4  -2 -10 23195.6 730.679   3
  -4  -2 -11 1967.74 157.571   7
  -4  -2 -12 2665.07 186.003   7
  -4  -2 -13 16083.8 445.065   7
  -4  -2 -14 15096.3 418.193   7
  -4  -2 -15 8876.94 300.296   7
  -4  -2 -16 5322.29 210.421   7
  -4  -2 -17 18946.9 337.336   7
  -4  -2 -18 8685.03 181.635   7
   4   3 -13 9039.77 213.508   7
  -4  -3  12 896.103 84.9845   6
  -4  -3  11 587.905 81.7748   6
  -4  -3  10 2922.74 174.763   6
  -4  -3   9 5783.38 252.730   6
  -4  -3   8 48856.3 737.332   6
  -4  -3   7 5924.80 254.790   6
   4   3  -6 3357.54 328.531   2
  -4  -3   6 3243.90 183.368   6
  -4  -3   5 584.748 80.4836   6
   4   3  -5 580.022 133.829   2
   4   3  -4 9997.26 499.364   2
  -4  -3   4 9566.56 280.388   6
   4   3  -3 47132.9 1022.18   2
   4   3  -2 26049.9 715.170   2
   4   3  -1 119773. 1437.06   2
  -4  -3  -2 1977.00 137.346   3
  -4  -3  -3 292.737 61.3464   3
  -4  -3  -4 93783.8 1069.10   3
  -4  -3  -5 15288.6 460.213   3
  -4  -3  -6 67637.7 1021.04   3
  -4  -3  -7 435.047 94.8535   3
  -4  -3  -8 195.180 65.8336   3
  -4  -3  -9 12743.5 375.521   7
  -4  -3  -9 12645.2 514.696   3
  -4  -3 -10 19305.0 481.278   7
  -4  -3 -10 19829.9 674.320   3
  -4  -3 -11 198694. 1593.01   7
  -4  -3 -11 207118. 2253.87   3
  -4  -3 -12 1760.98 158.861   7
  -4  -3 -13 760.029 108.375   7
  -4  -3 -14 8457.02 320.924   7
  -4  -3 -15 4120.59 211.899   7
  -4  -3 -16 4863.33 206.952   7
  -4  -3 -17 1871.73 112.474   7
   4   3  17 1575.46 81.3425   9
  -4  -3 -18 31395.9 362.474   7
   4   4 -12 3800.43 151.579   7
  -4  -4  12 4538.99 167.261   6
  -4  -4  11 26600.3 456.704   6
  -4  -4  10 7735.60 272.150   6
  -4  -4   9 1641.66 137.382   6
  -4  -4   8 488.814 85.4061   6
  -4  -4   7 45.5703 47.7132   6
  -4  -4   6 16191.3 417.182   6
   4   4  -6 15879.2 371.314   9
   4   4  -5 2815.61 300.109   2
  -4  -4   5 2865.19 171.348   6
   4   4  -5 3098.51 159.840   9
   4   4  -4 19167.1 736.145   2
  -4  -4   4 18352.2 406.565   6
   4   4  -3 4587.37 341.776   2
  -4  -4   3 4463.82 191.585   6
   4   4  -2 356.453 100.108   2
   4   4  -1 3599.30 271.104   2
  -4  -4  -2 2865.69 174.057   3
  -4  -4  -3 3159.20 194.652   3
  -4  -4  -4 6582.96 295.992   3
  -4  -4  -5 134018. 1401.76   3
  -4  -4  -6 142419. 1521.88   3
  -4  -4  -7 373.529 88.5887   3
  -4  -4  -8 5079.78 228.086   7
  -4  -4  -8 4717.40 306.065   3
  -4  -4  -9 16986.7 434.592   7
  -4  -4  -9 17157.2 610.359   3
  -4  -4 -10 24604.4 545.843   7
  -4  -4 -10 26548.1 789.512   3
  -4  -4 -11 13987.3 425.859   7
  -4  -4 -12 65294.0 924.936   7
  -4  -4 -13 3578.13 219.012   7
  -4  -4 -14 3061.62 196.268   7
  -4  -4 -15 19595.5 453.455   7
  -4  -4 -16 1320.79 112.644   7
  -4  -4 -17 70510.0 663.162   7
   4   4  17 66952.3 531.962   9
  -4  -4 -18 29939.5 350.081   7
  -4  -5  12 3165.81 125.091   6
  -4  -5  11 884.745 83.6900   6
  -4  -5  10 350.865 65.0841   6
  -4  -5   9 6628.99 256.322   6
  -4  -5   8 10517.5 336.761   6
  -4  -5   7 471.199 85.7894   6
  -4  -5   6 7615.95 288.987   6
   4   5  -6 7666.98 265.616   9
  -4  -5   5 147690. 1232.90   6
   4   5  -5 144835. 1111.20   9
  -4  -5   4 8041.83 279.434   6
   4   5  -4 8610.48 518.924   2
   4   5  -4 8173.12 257.493   9
   4   5  -3-61.0993 61.0941   2
  -4  -5   3 61.3615 42.9467   6
   4   5  -3 13.4734 28.9856   9
  -4  -5   2 1544.49 117.812   6
   4   5  -2 1475.87 198.110   2
   4   5  -2 1553.59 111.637   9
  -4  -5  -3 39.0658 40.4545   3
  -4  -5  -4 37863.4 760.385   3
  -4  -5  -5 18548.7 555.266   3
  -4  -5  -6 102.516 55.1136   3
  -4  -5  -7 890.762 93.7273   7
  -4  -5  -7 865.324 136.259   3
  -4  -5  -8 25618.3 505.617   7
   4   5   8 26254.9 454.327   9
  -4  -5  -9 47775.8 722.338   7
  -4  -5  -9 47476.0 1042.42   3
   4   5   9 49069.8 642.344   9
  -4  -5 -10 6401.37 277.850   7
  -4  -5 -10 6856.00 411.637   3
  -4  -5 -11 3086.37 201.779   7
  -4  -5 -12 39157.3 707.830   7
  -4  -5 -13 19213.3 487.694   7
  -4  -5 -14 30542.8 589.517   7
  -4  -5 -15 256.043 62.9053   7
   4   5  15 265.328 52.9540   9
  -4  -5 -16 9917.45 279.531   7
   4   5  16 9708.00 239.638   9
  -4  -5 -17 675.314 66.7864   7
   4   5  17 611.455 53.3760   9
  -4  -6  11 4270.58 147.148   6
  -4  -6  10 2532.76 134.512   6
  -4  -6   9 9185.71 278.228   6
  -4  -6   8 6306.29 247.538   6
  -4  -6   7 280.696 67.7152   6
  -4  -6   6 246.510 65.5049   6
   4   6  -6 156.751 51.3250   9
  -4  -6   5 32.2998 48.8262   6
   4   6  -5 59.7031 42.7567   9
  -4  -6   4 14929.6 386.997   6
   4   6  -4 14874.3 360.890   9
  -4  -6   3 16117.3 387.805   6
   4   6  -3 16167.8 373.257   9
  -4  -6   2 20834.2 424.732   6
   4   6  -2 20845.7 417.698   9
  -4  -6   1 31552.5 507.103   6
   4   6  -1 30401.2 491.898   9
  -4  -6   0 2317.01 137.097   6
   4   6   0 1948.65 123.797   9
  -4  -6  -1 864.281 85.3686   6
   4   6   1 822.202 81.1892   9
  -4  -6  -3 369.514 83.6752   3
  -4  -6  -4 9139.48 405.595   3
  -4  -6  -5 43850.0 915.465   3
   4   6   5 43586.3 556.079   9
  -4  -6  -6 14179.2 347.658   7
  -4  -6  -6 14023.2 538.716   3
   4   6   6 13668.6 318.963   9
  -4  -6  -7 60645.0 746.295   7
  -4  -6  -7 60907.0 1156.60   3
   4   6   7 60649.3 691.559   9
  -4  -6  -8 52112.9 718.266   7
  -4  -6  -8 51185.1 1091.77   3
   4   6   8 52157.8 662.588   9
   4   6   9 92.3909 42.0772   9
  -4  -6  -9 175.958 77.3950   3
  -4  -6 -10 2837.46 180.644   7
   4   6  10 2983.92 170.375   9
  -4  -6 -11 74.1959 46.7336   7
   4   6  11 117.256 46.3714   9
  -4  -6 -12 3447.86 202.503   7
   4   6  12 3637.06 190.393   9
  -4  -6 -13 6450.04 268.318   7
   4   6  13 6581.48 248.563   9
  -4  -6 -14 4730.10 219.153   7
   4   6  14 5176.37 209.739   9
  -4  -6 -15 3771.02 180.295   7
   4   6  15 3880.12 167.832   9
  -4  -6 -16 3697.17 157.495   7
   4   6  16 3740.33 143.242   9
  -4  -6 -17 39865.5 417.945   7
   4   6  17 38736.5 371.286   9
  -4  -7  10 2528.82 110.565   6
  -4  -7   9 4124.76 164.011   6
  -4  -7   8 21229.4 404.999   6
  -4  -7   7 3170.47 171.019   6
  -4  -7   6 189.198 55.1625   6
   4   7  -6 105.219 46.5321   9
  -4  -7   5 12407.2 352.556   6
   4   7  -5 12348.0 332.024   9
  -4  -7   4 4210.00 208.459   6
   4   7  -4 4364.45 200.542   9
  -4  -7   3 11763.6 336.168   6
   4   7  -3 11741.5 326.972   9
  -4  -7   2 18724.2 415.050   6
   4   7  -2 18875.7 411.763   9
  -4  -7   1 26997.6 480.149   6
   4   7  -1 27437.0 490.542   9
  -4  -7   0 9151.52 274.005   6
   4   7   0 9998.27 290.558   9
  -4  -7  -1 1419.40 110.575   6
   4   7   1 1404.39 111.876   9
  -4  -7  -2 638.865 75.8718   6
   4   7   2 673.255 80.1635   9
  -4  -7  -3 3965.12 176.471   6
   4   7   3 3760.57 175.281   9
  -4  -7  -4 60956.5 1134.64   3
  -4  -7  -4 61354.8 671.963   6
   4   7   4 61499.1 698.174   9
  -4  -7  -5 23842.7 729.668   3
   4   7   5 24571.3 443.707   9
  -4  -7  -6 26712.5 787.716   3
   4   7   6 26911.1 469.571   9
  -4  -7  -7 96570.4 1544.46   3
   4   7   7 97535.8 913.427   9
  -4  -7  -8 645.387 83.3779   7
   4   7   8 611.965 80.6689   9
  -4  -7  -9 20076.2 440.447   7
   4   7   9 19519.1 425.438   9
  -4  -7 -10 52427.8 729.808   7
   4   7  10 53006.0 708.699   9
  -4  -7 -11 603.463 87.6828   7
   4   7  11 670.158 86.8772   9
  -4  -7 -12 80222.6 893.271   7
   4   7  12 81574.7 868.326   9
  -4  -7 -13 5874.40 233.976   7
   4   7  13 6095.04 231.133   9
  -4  -7 -14 8224.57 258.461   7
   4   7  14 8495.70 254.656   9
  -4  -7 -15 53167.3 579.812   7
   4   7  15 54698.4 579.270   9
  -4  -7 -16 792.464 62.8719   7
   4   7  16 916.117 67.9420   9
  -4  -8   8 14187.9 271.990   6
  -4  -8   7 14676.2 311.911   6
  -4  -8   6 540.442 72.2479   6
   4   8  -6 591.551 75.5453   9
   4   8  -5 14062.4 339.266   9
  -4  -8   5 14185.1 347.750   6
  -4  -8   4 3845.79 188.503   6
   4   8  -4 4000.16 186.923   9
  -4  -8   3 8485.01 277.124   6
   4   8  -3 8354.35 274.597   9
  -4  -8   2 30753.7 522.373   6
   4   8  -2 31376.2 532.538   9
  -4  -8   1 1902.31 131.026   6
   4   8  -1 1910.69 136.849   9
   4   8   0 540.719 76.9731   9
   4   8   1 9824.35 296.524   9
   4   8   2 18865.6 409.042   9
   4   8   3 4523.37 201.963   9
   4   8   4 4834.65 209.058   9
   4   8   5 178.415 50.2425   9
   4   8   6 18716.5 407.153   9
   4   8   7 3848.06 189.658   9
   4   8   8 22853.9 455.442   9
   4   8   9 43336.3 632.988   9
   4   8  10 659.082 84.7686   9
   4   8  11 368.699 66.7628   9
   4   8  12 9019.69 277.841   9
   4   8  13 6383.05 221.325   9
   4   8  14 16271.5 324.155   9
   4   8  15 4051.09 144.357   9
   4   8  16 1576.21 75.1420   9
   4   9  -6 2130.98 115.517   9
   4   9  -5 12312.6 291.619   9
   4   9  -4 23281.6 416.034   9
   4   9  -3 15998.2 359.533   9
   4   9  -2 345.964 63.8580   9
   4   9  -1 2188.86 142.971   9
   4   9   0 3146.91 172.331   9
   4   9   1 862.467 94.5439   9
   4   9   2 49151.9 667.145   9
   4   9   3 81927.9 859.866   9
   4   9   4 30305.7 526.815   9
   4   9   5 68.0463 44.1356   9
   4   9   6 25768.5 485.305   9
   4   9   7 30906.0 530.320   9
   4   9   8 21808.1 441.063   9
   4   9   9 69.4523 45.1339   9
   4   9  10 8754.05 272.180   9
   4   9  11 5863.50 215.885   9
   4   9  12 8213.81 243.551   9
   4   9  13 11336.5 265.648   9
   4   9  14 25075.5 353.894   9
   4   9  15 741.908 54.6312   9
   4  10  -5 17186.9 293.708   9
   4  10  -4 14460.9 290.056   9
   4  10  -3 7555.76 221.498   9
   4  10  -2 39933.4 531.254   9
   4  10  -1 11237.9 294.217   9
   4  10   0 166.985 48.4056   9
   4  10   1 4231.02 192.159   9
   4  10   2 2503.74 148.765   9
   4  10   3 4391.65 196.216   9
   4  10   4 21908.9 432.268   9
   4  10   5 10101.1 295.688   9
   4  10   6 5105.84 210.253   9
   4  10   7 169.421 52.2936   9
   4  10   8 564.029 76.0594   9
   4  10   9 6845.14 238.557   9
   4  10  10 104466. 864.613   9
   4  10  11 11617.8 276.008   9
   4  10  12 1154.80 85.1385   9
   4  10  13 9429.46 208.670   9
   4  11  -4 3587.82 115.493   9
   4  11  -3 135.348 32.8378   9
   4  11  -2 11.0317 26.4946   9
   4  11  -1 11747.6 258.274   9
   4  11   0 333.974 53.0841   9
   4  11   1 4353.27 154.550   8
   4  11   1 4361.09 172.427   9
   4  11   2 5363.60 194.904   9
   4  11   3 298.683 55.3262   9
   4  11   4 13723.7 313.171   9
   4  11   5 8071.99 239.911   9
   4  11   6 4990.89 187.950   9
   4  11   7 6005.73 203.158   9
   4  11   8 112.954 42.4097   9
   4  11   9 5674.57 185.627   9
   4  11  10 2952.36 127.896   9
   4  11  11 60.3157 28.4293   9
   4  11  12 8130.41 172.605   9
   4  12  -1 8503.02 168.309   9
   4  12   0 32.1133 23.8760   9
   4  12   1 29003.5 352.878   9
   4  12   2 200.565 32.7241   8
   4  12   2 225.436 40.0986   9
   4  12   3 786.756 61.0449   8
   4  12   3 720.945 64.0878   9
   4  12   4 8340.34 198.094   8
   4  12   4 8539.78 207.572   9
   4  12   5 7936.80 199.687   9
   4  12   6 35109.8 411.922   9
   4  12   7 527.149 54.2944   9
   4  12   8 1381.79 78.9473   9
   4  12   9 33130.2 345.407   9
  -5   8   5 268.941 43.1643   5
  -5   8   4 9959.21 231.428   5
  -5   8   3 3127.52 139.920   5
  -5   8   2 5793.49 194.662   5
  -5   8   1 4253.99 169.052   5
  -5   8   1 4145.36 156.191   1
  -5   8   0 645.970 65.1332   1
  -5   8  -1 3743.05 145.099   1
  -5   8  -2 9517.53 221.801   1
  -5   8  -3 1027.71 72.3665   1
  -5   8  -4 636.840 54.1592   1
  -5   7   7 10180.3 198.530   5
  -5   7   6 1083.85 81.9453   5
  -5   7   5 1763.45 113.539   5
  -5   7   4 38111.0 540.300   5
  -5   7   3 188.140 58.2104   5
  -5   7   3 156.737 48.7158   1
  -5   7   2 138.697 57.8200   5
  -5   7   2 121.168 45.2356   1
  -5   7   1 11473.7 322.878   5
  -5   7   1 11257.2 304.079   1
  -5   7   0 14831.6 352.274   1
  -5   7   0 15655.4 376.811   5
  -5   7  -1 36885.0 549.134   1
  -5   7  -1 39615.0 589.678   5
  -5   7  -2 2527.40 143.825   1
  -5   7  -3 387.327 61.5685   1
  -5   7  -4 32127.6 475.343   1
  -5   7  -5 16493.7 326.102   1
  -5   7  -5 16534.8 313.621   8
  -5   7  -6 1348.94 89.1368   1
  -5   7  -6 1258.83 88.0909   8
  -5   7  -7 1859.38 93.2002   1
  -5   7  -7 1898.61 103.314   8
  -5   7  -8 590.906 57.3083   8
  -5   7  -9 689.076 56.7418   8
  -5   6   8 84.1257 25.2749  11
  -5   6   7 1316.80 78.9301  11
  -5   6   7 1372.98 92.3246   5
  -5   6   6 7489.57 191.718  11
  -5   6   6 7278.77 232.358   5
  -5   6   5 2718.83 158.127   5
  -5   6   4 1067.94 106.184   1
  -5   6   4 1136.66 112.697   5
  -5   6   3 11591.5 347.997   5
  -5   6   3 11675.1 332.534   1
  -5   6   2 34788.7 580.344   1
  -5   6   2 34588.7 607.757   5
  -5   6   1 46056.3 675.611   1
  -5   6   1 45434.3 702.756   5
  -5   6   0 18561.4 429.351   1
  -5   6   0 19166.0 458.657   5
  -5   6  -1 104212. 1013.25   1
  -5   6  -1 107136. 1066.26   5
  -5   6  -2 14.4809 56.8037   5
  -5   6  -2 1.41187 36.4198   1
  -5   6  -3 19355.7 425.752   1
  -5   6  -4 756.229 89.7292   1
  -5   6  -4 767.043 82.8644   8
  -5   6  -5 1380.07 114.563   1
  -5   6  -5 1410.12 110.953   8
  -5   6  -6 12555.7 317.917   1
  -5   6  -6 12688.8 317.436   8
  -5   6  -7 6310.12 215.090   1
  -5   6  -7 6363.41 221.332   8
  -5   6  -8 35953.5 473.249   1
  -5   6  -8 36286.6 505.758   8
  -5   6  -9 53778.0 522.222   1
  -5   6  -9 54515.0 585.911   8
  -5   6 -10 5053.64 167.439   8
  -5   6 -11 4932.98 147.900   8
  -5   5  10 650.311 51.8100  11
  -5   5   9 16162.2 277.736  11
  -5   5   8 12256.4 263.807  11
  -5   5   7 46677.3 547.837  11
  -5   5   6 239.325 60.6019   5
  -5   5   6 150.584 47.1766  11
  -5   5   5 12799.9 309.056  11
  -5   5   5 12714.2 347.705   1
  -5   5   5 12796.3 360.958   5
  -5   5   4 1338.56 104.536  11
  -5   5   4 1343.05 127.935   5
  -5   5   4 1327.06 120.545   1
  -5   5   3 8928.58 304.438   1
  -5   5   3 9390.98 264.937  11
  -5   5   3 8961.21 326.034   5
  -5   5   2 1359.82 126.389   1
  -5   5   2 1404.67 137.373   5
  -5   5   1 3214.74 187.164   1
  -5   5   1 3189.29 200.853   5
  -5   5   0 1141.33 116.249   1
  -5   5   0 1242.94 130.677   5
  -5   5  -1 25221.8 514.912   1
  -5   5  -1 25529.2 547.510   5
  -5   5  -2 28279.2 546.890   1
  -5   5  -2 28361.3 574.169   5
  -5   5  -3 12282.8 358.042   1
  -5   5  -3 12082.5 368.241   5
  -5   5  -4 8152.99 290.733   1
  -5   5  -4 8452.33 279.751   8
  -5   5  -5 3708.23 195.310   1
  -5   5  -5 3708.52 191.578   8
  -5   5  -6 408.078 71.6365   8
  -5   5  -6 149.601 51.7158   1
  -5   5  -7 9631.95 299.193   1
  -5   5  -7 9593.20 302.612   8
  -5   5  -8 24548.4 454.962   1
  -5   5  -8 24526.5 468.761   8
  -5   5  -9 706.280 79.0632   1
  -5   5  -9 692.976 83.3930   8
  -5   5 -10 18652.9 345.794   1
  -5   5 -10 19180.6 378.674   8
  -5   5 -11 27279.9 369.577   1
  -5   5 -11 28532.5 429.197   8
  -5   5 -12 33.6965 26.7835   8
  -5   4  11 542.496 48.4739  11
  -5   4  10 14570.8 268.494  11
  -5   4   9 5451.14 184.860  11
  -5   4   8 1084.08 94.0627  11
  -5   4   7 3640.28 173.759  11
  -5   4   6 28770.4 495.096  11
  -5   4   6 28949.1 516.954   5
  -5   4   5 479.229 80.6636   5
  -5   4   5 527.409 77.7787  11
  -5   4   5 547.111 81.7161   1
  -5   4   4 6618.37 243.610  11
  -5   4   4 6549.60 279.639   5
  -5   4   4 6616.05 261.051   1
  -5   4   3-14.0264 52.1823   5
  -5   4   3 6.62579 35.4557  11
  -5   4   3-14.6735 42.6457   1
  -5   4   2 12641.8 364.891   1
  -5   4   2 13271.1 334.005  11
  -5   4   2 12133.4 390.205   5
  -5   4   1 123127. 1134.97   1
  -5   4   1 123701. 986.832  11
  -5   4   1 121595. 1230.36   5
  -5   4   0 12517.5 362.666   1
  -5   4   0 12342.6 393.755   5
  -5   4  -1 258.794 74.4022   5
  -5   4  -1 201.634 60.0434   1
  -5   4  -2 3630.44 196.505   1
  -5   4  -2 3774.52 215.236   5
  -5   4  -3 909.302 104.145   1
  -5   4  -3 938.253 114.865   5
  -5   4  -4 60034.8 795.973   1
  -5   4  -4 58220.5 759.198   8
  -5   4  -5 68153.3 844.784   1
  -5   4  -5 65477.1 824.418   8
  -5   4  -6 969.169 106.120   1
  -5   4  -6 968.503 106.495   8
  -5   4  -7 600.380 86.5197   1
  -5   4  -7 588.140 86.9275   8
  -5   4  -8 2690.55 166.840   1
  -5   4  -8 2543.96 164.936   8
  -5   4  -9 6494.81 247.473   1
  -5   4  -9 6292.37 251.301   8
  -5   4 -10 16325.3 372.192   1
  -5   4 -10 16862.5 394.134   8
  -5   4 -11 32778.5 488.922   1
  -5   4 -11 32515.9 518.768   8
  -5   4 -12 1404.21 94.9096   1
  -5   4 -12 1502.32 107.827   8
  -5   4 -13 22200.4 353.843   8
  -5   4 -13 21076.5 299.834   1
  -5   3  11 8597.79 196.636  11
  -5   3  10 5650.57 182.408  11
  -5   3   9 39627.1 529.950  11
  -5   3   8 292.144 62.8069  11
  -5   3   7 1493.52 121.037  11
  -5   3   6 9889.08 305.032  11
  -5   3   5 987.896 103.107  11
  -5   3   5 1007.91 107.948   5
  -5   3   5 1099.95 109.623   1
  -5   3   4 35482.7 576.307  11
  -5   3   4 35889.4 642.553   5
  -5   3   4 36056.1 597.618   1
  -5   3   3 20603.9 453.439   1
  -5   3   3 20680.9 432.149  11
  -5   3   3 20462.6 496.187   5
  -5   3   2 35012.4 590.738   1
  -5   3   2 34491.8 548.025  11
  -5   3   2 33814.3 643.809   5
  -5   3   1 3949.95 200.617   1
  -5   3   1 3856.39 179.882  11
  -5   3   1 4079.24 226.062   5
  -5   3   0 5421.05 362.571   4
  -5   3   0 5585.37 237.279   1
  -5   3   0 5539.74 208.900  11
  -5   3   0 5451.88 260.106   5
  -5   3  -1 6005.66 381.683   4
  -5   3  -1 6141.50 213.498  11
  -5   3  -1 5940.48 243.350   1
  -5   3  -1 6362.78 278.792   5
  -5   3  -2 3743.75 306.319   4
  -5   3  -2 3830.32 198.582   1
  -5   3  -2 3834.97 213.574   5
  -5   3  -3 81.1116 60.8301   5
  -5   3  -3-42.5082 64.4830   4
  -5   3  -3 9.95339 39.7049   1
  -5   3  -4 31152.2 571.166   1
  -5   3  -4 31111.4 902.095   4
  -5   3  -5 42705.8 1071.45   4
  -5   3  -5 42692.1 668.737   1
  -5   3  -5 41439.1 654.425   8
  -5   3  -6 1321.57 124.413   1
  -5   3  -6 1404.60 126.366   8
  -5   3  -7 95208.9 1003.57   1
  -5   3  -7 95086.0 1021.68   8
  -5   3  -8 31592.3 577.936   1
  -5   3  -8 30610.5 583.292   8
  -5   3  -9 11701.8 347.392   1
  -5   3  -9 11580.5 357.029   8
  -5   3 -10 1045.20 105.054   1
  -5   3 -10 1142.40 115.686   8
  -5   3 -11 428.547 74.6402   8
  -5   3 -11 298.438 60.6874   1
  -5   3 -12 92604.7 842.632   1
  -5   3 -12 90560.8 892.126   8
  -5   3 -13 1632.91 105.150   1
  -5   3 -13 1590.73 111.435   8
  -5   3 -14 30150.9 376.941   1
  -5   2  12 19209.3 249.119  11
  -5   2  11 1045.01 76.5197  11
  -5   2  10 24733.3 395.705  11
  -5   2   9 3154.33 159.584  11
  -5   2   8 143.076 50.8756  11
  -5   2   7 2274.94 149.644  11
  -5   2   6-1.30020 39.3739  11
  -5   2   5 8936.66 293.441  11
  -5   2   5 9324.68 293.407   1
  -5   2   4 100.346 47.5682  11
  -5   2   4 599.438 80.1045   1
  -5   2   3 40720.8 613.140   1
  -5   2   3 39912.5 597.205  11
  -5   2   3 39424.3 664.916   5
  -5   2   2 307.557 71.6661   5
  -5   2   2 270.938 58.5691   1
  -5   2   2 393.838 63.1296  11
  -5   2   1 1202.11 108.950   1
  -5   2   1 1155.25 100.699  11
  -5   2   1 1303.92 129.768   5
  -5   2   0 50057.8 1048.65   4
  -5   2   0 49732.7 618.838  11
  -5   2   0 49898.2 670.065   1
  -5   2   0 48778.8 749.233   5
  -5   2  -1 20757.7 679.412   4
  -5   2  -1 21247.0 397.024  11
  -5   2  -1 21223.6 440.927   1
  -5   2  -1 21244.9 490.385   5
  -5   2  -2 81302.4 1343.48   4
  -5   2  -2 82420.0 761.514  11
  -5   2  -2 83202.1 959.514   5
  -5   2  -2 82589.4 872.583   1
  -5   2  -3 291.675 72.2892   5
  -5   2  -3 238.561 57.4935   1
  -5   2  -3 363.479 101.173   4
  -5   2  -3 275.613 47.8883  11
  -5   2  -4 1098.92 167.344   4
  -5   2  -4 1378.32 119.591   1
  -5   2  -5 8434.67 460.305   4
  -5   2  -5 8637.53 293.922   1
  -5   2  -5 8170.25 285.515   8
  -5   2  -6-14.6777 38.8138   8
  -5   2  -6-6.59749 54.6864   4
  -5   2  -7 25226.9 828.198   4
  -5   2  -7 24587.8 511.543   1
  -5   2  -7 24042.4 517.008   8
  -5   2  -8 6244.46 259.795   1
  -5   2  -8 6190.92 266.557   8
  -5   2  -9 424.475 79.4398   8
  -5   2  -9 385.527 75.7713   1
  -5   2 -10 11033.2 342.071   1
  -5   2 -10 11106.3 357.351   8
  -5   2 -11 6206.78 251.241   1
  -5   2 -11 6176.71 262.993   8
  -5   2 -12 22.5500 48.7755   8
  -5   2 -12 73.5278 44.5895   1
  -5   2 -13 19789.4 398.520   1
  -5   2 -13 19263.9 408.842   8
  -5   2 -14 4640.69 174.542   1
  -5   2 -15 36.5012 24.2748   1
   5  -1 -12 2718.67 109.165   7
  -5   1  12 2666.89 93.5676  11
  -5   1  11 9592.06 218.538  11
  -5   1  10 1227.85 93.3717  11
  -5   1   9 31.9295 39.0817  11
  -5   1   8 18059.1 398.064  11
  -5   1   7 3076.59 174.091  11
  -5   1   6 17394.3 408.755  11
  -5   1   5 18044.2 411.415  11
  -5   1   5 17930.6 387.250   1
  -5   1   4 94718.1 928.497  11
  -5   1   4 94834.0 887.740   1
  -5   1   3 130.920 46.6800  11
  -5   1   3 72.1430 42.1949   1
  -5   1   2 700.226 81.7662   1
  -5   1   2 787.737 85.0206  11
  -5   1   2 770.896 98.3068   5
  -5   1   1 315.181 72.8434   5
  -5   1   1 241.581 49.9593   1
  -5   1   1 201.395 44.4828  11
  -5   1   0 5171.02 325.549   4
  -5   1   0 5037.88 195.939  11
  -5   1   0 5023.64 205.039   1
  -5   1   0 4976.12 233.018   5
  -5   1  -1 9723.33 442.523   4
  -5   1  -1 9409.66 258.497  11
  -5   1  -1 9404.51 279.896   1
  -5   1  -1 9402.56 317.085   5
  -5   1  -2 618.645 120.032   4
  -5   1  -2 744.345 85.6682   1
  -5   1  -3 2241.72 218.027   4
  -5   1  -3 2324.72 146.354   1
  -5   1  -4 219.020 91.9606   4
  -5   1  -4 278.050 59.4050   1
  -5   1  -5 20967.5 685.103   4
  -5   1  -5 20548.5 441.838   1
  -5   1  -5 21574.2 444.760   8
  -5   1  -6 85798.7 1419.65   4
  -5   1  -6 87205.6 925.769   1
  -5   1  -6 85772.4 925.763   8
  -5   1  -7 12281.4 354.339   1
  -5   1  -7 12268.5 555.090   4
  -5   1  -7 11756.6 356.992   8
  -5   1  -8 3915.54 325.274   4
  -5   1  -8 4066.12 209.094   1
  -5   1  -8 4089.86 217.707   8
  -5   1  -9 66832.8 845.979   1
  -5   1  -9 65540.7 875.617   8
  -5   1 -10 180850. 1403.91   1
  -5   1 -10 183447. 1474.12   8
  -5   1 -11 13197.9 376.558   1
  -5   1 -11 14030.5 405.884   8
  -5   1 -12 7694.08 278.450   1
  -5   1 -12 7588.38 288.786   8
  -5   1 -13 9895.92 301.107   1
  -5   1 -14 14126.3 331.430   1
  -5   1 -15 60248.7 607.900   1
  -5   1 -16 11702.9 223.663   1
   5   0 -12 2282.08 113.471   7
  -5   0  11 2305.54 105.222  11
  -5   0  10 13883.8 292.359  11
  -5   0   9 44110.4 575.354  11
  -5   0   8 910.221 95.2684  11
  -5   0   7 16934.3 392.835  11
  -5   0   6 15858.7 383.166  11
  -5   0   5 1099.81 106.239  11
  -5   0   4 17339.8 390.461  11
  -5   0   3 331.123 59.0574  11
  -5   0   2 9265.88 272.780  11
  -5   0   1 3153.16 155.851  11
  -5   0   0 5457.79 198.693  11
  -5   0  -1 12508.0 480.348   4
  -5   0  -2 28298.0 720.675   4
  -5   0  -3 28640.3 725.910   4
  -5   0  -4 395.987 97.9544   4
  -5   0  -5 11854.9 483.647   4
  -5   0  -5 11675.0 319.909   1
  -5   0  -6 21051.5 660.114   4
  -5   0  -6 21043.0 440.358   1
  -5   0  -6 20882.3 419.895   7
  -5   0  -6 21329.8 452.261   8
  -5   0  -7 73530.5 1271.99   4
  -5   0  -7 75924.2 822.662   7
  -5   0  -7 75022.3 851.498   1
  -5   0  -7 75698.9 891.647   8
  -5   0  -8 216.370 65.7010   8
  -5   0  -8 213.471 55.9899   7
  -5   0  -9 42458.9 640.508   7
  -5   0  -9 41825.0 704.274   8
  -5   0 -10 27414.1 518.833   7
  -5   0 -10 27599.7 575.904   8
  -5   0 -11 11371.0 332.069   7
  -5   0 -11 11057.6 365.111   8
  -5   0 -12 4417.05 202.830   7
  -5   0 -13 7358.65 248.507   7
  -5   0 -14 13382.6 308.432   7
  -5   0 -15 24464.5 365.511   7
  -5   0 -15 24799.5 421.147   1
  -5   0 -16 2286.10 113.568   1
  -5   0 -17 6663.00 150.874   1
  -5  -1  10 3901.81 146.798  11
  -5  -1  10 4160.23 168.832   6
  -5  -1   9 83.7108 37.6076  11
  -5  -1   9 83.6690 44.8023   6
  -5  -1   8 4153.62 184.412  11
  -5  -1   8 4139.80 195.912   6
  -5  -1   7 6484.09 239.677  11
  -5  -1   7 6664.97 254.258   6
  -5  -1   6 393.550 67.3230  11
  -5  -1   6 82.4760 45.3560   6
  -5  -1   5 904.192 96.5435   6
  -5  -1   5 977.844 98.1202  11
  -5  -1   4 89.3954 42.3822  11
  -5  -1   4 46.5436 34.4639   6
  -5  -1   3 26187.6 460.739  11
  -5  -1   3 25932.7 451.664   6
  -5  -1   2 2548.24 143.402  11
  -5  -1   2 2396.24 134.631   6
  -5  -1   1 10336.6 275.006  11
  -5  -1  -2 10323.7 412.543   4
  -5  -1  -3 6146.43 318.058   4
  -5  -1  -4 14889.4 493.684   4
  -5  -1  -5 27725.3 682.128   4
  -5  -1  -6 28053.5 703.768   4
  -5  -1  -6 28436.1 503.942   7
  -5  -1  -6 27603.9 492.471   1
  -5  -1  -7 3357.53 181.322   7
  -5  -1  -7 3477.43 189.818   8
  -5  -1  -8 71034.8 846.207   7
  -5  -1  -8 72059.3 883.689   8
  -5  -1  -9 9882.11 322.878   7
  -5  -1  -9 9694.71 336.997   8
  -5  -1 -10 9606.82 322.886   7
  -5  -1 -11 19261.2 457.953   7
  -5  -1 -12 7493.32 282.725   7
  -5  -1 -13 72438.4 842.181   7
  -5  -1 -14 1438.53 115.978   7
  -5  -1 -15 26161.9 431.876   7
  -5  -1 -16 1070.99 79.2254   7
  -5  -1 -16 1009.60 83.6121   1
  -5  -1 -17 2028.78 95.4145   1
  -5  -2  11 1562.06 96.2844   6
  -5  -2  10 14215.8 319.778   6
  -5  -2   9 2045.17 136.380   6
  -5  -2   8 31985.2 474.718  11
  -5  -2   8 31532.0 550.907   6
  -5  -2   7 23350.9 431.374  11
  -5  -2   7 22692.8 479.814   6
  -5  -2   6 2315.73 141.384  11
  -5  -2   6 2212.42 155.084   6
  -5  -2   5 21699.4 424.287  11
  -5  -2   5 21728.1 457.577   6
  -5  -2   4 21385.2 418.168  11
  -5  -2   4 21642.4 443.570   6
  -5  -2   3 3684.02 179.152   6
  -5  -2   3 3607.14 170.538  11
  -5  -2   2 83684.3 789.710  11
  -5  -2   2 85004.7 814.804   6
  -5  -2   1 152.179 41.6988  11
  -5  -2   1 70.2481 34.9422   6
  -5  -2  -4 197.056 66.5644   4
  -5  -2  -6 2296.08 148.306   7
  -5  -2  -7 43402.6 663.434   7
  -5  -2  -8 1276.93 120.301   7
  -5  -2  -9 25931.2 538.629   7
  -5  -2 -10 9123.48 326.460   7
  -5  -2 -11 2533.13 176.820   7
  -5  -2 -12 302.270 70.3716   7
  -5  -2 -13 55576.4 776.645   7
  -5  -2 -14 4583.69 213.912   7
  -5  -2 -15 46416.6 618.305   7
  -5  -2 -16 8966.59 239.996   7
  -5  -2 -17 1447.90 81.0891   7
  -5  -2 -17 1550.11 88.2513   1
   5   3 -12 15372.7 251.568   7
  -5  -3  11 4454.12 155.817   6
  -5  -3  10 14906.1 326.635   6
  -5  -3   9 9494.70 286.193   6
  -5  -3   8 1716.84 135.614   6
  -5  -3   7 5498.57 243.509   6
  -5  -3   6 7089.55 231.106  11
  -5  -3   6 7306.09 278.674   6
  -5  -3   5 12563.8 312.754  11
  -5  -3   5 12678.3 359.661   6
  -5  -3   4 3919.88 174.566  11
  -5  -3   4 3919.17 195.816   6
  -5  -3   3 53013.5 628.221  11
  -5  -3   3 52814.4 683.589   6
  -5  -3   2 1411.34 105.185  11
  -5  -3   2 1279.44 108.496   6
  -5  -3   1 15189.2 325.365  11
  -5  -3   1 16240.1 360.266   6
  -5  -3   0 37365.9 541.198   6
  -5  -3  -4 105311. 1247.71   3
  -5  -3  -5 305.448 60.0794   7
  -5  -3  -5 251.494 71.2742   3
  -5  -3  -6 1299.19 117.193   7
  -5  -3  -6 1457.24 167.175   3
  -5  -3  -7 12941.6 369.200   7
  -5  -3  -7 12342.2 500.621   3
  -5  -3  -8 353.599 72.2125   7
  -5  -3  -8 269.266 78.0013   3
  -5  -3  -9 22825.3 518.194   7
  -5  -3  -9 23390.8 749.890   3
  -5  -3 -10 48.3198 41.0000   7
  -5  -3 -11 7119.50 299.818   7
  -5  -3 -12 3900.41 223.094   7
  -5  -3 -13 498.276 88.1729   7
  -5  -3 -14 3536.22 196.327   7
  -5  -3 -15 3127.15 170.192   7
  -5  -3 -16 6280.98 211.225   7
  -5  -3 -17 9827.08 220.141   7
  -5  -4  11 16698.8 281.146   6
  -5  -4  10 3736.73 159.460   6
  -5  -4   9 32258.6 511.461   6
  -5  -4   8 11580.7 332.862   6
  -5  -4   7 486.927 84.8487   6
  -5  -4   6 93.9842 53.0883   6
  -5  -4   5 17036.1 420.878   6
  -5  -4   4 9686.01 313.004   6
  -5  -4   3 423.200 71.8769   6
   5   4  -3 619.661 138.185   2
  -5  -4   2 5997.28 205.731  11
  -5  -4   2 6319.78 238.023   6
  -5  -4   1 8697.31 242.148  11
  -5  -4   1 9007.09 275.067   6
  -5  -4   0 14117.1 340.773   6
  -5  -4  -1 11435.0 304.925   6
  -5  -4  -2 11563.8 319.254   7
  -5  -4  -3 5922.55 227.884   7
  -5  -4  -4 575.934 77.6634   7
  -5  -4  -5 10926.7 321.859   7
  -5  -4  -5 11277.6 438.977   3
  -5  -4  -6 7322.81 272.087   7
  -5  -4  -6 6994.01 362.755   3
  -5  -4  -7 2535.43 167.432   7
  -5  -4  -7 2302.46 219.299   3
  -5  -4  -8 1994.45 154.892   7
  -5  -4  -8 1966.70 213.911   3
  -5  -4  -9 5864.74 269.756   7
  -5  -4  -9 6296.08 392.720   3
  -5  -4 -10 131515. 1288.97   7
  -5  -4 -11 48659.4 791.905   7
  -5  -4 -12 44249.9 749.122   7
  -5  -4 -13 8594.87 323.341   7
  -5  -4 -14 9247.85 319.096   7
  -5  -4 -15 1428.91 120.416   7
  -5  -4 -16 24409.9 419.362   7
  -5  -4 -17 32959.8 404.621   7
  -5  -5  11 14976.2 232.034   6
  -5  -5  10 750.043 71.2655   6
  -5  -5   9 5157.91 196.176   6
  -5  -5   8 2979.74 164.936   6
  -5  -5   7 31472.8 558.166   6
  -5  -5   6 91.1692 53.8810   6
  -5  -5   5 279.437 70.5663   6
  -5  -5   4 17857.0 429.498   6
  -5  -5   3 6806.31 259.537   6
  -5  -5   2 2833.64 166.952   6
  -5  -5   1 44351.3 627.638   6
  -5  -5   0 370.399 64.7099   6
  -5  -5  -1 3401.22 173.551   6
  -5  -5  -2 874.311 90.2904   6
  -5  -5  -3 5102.57 217.041   7
  -5  -5  -4 52367.3 685.402   7
  -5  -5  -5 169.240 52.2420   7
  -5  -5  -5 283.148 81.7092   3
  -5  -5  -6 53097.7 729.330   7
  -5  -5  -6 52000.9 1028.56   3
  -5  -5  -7 3254.90 188.631   7
  -5  -5  -7 3083.58 261.639   3
  -5  -5  -8 32012.7 601.544   7
  -5  -5  -8 31756.6 866.639   3
  -5  -5  -9 941.188 113.849   7
  -5  -5 -10 3147.51 202.977   7
  -5  -5 -11 3767.03 221.610   7
  -5  -5 -12 80.4067 51.0111   7
  -5  -5 -13 10324.3 350.178   7
  -5  -5 -14 2898.71 177.802   7
  -5  -5 -15 1484.08 118.261   7
  -5  -5 -16 61519.1 638.326   7
  -5  -5 -17 4268.49 139.601   7
  -5  -6  10 3867.03 127.255   6
  -5  -6   9 30447.1 421.876   6
  -5  -6   8 4128.79 176.599   6
  -5  -6   7 171.701 56.8649   6
  -5  -6   6 12105.1 342.548   6
  -5  -6   5 2614.56 167.537   6
   5   6  -5 2576.13 143.490   9
  -5  -6   4 3140.34 183.257   6
   5   6  -4 2854.25 154.963   9
  -5  -6   3 5646.88 239.984   6
  -5  -6   2 3235.92 179.771   6
  -5  -6   1 4824.20 213.667   6
  -5  -6   0 69194.6 785.411   6
  -5  -6  -1 33851.1 540.383   6
  -5  -6  -2 29534.9 509.469   6
  -5  -6  -3 7839.06 269.901   7
  -5  -6  -3 7683.82 257.975   6
  -5  -6  -4 3728.82 187.932   7
  -5  -6  -5 203.329 52.6092   7
  -5  -6  -6 10064.4 317.119   7
  -5  -6  -6 8906.69 441.587   3
  -5  -6  -7 10305.5 328.471   7
  -5  -6  -7 9916.75 483.013   3
  -5  -6  -8 8038.66 298.729   7
   5   6   8 8462.14 264.567   9
  -5  -6  -9 1833.11 149.783   7
   5   6   9 1797.71 127.742   9
  -5  -6 -10 10215.0 347.449   7
   5   6  10 10968.4 310.569   9
  -5  -6 -11 127.684 58.3203   7
   5   6  11 75.6046 43.7007   9
  -5  -6 -12 6138.93 267.212   7
   5   6  12 6415.86 231.062   9
  -5  -6 -13 940.422 105.543   7
   5   6  13 941.604 87.2079   9
  -5  -6 -14 10660.9 315.332   7
   5   6  14 10500.8 257.327   9
  -5  -6 -15 20706.9 393.813   7
   5   6  15 21011.9 319.000   9
  -5  -6 -16 1454.09 92.4711   7
  -5  -7   9 1851.14 87.4215   6
  -5  -7   8 3074.74 133.166   6
  -5  -7   7 392.301 61.3513   6
  -5  -7   6 13489.1 332.316   6
  -5  -7   5 66615.9 769.349   6
   5   7  -5 63979.4 680.822   9
  -5  -7   4 3641.87 189.032   6
   5   7  -4 3640.81 169.284   9
  -5  -7   3 7363.49 266.904   6
   5   7  -3 7546.01 244.750   9
  -5  -7   2 4508.84 210.074   6
   5   7  -2 4602.48 195.527   9
  -5  -7   1 38145.3 591.550   6
   5   7  -1 38555.9 569.015   9
  -5  -7   0 6786.37 247.838   6
   5   7   0 7011.70 245.269   9
  -5  -7  -1 21108.1 427.335   6
   5   7   1 20751.2 417.506   9
  -5  -7  -2 3370.89 171.794   6
   5   7   2 3237.74 166.330   9
  -5  -7  -3 30.3105 35.6961   6
   5   7   3 9.49991 37.0900   9
  -5  -7  -4 20392.0 422.532   6
   5   7   4 20289.0 411.974   9
  -5  -7  -5 10998.8 316.947   7
  -5  -7  -5 11053.0 309.166   6
   5   7   5 11365.6 309.357   9
  -5  -7  -6 20277.1 430.408   7
   5   7   6 20923.4 421.307   9
  -5  -7  -7 55059.0 723.118   7
   5   7   7 54315.2 682.915   9
  -5  -7  -8 67467.4 819.407   7
   5   7   8 69410.2 771.350   9
  -5  -7  -9 1240.84 118.123   7
   5   7   9 1287.28 110.497   9
  -5  -7 -10 2414.14 161.339   7
   5   7  10 2309.64 144.253   9
  -5  -7 -11 903.234 101.644   7
   5   7  11 959.154 93.0746   9
  -5  -7 -12 26831.5 506.032   7
   5   7  12 27141.1 459.883   9
  -5  -7 -13 13278.9 338.892   7
   5   7  13 13205.7 303.140   9
  -5  -7 -14 706.941 77.9064   7
   5   7  14 685.798 67.5414   9
  -5  -7 -15 7884.15 210.352   7
   5   7  15 7982.38 184.775   9
  -5  -8   7 1416.02 84.5423   6
  -5  -8   6 58.1508 35.4211   6
  -5  -8   5 777.650 80.7494   6
   5   8  -5 783.174 73.9600   9
  -5  -8   4 321.001 61.2146   6
   5   8  -4 331.965 55.5953   9
  -5  -8   3 3470.36 173.016   6
   5   8  -3 3574.20 163.601   9
  -5  -8   2 3559.60 179.731   6
   5   8  -2 3720.08 173.637   9
  -5  -8   1 44863.0 620.941   6
   5   8  -1 44544.4 605.354   9
  -5  -8   0 404.413 68.9209   6
   5   8   0 358.546 63.9207   9
  -5  -8  -1 931.681 94.1758   6
   5   8   1 923.815 97.6834   9
  -5  -8  -2 9933.80 287.599   6
   5   8   2 10332.9 300.879   9
  -5  -8  -3 20695.7 408.434   6
   5   8   3 20681.8 425.222   9
  -5  -8  -4 37272.1 543.528   6
   5   8   4 36121.3 564.517   9
  -5  -8  -5 5783.22 216.484   6
   5   8   5 5945.09 230.914   9
  -5  -8  -6 9693.85 279.935   6
   5   8   6 9701.87 294.601   9
  -5  -8  -7 15263.1 345.939   6
   5   8   7 15029.2 365.826   9
  -5  -8  -8 45132.5 588.116   6
   5   8   8 45572.7 633.657   9
   5   8   9 11994.8 321.453   9
  -5  -8 -10 20136.0 402.265   7
   5   8  10 20955.9 417.068   9
  -5  -8 -11 72.3669 36.8959   7
   5   8  11 147.640 44.0747   9
  -5  -8 -12 328.864 54.4736   7
   5   8  12 306.542 53.3793   9
  -5  -8 -13 8937.94 228.386   7
   5   8  13 9233.85 237.024   9
   5   8  14 7332.35 189.217   9
  -5  -9   5 2381.60 101.758   6
  -5  -9   4 1406.25 89.7037   6
   5   9  -4 1271.54 88.3562   9
  -5  -9   3 71927.4 662.523   6
   5   9  -3 71690.0 666.183   9
  -5  -9   2 14385.1 310.570   6
   5   9  -2 14594.7 315.113   9
  -5  -9   1 7564.84 232.796   6
   5   9  -1 7594.52 238.170   9
   5   9   0 6962.35 235.047   9
   5   9   1 312.328 62.5970   9
   5   9   2 18552.2 395.825   9
   5   9   3 16452.8 372.355   9
   5   9   4 17245.1 383.538   9
   5   9   5 157.273 49.6267   9
   5   9   6 3173.60 167.943   9
   5   9   7 22314.5 436.897   9
   5   9   8 1068.43 99.4837   9
   5   9   9 9393.37 275.059   9
   5   9  10 14494.1 330.779   9
   5   9  11 2103.26 122.870   9
   5   9  12 18286.9 330.907   9
   5   9  13 114.294 32.5628   9
   5   9  14 22058.2 279.699   9
   5  10  -3 382.650 48.6685   9
   5  10  -2 519.954 56.8097   9
   5  10  -1 24680.2 379.945   9
   5  10   0 3454.47 152.166   9
   5  10   1 4072.23 170.828   9
   5  10   2 57736.0 649.640   9
   5  10   3 20107.6 389.097   9
   5  10   4 7887.14 246.098   9
   5  10   5 32229.8 493.263   9
   5  10   6 6759.93 227.162   9
   5  10   7 26310.0 440.918   9
   5  10   8 1241.39 99.1379   9
   5  10   9 134.799 43.6249   9
   5  10  10 24247.2 384.992   9
   5  10  11 315.353 48.2153   9
   5  10  12 50.4466 26.3303   9
   5  11  -1 5643.89 151.153   9
   5  11   0 1294.02 79.3462   9
   5  11   1 1266.02 82.7987   9
   5  11   2 2269.06 114.481   9
   5  11   3 4940.23 170.066   9
   5  11   4 124.201 39.3934   9
   5  11   5 55.1535 34.2907   9
   5  11   6 6276.37 192.170   9
   5  11   7 18218.8 318.276   9
   5  11   8 20.4837 26.4766   9
   5  11   9 24187.8 339.805   9
   5  11  10 30.2339 23.2486   9
   5  12   3 16616.5 237.601   9
   5  12   4 996.128 62.6278   9
   5  12   5 810.792 57.5598   9
   5  12   6 445.783 44.6255   9
  -6   7   1 2217.01 106.887   1
  -6   7   0 181.010 38.5324   1
  -6   7  -1 7777.74 199.646   1
  -6   7  -2 8167.61 201.839   1
  -6   7  -3 41.9350 25.8836   1
  -6   7  -4 54.3705 25.9024   1
  -6   7  -5 2647.11 98.9543   1
  -6   6   3 15147.1 306.596   1
  -6   6   2 16965.5 338.221   1
  -6   6   1 1545.58 109.021   1
  -6   6   0 1474.96 108.423   1
  -6   6  -1 751.612 81.4431   1
  -6   6  -2 4866.90 190.474   1
  -6   6  -3 37419.0 515.103   1
  -6   6  -4 3603.65 158.517   1
  -6   6  -5 2384.57 124.494   1
  -6   6  -6 2572.08 121.759   1
  -6   6  -7 3393.06 128.981   1
  -6   6  -8 15964.8 246.573   1
  -6   5   6 3954.61 121.755  11
  -6   5   5 2086.99 96.2359  11
  -6   5   4 1277.33 80.2509  11
  -6   5   3 14552.9 336.313   1
  -6   5   2 24546.0 447.633   1
  -6   5   1 917.060 96.6901   1
  -6   5   0 84692.2 866.818   1
  -6   5  -1 62.1171 48.6688   1
  -6   5  -2 3484.05 180.366   1
  -6   5  -3 3143.03 170.592   1
  -6   5  -4 6633.63 240.030   1
  -6   5  -5 8745.09 269.049   1
  -6   5  -6 9031.83 265.009   1
  -6   5  -7 1225.30 97.0625   1
  -6   5  -7 1257.73 90.6436   8
  -6   5  -8 15480.3 311.027   1
  -6   5  -8 15354.7 297.567   8
  -6   5  -9 30086.6 397.265   1
  -6   5  -9 30510.4 397.724   8
  -6   5 -10 305.105 39.9220   1
  -6   5 -10 306.490 41.7255   8
  -6   4   8 6464.40 157.764  11
  -6   4   7 45.5793 30.7591  11
  -6   4   6 59911.6 582.218  11
  -6   4   5 11752.9 273.927  11
  -6   4   4 2466.18 132.496  11
  -6   4   4 2239.88 136.449   1
  -6   4   3 115.049 39.4907  11
  -6   4   3 146.169 49.7052   1
  -6   4   2 3788.41 189.619   1
  -6   4   2 3794.04 166.419  11
  -6   4   2 3701.04 203.152   5
  -6   4   1 26764.4 506.102   1
  -6   4   1 27515.3 439.241  11
  -6   4   0 8949.68 297.967   1
  -6   4  -1 316.634 67.6105   1
  -6   4  -2 3027.23 177.554   1
  -6   4  -3 915.569 103.322   1
  -6   4  -4 509.144 78.5586   1
  -6   4  -5 1154.90 110.935   1
  -6   4  -6 12342.9 339.725   1
  -6   4  -7 588.952 80.3945   1
  -6   4  -7 607.453 75.9503   8
  -6   4  -8 17563.4 378.204   1
  -6   4  -8 18146.8 376.643   8
  -6   4  -9 8257.28 246.879   1
  -6   4  -9 8027.29 242.978   8
  -6   4 -10 8586.53 233.387   1
  -6   4 -10 8905.20 241.169   8
  -6   4 -11 43719.6 470.810   1
  -6   4 -12 440.712 43.4041   1
  -6   3   9 7918.27 174.852  11
  -6   3   8 174.962 40.2680  11
  -6   3   7 16102.4 315.847  11
  -6   3   6 2882.33 147.119  11
  -6   3   5 2243.64 135.945  11
  -6   3   4 17304.2 377.145  11
  -6   3   4 17359.5 382.123   1
  -6   3   3 207.675 54.2171  11
  -6   3   3 203.038 50.6063   1
  -6   3   2 21284.4 451.155   1
  -6   3   2 21645.3 425.468  11
  -6   3   1 19444.6 438.628   1
  -6   3   1 19699.4 403.548  11
  -6   3   0 8151.52 288.542   1
  -6   3   0 8454.92 260.876  11
  -6   3  -1 21548.3 469.042   1
  -6   3  -1 22096.8 409.988  11
  -6   3  -2 12802.8 364.433   1
  -6   3  -2 13262.2 309.410  11
  -6   3  -3 37945.2 626.621   1
  -6   3  -4 40794.2 651.588   1
  -6   3  -5 63318.2 811.567   1
  -6   3  -6 8312.80 294.893   1
  -6   3  -7 19218.6 426.959   8
  -6   3  -7 19775.6 443.736   1
  -6   3  -8 294.821 63.1512   8
  -6   3  -8 326.363 65.1094   1
  -6   3  -9 139.120 49.1063   1
  -6   3  -9 186.382 56.4564   8
  -6   3 -10 11.7415 35.4104   1
  -6   3 -10 0.77952 35.0919   8
  -6   3 -11 1646.63 111.500   1
  -6   3 -11 1621.48 113.208   8
  -6   3 -12 323.531 49.8499   1
  -6   3 -13 255.075 38.1745   1
  -6   2  10 13138.6 202.563  11
  -6   2   9 5304.81 156.615  11
  -6   2   8 8990.10 230.676  11
  -6   2   7 12369.8 295.811  11
  -6   2   6 7524.91 247.113  11
  -6   2   5 6619.59 240.137  11
  -6   2   4 130.491 50.3827  11
  -6   2   4 77.5117 39.8169   1
  -6   2   3 29492.4 517.822  11
  -6   2   3 29104.9 505.068   1
  -6   2   2 473.115 73.1500   1
  -6   2   2 411.451 70.2490  11
  -6   2   1 6277.39 246.231   1
  -6   2   1 6262.13 236.259  11
  -6   2   0 41333.1 635.619   1
  -6   2   0 42852.6 602.942  11
  -6   2  -1 3905.78 199.656   1
  -6   2  -1 4212.35 188.914  11
  -6   2  -2 12555.4 316.888  11
  -6   2  -2 12354.1 354.442   1
  -6   2  -3 72233.9 741.326  11
  -6   2  -3 70623.8 850.136   1
  -6   2  -4 686.773 76.8370  11
  -6   2  -4 725.226 93.2646   1
  -6   2  -5 2313.24 160.697   1
  -6   2  -6 33030.7 592.860   1
  -6   2  -7 1819.47 144.299   1
  -6   2  -7 1769.56 140.044   8
  -6   2  -8 8129.58 293.449   1
  -6   2  -8 8289.52 296.474   8
  -6   2  -9 1203.40 115.445   1
  -6   2  -9 1007.94 108.814   8
  -6   2 -10 7268.56 260.768   1
  -6   2 -10 6724.65 258.338   8
  -6   2 -11 59185.1 701.406   1
  -6   2 -11 60568.8 729.319   8
  -6   2 -12 1719.67 116.322   1
  -6   2 -13 12186.6 269.162   1
  -6   2 -14 66.0142 25.9877   1
  -6   1  10 94.1592 27.3070  11
  -6   1   9 1282.81 82.2802  11
  -6   1   8 19556.9 350.157  11
  -6   1   7 418.217 65.5142  11
  -6   1   6 25507.5 462.734  11
  -6   1   5 14987.9 367.798  11
  -6   1   4 500.185 76.7955  11
  -6   1   3 38769.0 600.082  11
  -6   1   3 38238.2 559.646   1
  -6   1   2 4642.03 202.418   1
  -6   1   2 4810.85 212.244  11
  -6   1   1 93.1315 42.9483   1
  -6   1   1 94.5244 44.7897  11
  -6   1   0 15997.1 381.614   1
  -6   1   0 16196.8 379.413  11
  -6   1  -1 5277.67 222.794   1
  -6   1  -1 4685.02 202.251  11
  -6   1  -2 1594.28 118.814  11
  -6   1  -2 1528.23 124.913   1
  -6   1  -3 29.0961 33.6901  11
  -6   1  -3 57.6353 38.8591   1
  -6   1  -4 3872.34 200.062   1
  -6   1  -5 6158.42 255.236   1
  -6   1  -6 38034.6 634.588   1
  -6   1  -7 42.3832 39.2214   8
  -6   1  -7 47.4584 44.6259   1
  -6   1  -8 39698.9 650.501   1
  -6   1  -8 38366.1 653.369   8
  -6   1  -9 4108.51 211.869   1
  -6   1  -9 4033.24 214.910   8
  -6   1 -10 1524.69 129.121   1
  -6   1 -10 1647.41 138.099   8
  -6   1 -11 3388.63 180.089   1
  -6   1 -12 286.764 60.9055   1
  -6   1 -13 12363.5 295.660   1
  -6   1 -14 241.339 44.5444   1
  -6   1 -15 179.742 32.8617   1
  -6   0  10 69.5836 24.4762  11
  -6   0   9 8706.52 204.530  11
  -6   0   8 8540.07 231.910  11
  -6   0   7 6939.59 229.477  11
  -6   0   6 3432.63 173.641  11
  -6   0   5 4969.29 213.096  11
  -6   0   4 7785.33 269.055  11
  -6   0   3 23554.1 467.230  11
  -6   0   2 101.090 47.5544  11
  -6   0   1 15227.8 373.860  11
  -6   0   0 16865.6 385.319  11
  -6   0  -1 49847.8 647.846   1
  -6   0  -1 48744.9 646.095  11
  -6   0  -2 101147. 909.456  11
  -6   0  -2 103922. 953.481   1
  -6   0  -3 6038.95 383.019   4
  -6   0  -3 6376.27 242.856   1
  -6   0  -4 19834.4 433.749   1
  -6   0  -4 18690.2 671.169   4
  -6   0  -5 4849.54 350.889   4
  -6   0  -5 5300.25 220.269   7
  -6   0  -5 5307.14 230.529   1
  -6   0  -6 9515.14 292.730   7
  -6   0  -6 9748.23 316.432   1
  -6   0  -7 33164.9 546.378   7
  -6   0  -7 32555.4 586.538   1
  -6   0  -8 40.5220 37.1756   7
  -6   0  -8 78.1226 43.6396   1
  -6   0  -9 14914.0 366.168   7
  -6   0  -9 14949.9 402.563   1
  -6   0 -10 122.135 45.2155   7
  -6   0 -10 101.568 49.4359   1
  -6   0 -11 6143.64 222.551   7
  -6   0 -11 6431.45 254.244   1
  -6   0 -12 4393.13 176.901   7
  -6   0 -12 4304.99 200.992   1
  -6   0 -13 116.204 46.5147   1
  -6   0 -14 16339.8 330.375   1
  -6   0 -15 374.898 48.1745   1
  -6  -1   9 20407.8 293.032  11
  -6  -1   8 13420.5 279.064  11
  -6  -1   7 95.6058 41.1989  11
  -6  -1   6 18.0962 36.8008  11
  -6  -1   6 80.2378 37.6966   6
  -6  -1   5 4782.19 205.779  11
  -6  -1   5 4830.05 201.567   6
  -6  -1   4 12360.9 334.169  11
  -6  -1   4 11572.9 314.891   6
  -6  -1   3 12552.9 336.831  11
  -6  -1   3 12319.1 323.732   6
  -6  -1   2 2950.87 165.573  11
  -6  -1   2 3038.47 159.502   6
  -6  -1   1 1575.31 124.005  11
  -6  -1   1 1608.43 116.960   6
  -6  -1   0 56626.1 703.635  11
  -6  -1   0 57127.9 671.749   6
  -6  -1  -1 1225.96 105.639  11
  -6  -1  -1 1235.04 102.974   6
  -6  -1  -2 5907.20 218.297   6
  -6  -1  -4 15833.0 371.240   1
  -6  -1  -4 16222.1 397.523   7
  -6  -1  -5 3529.33 187.317   7
  -6  -1  -5 3613.34 185.212   1
  -6  -1  -6 18617.6 427.262   7
  -6  -1  -6 18702.6 425.274   1
  -6  -1  -7 4973.40 226.833   7
  -6  -1  -7 4772.85 222.117   1
  -6  -1  -8 53018.2 738.394   7
  -6  -1  -8 52939.3 744.646   1
  -6  -1  -9 55871.4 756.275   7
  -6  -1  -9 56063.8 773.982   1
  -6  -1 -10 32721.6 588.956   1
  -6  -1 -10 32355.3 572.057   7
  -6  -1 -11 305.036 69.0096   1
  -6  -1 -11 427.630 70.2150   7
  -6  -1 -12 9247.75 298.761   1
  -6  -1 -12 9153.42 284.347   7
  -6  -1 -13 17634.6 388.926   1
  -6  -1 -13 17883.6 368.482   7
  -6  -1 -14 951.258 79.7608   7
  -6  -1 -14 878.184 85.6973   1
  -6  -1 -15 5494.76 155.498   7
  -6  -1 -15 6046.38 187.997   1
  -6  -1 -16 1826.58 87.7394   1
  -6  -2   9 17473.1 284.533   6
  -6  -2   8 3243.85 127.877  11
  -6  -2   8 3461.07 150.639   6
  -6  -2   7 7757.88 222.142  11
  -6  -2   7 8047.18 248.853   6
  -6  -2   6 79.0049 37.3060  11
  -6  -2   6 155.382 50.5738   6
  -6  -2   5 1638.77 119.459  11
  -6  -2   5 1645.46 126.447   6
  -6  -2   4 2829.81 158.197  11
  -6  -2   4 2881.53 165.607   6
  -6  -2   3 26022.8 473.263  11
  -6  -2   3 25696.5 481.388   6
  -6  -2   2 61787.6 732.220  11
  -6  -2   2 60940.7 730.792   6
  -6  -2   1 73162.8 792.775  11
  -6  -2   1 73136.4 785.035   6
  -6  -2   0 14661.6 352.192  11
  -6  -2   0 15055.0 356.139   6
  -6  -2  -1 15342.2 362.658   6
  -6  -2  -2 3291.42 170.786   6
  -6  -2  -3 3702.13 196.425   7
  -6  -2  -4 43769.0 668.018   7
  -6  -2  -5 81488.2 907.816   7
  -6  -2  -6 184.193 57.1030   7
  -6  -2  -7 849.164 104.367   7
  -6  -2  -7 915.381 99.4150   1
  -6  -2  -8 6617.82 274.569   7
  -6  -2  -8 6707.90 262.043   1
  -6  -2  -9 11325.7 343.574   1
  -6  -2  -9 11449.3 362.244   7
  -6  -2 -10 16147.6 428.180   7
  -6  -2 -10 15998.7 410.064   1
  -6  -2 -11 1673.35 139.721   7
  -6  -2 -11 1706.59 136.945   1
  -6  -2 -12 7084.96 269.239   7
  -6  -2 -12 7599.02 273.967   1
  -6  -2 -13 510.187 73.9918   1
  -6  -2 -13 281.468 60.9476   7
  -6  -2 -14 41783.8 556.779   7
  -6  -2 -14 42219.1 562.576   1
  -6  -2 -15 6193.84 190.100   7
  -6  -2 -15 6168.28 195.143   1
  -6  -2 -16 4170.41 125.952   7
  -6  -2 -16 4278.71 138.410   1
  -6  -3   9 2581.82 115.854   6
  -6  -3   8 2979.38 141.627   6
  -6  -3   7 12201.7 311.903   6
  -6  -3   6 288.956 49.2226  11
  -6  -3   6 347.204 67.2175   6
  -6  -3   5 3852.99 169.417  11
  -6  -3   5 4128.82 199.781   6
  -6  -3   4 200.428 68.2984  11
  -6  -3   4 65.9913 51.5054   6
  -6  -3   3 225790. 1349.63  11
  -6  -3   3 227120. 1459.71   6
  -6  -3   2 78340.7 801.784  11
  -6  -3   2 79164.0 850.984   6
  -6  -3   1 118925. 988.834  11
  -6  -3   1 120042. 1035.76   6
  -6  -3   0 988.982 96.0301  11
  -6  -3   0 995.895 100.416   6
  -6  -3  -1-8.04235 42.5664   6
  -6  -3  -2 18640.0 408.247   6
  -6  -3  -3 871.592 102.491   7
  -6  -3  -4 1877.84 145.123   7
  -6  -3  -5 38965.1 642.495   7
  -6  -3  -6 940.147 106.301   7
  -6  -3  -7 12517.3 380.610   7
  -6  -3  -8 34196.1 635.899   7
  -6  -3  -9 19247.5 482.906   7
  -6  -3  -9 19742.7 439.810   1
  -6  -3 -10 2386.87 173.798   7
  -6  -3 -10 2295.02 154.819   1
  -6  -3 -11 7409.80 296.592   7
  -6  -3 -12 26749.0 544.242   7
  -6  -3 -13 16673.1 407.419   7
  -6  -3 -14 8255.84 264.238   7
  -6  -3 -14 8406.61 252.851   1
  -6  -3 -15 1341.07 93.3396   1
  -6  -3 -15 1376.18 100.368   7
  -6  -3 -16 8779.61 201.370   7
  -6  -3 -16 8430.31 192.505   1
  -6  -4   9 14018.1 254.830   6
  -6  -4   8 874.255 79.7896   6
  -6  -4   7 2619.38 145.600   6
  -6  -4   6 130.204 48.9211   6
  -6  -4   5 10090.3 309.251   6
  -6  -4   4 26475.1 423.745  11
  -6  -4   4 26857.5 511.106   6
  -6  -4   3 8483.25 249.386  11
  -6  -4   3 8391.32 287.211   6
  -6  -4   2 51346.8 627.069  11
  -6  -4   2 52237.0 706.283   6
  -6  -4   1 9699.77 275.537  11
  -6  -4   1 9702.65 302.327   6
  -6  -4   0 9933.19 280.215  11
  -6  -4   0 9903.78 301.985   6
  -6  -4  -1 6025.53 237.597   6
  -6  -4  -2 1148.79 109.974   6
  -6  -4  -3 71195.9 814.009   6
  -6  -4  -4 757.910 100.222   7
  -6  -4  -5 14839.5 400.875   7
  -6  -4  -6 22289.9 501.437   7
  -6  -4  -7 9045.77 328.725   7
  -6  -4  -8 18722.1 479.999   7
  -6  -4  -9 5922.98 274.605   7
  -6  -4 -10 95746.8 1089.53   7
  -6  -4 -11 916.181 117.591   7
  -6  -4 -12 3689.19 209.383   7
  -6  -4 -13 1593.90 133.787   7
  -6  -4 -14 3967.10 188.722   7
  -6  -4 -14 3768.73 164.698   1
  -6  -4 -15 4065.85 168.467   7
  -6  -4 -15 4021.11 150.966   1
  -6  -4 -16 2429.00 111.069   7
  -6  -4 -16 2228.43 93.3932   1
  -6  -5   9 98.8234 28.1010   6
  -6  -5   8 276.080 47.4321   6
  -6  -5   7 2745.45 141.523   6
  -6  -5   6 3207.59 166.967   6
  -6  -5   5 568.070 82.3635   6
  -6  -5   4 39.1228 40.8766   6
  -6  -5   3 2370.37 155.962   6
  -6  -5   2 46.4295 40.8087   6
  -6  -5   1 5974.84 207.055  11
  -6  -5   1 6350.44 247.893   6
  -6  -5   0 16318.6 346.357  11
  -6  -5   0 16682.1 395.470   6
  -6  -5  -1 1092.85 106.317   6
  -6  -5  -2 3037.67 173.145   6
  -6  -5  -3 9276.06 299.741   6
  -6  -5  -4 70889.2 873.616   7
  -6  -5  -4 70567.3 821.874   6
  -6  -5  -5 71777.2 881.872   7
  -6  -5  -6 79.4335 45.6306   7
  -6  -5  -7 2995.48 190.768   7
  -6  -5  -8 28094.4 578.704   7
  -6  -5  -9 3670.54 214.963   7
  -6  -5 -10 27481.5 579.221   7
  -6  -5 -11 80424.2 974.087   7
  -6  -5 -12 8018.33 299.936   7
  -6  -5 -13 7880.43 282.008   7
  -6  -5 -14 3842.93 182.122   7
  -6  -5 -15 6712.90 211.238   7
  -6  -5 -16 72287.4 572.890   7
  -6  -6   8 3.85367 23.8494   6
  -6  -6   7 3575.96 145.373   6
  -6  -6   6 58433.0 643.418   6
  -6  -6   5 7240.20 244.092   6
  -6  -6   4 59.6686 47.7045   6
  -6  -6   3 3633.91 186.779   6
  -6  -6   2 3186.59 177.232   6
  -6  -6   1 28273.6 515.022   6
  -6  -6   0 2901.56 167.060   6
  -6  -6  -1 464.359 75.3290   6
  -6  -6  -2 6173.51 241.227   6
  -6  -6  -3 5421.18 230.986   6
  -6  -6  -4 412.956 72.3107   6
  -6  -6  -5 7522.16 283.769   7
  -6  -6  -5 7437.82 269.583   6
  -6  -6  -6 2949.48 182.037   7
  -6  -6  -7 5657.86 250.121   7
  -6  -6  -8 11470.2 358.555   7
  -6  -6  -9-0.70766 47.2317   7
  -6  -6 -10 134.232 61.6103   7
  -6  -6 -11 19906.5 466.163   7
  -6  -6 -12 8751.78 297.859   7
  -6  -6 -13 16906.8 387.303   7
  -6  -6 -14 1018.43 91.5129   7
  -6  -6 -15 7743.91 207.986   7
  -6  -7   7 195.593 36.4296   6
  -6  -7   6 228.998 45.3876   6
  -6  -7   5 2953.00 144.698   6
  -6  -7   4 4517.79 188.400   6
  -6  -7   3 15735.1 363.292   6
  -6  -7   2 8204.65 267.621   6
  -6  -7   1 461.706 74.4011   6
  -6  -7   0 1454.50 119.144   6
  -6  -7  -1 24252.8 464.771   6
  -6  -7  -2 871.524 94.1973   6
  -6  -7  -3 6439.75 241.252   6
  -6  -7  -4 30486.9 523.161   6
  -6  -7  -5 2207.80 147.051   6
  -6  -7  -6 61801.3 777.808   7
  -6  -7  -6 63939.7 762.776   6
  -6  -7  -7 53796.3 734.205   7
  -6  -7  -7 55175.5 706.085   6
  -6  -7  -8 1085.60 109.751   7
  -6  -7  -9 6761.95 259.294   7
  -6  -7 -10 5505.24 230.592   7
  -6  -7 -11 360.445 65.0954   7
  -6  -7 -12 14710.2 346.803   7
  -6  -7 -13 46.1899 34.3232   7
  -6  -7 -14 5160.98 169.982   7
  -6  -8   5 2659.54 113.044   6
  -6  -8   4 6407.60 193.666   6
  -6  -8   3 6936.44 215.155   6
  -6  -8   2 12529.3 301.894   6
  -6  -8   1 1446.07 110.329   6
  -6  -8   0 4254.98 186.522   6
  -6  -8  -1 1240.29 103.695   6
  -6  -8  -2 123.737 43.3956   6
  -6  -8  -3 24119.7 437.352   6
  -6  -8  -4 4918.20 199.715   6
  -6  -8  -5 2405.29 142.644   6
  -6  -8  -6 31697.0 499.433   6
  -6  -8  -7 5855.58 217.564   6
  -6  -8  -8 6606.08 225.535   6
  -6  -8  -9 24612.1 440.202   7
  -6  -8  -9 25333.0 426.305   6
  -6  -8 -10 2739.35 144.860   7
  -6  -8 -10 2883.49 139.856   6
  -6  -8 -11 43127.0 536.641   7
  -6  -8 -11 43926.8 502.276   6
  -6  -8 -12 3024.82 135.136   7
  -6  -8 -12 2933.67 119.050   6
  -6  -8 -13 2788.27 114.031   7
  -6  -9   3 13424.7 237.468   6
  -6  -9   2 524.709 57.1417   6
  -6  -9   1 1096.88 83.9368   6
  -6  -9   0 4086.19 160.307   6
  -6  -9  -1 5478.52 188.455   6
   6   9   1 5655.88 180.825   9
  -6  -9  -2 5654.04 192.180   6
   6   9   2 5858.94 190.650   9
  -6  -9  -3 8392.13 232.683   6
   6   9   3 8631.20 237.138   9
  -6  -9  -4 816.296 77.0217   6
   6   9   4 828.914 79.4101   9
  -6  -9  -5 15884.4 312.510   6
   6   9   5 15592.6 324.388   9
  -6  -9  -6 159.623 38.7943   6
   6   9   6-23.9954 37.4539   9
   6   9   7 1645.59 106.551   9
   6   9   8 40931.6 504.452   9
   6   9   9 4283.12 158.568   9
   6   9  10 2124.45 105.974   9
   6  10   1 17190.1 269.911   9
   6  10   2 31577.8 383.917   9
   6  10   3 26527.9 367.637   9
   6  10   4 1354.08 88.7687   9
   6  10   5 15099.1 288.297   9
   6  10   6 14632.9 281.071   9
   6  10   7 5990.60 177.885   9
   6  10   8 231.879 41.0483   9
   6  10   9 3583.63 124.145   9
  -7   6  -1 2117.10 87.2346   1
  -7   6  -2 826.954 56.6221   1
  -7   5   1 4194.11 143.454   1
  -7   5   0 37389.1 439.168   1
  -7   5  -1 5655.66 176.450   1
  -7   5  -2 666.437 65.7845   1
  -7   5  -3 667.406 65.5087   1
  -7   5  -4 154.982 36.2345   1
  -7   5  -5 3705.09 136.648   1
  -7   5  -6 5070.13 151.247   1
  -7   5  -7 22530.3 293.619   1
  -7   4   3 397.424 41.2475  11
  -7   4   2 4260.49 154.788   1
  -7   4   1 42.7270 32.0731   1
  -7   4   0 25443.6 407.908   1
  -7   4  -1 25646.0 422.513   1
  -7   4  -2 7946.26 238.894   1
  -7   4  -3 9768.89 263.905   1
  -7   4  -4 175.547 45.9032   1
  -7   4  -5 1456.50 102.661   1
  -7   4  -6 19799.8 352.916   1
  -7   4  -7 7459.24 207.789   1
  -7   4  -8 393.892 50.3813   1
  -7   4  -9 2607.33 105.943   1
  -7   3   6 12.4621 18.1868  11
  -7   3   5 449.727 48.9010  11
  -7   3   4 126.703 34.4709  11
  -7   3   3 8540.44 214.844  11
  -7   3   2 43506.5 497.209  11
  -7   3   2 42152.4 521.348   1
  -7   3   1 956.725 79.5371  11
  -7   3   1 916.416 84.5006   1
  -7   3   0 3073.51 154.685   1
  -7   3   0 3123.84 137.541  11
  -7   3  -1 62.8552 37.7026   1
  -7   3  -1 59.0200 32.5370  11
  -7   3  -2 134.076 44.4775   1
  -7   3  -3 30081.0 495.536   1
  -7   3  -4 28026.3 478.217   1
  -7   3  -5 2349.76 140.908   1
  -7   3  -6 192.945 51.2196   1
  -7   3  -7 6726.00 221.819   1
  -7   3  -8 16322.9 328.808   1
  -7   3  -9 19521.7 338.843   1
  -7   3 -10 30912.0 389.295   1
  -7   3 -11 4173.51 127.871   1
  -7   2   7 2841.55 98.3900  11
  -7   2   6 432.182 49.1563  11
  -7   2   5 16136.7 293.455  11
  -7   2   4 14354.8 297.209  11
  -7   2   3 21691.4 381.633  11
  -7   2   2 908.937 85.9578  11
  -7   2   2 883.068 81.1139   1
  -7   2   1 3523.46 161.561  11
  -7   2   1 3486.80 161.376   1
  -7   2   0 2769.92 150.481   1
  -7   2   0 2829.21 146.651  11
  -7   2  -1 236.230 54.5884   1
  -7   2  -1 308.657 56.2479  11
  -7   2  -2 3963.10 186.714   1
  -7   2  -2 4038.38 168.758  11
  -7   2  -3 6305.24 237.199   1
  -7   2  -3 6571.20 209.030  11
  -7   2  -4 36101.0 565.091   1
  -7   2  -4 36646.2 471.702  11
  -7   2  -5 4945.63 212.774   1
  -7   2  -6 43354.1 611.556   1
  -7   2  -7 5771.55 221.916   1
  -7   2  -8 120.496 46.4823   1
  -7   2  -9 855.932 83.8739   1
  -7   2 -10 163.695 43.1482   1
  -7   2 -11 51480.5 525.387   1
  -7   2 -12 384.713 44.3981   1
  -7   1   7 43.1954 23.9325  11
  -7   1   6 3675.72 139.437  11
  -7   1   5 15.0172 31.9249  11
  -7   1   4 9368.85 255.897  11
  -7   1   3 872.689 86.8755  11
  -7   1   2 4322.02 187.290  11
  -7   1   1 22177.2 424.477  11
  -7   1   0 9980.33 278.980   1
  -7   1   0 10362.0 290.287  11
  -7   1  -1 39858.6 573.125   1
  -7   1  -1 40763.0 569.962  11
  -7   1  -2 498.959 74.1061   1
  -7   1  -2 425.267 65.6728  11
  -7   1  -3 1559.40 121.591   1
  -7   1  -3 1603.50 114.179  11
  -7   1  -4 8355.73 247.419  11
  -7   1  -4 8275.91 274.779   1
  -7   1  -5 1191.05 94.3340  11
  -7   1  -5 1328.41 116.439   1
  -7   1  -6 28196.5 426.084  11
  -7   1  -6 28722.1 513.698   1
  -7   1  -7 12395.2 266.437  11
  -7   1  -7 12448.5 336.217   1
  -7   1  -8 2794.98 160.262   1
  -7   1  -9 18766.6 391.818   1
  -7   1 -10 595.344 73.6845   1
  -7   1 -11 5496.45 191.130   1
  -7   1 -12 34514.1 432.721   1
  -7   1 -13 197.720 34.7308   1
  -7   0   7 6560.26 165.717  11
  -7   0   6 6361.13 185.964  11
  -7   0   5 39956.4 507.307  11
  -7   0   4 553.517 71.5096  11
  -7   0   3 2383.47 141.864  11
  -7   0   2 432.125 70.1521  11
  -7   0   1 726.879 86.4827  11
  -7   0   0 7311.02 252.586  11
  -7   0  -1 29.3923 39.8789  11
  -7   0  -2 345.008 64.2315  11
  -7   0  -3 656.702 78.6004   1
  -7   0  -3 680.114 82.0953  11
  -7   0  -4 5651.11 215.474  11
  -7   0  -4 5715.03 226.135   1
  -7   0  -5 26460.0 449.564  11
  -7   0  -5 26839.6 493.893   1
  -7   0  -6 1602.04 110.871  11
  -7   0  -6 1631.63 129.014   1
  -7   0  -7 7208.10 260.488   1
  -7   0  -8 38105.5 591.882   1
  -7   0  -9 86999.9 872.940   1
  -7   0 -10 957.840 93.4084   1
  -7   0 -11 1204.32 97.5515   1
  -7   0 -12 6145.50 198.334   1
  -7   0 -13 13016.6 257.463   1
  -7   0 -14 57930.7 459.022   1
  -7  -1   7 7876.06 175.634  11
  -7  -1   6 1109.61 80.6823  11
  -7  -1   5 4350.82 168.254  11
  -7  -1   4 54.8245 39.2247  11
  -7  -1   3 4646.69 194.985  11
  -7  -1   2 3479.66 173.433  11
  -7  -1   1 969.240 99.6289  11
  -7  -1   0 4554.00 202.787  11
  -7  -1  -1 16491.5 381.062  11
  -7  -1  -1 15931.1 340.786   6
  -7  -1  -2 12000.0 325.775  11
  -7  -1  -2 11827.7 296.822   6
  -7  -1  -3 810.380 90.0587  11
  -7  -1  -3 1073.94 94.5511   6
  -7  -1  -4 3487.28 173.597  11
  -7  -1  -4 3691.21 173.127   6
  -7  -1  -5 15388.7 348.951   6
  -7  -1  -5 15462.7 363.677   1
  -7  -1  -6 21502.4 436.414   1
  -7  -1  -7 4646.01 208.629   1
  -7  -1  -7 4568.64 209.006   7
  -7  -1  -8 56907.7 720.442   1
  -7  -1  -8 57376.5 710.949   7
  -7  -1  -9 3080.56 162.438   7
  -7  -1  -9 3005.97 166.829   1
  -7  -1 -10 20495.0 392.866   7
  -7  -1 -10 20233.8 414.596   1
  -7  -1 -11 10634.4 264.792   7
  -7  -1 -11 10867.1 292.044   1
  -7  -1 -12 821.086 71.0784   7
  -7  -1 -12 732.145 75.2224   1
  -7  -1 -13 3190.68 136.134   1
  -7  -1 -14 5583.90 155.386   1
  -7  -2   7 769.109 52.2577  11
  -7  -2   6 306.458 43.3738  11
  -7  -2   5 1074.01 83.8762  11
  -7  -2   5 1124.45 86.3467   6
  -7  -2   4 13661.0 305.491  11
  -7  -2   4 13556.1 303.049   6
  -7  -2   3 1381.12 107.690  11
  -7  -2   3 1412.28 106.271   6
  -7  -2   2 4677.19 196.203  11
  -7  -2   2 4313.41 185.446   6
  -7  -2   1 3619.59 177.357  11
  -7  -2   1 3471.86 168.194   6
  -7  -2   0 5138.69 212.701  11
  -7  -2   0 4753.63 198.040   6
  -7  -2  -1 1078.02 103.957  11
  -7  -2  -1 905.627 91.8534   6
  -7  -2  -2 3971.92 189.726  11
  -7  -2  -2 3935.02 182.201   6
  -7  -2  -3 13379.9 341.889  11
  -7  -2  -3 13632.0 344.258   6
  -7  -2  -4 15962.2 375.521   6
  -7  -2  -5 14999.7 364.906   6
  -7  -2  -6 135.573 54.6464   7
  -7  -2  -7 28877.6 545.516   7
  -7  -2  -8 2692.37 155.323   1
  -7  -2  -8 2561.31 163.275   7
  -7  -2  -9 1647.68 130.059   7
  -7  -2  -9 1838.87 129.520   1
  -7  -2 -10 13183.8 341.511   7
  -7  -2 -10 13317.7 334.290   1
  -7  -2 -11 3294.00 164.631   7
  -7  -2 -11 3302.10 162.395   1
  -7  -2 -12 54438.8 607.261   7
  -7  -2 -12 54000.1 608.970   1
  -7  -2 -13 3027.01 130.959   7
  -7  -2 -13 3035.30 134.565   1
  -7  -2 -14 9423.03 194.408   7
  -7  -2 -14 9508.00 206.557   1
  -7  -3   6 7443.23 194.501   6
  -7  -3   5 7159.12 189.614  11
  -7  -3   5 7015.89 213.679   6
  -7  -3   4 4771.68 171.183  11
  -7  -3   4 4629.38 184.931   6
  -7  -3   3 49055.4 581.669  11
  -7  -3   3 49901.7 625.321   6
  -7  -3   2 66.2582 39.0244  11
  -7  -3   2 36.0463 39.8886   6
  -7  -3   1 1080.19 97.9420  11
  -7  -3   1 1065.77 100.500   6
  -7  -3   0 1680.00 123.523  11
  -7  -3   0 1565.14 122.294   6
  -7  -3  -1 366.511 64.8381  11
  -7  -3  -1 301.299 60.8413   6
  -7  -3  -2 158.411 49.4775  11
  -7  -3  -2 137.587 48.4214   6
  -7  -3  -3 8.99344 36.9220   6
  -7  -3  -4 12986.4 349.971   6
  -7  -3  -5 6567.35 250.555   6
  -7  -3  -6 29650.7 573.727   7
  -7  -3  -7 52.2414 49.7921   7
  -7  -3  -8 6787.62 272.081   7
  -7  -3  -9 549.309 85.3565   7
  -7  -3 -10 7727.51 277.480   7
  -7  -3 -11 1431.97 119.678   7
  -7  -3 -11 1422.59 104.470   1
  -7  -3 -12 36167.5 532.516   7
  -7  -3 -12 35133.5 474.836   1
  -7  -3 -13 1212.93 92.3416   7
  -7  -3 -13 1166.43 82.5695   1
  -7  -3 -14 20174.2 315.632   7
  -7  -3 -14 18162.2 273.162   1
  -7  -4   6 2475.16 114.294   6
  -7  -4   5 6944.31 210.786   6
  -7  -4   4 14648.0 265.416  11
  -7  -4   4 15193.0 330.733   6
  -7  -4   3 50.0493 28.3340  11
  -7  -4   3 119.751 48.9792   6
  -7  -4   2 11453.7 275.909  11
  -7  -4   2 11473.4 312.361   6
  -7  -4   1 13086.4 307.151  11
  -7  -4   1 13521.7 343.140   6
  -7  -4   0 410.691 64.7468  11
  -7  -4   0 377.331 69.4425   6
  -7  -4  -1 392.547 64.4677  11
  -7  -4  -1 344.940 66.2912   6
  -7  -4  -2 1955.68 129.476  11
  -7  -4  -2 1969.72 138.926   6
  -7  -4  -3 43019.1 635.940   6
  -7  -4  -4 3164.02 178.508   6
  -7  -4  -5 5064.60 224.640   6
  -7  -4  -6 4321.81 224.254   7
  -7  -4  -7 353.928 75.6769   7
  -7  -4  -8 10785.0 347.994   7
  -7  -4  -9 11.2062 40.3485   7
  -7  -4 -10 5536.68 240.717   7
  -7  -4 -11 863.161 96.6351   7
  -7  -4 -12 1824.87 127.098   7
  -7  -4 -13 383.465 59.4747   7
  -7  -4 -14 9559.52 227.695   7
  -7  -5   6 12629.5 237.157   6
  -7  -5   5 7703.00 213.101   6
  -7  -5   4 6.12731 33.1011   6
  -7  -5   3 83.0174 45.1119   6
  -7  -5   2 11211.8 303.168   6
  -7  -5   1 12919.9 279.177  11
  -7  -5   1 13377.9 337.742   6
  -7  -5   0 9115.85 248.706  11
  -7  -5   0 9306.73 284.769   6
  -7  -5  -1 4903.06 189.970  11
  -7  -5  -1 5153.21 215.678   6
  -7  -5  -2 1872.07 123.764  11
  -7  -5  -2 1699.28 128.553   6
  -7  -5  -3 46.5742 43.2294   6
  -7  -5  -4 5086.88 224.022   6
  -7  -5  -5 5260.54 230.024   6
  -7  -5  -6 2738.45 166.657   6
  -7  -5  -7-20.4367 52.8262   7
  -7  -5  -8 2159.72 160.104   7
  -7  -5  -9 74474.7 890.612   7
  -7  -5 -10 32446.5 571.157   7
  -7  -5 -11 29558.7 521.941   7
  -7  -5 -12 2433.48 144.263   7
  -7  -5 -13 4080.89 168.687   7
  -7  -5 -14 518.055 58.0057   7
  -7  -6   5 5534.16 164.496   6
  -7  -6   4 1869.08 109.648   6
  -7  -6   3 733.323 77.5134   6
  -7  -6   2 13636.9 320.442   6
  -7  -6   1 143.079 49.2109   6
  -7  -6   0 2004.42 133.883   6
  -7  -6  -1 161.955 40.5221  11
  -7  -6  -1 225.182 56.8185   6
  -7  -6  -2 5239.40 184.976  11
  -7  -6  -2 5573.17 222.247   6
  -7  -6  -3 23138.4 397.444  11
  -7  -6  -3 23904.7 457.345   6
  -7  -6  -4 428.599 74.8386   6
  -7  -6  -5 19568.0 428.485   6
  -7  -6  -6 188.249 57.9679   6
  -7  -6  -7 27503.4 503.872   6
  -7  -6  -8 623.892 89.6708   7
  -7  -6  -8 640.701 85.1932   6
  -7  -6  -9 5166.82 229.166   7
  -7  -6 -10 1812.17 133.488   7
  -7  -6 -11 328.615 62.4532   7
  -7  -6 -12 4040.67 174.175   7
  -7  -6 -13 414.216 56.6241   7
  -7  -6 -14 199.809 37.4077   7
  -7  -7   4 8180.41 194.699   6
  -7  -7   3 302.059 49.7487   6
  -7  -7   2 4094.42 163.364   6
  -7  -7   1 16091.0 335.662   6
  -7  -7   0 5465.37 203.802   6
  -7  -7  -1 27896.5 459.944   6
  -7  -7  -2 568.252 74.9255   6
  -7  -7  -3 921.523 91.7475   6
  -7  -7  -4 154.692 38.9190  11
  -7  -7  -4 148.234 49.3150   6
  -7  -7  -5 3315.34 166.146   6
  -7  -7  -6 4502.90 194.200   6
  -7  -7  -7 2617.86 149.557   6
  -7  -7  -8 779.287 85.6024   6
  -7  -7  -9 4034.31 176.685   6
  -7  -7 -10 366.168 62.1927   7
  -7  -7 -10 326.868 56.3390   6
  -7  -7 -11 4167.05 172.344   7
  -7  -7 -11 3967.30 157.365   6
  -7  -7 -12 257.050 45.6172   7
  -7  -7 -12 215.054 40.3251   6
  -7  -7 -13 10174.8 197.478   6
  -7  -8   3 494.255 47.8916   6
  -7  -8   2 28862.0 370.548   6
  -7  -8   1 6821.87 193.839   6
  -7  -8   0 14228.0 291.261   6
  -7  -8  -1 3295.16 147.004   6
  -7  -8  -2 85.4727 40.8048   6
  -7  -8  -3 17458.2 341.202   6
  -7  -8  -4 1273.97 97.0907   6
  -7  -8  -5 14820.5 314.156   6
  -7  -8  -6 31440.0 453.478   6
  -7  -8  -7 38939.7 494.931   6
  -7  -8  -8 2850.38 133.831   6
  -7  -8  -9 4692.19 164.059   6
  -7  -8 -10 282.727 44.4766   6
  -7  -8 -11 9330.82 193.640   6
  -7  -9   0 1888.07 87.2888   6
  -7  -9  -1 2033.23 96.4116   6
  -7  -9  -2 6076.12 169.739   6
  -7  -9  -3 8621.91 205.487   6
  -7  -9  -4 5176.29 160.270   6
  -7  -9  -5 2798.41 118.283   6
  -7  -9  -6 14098.2 255.338   6
  -7  -9  -7 22643.6 310.144   6
  -7  -9  -8 4605.08 132.692   6
  -8   3  -2 2570.56 99.1272   1
  -8   3  -3 1809.01 86.7083   1
  -8   3  -4 45.3687 23.7016   1
  -8   3  -5 6057.71 155.460   1
  -8   3  -6 2068.28 88.7604   1
  -8   2   2 6609.15 144.116  11
  -8   2   1 3290.27 109.348  11
  -8   2   0 15107.1 237.449  11
  -8   2  -1 9393.12 188.943  11
  -8   2  -1 9067.31 190.760   1
  -8   2  -2 17583.0 253.101  11
  -8   2  -2 17057.4 276.679   1
  -8   2  -3 17207.9 289.673   1
  -8   2  -4 24950.2 352.815   1
  -8   2  -5 1326.90 85.5439   1
  -8   2  -6 21203.8 319.627   1
  -8   2  -7 1847.96 92.7799   1
  -8   2  -8 138.276 30.2947   1
  -8   1   3 1870.99 85.6528  11
  -8   1   2 538.829 52.9036  11
  -8   1   1 7800.56 195.691  11
  -8   1   0 52.0631 30.4958  11
  -8   1  -1 16538.5 293.471  11
  -8   1  -2 21415.5 333.350  11
  -8   1  -3 13.1693 29.9758  11
  -8   1  -3 4.36188 25.5497   1
  -8   1  -4 4268.16 154.602   1
  -8   1  -4 4383.79 144.572  11
  -8   1  -5 13665.0 277.245   1
  -8   1  -5 13495.4 238.280  11
  -8   1  -6 673.177 65.7317   1
  -8   1  -7 2286.66 112.458   1
  -8   1  -8 176.933 36.5977   1
  -8   1  -9 1609.17 84.9481   1
  -8   0   4 14073.3 222.611  11
  -8   0   3 3216.10 120.852  11
  -8   0   2 547.235 59.1775  11
  -8   0   1 9766.16 233.840  11
  -8   0   0 6696.31 201.900  11
  -8   0  -1 4087.55 160.815  11
  -8   0  -2 2859.55 135.474  11
  -8   0  -3 11165.9 260.803  11
  -8   0  -4 11276.3 257.956  11
  -8   0  -5 28922.2 398.991  11
  -8   0  -6 615.558 64.5604   1
  -8   0  -6 588.310 60.2156  11
  -8   0  -7 14301.6 284.946   1
  -8   0  -7 14261.1 251.968  11
  -8   0  -8 9017.63 219.578   1
  -8   0  -8 8775.58 180.139  11
  -8   0  -9 4851.99 154.578   1
  -8   0 -10 1786.70 87.6774   1
  -8  -1   4 3440.02 113.844  11
  -8  -1   3 2518.41 111.104  11
  -8  -1   2 1202.28 85.5468  11
  -8  -1   1 11256.1 260.982  11
  -8  -1   0 14191.3 301.868  11
  -8  -1  -1 35681.0 484.312  11
  -8  -1  -2 36.3199 39.9577  11
  -8  -1  -3 3246.85 152.186  11
  -8  -1  -4 1561.04 105.610  11
  -8  -1  -5 5254.08 185.255  11
  -8  -1  -6 17638.0 327.599  11
  -8  -1  -7 114.453 37.2334  11
  -8  -1  -8 9656.01 218.086  11
  -8  -1  -9 320.073 44.8525   1
  -8  -1  -9 253.937 38.9690  11
  -8  -1 -10 7199.14 151.252  11
  -8  -1 -10 7803.07 183.546   1
  -8  -2   4 8795.82 172.840  11
  -8  -2   3 3623.33 129.305  11
  -8  -2   2 344.826 50.7915  11
  -8  -2   1 45258.1 519.063  11
  -8  -2   0 941.757 83.5387  11
  -8  -2  -1 10096.9 262.860  11
  -8  -2  -2 12412.2 297.516  11
  -8  -2  -2 11727.1 259.752   6
  -8  -2  -3 2438.12 136.708  11
  -8  -2  -3 2240.76 117.883   6
  -8  -2  -4 9273.26 258.303  11
  -8  -2  -4 8341.12 224.246   6
  -8  -2  -5 1201.46 96.9924  11
  -8  -2  -5 1015.45 82.5296   6
  -8  -2  -6 37.6999 38.1833  11
  -8  -2  -6 24.1554 31.6055   6
  -8  -2  -7 41507.3 508.382  11
  -8  -2  -7 39603.3 488.248   6
  -8  -2  -8 27076.6 390.318  11
  -8  -2  -8 24877.9 376.149   6
  -8  -2  -9 10762.9 232.362  11
  -8  -2  -9 9504.55 223.399   6
  -8  -2 -10 2579.22 105.943  11
  -8  -2 -10 1973.81 96.6533   6
  -8  -2 -11 1269.37 65.4421  11
  -8  -2 -11 823.251 57.8905   6
  -8  -3   3 18985.5 270.059  11
  -8  -3   2 15713.8 275.088  11
  -8  -3   2 14386.9 256.802   6
  -8  -3   1 267.126 47.5338  11
  -8  -3   1 262.391 47.3328   6
  -8  -3   0 471.788 62.5736  11
  -8  -3   0 412.383 58.1443   6
  -8  -3  -1 543.945 67.9098  11
  -8  -3  -1 522.307 63.9091   6
  -8  -3  -2 1228.56 97.9767  11
  -8  -3  -2 1266.63 95.4457   6
  -8  -3  -3 23881.4 413.129  11
  -8  -3  -3 22690.1 389.810   6
  -8  -3  -4 44813.7 567.953  11
  -8  -3  -4 43076.7 540.307   6
  -8  -3  -5 80.3434 43.1943  11
  -8  -3  -5 61.7439 36.2986   6
  -8  -3  -6 1461.74 105.747  11
  -8  -3  -6 1579.10 109.036   6
  -8  -3  -7 39.2258 33.9055   6
  -8  -3  -8 16508.0 331.190   6
  -8  -3  -9 23465.8 378.826   6
  -8  -3 -10 3767.47 146.700   6
  -8  -3 -11 5216.96 158.097   6
  -8  -3 -12 1483.25 66.7116  11
  -8  -3 -12 1099.38 65.3507   6
  -8  -4   3 55637.5 467.807   6
  -8  -4   2 71742.0 523.532  11
  -8  -4   2 74170.9 600.323   6
  -8  -4   1 34.6230 27.6525  11
  -8  -4   1 136.954 40.3619   6
  -8  -4   0 623.142 63.8331  11
  -8  -4   0 735.128 73.4375   6
  -8  -4  -1 1389.47 95.6413  11
  -8  -4  -1 1283.87 97.2865   6
  -8  -4  -2 4991.11 182.063  11
  -8  -4  -2 4697.30 180.670   6
  -8  -4  -3 5142.16 189.680  11
  -8  -4  -3 5152.16 192.461   6
  -8  -4  -4 9276.11 255.861  11
  -8  -4  -4 8788.94 252.521   6
  -8  -4  -5 132.419 45.9790  11
  -8  -4  -5 151.279 47.8043   6
  -8  -4  -6 2274.77 129.887  11
  -8  -4  -6 2370.31 135.756   6
  -8  -4  -7 8528.90 251.745   6
  -8  -4  -8 5858.66 207.463   6
  -8  -4  -9 229.896 51.6446   6
  -8  -4 -10 4189.61 159.799   6
  -8  -4 -11 17089.3 295.743   6
  -8  -4 -12 6580.52 165.535   6
  -8  -5   2 806.623 67.6511   6
  -8  -5   1 1688.84 100.270   6
  -8  -5   0 3046.34 116.336  11
  -8  -5   0 3351.18 145.333   6
  -8  -5  -1 549.093 58.5126  11
  -8  -5  -1 478.788 63.8116   6
  -8  -5  -2 32698.9 427.421  11
  -8  -5  -2 33505.9 474.780   6
  -8  -5  -3 25.1804 32.3531  11
  -8  -5  -3 17.6148 37.4677   6
  -8  -5  -4 2516.76 129.926  11
  -8  -5  -4 2539.24 138.645   6
  -8  -5  -5 32384.0 457.802  11
  -8  -5  -5 33665.1 490.340   6
  -8  -5  -6 13360.6 294.845  11
  -8  -5  -6 13850.3 316.830   6
  -8  -5  -7 17164.5 350.892   6
  -8  -5  -8 522.053 69.2729   6
  -8  -5  -9 29167.1 439.228   6
  -8  -5 -10 8958.80 231.449   6
  -8  -5 -11 15568.6 280.509   6
  -8  -5 -12 316.438 40.7414   6
  -8  -6   2 421.671 46.4460   6
  -8  -6   1 1880.14 98.2872   6
  -8  -6   0 4448.59 158.566   6
  -8  -6  -1 3216.23 141.104   6
  -8  -6  -2 3593.68 123.423  11
  -8  -6  -2 3795.13 156.787   6
  -8  -6  -3 21562.7 321.590  11
  -8  -6  -3 22365.9 380.127   6
  -8  -6  -4 19857.7 321.224  11
  -8  -6  -4 19878.1 363.455   6
  -8  -6  -5 2910.62 128.738  11
  -8  -6  -5 3062.01 145.713   6
  -8  -6  -6 68.1991 34.3828  11
  -8  -6  -6 46.9194 38.4097   6
  -8  -6  -7 16444.3 327.580   6
  -8  -6  -8 1045.91 86.6723   6
  -8  -6  -9 18554.0 328.883   6
  -8  -6 -10 53139.7 527.126   6
  -8  -6 -11 4942.05 147.602   6
  -8  -7   0 56.9092 26.3049   6
  -8  -7  -1 7010.71 187.938   6
  -8  -7  -2 246.539 43.9981   6
  -8  -7  -3 934.475 77.6351   6
  -8  -7  -4 11708.9 259.381   6
  -8  -7  -5 7500.77 170.273  11
  -8  -7  -5 8262.15 218.505   6
  -8  -7  -6 241.007 39.3350  11
  -8  -7  -6 259.520 46.3893   6
  -8  -7  -7 352.477 44.3212  11
  -8  -7  -7 407.877 54.3999   6
  -8  -7  -8 3911.45 128.935  11
  -8  -7  -8 3989.52 144.439   6
  -8  -7  -9 1328.52 81.2723   6
  -8  -7 -10 3253.79 114.689   6
  -8  -8  -3 11961.4 223.889   6
  -8  -8  -4 557.905 55.4018   6
  -8  -8  -5 31271.3 367.060   6
  -8  -8  -6 26347.0 333.266   6
  -8  -8  -7 153.711 33.7361   6
  -9  -2  -2 179.161 31.2318  11
  -9  -2  -3 2061.17 88.7396  11
  -9  -2  -4 6565.61 155.573  11
  -9  -2  -5 5716.81 142.364  11
  -9  -2  -6 6086.26 140.479  11
  -9  -3  -2 6798.79 153.503  11
  -9  -3  -3 8388.84 177.657  11
  -9  -3  -4 6941.84 164.039  11
  -9  -3  -5 563.488 50.1589  11
  -9  -3  -6 6334.80 152.405  11
  -9  -3  -7 75.4091 25.5065  11
  -9  -4  -4 4481.23 128.274  11
  -9  -4  -5 12527.9 214.973  11
  -9  -4  -6 107.989 27.3983  11
  -9  -4  -7 1926.47 82.4836  11
   0   0   0    0.00    0.00   0

TITL yyu3CuLT in P-1
REM P-1 (#2 in standard setting)
CELL 1.54184   7.321635  10.444147  14.989767  79.6437  75.9558  77.9349
ZERR    5.00   0.000456   0.000623   0.000938   0.0052   0.0054   0.0052
LATT  1
SFAC C H N O
UNIT 55.00 50.00 5.00 5.00
TREF
HKLF 4
END
;
_shelx_hkl_checksum              57336
_olex2_date_sample_data_collection 2018-10-09
_olex2_submission_special_instructions 'No special instructions were received'
_oxdiff_exptl_absorpt_empirical_details
;
Empirical correction (ABSPACK) includes:
- Absorption correction using spherical harmonics
- Frame scaling
;
_oxdiff_exptl_absorpt_empirical_full_max 1.339
_oxdiff_exptl_absorpt_empirical_full_min 0.797
loop_
_space_group_symop_operation_xyz
'x, y, z'
'-x, -y, -z'
loop_
_atom_site_label
_atom_site_type_symbol
_atom_site_fract_x
_atom_site_fract_y
_atom_site_fract_z
_atom_site_U_iso_or_equiv
_atom_site_adp_type
_atom_site_occupancy
_atom_site_site_symmetry_order
_atom_site_calc_flag
_atom_site_refinement_flags_posn
_atom_site_refinement_flags_adp
_atom_site_refinement_flags_occupancy
_atom_site_disorder_assembly
_atom_site_disorder_group
S1 S 0.44066(5) 0.18605(3) -0.00827(2) 0.01492(8) Uani 1 1 d . . . . .
S2 S 0.67078(5) -0.08179(3) 0.25008(2) 0.01502(8) Uani 1 1 d . . . . .
S3 S 0.64864(5) 0.08978(3) 0.38930(2) 0.01355(8) Uani 1 1 d . . . . .
S4 S 0.46262(5) 0.41112(3) 0.35486(2) 0.01402(8) Uani 1 1 d . . . . .
S5 S 0.34752(5) 0.52739(3) 0.17882(2) 0.01364(8) Uani 1 1 d . . . . .
N1 N 0.40021(16) 0.31772(11) 0.04110(8) 0.0141(2) Uani 1 1 d . . . . .
N2 N 0.51752(16) 0.07490(11) 0.07083(8) 0.0144(2) Uani 1 1 d . . . . .
N3 N 0.8813(2) -0.40200(14) 0.35734(11) 0.0327(3) Uani 1 1 d . . . . .
N4 N 0.8613(2) -0.13751(15) 0.56536(9) 0.0293(3) Uani 1 1 d . . . . .
N5 N 0.3739(2) 0.71219(13) 0.47085(9) 0.0287(3) Uani 1 1 d . . . . .
N6 N 0.1916(2) 0.87252(12) 0.20643(9) 0.0256(3) Uani 1 1 d . . . . .
C1 C 0.44530(18) 0.27800(13) 0.12425(9) 0.0125(2) Uani 1 1 d . . . . .
C2 C 0.51309(18) 0.13922(13) 0.14122(9) 0.0128(2) Uani 1 1 d . . . . .
C3 C 0.57115(18) 0.08386(12) 0.22601(9) 0.0128(2) Uani 1 1 d . . . . .
C4 C 0.55959(18) 0.16441(13) 0.29071(9) 0.0125(2) Uani 1 1 d . . . . .
C5 C 0.48549(18) 0.30271(12) 0.27496(9) 0.0124(2) Uani 1 1 d . . . . .
C6 C 0.43088(18) 0.35858(12) 0.19334(9) 0.0125(2) Uani 1 1 d . . . . .
C10 C 0.71485(19) -0.06669(13) 0.35590(9) 0.0142(3) Uani 1 1 d . . . . .
C11 C 0.7977(2) -0.17230(13) 0.41076(9) 0.0164(3) Uani 1 1 d . . . . .
C12 C 0.8448(2) -0.30087(14) 0.38259(10) 0.0209(3) Uani 1 1 d . . . . .
C13 C 0.8348(2) -0.15514(14) 0.49648(10) 0.0189(3) Uani 1 1 d . . . . .
C20 C 0.37624(19) 0.55010(13) 0.28538(9) 0.0135(2) Uani 1 1 d . . . . .
C21 C 0.3313(2) 0.67414(13) 0.31328(9) 0.0154(3) Uani 1 1 d . . . . .
C22 C 0.3543(2) 0.69453(13) 0.40085(10) 0.0186(3) Uani 1 1 d . . . . .
C23 C 0.2542(2) 0.78495(13) 0.25508(9) 0.0171(3) Uani 1 1 d . . . . .
Cl1 Cl 0.92913(5) 0.23419(4) -0.03534(2) 0.02732(9) Uani 1 1 d . . . . .
C31 C 0.9393(2) 0.27257(15) 0.07170(10) 0.0188(3) Uani 1 1 d . . . . .
C32 C 1.0105(2) 0.17173(14) 0.13467(10) 0.0178(3) Uani 1 1 d . . . . .
H32 H 1.0492 0.0838 0.1204 0.021 Uiso 1 1 calc R . . . .
C33 C 1.0239(2) 0.20209(14) 0.21898(10) 0.0192(3) Uani 1 1 d . . . . .
H33 H 1.0730 0.1345 0.2629 0.023 Uiso 1 1 calc R . . . .
C34 C 0.9659(2) 0.33087(15) 0.23963(10) 0.0222(3) Uani 1 1 d . . . . .
H34 H 0.9747 0.3510 0.2976 0.027 Uiso 1 1 calc R . . . .
C35 C 0.8949(2) 0.43030(15) 0.17527(11) 0.0231(3) Uani 1 1 d . . . . .
H35 H 0.8563 0.5184 0.1894 0.028 Uiso 1 1 calc R . . . .
C36 C 0.8801(2) 0.40169(15) 0.09049(11) 0.0226(3) Uani 1 1 d . . . . .
H36 H 0.8305 0.4690 0.0465 0.027 Uiso 1 1 calc R . . . .
loop_
_atom_site_aniso_label
_atom_site_aniso_U_11
_atom_site_aniso_U_22
_atom_site_aniso_U_33
_atom_site_aniso_U_23
_atom_site_aniso_U_13
_atom_site_aniso_U_12
S1 0.02094(16) 0.01386(15) 0.01081(15) -0.00276(11) -0.00637(12) -0.00050(12)
S2 0.02240(17) 0.00911(15) 0.01414(15) -0.00237(11) -0.00771(12) 0.00106(12)
S3 0.02021(16) 0.01032(15) 0.01043(15) -0.00124(11) -0.00626(12) 0.00000(12)
S4 0.02238(16) 0.00952(15) 0.01067(15) -0.00181(11) -0.00699(12) 0.00056(12)
S5 0.02105(16) 0.00899(14) 0.01155(15) -0.00089(11) -0.00739(12) 0.00005(11)
N1 0.0172(5) 0.0140(5) 0.0116(5) -0.0028(4) -0.0042(4) -0.0014(4)
N2 0.0184(5) 0.0138(5) 0.0114(5) -0.0021(4) -0.0052(4) -0.0015(4)
N3 0.0392(8) 0.0184(7) 0.0381(8) -0.0060(6) -0.0074(6) 0.0011(6)
N4 0.0310(7) 0.0380(8) 0.0187(6) -0.0012(6) -0.0102(5) -0.0016(6)
N5 0.0472(8) 0.0182(6) 0.0231(7) -0.0070(5) -0.0175(6) 0.0045(6)
N6 0.0355(7) 0.0161(6) 0.0239(6) -0.0008(5) -0.0104(6) 0.0014(5)
C1 0.0138(6) 0.0126(6) 0.0109(6) -0.0010(5) -0.0031(5) -0.0016(5)
C2 0.0147(6) 0.0115(6) 0.0127(6) -0.0027(5) -0.0026(5) -0.0026(5)
C3 0.0152(6) 0.0099(6) 0.0129(6) -0.0009(5) -0.0036(5) -0.0011(5)
C4 0.0145(6) 0.0118(6) 0.0109(6) 0.0000(5) -0.0040(5) -0.0017(5)
C5 0.0160(6) 0.0104(6) 0.0114(6) -0.0023(5) -0.0029(5) -0.0025(5)
C6 0.0153(6) 0.0097(6) 0.0126(6) -0.0013(5) -0.0037(5) -0.0017(5)
C10 0.0160(6) 0.0130(6) 0.0131(6) -0.0014(5) -0.0035(5) -0.0016(5)
C11 0.0195(6) 0.0131(6) 0.0153(6) -0.0001(5) -0.0051(5) 0.0002(5)
C12 0.0227(7) 0.0166(7) 0.0209(7) 0.0010(5) -0.0060(6) 0.0009(5)
C13 0.0192(7) 0.0164(6) 0.0176(7) 0.0027(5) -0.0042(5) 0.0008(5)
C20 0.0170(6) 0.0127(6) 0.0112(6) -0.0007(5) -0.0049(5) -0.0022(5)
C21 0.0214(7) 0.0107(6) 0.0149(6) -0.0022(5) -0.0066(5) -0.0008(5)
C22 0.0262(7) 0.0100(6) 0.0197(7) -0.0030(5) -0.0086(6) 0.0019(5)
C23 0.0226(7) 0.0135(6) 0.0163(6) -0.0051(5) -0.0053(5) -0.0015(5)
Cl1 0.02826(19) 0.0347(2) 0.01917(17) 0.00088(14) -0.01141(14) -0.00225(15)
C31 0.0169(6) 0.0217(7) 0.0170(6) 0.0020(5) -0.0046(5) -0.0047(5)
C32 0.0174(6) 0.0152(6) 0.0200(7) 0.0015(5) -0.0048(5) -0.0033(5)
C33 0.0170(6) 0.0205(7) 0.0190(7) 0.0028(5) -0.0051(5) -0.0037(5)
C34 0.0189(7) 0.0264(8) 0.0220(7) -0.0043(6) -0.0024(5) -0.0067(6)
C35 0.0173(7) 0.0165(7) 0.0334(8) -0.0040(6) -0.0005(6) -0.0035(5)
C36 0.0163(7) 0.0192(7) 0.0276(8) 0.0071(6) -0.0042(6) -0.0018(5)
loop_
_atom_type_symbol
_atom_type_description
_atom_type_scat_dispersion_real
_atom_type_scat_dispersion_imag
_atom_type_scat_source
C C 0.0181 0.0091 'International Tables Vol C Tables 4.2.6.8 and 6.1.1.4'
H H 0.0000 0.0000 'International Tables Vol C Tables 4.2.6.8 and 6.1.1.4'
Cl Cl 0.3639 0.7018 'International Tables Vol C Tables 4.2.6.8 and 6.1.1.4'
N N 0.0311 0.0180 'International Tables Vol C Tables 4.2.6.8 and 6.1.1.4'
S S 0.3331 0.5567 'International Tables Vol C Tables 4.2.6.8 and 6.1.1.4'
loop_
_geom_angle_atom_site_label_1
_geom_angle_atom_site_label_2
_geom_angle_atom_site_label_3
_geom_angle
_geom_angle_site_symmetry_1
_geom_angle_site_symmetry_3
_geom_angle_publ_flag
N1 S1 N2 100.94(6) . . ?
C10 S2 C3 95.10(6) . . ?
C10 S3 C4 95.28(6) . . ?
C20 S4 C5 94.95(6) . . ?
C20 S5 C6 94.58(6) . . ?
C1 N1 S1 106.02(9) . . ?
C2 N2 S1 105.97(9) . . ?
N1 C1 C2 113.62(12) . . ?
N1 C1 C6 126.73(12) . . ?
C6 C1 C2 119.64(12) . . ?
N2 C2 C1 113.44(12) . . ?
N2 C2 C3 126.91(12) . . ?
C3 C2 C1 119.64(12) . . ?
C2 C3 S2 123.19(10) . . ?
C4 C3 S2 117.21(10) . . ?
C4 C3 C2 119.49(12) . . ?
C3 C4 S3 116.28(10) . . ?
C3 C4 C5 120.79(12) . . ?
C5 C4 S3 122.87(10) . . ?
C4 C5 S4 123.46(10) . . ?
C6 C5 S4 115.78(10) . . ?
C6 C5 C4 120.74(12) . . ?
C1 C6 S5 122.56(10) . . ?
C5 C6 S5 117.81(10) . . ?
C5 C6 C1 119.63(12) . . ?
S3 C10 S2 116.13(8) . . ?
C11 C10 S2 122.37(10) . . ?
C11 C10 S3 121.50(10) . . ?
C10 C11 C12 120.06(13) . . ?
C10 C11 C13 120.60(12) . . ?
C13 C11 C12 119.33(12) . . ?
N3 C12 C11 177.81(16) . . ?
N4 C13 C11 177.88(16) . . ?
S5 C20 S4 116.87(7) . . ?
C21 C20 S4 122.05(10) . . ?
C21 C20 S5 121.09(10) . . ?
C20 C21 C22 121.78(12) . . ?
C20 C21 C23 120.02(12) . . ?
C22 C21 C23 118.17(12) . . ?
N5 C22 C21 179.16(17) . . ?
N6 C23 C21 178.26(15) . . ?
C32 C31 Cl1 118.19(11) . . ?
C36 C31 Cl1 119.50(11) . . ?
C36 C31 C32 122.30(14) . . ?
C31 C32 H32 120.7 . . ?
C31 C32 C33 118.56(13) . . ?
C33 C32 H32 120.7 . . ?
C32 C33 H33 119.8 . . ?
C32 C33 C34 120.40(13) . . ?
C34 C33 H33 119.8 . . ?
C33 C34 H34 120.0 . . ?
C33 C34 C35 119.93(14) . . ?
C35 C34 H34 120.0 . . ?
C34 C35 H35 119.8 . . ?
C36 C35 C34 120.48(14) . . ?
C36 C35 H35 119.8 . . ?
C31 C36 C35 118.33(13) . . ?
C31 C36 H36 120.8 . . ?
C35 C36 H36 120.8 . . ?
loop_
_geom_bond_atom_site_label_1
_geom_bond_atom_site_label_2
_geom_bond_distance
_geom_bond_site_symmetry_2
_geom_bond_publ_flag
S1 N1 1.6173(11) . ?
S1 N2 1.6205(11) . ?
S2 C3 1.7410(13) . ?
S2 C10 1.7334(13) . ?
S3 C4 1.7486(13) . ?
S3 C10 1.7324(13) . ?
S4 C5 1.7479(13) . ?
S4 C20 1.7274(13) . ?
S5 C6 1.7335(13) . ?
S5 C20 1.7239(13) . ?
N1 C1 1.3384(17) . ?
N2 C2 1.3397(17) . ?
N3 C12 1.143(2) . ?
N4 C13 1.148(2) . ?
N5 C22 1.144(2) . ?
N6 C23 1.151(2) . ?
C1 C2 1.4282(18) . ?
C1 C6 1.4196(18) . ?
C2 C3 1.4233(18) . ?
C3 C4 1.3708(18) . ?
C4 C5 1.4312(18) . ?
C5 C6 1.3714(18) . ?
C10 C11 1.3773(19) . ?
C11 C12 1.428(2) . ?
C11 C13 1.425(2) . ?
C20 C21 1.3825(18) . ?
C21 C22 1.4210(19) . ?
C21 C23 1.4222(19) . ?
Cl1 C31 1.7444(15) . ?
C31 C32 1.3869(19) . ?
C31 C36 1.385(2) . ?
C32 H32 0.9500 . ?
C32 C33 1.387(2) . ?
C33 H33 0.9500 . ?
C33 C34 1.390(2) . ?
C34 H34 0.9500 . ?
C34 C35 1.392(2) . ?
C35 H35 0.9500 . ?
C35 C36 1.390(2) . ?
C36 H36 0.9500 . ?
loop_
_geom_torsion_atom_site_label_1
_geom_torsion_atom_site_label_2
_geom_torsion_atom_site_label_3
_geom_torsion_atom_site_label_4
_geom_torsion
_geom_torsion_site_symmetry_1
_geom_torsion_site_symmetry_2
_geom_torsion_site_symmetry_3
_geom_torsion_site_symmetry_4
_geom_torsion_publ_flag
S1 N1 C1 C2 0.59(14) . . . . ?
S1 N1 C1 C6 -179.09(11) . . . . ?
S1 N2 C2 C1 0.01(14) . . . . ?
S1 N2 C2 C3 -178.61(11) . . . . ?
S2 C3 C4 S3 0.43(14) . . . . ?
S2 C3 C4 C5 177.91(10) . . . . ?
S2 C10 C11 C12 -2.09(19) . . . . ?
S2 C10 C11 C13 178.78(11) . . . . ?
S3 C4 C5 S4 -3.77(17) . . . . ?
S3 C4 C5 C6 174.93(10) . . . . ?
S3 C10 C11 C12 177.94(11) . . . . ?
S3 C10 C11 C13 -1.19(19) . . . . ?
S4 C5 C6 S5 0.17(14) . . . . ?
S4 C5 C6 C1 179.75(10) . . . . ?
S4 C20 C21 C22 0.2(2) . . . . ?
S4 C20 C21 C23 -177.75(11) . . . . ?
S5 C20 C21 C22 -179.96(11) . . . . ?
S5 C20 C21 C23 2.09(19) . . . . ?
N1 S1 N2 C2 0.30(10) . . . . ?
N1 C1 C2 N2 -0.41(17) . . . . ?
N1 C1 C2 C3 178.32(12) . . . . ?
N1 C1 C6 S5 0.4(2) . . . . ?
N1 C1 C6 C5 -179.15(12) . . . . ?
N2 S1 N1 C1 -0.53(10) . . . . ?
N2 C2 C3 S2 3.0(2) . . . . ?
N2 C2 C3 C4 179.14(13) . . . . ?
C1 C2 C3 S2 -175.53(10) . . . . ?
C1 C2 C3 C4 0.59(19) . . . . ?
C2 C1 C6 S5 -179.26(10) . . . . ?
C2 C1 C6 C5 1.18(19) . . . . ?
C2 C3 C4 S3 -175.92(10) . . . . ?
C2 C3 C4 C5 1.56(19) . . . . ?
C3 S2 C10 S3 -0.07(9) . . . . ?
C3 S2 C10 C11 179.96(12) . . . . ?
C3 C4 C5 S4 178.92(10) . . . . ?
C3 C4 C5 C6 -2.4(2) . . . . ?
C4 S3 C10 S2 0.24(9) . . . . ?
C4 S3 C10 C11 -179.78(12) . . . . ?
C4 C5 C6 S5 -178.62(10) . . . . ?
C4 C5 C6 C1 0.96(19) . . . . ?
C5 S4 C20 S5 0.92(9) . . . . ?
C5 S4 C20 C21 -179.24(12) . . . . ?
C6 S5 C20 S4 -0.84(9) . . . . ?
C6 S5 C20 C21 179.31(12) . . . . ?
C6 C1 C2 N2 179.29(11) . . . . ?
C6 C1 C2 C3 -1.97(19) . . . . ?
C10 S2 C3 C2 175.99(11) . . . . ?
C10 S2 C3 C4 -0.21(11) . . . . ?
C10 S3 C4 C3 -0.40(11) . . . . ?
C10 S3 C4 C5 -177.82(11) . . . . ?
C20 S4 C5 C4 178.12(11) . . . . ?
C20 S4 C5 C6 -0.63(11) . . . . ?
C20 S5 C6 C1 -179.18(11) . . . . ?
C20 S5 C6 C5 0.39(11) . . . . ?
Cl1 C31 C32 C33 178.29(10) . . . . ?
Cl1 C31 C36 C35 -178.16(11) . . . . ?
C31 C32 C33 C34 0.4(2) . . . . ?
C32 C31 C36 C35 0.7(2) . . . . ?
C32 C33 C34 C35 -0.4(2) . . . . ?
C33 C34 C35 C36 0.5(2) . . . . ?
C34 C35 C36 C31 -0.6(2) . . . . ?
C36 C31 C32 C33 -0.6(2) . . . . ?
