#------------------------------------------------------------------------------
#$Date: 2022-01-03 22:09:31 +0200 (Mon, 03 Jan 2022) $
#$Revision: 271690 $
#$URL: file:///home/coder/svn-repositories/cod/cif/4/51/91/4519195.cif $
#------------------------------------------------------------------------------
#
# This file is available in the Crystallography Open Database (COD),
# http://www.crystallography.net/
#
# All data on this site have been placed in the public domain by the
# contributors.
#
data_4519195
loop_
_publ_author_name
'Singh, Jatinder'
'Staples, Richard J.'
'Shreeve, Jean'ne M.'
_publ_section_title
;
 Pushing the Limit of Nitro Groups on a Pyrazole Ring with
 Energy-Stability Balance.
;
_journal_issue                   51
_journal_name_full               'ACS applied materials &amp; interfaces'
_journal_page_first              61357
_journal_page_last               61364
_journal_paper_doi               10.1021/acsami.1c21510
_journal_volume                  13
_journal_year                    2021
_chemical_formula_moiety         'C5 H N7 O10, 2(H5 N2)'
_chemical_formula_sum            'C5 H11 N11 O10'
_chemical_formula_weight         385.25
_space_group_crystal_system      triclinic
_space_group_IT_number           2
_space_group_name_Hall           '-P 1'
_space_group_name_H-M_alt        'P -1'
_atom_sites_solution_hydrogens   difmap
_atom_sites_solution_primary     direct
_audit_creation_date             2021-07-29
_audit_creation_method
;
Olex2 1.3
(compiled 2020.11.12 svn.r5f609507 for OlexSys, GUI svn.r6272)
;
_cell_angle_alpha                60.694(5)
_cell_angle_beta                 69.675(4)
_cell_angle_gamma                70.204(4)
_cell_formula_units_Z            2
_cell_length_a                   8.7988(3)
_cell_length_b                   9.7297(4)
_cell_length_c                   9.9474(5)
_cell_measurement_reflns_used    6192
_cell_measurement_temperature    100.0(2)
_cell_measurement_theta_max      78.6820
_cell_measurement_theta_min      5.2140
_cell_volume                     681.40(6)
_computing_cell_refinement       'CrysAlisPro 1.171.41.112a (Rigaku OD, 2021)'
_computing_data_collection       'CrysAlisPro 1.171.41.112a (Rigaku OD, 2021)'
_computing_data_reduction        'CrysAlisPro 1.171.41.112a (Rigaku OD, 2021)'
_computing_molecular_graphics    'Olex2 1.3 (Dolomanov et al., 2009)'
_computing_publication_material  'Olex2 1.3 (Dolomanov et al., 2009)'
_computing_structure_refinement  'SHELXL 2018/3 (Sheldrick, 2015)'
_computing_structure_solution    'SHELXS  (Sheldrick, 2008)'
_diffrn_ambient_environment      N~2~
_diffrn_ambient_temperature      100.0(2)
_diffrn_detector                 'Hybrid Pixel Array Detector'
_diffrn_detector_area_resol_mean 10.0000
_diffrn_detector_type            HyPix
_diffrn_measured_fraction_theta_full 0.996
_diffrn_measured_fraction_theta_max 0.973
_diffrn_measurement_details
;
List of Runs (angles in degrees, time in seconds):

  # Type    Start    End  Width  t~exp~   \w     \q     \k     \f   Frames
--------------------------------------------------------------------------
  1  \w    -77.00 -28.00   0.50    0.76    --  -47.36 108.00 176.00   98
  2  \w     23.00  79.00   0.50    0.76    --   47.36-108.00  79.00  112
  3  \w   -148.00-121.00   0.50    3.02    --  -91.75-108.00  79.00   54
  4  \w    -73.00 -48.00   0.50    3.02    --  -91.75 108.00 176.00   50
  5  \w     78.00 105.00   0.50    3.02    --  113.25-108.00  79.00   54
  6  \w    106.00 161.00   0.50    3.02    --  113.25 108.00 176.00  110
  7  \w    -62.00  13.00   0.50    0.76    --  -47.36  57.00 120.00  150
  8  \w    -21.00  26.00   0.50    0.76    --  -47.36  19.00-120.00   94
  9  \w    -61.00  14.00   0.50    0.76    --  -47.36  57.00-150.00  150
 10  \w    -24.00  28.00   0.50    0.76    --  -47.36  19.00-180.00  104
 11  \w    -20.00   6.00   0.50    0.76    --  -47.36  19.00 -30.00   52
 12  \w    -23.00  26.00   0.50    0.76    --  -47.36  19.00  90.00   98
 13  \w    -17.00  19.00   0.50    0.76    --   47.36 -19.00   0.00   72
 14  \w    -25.00  24.00   0.50    0.76    --   47.36 -19.00  30.00   98
 15  \w    -52.00 -27.00   0.50    3.02    --  -91.75  45.00  60.00   50
 16  \w   -163.00-127.00   0.50    3.02    --  -91.75 -94.00-150.00   72
 17  \w   -141.00 -97.00   0.50    3.02    --  -91.75 -15.00 120.00   88
 18  \w   -163.00-138.00   0.50    3.02    --  -91.75 -45.00 -90.00   50
 19  \w   -158.00-133.00   0.50    3.02    --  -91.75 -45.00-150.00   50
 20  \w     44.00  70.00   0.50    3.02    --  113.25 -61.00 150.00   52
 21  \w     47.00  75.00   0.50    3.02    --  113.25 -77.00  60.00   56
 22  \w     43.00  70.00   0.50    3.02    --  113.25 -61.00   0.00   54
 23  \w    129.00 169.00   0.50    3.02    --  113.25  45.00   0.00   80
 24  \w     71.00 101.00   0.50    3.02    --  113.25 -94.00 -90.00   60
 25  \w     42.00  69.00   0.50    3.02    --  113.25-125.00-180.00   54
 26  \w     44.00  70.00   0.50    3.02    --  113.25 -61.00-120.00   52
 27  \w     42.00  68.00   0.50    3.02    --  113.25 -94.00-180.00   52
 28  \w     79.00 104.00   0.50    3.02    --  113.25 -94.00-120.00   50
 29  \w     74.00 103.00   0.50    3.02    --  113.25 -94.00-180.00   58
 30  \w    123.00 175.00   0.50    3.02    --  113.25  45.00 -90.00  104
 31  \w     43.00  69.00   0.50    3.02    --  113.25 -94.00 -90.00   52
 32  \w    103.00 131.00   0.50    3.02    --  113.25  30.00 150.00   56
 33  \w    134.00 162.00   0.50    3.02    --  113.25  61.00  60.00   56
 34  \w     42.00  68.00   0.50    3.02    --  113.25 -94.00 -60.00   52
 35  \w     79.00 104.00   0.50    3.02    --  113.25 -94.00 -60.00   50
 36  \w     55.00 102.00   0.50    3.02    --  113.25 -94.00   0.00   94
 37  \w     42.00  67.00   0.50    3.02    --  113.25 -61.00  90.00   50
 38  \w    122.00 164.00   0.50    3.02    --  113.25  45.00-120.00   84
 39  \w     45.00  70.00   0.50    3.02    --  113.25 -61.00 -90.00   50
 40  \w    146.00 172.00   0.50    3.02    --  113.25  61.00 -30.00   52
 41  \w     77.00 103.00   0.50    3.02    --  113.25 -94.00 150.00   52
 42  \w     49.00  75.00   0.50    3.02    --  113.25 -94.00 150.00   52
 43  \w     44.00  70.00   0.50    3.02    --  113.25 -61.00-180.00   52
 44  \w    123.00 178.00   0.50    3.02    --  113.25  45.00  90.00  110
 45  \w     60.00  93.00   0.50    3.02    --  113.25 -77.00   0.00   66
 46  \w     43.00  69.00   0.50    3.02    --  113.25 -61.00 -30.00   52
 47  \w    123.00 150.00   0.50    3.02    --  113.25  45.00  60.00   54
 48  \w     43.00  69.00   0.50    3.02    --  113.25 -94.00-120.00   52
 49  \w     54.00 102.00   0.50    3.02    --  113.25 -94.00 -30.00   96
 50  \w     44.00  69.00   0.50    3.02    --  113.25 -94.00 120.00   50
 51  \w     71.00 102.00   0.50    3.02    --  113.25 -94.00 120.00   62
 52  \w    130.00 170.00   0.50    3.02    --  113.25  61.00 -60.00   80
 53  \w     46.00  71.00   0.50    3.02    --  113.25 -94.00  60.00   50
 54  \w     79.00 104.00   0.50    3.02    --  113.25 -94.00  60.00   50
 55  \w    123.00 155.00   0.50    3.02    --  113.25  45.00-150.00   64
 56  \w     45.00  70.00   0.50    3.02    --  113.25 -61.00 120.00   50
 57  \w     42.00  70.00   0.50    3.02    --  113.25 -61.00  60.00   56
 58  \w     52.00 104.00   0.50    3.02    --  113.25 -94.00-150.00  104
 59  \w    125.00 164.00   0.50    3.02    --  113.25  45.00  30.00   78
 60  \w    152.00 178.00   0.50    3.02    --  113.25  30.00 150.00   52
 61  \w    107.00 147.00   0.50    3.02    --  113.25  30.00 -30.00   80
 62  \w     44.00  69.00   0.50    3.02    --  113.25 -61.00-150.00   50
 63  \w    150.00 175.00   0.50    3.02    --  113.25  61.00 120.00   50
 64  \w    127.00 161.00   0.50    3.02    --  113.25  77.00 150.00   68
 65  \w     79.00 104.00   0.50    3.02    --  113.25 -94.00  90.00   50
 66  \w     79.00 104.00   0.50    3.02    --  113.25 -77.00 120.00   50
 67  \w     42.00  69.00   0.50    3.02    --  113.25 -61.00 -60.00   54
;
_diffrn_measurement_device       'four-circle diffractometer'
_diffrn_measurement_device_type  'XtaLAB Synergy, Dualflex, HyPix'
_diffrn_measurement_method       '\w scans'
_diffrn_orient_matrix_type
'CrysAlisPro convention (1999,Acta A55,543-557)'
_diffrn_orient_matrix_UB_11      0.0649887026
_diffrn_orient_matrix_UB_12      -0.1793176220
_diffrn_orient_matrix_UB_13      0.0988579535
_diffrn_orient_matrix_UB_21      0.0566611723
_diffrn_orient_matrix_UB_22      0.0466745428
_diffrn_orient_matrix_UB_23      0.0995992821
_diffrn_orient_matrix_UB_31      -0.1702241810
_diffrn_orient_matrix_UB_32      -0.0100224706
_diffrn_orient_matrix_UB_33      0.1160732942
_diffrn_radiation_monochromator  mirror
_diffrn_radiation_probe          x-ray
_diffrn_radiation_type           'Cu K\a'
_diffrn_radiation_wavelength     1.54184
_diffrn_reflns_av_R_equivalents  0.0388
_diffrn_reflns_av_unetI/netI     0.0293
_diffrn_reflns_Laue_measured_fraction_full 0.996
_diffrn_reflns_Laue_measured_fraction_max 0.973
_diffrn_reflns_limit_h_max       9
_diffrn_reflns_limit_h_min       -11
_diffrn_reflns_limit_k_max       12
_diffrn_reflns_limit_k_min       -12
_diffrn_reflns_limit_l_max       12
_diffrn_reflns_limit_l_min       -12
_diffrn_reflns_number            9345
_diffrn_reflns_point_group_measured_fraction_full 0.996
_diffrn_reflns_point_group_measured_fraction_max 0.973
_diffrn_reflns_theta_full        67.684
_diffrn_reflns_theta_max         79.863
_diffrn_reflns_theta_min         5.229
_diffrn_source                   'micro-focus sealed X-ray tube'
_diffrn_source_current           1
_diffrn_source_type              'PhotonJet (Cu) X-ray Source'
_diffrn_source_voltage           50
_exptl_absorpt_coefficient_mu    1.585
_exptl_absorpt_correction_T_max  1.000
_exptl_absorpt_correction_T_min  0.459
_exptl_absorpt_correction_type   gaussian
_exptl_absorpt_process_details
;
CrysAlisPro 1.171.41.112a (Rigaku Oxford Diffraction, 2021)
Numerical absorption correction based on gaussian integration over
a multifaceted crystal model
Empirical absorption correction using spherical harmonics,
implemented in SCALE3 ABSPACK scaling algorithm.
;
_exptl_crystal_colour            yellow
_exptl_crystal_colour_primary    yellow
_exptl_crystal_density_diffrn    1.878
_exptl_crystal_description       needle
_exptl_crystal_F_000             396
_exptl_crystal_recrystallization_method 'used as received'
_exptl_crystal_size_max          0.261
_exptl_crystal_size_mid          0.056
_exptl_crystal_size_min          0.054
_refine_diff_density_max         0.471
_refine_diff_density_min         -0.412
_refine_diff_density_rms         0.099
_refine_ls_extinction_method     none
_refine_ls_goodness_of_fit_ref   1.106
_refine_ls_hydrogen_treatment    refxyz
_refine_ls_matrix_type           full
_refine_ls_number_parameters     277
_refine_ls_number_reflns         2896
_refine_ls_number_restraints     39
_refine_ls_restrained_S_all      1.100
_refine_ls_R_factor_all          0.0613
_refine_ls_R_factor_gt           0.0589
_refine_ls_shift/su_max          0.000
_refine_ls_shift/su_mean         0.000
_refine_ls_structure_factor_coef Fsqd
_refine_ls_weighting_details
'w=1/[\s^2^(Fo^2^)+(0.1016P)^2^+0.9556P] where P=(Fo^2^+2Fc^2^)/3'
_refine_ls_weighting_scheme      calc
_refine_ls_wR_factor_gt          0.1768
_refine_ls_wR_factor_ref         0.1787
_reflns_Friedel_coverage         0.000
_reflns_number_gt                2659
_reflns_number_total             2896
_reflns_threshold_expression     'I > 2\s(I)'
_cod_data_source_file            am1c21510_si_003.cif
_cod_data_source_block           js721e
_cod_database_code               4519195
_shelx_shelxl_version_number     2018/3
_chemical_oxdiff_formula         C5H11N11O10
_chemical_oxdiff_usercomment     JS167B
_shelx_space_group_comment
;
The symmetry employed for this shelxl refinement is uniquely defined
by the following loop, which should always be used as a source of
symmetry information in preference to the above space-group names.
They are only intended as comments.
;
_reflns_odcompleteness_completeness 98.96
_reflns_odcompleteness_iscentric 1
_reflns_odcompleteness_theta     74.33
_olex2_refinement_description
;
1. Fixed Uiso
 At 1.5 times of:
  All H(H,H) groups
2. Restrained distances
 H10B-H10A
 1.39 with sigma of 0.02
 N10-H10A = N10-H10B
 0.93 with sigma of 0.02
 N11-H11B \\sim N11-H11A \\sim N11-H11C \\sim N8-H8A \\sim N8-H8B \\sim N9-H9C
\\sim N9-H9B \\sim N9-H9A ~
 N1-H1
 with sigma of 0.02
;
_shelx_res_file
;
TITL JS721E in P-1 #2
    js721e.res
    created by SHELXL-2018/3 at 09:52:49 on 29-Jul-2021
REM reset to P-1 #2
CELL 1.54184 8.798843 9.729691 9.947414 60.6944 69.6749 70.2041
ZERR 2 0.000347 0.000446 0.000451 0.0048 0.0041 0.0039
LATT 1
SFAC C H N O
UNIT 10 22 22 20
EQIV $1 2-X,1-Y,1-Z
EQIV $2 1-X,-Y,2-Z
EQIV $3 2-X,-Y,1-Z
EQIV $4 -1+X,+Y,+Z
EQIV $5 1-X,1-Y,1-Z
EQIV $6 +X,1+Y,+Z
EQIV $7 1-X,1-Y,2-Z
EQIV $8 1+X,+Y,+Z
DFIX 1.39 H10b H10a
SADI N11 H11b N11 H11a N11 H11c N8 H8a N8 H8b N9 H9c N9 H9b N9 H9a N1 H1
DFIX 0.93 N10 H10a N10 H10b

L.S. 11
PLAN  12
TEMP -173
CONF
HTAB N1 N10_$1
HTAB N8 O1_$2
HTAB N8 O4_$3
HTAB N9 O3_$4
HTAB N9 O4_$4
HTAB N9 O5_$3
HTAB N9 N2_$5
HTAB N10 O5_$6
HTAB N10 O8_$7
HTAB N10 O9_$8
HTAB N10 O10_$7
HTAB N11 O3
HTAB N11 O10_$8
MORE -1
BOND $H
fmap 2
acta
REM <olex2.extras>
REM <HklSrc "%.\\JS721E.hkl">
REM </olex2.extras>

WGHT    0.101600    0.955600
FVAR      10.00426
O1    4    0.614905   -0.002895    1.089182    11.00000    0.02270    0.02666 =
         0.02469   -0.00536    0.00550   -0.00666
O2    4    0.868419   -0.098175    0.993863    11.00000    0.02551    0.02355 =
         0.02751   -0.00652   -0.00258    0.00338
O3    4    1.170524    0.248041    0.623460    11.00000    0.01558    0.02174 =
         0.03123   -0.01413   -0.00036   -0.00491
O4    4    1.301698    0.040892    0.568140    11.00000    0.01084    0.02365 =
         0.03397   -0.01594    0.00125   -0.00095
O5    4    1.129940   -0.181118    0.682901    11.00000    0.01323    0.02091 =
         0.04535   -0.01579   -0.00164   -0.00096
O6    4    0.867774   -0.083092    0.692224    11.00000    0.01264    0.02499 =
         0.03509   -0.01368   -0.00291   -0.00455
O7    4    0.641937    0.297835    1.084702    11.00000    0.01396    0.03206 =
         0.02734   -0.01370   -0.00326   -0.00397
O8    4    0.375884    0.337285    1.179979    11.00000    0.01697    0.04065 =
         0.02541   -0.01790    0.00312   -0.00742
O9    4    0.328911    0.408056    0.758098    11.00000    0.01515    0.03606 =
         0.02457   -0.01513   -0.00152   -0.00285
O10   4    0.194208    0.418488    0.982873    11.00000    0.01072    0.03069 =
         0.02878   -0.01693    0.00147   -0.00171
N1    3    0.824487    0.338677    0.612628    11.00000    0.01087    0.01906 =
         0.02314   -0.00750    0.00200   -0.00150
H1    2    0.874419    0.394464    0.511477    11.00000    0.02373
N2    3    0.681706    0.414598    0.678495    11.00000    0.01317    0.01967 =
         0.02441   -0.00948    0.00042   -0.00156
N3    3    0.742711    0.009242    0.984942    11.00000    0.01960    0.01939 =
         0.02171   -0.00730   -0.00145   -0.00256
N4    3    1.169690    0.120708    0.618694    11.00000    0.01368    0.01934 =
         0.02256   -0.00903   -0.00052   -0.00294
N5    3    1.008787   -0.069342    0.679503    11.00000    0.01185    0.02004 =
         0.02311   -0.00866   -0.00004   -0.00293
N6    3    0.496246    0.324955    1.071283    11.00000    0.01491    0.02192 =
         0.02314   -0.00961    0.00017   -0.00428
N7    3    0.328851    0.390103    0.891733    11.00000    0.01289    0.02062 =
         0.02457   -0.01134   -0.00007   -0.00305
C1    1    0.869652    0.183487    0.708482    11.00000    0.01283    0.01882 =
         0.02357   -0.00875   -0.00169   -0.00352
C2    1    0.745455    0.156680    0.845149    11.00000    0.01302    0.01792 =
         0.02175   -0.00721   -0.00078   -0.00347
C3    1    0.630923    0.303509    0.820995    11.00000    0.01376    0.02047 =
         0.02268   -0.01016   -0.00117   -0.00367
C4    1    1.020432    0.077388    0.665882    11.00000    0.01116    0.02028 =
         0.02455   -0.01073    0.00023   -0.00289
C5    1    0.479375    0.342298    0.929874    11.00000    0.01199    0.02226 =
         0.02286   -0.01017   -0.00065   -0.00255
N8    3    0.570787    0.204615    0.576356    11.00000    0.02280    0.03069 =
         0.02934   -0.01634   -0.00822    0.00145
H8A   2    0.619074    0.098496    0.604549    11.00000    0.03701
H8B   2    0.481076    0.204002    0.654678    11.00000    0.03175
N9    3    0.520886    0.257707    0.432348    11.00000    0.01472    0.02043 =
         0.02426   -0.00966   -0.00049   -0.00336
H9A   2    0.454461    0.199149    0.440760    11.00000    0.03608
H9B   2    0.613153    0.243992    0.358871    11.00000    0.02694
H9C   2    0.473521    0.361911    0.404408    11.00000    0.03311
N10   3    0.979733    0.569472    0.708000    11.00000    0.02459    0.02084 =
         0.02854   -0.00660    0.00450   -0.00174
N11   3    0.971141    0.411613    0.831791    11.00000    0.01768    0.02161 =
         0.02415   -0.00950   -0.00086   -0.00508
H11A  2    1.024252    0.334505    0.794613    11.00000    0.03155
H11B  2    0.865785    0.400513    0.886428    11.00000    0.03600
H11C  2    1.027077    0.386933    0.905322    11.00000    0.05911
H10A  2    1.048096    0.597113    0.741576    11.00000   -1.50000
H10B  2    0.884544    0.638693    0.734730    11.00000   -1.50000
HKLF 4




REM  JS721E in P-1 #2
REM wR2 = 0.1787, GooF = S = 1.106, Restrained GooF = 1.100 for all data
REM R1 = 0.0589 for 2659 Fo > 4sig(Fo) and 0.0613 for all 2896 data
REM 277 parameters refined using 39 restraints

END

WGHT      0.1016      0.9556

REM Highest difference peak  0.471,  deepest hole -0.412,  1-sigma level  0.099
Q1    1   0.5090  0.1366  0.5578  11.00000  0.05    0.47
Q2    1   0.3152  0.3214  0.7356  11.00000  0.05    0.45
Q3    1   1.1642  0.2162  0.5328  11.00000  0.05    0.45
Q4    1   1.0966 -0.2371  0.6237  11.00000  0.05    0.42
Q5    1   0.9109  0.5512  0.6710  11.00000  0.05    0.42
Q6    1   0.6519  0.0610  1.1510  11.00000  0.05    0.41
Q7    1   0.8739 -0.0335  0.7612  11.00000  0.05    0.41
Q8    1   0.3235  0.3255  0.8447  11.00000  0.05    0.39
Q9    1   1.0066  0.0207  0.6243  11.00000  0.05    0.39
Q10   1   1.0219 -0.0050  0.7415  11.00000  0.05    0.38
Q11   1   0.2285  0.4998  1.0187  11.00000  0.05    0.36
Q12   1   0.3734  0.1816  1.0851  11.00000  0.05    0.35
;
_shelx_res_checksum              81330
_shelx_hkl_file
;
   0   0   1 25272.9 729.947   7
   0   0   2 418.212 130.552   7
   0   0   2 523.151 144.223  12
   0   0   3 350187. 9352.74   7
   0   0   3 351498. 9277.04  13
   0   0   3 353506. 9379.00  12
   0   0   4 65419.0 2048.93  12
   0   0   4 63795.0 1928.45  13
   0   0   4 67818.6 2048.50   7
   0   0   5 217.082 202.731  13
   0   0   5 207.028 166.633  14
   0   0   5 421.244 222.198   7
   0   0   5 254.288 106.841  18
   0   0   5 150.939 176.163  12
   0   0   6 2782.26 212.545  64
   0   0   6 3144.52 214.069  18
   0   0   6 2933.07 319.770  14
   0   0   6 3056.34 395.003   7
   0   0   6 2474.09 345.486  12
   0   0   6 2185.07 324.406  13
   0   0   6 2837.60 206.488  46
   0   0   7 10872.4 739.922  12
   0   0   7 12003.8 474.757  46
   0   0   7 10472.9 427.009  36
   0   0   7 10162.3 397.408  55
   0   0   7 12246.8 450.809  49
   0   0   7 10466.3 637.355  14
   0   0   8 20481.1 709.508  22
   0   0   8 19688.2 729.879  45
   0   0   8 18160.7 641.078  36
   0   0   9 197.317 130.555  15
   0   0   9 265.193 131.256  22
   0   0   9 336.107 131.246  45
   0   0  10 9124.37 349.314  22
   0   0  10 9037.99 341.265  45
   0  -1  10 2518.34 136.043   6
   0  -1   9 41.1487 106.262  22
   0  -1   9-4.21865 100.361  45
   0  -1   9-16.3945 119.881  15
   0  -1   9 62.5925 113.064   6
   0  -1   8 6969.72 356.903  22
   0  -1   8 6716.39 352.458   6
   0  -1   7 28193.6 1179.52  13
   0  -1   7 26596.3 1367.52   2
   0  -1   7 27207.4 892.181  36
   0  -1   7 29811.8 958.935   6
   0  -1   7 28804.2 935.983  46
   0  -1   7 29414.6 1006.62  64
   0  -1   6 1715.06 184.006  46
   0  -1   6 1763.89 194.321  64
   0  -1   6 1819.44 300.181  13
   0  -1   6 2008.77 351.420  12
   0  -1   6 1759.46 161.279  36
   0  -1   6 1884.48 190.966   6
   0  -1   6 1738.31 294.557  14
   0  -1   5 11583.9 681.869  12
   0  -1   5 11773.3 441.420  18
   0   1  -5 10192.5 498.539   8
   0  -1   5 11565.4 580.451  13
   0  -1   4 24443.7 968.814   7
   0  -1   4 25021.2 1007.58  12
   0  -1   4 23485.2 874.728  13
   0  -1   3 35342.6 1227.01  12
   0  -1   3 34834.1 1190.70   7
   0  -1   2 184469. 4983.87   7
   0   1  -1 383279. 9998.36   8
   0   1   0 12904.1 374.153   9
   0   1   0 11702.8 374.079   8
   0   1   1 424.766 66.2007   2
   0   1   1 413.115 86.5919   9
   0   1   1 561.259 73.3895   1
   0   1   2 9061.04 347.279  14
   0  -1  -2 8966.63 299.264  11
   0   1   2 8739.63 376.982   7
   0   1   3 293013. 7971.67   7
   0   1   3 301829. 7899.98  14
   0   1   3 299923. 7907.00  13
   0   1   4 79496.3 2391.63  12
   0   1   4 80860.7 2285.93  14
   0   1   4 78263.4 2293.00  13
   0   1   5 18647.2 588.105  18
   0   1   5 19208.2 837.518  12
   0   1   5 18642.3 764.647  13
   0   1   5 19500.4 758.899  14
   0   1   6 41137.6 1661.39   2
   0   1   6 42661.6 1601.52  12
   0   1   6 45287.7 1296.15  18
   0   1   6 46526.7 1509.57  14
   0   1   7 888.199 152.596  18
   0   1   7 664.667 151.420  49
   0   1   7 690.779 287.701   7
   0   1   7 678.014 228.572  12
   0   1   7 692.333 121.365  55
   0   1   7 650.925 147.695   6
   0   1   7 630.275 230.012  14
   0   1   7 384.308 225.408   2
   0   1   7 520.538 111.641  36
   0   1   7 785.394 138.344  22
   0   1   8 2357.43 425.571   2
   0   1   8 2986.72 239.893   6
   0   1   8 2363.12 192.976  36
   0   1   8 3139.32 252.563  45
   0   1   8 2806.40 230.308  22
   0   1   8 2583.69 424.451   7
   0   1   9 39223.6 1186.40   6
   0   1   9 37537.1 1194.08  45
   0   1   9 36577.0 1168.08  22
   0   1  10 36.6537 98.7455  45
   0   1  10 125.081 119.820  53
   0   1  10 47.4067 107.485   6
   0   1  11 158.199 59.9722  53
   0   1  11 93.6442 53.3523  21
   0  -2   9 15994.5 512.794  22
   0  -2   9 14291.1 491.105  45
   0  -2   9 16396.7 509.321   6
   0  -2   9 14995.8 471.550  15
   0  -2   9 16427.8 539.795  53
   0  -2   8 173.630 120.077  22
   0  -2   8 84.6270 116.679   6
   0  -2   8 124.999 142.576  15
   0  -2   7 9451.48 431.716  46
   0  -2   7 9540.74 438.141   6
   0  -2   7 10147.6 487.057  64
   0  -2   7 8705.07 732.955   2
   0  -2   6 10549.5 462.372   6
   0  -2   6 11168.7 507.973  64
   0  -2   6 10020.9 756.652   2
   0  -2   6 11213.0 379.577  19
   0  -2   6 10198.1 442.523  46
   0  -2   6 10476.2 661.747  13
   0  -2   5 9830.36 426.414  63
   0  -2   5 9712.20 374.687  60
   0  -2   5 10506.4 455.144  64
   0  -2   5 9545.57 409.267   6
   0   2  -4 135331. 3875.46   8
   0  -2   4 150989. 4230.43  12
   0   2  -3 4923.95 309.887   8
   0  -2   3 5028.02 237.861  18
   0  -2   3 5675.20 432.525  12
   0   2  -2 3629.77 248.784   8
   0   2  -1 165061. 4405.65   8
   0   2   0 419.062 126.199   9
   0   2   0 493.857 152.960   8
   0   2   1 7071.53 258.367   1
   0   2   1 7234.78 300.238   9
   0   2   2 1576.48 146.150   1
   0   2   2 1215.60 145.528   2
   0   2   2 1318.28 184.328   9
   0   2   3 212947. 5468.36  14
   0   2   3 214414. 5583.79  10
   0   2   4 4683.09 315.971  14
   0   2   4 4454.80 335.826   2
   0   2   5 4903.94 390.189  12
   0   2   5 5277.80 419.107   2
   0   2   5 5484.74 376.547  14
   0   2   6 21799.7 678.496  18
   0   2   6 20662.4 947.149  12
   0   2   6 20677.6 996.912   2
   0   2   6 22508.7 902.819  14
   0   2   7 1374.26 157.709   6
   0   2   7 1318.68 264.348  12
   0   2   7 1553.95 163.970  18
   0   2   7 1428.85 275.436  14
   0   2   7 1689.01 326.767   2
   0   2   7 1300.71 177.731  45
   0   2   7 1316.60 149.493  36
   0   2   7 1366.77 160.270  22
   0   2   8 13131.3 477.606  18
   0   2   8 11449.0 488.883  22
   0   2   8 11354.4 803.434   7
   0   2   8 10895.6 454.871  36
   0   2   8 11038.9 807.927   2
   0   2   8 11785.9 497.003   6
   0   2   8 11240.4 511.869  45
   0   2   9 9171.74 426.787  22
   0   2   9 9574.19 452.736  45
   0   2   9 10870.0 458.503   6
   0   2   9 9544.97 398.963  36
   0   2   9 10441.5 474.233  53
   0   2  10 5174.52 290.519  53
   0   2  10 4488.75 269.893  45
   0   2  10 4574.59 262.709   6
   0   2  11 3654.33 195.135  21
   0   2  11 3855.11 191.825  53
   0  -3   9 423.340 57.6706  22
   0  -3   9 500.701 59.1038  53
   0  -3   8 47.9325 89.2351  45
   0  -3   8-25.7196 95.0226  22
   0  -3   8-9.39080 87.6258   6
   0  -3   7 7295.76 395.565  64
   0  -3   7 6521.01 339.875  46
   0  -3   7 7106.59 339.162   6
   0  -3   6 13317.3 805.762  13
   0  -3   6 17660.0 539.629  19
   0  -3   6 13519.3 926.198   2
   0  -3   6 16091.7 597.748  46
   0  -3   6 16205.7 612.156   6
   0  -3   6 16017.8 669.252  64
   0  -3   6 15805.0 577.098  60
   0  -3   5 2764.06 213.728   6
   0  -3   5 2481.15 196.649  60
   0  -3   5 2377.65 211.949  63
   0  -3   5 2166.91 342.687  13
   0  -3   5 2429.53 231.093  64
   0   3  -4 447.842 197.305   8
   0  -3   4 158.451 109.607  64
   0   3  -3 115174. 3270.43   8
   0   3  -2 2673.42 264.460   8
   0   3  -1 52170.5 1578.23   8
   0   3  -1 54524.9 1569.96   9
   0   3   0 192578. 5181.79   8
   0   3   0 194117. 5159.22   9
   0   3   1 373234. 9819.36   9
   0   3   2 312153. 8148.67   1
   0   3   2 307867. 8231.57   9
   0   3   3 13851.5 575.665   9
   0   3   3 15274.9 651.977  10
   0   3   4 51689.0 1663.48   2
   0   3   4 55432.2 1789.14  10
   0   3   5 23128.0 881.576  14
   0   3   5 21787.8 925.466   2
   0   3   6 18356.1 802.661  14
   0   3   6 19369.7 882.363  12
   0   3   6 17162.4 876.334   2
   0   3   7 47184.1 1756.57  12
   0   3   7 48225.2 1462.28  22
   0   3   7 50207.9 1702.85  14
   0   3   7 48944.9 1500.30  45
   0   3   7 48576.5 1860.27   2
   0   3   7 53770.5 1412.95  18
   0   3   7 46347.6 1434.16   6
   0   3   7 47097.6 1446.00  36
   0   3   8 22099.5 787.857  36
   0   3   8 23895.2 806.381   6
   0   3   8 24049.6 838.896  53
   0   3   8 23678.5 818.694  22
   0   3   8 24323.3 757.521  18
   0   3   8 23357.5 1206.14   2
   0   3   8 23753.4 851.092  45
   0   3   9 2123.15 222.669  53
   0   3   9 1832.74 215.021  45
   0   3   9 1900.34 198.702   6
   0   3  10 8465.90 397.613  45
   0   3  10 9418.83 389.520   6
   0   3  10 9193.92 407.524  53
   0   3  11 151.457 87.7323  53
   0   3  11 163.339 90.5344  57
   0  -4   8 222.374 71.9412  22
   0  -4   8 26.2738 42.4744  45
   0  -4   7 1227.63 161.488  46
   0  -4   7 1519.62 185.775  64
   0  -4   6 15986.6 576.865  46
   0  -4   6 15994.9 520.181  19
   0  -4   6 15738.5 565.539   6
   0  -4   5 2279.52 212.897   6
   0  -4   5 2992.27 246.130  63
   0  -4   5 1807.02 335.993   2
   0  -4   5 2762.84 224.433  60
   0  -4   5 3772.87 225.961  19
   0  -4   5 2595.54 386.562  13
   0  -4   5 2930.87 245.913  15
   0  -4   4 3379.19 231.267  15
   0  -4   4 2894.53 211.516   6
   0  -4   4 2970.73 211.333  60
   0  -4   4 3353.85 245.673  67
   0  -4   4 3175.14 236.342  63
   0  -4   3 1419.62 164.550  15
   0   4  -3 1214.07 254.336   8
   0  -4   3 1336.80 156.808  63
   0   4  -2 148446. 4003.65   8
   0  -4   2 137535. 3742.97  15
   0   4  -2 147534. 3950.72   9
   0  -4   1 4207.22 193.688  15
   0   4  -1 5013.32 320.243   9
   0   4  -1 5313.45 365.006   8
   0   4   0 69633.8 2002.53   9
   0   4   1 152289. 4150.75   9
   0   4   2 171.565 103.654   1
   0   4   2 162.082 178.482   9
   0   4   3 10820.8 411.416   1
   0   4   3 9863.13 509.916   9
   0   4   4 19867.6 817.635   2
   0   4   4 24517.8 991.697  10
   0   4   5 10.9902 138.278   2
   0  -4  -5 10.4398 119.983  11
   0   4   6 20809.8 959.870   2
   0   4   7 3515.96 411.982   2
   0   4   7 3733.13 247.572  36
   0   4   7 3623.15 402.770  12
   0   4   7 3447.40 222.551   6
   0   4   7 3326.54 218.565  25
   0   4   7 3356.20 241.306  53
   0   4   7 3118.07 253.522  45
   0   4   7 3419.91 234.343  38
   0   4   8 2976.85 425.774   2
   0   4   8 4141.97 276.179  53
   0   4   8 3968.89 247.527   6
   0   4   8 3198.44 237.344  38
   0   4   8 3859.89 290.576  45
   0   4   9 6412.19 375.043  45
   0   4   9 6827.33 336.332   6
   0   4   9 6520.35 356.028  53
   0   4  10 1733.41 160.865  50
   0   4  10 1570.20 176.465  53
   0   4  10 1622.01 202.707  21
   0   4  11 3604.82 215.583  21
   0   4  11 3408.89 211.471  57
   0  -5   6 7993.44 337.828  46
   0  -5   6 8056.32 333.664  15
   0  -5   5 2467.21 208.468  16
   0  -5   5 3330.20 230.694  60
   0  -5   5 3061.83 224.733  46
   0  -5   5 2645.12 179.307   6
   0  -5   5 3182.39 235.382  15
   0  -5   5 3826.73 218.649  19
   0  -5   4 8979.97 382.377  15
   0  -5   4 8172.95 409.686  63
   0  -5   4 8269.57 373.289  60
   0  -5   3 483.904 136.449  63
   0  -5   3 702.613 166.231  15
   0  -5   3 632.217 157.261  67
   0   5  -3 467.917 136.135  61
   0   5  -2 4154.81 271.620  61
   0  -5   2 4119.55 230.127  15
   0   5  -1 1388.99 219.639   9
   0  -5   1 1581.37 144.619  15
   0  -5   0 21630.1 656.221  15
   0   5   0 26371.8 854.765   9
   0   5   1 84.2183 159.593   9
   0  -5  -1 253.233 86.6496  19
   0   5   2 1390.84 219.431   9
   0   5   3 170.096 211.500   9
   0   5   3 98.7647 110.209   1
   0   5   4 653.688 226.974  10
   0   5   4 466.915 226.359   9
   0   5   5 5547.48 475.899   7
   0   5   5 3469.16 334.184   2
   0  -5  -5 4116.93 203.651  17
   0   5   5 5403.82 480.452  10
   0   5   6 5331.55 518.639   7
   0   5   6 4931.58 290.547  38
   0   5   7 45397.7 1436.88  38
   0   5   7 49777.2 1489.60  21
   0   5   7 48345.5 1418.52  30
   0   5   7 46001.4 1421.79  25
   0   5   7 46920.0 1785.90   2
   0   5   7 49594.2 1450.07  53
   0   5   7 49856.4 1888.35   7
   0   5   8 315.217 149.296  38
   0   5   8 274.792 133.956  53
   0   5   8 397.668 244.785   7
   0   5   8 190.594 143.761  21
   0   5   8 167.349 112.035  25
   0   5   9 14236.5 564.508  53
   0   5   9 14237.3 604.892  21
   0   5  10 361.115 145.214  21
   0   5  11 5155.44 255.653  57
   0   5  11 4496.22 235.050  21
   0   6  -6 795.118 72.7150  23
   0  -6   5 12482.5 425.762  60
   0  -6   5 12073.1 411.350  46
   0  -6   5 11975.3 391.491  19
   0  -6   4 5858.74 300.361  15
   0  -6   4 5288.79 321.591  63
   0  -6   4 6115.69 316.489  60
   0   6  -3 55525.8 1656.15  61
   0  -6   3 54376.7 1556.64  15
   0  -6   3 54873.0 1652.10  63
   0   6  -2 1698.98 200.193  61
   0  -6   2 1752.99 191.102  15
   0   6  -1 8453.97 426.008  61
   0  -6   1 8298.36 346.932  19
   0  -6   1 8231.11 338.257  15
   0  -6   0 14058.9 484.659  19
   0   6   0 14300.6 577.232  61
   0  -6   0 14579.0 527.384  32
   0   6   1 56019.2 1919.21  10
   0   6   1 55484.4 1567.40   9
   0   6   2 18514.8 709.858   9
   0  -6  -2 13376.0 440.769  19
   0   6   3 1535.70 269.503   9
   0   6   4 4551.88 480.195  10
   0   6   4 3855.11 396.466   9
   0   6   5 32797.6 1066.47  57
   0   6   5 34350.3 1477.56  10
   0   6   5 34610.5 1418.63   7
   0   6   5 31619.3 1042.71  30
   0  -6  -5 32328.5 939.221  17
   0   6   6 52898.5 1688.47  57
   0   6   6 55640.4 1669.38  21
   0   6   6 60367.0 2118.83   7
   0   6   6 57401.4 1663.76  30
   0  -6  -6 55631.7 1535.76  17
   0   6   7 34777.0 1524.82   7
   0   6   7 35853.0 1159.45  21
   0   6   7 33900.0 1113.25  30
   0   6   7 36930.3 1201.86  57
   0   6   8 11819.6 525.676  21
   0   6   8 10167.6 437.337  30
   0   6   8 11357.1 540.111  57
   0   6   8 10338.0 791.523   7
   0   6   8 11338.0 473.160  25
   0   6   9 52045.9 1592.72  57
   0   6   9 47471.3 1494.86  54
   0   6   9 54113.5 1571.48  21
   0   6   9 49503.4 1483.69  25
   0   6  10 3857.05 215.357  54
   0   6  10 3772.64 256.671  21
   0   6  11 705.857 109.185  21
   0   6  11 729.328 106.199  50
   0   7  -5 2422.07 134.729  23
   0  -7   4 10509.4 379.963  60
   0  -7   4 11178.5 367.357  19
   0  -7   4 10165.2 356.481  46
   0  -7   3 2502.72 246.068  64
   0  -7   3 2539.07 216.439  60
   0  -7   3 2455.19 209.898  63
   0   7  -2 3452.71 280.904  61
   0  -7   2 3251.69 259.059  63
   0   7  -1 48237.5 1538.47  61
   0   7  -1 45160.8 1454.05  52
   0   7  -1 46975.7 2061.49  10
   0  -7   0 4366.73 246.199  19
   0   7   0 4317.94 319.311  61
   0  -7  -1 6154.24 303.432  32
   0  -7  -1 5109.10 251.346  19
   0   7   1 5737.01 317.157  30
   0   7   1 5314.34 583.003  10
   0  -7  -1 4370.60 251.184  44
   0   7   2 910.313 168.693  61
   0   7   2 1158.11 171.465  30
   0   7   2 978.218 235.729   9
   0  -7  -2 701.875 118.904  19
   0  -7  -2 928.728 137.775  32
   0   7   3 3341.21 246.607  61
   0   7   3 3300.60 254.046  30
   0   7   4 7691.47 683.488  10
   0   7   4 6735.35 352.180  61
   0   7   4 8435.89 404.740  30
   0   7   5 21510.7 790.444  57
   0   7   5 22009.7 1197.86  10
   0   7   5 21213.2 1100.79   7
   0   7   5 19662.1 708.022  61
   0  -7  -5 21528.6 669.060  17
   0  -7  -6 9604.27 360.739  17
   0   7   6 8625.53 433.062  30
   0   7   6 8772.71 457.499  57
   0   7   6 7497.36 701.791  10
   0   7   6 7353.07 666.700   7
   0   7   7 4682.16 534.468   7
   0   7   7 5355.45 324.522  21
   0   7   7 5316.88 357.397  57
   0   7   7 5387.86 322.405  30
   0   7   8 39750.2 1259.53  25
   0   7   8 42303.1 1305.34  21
   0   7   8 42602.6 1351.45  57
   0   7   8 38936.2 1245.06  30
   0   7   9 3726.13 237.873  25
   0   7   9 3907.29 272.765  21
   0   7   9 3964.94 308.934  57
   0   7  10 4116.79 271.379  57
   0   7  11 2178.10 139.542  37
   0   7  11 2082.05 154.684  57
   0   7  11 2314.49 148.238  50
   0  -8   4 157.139 69.5335  64
   0  -8   3 23.0441 106.729  64
   0  -8   3 35.4180 80.8250  46
   0  -8   3 13.9401 81.5937  63
   0  -8   3 75.6451 117.362  60
   0  -8   3-32.4276 106.295  16
   0  -8   2 1043.51 154.633  19
   0  -8   2 1056.56 174.483  64
   0  -8   2 1071.07 150.737  63
   0  -8   1 5872.05 293.659  19
   0   8  -1 6289.38 365.215  61
   0   8  -1 5862.65 293.241  52
   0   8   0 12702.4 537.348  52
   0  -8   0 13513.3 488.275  19
   0   8   0 13808.7 601.956  61
   0   8   1 17392.6 1151.82  10
   0  -8  -1 19287.8 671.977  32
   0   8   1 16275.7 658.660  52
   0  -8  -1 16878.8 579.090  19
   0   8   2 69505.4 2187.89  61
   0   8   2 73487.2 2823.22  10
   0   8   2 78569.8 2187.42  30
   0  -8  -2 74216.2 2131.47  32
   0   8   3 19373.7 748.832  61
   0   8   3 20525.4 755.093  30
   0  -8  -3 19882.3 707.941  32
   0   8   4 10173.8 846.866  10
   0   8   4 10531.2 469.250  37
   0   8   4 9342.80 462.769  61
   0   8   5 14067.2 933.300   7
   0  -8  -5 15441.9 533.465  17
   0   8   5 14947.6 584.897  61
   0   8   5 15992.4 1053.16  10
   0   8   5 15186.7 606.557  37
   0   8   6 19623.6 1124.88   7
   0   8   6 23476.5 823.176  30
   0   8   6 20964.1 1230.00  10
   0  -8  -6 22759.6 700.074  17
   0   8   6 20860.6 755.907  52
   0   8   7 5724.96 293.572  52
   0   8   7 6511.78 371.811  30
   0   8   8 86695.6 2446.37  25
   0   8   8 82079.7 2431.80  30
   0   8   9 1344.84 153.848  25
   0   8   9 1297.05 158.065  50
   0   8   9 1229.33 193.610  57
   0   8  10 1076.27 150.703  57
   0   8  10 1212.94 137.880  50
   0   8  11 1907.50 117.068  37
   0   8  11 2056.92 116.703  50
   0   9  -3 32.5863 34.6451  23
   0  -9   2 12533.8 447.268  64
   0  -9   1 2202.53 167.960  63
   0   9   0 1293.86 149.100  52
   0   9   0 1818.29 214.639  61
   0   9   1 5824.07 320.239  52
   0   9   2 3108.79 252.918  52
   0  -9  -2 3561.67 253.589  32
   0  -9  -3 21959.4 749.018  32
   0   9   3 20455.1 780.438  61
   0   9   3 18890.2 755.803  52
   0   9   3 23942.5 810.380  30
   0   9   4 21994.8 794.273  30
   0  -9  -4 20978.4 736.114  32
   0  -9  -4 20999.3 687.467  17
   0   9   4 21344.7 777.777  61
   0   9   5 11772.7 493.914  37
   0  -9  -5 11481.7 438.997  17
   0   9   5 11396.9 524.127  30
   0   9   5 12661.6 494.758  61
   0   9   5 10876.1 492.766  52
   0  -9  -5 12111.5 480.327  32
   0   9   6 915.723 150.707  52
   0  -9  -6 814.900 181.638  17
   0   9   6 969.360 164.631  37
   0   9   7 15644.4 595.069  30
   0   9   7 13776.7 508.931  50
   0   9   7 14088.7 511.654  52
   0   9   7 14828.6 584.171  37
   0   9   8 394.655 123.959  25
   0   9   8 261.344 105.969  50
   0   9   8 277.750 129.221  30
   0   9   8 335.348 137.545  37
   0   9   9 18089.1 578.542  50
   0   9   9 16741.5 579.280  25
   0   9   9 17104.1 611.450  37
   0   9  10 212.381 87.4245  37
   0  -9 -10 142.382 37.7388  32
   0   9  10 91.9110 71.2663  50
   0   9  10 102.270 56.5025  42
   0 -10   1 1832.87 98.0485  64
   0 -10   0 5883.75 253.561  64
   0 -10   0 5697.72 221.661  63
   0  10   1 31391.8 870.190  52
   0 -10  -1 30107.8 870.727  63
   0  10   2 8997.24 383.155  52
   0  10   3 8349.72 388.711  52
   0  10   3 8694.80 397.112  61
   0 -10  -3 8558.12 370.107  32
   0 -10  -4 4381.79 251.391  17
   0 -10  -4 4335.02 250.800  32
   0  10   4 4379.83 269.007  61
   0  10   5 4129.80 242.165  61
   0 -10  -5 4520.92 246.655  32
   0 -10  -5 4429.11 238.100  17
   0  10   5 3900.48 257.669  52
   0  10   6 6769.40 314.492  52
   0 -10  -6 6310.54 276.445  17
   0  10   7 3613.26 217.246  25
   0  10   7 3660.03 215.908  37
   0 -10  -7 3607.20 199.003  32
   0 -10  -8 1894.49 129.600  32
   0  10   8 2046.11 160.634  37
   0  10   9 6624.24 240.206  25
   0  10   9 6646.37 249.789  37
   0  11   2 298.279 56.4787  52
   0  11   3 6428.19 259.625  52
   0 -11  -4 89.0894 103.591  17
   0  11   4 116.965 85.1176  52
   0  11   5 1259.86 102.226  25
   0  11   5 1679.42 132.403  52
   0 -11  -6 1476.63 108.341  32
   0  11   6 1568.58 116.502  25
   0  11   6 1365.94 108.238  52
   0  11   6 1312.19 107.072  56
   0 -11  -7 4303.94 174.727  32
   0  11   7 4607.51 200.679  56
   0  11   8 126.665 43.3579  42
   0  11   8 241.865 53.0515  25
   0  11   8 220.066 53.7018  56
  -1  11   6 235.415 47.3877  27
  -1  11   5 178.563 54.7092  52
  -1  11   3 41.2884 44.8974  52
  -1  10   8 47.7374 58.9424  42
  -1  10   8 49.0796 65.7817  25
  -1  10   7 22080.7 625.379  25
   1 -10  -7 17688.9 551.508  32
  -1  10   6 6863.65 286.620  25
  -1  10   6 6529.83 266.925  52
  -1  10   5 583.072 111.815  52
   1 -10  -5 403.543 93.0821  32
  -1  10   5 420.108 99.1100  25
   1 -10  -5 317.596 120.363  17
  -1  10   4 1899.03 144.531  56
  -1  10   4 1642.06 128.370  25
   1 -10  -4 1773.83 164.481  17
   1 -10  -3 261.081 139.664  17
  -1  10   2 2140.01 163.196  52
   1 -10  -2 1706.19 159.124  17
  -1  10   1 13.4561 68.1442  52
   1 -10   0 905.624 101.270  64
   1 -10   0 959.221 91.3525  60
  -1   9   9 4683.02 232.856  37
  -1   9   9 4695.27 215.059  25
  -1   9   9 4460.23 200.200  50
  -1   9   9 4967.95 218.816  42
  -1   9   8 1751.00 174.009  37
  -1   9   8 1541.97 133.142  50
   1  -9  -8 1291.14 102.473  32
  -1   9   7 585.998 145.202  37
  -1   9   7 442.701 124.729  25
   1  -9  -7 366.135 90.4850  32
  -1   9   7 477.393 100.904  50
  -1   9   6 7374.07 376.168  37
   1  -9  -6 7047.34 315.175  32
  -1   9   6 8281.03 406.230  30
  -1   9   6 7693.13 341.812  52
  -1   9   6 8375.37 370.102  25
   1  -9  -5 3151.54 211.784  17
  -1   9   5 2825.29 223.662  52
  -1   9   5 3262.00 238.519  37
   1  -9  -5 3092.67 203.605  32
  -1   9   4 17137.6 636.966  52
   1  -9  -4 16217.0 554.416  17
   1  -9  -4 16205.4 584.833  32
  -1   9   4 17468.7 620.643  61
   1  -9  -3 250.854 117.118  32
  -1   9   3 387.003 140.121  61
  -1   9   2 24179.9 840.995  52
  -1   9   2 24444.4 856.414  61
  -1   9   1 859.823 148.468  52
   1  -9   0-35.8962 83.4322  63
  -1   9   0 66.7258 88.6868  52
   1  -9   1 23491.2 752.692  63
   1  -9   1 30447.9 791.093  60
   1  -9   2 6464.33 239.553  60
  -1   8  10 1539.45 126.727  37
  -1   8  10 1592.23 123.412  50
  -1   8   9 373.366 115.661  50
  -1   8   9 441.057 108.956  25
  -1   8   8 27933.3 908.159  25
  -1   8   8 26218.9 886.208  50
  -1   8   7 365.069 165.294  37
  -1   8   7 151.196 138.946  30
  -1   8   7 206.021 121.134  50
  -1   8   6 62406.4 1858.07  52
  -1   8   6 62263.5 1923.74  37
  -1   8   6 61492.9 1848.37  50
   1  -8  -5 81561.6 2295.81  17
  -1   8   5 74693.5 2942.00  10
  -1   8   5 77892.7 2818.83   7
  -1   8   4 41.0461 204.154   7
  -1   8   4 124.391 121.058  61
  -1   8   4 80.6884 122.256  37
  -1   8   4 125.085 158.348  30
  -1   8   4 97.2061 128.618  52
  -1   8   4 26.7134 265.725  10
   1  -8  -4 79.5262 105.136  32
  -1   8   3 13668.6 561.030  61
   1  -8  -3 12944.7 507.806  32
  -1   8   3 14422.4 597.137  30
  -1   8   3 10278.7 713.894   9
  -1   8   3 10846.1 884.793  10
  -1   8   2 36495.5 1212.10  52
   1  -8  -2 37888.6 1169.44  32
  -1   8   2 38225.2 1244.16  61
  -1   8   2 36403.6 1751.41  10
  -1   8   1 15703.5 590.245  52
   1  -8  -1 14940.1 550.788  32
  -1   8   0 13169.1 524.290  52
   1  -8   0 11886.5 447.574  19
   1  -8   1 4993.32 257.436  19
   1  -8   1 5047.09 280.900  63
  -1   8  -1 5402.08 278.489  52
   1  -8   2 2038.16 184.863  60
   1  -8   2 1745.90 158.108  19
   1  -8   2 1540.97 144.668  63
   1  -8   3 5850.97 241.087  60
   1  -8   3 4581.89 228.567  16
  -1   8  -4 326.420 60.8652  23
  -1   7  10 6610.23 291.681  37
  -1   7  10 6395.29 309.624  57
  -1   7   9 2361.52 187.336  25
  -1   7   9 2680.82 244.708  57
  -1   7   9 2572.62 210.447  50
  -1   7   9 2616.25 217.994  37
  -1   7   8 17925.1 632.712  30
  -1   7   8 18626.1 737.825  57
  -1   7   8 17138.2 662.912  25
  -1   7   8 19782.1 678.245  50
  -1   7   7 10544.2 475.995  25
  -1   7   7 10810.4 465.817  30
  -1   7   7 10455.5 522.198  57
  -1   7   6 11266.6 786.581   7
  -1   7   6 12879.8 533.761  30
  -1   7   6 13000.0 579.701  57
  -1   7   6 11915.6 478.747  52
  -1   7   5 1440.99 331.494  10
  -1   7   5 1068.63 296.795   7
   1  -7  -5 1374.97 180.409  17
  -1   7   5 1343.55 165.712  52
  -1   7   5 1797.62 210.287  30
  -1   7   5 1471.62 191.595  37
  -1   7   5 1254.95 152.253  50
  -1   7   4 10028.1 449.739  61
  -1   7   4 10900.0 820.095  10
  -1   7   4 11752.0 499.238  37
  -1   7   4 9831.82 668.366   9
  -1   7   4 11299.1 477.235  52
  -1   7   3 122697. 3327.90  30
  -1   7   3 121273. 3301.86  37
  -1   7   3 122117. 3594.95   9
  -1   7   3 125593. 3985.24  10
  -1   7   3 108677. 3269.92  52
  -1   7   3 125395. 3309.65  61
   1  -7  -3 112681. 3231.70  32
  -1   7   2 29367.3 966.927  30
  -1   7   2 27759.4 1144.06   9
  -1   7   2 26923.2 924.838  52
  -1   7   2 27806.4 952.460  61
  -1   7   2 27367.4 1402.58  10
   1  -7  -2 25825.0 876.063  32
   1  -7  -1 10814.4 433.275  32
  -1   7   1 11189.5 506.578  61
  -1   7   1 10007.0 457.758  52
  -1   7   1 10750.7 649.039   9
   1  -7   0 66517.0 1785.74  32
  -1   7   0 61779.9 1805.89  52
  -1   7   0 62515.3 2455.32  10
  -1   7  -1 260.393 120.806  52
  -1   7  -1 171.587 216.730  10
  -1   7  -1 171.147 160.212  61
   1  -7   1 330.238 159.218  19
  -1   7  -2 1424.46 210.592  61
   1  -7   2 1188.41 162.984  63
   1  -7   2 1630.21 190.058  19
   1  -7   3 4116.32 239.092  63
   1  -7   4 192.896 112.854  16
   1  -7   5 1320.10 124.612  64
  -1   7  -5 1514.75 107.253  23
  -1   6  11 2002.49 111.660  50
  -1   6  10 17478.4 592.352  21
  -1   6  10 14825.8 529.740  54
  -1   6  10 18302.7 587.151  50
  -1   6  10 16022.7 560.054  37
  -1   6   9 58625.8 1761.12  54
  -1   6   9 63046.5 1815.72  21
  -1   6   8 37353.2 1183.72  54
  -1   6   8 35222.1 1161.22  25
  -1   6   8 37621.1 1221.70  21
  -1   6   7 681.861 278.362   7
  -1   6   7 639.785 159.056  25
  -1   6   7 788.115 206.202  57
  -1   6   7 555.760 155.266  54
  -1   6   7 644.861 185.537  21
  -1   6   7 686.918 148.323  30
  -1   6   6 832.084 271.064   7
  -1   6   6 812.626 170.107  21
  -1   6   6 855.792 184.947  57
  -1   6   6 945.460 157.751  30
  -1   6   6 1131.78 164.456  54
  -1   6   5 3390.19 252.813  30
  -1   6   5 3893.57 297.389  57
  -1   6   5 4049.72 451.220   7
  -1   6   5 3491.64 449.142  10
  -1   6   5 3767.72 236.853  52
   1  -6  -5 4132.10 213.179  17
  -1   6   4 44882.5 1605.05   9
  -1   6   4 45714.2 1376.96  57
  -1   6   4 46430.3 1802.44  10
  -1   6   3 102718. 3152.78   9
  -1   6   3 102267. 2913.53  30
  -1   6   2 2883.90 410.629  10
  -1   6   2 2944.48 340.337   9
  -1   6   2 2553.77 219.388  30
  -1   6   1 8334.98 390.036  61
   1  -6  -1 7584.35 323.855  32
  -1   6   1 9377.84 537.154   9
  -1   6   1 9802.89 400.063  30
  -1   6   0 46458.6 1518.20   9
   1  -6   0 41034.7 1252.41  32
  -1   6   0 39063.4 1275.09  52
  -1   6   0 44149.0 1347.87  61
  -1   6  -1 16046.9 611.365  52
  -1   6  -1 16818.0 672.884  61
  -1   6  -2 2815.95 254.735  61
   1  -6   2 1912.24 184.598  15
   1  -6   3 8208.72 349.035  15
   1  -6   3 8955.37 402.425  63
   1  -6   4 13420.5 560.209  64
   1  -6   4 12002.3 467.425  63
   1  -6   4 12536.4 423.707  46
   1  -6   5 1737.03 195.269  64
   1  -6   5 1419.34 146.438  19
   1  -6   6 23750.9 704.227  64
  -1   6  -6 20867.9 643.576  23
  -1   5  11 127.059 74.7375  57
  -1   5  11 122.457 46.5224  54
  -1   5  11 169.015 79.6651  21
  -1   5  10 611.827 123.909  50
  -1   5  10 357.729 136.709  57
  -1   5  10 374.660 108.544  54
  -1   5  10 382.309 139.113  21
  -1   5  10 425.928 95.0140   5
  -1   5   9 11814.9 521.988  21
  -1   5   9 12005.1 529.032  57
  -1   5   9 10441.3 463.175  50
  -1   5   8 4124.90 269.737  25
  -1   5   8 3926.48 304.653  21
  -1   5   7 2046.17 228.859  21
  -1   5   7 1764.81 329.014   2
  -1   5   7 1549.74 339.784   7
  -1   5   7 1970.46 201.497  25
  -1   5   6 2036.98 324.269   2
  -1   5   6 1845.36 180.664  30
  -1   5   6 2097.68 357.567   7
  -1   5   6 1707.90 213.153  57
  -1   5   6 2279.55 220.546  21
  -1   5   5-18.4249 157.656  10
  -1   5   5-32.2154 198.831   7
  -1   5   4 2571.65 348.099  10
  -1   5   4 2276.36 330.315   9
  -1   5   4 2584.31 349.830   7
  -1   5   3 7499.82 563.936  10
  -1   5   3 8667.79 522.046   9
  -1   5   3 8348.74 413.960   1
  -1   5   2 10418.2 666.849  10
  -1   5   2 10644.2 558.624   9
  -1   5   2 10224.9 465.845   1
  -1   5   1 32770.1 1155.28   9
  -1   5   1 32129.9 1066.83   1
  -1   5   0 26016.9 989.177   9
  -1   5  -1 23929.5 857.171   9
   1  -5   1 15938.4 524.566  15
  -1   5  -2 77.7248 135.865  61
  -1   5  -2 118.573 204.074   9
  -1   5  -2 355.041 262.958   8
   1  -5   2 349.647 137.088  15
  -1   5  -3 18022.3 665.269  61
  -1   5  -3 16432.8 848.201   8
   1  -5   3 15696.4 606.180  63
   1  -5   3 15925.2 549.797  15
   1  -5   4 666.079 129.478   6
   1  -5   4 649.766 169.907  15
   1  -5   4 634.183 141.942  63
   1  -5   5 1307.93 170.392  19
   1  -5   5 877.627 191.906  64
   1  -5   5 921.695 148.881  46
   1  -5   5 695.208 121.698   6
   1  -5   5 800.274 172.097  15
   1  -5   6 970.122 181.574  64
   1  -5   6 1047.76 163.570  15
   1  -5   6 1337.95 151.434  46
  -1   4  11 1609.48 100.209   5
  -1   4  11 1774.24 117.605  54
  -1   4  11 1798.10 119.096  57
  -1   4  11 1997.03 139.358  21
  -1   4  10 574.573 112.515  50
  -1   4  10 514.049 139.449  57
  -1   4   9 145.092 147.435  21
  -1   4   9 130.010 118.909  50
  -1   4   9 194.701 153.144  57
  -1   4   9 61.1883 139.363  53
  -1   4   8 26839.4 1325.99   7
  -1   4   8 30577.8 992.468  53
  -1   4   8 25340.0 1321.35   2
  -1   4   8 28632.3 1005.97  45
  -1   4   8 28686.6 932.407  25
  -1   4   8 27501.9 994.548  21
  -1   4   7 6896.33 610.432   7
  -1   4   7 7012.08 614.967   2
  -1   4   7 7754.71 362.648   6
  -1   4   7 8147.33 422.486  45
  -1   4   7 7739.33 391.544  36
  -1   4   7 8122.55 402.298  53
  -1   4   7 7355.84 402.484  21
  -1   4   7 7784.86 371.922  25
  -1   4   6 22330.4 764.273  53
  -1   4   6 22707.0 748.828  25
  -1   4   6 21420.5 1046.42   2
  -1   4   6 24283.6 1078.63   7
  -1   4   6 22186.3 776.565  21
  -1   4   6 21768.6 781.646  45
  -1   4   6 20083.3 741.826  36
  -1   4   5 181.691 172.552   2
  -1   4   5 69.8800 184.459   7
  -1   4   4 2511.18 321.538  10
  -1   4   4 2669.29 325.485   7
  -1   4   4 2328.10 284.824   2
  -1   4   3 2057.59 283.779  10
  -1   4   3 2572.59 233.394   1
  -1   4   3 2168.49 303.254   9
  -1   4   2 54631.6 1714.20   9
  -1   4   2 52981.7 1610.76   1
  -1   4   2 57624.3 1861.37  10
  -1   4   1 22374.8 835.791   9
  -1   4   0 11259.6 567.658   8
  -1   4   0 12569.0 555.062   9
  -1   4  -1 11335.4 525.606   9
  -1   4  -1 11590.1 548.109   8
  -1   4  -2 33701.2 1232.07   8
  -1   4  -3 467.361 237.362   8
  -1   4  -3 114.408 116.185  61
  -1   4  -3 338.387 200.986   9
  -1   4  -4 3421.49 384.257   8
   1  -4   4 3137.25 230.384  63
   1  -4   5 23151.3 759.073  46
   1  -4   5 24127.3 757.104  15
   1  -4   5 25809.0 1108.25  13
   1  -4   5 24681.9 880.172  64
   1  -4   5 21954.6 779.966   6
   1  -4   5 23319.5 812.279  63
   1  -4   6 625.705 99.7868  16
   1  -4   6 1064.73 147.020  19
   1  -4   6 1052.92 185.639  64
   1  -4   6 812.289 150.759  46
   1  -4   6 907.828 147.277   6
   1  -4   6 963.960 187.306  15
  -1   4  -7 4784.62 226.350  23
   1  -4   7 5691.86 263.276  15
   1  -4   7 5690.41 308.178  64
   1  -4   7 5504.31 249.678   6
   1  -4   8 345.238 69.8809  22
  -1   3  11 9.89210 57.5091   5
  -1   3  11 2.55096 69.4902  21
  -1   3  10 2840.26 209.576  57
  -1   3  10 3258.84 228.792  53
  -1   3   9 44813.1 1409.55  50
  -1   3   9 47943.1 1480.95  45
  -1   3   9 50382.1 1450.68   6
  -1   3   9 49726.1 1483.31  53
  -1   3   8 37283.5 1708.85   2
  -1   3   8 43843.3 1327.23  53
  -1   3   8 39821.6 1318.35  45
  -1   3   8 39874.5 1277.86  36
  -1   3   8 42588.6 1278.81   6
  -1   3   8 39679.5 1675.74   7
  -1   3   7 75638.3 2160.82  53
  -1   3   7 73523.0 2173.73  45
  -1   3   7 76147.8 2632.66   2
  -1   3   7 75080.7 2138.26  36
  -1   3   7 76447.7 2116.95   6
  -1   3   7 80223.1 2607.70   7
  -1   3   7 68521.0 2093.38  25
  -1   3   6 79053.0 2639.19   2
  -1   3   6 76974.0 2243.73  45
  -1   3   6 81708.6 2601.51   7
  -1   3   5 6090.27 478.846   2
  -1   3   5 8078.22 513.621   7
  -1   3   4 3412.12 326.078   7
  -1   3   4 3401.98 327.023   2
  -1   3   4 3553.10 333.756  10
  -1   3   3 5709.15 393.461  10
  -1   3   3 5573.84 390.035   7
  -1   3   3 5814.58 333.837   1
  -1   3   3 4774.97 352.651   2
  -1   3   2 8457.85 377.572   1
  -1   3   2 8268.39 423.668   9
  -1   3   2 7962.15 455.380  10
  -1   3   1 134588. 3702.81   9
  -1   3   0 4787.77 343.526   9
  -1   3   0 4871.49 350.541   8
  -1   3  -1 9838.44 491.899   8
  -1   3  -1 9777.89 486.216   9
  -1   3  -2 6855.99 421.571   8
  -1   3  -3 22495.5 886.248   8
  -1   3  -4 101411. 3012.22   8
   1  -3   5 78468.6 2230.92  63
   1  -3   5 78361.2 2278.67  64
  -1   3  -5 80719.8 2443.90   8
   1  -3   5 70792.9 2197.06   6
   1  -3   5 78131.9 2168.08  46
   1  -3   6 42758.2 1584.59  13
   1  -3   6 41564.9 1270.01   6
   1  -3   6 39789.1 1319.56  64
   1  -3   6 41077.5 1186.23  55
   1  -3   6 40379.6 1224.91  46
   1  -3   7 2499.82 218.611  15
   1  -3   7 2488.76 231.746  64
  -1   3  -7 2022.95 157.047  23
   1  -3   7 2800.69 211.168   6
   1  -3   8 1019.57 126.454   6
   1  -3   8 758.298 104.349  45
   1  -3   8 957.293 128.366  22
   1  -3   9 4.03086 57.0560  53
   1  -3   9-16.1120 42.6770  22
  -1   2  11 3019.53 133.471   5
  -1   2  11 2397.49 122.899  21
  -1   2  10 665.371 133.866  45
  -1   2  10 767.822 142.235  21
  -1   2  10 780.549 144.146  53
  -1   2   9 3162.21 268.336  53
  -1   2   9 3323.76 246.532   6
  -1   2   9 3464.51 264.885  45
  -1   2   8 48207.7 1506.16  45
  -1   2   8 49147.0 1464.28  36
  -1   2   8 48740.8 1474.09   6
  -1   2   8 49455.8 1521.59  53
  -1   2   8 46203.8 1969.89   2
  -1   2   8 46446.2 1877.11   7
  -1   2   7 3830.07 457.966   7
  -1   2   7 3710.26 248.715  36
  -1   2   7 3841.92 256.800   6
  -1   2   7 3839.43 479.131   2
  -1   2   7 3932.75 268.626  49
  -1   2   7 3861.57 281.798  45
  -1   2   6 3630.60 404.713   7
  -1   2   6 2924.58 299.167  12
  -1   2   6 3432.19 398.128   2
  -1   2   6 2429.02 289.859  14
  -1   2   5 354.608 141.484  12
  -1   2   5 457.159 179.531  14
  -1   2   5 518.235 206.890   2
  -1   2   5 351.465 200.049   7
  -1   2   4 47710.6 1578.82   7
  -1   2   4 48165.2 1614.90   2
  -1   2   3 434.404 156.331  10
  -1   2   3 448.519 177.663   2
  -1   2   3 973.464 197.060   1
  -1   2   3 701.438 198.953   7
  -1   2   2 194.027 139.545   1
  -1   2   2 43.3451 131.558   2
  -1   2   2 109.023 123.400  10
  -1   2   1 184681. 4938.61   9
  -1   2   0 180833. 4837.57   9
   1  -2   1 12883.1 543.847  12
  -1   2  -1 11084.6 468.537   8
  -1   2  -2 126758. 3612.83   8
   1  -2   2 140655. 3793.46  12
  -1   2  -3 122870. 3240.79   8
   1  -2   3 110996. 3062.14  18
  -1   2  -4 117596. 3126.80   8
   1  -2   4 104034. 2936.17  18
   1  -2   5 8039.24 372.278  63
  -1   2  -5 9058.06 516.493   8
   1  -2   5 9905.63 701.867  12
   1  -2   5 10089.2 591.464  13
   1  -2   5 9122.32 402.494  18
   1  -2   5 8295.11 401.524  64
   1  -2   6 867.718 169.560  64
   1  -2   6 995.917 170.608  60
   1  -2   6 846.110 283.723  13
   1  -2   6 800.108 162.195   6
   1  -2   6 771.451 155.220  46
   1  -2   7 3381.34 460.774   2
   1  -2   7 3363.46 240.216  46
   1  -2   7 2605.70 350.656  14
   1  -2   7 3046.96 188.209  55
   1  -2   7 2885.51 392.235  13
   1  -2   7 3325.55 270.697  64
   1  -2   7 3545.36 255.932   6
   1  -2   8 4499.78 270.048   6
   1  -2   9 3547.69 199.194   6
  -1   1  10 102.881 96.8378  21
  -1   1  10-48.4177 91.2001  45
  -1   1  10 39.7266 108.795  53
  -1   1   9 33623.1 1076.14  45
  -1   1   9 33686.2 1055.44   6
  -1   1   9 33818.9 1094.44  53
  -1   1   9 32700.8 1022.80  36
  -1   1   8 12181.9 501.742  36
  -1   1   8 11953.9 878.053   2
  -1   1   8 13448.6 541.388   6
  -1   1   8 13533.4 563.456  45
  -1   1   7 14843.5 569.559   6
  -1   1   7 15291.7 933.977   2
  -1   1   7 13968.8 590.424  45
  -1   1   7 15162.4 557.444  49
  -1   1   7 13882.0 545.572  36
  -1   1   7 15978.3 905.867   7
  -1   1   6 34262.9 1311.19  12
  -1   1   6 35066.9 1096.84  46
  -1   1   6 35738.2 1498.88   2
  -1   1   6 34542.9 1233.56  14
  -1   1   6 33347.5 1096.68   6
  -1   1   6 34812.2 1080.67  49
  -1   1   5 29775.7 1235.26   2
  -1   1   5 30796.5 1052.08  14
  -1   1   5 33703.4 1253.39   7
  -1   1   5 27635.4 1084.83  12
  -1   1   5 31656.5 905.349  18
  -1   1   4 10201.7 493.185  12
  -1   1   4 11938.0 617.586   2
  -1   1   4 11452.2 579.754   7
  -1   1   4 10634.6 465.451  14
  -1   1   3 177343. 4779.87  12
  -1   1   3 168781. 4731.35  14
  -1   1   3 179986. 4853.60   7
  -1   1   2 119724. 3447.19  10
  -1   1   2 129087. 3442.59   9
  -1   1   2 122373. 3390.81  14
  -1   1   2 132118. 3510.64   2
  -1   1   2 129390. 3459.28   7
  -1   1   2 131159. 3442.63   1
  -1   1   1 955.498 138.223   2
  -1   1   1 1169.95 142.572   1
  -1   1   1 978.680 115.129  10
  -1   1   0 100721. 2709.68   9
   1  -1   1 15487.5 564.374  12
   1  -1   2 169600. 4655.19  12
   1  -1   3 71043.0 2194.14  12
   1  -1   4 5343.04 245.478  18
   1  -1   5 1572.76 288.930  13
   1  -1   5 1681.89 314.672  12
   1  -1   5 1592.76 168.851  18
   1  -1   6-6.17559 107.859  64
   1  -1   6 266.775 122.520   6
   1  -1   6 210.134 100.662  55
   1  -1   6 103.892 124.769  60
   1  -1   6 282.516 252.924  13
   1  -1   6 79.0031 114.470  46
  -1   1  -6 78.3139 182.719   8
   1  -1   6 243.344 242.076  12
   1  -1   7 2612.16 230.827   6
   1  -1   7 2402.96 371.844  13
   1  -1   7 2310.94 180.315  55
   1  -1   7 2325.23 228.879  64
   1  -1   7 2333.50 345.227  14
   1  -1   7 2130.71 218.015  46
   1  -1   8 313.658 105.722  55
   1  -1   9-122.500 110.212  22
   1  -1   9-18.9875 89.8688  45
   1  -1   9 87.2906 128.793  15
   1  -1  10 37.5897 59.5864  22
   1  -1  10 113.398 84.1453  53
   1  -1  10 105.174 78.0294   6
  -1   0  10 1298.62 114.558  45
  -1   0   9 1691.52 149.800  36
  -1   0   9 1612.34 183.363  45
  -1   0   8 51398.0 1538.11  36
  -1   0   8 53700.7 1477.47  15
  -1   0   8 51522.6 1601.81  45
  -1   0   7 96932.1 2735.60  36
  -1   0   7 99287.2 2727.98  49
  -1   0   6 88078.5 2466.41  49
  -1   0   6 94520.8 2660.67  14
  -1   0   6 89360.0 2452.50  35
  -1   0   6 88147.9 2485.67  36
  -1   0   6 89440.6 2820.44  12
  -1   0   5 41554.1 1523.45  12
  -1   0   5 44133.4 1423.07  14
  -1   0   5 42188.9 1439.10  13
  -1   0   4 145.331 167.399  13
  -1   0   4-8.44625 144.065  12
  -1   0   4 90.4134 141.370  14
  -1   0   3 54701.6 1536.71  14
  -1   0   3 52447.1 1547.08  13
  -1   0   3 54011.4 1613.52  12
  -1   0   2 219316. 5920.53  12
  -1   0   2 224240. 5966.73   7
  -1   0   2 223635. 5881.59  13
  -1   0   2 225207. 5870.37  14
  -1   0   1 111472. 3002.33   7
  -1   0   1 110532. 2941.92  13
  -1   0   1 112232. 2939.15  14
  -1   0   1 113196. 2978.97   9
  -1   0   1 113626. 2954.49  12
  -1   0   0 154.477 34.8219   7
   1   0   1 144726. 3801.82   7
   1   0   2 274707. 7502.07  12
   1   0   2 286890. 7439.06   7
   1   0   3 905930. 23677.8   7
   1   0   4 59842.8 1863.99   7
   1   0   5 21413.4 877.571  13
   1   0   5 22070.9 938.674   7
   1   0   5 22215.5 998.733  12
   1   0   6 190001. 5181.62  14
   1   0   6 172221. 5362.53  12
   1   0   6 183347. 5172.67  13
   1   0   6 190259. 5349.28   7
   1   0   6 181882. 4907.20  18
   1   0   7 11532.6 671.050  13
   1   0   7 10470.7 634.643  14
   1   0   7 9817.14 425.351  46
   1   0   7 10095.8 449.243   6
   1   0   7 9253.41 717.964  12
   1   0   7 10324.0 398.451  55
   1   0   7 10393.5 467.970  64
   1   0   7 10976.7 456.141  18
   1   0   8 2208.29 404.274   2
   1   0   8 2233.48 184.567  55
   1   0   8 2572.32 355.752  14
   1   0   8 2684.37 221.891  22
   1   0   8 2065.29 378.494  12
   1   0   9 162.829 109.205  45
   1   0   9 242.808 126.796  22
   1   0  10 2749.56 152.916  45
   1   0  10 2970.28 180.473  22
  -1  -1  10 7708.48 258.798  53
  -1  -1   9 7567.82 341.250  53
  -1  -1   9 6952.58 321.309  45
  -1  -1   9 7508.63 318.609   6
  -1  -1   8 8016.23 373.721   6
  -1  -1   8 7102.02 384.017  45
  -1  -1   8 6805.33 322.524  36
  -1  -1   8 7685.50 314.384  15
  -1  -1   7 161.459 172.977  46
  -1  -1   7 76.7721 140.985   6
  -1  -1   7-49.8374 131.858  49
  -1  -1   7 41.4338 113.110  36
  -1  -1   7 71.3482 208.931   2
  -1  -1   6 97.3178 123.372   6
  -1  -1   6 141.668 154.260  35
  -1  -1   6 117.197 141.003  46
  -1  -1   6 196.214 127.040  64
  -1  -1   6-21.0810 121.727  49
  -1  -1   6 145.786 105.277  36
  -1  -1   6 64.5680 203.118  13
  -1  -1   6 198.270 223.489   2
  -1  -1   5 5246.02 389.956  13
  -1  -1   5 5285.19 372.025  14
  -1  -1   4 20929.7 878.146  12
  -1  -1   4 20211.2 762.250  13
  -1  -1   4 20223.5 899.655   2
   1   1  -3 23940.9 761.461   8
  -1  -1   3 28909.1 965.271  12
   1   1  -2 4826.12 217.746   8
  -1  -1   2 5272.53 308.355  12
   1   1  -1 22786.1 633.471   8
  -1  -1   0 122113. 3196.31   2
  -1  -1   0 119752. 3175.16   1
   1   1   1 1296.76 107.404  10
   1   1   1 1279.65 109.642  14
   1   1   2 236777. 6341.44   7
  -1  -1  -2 241747. 6296.68  11
   1   1   3 422227. 11143.8   7
   1   1   4 152656. 4324.22  12
   1   1   4 150153. 4226.87   7
   1   1   5 168747. 4830.30  13
   1   1   5 175440. 4833.06  14
   1   1   5 175209. 5029.07  12
   1   1   5 180255. 4971.79   7
   1   1   6 47244.2 1734.23  12
   1   1   6 47894.8 1562.85  14
   1   1   6 45077.5 1563.10  13
   1   1   6 44932.4 1328.00  18
   1   1   6 48885.9 1722.34   7
   1   1   7 5261.81 293.498   6
   1   1   7 5103.32 257.573  55
   1   1   7 5485.94 448.644  14
   1   1   7 4991.32 278.292  22
   1   1   7 5352.20 520.387  12
   1   1   7 5161.73 527.803   7
   1   1   7 5678.25 296.468  18
   1   1   8 38436.9 1411.45  14
   1   1   8 37812.8 1115.92  18
   1   1   8 32242.0 1100.68  45
   1   1   8 36115.3 1555.67   7
   1   1   8 35973.9 1126.22   6
   1   1   8 34123.9 1587.80   2
   1   1   8 32583.7 1046.87  55
   1   1   8 36549.6 1114.13  22
   1   1   8 31240.9 1475.22  12
   1   1   9 3042.70 231.360  22
   1   1   9 2699.94 218.341  45
   1   1   9 3201.61 246.377   6
   1   1  10 16867.1 584.345  45
   1   1  10 18656.4 619.826   6
   1   1  10 17539.4 602.996  22
   1   1  11 9269.23 313.707   6
   1   1  11 8300.06 312.569  53
  -1  -2   9 113.563 73.1510  45
  -1  -2   9 129.372 82.2465  53
  -1  -2   8 5743.44 289.315   6
  -1  -2   8 5578.12 250.664  36
  -1  -2   8 5969.78 265.388  15
  -1  -2   8 5818.05 316.894  45
  -1  -2   7 27582.8 927.815  46
  -1  -2   7 27973.7 878.340  49
  -1  -2   7 28760.4 870.066  15
  -1  -2   7 28521.4 908.432  36
  -1  -2   7 28589.8 936.533   6
  -1  -2   6 6671.04 314.886  49
  -1  -2   6 6388.00 624.653   2
  -1  -2   6 6522.55 345.500   6
  -1  -2   6 5734.12 469.316  13
  -1  -2   6 6388.56 328.838  36
  -1  -2   6 6803.58 348.020  46
  -1  -2   5 9304.25 674.289   2
  -1  -2   5 9025.71 382.036  46
  -1  -2   5 9302.46 368.473  49
  -1  -2   5 9679.24 403.227   6
  -1  -2   5 9187.90 541.060  13
  -1  -2   5 8601.44 346.871  60
  -1  -2   5 10503.0 334.583  19
  -1  -2   5 7963.23 340.678  16
  -1  -2   5 9088.62 396.404  67
  -1  -2   5 8968.86 358.999  35
  -1  -2   4 48715.8 1522.54  13
  -1  -2   4 46360.8 1285.44  19
   1   2  -3 5948.04 299.417   8
   1   2  -2 58081.5 1634.42   8
   1   2  -1 122140. 3270.54   8
   1   2   0 206734. 5393.39   9
   1   2   1 109468. 2845.41   9
   1   2   1 101573. 2927.12  10
   1   2   2 77.1599 120.873  10
  -1  -2  -3 162644. 4337.28  11
   1   2   3 161992. 4446.69   7
   1   2   4 240.329 174.936   7
  -1  -2  -4 165.616 134.600  11
   1   2   5 22255.7 939.899   7
   1   2   5 22280.9 864.494  14
   1   2   6 1855.44 318.634  12
   1   2   6 1612.43 288.847  14
   1   2   6 2176.79 335.340   7
   1   2   7 571.840 134.590  18
   1   2   7 497.715 219.004   2
   1   2   7 506.510 119.862  45
   1   2   7 579.555 131.737   6
   1   2   7 531.018 125.360  22
   1   2   7 579.461 125.147  55
   1   2   7 836.566 283.437   7
   1   2   7 745.989 258.921  12
   1   2   7 761.150 246.186  14
   1   2   8 15014.8 913.598  12
   1   2   8 16218.9 618.694   6
   1   2   8 15420.7 961.736   2
   1   2   8 16846.6 619.195  22
   1   2   8 17457.2 988.647   7
   1   2   8 14846.0 606.733  45
   1   2   8 17337.9 867.886  14
   1   2   8 15707.1 572.040  55
   1   2   8 18767.5 619.976  18
   1   2   9 2501.07 218.503  22
   1   2   9 2261.78 207.221  45
   1   2   9 2327.44 392.524   2
   1   2   9 2538.83 227.076   6
   1   2   9 2552.33 222.224  18
   1   2  10 3817.03 236.477  45
   1   2  10 4149.18 255.167   6
   1   2  10 4107.69 266.485  53
   1   2  11 248.660 96.7344  53
   1   2  11 372.882 95.9564   6
  -1  -3   8 4840.28 248.007  53
  -1  -3   8 5121.57 258.797  45
  -1  -3   8 5230.83 223.411  15
  -1  -3   7 346.367 120.665   6
  -1  -3   7 153.335 98.4812  36
  -1  -3   7 398.124 173.472  46
  -1  -3   7 262.190 148.217  15
  -1  -3   6 13650.8 531.577  46
  -1  -3   6 13161.1 511.851  36
  -1  -3   6 13924.0 500.279  15
  -1  -3   6 13280.4 528.305   6
  -1  -3   5 8374.39 417.418  63
  -1  -3   5 8777.53 405.706   6
  -1  -3   5 8471.25 363.859  60
  -1  -3   5 9467.77 427.509  67
  -1  -3   5 9977.83 351.159  19
  -1  -3   5 8486.33 364.579  16
  -1  -3   5 9849.61 379.507  35
  -1  -3   5 7223.39 561.840  13
  -1  -3   5 6573.04 616.628   2
  -1  -3   4 1458.88 162.208  63
  -1  -3   4 1299.45 271.742   2
  -1  -3   4 1370.82 174.417  64
  -1  -3   4 1439.70 180.115  67
  -1  -3   4 1814.20 145.623  19
   1   3  -3 27744.3 932.752   8
   1   3  -2 158498. 4302.27   8
   1   3  -1 53416.7 1550.04   8
   1   3  -1 52466.8 1473.67   9
   1   3   0 856339. 22253.9   9
   1   3   1 636101. 16573.8   9
   1   3   2 88986.3 2471.96   9
   1   3   2 90670.6 2603.74  10
   1   3   3 3705.72 210.141   2
   1   3   3 4034.34 325.472  10
   1   3   4 113265. 3256.89   2
   1   3   4 122084. 3389.17   7
   1   3   5 23710.4 899.400  14
  -1  -3  -5 22145.8 749.920  11
   1   3   5 22349.1 940.163   7
   1   3   6 8417.02 549.297   2
   1   3   6 9162.34 551.849  14
   1   3   6 9478.42 611.284   7
   1   3   7 5832.28 536.591   7
   1   3   7 5102.62 280.719  22
   1   3   7 5806.66 534.413  12
   1   3   7 5192.23 261.730  55
   1   3   7 5730.76 471.442  14
   1   3   7 5495.68 498.345   2
   1   3   8 4757.40 297.801  45
   1   3   8 5516.95 303.244  22
   1   3   8 5482.35 280.423  18
   1   3   8 4207.61 480.469  12
   1   3   8 4255.37 485.547   2
   1   3   8 4716.35 279.318   6
   1   3   8 4903.68 276.779  38
   1   3   8 4668.23 539.112   7
   1   3   8 4590.83 485.188  14
   1   3   9 91.9075 123.674  22
   1   3   9 43.8119 197.356   2
   1   3   9 323.119 221.597  14
   1   3   9 213.057 127.441   6
   1   3   9 154.932 124.886  45
   1   3   9 197.169 222.267   7
   1   3   9 155.296 128.086  18
   1   3  10 10139.0 435.895  53
   1   3  10 10406.5 421.302   6
   1   3  10 9560.46 416.879  45
   1   3  11 39087.4 1091.93   6
   1   3  11 35930.3 1094.90  53
   1   3  12 950.795 67.2705  21
  -1  -4   8 10359.0 331.864  45
  -1  -4   7 10666.7 364.209  15
  -1  -4   7 10161.0 390.214  46
  -1  -4   6 5138.82 266.193   6
  -1  -4   6 5125.41 271.758  36
  -1  -4   6 5950.75 321.463  46
  -1  -4   5 2381.80 190.894   6
  -1  -4   5 2549.01 185.625  19
  -1  -4   5 2151.85 351.160   2
  -1  -4   5 2141.96 190.478  60
  -1  -4   5 2348.89 228.961  63
  -1  -4   5 1972.21 190.852  16
  -1  -4   5 2229.87 237.466  64
  -1  -4   5 2498.53 338.418  13
  -1  -4   4 603.038 165.371  64
  -1  -4   4 1030.16 184.245  15
  -1  -4   4 434.568 212.603   2
  -1  -4   4 724.783 152.358  63
  -1  -4   4 765.690 187.421  67
  -1  -4   4 652.007 144.998  60
  -1  -4   4 527.041 123.445   6
  -1  -4   4 1213.16 158.067  19
  -1  -4   3 49306.5 1560.94  63
  -1  -4   3 52191.7 1491.20  15
  -1  -4   3 50246.5 1509.45  67
  -1  -4   2 24859.9 773.641  15
  -1  -4   2 27736.2 778.154  19
  -1  -4   1 373.919 106.002  15
   1   4  -1 323.380 118.241   9
   1   4   0 143886. 3863.84   9
   1   4   1 301553. 7969.21   9
   1   4   2 15062.6 584.540   9
   1   4   2 17427.5 747.310  10
   1   4   4 8874.38 407.855   2
   1   4   5 374.384 141.971   2
  -1  -4  -5 192.484 114.808  17
  -1  -4  -5 314.656 149.813  11
   1   4   5 389.971 231.419   7
  -1  -4  -6 31447.3 1034.40  11
   1   4   6 33181.4 1311.69   7
   1   4   6 33494.7 1240.47  14
   1   4   6 29174.7 1187.36   2
  -1  -4  -6 31721.4 897.289  17
   1   4   7 84437.4 2763.66   2
   1   4   7 94278.1 2907.89   7
   1   4   7 86334.8 2390.91  38
   1   4   7 79478.8 2408.45  45
   1   4   7 93233.2 2753.73  14
   1   4   8 21747.9 1137.48  12
   1   4   8 22257.7 752.625   6
   1   4   8 22775.0 810.069  45
   1   4   8 22425.8 780.861  53
   1   4   8 21879.7 766.295  38
   1   4   8 19512.5 1069.41   2
   1   4   8 25118.3 1214.24   7
   1   4   8 23719.5 735.686  18
   1   4   9 27180.7 882.171  38
   1   4   9 27843.9 879.254   6
   1   4   9 26457.8 1331.77   7
   1   4   9 27488.4 910.023  53
   1   4   9 27472.9 845.531  18
   1   4   9 26380.0 921.096  45
   1   4  10 5971.34 315.669  53
   1   4  10 6599.58 305.162   6
   1   4  11 1726.24 172.297  21
   1   4  11 1593.46 139.569  53
   1   4  12 2708.72 129.982  57
   1   4  12 2336.23 126.966  21
  -1  -5   6 122.892 82.5043  36
  -1  -5   6 150.440 136.502  64
  -1  -5   6 317.070 142.205  46
  -1  -5   5 3212.27 273.006  64
  -1  -5   5 2931.77 230.981  46
  -1  -5   5 3193.99 216.865  60
  -1  -5   5 3410.47 207.439  19
  -1  -5   4 9256.34 468.478  63
  -1  -5   4 9926.99 414.863  60
  -1  -5   4 10700.5 515.977  64
  -1  -5   4 8747.04 419.139  16
  -1  -5   4 11136.0 436.059  15
  -1  -5   4 10168.5 450.216  67
  -1  -5   3 36644.9 1287.32  63
  -1  -5   3 37892.7 1235.62  67
  -1  -5   2 18290.8 579.687  15
  -1  -5   2 16605.6 580.104  67
  -1  -5   1 35949.0 1028.28  15
  -1  -5   0 44235.7 1223.33  19
  -1  -5   0 43352.7 1212.42  15
   1   5   1 64993.1 1891.35  10
   1   5   1 57939.5 1579.12   9
   1   5   2 3900.42 397.578  10
   1   5   2 3295.24 271.375   9
   1   5   3 46383.0 1546.08   9
   1   5   3 55548.6 1819.22  10
  -1  -5  -4 87.0060 124.153  17
  -1  -5  -5 1119.46 147.709  17
  -1  -5  -6 7507.31 416.028  11
  -1  -5  -6 7705.57 296.773  17
   1   5   7 17359.7 608.022  30
   1   5   7 15187.2 600.305  38
   1   5   8 30715.9 1007.04  38
   1   5   8 30631.2 967.493  25
   1   5   8 31170.6 1421.60  12
   1   5   8 31902.8 1445.11   7
   1   5   9 4299.70 280.680  38
   1   5   9 3934.14 259.063  53
   1   5  10 2425.10 194.710  53
   1   5  10 2480.14 228.234  21
   1   5  11 1674.23 138.372  50
   1   5  11 1667.42 165.073  21
   1   5  12 1856.30 116.008  21
   1   5  12 2805.56 142.059  57
  -1  -6   6 5220.98 224.691  46
  -1  -6   5 9369.45 356.070  46
  -1  -6   5 9695.01 410.387  64
  -1  -6   4 164.120 147.141  16
  -1  -6   4 190.446 136.989  63
  -1  -6   4 159.187 134.398  19
  -1  -6   4 223.597 146.138  60
  -1  -6   4 140.542 142.978  64
  -1  -6   3 32750.6 1044.25  67
  -1  -6   3 32326.3 1030.02  60
  -1  -6   3 35096.7 1038.64  15
  -1  -6   3 33583.3 1120.88  63
  -1  -6   3 32979.6 1143.92  64
  -1  -6   2 557.988 161.974  67
  -1  -6   2 574.649 175.621  15
   1   6  -2 476.295 141.715  61
  -1  -6   1 8285.20 333.277  15
  -1  -6   1 7770.78 333.460  19
   1   6  -1 7417.10 381.825  61
  -1  -6   0 94966.5 2477.07  19
  -1  -6   0 90165.2 2520.57  32
   1   6   1 152172. 4322.77  10
  -1  -6  -1 139263. 3740.47  19
  -1  -6  -2 49.6451 92.9533  19
   1   6   2 123.404 148.767   9
   1   6   2-53.7871 180.117  10
   1   6   3 15560.4 695.715   9
   1   6   3 19113.0 963.471  10
  -1  -6  -5 1173.80 163.862  17
   1   6   6 30517.5 1024.17  38
   1   6   6 31867.9 1038.80  30
   1   6   6 30779.2 1044.54  57
  -1  -6  -6 33754.2 937.191  17
   1   6   7 46826.3 1450.18  21
   1   6   7 45009.6 1447.23  30
  -1  -6  -7 48242.2 1336.65  17
   1   6   7 50607.2 1472.90  38
   1   6   8 9546.98 452.640  38
   1   6   8 8548.34 710.941   7
   1   6   8 9552.32 453.935  21
   1   6   8 9166.62 419.543  30
   1   6   9 3672.22 274.476  21
   1   6   9 3099.37 263.032  38
   1   6   9 3197.42 214.455  25
   1   6  10 85.3461 144.567  57
   1   6  10 73.5557 126.617  21
   1   6  11 7311.91 320.551  21
   1   6  11 7482.46 349.309  57
   1   6  12 17968.1 550.529  57
  -1  -7   5 62.6263 78.0952  46
  -1  -7   4 8152.39 323.919  46
  -1  -7   4 8675.13 377.630  64
  -1  -7   4 8183.56 313.049  60
  -1  -7   3 828.129 170.499  64
  -1  -7   3 685.215 153.161  19
  -1  -7   3 631.213 156.373  60
  -1  -7   3 812.281 160.787  63
  -1  -7   3 669.401 165.921  16
  -1  -7   2 1788.33 214.033  63
  -1  -7   2 1669.07 196.107  67
   1   7  -2 1394.04 192.358  61
  -1  -7   1 1940.12 198.063  67
   1   7  -1 1586.75 361.246  10
  -1  -7   1 1975.91 203.625  19
   1   7  -1 1937.35 225.028  61
   1   7   0 25754.3 913.445  61
  -1  -7   0 27091.7 811.524  19
   1   7   0 24457.1 1289.27  10
  -1  -7   0 23388.5 834.358  44
  -1  -7   0 26350.2 865.150  32
  -1  -7  -1 6997.92 335.013  44
   1   7   1 7950.62 409.196  61
   1   7   1 7927.73 668.749  10
  -1  -7  -1 8126.62 365.094  32
   1   7   2 14105.9 523.943  30
   1   7   2 15148.3 905.496  10
  -1  -7  -2 12277.9 472.746  44
  -1  -7  -2 12102.0 432.107  19
  -1  -7  -3 1479.43 149.090  44
   1   7   3 1601.57 181.069  30
   1   7   3 1394.90 327.229  10
  -1  -7  -4 16953.7 599.810  44
   1   7   4 16987.9 650.443  30
  -1  -7  -5 74378.3 1964.58  17
   1   7   5 71776.6 2082.68  57
   1   7   6 995.304 331.709  10
   1   7   6 978.908 188.179  30
   1   7   6 709.184 173.399  57
   1   7   7 6686.28 389.182  57
  -1  -7  -7 7019.11 307.511  17
   1   7   7 7434.41 387.820  30
   1   7   8 11268.7 505.266  21
   1   7   8 12079.9 562.457  57
   1   7   9 23729.8 806.781  25
   1   7   9 26024.3 820.374  30
   1   7   9 25539.7 903.903  57
   1   7   9 23267.6 838.059  21
   1   7  10 108.018 116.049  21
   1   7  10 214.896 145.348  57
   1   7  11 17568.1 605.045  57
   1   7  12 3652.13 154.285  57
  -1  -8   4 18.4849 58.6879  64
  -1  -8   4 13.5374 56.8216  46
  -1  -8   3 7384.30 332.419  64
  -1  -8   3 7941.68 338.735  63
  -1  -8   3 8090.81 303.402  46
  -1  -8   3 7763.07 298.208  60
  -1  -8   2 466.188 152.985  60
  -1  -8   2 370.719 140.316  63
  -1  -8   2 580.021 147.474  64
  -1  -8   1 1474.81 189.990  19
   1   8  -1 1207.01 187.405  61
   1   8   0 617.891 176.899  61
  -1  -8   0 640.437 167.656  19
   1   8   0 575.907 270.520  10
   1   8   1 27327.6 1460.10  10
   1   8   1 30361.1 1022.63  61
  -1  -8  -1 28834.3 883.108  19
  -1  -8  -1 27320.0 917.273  44
  -1  -8  -2 289.512 106.366  44
   1   8   2 398.738 140.933  30
   1   8   2 318.501 250.603  10
   1   8   3 92.1630 142.442  61
   1   8   3 52.9432 217.132  10
  -1  -8  -3 13.9913 86.5422  44
   1   8   3 6.41522 128.262  30
   1   8   4 3853.88 280.329  30
  -1  -8  -4 3101.37 211.029  44
   1   8   4 3318.31 502.107  10
   1   8   4 2866.38 249.729  61
  -1  -8  -4 3581.94 247.925  17
  -1  -8  -5 688.756 123.540  44
  -1  -8  -5 941.641 197.536  17
   1   8   5 864.298 180.372  30
   1   8   6 9092.81 782.986  10
   1   8   6 9469.65 439.088  57
  -1  -8  -6 7830.24 361.927  44
  -1  -8  -6 9059.25 370.752  17
   1   8   6 7483.00 371.659  61
   1   8   6 7237.02 681.360   7
   1   8   7 17798.6 697.081  30
   1   8   7 18187.0 700.122  57
  -1  -8  -7 16483.1 616.455  44
  -1  -8  -7 18731.5 593.250  17
   1   8   7 16694.1 1017.10   7
   1   8   8 304.054 159.719  57
   1   8   8 454.928 154.546  30
  -1  -8  -8 393.999 110.925  44
  -1  -8  -8 398.429 147.053  17
   1   8   9 32694.0 1076.54  57
   1   8   9 31524.6 1007.67  30
   1   8   9 31999.8 1002.83  25
   1   8  10 9539.22 424.878  57
   1   8  11 6862.62 287.351  57
   1   8  11 6698.98 273.138  50
  -1  -9   2 13873.7 425.628  46
  -1  -9   2 13501.7 467.990  63
  -1  -9   2 12630.2 456.279  64
  -1  -9   2 13760.0 434.088  60
  -1  -9   1 58.4451 118.465  16
  -1  -9   1-13.8488 97.8415  64
   1   9  -1 24.4543 116.557  61
  -1  -9   1 77.0186 112.090  63
   1   9   0 7935.67 401.068  61
   1   9   0 6913.45 325.867  52
   1   9   1 6941.29 389.922  61
   1   9   1 5512.97 316.378  52
  -1  -9  -2 3059.98 208.209  44
   1   9   3 1894.60 235.848  61
   1   9   3 1757.12 204.425  30
  -1  -9  -3 1547.26 152.693  44
  -1  -9  -4 19450.3 628.861  17
   1   9   4 18578.6 714.145  30
   1   9   4 19066.5 728.498  61
  -1  -9  -4 17061.6 616.822  44
  -1  -9  -4 20252.6 699.877  32
   1   9   4 17554.8 1134.03  10
  -1  -9  -5 2428.22 180.434  44
   1   9   5 3080.30 251.182  61
  -1  -9  -5 3252.48 243.849  17
   1   9   5 2947.95 260.543  30
  -1  -9  -6 49.9469 178.378  17
   1   9   6-77.7506 120.758  37
   1   9   6-43.8375 123.096  61
   1   9   7 14333.6 575.376  37
  -1  -9  -7 15597.9 504.218  17
  -1  -9  -8 62711.9 1710.51  17
   1   9   8 62478.4 1843.69  30
   1   9   9 3228.75 210.024  25
   1   9   9 3602.30 227.191  30
   1   9  10 76.7350 95.3377  37
   1   9  10 6.18473 82.6561  50
   1   9  11 45.4691 51.3219  50
   1   9  11 44.9109 57.3296  37
  -1 -10   1 9.63957 49.6450  63
  -1 -10   1 74.0000 66.4103  60
  -1 -10   0 484.244 108.564  16
  -1 -10   0 772.251 114.818  63
  -1 -10  -1 1540.81 151.425  16
   1  10   1 1764.84 189.343  61
   1  10   1 1728.40 147.653  52
  -1 -10  -1 1477.50 162.080  17
   1  10   2 19036.4 627.635  52
  -1 -10  -2 21393.7 576.262  17
   1  10   3 1268.13 199.734  61
   1  10   3 1001.30 160.905  52
   1  10   4 6169.18 344.264  61
   1  10   4 5811.14 331.050  30
  -1 -10  -4 5423.69 305.909  32
   1  10   5 3573.05 260.482  61
  -1 -10  -5 4257.12 261.498  32
   1  10   5 4475.44 289.429  30
   1  10   5 3867.59 265.856  52
  -1 -10  -5 4429.42 252.618  17
  -1 -10  -6 11885.1 463.134  32
   1  10   6 11939.1 504.671  30
  -1 -10  -6 11270.3 423.869  17
   1  10   6 12220.0 461.352  61
   1  10   6 11061.0 469.017  52
   1  10   7 171.462 98.0752  52
  -1 -10  -7 218.400 146.068  17
  -1 -10  -7 280.230 114.636  32
   1  10   7 100.144 97.9183  37
   1  10   8 8307.96 363.234  30
   1  10   8 7169.05 330.682  37
   1  10   9 927.220 109.495  25
   1  10   9 902.968 120.265  30
   1  10   9 826.464 118.234  37
   1  10   9 745.607 85.1011  50
   1  10  10 3786.12 170.744  37
  -1 -10 -10 3359.68 138.301  32
  -1 -11  -1 11.3249 36.2853  63
   1  11   2 106.079 65.7361  52
  -1 -11  -2 84.3393 72.5595  63
   1  11   2 111.642 85.5850  61
   1  11   3 1114.42 125.404  52
   1  11   4 40703.6 1253.01  52
   1  11   4 45345.4 1271.47  61
  -1 -11  -5 14211.1 490.034  32
   1  11   5 14713.2 502.843  61
  -1 -11  -5 13940.1 458.590  17
  -1 -11  -6 55.9599 86.1544  32
  -1 -11  -6 21.9540 118.448  17
   1  11   6 67.0119 89.4525  52
   1  11   7 511.986 94.8316  25
  -1 -11  -7 525.674 93.2457  32
   1  11   8 20359.4 624.806  25
  -1 -11  -8 20636.2 610.766  32
   1  11   9 739.682 66.8107  25
  -1 -11  -9 670.175 54.2657  32
  -2  10   7 487.057 66.4776  56
  -2  10   7 298.982 54.3273  42
  -2  10   6 14.9956 58.9002  25
  -2  10   6 33.0729 51.3637  42
  -2  10   6 16.3713 67.7994  56
  -2  10   6 13.6071 58.8266  27
  -2  10   5 60.1602 69.1249  56
  -2  10   5 53.0750 46.9960  42
  -2  10   5 96.9406 58.3236  25
  -2  10   5 100.071 64.7294  52
  -2  10   4 3142.38 162.773  56
  -2  10   4 3595.68 189.269  52
  -2  10   3 428.919 90.3640  52
  -2  10   2 8107.96 305.083  52
   2 -10  -1 2547.36 109.937  60
  -2  10   1 2947.64 134.618  40
  -2   9   8 482.923 62.1864  51
  -2   9   8 531.247 90.4509  56
  -2   9   7 264.210 98.2992  42
  -2   9   7 280.911 100.531  25
  -2   9   6 14400.5 518.041  25
  -2   9   5 2841.11 195.161  25
  -2   9   5 3209.96 204.018  52
   2  -9  -5 2763.02 160.172  32
   2  -9  -4 21335.8 695.806  17
  -2   9   4 26742.2 810.720  56
   2  -9  -4 22940.9 730.814  32
  -2   9   4 26460.1 807.616  52
  -2   9   4 24905.2 759.491  25
  -2   9   3 24616.6 800.802  56
   2  -9  -3 24737.2 742.457  17
  -2   9   2 1059.53 157.458  52
  -2   9   1 3024.31 204.810  52
  -2   9   0 832.324 105.411  52
   2  -9   1 1049.25 103.435  60
   2  -9   2 2014.59 120.358  64
  -2   9  -2 2274.16 113.369  40
   2  -9   2 2142.90 96.8849  60
  -2   8   9 7293.98 296.905  37
  -2   8   9 7225.57 274.797  42
  -2   8   8 8848.86 386.589  37
  -2   8   8 9112.80 358.005  50
  -2   8   8 8118.52 358.273  42
  -2   8   7 146.414 139.354  37
  -2   8   7 90.8089 107.828  50
  -2   8   6 91.2642 139.692  37
  -2   8   6 44.7004 80.6693  52
   2  -8  -6 68.9029 73.6228  32
  -2   8   6 138.432 105.510  50
  -2   8   6 142.601 119.545  25
  -2   8   5-49.0110 115.671  25
   2  -8  -5 45.0579 82.3379  32
  -2   8   5-96.0629 112.109  52
  -2   8   5 27.1307 134.934  37
  -2   8   4 1069.59 162.870  52
   2  -8  -4 774.484 165.462  17
   2  -8  -4 835.367 127.395  32
  -2   8   4 910.267 146.262  25
  -2   8   4 1120.46 145.717  61
  -2   8   4 943.748 178.799  37
  -2   8   3 20118.8 703.954  61
   2  -8  -3 20210.2 661.126  32
  -2   8   2 19112.8 676.640  56
  -2   8   2 18846.1 711.204  52
  -2   8   2 18790.5 706.351  61
   2  -8  -2 17293.4 637.382  32
  -2   8   1 3159.53 271.050  61
  -2   8   1 2770.31 239.886  52
  -2   8   0 19633.5 613.022  52
   2  -8   0 12648.3 475.451  19
   2  -8   1 1317.13 147.626  19
  -2   8  -1 1723.40 151.427  52
   2  -8   2 2944.50 179.183  60
   2  -8   2 1903.02 150.483  19
  -2   8  -3 5817.06 248.754  23
   2  -8   3 6025.52 233.661  60
   2  -8   3 6201.42 279.682  64
  -2   7  10 414.337 57.9048  65
  -2   7   9 4070.15 209.741  42
  -2   7   9 4216.11 241.380  37
  -2   7   9 4313.26 227.103  65
  -2   7   8 4585.62 276.764  50
  -2   7   8 5137.23 293.020  25
  -2   7   8 5391.40 306.742  37
  -2   7   7 26137.5 840.173  50
  -2   7   7 23048.5 775.339  27
  -2   7   6 30528.8 984.678  65
  -2   7   6 28592.0 1032.71  37
  -2   7   6 29195.6 1005.27  25
  -2   7   6 28263.7 931.626  52
  -2   7   6 33486.0 1036.00  30
  -2   7   6 32891.1 1006.39  50
  -2   7   5 104.979 112.393  50
  -2   7   5 241.846 112.755  52
  -2   7   5-12.0733 118.914  25
  -2   7   5-7.50939 147.534  37
  -2   7   5 90.1087 148.538  30
  -2   7   5 66.9166 185.649  10
  -2   7   5 201.669 193.525   7
  -2   7   4 95.4025 177.541  10
  -2   7   4 176.348 246.831   9
  -2   7   4-25.0351 113.788  52
  -2   7   4 66.7880 138.891  37
  -2   7   4 68.8267 177.875   7
  -2   7   4 7.35311 150.615  30
   2  -7  -4 123.809 96.9755  32
  -2   7   3 60477.3 2380.25  10
  -2   7   3 60484.3 1825.23  61
   2  -7  -3 60842.2 1772.81  32
  -2   7   3 67808.2 1890.53  37
  -2   7   3 65852.7 2200.55   9
  -2   7   3 57642.8 2158.39   7
  -2   7   3 61049.4 1846.98  52
  -2   7   2-154.368 228.899  10
  -2   7   2 163.766 233.802   9
  -2   7   2 53.9979 128.097  61
   2  -7  -2 68.7038 99.5656  32
   2  -7  -1 2009.75 173.157  19
  -2   7   1 3858.61 275.101  52
  -2   7   1 2679.26 452.486  10
  -2   7   1 3919.07 295.213  61
   2  -7  -1 3143.75 224.614  32
  -2   7   1 3520.78 235.550  56
  -2   7   1 3180.69 412.679   9
  -2   7   0 71646.1 2586.74  10
  -2   7   0 80881.0 1935.83  52
  -2   7  -1 676.032 145.630  52
   2  -7   1 569.545 152.872  19
   2  -7   2 3271.57 218.024  19
  -2   7  -2 4165.58 228.625  52
   2  -7   3 57731.0 1528.96  60
   2  -7   3 50745.3 1505.17  19
   2  -7   4 44.4572 97.8198  19
   2  -7   4-12.1322 118.986  60
   2  -7   4 155.520 112.751  64
   2  -7   5 4058.77 192.823  64
  -2   7  -5 5515.01 198.438  23
  -2   6  10 11654.9 399.223  54
  -2   6  10 14865.9 446.026  50
  -2   6   9 295.690 110.859  54
  -2   6   9 377.185 146.430  57
  -2   6   9 332.241 113.404  37
  -2   6   8 3321.67 246.813  25
  -2   6   8 3492.59 255.857  54
  -2   6   8 3273.26 250.695  37
  -2   6   7 53871.9 1563.73  25
  -2   6   7 52493.4 1569.03  37
  -2   6   7 51900.5 1571.44  54
  -2   6   6 556.478 155.484  50
  -2   6   6 711.676 244.409   7
  -2   6   6 544.902 156.863  54
  -2   6   6 663.453 150.224  30
  -2   6   6 472.445 188.886  57
  -2   6   5 468.242 125.701  52
  -2   6   5 422.516 143.925  50
  -2   6   5 446.729 158.450  54
  -2   6   5 573.884 243.579   7
  -2   6   5 321.366 154.114  37
  -2   6   5 486.767 152.244  30
  -2   6   5 512.918 149.231  25
  -2   6   5 413.010 227.179  10
  -2   6   5 445.791 176.732  57
  -2   6   4 26890.8 882.223  50
  -2   6   4 25000.7 887.342  52
  -2   6   4 24084.3 1242.44  10
  -2   6   4 26042.6 1184.47   9
  -2   6   4 28378.8 950.062  37
  -2   6   4 25258.8 1163.39   7
  -2   6   4 30074.7 944.767  30
  -2   6   3 24230.0 808.507  52
  -2   6   3 21565.7 769.006  61
  -2   6   3 24958.9 1080.45   9
  -2   6   3 21486.9 1158.33  10
  -2   6   3 22928.2 823.972  37
  -2   6   2 113.515 209.443  10
  -2   6   2 76.5645 109.599  37
  -2   6   2 74.7553 130.063  30
  -2   6   2 47.8855 112.378  61
   2  -6  -2 218.832 93.7507  32
  -2   6   2 87.7983 229.237   9
  -2   6   1 68.1293 186.289  10
  -2   6   1 141.952 120.009  52
  -2   6   1 29.0085 219.761   9
   2  -6  -1 50.1546 89.8235  32
  -2   6   1 138.346 130.422  61
  -2   6   0 83707.2 2497.91   9
   2  -6   0 71592.0 2115.87  32
  -2   6   0 79106.3 2220.01  61
  -2   6   0 72234.2 2164.35  52
  -2   6  -1 4443.04 278.394  52
  -2   6  -1 3955.27 439.008   9
  -2   6  -2 13249.0 591.045  61
  -2   6  -2 12448.2 503.059  52
   2  -6   3 11806.3 454.482  60
   2  -6   3 10566.2 424.339  19
   2  -6   4 290.493 147.956  60
   2  -6   4 262.521 153.143  64
   2  -6   5 1560.92 146.643  19
   2  -6   5 2065.54 183.670  60
   2  -6   5 1662.27 186.138  64
   2  -6   6 14211.8 463.097  64
  -2   6  -6 13731.1 437.667  23
  -2   5  10 6009.54 260.871  54
  -2   5  10 6841.40 285.488  57
  -2   5  10 6308.17 257.542  50
  -2   5   9 4838.18 299.244  57
  -2   5   9 4577.46 270.082  50
  -2   5   9 4026.38 245.410  37
  -2   5   9 4660.12 300.013  21
  -2   5   9 4500.73 242.865   5
  -2   5   9 4717.32 281.327  54
  -2   5   8 2573.97 205.396  42
  -2   5   8 2965.31 256.709  54
  -2   5   8 2894.97 262.924  57
  -2   5   8 2545.67 221.630  37
  -2   5   8 2765.17 217.946   5
  -2   5   8 3172.42 271.014  21
  -2   5   7 15570.1 607.453   5
  -2   5   7 14418.9 900.117   7
  -2   5   7 15993.2 673.714  57
  -2   5   7 16327.2 672.594  21
  -2   5   7 17800.1 655.484  25
  -2   5   7 16532.3 672.735  54
  -2   5   6 11289.2 498.522  25
  -2   5   6 11471.5 470.385   5
  -2   5   6 11573.3 530.158  21
  -2   5   6 10998.0 466.520  30
  -2   5   6 12283.8 532.421  54
  -2   5   6 10616.6 725.463   7
  -2   5   5 15811.4 631.795  21
  -2   5   5 15432.3 637.321  57
  -2   5   5 14954.2 576.557  30
  -2   5   5 15138.7 832.145   7
  -2   5   5 15575.3 616.537  54
  -2   5   4 92404.4 3106.50  10
  -2   5   4 94927.2 2764.68  57
  -2   5   4 102316. 2906.26   1
  -2   5   4 98199.7 2727.73  30
  -2   5   4 96619.4 3036.05   7
  -2   5   3 5285.41 501.261  10
  -2   5   3 5899.81 423.444   1
  -2   5   3 6095.03 490.240   7
  -2   5   3 6595.21 262.989   4
  -2   5   2 34325.8 1433.09  10
  -2   5   2 35987.3 1312.37   9
  -2   5   2 32682.4 1174.00   1
  -2   5   1 14132.0 701.833   9
  -2   5   1 13919.2 626.653   1
  -2   5   1 12783.7 784.152  10
  -2   5   0 8917.96 562.361   9
  -2   5  -1 11679.9 512.771  61
  -2   5  -1 13179.9 693.473   9
  -2   5  -1 12359.6 705.667   8
  -2   5  -1 10744.6 466.872  52
  -2   5  -2 108003. 3114.64   9
  -2   5  -2 101474. 2855.54  61
  -2   5  -2 102644. 3130.97   8
   2  -5   3 581.674 145.255  15
  -2   5  -3 576.345 229.174   9
  -2   5  -3 664.933 300.276   8
   2  -5   4 3485.68 225.755  15
   2  -5   4 3539.79 239.009  63
   2  -5   5 12787.1 445.165  19
   2  -5   5 13658.2 550.343  64
   2  -5   5 13398.3 469.450  60
  -2   5  -6 793.455 116.133  23
   2  -5   6 568.716 119.051  19
   2  -5   6 895.509 150.689  64
   2  -5   6 565.440 128.691  15
  -2   5  -7 5997.25 207.317  23
   2  -5   7 5811.56 208.104  22
  -2   4  10 355.331 88.8615   5
  -2   4  10 423.541 107.651  54
  -2   4  10 327.083 95.7193  57
  -2   4   9 1336.22 163.600  50
  -2   4   9 1235.94 180.007  57
  -2   4   8 186.217 92.5816  42
  -2   4   8 378.908 162.897  57
  -2   4   8 241.883 136.769  50
  -2   4   7 6812.47 358.144  25
  -2   4   7 5301.28 562.612   2
  -2   4   7 6329.54 374.304  57
  -2   4   7 5026.58 517.997   7
  -2   4   6 2201.82 224.593  25
  -2   4   6 1917.65 218.456  21
  -2   4   6 1844.70 340.019   7
  -2   4   6 2065.56 363.278   2
  -2   4   6 2145.04 234.275  45
  -2   4   6 2262.45 217.750  36
  -2   4   6 2075.84 233.228  57
  -2   4   5 41370.2 1222.10  25
  -2   4   5 37322.8 1544.04   2
  -2   4   5 38039.2 1224.40  21
  -2   4   5 40436.6 1500.82   7
  -2   4   5 36733.7 1230.35  57
  -2   4   4 41893.7 1402.88   1
  -2   4   4 41824.3 1481.02   7
  -2   4   4 37405.3 1491.17  10
  -2   4   3 3370.89 315.876   1
  -2   4   3 2566.61 334.573   7
  -2   4   3 3078.50 167.660   4
  -2   4   3 2474.87 329.924  10
  -2   4   2 7508.50 432.748   1
  -2   4   2 7867.31 491.943   9
  -2   4   2 6790.37 254.575   3
  -2   4   1 1381.03 113.788   3
  -2   4   1 1722.72 267.261   9
  -2   4   1 1539.51 235.012   1
  -2   4   0 30779.4 1120.40   9
  -2   4  -1 885.359 248.578   9
  -2   4  -1 831.282 291.945   8
  -2   4  -2 72776.6 2339.34   8
  -2   4  -2 74204.1 2335.82   9
  -2   4  -3 2815.64 360.419   9
  -2   4  -3 3833.68 271.307  61
  -2   4  -3 3334.91 398.852   8
  -2   4  -4 11911.5 727.228   9
   2  -4   4 13790.0 500.370  60
   2  -4   4 13023.9 504.823  63
  -2   4  -4 12979.2 774.165   8
  -2   4  -5 5724.93 513.169   8
   2  -4   5 5569.46 296.174  15
   2  -4   5 6517.80 321.433  60
   2  -4   5 6912.15 383.620  64
   2  -4   6 108.390 159.542  15
   2  -4   6 243.358 146.095  64
   2  -4   6 345.891 131.217  19
   2  -4   6 128.818 113.519   6
   2  -4   7 61.9092 85.4772  19
   2  -4   7 29.7451 90.0317   6
   2  -4   7 18.3280 125.983  15
  -2   4  -7-3.42803 76.8545  23
   2  -4   7-38.6951 109.502  64
   2  -4   8 1363.46 81.6860  22
  -2   3  10 573.636 121.514  21
  -2   3  10 677.887 110.143   5
  -2   3   9 3365.63 259.009  53
  -2   3   9 3159.38 247.976  45
  -2   3   9 3231.90 207.862  50
  -2   3   9 3049.16 250.616  21
  -2   3   9 3024.76 230.572  57
  -2   3   8 27336.9 945.106  53
  -2   3   8 26524.2 929.834  57
  -2   3   8 25551.2 902.361  36
  -2   3   8 27612.2 906.252  50
  -2   3   7 22551.6 793.574  36
  -2   3   7 20744.4 791.631  57
  -2   3   7 21595.9 1164.99   2
  -2   3   7 21340.0 730.160  42
  -2   3   7 21568.3 1089.01   7
  -2   3   7 22594.6 812.101  53
  -2   3   6 69185.5 1947.90   6
  -2   3   6 67725.6 2419.94   2
  -2   3   6 72688.3 2357.23   7
  -2   3   6 69317.6 1964.70  25
  -2   3   6 69437.9 1989.97  53
  -2   3   5 25659.1 1079.34   7
  -2   3   5 25729.1 1162.93   2
  -2   3   4 10478.9 556.867   1
  -2   3   4 11301.3 589.020   7
  -2   3   4 11446.2 605.439   9
  -2   3   4 10866.9 652.987   2
  -2   3   3 588756. 15793.3  10
  -2   3   3 598565. 15861.4   2
  -2   3   3 591208. 15457.8   4
  -2   3   3 601526. 15739.1   7
  -2   3   3 601230. 15689.4   1
  -2   3   2 15516.0 639.083   1
  -2   3   2 16338.9 717.574  10
  -2   3   1 39402.8 1299.82   9
  -2   3   0 144.769 195.633   9
  -2   3  -1 38200.1 1270.12   9
  -2   3  -2 7536.08 476.856   8
  -2   3  -2 6223.30 449.040   9
  -2   3  -3 8894.11 536.673   8
  -2   3  -4 5699.14 455.143   8
   2  -3   4 5226.38 262.311  60
   2  -3   5 12579.8 464.259  60
  -2   3  -5 10895.1 683.712   8
   2  -3   5 10940.5 509.618  64
   2  -3   6 13844.0 824.164  13
   2  -3   6 13934.3 585.141  64
   2  -3   6 13010.4 535.471   6
   2  -3   7 8240.53 356.305   6
   2  -3   7 7167.57 320.016  15
   2  -3   7 8066.25 294.109  55
   2  -3   7 7873.46 376.558  64
   2  -3   8 125.112 123.380  15
   2  -3   8 408.586 107.117   6
   2  -3   8 183.898 89.1061  22
  -2   3  -9 164.620 48.6078  59
  -2   2  10 2951.08 180.738  21
  -2   2   9 17862.8 634.914  53
  -2   2   9 16345.1 610.492  45
  -2   2   9 15297.8 567.084  57
  -2   2   9 14375.7 565.711  36
  -2   2   9 17031.8 618.367  21
  -2   2   8 10219.8 485.191  53
  -2   2   8 10203.6 419.990  50
  -2   2   8 9708.30 469.065  21
  -2   2   8 9567.93 463.734  45
  -2   2   8 9003.73 430.233  36
  -2   2   8 10421.2 455.090   6
  -2   2   8 9222.07 442.265  57
  -2   2   7 13025.0 564.090  53
  -2   2   7 12218.9 787.818   7
  -2   2   7 12252.5 860.774   2
  -2   2   7 13666.1 534.379   6
  -2   2   7 12498.5 523.676  36
  -2   2   7 12631.2 514.686  22
  -2   2   7 12558.4 512.004  50
  -2   2   6 6330.34 322.036   6
  -2   2   6 6248.81 564.717   2
  -2   2   6 6826.93 334.034  36
  -2   2   6 6619.72 350.341  53
  -2   2   6 6113.81 301.276  35
  -2   2   6 6536.14 322.883  22
  -2   2   6 6501.98 536.296   7
  -2   2   5 11366.9 643.130   7
  -2   2   5 11326.3 708.840   2
  -2   2   4 28924.4 1182.70   2
  -2   2   4 28386.3 1078.11   7
  -2   2   3 6213.37 380.497   1
  -2   2   3 6740.40 400.519   9
  -2   2   3 6556.10 377.200   7
  -2   2   3 6109.17 437.453   2
  -2   2   2 308610. 8159.28   2
  -2   2   2 303350. 8030.86   9
  -2   2   2 298976. 8008.47   7
  -2   2   2 285351. 8038.33  10
  -2   2   2 308397. 8016.53   1
  -2   2   1 138847. 3677.92   1
  -2   2   1 129086. 3620.46   8
  -2   2   0 16767.8 641.285   9
  -2   2   0 16991.7 621.320   8
  -2   2  -1 163917. 4494.21   9
  -2   2  -2 27400.8 974.709   8
   2  -2   2 27374.9 1058.28  12
   2  -2   3 9160.61 366.689  18
   2  -2   3 9258.44 635.953  12
   2  -2   4 39669.9 1196.81  18
  -2   2  -4 44017.1 1420.36   8
   2  -2   4 42191.4 1607.61  12
   2  -2   5 112.299 132.791  18
  -2   2  -5 34.0738 214.358   8
   2  -2   5 6.02545 106.206  64
   2  -2   5-21.1039 109.861  60
   2  -2   6 4865.36 309.378  64
  -2   2  -6 4070.78 431.605   8
   2  -2   6 4778.05 261.505  46
   2  -2   6 5510.85 526.550  13
   2  -2   7 1664.73 199.633   6
   2  -2   7 1627.57 202.434  64
   2  -2   7 1244.43 170.942  46
   2  -2   7 1422.82 325.262  13
   2  -2   7 1391.18 297.441  14
   2  -2   7 1459.66 161.534  55
  -2   2  -7 1483.45 158.016  23
   2  -2   8 20107.7 680.091   6
   2  -2   8 18315.8 594.609  55
   2  -2   8 18912.2 691.037  64
   2  -2   9 1634.05 125.571  22
   2  -2   9 1795.72 148.908   6
   2  -2   9 1423.70 138.738  15
  -2   1   9 1094.25 164.178  45
  -2   1   9 988.018 148.322  21
  -2   1   9 901.956 138.476  36
  -2   1   8 982.543 158.976  22
  -2   1   8 801.756 156.459  36
  -2   1   8 937.968 182.455  45
  -2   1   7 5522.80 300.933  22
  -2   1   7 5648.15 322.435  49
  -2   1   7 5064.97 557.380   2
  -2   1   7 4560.30 265.385  50
  -2   1   7 4322.27 486.611   7
  -2   1   7 4962.27 292.661  36
  -2   1   6 300.215 98.7844  50
  -2   1   6 280.561 121.903   6
  -2   1   6 400.461 219.080   7
  -2   1   6 221.806 138.583  49
  -2   1   6 382.259 124.217  36
  -2   1   6 309.668 113.195  22
  -2   1   6 360.196 232.924   2
  -2   1   5 668.754 237.045   2
  -2   1   5 739.415 230.255   7
  -2   1   4 19.2059 81.8973  12
  -2   1   4 73.3926 177.602   7
  -2   1   4 95.6649 174.089   2
  -2   1   3 39153.0 1167.39  12
  -2   1   3 45317.5 1364.18   7
  -2   1   3 39493.9 1328.50   1
  -2   1   3 47692.1 1502.10   2
  -2   1   2 152425. 4189.86   9
  -2   1   2 148227. 4201.66   1
  -2   1   2 152896. 4187.97   7
  -2   1   1 125967. 3521.80  10
  -2   1   1 130856. 3536.92   9
  -2   1   1 137055. 3651.79   2
  -2   1   1 128442. 3498.82   7
  -2   1   1 134247. 3561.40   1
  -2   1   0 3204.60 208.691   8
   2  -1   1 30022.6 962.684  12
   2  -1   2 7691.49 433.583  12
   2  -1   3 154156. 4383.78  12
   2  -1   4 18030.3 590.147  18
   2  -1   4 21241.5 916.175  12
   2  -1   5-3.95207 114.341  18
  -2   1  -5 100.547 210.266   8
   2  -1   6 4073.25 236.007  46
   2  -1   6 5302.05 301.540  18
   2  -1   6 4607.21 284.789  64
   2  -1   6 5530.79 487.844  13
   2  -1   6 4651.21 253.873  60
  -2   1  -6 4401.51 427.734   8
   2  -1   7 52836.5 1822.71  13
   2  -1   7 49564.0 1415.25  55
   2  -1   7 44852.8 1409.76  46
   2  -1   7 51655.3 1497.40  18
  -2   1  -7 48391.8 1703.10   8
   2  -1   7 51376.5 1805.30  14
   2  -1   7 46855.4 1495.10  64
   2  -1   7 48502.0 2032.24  12
   2  -1   8 2768.98 197.866  55
   2  -1   8 2754.90 242.138  64
   2  -1   9 28478.2 882.701  22
  -2   0  10 483.156 66.5742   5
  -2   0   9 3782.29 215.776  21
  -2   0   9 3695.06 206.646  36
  -2   0   9 4237.59 246.824  45
  -2   0   8 66413.3 1886.76  22
  -2   0   8 68790.9 1940.17  45
  -2   0   8 61879.1 1868.34  36
  -2   0   7 39219.1 1235.58  36
  -2   0   7 41611.4 1142.65  15
  -2   0   7 39449.3 1287.54  45
  -2   0   7 35906.3 1701.07   2
  -2   0   7 39949.7 1239.67  22
  -2   0   7 38956.3 1228.82  49
  -2   0   6 36571.4 1163.73  49
  -2   0   6 41078.6 1191.33  22
  -2   0   6 40020.7 1190.33  36
  -2   0   6 37145.3 1138.88  35
  -2   0   6 37473.9 1164.18  46
  -2   0   5 631.408 242.788   7
  -2   0   4 23000.1 779.644  14
  -2   0   4 29735.8 1049.26   7
  -2   0   3 1192.40 208.797   7
  -2   0   3 826.920 125.871  14
  -2   0   2 22877.0 795.387   7
  -2   0   1 2307.91 183.110   9
  -2   0   1 2447.50 173.469   7
   2   0   0 619.449 69.8306  12
  -2   0   0 611.123 128.838   9
  -2   0   0 659.087 59.6545   7
  -2   0   0 677.309 103.697   8
   2   0   1 62523.1 1775.95  12
   2   0   2 236257. 6173.34  12
   2   0   2 225578. 6024.19   7
   2   0   3 28598.3 1031.87  12
   2   0   3 27488.7 906.474   7
   2   0   4 96608.4 2797.24   7
   2   0   4 95621.8 2790.70  13
   2   0   4 99104.6 2964.15  12
   2   0   5 250882. 6901.36   7
   2   0   6 13909.5 521.714  18
   2   0   6 14978.6 760.868   7
   2   0   7 14280.6 786.962  13
   2   0   7 13005.6 478.088  55
   2   0   7 12378.8 518.711   6
  -2   0  -7 12717.8 725.084   8
   2   0   7 13227.4 897.825  12
   2   0   7 14609.2 768.676  14
   2   0   7 11961.2 519.512  64
   2   0   8 20466.3 1041.81  13
   2   0   8 22926.8 763.971  22
   2   0   8 21437.4 779.950   6
   2   0   8 22250.2 1059.34  14
   2   0   8 22841.6 730.439  55
   2   0   8 19065.3 1166.28  12
   2   0   9 156.196 117.336  22
   2   0   9 228.147 117.778  55
   2   0  10 768.261 124.562   6
   2   0  10 509.322 99.3158  22
   2   0  11 224.083 47.3742  53
   2   0  11 237.046 50.6555   6
  -2  -1   9 487.347 93.1758  22
  -2  -1   9 644.080 106.642  45
  -2  -1   9 346.961 76.0056  36
  -2  -1   9 541.181 112.352  53
  -2  -1   8 3070.27 245.530  45
  -2  -1   8 3200.75 224.535  22
  -2  -1   8 3250.38 228.918   6
  -2  -1   8 3066.25 243.321  53
  -2  -1   8 3142.60 209.445  36
  -2  -1   7 665.396 161.213   6
  -2  -1   7 508.035 147.881  22
  -2  -1   7 697.337 172.432  49
  -2  -1   7 568.565 146.370  36
  -2  -1   7 943.351 150.314  15
  -2  -1   6 126.662 151.728  46
  -2  -1   6 48.0940 145.293  49
  -2  -1   6 51.8093 164.626  35
  -2  -1   6 320.765 251.745   2
  -2  -1   6 176.525 132.872   6
  -2  -1   6 144.723 118.303  36
  -2  -1   6 89.2360 135.945  15
  -2  -1   5 12919.1 480.965  46
  -2  -1   5 13512.7 489.364  49
  -2  -1   5 11008.0 426.539  16
  -2  -1   5 12763.3 489.698  36
  -2  -1   5 13393.6 473.175  35
  -2  -1   5 15528.5 858.046   2
  -2  -1   5 14980.6 559.241  64
  -2  -1   5 15460.5 523.823   6
  -2  -1   4 6712.12 363.468  13
  -2  -1   4 5998.12 255.007  16
  -2  -1   3 22682.6 714.753  13
  -2  -1   3 22479.3 877.556   7
  -2  -1   3 21864.2 925.590   2
  -2  -1   2 230804. 5935.70  13
  -2  -1   2 246114. 6105.91   7
  -2  -1   2 262744. 6221.72   2
  -2  -1   2 211238. 5891.19  14
  -2  -1   1 32091.7 1073.53   1
  -2  -1   1 42432.9 1179.45   2
  -2  -1   0 98430.7 2506.88   2
  -2  -1   0 95847.0 2457.11   1
  -2  -1  -1 245555. 6449.12  11
  -2  -1  -2 125001. 3241.67  11
   2   1   2 121518. 3238.82  13
   2   1   2 115820. 3211.70   7
   2   1   3 19441.8 658.427   7
   2   1   3 18059.1 675.869  13
   2   1   4 7.18897 146.552   7
   2   1   4 114.490 197.820  13
   2   1   5 72580.1 2256.79   7
   2   1   6 11343.4 651.071   7
   2   1   6 11888.9 763.206  12
   2   1   6 11759.0 633.779  14
   2   1   7 38633.2 1225.64  64
   2   1   7 36826.9 1206.44   6
   2   1   7 44294.3 1511.17  14
   2   1   7 41080.5 1705.26  12
   2   1   7 45059.3 1538.58  13
   2   1   7 43394.0 1598.18   7
   2   1   7 39130.3 1167.91  55
   2   1   8 1993.09 386.940  12
   2   1   8 1844.78 207.461   6
   2   1   8 2012.29 191.220  22
   2   1   8 2433.16 224.325  18
   2   1   8 2123.72 192.069  55
   2   1   8 1812.78 335.551  14
   2   1   9 14778.0 568.526  22
   2   1   9 16147.4 602.544  18
   2   1   9 15972.6 604.772   6
   2   1   9 14809.0 543.984  55
   2   1  10 651.682 124.233  22
   2   1  10 791.596 145.857   6
   2   1  11 9274.06 344.617  53
   2   1  11 10425.6 348.612   6
  -2  -2   9 2804.89 129.832  53
  -2  -2   9 2818.21 143.155  45
  -2  -2   8 985.353 132.480   6
  -2  -2   8 1231.07 163.123  45
  -2  -2   8 1053.62 148.769  53
  -2  -2   8 985.726 119.976  36
  -2  -2   8 1267.81 142.878  22
  -2  -2   7 26.1772 121.692   6
  -2  -2   7 5.32652 126.500  22
  -2  -2   7 128.679 122.189  36
  -2  -2   7-16.2661 134.283  49
  -2  -2   7 107.650 140.023  15
  -2  -2   6 11418.2 472.339  49
  -2  -2   6 12602.7 475.176  35
  -2  -2   6 11536.9 489.469  36
  -2  -2   6 10461.7 815.642   2
  -2  -2   6 12527.7 450.503  15
  -2  -2   6 12521.3 507.752   6
  -2  -2   5 97545.3 2754.49  49
  -2  -2   5 92606.5 2709.76  16
  -2  -2   5 103616. 2713.19  15
  -2  -2   5 106480. 2799.81   6
  -2  -2   5 98416.8 3283.57   2
  -2  -2   5 106230. 2857.52  64
  -2  -2   5 99399.8 2729.71  35
  -2  -2   4 75600.5 2120.68  16
  -2  -2   4 77699.4 2574.10   2
  -2  -2   4 83085.9 2294.52  13
  -2  -2   4 77040.8 2104.67  15
  -2  -2   3 18977.7 603.360  16
  -2  -2   3 20300.7 707.227  13
  -2  -2   2 52274.6 1691.06   2
  -2  -2   1 14208.9 576.414   2
   2   2   0 252385. 6652.85  10
  -2  -2   0 251176. 6667.57   2
  -2  -2  -1 105876. 2874.64   1
   2   2   1 115497. 2973.13  10
   2   2   2 438716. 11582.2  10
   2   2   2 439903. 11523.7  14
   2   2   3 1133.44 206.691   7
   2   2   3 1145.20 211.341  14
   2   2   4 68888.5 2011.84   7
   2   2   4 67781.1 1983.87  14
   2   2   4 63580.7 1958.25  13
   2   2   5 56667.4 1838.28   7
   2   2   6 39632.1 1596.27  12
   2   2   6 39252.5 1453.10   7
   2   2   6 37166.0 1369.52  14
   2   2   7 19109.7 701.113   6
   2   2   7 20822.9 682.093  55
   2   2   7 25034.3 1191.44  12
   2   2   7 24785.0 1000.05  14
   2   2   7 26851.6 1126.45   7
   2   2   8 14924.4 549.669  55
   2   2   8 13454.3 881.291   2
   2   2   8 17063.4 596.809  18
   2   2   8 16460.8 935.714   7
   2   2   8 15539.6 575.673  22
   2   2   8 14869.1 581.730   6
   2   2   8 14739.5 559.683  38
   2   2   8 16282.8 841.905  14
   2   2   8 16536.1 991.726  12
   2   2   9 377.415 240.092  12
   2   2   9 458.194 150.005  55
   2   2   9 434.016 160.738  18
   2   2   9 535.077 253.692   2
   2   2   9 172.780 125.825  22
   2   2   9 504.342 247.600   7
   2   2   9 517.843 146.344   6
   2   2   9 302.332 244.384  14
   2   2  10 3416.49 228.052  22
   2   2  10 4225.78 254.030   6
   2   2  11 1076.94 126.202  53
  -2  -3   8 7932.59 289.500  22
  -2  -3   8 7827.48 307.150  45
  -2  -3   7 53132.2 1590.09  53
  -2  -3   7 52109.3 1550.56   6
  -2  -3   7 58074.3 1591.05  22
  -2  -3   7 52113.9 1551.73  36
  -2  -3   7 59660.7 1526.54  15
  -2  -3   7 51543.8 1516.90  49
  -2  -3   6 38678.1 1171.94   6
  -2  -3   6 36366.6 1130.07  49
  -2  -3   6 39432.1 1123.36  15
  -2  -3   6 37176.1 1177.53  36
  -2  -3   5 2117.50 357.196   2
  -2  -3   5 2598.79 209.806   6
  -2  -3   5 2655.31 245.092  64
  -2  -3   5 2388.59 204.299  49
  -2  -3   5 2192.83 191.714  16
  -2  -3   5 2417.09 203.868  35
  -2  -3   5 2503.65 209.380  15
  -2  -3   4 1504.48 295.340   2
  -2  -3   4 1437.77 173.538  63
  -2  -3   4 1895.77 150.830  19
  -2  -3   4 1710.48 176.786  49
  -2  -3   4 1629.96 173.290  35
  -2  -3   4 1649.79 174.789  16
  -2  -3   4 1660.51 166.302   6
  -2  -3   4 2107.33 190.616  15
  -2  -3   4 1788.09 204.195  67
  -2  -3   4 1651.24 187.521  64
  -2  -3   4 1400.01 242.808  13
  -2  -3   4 1388.45 145.653  60
  -2  -3   3 12906.5 467.351  16
  -2  -3   3 13435.0 455.155  15
  -2  -3   3 14432.6 448.421  19
  -2  -3   3 13470.9 724.912   2
  -2  -3   2 47974.2 1609.54   2
  -2  -3   2 46800.5 1296.52  19
  -2  -3   1 122070. 3436.02   2
  -2  -3   0 4155.16 221.287   2
   2   3   1 38664.2 1236.56  10
   2   3   2 30739.3 1049.70  10
   2   3   3 999999. 25918.7  10
   2   3   3 979455. 25813.1  14
   2   3   4 536854. 14029.3   7
   2   3   4 521398. 13966.6  14
  -2  -3  -4 529178. 13894.9  11
   2   3   5 89827.6 2474.52   7
  -2  -3  -5 90335.7 2293.76  11
   2   3   6 44207.9 1602.24   7
   2   3   7 1325.03 311.668  14
   2   3   7 1424.81 349.563  12
   2   3   7 1563.92 316.188   7
   2   3   8 1116.22 164.813  38
   2   3   8 988.309 147.720   6
   2   3   8 852.708 260.085   2
   2   3   8 1071.50 161.659  55
   2   3   8 1067.35 153.522  22
   2   3   8 952.747 309.608  12
   2   3   8 1090.08 328.528  14
   2   3   8 1707.79 356.732   7
   2   3   9 3704.01 245.415  45
   2   3   9 4253.34 508.139   7
   2   3   9 4188.52 267.280  22
   2   3   9 4756.59 281.651  18
   2   3   9 4087.09 498.781  12
   2   3   9 3985.25 459.384  14
   2   3   9 4425.12 271.840   6
   2   3   9 3536.52 454.249   2
   2   3   9 4260.09 263.997  38
   2   3  10 46557.6 1390.06   6
   2   3  10 47452.6 1393.84  18
   2   3  11 279.094 99.8533  53
   2   3  11 301.764 95.9225   6
   2   3  12 5706.24 219.202  21
   2   3  12 5879.45 217.078  57
  -2  -4   7 1551.64 144.643  22
  -2  -4   7 1434.62 119.501  36
  -2  -4   6 1533.41 202.157  46
  -2  -4   6 1223.74 155.487  36
  -2  -4   6 1698.73 186.877  15
  -2  -4   5 17561.4 567.719  35
  -2  -4   5 16695.4 571.538  49
  -2  -4   5 15269.8 568.427  16
  -2  -4   5 17695.4 584.100  15
  -2  -4   5 15505.0 571.270   6
  -2  -4   5 17581.8 678.786  64
  -2  -4   4 28684.7 930.298  64
  -2  -4   4 24215.8 812.957   6
  -2  -4   4 26264.5 829.951  16
  -2  -4   4 25636.9 849.527  67
  -2  -4   4 24972.8 787.103  35
  -2  -4   4 25776.3 820.774  49
  -2  -4   4 24330.1 785.495  60
  -2  -4   4 20680.3 1099.17   2
  -2  -4   4 29687.4 805.155  19
  -2  -4   3 4426.57 263.787  24
  -2  -4   3 4149.97 252.450  16
  -2  -4   3 3694.08 210.538  60
  -2  -4   3 4046.61 255.361  67
  -2  -4   3 4333.28 269.909  64
  -2  -4   3 3427.34 376.842   2
  -2  -4   2 14806.2 462.180  19
  -2  -4   2 10165.8 621.635   2
  -2  -4   1 58246.4 1874.29   2
  -2  -4   1 63635.4 1705.93  19
  -2  -4   0 23028.3 757.090   2
  -2  -4   0 24519.5 692.549  15
   2   4   1 25423.3 967.681  10
   2   4   2 43511.9 1471.72  10
   2   4   3 290425. 7939.41  10
   2   4   4 2770.98 185.509   2
   2   4   4 3392.00 329.775  14
   2   4   4 3556.91 361.548  10
  -2  -4  -5 52508.2 1452.46  17
   2   4   5 50423.7 1638.25   2
   2   4   5 55916.1 1823.51   7
  -2  -4  -5 58519.8 1653.01  11
  -2  -4  -6 16205.9 643.178  11
  -2  -4  -6 14496.7 476.115  17
   2   4   6 14462.8 696.236   2
   2   4   7 366.968 242.276   7
   2   4   7 292.793 179.767   2
   2   4   7 396.407 119.710  55
   2   4   7 269.451 273.904  14
   2   4   8 2090.19 176.174   6
   2   4   8 2169.04 198.116  45
   2   4   8 2819.73 451.176  12
   2   4   8 2685.15 421.288   7
   2   4   8 2713.85 417.447  14
   2   4   8 2527.07 360.269   2
   2   4   8 2467.51 220.303  38
   2   4   9 22001.9 706.449  18
   2   4   9 19152.4 703.810  53
   2   4   9 19854.9 1116.60   7
   2   4   9 20572.5 691.162   6
   2   4   9 20131.8 1140.81  12
   2   4   9 20978.6 728.376  38
   2   4   9 19615.1 1016.86  14
   2   4  10 31.8478 117.866  38
   2   4  10 133.844 101.089   6
   2   4  10 114.919 105.247  53
   2   4  10 108.506 118.899  18
   2   4  11 94.0518 85.9968  53
   2   4  11 107.395 83.4431   6
  -2  -4 -11 98.4259 69.8771  47
   2   4  12 1082.50 101.228  21
  -2  -5   7 524.886 70.0987  22
  -2  -5   7 370.163 75.5624  45
  -2  -5   6 8553.06 336.533  36
  -2  -5   6 9095.14 366.552  46
  -2  -5   5 11896.7 470.808  46
  -2  -5   5 12781.0 523.931  64
  -2  -5   4 4751.59 310.644  67
  -2  -5   4 4570.10 282.019  16
  -2  -5   4 4554.19 250.096  49
  -2  -5   4 4485.29 308.679  64
  -2  -5   4 4103.21 238.267  60
  -2  -5   3 42530.2 1162.18  19
  -2  -5   3 34820.8 1131.60  60
  -2  -5   3 42562.3 1209.64  16
  -2  -5   3 43143.5 1281.09  64
  -2  -5   3 37780.9 1188.56  67
  -2  -5   3 38657.4 1171.09  49
  -2  -5   2 656.889 138.978  19
  -2  -5   2 421.454 124.038  39
  -2  -5   2 598.202 159.145  15
  -2  -5   1 1391.47 151.243  15
   2   5   1 60524.7 1897.29  10
  -2  -5  -1 53974.8 1504.17  19
   2   5   2 694.992 219.991  10
   2   5   3 132462. 3942.53  10
   2   5   4 16803.1 839.328  10
  -2  -5  -4 15144.8 484.219  17
  -2  -5  -5 4601.51 226.588  17
   2   5   5 5692.48 484.363  10
  -2  -5  -6 22806.7 867.234  11
  -2  -5  -6 22425.8 682.223  17
   2   5   6 24100.8 1072.10   7
   2   5   7 7236.21 361.319  38
   2   5   7 8275.85 622.768   7
   2   5   8 1732.44 181.612  30
   2   5   8 1885.19 215.157  38
   2   5   8 1986.37 379.591   7
   2   5   9 5361.06 318.130  38
   2   5   9 4330.34 531.381   7
   2   5   9 4528.92 545.076  12
   2   5  10 439.829 150.881  38
   2   5  10 468.398 103.728  18
   2   5  11 27.0548 105.571  21
   2   5  12 7423.59 287.044  21
   2   5  12 8865.50 323.754  57
  -2  -6   6 5060.92 205.180  22
  -2  -6   5 600.513 150.912  46
  -2  -6   5 460.516 106.882  36
  -2  -6   5 581.233 128.873  64
  -2  -6   4 3133.62 250.809  64
  -2  -6   4 2737.32 189.700  60
  -2  -6   4 2657.14 222.223  16
  -2  -6   3 17238.2 682.742  64
  -2  -6   3 17342.5 632.969  67
  -2  -6   3 16655.2 634.845  16
  -2  -6   3 16418.6 581.258  60
  -2  -6   2 166.298 166.687  67
  -2  -6   2-62.0493 119.580  64
  -2  -6   2 178.502 146.930  19
   2   6  -1 3902.18 454.609  10
  -2  -6   1 4775.36 259.357  39
   2   6  -1 4914.53 290.594  61
  -2  -6   1 4674.98 277.373  44
   2   6   0 35807.7 1485.19  10
  -2  -6   0 34128.9 1110.47  44
   2   6   1 65014.5 2233.83  10
  -2  -6  -1 63680.6 1760.68  19
   2   6   2 39940.2 1569.52  10
   2   6   3 22345.3 1076.67  10
  -2  -6  -4 18083.8 576.849  17
   2   6   4 21185.1 1023.84  10
   2   6   5 12509.5 792.631  10
  -2  -6  -5 12211.6 428.243  17
  -2  -6  -6 58180.3 1891.99  11
   2   6   6 55166.2 1737.12  38
  -2  -6  -6 63145.0 1662.01  17
   2   6   6 61891.7 2167.11   7
   2   6   7 1051.86 307.028   7
  -2  -6  -7 1501.17 181.647  17
   2   6   7 1315.55 184.297  30
  -2  -6  -7 1189.05 221.058  11
   2   6   8 9552.15 745.874   7
   2   6   8 10469.5 479.279  30
   2   6   8 10317.3 463.348  21
   2   6   9 1706.87 360.599   7
   2   6   9 2014.10 195.463  30
   2   6   9 2255.51 218.789  21
   2   6   9 2419.51 237.957  38
   2   6   9 1996.51 389.268  12
   2   6  10 4126.44 279.531  38
   2   6  11 20.3661 119.439  57
   2   6  11 131.024 101.598  21
   2   6  12 71.8746 54.0934  21
   2   6  12 38.4602 77.9855  57
  -2  -7   5 1534.56 121.817  46
  -2  -7   4 860.838 137.622  16
  -2  -7   4 979.431 137.553  64
  -2  -7   4 1047.89 157.530  46
  -2  -7   3 7904.45 391.213  63
  -2  -7   3 7349.20 371.919  64
  -2  -7   3 7580.52 353.327  67
  -2  -7   3 6997.73 345.339  16
  -2  -7   3 6930.83 306.578  60
  -2  -7   2 9324.40 416.222  67
  -2  -7   2 9360.87 448.556  64
  -2  -7   2 10023.3 471.487  63
   2   7  -2 8713.52 410.530  61
   2   7  -1 20377.7 1157.06  10
   2   7  -1 22142.8 795.756  61
   2   7   0 2255.44 389.578  10
  -2  -7   0 3220.91 231.279  44
  -2  -7   0 2539.59 195.479  39
   2   7   0 2747.35 249.818  61
  -2  -7   0 3411.42 233.288  19
  -2  -7   0 3400.49 233.557  32
  -2  -7  -1 36271.8 1038.24  19
   2   7   1 33009.3 1508.47  10
  -2  -7  -1 34943.9 1079.66  32
  -2  -7  -1 32859.0 1075.66  44
  -2  -7  -2 54780.2 1543.11  32
  -2  -7  -2 50176.8 1537.44  44
   2   7   2 54000.7 2037.96  10
   2   7   3 4180.23 266.708  30
   2   7   3 5074.23 520.094  10
  -2  -7  -3 4646.84 263.686  44
   2   7   4 179.230 199.322  10
  -2  -7  -4-5.42940 100.459  44
  -2  -7  -4 149.453 162.169  17
   2   7   4-23.8212 122.552  30
  -2  -7  -5 481.559 174.444  17
   2   7   5 393.879 147.481  38
   2   7   5 211.901 209.645  10
   2   7   5 239.554 132.702  30
   2   7   6 5271.99 318.129  38
   2   7   6 4490.75 514.408   7
   2   7   7 8676.22 419.874  38
   2   7   7 7728.28 409.529  30
  -2  -7  -7 8536.53 345.398  17
   2   7   7 7321.48 644.205   7
   2   7   7 7090.55 383.196  57
   2   7   8 65.6624 142.967  57
   2   7   8 21.3011 209.763   7
   2   7   8 148.699 144.214  30
   2   7   9 3075.22 271.000  38
   2   7   9 2445.55 185.790  25
   2   7   9 2285.65 207.941  21
   2   7   9 2944.00 234.494  30
   2   7   9 3130.87 273.705  57
   2   7  10 18804.6 666.233  21
   2   7  10 20250.4 736.766  57
   2   7  11 25759.5 785.903  57
   2   7  11 21665.0 707.597  21
   2   7  12 13217.6 415.093  50
   2   7  12 13109.6 431.663  57
  -2  -8   4 2604.73 131.224  46
  -2  -8   3 484.125 115.252  16
  -2  -8   3 670.046 124.497  63
  -2  -8   3 437.362 102.360  64
  -2  -8   2 7800.06 361.705  64
  -2  -8   2 8083.89 391.680  63
  -2  -8   2 7742.23 336.277  67
  -2  -8   2 7328.84 311.184  60
  -2  -8   1 129.176 157.959  67
  -2  -8   1 201.161 125.257  64
  -2  -8   1 263.652 159.864  16
   2   8  -1 215.077 139.098  61
   2   8   0 2193.30 394.213  10
   2   8   0 2536.44 249.398  61
   2   8   1 12713.0 933.616  10
   2   8   1 14043.5 623.483  61
  -2  -8  -1 14665.0 575.969  44
  -2  -8  -1 16031.9 585.991  32
  -2  -8  -2 3205.55 226.422  44
  -2  -8  -2 3569.41 241.064  32
   2   8   2 2690.56 254.834  61
   2   8   2 2630.06 432.535  10
   2   8   3 6227.11 624.969  10
  -2  -8  -3 7074.61 357.640  44
   2   8   3 7130.97 372.259  30
  -2  -8  -4 8243.58 390.352  44
   2   8   4 8295.49 712.480  10
   2   8   4 7978.29 408.207  30
   2   8   5 2201.91 418.730  10
  -2  -8  -5 2853.41 238.510  17
  -2  -8  -5 2437.89 219.151  44
   2   8   5 2160.15 238.829  30
  -2  -8  -6-23.7275 109.117  44
  -2  -8  -6-19.6766 186.307  17
   2   8   6-22.8822 238.716   7
   2   8   6 164.805 244.372  10
  -2  -8  -7-11.5443 158.282  11
   2   8   7 7.30169 154.070  30
  -2  -8  -7 111.737 179.747  17
   2   8   7-22.3329 215.376   7
  -2  -8  -7 34.9608 108.740  44
   2   8   7-25.3590 118.313  57
   2   8   8 3469.94 459.357   7
   2   8   8 3883.26 286.661  30
   2   8   8 3192.77 255.251  57
   2   8   9 17933.5 675.150  30
   2   8   9 19121.7 705.224  57
   2   8  10 46593.8 1412.97  57
  -2  -8 -11 796.442 87.1799  44
   2   8  11 2152.24 161.859  57
   2   8  12 3144.42 138.124  37
  -2  -9   2 76.3670 90.3239  63
  -2  -9   1 6848.22 307.158  64
  -2  -9   1 6519.88 307.829  16
  -2  -9   1 8176.29 361.275  63
   2   9  -1 7643.97 337.336  61
  -2  -9   1 6906.31 289.334  60
   2   9   0 8851.14 421.524  61
   2   9   0 7908.56 346.225  52
  -2  -9   0 9021.53 340.874  67
  -2  -9   0 8462.88 312.330  17
  -2  -9   0 7509.21 354.286  16
  -2  -9   0 7744.72 363.062  64
   2   9   1 13306.1 592.304  61
  -2  -9  -1 14048.3 485.545  17
   2   9   2 12923.1 595.093  61
  -2  -9  -2 13239.6 536.735  44
  -2  -9  -2 14419.4 507.912  17
  -2  -9  -2 14455.2 561.783  32
  -2  -9  -3 17741.9 656.291  44
  -2  -9  -3 18449.6 625.480  17
   2   9   3 16473.5 1072.78  10
   2   9   3 17922.5 681.805  30
  -2  -9  -4 4055.09 275.786  32
  -2  -9  -4 3810.26 247.624  44
   2   9   4 3233.81 471.274  10
   2   9   4 3854.25 295.850  61
   2   9   4 3482.80 274.417  30
   2   9   5 482.488 247.616  10
  -2  -9  -5 542.726 131.607  44
  -2  -9  -5 597.965 201.520  17
   2   9   5 428.909 164.562  30
   2   9   6 5354.29 623.686  10
  -2  -9  -6 6016.41 310.351  17
  -2  -9  -6 5347.67 297.410  44
   2   9   6 5214.59 585.285   7
   2   9   6 5744.14 361.858  30
  -2  -9  -7 453.385 189.965  17
   2   9   7 317.130 118.307  61
  -2  -9  -7 387.570 118.910  44
  -2  -9  -8 35529.8 1004.66  17
   2   9   8 37106.9 1138.71  30
   2   9   9 216.936 128.409  30
  -2  -9  -9 122.410 94.1960  44
   2   9   9 180.682 117.258  57
  -2  -9 -10 103.646 66.5538  44
   2   9  10 271.080 99.4962  30
   2   9  11 3277.55 164.426  50
   2   9  11 3280.66 174.422  37
  -2 -10   1 291.084 68.8637  46
  -2 -10   1 383.152 75.3766  63
  -2 -10   0 2462.59 151.510  60
  -2 -10   0 2667.07 184.165  63
   2  10   0 2746.41 186.219  61
   2  10   1 9771.40 373.704  52
  -2 -10  -1 9178.46 326.493  17
   2  10   2 2172.73 190.866  52
  -2 -10  -2 2328.08 199.128  17
  -2 -10  -2 1770.82 167.806  16
   2  10   2 2204.53 231.793  61
  -2 -10  -3 25019.5 742.186  17
  -2 -10  -3 24390.5 805.014  32
   2  10   4 46170.8 1445.84  61
  -2 -10  -4 43486.3 1343.45  44
   2  10   5 2888.01 240.331  30
  -2 -10  -5 2396.03 181.431  44
   2  10   5 3067.40 255.544  61
  -2 -10  -6 3027.17 228.584  17
  -2 -10  -6 2353.18 176.887  44
   2  10   6 3183.28 256.213  30
   2  10   6 3012.63 235.658  61
  -2 -10  -7 3153.55 189.857  44
  -2 -10  -7 3713.84 234.310  17
   2  10   7 3430.86 222.475  61
   2  10   7 3674.68 275.778  30
  -2 -10  -8 1054.51 111.241  44
  -2 -10  -8 1178.40 164.951  17
   2  10   8 1308.79 142.587  37
   2  10   9 10351.5 381.899  25
   2  10   9 9416.09 351.528  50
   2  10   9 9728.73 389.588  37
   2  10  10 356.369 70.6634  50
   2  10  10 380.137 79.7906  30
   2  10  10 447.355 90.3127  37
  -2 -11  -1 2092.77 107.082  60
  -2 -11  -1 2119.24 125.505  63
  -2 -11  -2 4669.95 239.825  63
   2  11   2 4628.07 211.190  52
  -2 -11  -3 3759.09 199.152  17
   2  11   4 4516.46 251.487  52
   2  11   4 4456.26 267.446  61
   2  11   5 5602.39 282.787  30
   2  11   5 5078.71 284.105  61
   2  11   6 1850.68 178.516  30
   2  11   6 1698.24 163.630  52
  -2 -11  -6 1835.20 157.691  32
  -2 -11  -6 1679.12 161.734  17
   2  11   6 1602.26 160.347  61
   2  11   7 424.748 96.8430  52
  -2 -11  -7 440.365 125.069  17
   2  11   7 496.500 129.775  30
  -2 -11  -7 525.064 105.996  32
  -2 -11  -8 2659.68 161.549  32
   2  11   8 2902.75 196.234  30
   2  11   9 14613.4 479.167  25
  -2 -11  -9 15407.3 481.455  32
   2  12   4 74.4148 42.2438  52
   2  12   5 11009.6 353.879  61
   2  12   5 11158.4 362.693  52
   2  12   6 300.573 56.7949  25
   2  12   6 400.902 63.7795  52
   2  12   7 90.2456 46.6292  25
  -2 -12  -7 92.5889 42.8222  32
  -3  10   5 223.320 41.7765  27
  -3  10   4 15035.6 390.799  20
  -3  10   4 10241.5 377.684  27
  -3  10   3 1369.98 80.3202  20
  -3  10   3 1098.88 78.8248  27
  -3   9   7 6328.28 238.984  42
  -3   9   7 6216.62 241.723  56
  -3   9   6 270.198 83.6112  56
  -3   9   6 225.406 77.2993  42
  -3   9   6 153.735 71.4779  27
  -3   9   5 4054.94 219.063  56
  -3   9   5 3484.35 205.894  27
  -3   9   5 3857.11 192.545  42
  -3   9   5 4038.19 193.595  25
  -3   9   4 111.822 64.3324  25
  -3   9   4 103.742 90.5145  52
  -3   9   4 54.1451 60.7352  42
  -3   9   4 115.092 94.4316  56
   3  -9  -3 2756.45 162.863  17
  -3   9   3 4051.30 205.177  56
   3  -9  -2 1958.94 159.744  17
  -3   9   2 3501.89 196.167  52
  -3   9   1 903.547 105.984  40
   3  -9  -1 728.517 80.4275  60
  -3   9   0 2630.33 146.699  40
   3  -9   0 1894.52 98.2128  60
   3  -9   1 4555.82 188.212  64
  -3   8   8 15.6194 61.0601  42
  -3   8   8-52.7152 60.9205  51
  -3   8   7 707.407 115.736  42
  -3   8   7 654.659 108.959  56
  -3   8   7 538.268 96.5267  51
  -3   8   6 806.086 133.145  25
  -3   8   6 620.741 104.937  51
  -3   8   6 882.515 137.617  42
  -3   8   6 777.710 122.643  27
  -3   8   5 25698.9 837.393  25
  -3   8   5 26876.3 822.411  52
  -3   8   5 26062.5 866.520  56
  -3   8   5 24360.3 839.207  42
  -3   8   4 572.457 125.831  42
  -3   8   4 751.457 152.567  56
  -3   8   4 607.668 132.469  52
  -3   8   4 632.610 124.912  25
  -3   8   3 550.255 144.641  56
  -3   8   3 497.634 104.177  25
  -3   8   3 548.282 113.441  42
  -3   8   3 703.460 146.579  52
  -3   8   2 115.951 109.759  56
  -3   8   1 17956.9 650.163  52
  -3   8   1 17243.4 600.221  56
  -3   8   0 19535.8 673.895  52
  -3   8  -1 716.327 99.3166  23
   3  -8   1 787.649 114.475  60
  -3   8  -2 1767.86 123.743  23
  -3   8  -2 2172.31 155.463  40
   3  -8   2 1896.91 122.744  60
  -3   8  -3 1432.81 88.6127  23
  -3   8  -3 1509.32 92.9850  40
   3  -8   3 1344.16 99.5257  64
  -3   7   9 1270.98 104.294  51
  -3   7   9 860.664 74.9096  65
  -3   7   8-7.21635 83.5559  42
  -3   7   8 6.86156 85.6550  65
  -3   7   8 41.0089 97.8991  37
  -3   7   7 1003.11 149.916  50
  -3   7   7 947.995 139.371  65
  -3   7   7 1019.15 137.407  56
  -3   7   6 2583.29 212.216  50
  -3   7   6 2382.21 201.819  65
  -3   7   6 2524.60 221.148  25
  -3   7   6 2818.82 211.323  27
  -3   7   5 5675.57 303.835  50
  -3   7   5 5253.78 309.603  25
  -3   7   5 5364.27 347.004  37
  -3   7   5 5191.90 287.558  65
  -3   7   5 5813.73 290.635  52
  -3   7   4 957.567 151.940  52
  -3   7   4 808.695 150.726  25
  -3   7   4 810.888 182.933  37
  -3   7   3 7600.28 360.314  25
  -3   7   3 7049.61 611.246   9
  -3   7   3 8273.60 403.111  52
  -3   7   2 12302.8 519.384  56
   3  -7  -2 11588.3 438.958  32
  -3   7   2 10558.0 737.489   9
  -3   7   1-30.5660 114.731  56
  -3   7   1 39.6736 132.199  52
  -3   7   0 6979.37 352.544  52
  -3   7   0 6472.21 303.666  56
   3  -7   1 17997.9 649.947  19
  -3   7  -1 29568.4 803.466  52
   3  -7   2 1493.30 155.003  19
   3  -7   2 2121.65 175.084  60
  -3   7  -3 1109.96 136.427  23
   3  -7   3 1041.48 132.345  60
   3  -7   3 716.529 122.523  19
  -3   7  -4 309.653 74.0128  40
   3  -7   4 203.778 89.4222  64
   3  -7   4 68.3250 76.7588  19
  -3   6   9 791.507 115.824  65
  -3   6   8 1103.68 155.106  54
  -3   6   8 1119.38 135.657  42
  -3   6   8 1133.26 153.498  37
  -3   6   7 9484.55 444.694  54
  -3   6   7 8871.10 425.785  37
  -3   6   7 8898.45 412.983  42
  -3   6   7 8731.61 368.745   5
  -3   6   7 8118.46 407.088  50
  -3   6   6 300.597 151.128  50
  -3   6   6 165.493 147.550  54
  -3   6   6 380.089 126.130   5
  -3   6   6 248.355 111.335  27
  -3   6   5 34931.7 1151.99  25
  -3   6   5 33298.4 1129.48  50
  -3   6   5 36655.3 1156.50  65
  -3   6   5 34631.0 1091.90  52
  -3   6   4 1079.06 160.217  52
  -3   6   4 1054.40 326.560   9
  -3   6   4 937.092 186.906  37
  -3   6   4 1055.41 167.359  50
  -3   6   4 1037.83 162.878  65
  -3   6   4 967.633 157.976  25
  -3   6   3 2501.72 220.680  52
  -3   6   3 2521.75 201.153  50
  -3   6   3 1797.57 331.172  10
  -3   6   3 2346.95 249.870  37
  -3   6   3 2345.70 402.453   9
  -3   6   3 2195.97 195.873  25
  -3   6   2 9247.61 435.996  52
  -3   6   2 7890.29 366.769  25
  -3   6   2 8191.06 622.691   9
  -3   6   2 7471.50 668.201  10
  -3   6   2 9883.84 428.731  61
  -3   6   1 14954.8 575.854  56
  -3   6   1 11732.2 851.871  10
  -3   6   1 15702.6 601.005  61
  -3   6   1 13623.1 795.494   9
  -3   6   1 13385.3 571.784  52
   3  -6  -1 12437.3 491.286  32
  -3   6   0 20130.4 715.445  56
  -3   6   0 19670.5 737.970  52
  -3   6   0 19596.2 990.751   9
  -3   6   0 20665.9 772.024  61
  -3   6  -1 9477.39 442.906  52
  -3   6  -1 8803.57 665.089   9
  -3   6  -2 39644.1 1229.54  52
   3  -6   3 4902.01 261.260  60
   3  -6   4 3698.07 254.220  64
   3  -6   4 3886.08 216.966  60
  -3   6  -5 12323.0 425.096  40
   3  -6   5 13276.3 475.993  64
  -3   6  -6 813.765 66.9113  23
  -3   6  -6 729.798 64.0382  59
  -3   5  10 1927.56 115.034  65
  -3   5   9 220.092 104.295  54
  -3   5   9 247.271 102.963  50
  -3   5   9 183.363 78.8378   5
  -3   5   8 15095.3 588.951  54
  -3   5   8 13541.8 519.424  42
  -3   5   8 14406.8 532.876   5
  -3   5   8 15047.0 555.040  37
  -3   5   8 15683.6 595.983  57
  -3   5   7 3042.56 230.250   5
  -3   5   7 3033.60 273.343  57
  -3   5   7 2993.25 254.795  25
  -3   5   7 3351.27 248.716  42
  -3   5   7 2845.42 239.467  37
  -3   5   7 3014.35 265.510  54
  -3   5   6 10460.0 505.710  54
  -3   5   6 9750.28 470.934  50
  -3   5   6 10206.2 484.905  37
  -3   5   6 9561.73 440.477   5
  -3   5   6 10297.3 511.296  57
  -3   5   6 9757.93 428.082  27
  -3   5   5 180.697 142.146  54
  -3   5   5 122.765 140.445  37
  -3   5   5 144.853 113.093   5
  -3   5   5 148.605 128.597  25
  -3   5   5 144.912 137.644  50
  -3   5   4 32088.3 1030.44  52
  -3   5   4 32120.2 1048.32  50
  -3   5   4 33353.3 1094.94  54
  -3   5   4 33376.1 1264.10   1
  -3   5   4 34696.4 1067.90  25
  -3   5   4 29411.5 1239.01   7
  -3   5   4 30772.3 1016.68   5
  -3   5   3 44723.5 1877.57  10
  -3   5   3 56881.3 1650.04  54
  -3   5   3 49673.2 1576.16  52
  -3   5   3 51862.8 1566.10  50
  -3   5   3 53788.6 1796.22   1
  -3   5   3 50489.8 1619.66  37
  -3   5   3 53256.9 1574.70  25
  -3   5   3 52107.8 1586.02  65
  -3   5   3 50707.5 1791.74   7
  -3   5   3 57565.7 1498.27   4
  -3   5   2 19702.5 695.928  52
  -3   5   2 15783.1 930.609  10
  -3   5   2 18422.4 828.254   1
  -3   5   2 18445.1 908.292   9
  -3   5   2 18210.4 704.648  37
  -3   5   2 16846.8 825.563   7
  -3   5   2 16492.6 631.272  25
  -3   5   2 20447.9 603.876   4
  -3   5   2 19387.5 674.212  65
  -3   5   2 19172.7 672.277  61
  -3   5   1 1839.55 338.719  10
  -3   5   1 2807.98 390.086   9
  -3   5   1 2697.52 229.913  61
  -3   5   1 2269.66 331.516   1
  -3   5   1 3456.24 183.044   3
  -3   5   0 4588.83 465.841   9
  -3   5   0 4596.07 433.985   1
  -3   5   0 4780.38 317.077  61
   3  -5   0 4208.69 247.196  32
  -3   5   0 4972.69 293.626  56
  -3   5   0 4833.09 305.088  52
  -3   5  -1 23.9139 106.384  52
  -3   5  -1-91.0187 109.148  56
  -3   5  -1-56.3623 147.002  61
  -3   5  -1 59.7992 234.182   9
  -3   5  -2 3468.39 252.485  52
  -3   5  -2 3799.43 467.802   9
  -3   5  -2 4157.11 500.080   8
  -3   5  -3 712.913 260.180   9
  -3   5  -3 638.132 307.592   8
   3  -5   4 25877.6 817.665  60
   3  -5   5 11266.0 475.321  64
   3  -5   5 11479.9 419.738  60
   3  -5   6 735.373 125.799  64
  -3   5  -6 766.768 121.385  23
  -3   5  -7 378.485 48.4928  23
  -3   4  10 8418.42 288.855  54
  -3   4  10 7634.52 255.855   5
  -3   4   9 482.241 125.740  54
  -3   4   9 563.876 135.714  21
  -3   4   9 436.556 106.248   5
  -3   4   8 6845.07 369.356  54
  -3   4   8 6103.02 330.898  50
  -3   4   8 6740.24 331.948   5
  -3   4   8 5685.68 331.511  57
  -3   4   8 5416.14 291.758  37
  -3   4   7 3090.37 237.996  42
  -3   4   7 3664.01 273.208  50
  -3   4   7 3649.58 256.176  37
  -3   4   7 3372.01 255.701   5
  -3   4   7 3224.31 271.664  57
  -3   4   6 708.784 161.690  25
  -3   4   6 431.410 201.407   7
  -3   4   6 636.548 147.471   5
  -3   4   6 528.676 164.661  57
  -3   4   6 595.850 116.779  27
  -3   4   6 695.267 151.023  37
  -3   4   5 15624.7 623.053  54
  -3   4   5 15368.4 587.971  50
  -3   4   5 13644.5 604.016  21
  -3   4   5 13646.6 576.797  37
  -3   4   5 14362.0 564.747   5
  -3   4   5 13491.9 783.482   7
  -3   4   5 13960.9 608.759  57
  -3   4   5 14622.4 558.065  27
  -3   4   4 959.730 151.893  50
  -3   4   4 979.607 163.987  54
  -3   4   4 870.870 162.506  21
  -3   4   4 958.070 224.963   7
  -3   4   4 809.397 143.399  25
  -3   4   4 584.219 265.696   9
  -3   4   4 982.492 159.610  37
  -3   4   4 801.426 140.701   5
  -3   4   4 905.058 253.591   1
  -3   4   4 901.844 153.316  30
  -3   4   4 850.719 175.940  57
  -3   4   3 58745.6 1851.98   1
  -3   4   3 53167.1 1801.40   7
  -3   4   3 57235.2 1547.90   4
  -3   4   2 883.316 120.806   3
  -3   4   2 853.626 241.584   1
  -3   4   2 640.081 204.155  10
  -3   4   2 854.098 197.810   7
  -3   4   1 287.655 210.510  10
  -3   4   1 519.905 266.358   9
  -3   4   1 780.933 270.687   1
  -3   4   0 31396.4 1241.64   9
  -3   4   0 31503.5 1219.88   8
  -3   4   0 33960.2 956.975   3
  -3   4  -1 47117.0 1640.90   9
  -3   4  -2 69416.3 2044.45  52
  -3   4  -2 78239.3 2368.97   9
  -3   4  -3 53669.8 1908.46   9
  -3   4  -3 54507.4 1911.31   8
  -3   4  -4 13858.3 785.064   9
  -3   4  -4 14801.9 806.912   8
   3  -4   4 14443.4 486.353  60
   3  -4   5 51.7611 144.762  60
   3  -4   5 50.5674 133.572  15
   3  -4   5-20.2246 133.106  64
   3  -4   6 2679.23 202.568   6
   3  -4   6 1967.82 181.148  15
  -3   4  -6 2742.37 208.444  23
   3  -4   6 2445.54 212.305  64
   3  -4   7 177.780 98.3992  19
   3  -4   7 540.091 106.716   6
  -3   4  -7 637.067 101.529  23
   3  -4   7 320.301 113.395  15
   3  -4   7 431.399 105.064  64
  -3   3  10 4041.97 191.024  54
  -3   3  10 4277.53 180.418  65
  -3   3  10 4456.66 178.639   5
  -3   3   9 10082.7 413.809  21
  -3   3   9 9804.63 399.725   5
  -3   3   8 15922.9 620.347  21
  -3   3   8 15271.8 611.322  45
  -3   3   8 16525.3 593.034  50
  -3   3   7 10763.3 483.588  50
  -3   3   7 10051.0 430.095  42
  -3   3   7 11629.5 517.917  21
  -3   3   7 11937.0 525.714  45
  -3   3   7 9994.69 784.531   2
  -3   3   7 8472.57 655.612   7
  -3   3   7 10616.5 449.642  37
  -3   3   7 10822.5 491.226  57
  -3   3   6 3733.55 283.536  21
  -3   3   6 3303.17 275.165  45
  -3   3   6 3834.31 250.532  42
  -3   3   6 2991.55 440.373   2
  -3   3   6 3451.18 261.805  50
  -3   3   6 2919.11 232.774  37
  -3   3   6 2748.05 368.688   7
  -3   3   6 3237.30 262.641  57
  -3   3   5 68210.6 1891.05  25
  -3   3   5 64198.1 1890.14  57
  -3   3   5 61774.9 1879.33  45
  -3   3   5 60657.6 2307.32   2
  -3   3   5 66263.7 1869.99  36
  -3   3   5 64991.3 2144.07   7
  -3   3   5 65108.8 1898.33  21
  -3   3   5 58546.3 1807.54  27
  -3   3   4 23835.6 1191.49   2
  -3   3   4 25728.6 1081.52   9
  -3   3   4 26012.0 1064.09   1
  -3   3   3 301.048 127.007  10
  -3   3   3 549.584 220.568   1
  -3   3   3 592.063 237.570   9
  -3   3   3 403.954 155.682   7
  -3   3   3 547.209 114.739   4
  -3   3   2 17873.6 748.165   1
  -3   3   2 16066.7 509.766   3
  -3   3   2 17552.0 763.636   9
  -3   3   2 17045.7 676.534   7
  -3   3   1 47324.0 1656.78  10
  -3   3   1 49718.7 1375.68   3
  -3   3   0 237257. 6460.67   8
  -3   3  -1 66512.7 2078.98   8
  -3   3  -1 67391.6 2087.65   9
  -3   3  -2 26542.9 1042.94   9
  -3   3  -3 41131.8 1549.21   9
  -3   3  -3 44870.1 1552.83   8
  -3   3  -4 4163.95 453.056   9
  -3   3  -4 4528.83 451.881   8
   3  -3   4 4046.87 232.397  60
  -3   3  -5 7906.16 639.369   9
  -3   3  -5 8751.75 629.598   8
   3  -3   5 9339.77 655.807  13
   3  -3   5 8954.86 380.459  60
   3  -3   6 6884.89 371.702  64
   3  -3   6 7119.27 340.428  60
   3  -3   7 2201.00 203.558   6
   3  -3   7 2231.05 199.976  64
   3  -3   7 2328.86 179.480  55
   3  -3   7 1964.07 195.631  15
  -3   3  -7 2459.29 193.007  23
  -3   3  -8 227.964 64.9238  23
   3  -3   8 154.310 66.7471  22
   3  -3   8 208.067 99.3358   6
   3  -3   8 192.560 116.979  15
  -3   3  -9 503.817 57.8581  59
  -3   2  10 322.396 64.4957  54
  -3   2  10 399.726 62.8264   5
  -3   2   9 702.314 128.221  21
  -3   2   8 2960.13 207.925  50
  -3   2   8 3377.99 253.772  21
  -3   2   8 3393.61 245.471  36
  -3   2   8 2950.04 219.861  57
  -3   2   7 14178.4 577.345  45
  -3   2   7 11775.1 518.976  57
  -3   2   7 13503.3 563.826  21
  -3   2   7 9244.51 705.248   7
  -3   2   7 11163.1 848.599   2
  -3   2   7 14219.2 542.168  50
  -3   2   7 12686.4 530.419  36
  -3   2   6 1151.67 185.767  45
  -3   2   6 1541.67 186.672  50
  -3   2   6 1064.69 300.049   2
  -3   2   6 1243.07 192.791  21
  -3   2   6 861.711 164.879  57
  -3   2   6 1250.80 145.792  42
  -3   2   6 1346.63 279.417   7
  -3   2   6 1303.68 197.227  49
  -3   2   5 106.626 116.697  57
  -3   2   5 246.106 133.328  25
  -3   2   5 85.0692 133.551  53
  -3   2   5 118.697 138.961  49
  -3   2   5 102.512 94.6069  42
  -3   2   5 136.457 120.305  45
  -3   2   5 93.0700 141.308  21
  -3   2   5 27.9214 181.083   7
  -3   2   5 54.7338 112.672  50
  -3   2   5 41.0732 212.310   2
  -3   2   5 197.879 139.752  35
  -3   2   4 674.778 196.471   7
  -3   2   4 780.999 247.872   2
  -3   2   3 38889.0 1298.84   9
  -3   2   3 39709.4 1469.10   2
  -3   2   3 35374.4 1047.67   4
  -3   2   3 37985.2 1246.87   7
  -3   2   3 37435.8 1299.29   1
  -3   2   2 17915.2 678.867   7
  -3   2   2 18284.5 762.491   1
  -3   2   2 19143.4 759.911   9
  -3   2   2 19438.5 571.604   4
  -3   2   2 16725.1 689.850  10
  -3   2   1 29170.2 1061.05  10
  -3   2   1 30604.9 887.484   3
  -3   2   1 34487.7 1113.57   9
  -3   2   1 36428.7 1131.44   1
  -3   2   1 32018.2 984.207   7
  -3   2   0 295761. 7888.57   8
  -3   2  -1 2087.31 258.374   8
   3  -2   2 30660.0 1164.35  12
   3  -2   3 6351.29 272.295  18
   3  -2   3 9378.53 577.552  12
   3  -2   4 14880.9 537.454  18
   3  -2   4 16131.3 888.931  12
   3  -2   5 1292.17 174.473  18
  -3   2  -5 1085.78 283.784   8
   3  -2   5 1227.22 306.411  13
   3  -2   5 1145.98 152.637  60
   3  -2   5 1177.35 324.603  12
  -3   2  -6 987.780 311.425   8
   3  -2   6 870.652 163.745  64
   3  -2   6 1038.29 324.537  13
   3  -2   6 1083.97 175.193  60
  -3   2  -7 686.478 130.095  23
   3  -2   7 675.385 150.220  64
   3  -2   7 775.621 167.712   6
  -3   2  -8 682.936 104.232  23
   3  -2   8 487.660 107.356  22
   3  -2   8 710.033 134.089  64
   3  -2   8 666.611 148.625   6
   3  -2   8 665.448 125.196  55
   3  -2   9 561.129 114.077  15
   3  -2   9 779.525 114.865   6
  -3   1   8 1934.33 196.492  21
  -3   1   8 1846.70 191.282  36
  -3   1   7 551.606 132.112  57
  -3   1   7 472.552 118.268  50
  -3   1   7 569.923 137.314  22
  -3   1   7 618.582 172.144  45
  -3   1   7 560.060 148.031  36
  -3   1   7 484.861 146.678  21
  -3   1   6 17147.8 650.150  50
  -3   1   6 18820.0 654.609  22
  -3   1   6 19644.6 705.603  21
  -3   1   6 19218.3 710.789  45
  -3   1   6 19521.3 638.527  35
  -3   1   6 16455.0 901.098   7
  -3   1   6 19228.8 1083.56   2
  -3   1   6 19028.7 677.124  36
  -3   1   6 16393.7 651.069  57
  -3   1   5 22652.8 728.921   6
  -3   1   5 22679.8 752.245  53
  -3   1   5 21095.4 688.678  24
  -3   1   5 19845.1 702.990  50
  -3   1   5 18629.1 683.071  49
  -3   1   5 21274.8 693.325  22
  -3   1   5 20913.5 734.390  21
  -3   1   5 22687.0 760.023  45
  -3   1   5 20781.7 1087.19   2
  -3   1   5 18507.6 650.868  35
  -3   1   5 21385.6 950.148   7
  -3   1   4 13608.7 784.076   2
  -3   1   4 12653.2 641.037   7
  -3   1   3 20757.4 653.674   4
  -3   1   3 23736.1 849.865   7
  -3   1   2 36176.8 1173.40   9
  -3   1   2 34356.1 997.472   4
  -3   1   2 38216.3 1140.84   7
  -3   1   1 262.857 99.5416   7
  -3   1   1 559.803 172.202   9
  -3   1   1 261.143 97.5072  10
  -3   1   0 107106. 2622.15   9
  -3   1   0 108487. 2554.05   8
   3  -1   1 64333.1 1878.70  12
  -3   1  -1 65486.4 1875.96   8
   3  -1   2 219117. 5999.77  12
   3  -1   3 20073.6 873.569  12
   3  -1   4 1868.08 151.769  18
   3  -1   4 2214.84 327.255  12
   3  -1   5 2608.45 202.546  18
  -3   1  -5 3108.97 359.114   8
   3  -1   5 2906.25 355.929  13
   3  -1   5 2608.22 384.550  12
   3  -1   6 31740.4 991.262  18
  -3   1  -6 33346.2 1263.77   8
   3  -1   6 28150.4 980.167  64
   3  -1   6 33548.9 1300.15  13
   3  -1   6 29622.7 927.720  60
   3  -1   6 31722.4 1462.40  12
   3  -1   7 14245.6 567.213  64
   3  -1   7 14889.7 584.487  18
  -3   1  -7 14930.0 820.434   8
  -3   1  -7 12959.9 526.310  23
   3  -1   7 13070.4 967.479  12
   3  -1   8 2657.01 203.332  55
   3  -1   8 2503.50 189.066  22
   3  -1   8 2411.66 215.684  64
  -3   1  -8 2526.35 184.469  23
   3  -1   9 2256.39 156.382  22
   3  -1   9 2663.65 167.494  55
  -3   1 -10 18095.5 541.698  59
  -3   0   9 2346.19 166.357  45
  -3   0   9 2143.19 142.857  36
  -3   0   8 307.362 142.703  53
  -3   0   8 322.406 128.281  36
  -3   0   8 236.362 112.088  21
  -3   0   7 1027.29 197.983  49
  -3   0   7 1105.74 163.804  22
  -3   0   7 837.469 158.185  21
  -3   0   7 1155.30 189.809  53
  -3   0   7 1144.70 180.806   6
  -3   0   7 1153.62 169.944  36
  -3   0   6 515.547 255.679   2
  -3   0   6 496.022 169.819  49
  -3   0   6 497.512 133.046  22
  -3   0   6 612.805 164.896  45
  -3   0   6 563.899 161.408   6
  -3   0   6 303.707 135.828  36
  -3   0   6 672.048 170.797  53
  -3   0   5 23605.2 764.828   6
  -3   0   5 21866.9 740.359  24
  -3   0   5 21711.2 732.775  49
  -3   0   5 23410.6 742.467  22
  -3   0   5 21483.6 717.579  46
  -3   0   5 21537.4 710.318  28
  -3   0   5 21203.4 743.269  36
  -3   0   5 22564.0 1141.85   2
  -3   0   5 22751.6 783.330  53
  -3   0   4 50717.4 1723.23   7
  -3   0   3 281329. 7625.31   7
  -3   0   2 321282. 8639.50   9
  -3   0   2 329852. 8663.00   7
  -3   0   1 92190.6 2521.47   9
  -3   0   1 89103.9 2470.32   7
  -3   0   0 1237.73 139.149   8
   3   0   0 975.204 71.1703  13
   3   0   1 10676.1 431.583  12
   3   0   2 131887. 3700.05  12
   3   0   3 124642. 3604.84  12
   3   0   4 51109.5 1758.97  12
   3   0   4 49146.7 1584.00  13
   3   0   5 66977.1 2126.14  13
   3   0   5 67771.9 2331.60  12
   3   0   6 2425.35 399.372  12
   3   0   6 1954.59 196.426  18
   3   0   6 1978.30 341.169  13
  -3   0  -7 4356.47 253.616  23
   3   0   7 5335.41 318.275  18
  -3   0  -7 4743.99 496.885   8
   3   0   7 5171.03 290.326  64
   3   0   7 5432.39 521.601  14
   3   0   8 36534.9 1154.00  22
   3   0   8 36599.6 1212.47   6
   3   0   8 40084.0 1240.17  18
  -3   0  -8 39824.4 1504.31   8
   3   0   8 41871.0 1572.43  14
   3   0   8 40932.9 1572.44  13
   3   0   8 40014.9 1170.94  55
   3   0   8 35640.7 1728.66  12
   3   0   9 15471.0 532.893  55
   3   0   9 15659.9 584.282   6
   3   0   9 14679.9 527.335  22
   3   0  10 688.194 121.512   6
  -3   0 -10 504.009 99.3023  59
   3   0  11 441.565 53.7883   6
  -3  -1   9 1286.91 105.242  45
  -3  -1   9 1105.23 89.0930   5
  -3  -1   8 1150.63 155.826  53
  -3  -1   8 839.804 122.543  22
  -3  -1   8 872.550 130.731  36
  -3  -1   7 17963.7 664.729  53
  -3  -1   7 17780.1 621.335  22
  -3  -1   7 18395.7 646.792   6
  -3  -1   7 16911.2 627.138  36
  -3  -1   7 17369.7 620.801  49
  -3  -1   6 1688.67 216.167  49
  -3  -1   6 1883.59 214.495  53
  -3  -1   6 2319.46 217.837   6
  -3  -1   6 1670.03 183.815  22
  -3  -1   6 1696.46 207.873  46
  -3  -1   6 1347.32 336.406   2
  -3  -1   6 1906.55 202.119  36
  -3  -1   6 1551.40 151.581  15
  -3  -1   5 500.648 140.276  46
  -3  -1   5 601.093 272.206   2
  -3  -1   5 562.141 137.577   6
  -3  -1   5 467.063 122.435  36
  -3  -1   5 604.839 165.017  35
  -3  -1   5 519.350 149.124  24
  -3  -1   5 592.843 150.930  49
  -3  -1   5 798.880 122.279  15
  -3  -1   4 7787.28 286.420  15
  -3  -1   4 7143.31 589.624   2
  -3  -1   3 32813.9 977.256  16
  -3  -1   3 40614.0 1410.62   2
  -3  -1   2 5622.12 414.957   2
  -3  -1   1 104358. 2847.16   9
  -3  -1   1 100622. 2959.98   1
  -3  -1   0 11168.1 406.636   9
  -3  -1   0 11689.7 527.929   2
  -3  -1   0 12348.6 489.187   1
   3   1   2 789287. 20259.8  13
   3   1   2 773829. 20164.5   7
   3   1   3 7854.58 328.790   7
   3   1   3 7549.26 401.362  13
   3   1   4 11086.5 550.026  13
   3   1   4 11781.5 503.208   7
   3   1   5 1503.80 214.920   7
   3   1   5 2155.12 357.171  12
   3   1   5 1741.38 288.853  13
   3   1   6 77979.6 2489.41   7
   3   1   6 83848.1 2549.06  13
   3   1   7 18256.1 623.675  55
   3   1   7 18098.0 884.562   7
   3   1   7 19299.8 928.692  13
   3   1   8 10329.9 473.656   6
   3   1   8 11663.8 888.940  12
   3   1   8 10729.4 428.923  22
   3   1   8 11973.3 456.419  55
   3   1   8 11265.4 731.268  14
   3   1   9 5629.73 286.988  55
   3   1   9 4877.31 257.717  22
   3   1   9 5028.08 303.274   6
   3   1   9 4666.75 254.708  38
   3   1  10 3874.53 206.157  22
  -3  -1 -10 4188.86 228.741  59
   3   1  11 6506.98 260.753  53
   3   1  11 7621.59 273.219   6
  -3  -2   8 12789.5 442.781  53
  -3  -2   8 12213.9 419.542  22
  -3  -2   8 12249.5 425.378  36
  -3  -2   7 4006.46 261.720  53
  -3  -2   7 3437.77 242.677  49
  -3  -2   7 4212.52 242.908  22
  -3  -2   7 4034.77 253.378  36
  -3  -2   6 33723.6 1117.23  53
  -3  -2   6 34299.0 1091.96   6
  -3  -2   6 34506.2 1082.69  22
  -3  -2   6 33643.7 1071.28  49
  -3  -2   6 33456.6 1080.72  46
  -3  -2   6 33371.9 1099.20  36
  -3  -2   6 33950.9 1049.07  35
  -3  -2   6 36384.5 1013.65  15
  -3  -2   5 14749.2 539.824   6
  -3  -2   5 13139.5 511.501  46
  -3  -2   5 13574.8 523.480  49
  -3  -2   5 12049.3 465.965  16
  -3  -2   5 13943.0 543.924  36
  -3  -2   5 12585.9 492.214  35
  -3  -2   5 14088.0 470.098  15
  -3  -2   5 12107.6 840.568   2
  -3  -2   4 44406.6 1366.79  24
  -3  -2   4 45942.9 1360.34  49
  -3  -2   4 42142.9 1758.74   2
  -3  -2   4 46151.8 1370.55   6
  -3  -2   4 47258.8 1331.56  16
  -3  -2   4 45825.3 1302.27  15
  -3  -2   4 46021.7 1352.69  67
  -3  -2   4 45827.0 1406.28  64
  -3  -2   4 48134.2 1371.66  28
  -3  -2   3 12914.2 439.115  16
  -3  -2   3 11987.9 413.121  15
  -3  -2   2 20725.8 616.524  16
  -3  -2   2 19355.1 583.975  15
  -3  -2   1 252684. 6864.71   2
  -3  -2   0 263858. 6951.26   2
  -3  -2   0 255227. 6880.68   1
  -3  -2  -1 637755. 16511.9  11
  -3  -2  -1 626539. 16514.5   1
  -3  -2  -2 38863.9 1163.69  11
   3   2   2 38402.6 1154.73  14
  -3  -2  -3 120894. 3330.92  11
   3   2   3 124426. 3352.92  14
   3   2   3 119465. 3310.88   7
   3   2   4 22119.2 783.713   7
   3   2   4 22498.8 827.241  14
   3   2   4 20373.4 806.410  13
   3   2   5 2376.23 307.963  14
   3   2   5 2619.23 269.387   7
   3   2   5 2670.18 313.965  13
   3   2   6 36067.9 1346.77  14
   3   2   6 35276.4 1319.56   7
   3   2   6 37944.0 1368.19  13
   3   2   7 7314.80 541.945   7
   3   2   8 6530.75 313.166  55
   3   2   8 6685.18 554.319  14
   3   2   8 5581.68 287.629  22
   3   2   8 6591.34 336.075   6
   3   2   8 6214.43 659.790  12
   3   2   8 5646.99 523.613   7
   3   2   9 976.258 310.195  12
   3   2   9 1234.57 173.190  55
   3   2   9 1159.52 171.466   6
   3   2   9 836.310 133.243  22
   3   2   9 1416.19 199.048  18
   3   2   9 766.878 277.028   2
   3   2   9 975.887 158.288  38
   3   2   9 1213.56 307.612  14
  -3  -2  -9 1060.34 156.808  59
   3   2  10 60.6173 114.183   6
   3   2  10 137.475 147.167  18
  -3  -2 -10 12.4689 83.7210  59
   3   2  11-47.9911 90.8884  53
   3   2  11 94.2551 86.7163   6
  -3  -3   8 4992.97 181.732  36
  -3  -3   8 6153.84 226.403  45
  -3  -3   7 10083.1 397.146  53
  -3  -3   7 9876.16 381.475  49
  -3  -3   7 11024.5 399.191  22
  -3  -3   7 11055.6 447.838  45
  -3  -3   7 11000.3 405.552  36
  -3  -3   6 2111.42 233.819  46
  -3  -3   6 1909.45 185.218   6
  -3  -3   6 1786.69 196.061  53
  -3  -3   6 2081.11 211.285  36
  -3  -3   6 2533.50 225.647  35
  -3  -3   6 2136.45 203.517  49
  -3  -3   5 1174.31 158.270   6
  -3  -3   5 1366.01 199.298  46
  -3  -3   5 1162.94 283.634   2
  -3  -3   5 1382.15 162.528  16
  -3  -3   5 1218.69 187.534  35
  -3  -3   5 1273.66 177.961  15
  -3  -3   5 1282.33 185.531  49
  -3  -3   4 37106.7 1130.63  24
  -3  -3   4 31210.0 1069.58   6
  -3  -3   4 36668.8 1148.84  64
  -3  -3   4 35715.0 1094.87  49
  -3  -3   4 39281.4 1085.62  16
  -3  -3   4 33335.5 1058.65  35
  -3  -3   4 37716.6 1055.59  15
  -3  -3   4 29353.5 1420.36   2
  -3  -3   3 56683.1 1648.69  24
  -3  -3   3 56840.4 1634.32  39
  -3  -3   3 61035.9 1632.62  16
  -3  -3   3 57246.7 1594.53  15
  -3  -3   3 56682.1 1630.27  67
  -3  -3   2 5172.26 247.383  16
  -3  -3   2 4560.51 221.861  15
  -3  -3   1 12280.4 581.819   2
  -3  -3   1 12977.2 412.150  15
  -3  -3   0 14109.1 562.430   2
   3   3   0 14828.6 551.665  10
   3   3   1 77739.3 2033.95  10
  -3  -3  -1 66317.7 1897.99   1
   3   3   2 13470.7 595.086  10
  -3  -3  -2 14987.9 478.164   1
   3   3   3 31.6671 179.075  14
  -3  -3  -4 63150.3 1897.11  11
   3   3   4 65580.8 1960.95   7
   3   3   4 65040.8 1949.76  14
   3   3   5 29377.1 1085.36   7
   3   3   5 30234.5 1102.95  14
   3   3   6 4806.51 405.617   7
   3   3   7 20702.4 684.451  55
   3   3   7 24173.8 1042.11   7
   3   3   8 11242.6 449.985  22
   3   3   8 11037.8 460.491   6
   3   3   8 14074.9 803.681  14
  -3  -3  -8 12216.6 499.388  59
   3   3   8 13145.7 791.020   7
   3   3   9 801.309 260.291   7
   3   3   9 702.297 127.481  22
   3   3   9 712.078 248.674   2
   3   3   9 876.139 146.775   6
   3   3   9 1057.18 182.875  18
   3   3   9 888.700 166.681  55
   3   3   9 642.028 285.170  12
   3   3   9 715.308 157.635  38
   3   3   9 784.128 293.815  14
  -3  -3  -9 668.112 133.846  59
   3   3  10 2899.37 232.559  18
   3   3  10 2664.09 203.845  38
   3   3  10 2586.06 205.010   6
   3   3  11 1784.41 144.761  53
   3   3  11 2295.51 157.223   6
   3   3  12 67.7463 57.4941  21
  -3  -4   7 5345.39 223.137  22
  -3  -4   7 6011.14 264.290  45
  -3  -4   7 5800.02 229.472  36
  -3  -4   6 1186.90 147.231  49
  -3  -4   6 1149.63 158.953  36
  -3  -4   6 1150.25 146.912  22
  -3  -4   5 12730.2 508.734   6
  -3  -4   5 12733.0 541.629  53
  -3  -4   5 17189.1 565.891  49
  -3  -4   5 17975.3 549.286  35
  -3  -4   5 16103.6 539.114  16
  -3  -4   4 6980.22 334.102  16
  -3  -4   4 6235.75 312.534  35
  -3  -4   4 6710.30 325.478  15
  -3  -4   4 6096.45 354.962  64
  -3  -4   4 5992.02 353.236  63
  -3  -4   4 6148.98 326.820  49
  -3  -4   3 569.299 148.277  24
  -3  -4   3 933.940 159.086  63
  -3  -4   3 536.925 199.931   2
  -3  -4   3 850.871 176.257  16
  -3  -4   3 956.776 175.982  15
  -3  -4   3 735.116 146.224  64
  -3  -4   2 21140.4 682.851  15
  -3  -4   2 17500.3 881.540   2
  -3  -4   1 10556.3 517.433   2
   3   4   0 29449.7 1022.87  10
  -3  -4   0 31353.8 838.097  16
   3   4   1 8298.28 444.850  10
   3   4   2 82990.1 2487.30  10
   3   4   3 3491.88 324.929  10
   3   4   4 3828.83 345.813  14
  -3  -4  -5 28884.1 842.718  17
   3   4   5 30164.8 1133.20   7
   3   4   5 30637.2 1129.58  14
  -3  -4  -5 29986.4 1037.09  11
   3   4   6 17238.8 823.754  14
   3   4   6 16332.2 802.102   7
   3   4   7 519.928 123.619  55
   3   4   7 447.729 288.423  14
   3   4   7 507.874 237.693   7
   3   4   8 14326.0 543.021  55
   3   4   8 13402.5 783.384   2
   3   4   8 15553.6 589.282  38
   3   4   8 16683.5 907.974   7
   3   4   8 18035.2 1103.25  12
   3   4   9 3656.57 267.513  38
   3   4   9 3648.98 521.199  12
   3   4   9 3213.05 216.255   6
   3   4   9 3303.24 478.573  14
   3   4   9 3440.00 444.970   7
   3   4  10 1055.99 166.743  18
   3   4  10 950.546 130.466   6
   3   4  10 1286.95 174.545  38
   3   4  11 10464.7 378.445   6
   3   4  11 11068.8 407.228  18
   3   4  12 6101.40 244.112  21
  -3  -5   6 10016.4 360.953  22
  -3  -5   6 10021.2 365.963  36
  -3  -5   5 5529.34 261.785  49
  -3  -5   5 5182.49 260.973  16
  -3  -5   5 5491.83 303.216  36
  -3  -5   4-9.66616 196.695  67
  -3  -5   4 118.261 152.225  16
  -3  -5   4-9.37331 129.417  35
  -3  -5   4 85.1287 121.512  64
  -3  -5   4-51.8265 133.315  63
  -3  -5   4 51.0309 130.654  49
  -3  -5   3 15630.2 585.131  49
  -3  -5   3 17638.1 606.187  16
  -3  -5   3 14623.4 533.283  35
  -3  -5   3 15035.8 591.556  67
  -3  -5   3 16933.0 633.271  64
  -3  -5   3 16742.7 635.748  63
  -3  -5   2 1859.60 182.229  24
  -3  -5   2 2014.52 187.542  39
  -3  -5   2 1960.50 188.961  64
  -3  -5   2 2386.06 208.908  63
  -3  -5   1 757.028 117.874  44
  -3  -5   1 865.968 130.371  39
   3   5   0 69736.1 2256.26  10
   3   5   1 26189.5 997.968  10
  -3  -5  -1 21763.3 651.152  17
   3   5   2 6267.22 442.176  10
  -3  -5  -2 5211.32 226.042  17
   3   5   3 24318.8 979.829  10
  -3  -5  -3 20643.3 623.183  17
   3   5   4 48969.1 1757.88  10
  -3  -5  -5 19796.4 787.986  11
  -3  -5  -5 18555.1 582.222  17
  -3  -5  -6 21839.7 892.843  11
  -3  -5  -6 24280.7 707.553  17
   3   5   6 20705.4 979.452  14
   3   5   6 20863.5 1001.76   7
   3   5   7 14462.9 813.399  14
   3   5   7 14377.5 809.104   7
   3   5   8 5184.15 313.523  38
   3   5   8 4767.82 515.010   7
   3   5   9 5189.47 620.807  12
   3   5   9 4963.07 312.551  38
   3   5   9 4152.63 515.978  14
   3   5   9 3881.89 476.322   7
   3   5  10 2867.49 214.906  18
   3   5  10 3374.14 247.054  38
  -3  -5 -11 71.2381 80.5178  47
   3   5  11 80.2779 114.964  38
   3   5  11 16.0042 74.5423  18
   3   5  12 1230.50 104.979  21
  -3  -6   6 100.119 47.5226  45
  -3  -6   5 12370.9 440.418  36
  -3  -6   5 12637.8 449.357  46
  -3  -6   4 1338.66 217.403  67
  -3  -6   4 1336.14 145.947  49
  -3  -6   4 1372.50 170.725  16
  -3  -6   4 1544.83 174.617  64
  -3  -6   3 20176.1 662.698  49
  -3  -6   3 18872.7 710.287  64
  -3  -6   3 21700.2 704.202  16
  -3  -6   3 19497.3 696.809  67
  -3  -6   3 20930.9 740.328  63
  -3  -6   3 17490.4 599.484  60
  -3  -6   2 10605.9 482.753  63
  -3  -6   2 9732.12 447.121  67
  -3  -6   2 10370.3 461.205  64
  -3  -6   1 19318.2 691.596  39
  -3  -6   1 19736.8 718.254  64
   3   6   0 2323.04 337.710  10
  -3  -6   0 2785.72 194.120  39
   3   6   1 12631.8 739.048  10
   3   6   2 97074.9 2775.57  10
  -3  -6  -2 79605.4 2196.68  17
  -3  -6  -3 14044.4 452.640  17
  -3  -6  -3 12595.2 439.668  16
   3   6   4 55559.9 2024.74  10
   3   6   5 115530. 3434.98  10
  -3  -6  -5 101954. 2777.55  17
  -3  -6  -6-20.9484 190.421  11
   3   6   6 10.6042 121.895  38
  -3  -6  -6 318.384 162.650  17
   3   6   6 151.845 206.916   7
  -3  -6  -7 9991.10 551.495  11
  -3  -6  -7 9165.14 410.821  47
   3   6   7 9821.13 447.301  38
  -3  -6  -7 9336.04 380.951  17
   3   6   7 9684.91 674.386   7
  -3  -6  -8 2188.29 198.031  47
   3   6   8 1534.98 329.385   7
  -3  -6  -9 5325.50 306.556  47
   3   6   9 4587.42 511.563   7
   3   6   9 5013.69 309.288  30
   3   6   9 5815.08 341.083  38
   3   6   9 5077.18 622.052  12
  -3  -6 -10 3723.82 233.436  47
   3   6  10 3465.53 240.561  21
   3   6  10 3691.88 266.715  38
   3   6  10 3451.01 217.505  30
   3   6  11 9146.08 374.537  21
   3   6  11 10035.8 400.892  38
   3   6  12 906.928 79.4051  21
   3   6  12 1726.82 136.658  57
  -3  -7   5 4402.23 173.076  46
  -3  -7   4 1053.37 151.566  46
  -3  -7   4 786.544 121.752  16
  -3  -7   3 1080.37 148.424  64
  -3  -7   3 1355.39 181.358  16
  -3  -7   3 1165.84 210.944  67
  -3  -7   2 403.675 144.277  49
  -3  -7   2 395.951 129.491  64
  -3  -7   2 479.064 200.758  67
  -3  -7   2 349.743 118.548  60
  -3  -7   1 520.747 135.050  64
   3   7  -1 392.061 131.972  61
  -3  -7   0 20848.2 680.166  17
   3   7   0 19990.3 785.608  61
  -3  -7   0 24502.8 802.791  44
  -3  -7   0 23811.4 755.973  39
  -3  -7   0 25099.2 780.262  16
   3   7   1 204.132 194.841  10
  -3  -7  -1 161.938 109.134  44
  -3  -7  -1 257.771 111.028  39
  -3  -7  -1 246.110 103.337  32
  -3  -7  -1 220.612 154.657  17
  -3  -7  -2 20588.6 714.091  44
  -3  -7  -2 19804.1 650.000  17
   3   7   2 20984.9 1076.10  10
  -3  -7  -2 21051.0 685.635  32
  -3  -7  -3 61005.2 1760.32  44
  -3  -7  -3 61441.0 1676.12  17
  -3  -7  -3 59736.1 1682.95  16
  -3  -7  -3 57272.5 1715.46  33
   3   7   4 76.6159 121.845  30
   3   7   4 21.4631 181.153  10
  -3  -7  -4-28.6090 109.181  44
   3   7   5 24957.5 852.578  38
  -3  -7  -5 26006.2 849.303  33
  -3  -7  -6 1867.96 303.358  11
   3   7   6 1788.29 362.637   7
  -3  -7  -6 1477.38 167.096  47
  -3  -7  -6 2351.60 219.684  17
   3   7   6 2166.84 216.203  38
  -3  -7  -7 200.826 102.555  47
   3   7   7 6.49496 152.390  38
  -3  -7  -7 187.138 178.374  17
  -3  -7  -7 162.908 178.609  11
   3   7   7 220.588 234.359   7
  -3  -7  -8 3012.40 323.089  11
  -3  -7  -8 3999.29 245.569  47
   3   7   8 3771.27 298.213  38
   3   7   8 3549.14 445.156   7
   3   7   8 3961.54 291.486  30
  -3  -7  -9 570.284 118.680  47
   3   7   9 789.964 169.427  30
   3   7  10 3246.16 257.605  38
   3   7  10 2538.63 205.140  30
   3   7  11 37.9821 127.051  38
   3   7  11 24.0351 112.749  57
   3   7  12 309.079 84.1499  57
  -3  -8   4 11973.5 359.517  46
  -3  -8   3 3520.78 197.034  46
  -3  -8   3 2760.12 177.565  16
  -3  -8   2 714.131 177.450  67
  -3  -8   1 132.026 154.758  16
  -3  -8   1 188.485 185.130  67
  -3  -8   1 143.958 103.883  64
   3   8  -1 176.852 122.990  61
  -3  -8   0 9.75369 160.742  16
  -3  -8   0 55.6398 104.425  64
   3   8   0-34.1458 134.836  61
  -3  -8  -1 98978.5 2599.44  44
   3   8   1 82913.6 2606.25  61
  -3  -8  -1 91900.3 2465.50  17
  -3  -8  -1 87327.3 2503.46  39
  -3  -8  -1 87730.6 2528.08  16
  -3  -8  -1 95969.2 2549.50  32
   3   8   2 1574.60 331.397  10
  -3  -8  -2 1659.57 185.136  44
  -3  -8  -2 1607.14 207.040  17
  -3  -8  -2 1492.66 150.313  39
  -3  -8  -2 1400.29 182.987  16
  -3  -8  -2 1591.34 167.068  32
   3   8   3 10107.2 776.431  10
  -3  -8  -3 11223.1 474.940  44
  -3  -8  -3 11587.8 432.406  17
   3   8   3 10480.1 467.798  30
  -3  -8  -3 9762.44 407.527  16
  -3  -8  -3 11445.1 450.126  32
   3   8   4 5328.19 575.949  10
  -3  -8  -4 6571.97 343.468  44
  -3  -8  -4 4966.84 266.888  33
   3   8   4 6068.56 348.281  30
  -3  -8  -5 5861.24 343.623  44
   3   8   5 5890.38 614.833  10
   3   8   5 6128.19 361.501  30
  -3  -8  -6 90.5344 128.018  44
   3   8   6 180.236 154.212  38
   3   8   6 7.51443 150.620  30
   3   8   6-67.8745 240.292   7
  -3  -8  -7-178.863 240.450  11
   3   8   7-48.1069 160.901  38
  -3  -8  -7 190.953 191.310  17
   3   8   7-87.3529 233.957   7
   3   8   8 1698.82 237.957  38
  -3  -8  -8 1483.55 212.766  17
   3   8   8 1692.96 224.929  30
   3   8   8 1144.24 306.753   7
   3   8   9 675.290 167.157  30
   3   8   9 618.742 144.830  57
   3   8  10 3283.99 223.075  30
   3   8  10 3079.62 228.533  57
   3   8  11 368.621 109.174  57
  -3  -8 -12 575.996 57.8878  44
   3   8  12 1037.66 76.1148  57
  -3  -9   1 923.883 142.418  16
  -3  -9   1 1008.40 157.152  67
  -3  -9   0 30528.3 905.707  67
  -3  -9   0 27255.6 896.317  16
   3   9   0 29366.6 956.848  61
  -3  -9  -1 42620.5 1189.08  17
  -3  -9  -1 39748.4 1246.86  16
   3   9   1 43658.7 1351.69  61
  -3  -9  -2 589.310 148.823  44
  -3  -9  -2 717.350 182.169  17
  -3  -9  -2 750.855 157.881  16
   3   9   2 912.734 199.993  61
  -3  -9  -2 783.692 143.010  32
  -3  -9  -3 4677.76 286.660  44
  -3  -9  -3 4617.80 278.292  17
  -3  -9  -3 4003.42 243.461  16
  -3  -9  -3 4492.33 270.844  32
   3   9   3 4380.82 278.300  30
  -3  -9  -4 11323.0 460.953  32
  -3  -9  -4 10465.1 460.747  44
   3   9   4 9477.49 458.827  30
  -3  -9  -4 10433.6 426.110  17
   3   9   5 17868.4 689.474  30
   3   9   5 15880.1 1039.76  10
  -3  -9  -5 17244.5 656.025  44
   3   9   6 588.965 176.918  30
  -3  -9  -6 554.734 149.926  44
   3   9   6 403.652 263.375   7
  -3  -9  -7 211.421 131.543  44
  -3  -9  -7 364.677 197.146  17
   3   9   7 173.665 169.720  30
  -3  -9  -8 963.960 155.857  44
  -3  -9  -8 996.752 196.371  17
  -3  -9  -9 219.942 118.435  44
   3   9   9 239.431 146.456  30
  -3  -9 -10 2099.69 171.313  44
   3   9  10 2841.34 193.218  30
  -3  -9 -11 213.099 66.5423  44
   3   9  12 322.233 43.9156  50
   3   9  12 235.711 42.7353  37
  -3 -10   0 4124.89 209.199  16
   3  10   0 4409.96 213.254  61
   3  10   1 1002.92 119.231  52
  -3 -10  -1 1232.13 150.385  67
  -3 -10  -1 1003.49 139.802  16
   3  10   1 1421.05 171.422  61
  -3 -10  -2 5999.05 257.867  17
   3  10   2 5575.65 334.264  61
  -3 -10  -3 10477.1 439.239  44
  -3 -10  -3 10756.7 399.367  17
  -3 -10  -3 10359.0 425.758  32
   3  10   3 9253.36 473.022  61
  -3 -10  -4 6246.93 321.599  44
  -3 -10  -4 6295.17 311.236  17
  -3 -10  -4 6702.02 329.007  32
   3  10   4 6156.10 328.899  30
  -3 -10  -5 8551.75 381.745  44
  -3 -10  -5 9157.08 399.336  32
   3  10   5 7627.52 420.329  61
   3  10   5 8882.64 418.273  30
  -3 -10  -6 8739.12 389.055  44
   3  10   6 9129.41 441.009  30
   3  10   6 9198.93 436.379  61
  -3 -10  -7 9113.46 396.750  44
  -3 -10  -7 10300.9 389.528  17
   3  10   7 9409.62 423.360  61
   3  10   7 10388.5 472.658  30
  -3 -10  -8 1832.42 163.349  44
  -3 -10  -8 2052.35 189.869  17
   3  10   8 1724.57 149.944  37
  -3 -10  -9 2420.90 165.978  44
   3  10   9 3018.66 222.460  30
   3  10  10 2422.32 152.002  37
   3  10  10 2614.96 160.730  30
   3  10  11 419.543 55.1445  50
   3  10  11 374.245 60.1468  37
  -3 -11  -1 6855.76 257.145  63
  -3 -11  -2 4847.37 230.547  63
   3  11   2 4718.48 236.485  61
   3  11   3 140.389 96.0840  52
  -3 -11  -3 174.077 121.642  17
   3  11   3 269.119 130.627  61
  -3 -11  -4 9094.22 360.014  44
  -3 -11  -4 9941.38 350.679  17
  -3 -11  -5 261.035 87.7377  44
   3  11   5 128.412 129.769  61
  -3 -11  -5 230.570 105.676  32
   3  11   5 165.934 103.220  30
   3  11   6 260.624 123.356  61
  -3 -11  -6 143.350 78.7751  44
   3  11   6 121.940 112.720  30
  -3 -11  -6 213.166 101.748  32
  -3 -11  -7 4558.91 210.571  44
  -3 -11  -7 4671.21 225.892  17
  -3 -11  -7 5283.80 244.697  32
   3  11   7 5266.66 275.850  30
   3  11   7 4604.97 245.672  61
  -3 -11  -8 884.933 88.4895  44
   3  11   8 1299.66 155.160  30
   3  11   9 3058.42 157.905  25
  -3 -11 -10 634.813 66.3579  32
   3  11  10 880.579 79.8678  30
   3  12   4 562.926 64.7390  52
   3  12   5 1108.42 102.814  52
   3  12   5 1462.74 113.786  61
   3  12   6 2719.80 151.556  52
   3  12   6 3021.23 151.357  61
   3  12   7 727.111 73.1920  52
  -3 -12  -7 785.037 75.4949  32
  -4   9   5 567.748 52.5361  20
  -4   9   5 567.803 64.0974  27
  -4   9   4 5954.59 226.188  20
  -4   9   3 283.148 66.9912  20
  -4   9   3 279.077 70.7149  27
  -4   9   2 9873.65 312.091  20
  -4   9   2 8351.25 302.085  27
  -4   8   7 80.5858 43.4280  56
  -4   8   7 63.1358 51.6835  42
  -4   8   6 29.4093 59.0278  27
  -4   8   6 41.6333 73.5386  42
  -4   8   6 12.3426 74.9340  56
  -4   8   5 106.390 97.5122  56
  -4   8   5 173.151 89.6968  27
  -4   8   5 160.802 87.1160  42
  -4   8   4-72.7322 80.5051  42
  -4   8   4 35.5521 96.2443  56
  -4   8   3 3610.43 216.524  52
  -4   8   3 3382.06 223.346  56
  -4   8   3 3429.89 180.588  42
  -4   8   2 8590.15 362.970  56
  -4   8   1 20.7359 83.3598  40
  -4   8   0 72.6516 69.7572  20
  -4   8   0 34.6911 65.2583  27
  -4   8   0 123.988 90.5260  40
  -4   8  -2 962.900 82.9807  40
   4  -8   2 680.797 67.8087  64
  -4   7   8 3528.75 159.657  51
  -4   7   7 39624.3 1171.29  56
  -4   7   7 43813.8 1199.91  51
  -4   7   7 41020.1 1173.23  65
  -4   7   6 14941.3 524.414  51
  -4   7   6 13878.5 505.370  65
  -4   7   6 15156.3 535.281  56
  -4   7   6 14970.8 508.461  27
  -4   7   5 16087.7 595.600  51
  -4   7   5 18819.6 634.703  25
  -4   7   5 18503.4 640.761  42
  -4   7   5 17106.5 623.621  27
  -4   7   4 256.108 109.631  25
  -4   7   4 298.352 107.793  52
  -4   7   4 280.157 98.0155  51
  -4   7   4 272.206 118.930  42
  -4   7   3 35372.3 1109.96  56
  -4   7   3 34190.5 1069.66  52
  -4   7   3 34531.5 1059.96  42
  -4   7   2 11774.8 494.537  56
  -4   7   2 10518.3 423.402  42
  -4   7   2 10650.5 430.773  40
  -4   7   1 51.9155 110.996  56
  -4   7   1 127.345 126.435  52
  -4   7   1 139.221 112.869  40
  -4   7   0 8521.52 397.859  52
  -4   7  -1 28168.6 886.982  27
  -4   7  -1 28898.3 890.432  23
   4  -7   1 29077.5 845.752  60
  -4   7  -2 8951.19 320.493  23
   4  -7   2 8325.65 270.390  60
  -4   7  -3 957.231 115.761  40
  -4   7  -3 946.845 104.905  23
   4  -7   3 727.073 104.118  64
  -4   7  -4 1333.40 82.9376  23
  -4   6   8 3408.84 175.279  42
  -4   6   8 3840.61 200.806  65
  -4   6   7 927.239 150.610  42
  -4   6   7 1047.75 159.067  51
  -4   6   7 997.667 149.683  65
  -4   6   6 15292.9 564.919  56
  -4   6   6 13577.2 576.820  37
  -4   6   6 15451.7 581.385  65
  -4   6   6 15126.4 538.004  27
  -4   6   5 14454.4 598.765  56
  -4   6   5 15717.2 610.318  25
  -4   6   5 14632.0 595.266  65
  -4   6   5 15378.9 598.112  27
  -4   6   4 239.042 132.763  25
  -4   6   4 189.297 121.850  52
  -4   6   4 264.069 145.910  42
  -4   6   4 134.250 132.261  65
  -4   6   4 230.359 130.836  51
  -4   6   3 2008.24 230.772  56
  -4   6   3 2718.68 229.072  52
  -4   6   3 2099.99 196.837  51
  -4   6   3 2441.80 209.081  25
  -4   6   3 2178.60 213.486  42
  -4   6   3 1859.05 355.501   9
  -4   6   3 2363.63 214.024  65
  -4   6   3 2238.48 173.187   4
  -4   6   2 53151.2 1655.74  56
  -4   6   2 56498.2 1648.27  52
  -4   6   2 55572.5 1588.96  25
  -4   6   2 51166.5 1944.30   9
  -4   6   2 51597.8 1606.65  42
  -4   6   2 51686.0 1588.14  40
  -4   6   2 55523.1 1516.61   4
  -4   6   1 1423.32 190.641  56
  -4   6   1 1093.18 286.028  10
  -4   6   1 778.765 277.576   9
  -4   6   1 1319.44 142.281   4
  -4   6   0 5962.61 328.337  56
  -4   6   0 5765.09 331.299  52
  -4   6   0 5240.20 239.072   3
  -4   6  -1 6373.31 355.286  52
  -4   6  -1 6662.02 319.656  23
  -4   6  -2 7390.70 351.729  23
  -4   6  -2 7610.90 328.724  20
   4  -6   2 7108.22 300.381  60
  -4   6  -3 5912.84 307.746  23
   4  -6   3 6305.87 267.629  60
  -4   6  -4 57.4055 94.4375  23
  -4   6  -4 107.635 95.5078  40
   4  -6   4 2.40022 100.511  19
   4  -6   4 31.9290 87.7100  64
   4  -6   4 76.2539 97.7948  60
  -4   6  -5 2721.99 122.653  40
   4  -6   5 2590.40 134.648  64
  -4   5   9 112.222 54.1836  51
  -4   5   9 100.393 62.1164  65
  -4   5   8 1654.45 166.034  54
  -4   5   8 1658.06 155.888  51
  -4   5   8 1574.94 130.921   5
  -4   5   8 1761.39 167.627  65
  -4   5   7 30085.2 940.919  42
  -4   5   7 31147.7 987.494  54
  -4   5   7 28138.4 912.724   5
  -4   5   7 27843.1 928.405  37
  -4   5   7 29108.3 966.109  65
  -4   5   6 7211.91 401.994  54
  -4   5   6 7446.58 384.599  50
  -4   5   6 6118.90 336.033  56
  -4   5   6 8212.89 400.571  42
  -4   5   6 6946.04 350.189   5
  -4   5   6 6501.73 366.971  37
  -4   5   6 7210.77 391.535  65
  -4   5   6 6694.59 325.478  27
  -4   5   5 15043.5 620.727  25
  -4   5   5 15215.2 609.551  50
  -4   5   5 14803.9 636.157  54
  -4   5   5 14080.2 573.754   5
  -4   5   5 15787.1 639.979  37
  -4   5   5 15525.3 629.964  65
  -4   5   5 15147.0 596.897  27
  -4   5   4 64346.9 1884.77  54
  -4   5   4 61306.2 1823.51  50
  -4   5   4 62504.9 1835.32  25
  -4   5   4 58728.6 2152.92   9
  -4   5   4 56269.4 2041.86   1
  -4   5   4 61530.4 1847.88  65
  -4   5   4 59624.2 1776.70  52
  -4   5   3 10493.8 474.627  25
  -4   5   3 11595.7 487.445  52
  -4   5   3 9733.82 702.533   9
  -4   5   3 10661.3 493.152  65
  -4   5   3 11512.5 419.118   4
  -4   5   3 10088.5 656.041   1
  -4   5   2 6454.61 363.748  56
  -4   5   2 6178.94 324.132  40
  -4   5   2 6251.77 328.949  25
  -4   5   2 6279.53 332.207  51
  -4   5   2 7002.28 364.904  52
  -4   5   2 5950.82 494.658   1
  -4   5   2 6774.05 298.398   4
  -4   5   2 7005.41 364.804  65
  -4   5   1 349.953 145.932  56
  -4   5   1 309.185 190.276  10
  -4   5   1 256.687 123.189   3
  -4   5   1 299.606 105.544  42
  -4   5   1 244.097 250.869   9
  -4   5   1 155.391 193.774   1
  -4   5   0 1132.92 270.202   1
  -4   5   0 1822.02 207.774  52
  -4   5   0 1903.24 169.015   3
  -4   5   0 1317.08 146.089  23
  -4   5   0 1128.84 293.309  10
  -4   5   0 1698.69 343.544   9
  -4   5   0 1762.79 199.521  56
  -4   5  -1 14099.5 587.394  56
  -4   5  -1 14337.7 601.806  52
  -4   5  -1 14618.6 841.398   9
  -4   5  -1 12538.1 790.712   1
  -4   5  -2 3879.24 227.897   3
  -4   5  -2 4424.35 280.360  52
  -4   5  -2 4104.26 475.147   9
   4  -5   3 3183.12 208.419  60
   4  -5   4 1613.85 165.256  60
   4  -5   5 20856.0 628.719   6
  -4   5  -5 19351.5 639.007  40
  -4   5  -6 211.605 87.7057  23
   4  -5   6 197.510 66.5538  64
  -4   4   9 3804.11 192.029  54
  -4   4   9 3586.56 164.928   5
  -4   4   8-40.9735 112.314  54
  -4   4   8 108.194 102.237  51
  -4   4   8 31.4494 94.8244   5
  -4   4   7 473.508 122.437  42
  -4   4   7 402.383 119.682  37
  -4   4   7 579.159 159.585  50
  -4   4   7 588.210 143.352   5
  -4   4   7 418.643 163.345  54
  -4   4   6 12498.3 564.096  54
  -4   4   6 11981.7 482.338  56
  -4   4   6 12931.4 533.600  42
  -4   4   6 11066.5 506.896  37
  -4   4   6 13039.2 526.619   5
  -4   4   6 11974.5 463.963  27
  -4   4   5 74598.4 2216.41  54
  -4   4   5 72713.6 2169.66  50
  -4   4   5 73242.6 2181.18  42
  -4   4   5 71921.0 2177.26  37
  -4   4   5 74561.9 2151.90   5
  -4   4   5 77421.8 2151.74  27
  -4   4   4 30609.9 1019.50  54
  -4   4   4 28606.7 972.189  25
  -4   4   4 31929.4 993.866  50
  -4   4   4 26348.5 1206.59   9
  -4   4   4 25864.6 929.860   5
  -4   4   4 27294.8 979.568  37
  -4   4   4 26796.7 1185.19   1
  -4   4   4 28362.2 963.882  27
  -4   4   3 9783.73 461.737  54
  -4   4   3 8559.54 395.867  52
  -4   4   3 8239.50 408.049  50
  -4   4   3 8705.18 412.424  25
  -4   4   3 9041.54 408.430   5
  -4   4   3 8575.31 436.572  37
  -4   4   3 9651.29 449.392  65
  -4   4   3 8857.98 591.653   1
  -4   4   3 8889.15 361.638   4
  -4   4   3 7982.73 604.822   9
  -4   4   2 12931.1 542.620  52
  -4   4   2 15759.7 773.819   1
  -4   4   2 14166.9 780.468   9
  -4   4   2 11117.2 495.118  40
  -4   4   2 16688.4 512.028   4
  -4   4   2 12421.9 546.302  65
  -4   4   2 14128.0 547.181  25
  -4   4   1 665.691 138.804  56
  -4   4   1 795.491 151.115  52
  -4   4   1 471.182 191.688  10
  -4   4   1 803.349 150.191  65
  -4   4   1 322.440 252.688   1
  -4   4   1 710.694 139.029   3
  -4   4   1 737.090 133.915  42
  -4   4   1 709.681 128.695  51
  -4   4   0 7178.09 383.798  56
  -4   4   0 7151.46 400.743  52
  -4   4   0 8168.55 580.052   1
  -4   4  -1 30514.9 991.592  56
  -4   4  -1 28672.3 985.223  52
  -4   4  -1 31161.0 1246.02   9
  -4   4  -1 29440.8 1206.00   8
  -4   4  -1 29885.0 900.395   3
  -4   4  -2 8563.82 411.783  52
  -4   4  -2 10374.3 666.710   8
  -4   4  -2 8800.15 405.921  56
  -4   4  -2 9205.39 632.597   9
  -4   4  -3 24831.4 1139.51   9
   4  -4   3 23142.6 726.002  60
  -4   4  -4 411.252 243.970   9
  -4   4  -4 329.639 281.255   8
   4  -4   4 258.781 256.230  13
   4  -4   4 368.151 140.813  60
  -4   4  -5 5798.05 319.184  23
  -4   4  -5 5211.49 294.472  40
   4  -4   5 5244.01 273.022  60
   4  -4   6 18219.6 598.918   6
  -4   4  -6 18776.1 628.802  23
  -4   4  -6 16198.9 552.687  40
   4  -4   6 15566.5 581.035  64
  -4   4  -7 26990.6 507.109  23
   4  -4   7 26635.1 477.386   6
  -4   3   9 499.824 98.6074  54
  -4   3   9 511.212 84.6861   5
  -4   3   9 525.344 95.0352  65
  -4   3   8 8399.67 387.311  54
  -4   3   8 7617.57 350.692   5
  -4   3   8 7650.39 338.518  51
  -4   3   7 9810.14 439.820  50
  -4   3   7 9912.82 450.580  21
  -4   3   7 8501.91 377.847  42
  -4   3   7 9664.41 433.321   5
  -4   3   7 9098.23 417.356  57
  -4   3   6 14501.1 585.952  21
  -4   3   6 11904.0 521.229  42
  -4   3   6 11849.0 512.089  37
  -4   3   6 13161.9 553.152  36
  -4   3   6 13887.2 565.176  50
  -4   3   6 13022.0 543.744   5
  -4   3   6 12407.0 544.022  57
  -4   3   5 3910.80 252.538  56
  -4   3   5 4263.27 319.095  21
  -4   3   5 4007.81 281.268  42
  -4   3   5 3668.48 273.604  37
  -4   3   5 4210.08 293.649  36
  -4   3   5 4384.93 298.502   5
  -4   3   5 3778.11 250.383  27
  -4   3   5 4083.46 296.333  57
  -4   3   4 730.665 157.305  27
  -4   3   4 976.246 288.355   1
  -4   3   4 843.614 168.137  25
  -4   3   4 755.096 174.334  50
  -4   3   4 815.627 183.519  21
  -4   3   4 572.392 152.282  42
  -4   3   4 771.978 176.971  54
  -4   3   4 751.481 168.885  37
  -4   3   4 791.148 163.926  36
  -4   3   4 672.776 167.888   5
  -4   3   4 558.384 128.799  58
  -4   3   4 859.618 186.119  57
  -4   3   3 32395.2 1096.97  54
  -4   3   3 32557.5 1291.42   9
  -4   3   3 31017.3 1054.05  25
  -4   3   3 35338.6 1081.12  50
  -4   3   3 33967.8 1093.04  37
  -4   3   3 32992.6 1061.99   5
  -4   3   3 34159.1 999.411   4
  -4   3   3 34292.7 1309.01   1
  -4   3   2 3937.73 394.470   1
  -4   3   2 3778.15 396.279   9
  -4   3   2 3683.21 217.557   4
  -4   3   1 34825.6 988.787   3
  -4   3   1 35960.9 1302.46   9
  -4   3   1 37265.8 1311.52   1
  -4   3   0 1248.40 148.525   3
  -4   3   0 1122.66 248.209   8
  -4   3   0 1492.66 282.913   1
  -4   3  -1 2713.25 329.869   8
  -4   3  -2 2923.36 225.460  52
  -4   3  -2 3765.50 397.320   9
  -4   3  -2 4007.50 415.359   8
  -4   3  -3 33335.5 1090.14  52
   4  -3   3 35510.8 1027.76  60
  -4   3  -4 21556.2 997.885   8
  -4   3  -4 21085.9 1005.77   9
   4  -3   4 18416.1 624.295  60
  -4   3  -5 7346.43 384.803  23
  -4   3  -5 6921.82 604.856   9
  -4   3  -5 7022.70 595.151   8
   4  -3   5 7636.49 611.413  13
   4  -3   5 7926.36 340.976  60
  -4   3  -6 8228.45 398.160  23
  -4   3  -6 7748.55 346.881  40
   4  -3   6 7174.46 362.376  64
  -4   3  -7 19175.5 601.185  23
   4  -3   7 18391.2 594.057   6
  -4   3  -8 77.2328 57.7600  23
   4  -3   8 175.093 88.3390   6
  -4   2   9 154.045 74.1205   5
  -4   2   9 150.858 64.4107  65
  -4   2   8 11151.5 448.122  21
  -4   2   8 12278.2 467.858   5
  -4   2   7 11586.1 482.650  21
  -4   2   7 12035.4 494.149  45
  -4   2   6 21528.2 788.531  50
  -4   2   6 23577.0 772.743  49
  -4   2   6 23060.6 814.015  21
  -4   2   6 23540.9 815.984  45
  -4   2   6 21184.4 1197.18   2
  -4   2   6 21316.2 750.903  42
  -4   2   6 19693.7 760.233  57
  -4   2   5 977.965 177.940  50
  -4   2   5 1460.40 194.690  49
  -4   2   5 1208.24 336.076   2
  -4   2   5 1288.29 182.875  45
  -4   2   5 1111.05 190.761  21
  -4   2   5 1279.43 170.389  42
  -4   2   5 933.008 131.768  27
  -4   2   5 1045.72 156.149  37
  -4   2   5 1155.39 177.339  36
  -4   2   5 1225.72 165.976  35
  -4   2   5 1096.30 176.636  57
  -4   2   4 48625.1 1457.21  50
  -4   2   4 47687.6 1370.37  49
  -4   2   4 44091.0 1400.32  45
  -4   2   4 46667.5 1900.79   2
  -4   2   4 44039.6 1406.60  42
  -4   2   4 45742.6 1428.59  37
  -4   2   4 46779.0 1403.78  36
  -4   2   4 46783.3 1392.54  27
  -4   2   4 45085.0 1423.57  57
  -4   2   3 5536.40 449.054   1
  -4   2   3 4666.60 411.164   9
  -4   2   3 5491.24 260.952   4
  -4   2   2 898.968 247.710   9
  -4   2   2 878.995 129.270   4
  -4   2   2 738.012 244.187   1
  -4   2   1 16213.5 497.317   3
  -4   2   1 16413.6 721.359   9
  -4   2   0 32283.0 940.221   3
  -4   2   0 35313.7 1205.96   9
  -4   2   0 32129.8 1102.48   8
  -4   2  -1 4079.41 333.098   8
  -4   2  -2 1320.93 272.664   8
  -4   2  -3 27582.5 1130.35   9
   4  -2   4 5498.63 266.391  18
   4  -2   4 5745.79 252.997  60
  -4   2  -5 871.374 153.967  23
   4  -2   5 809.793 150.320  18
  -4   2  -5 1181.58 317.181   8
   4  -2   5 986.579 310.425  13
   4  -2   5 984.792 148.478  60
  -4   2  -6 53680.3 1611.98  23
  -4   2  -6 57749.9 1997.69   9
  -4   2  -6 58445.4 1958.64   8
   4  -2   6 59035.6 1971.53  13
  -4   2  -7 539.079 138.216  23
   4  -2   7 500.585 122.594  64
   4  -2   8 21925.0 673.709  55
  -4   2  -8 20174.0 685.576  23
   4  -2   8 22161.8 728.274   6
  -4   2  -9 41.6854 79.5468  59
   4  -2   9-31.4735 79.9012   6
  -4   1   9 12803.1 424.302  54
  -4   1   8 2838.90 209.213  45
  -4   1   8 2350.78 191.111  36
  -4   1   7 1043.91 159.460  21
  -4   1   7 1041.91 176.436  45
  -4   1   6 689.489 174.678  53
  -4   1   6 510.863 137.750  50
  -4   1   6 483.318 165.733  49
  -4   1   6 542.982 150.847  21
  -4   1   6 446.742 151.843  45
  -4   1   6 486.054 172.634  35
  -4   1   5 142.379 143.071  53
  -4   1   5 34.9377 120.953  50
  -4   1   5 80.0242 142.494  49
  -4   1   5 151.673 119.404  24
  -4   1   5-6.42259 120.211  21
  -4   1   5 102.119 121.798  45
  -4   1   5 15.8046 88.3266  42
  -4   1   5 115.047 123.528  36
  -4   1   5 21.0145 147.815  35
  -4   1   4 1489.55 233.357   7
  -4   1   4 2319.36 213.169  53
  -4   1   4 1914.36 164.943  24
  -4   1   4 1974.53 189.213  50
  -4   1   4 1825.85 180.037  49
  -4   1   4 2136.62 202.104  21
  -4   1   4 1967.44 186.240  45
  -4   1   4 1596.03 161.691  42
  -4   1   4 2018.45 185.218  36
  -4   1   4 1605.11 168.017  35
  -4   1   4 1723.60 156.830  27
  -4   1   3 57099.7 1775.55   7
  -4   1   2 44263.9 1461.86   9
  -4   1   2 44206.5 1341.65   7
  -4   1   1 46937.2 1505.14   9
  -4   1   0 13336.5 587.120   9
  -4   1   0 12440.5 508.409   8
  -4   1  -1 41920.6 1353.35   9
  -4   1  -1 39411.8 1266.17   8
  -4   1  -2 116526. 3327.37   8
   4  -1   2 118192. 3364.30  12
   4  -1   3 29838.2 1194.15  12
  -4   1  -3 32967.4 1165.21   8
   4  -1   4 2273.39 304.531  13
   4  -1   4 2203.87 160.355  18
   4  -1   4 2550.27 344.205  12
  -4   1  -5 26910.3 854.439  23
   4  -1   5 24731.3 806.349  18
  -4   1  -5 23285.5 806.808  40
  -4   1  -5 28455.3 1108.96   8
   4  -1   5 29985.9 1105.23  13
   4  -1   5 23629.1 758.127  60
   4  -1   5 27640.5 1244.87  12
  -4   1  -6 9870.19 440.430  23
   4  -1   6 10640.3 449.884  18
  -4   1  -6 10443.1 668.209   8
   4  -1   6 9841.62 659.749  13
  -4   1  -7 17767.2 653.907  23
   4  -1   7 17710.0 667.378  18
   4  -1   7 17642.2 947.772  13
  -4   1  -7 18558.7 950.557   8
   4  -1   8 5230.17 276.958  55
  -4   1  -8 5004.96 271.864  23
   4  -1   9 1548.29 143.648  55
   4  -1   9 1591.99 163.555   6
  -4   1 -10 5.85098 48.3051  59
  -4   0   9 660.416 58.5278   5
  -4   0   8 12.4521 102.495  45
  -4   0   8 235.563 108.136  36
  -4   0   8 38.7820 95.9253   5
  -4   0   7 16324.1 625.385  53
  -4   0   7 18281.2 640.997  45
  -4   0   7 16442.2 600.821  36
  -4   0   6 6750.07 377.171  53
  -4   0   6 6610.17 312.560  22
  -4   0   6 6833.21 352.358  21
  -4   0   6 6699.44 371.186  45
  -4   0   6 6125.66 624.840   2
  -4   0   6 6863.67 342.634  35
  -4   0   5 5704.44 310.120  24
  -4   0   5 5471.73 279.325  28
  -4   0   5 5301.57 275.406  22
  -4   0   5 5565.30 317.956  21
  -4   0   5 6121.46 339.550  45
  -4   0   5 5343.98 577.504   2
  -4   0   5 5863.90 303.917  35
  -4   0   5 6126.88 346.412  53
  -4   0   4 20267.2 689.759  53
  -4   0   4 18080.0 629.947  24
  -4   0   4 18117.6 645.033  50
  -4   0   4 18950.5 626.945  49
  -4   0   4 19781.2 672.359  21
  -4   0   4 18563.9 666.470  45
  -4   0   4 16364.8 623.091  42
  -4   0   4 18852.4 647.798  29
  -4   0   4 20271.7 1051.93   2
  -4   0   4 18803.1 639.694  58
  -4   0   4 17734.2 643.623  36
  -4   0   4 17616.7 604.564  35
  -4   0   4 17462.5 600.659  28
  -4   0   3 2685.32 374.893   2
  -4   0   2 25219.3 990.250   1
  -4   0   2 24519.8 740.775   4
  -4   0   2 23144.6 871.527   9
  -4   0   1 6078.85 429.391   1
  -4   0   1 6412.37 367.794   9
  -4   0   1 6589.77 264.322   4
  -4   0   0 70474.4 1923.58   3
  -4   0   0 73662.9 2088.83   9
  -4   0   0 69814.0 1981.29   8
   4   0   1 526.473 111.588  12
  -4   0  -1 989.012 214.539   9
  -4   0  -1 1082.70 184.428   8
   4   0   1 425.061 130.682  13
   4   0   2 38182.8 1226.75  12
   4   0   2 35617.1 1142.90  13
   4   0   3 121.851 155.841  12
   4   0   3 33.7847 180.107  13
   4   0   4 6628.35 429.755  13
   4   0   4 6920.94 507.677  12
   4   0   5 33165.8 1400.71  12
   4   0   5 32382.8 1214.46  13
  -4   0  -6 5367.49 294.227  23
   4   0   6 5601.57 306.407  18
   4   0   6 5695.80 485.578  13
   4   0   6 5610.81 576.800  12
   4   0   7 5384.93 326.666  18
  -4   0  -7 4700.27 498.080   8
   4   0   7 4506.27 504.176  14
  -4   0  -7 4638.27 278.782  23
   4   0   7 5484.78 518.556  13
   4   0   7 4861.54 578.033  12
   4   0   8 9738.97 397.543  55
  -4   0  -8 8234.80 374.225  23
   4   0   8 7636.51 398.132   6
   4   0   8 9037.37 439.005  18
   4   0   9 371.199 131.670  55
   4   0   9 424.054 142.012   6
   4   0  10 3455.82 175.818  55
   4   0  10 3660.33 199.976   6
  -4   0 -10 3293.63 192.910  59
  -4  -1   8 203.771 90.9680  45
  -4  -1   8 164.664 89.1924  36
  -4  -1   8 116.256 80.6366   5
  -4  -1   7 65718.6 1978.22  53
  -4  -1   7 65527.1 1947.70  49
  -4  -1   7 74769.2 2009.79  45
  -4  -1   7 71938.3 1972.14  36
  -4  -1   6 36441.5 1145.76  53
  -4  -1   6 33726.1 1068.18  22
  -4  -1   6 32733.6 1077.32  21
  -4  -1   6 36132.5 1107.55  49
  -4  -1   6 39058.4 1175.73  45
  -4  -1   5 23810.7 816.937  53
  -4  -1   5 22731.4 789.522  24
  -4  -1   5 22443.0 745.318  22
  -4  -1   5 22394.4 750.341  46
  -4  -1   5 21793.1 770.924  21
  -4  -1   5 21453.3 1197.12   2
  -4  -1   5 23300.2 765.046  28
  -4  -1   4 14389.4 512.102  67
  -4  -1   4 14294.6 570.273  53
  -4  -1   4 16569.4 565.297  24
  -4  -1   4 12463.9 497.214  22
  -4  -1   4 15347.2 520.756  46
  -4  -1   4 13252.0 873.547   2
  -4  -1   4 13616.5 546.143  36
  -4  -1   4 15410.2 533.501  28
  -4  -1   4 14804.7 548.245  58
  -4  -1   3 1123.63 284.232   2
  -4  -1   2 5271.24 442.665   2
  -4  -1   1 11488.3 463.246   9
  -4  -1   1 12114.0 592.206   1
  -4  -1   1 11726.6 395.593   4
  -4  -1   0 4625.84 251.493   9
  -4  -1   0 4476.66 324.985   1
  -4  -1  -1 31819.8 943.412   9
   4   1   1 27798.1 843.575  14
   4   1   2 4343.19 250.747  13
   4   1   3 2088.90 240.083  13
   4   1   3 2668.85 302.642  12
   4   1   4 1829.22 254.870  13
   4   1   4 1932.48 310.241  12
   4   1   5 458.068 250.522  12
   4   1   5 363.131 237.668  13
   4   1   6 19488.1 1043.56  12
   4   1   6 16635.6 825.176  13
   4   1   7 37064.0 1651.27  12
   4   1   7 37921.3 1442.00  14
   4   1   7 37265.5 1410.70  13
  -4  -1  -8 4274.14 244.679  23
   4   1   8 4019.35 542.536  12
   4   1   8 4366.39 283.640   6
   4   1   8 4849.76 316.130  18
   4   1   9 2401.09 210.154  55
   4   1   9 2219.49 210.523   6
   4   1   9 2823.57 251.175  18
  -4  -1  -9 2650.88 232.068  59
   4   1  10 135.648 106.199   6
   4   1  10 16.0054 111.770  55
  -4  -1 -10 21.6802 94.1097  59
   4   1  11 2113.51 116.325  53
   4   1  11 3021.85 142.423   6
  -4  -2   8 9346.84 308.970  45
  -4  -2   8 8113.88 289.357  36
  -4  -2   7 78.5632 105.941  53
  -4  -2   7 309.240 144.256  49
  -4  -2   7 210.726 118.372  45
  -4  -2   7 125.375 110.583  36
  -4  -2   6 8458.32 404.947  53
  -4  -2   6 8379.70 361.451  22
  -4  -2   6 9145.85 436.439  45
  -4  -2   6 8776.52 410.102  36
  -4  -2   6 8645.71 400.938  49
  -4  -2   6 9389.51 391.067  35
  -4  -2   5 2034.18 215.450  53
  -4  -2   5 2182.00 184.054  22
  -4  -2   5 1813.08 356.836   2
  -4  -2   5 2375.53 221.240  46
  -4  -2   5 2355.76 235.923  35
  -4  -2   5 2443.98 234.229  49
  -4  -2   4 4653.89 287.600   6
  -4  -2   4 4041.82 275.397  53
  -4  -2   4 4824.05 291.282  49
  -4  -2   4 4544.01 265.101  46
  -4  -2   4 3686.06 485.906   2
  -4  -2   4 4749.46 286.264  67
  -4  -2   4 4899.23 284.215  28
  -4  -2   3 7324.02 595.427   2
  -4  -2   3 7725.53 325.692  16
  -4  -2   3 6594.64 337.538  58
  -4  -2   3 7199.80 324.833  28
  -4  -2   2 2242.33 309.104   2
  -4  -2   2 2190.03 177.493  16
  -4  -2   1 70296.1 2243.76   2
  -4  -2   0 39104.3 1252.51   1
  -4  -2   0 38168.6 1090.76  16
  -4  -2  -1 1912.15 180.685  11
  -4  -2  -1 1688.74 221.208   1
   4   2   2 328729. 8671.64  14
   4   2   3 2950.33 244.567  14
   4   2   4 207.130 103.852   7
   4   2   4 263.189 180.008  14
   4   2   5 1419.31 273.209  14
   4   2   5 1838.03 210.192   7
   4   2   5 1174.58 262.504  13
   4   2   6 86.5574 252.892  12
   4   2   6 168.989 144.736   7
   4   2   6 90.0876 246.277  14
   4   2   6 356.477 257.676  13
   4   2   7 1111.37 347.256  12
   4   2   7 1248.42 149.892  55
  -4  -2  -7 841.295 119.454  23
   4   2   7 801.984 304.806  14
   4   2   8 8130.25 387.611   6
   4   2   8 9482.75 678.751  14
   4   2   8 9473.47 809.459  12
   4   2   9 69.2209 120.082   6
  -4  -2  -9 12.2636 119.835  59
   4   2  10 17856.0 603.479  55
   4   2  10 17001.3 609.990   6
   4   2  10 18194.5 590.081  38
  -4  -2 -10 16842.6 611.147  59
   4   2  11 32.2690 65.6608  53
   4   2  11 50.9817 76.9000   6
  -4  -3   7 2224.34 160.548  45
  -4  -3   7 1954.80 145.506  36
  -4  -3   6 3457.50 235.363  49
  -4  -3   6 2693.57 187.449  22
  -4  -3   6 3330.99 240.381  46
  -4  -3   6 3097.28 235.259  36
  -4  -3   5 4844.61 286.999  53
  -4  -3   5 5582.36 309.045  49
  -4  -3   5 5388.51 279.303  22
  -4  -3   5 5495.28 308.720  46
  -4  -3   5 5271.15 319.656  36
  -4  -3   5 5217.68 290.230  35
  -4  -3   4 48504.0 1502.48  53
  -4  -3   4 47758.8 1514.25  24
  -4  -3   4 54206.5 1512.68  49
  -4  -3   4 50144.4 1478.72  46
  -4  -3   4 52880.9 1498.96  67
  -4  -3   4 43210.3 1865.38   2
  -4  -3   4 56640.6 1489.57  16
  -4  -3   4 46874.3 1457.26  35
  -4  -3   3 43986.4 1342.27   6
  -4  -3   3 43560.9 1355.96  24
  -4  -3   3 45034.3 1354.66  49
  -4  -3   3 45372.0 1335.61  39
  -4  -3   3 44004.2 1330.97  67
  -4  -3   2 57165.1 2149.05   2
  -4  -3   2 67761.0 1836.90  16
  -4  -3   1 33766.5 1244.39   2
  -4  -3   0 2062.39 193.902  11
  -4  -3   0 2845.66 174.916  16
  -4  -3  -1 12193.2 510.061  11
  -4  -3  -1 13934.5 524.103   1
  -4  -3  -1 13271.5 434.298  16
  -4  -3  -2 6873.63 365.635  11
  -4  -3  -2 7233.58 330.934   1
  -4  -3  -3 481465. 12570.5  11
   4   3   3 469916. 12568.7  14
   4   3   4 4670.65 293.156   7
   4   3   4 5494.32 365.556  14
   4   3   5 417.535 210.551  14
   4   3   5 408.694 145.808   7
   4   3   6 62862.8 1990.50  14
   4   3   6 55623.5 1861.16   7
   4   3   7 39441.9 1249.62  55
   4   3   7 50716.2 1701.26  14
   4   3   7 43068.1 1543.25   7
   4   3   7 47844.5 1942.84  12
  -4  -3  -7 44962.4 1343.79  59
   4   3   8 162.242 129.186  55
   4   3   8 142.156 106.042   6
   4   3   8 17.5436 264.667  14
  -4  -3  -8 91.4906 116.687  59
   4   3   9 2334.80 444.728  12
   4   3   9 2880.63 216.476   6
   4   3  10 561.641 129.517   6
   4   3  10 636.624 166.323  18
   4   3  10 594.260 141.336  38
  -4  -3 -10 567.734 116.977  59
   4   3  11 4125.10 205.028   6
   4   3  11 4310.13 239.182  18
  -4  -3 -12 301.989 52.6210  47
  -4  -4   7 285.889 60.6362  45
  -4  -4   7 355.062 55.3341  36
  -4  -4   6 79.0135 111.879  49
  -4  -4   6 59.4512 127.591  46
  -4  -4   6 116.458 100.868  36
  -4  -4   5 2004.85 196.317  49
  -4  -4   5 1789.23 160.226  22
  -4  -4   5 1856.23 201.382  46
  -4  -4   5 1962.38 203.500  36
  -4  -4   5 2037.76 200.255  35
  -4  -4   4 3704.71 262.924  49
  -4  -4   4 3861.79 259.253  46
  -4  -4   4 3934.30 250.815  16
  -4  -4   4 3439.14 250.532  35
  -4  -4   4 3400.36 275.095  67
  -4  -4   3 4982.49 315.223  24
  -4  -4   3 5431.43 328.321  67
  -4  -4   3 5967.72 336.294  49
  -4  -4   3 5101.53 303.803  64
  -4  -4   3 5807.53 322.385  63
  -4  -4   2 492.794 134.257  24
  -4  -4   2 148.135 135.498   2
  -4  -4   2 270.479 122.672  39
  -4  -4   2 445.866 159.009  16
  -4  -4   2 157.829 96.6845  34
  -4  -4   2 415.845 115.120  63
  -4  -4   2 255.248 122.979  28
  -4  -4   1 626.309 159.699   2
  -4  -4   0 385.830 123.275  16
  -4  -4  -1 222.037 110.145  16
  -4  -4  -2 7860.93 295.069  16
  -4  -4  -3 103.486 207.506  11
  -4  -4  -3 232.695 127.485  17
  -4  -4  -4 112356. 2961.11  17
   4   4   4 106478. 3213.63  14
  -4  -4  -5 34737.4 1172.82  11
   4   4   5 31633.8 1173.45   7
   4   4   5 33083.4 1215.27  14
   4   4   6 24855.3 1029.92  14
   4   4   6 22999.4 963.808   7
   4   4   7 31734.1 986.775  55
   4   4   7 35531.4 1377.81  14
  -4  -4  -7 32395.7 1039.24  59
   4   4   7 32308.9 1278.77   7
   4   4   8 8563.87 378.950  55
   4   4   8 7549.65 582.383   7
  -4  -4  -8 8504.42 407.570  59
   4   4   9 310.147 274.847  12
   4   4   9 209.692 143.897  55
   4   4   9 156.826 143.972  38
  -4  -4  -9 249.696 113.917  59
   4   4  10 2701.73 186.617   6
   4   4  10 3329.17 245.003  18
   4   4  10 3085.67 239.842  38
   4   4  11 73.9705 76.3961   6
   4   4  11 114.530 119.155  18
   4   4  11 190.964 111.307  38
  -4  -4 -12 60.5971 51.7942  47
   4   4  12 53.5662 57.0775  21
  -4  -5   6 12184.4 421.878  45
  -4  -5   6 12977.6 411.298  36
  -4  -5   5 8281.77 335.028  49
  -4  -5   5 9181.77 365.512  46
  -4  -5   5 8518.23 366.070  36
  -4  -5   4 4548.80 273.986  49
  -4  -5   4 4940.61 289.004  46
  -4  -5   4 5324.07 281.157  16
  -4  -5   3-5.83641 141.729  24
  -4  -5   3 106.833 164.129  49
  -4  -5   3 82.8918 167.171  16
  -4  -5   3 3.82189 158.396  35
  -4  -5   3 5.98064 111.929  64
  -4  -5   3-6.14574 121.343  63
  -4  -5   2 2167.35 203.836  24
  -4  -5   2 2156.24 188.656  64
  -4  -5   2 2286.66 206.785  63
  -4  -5   1 53988.1 1517.14  24
  -4  -5   1 49854.0 1522.25  44
  -4  -5   1 53845.1 1517.12  39
  -4  -5   1 54914.5 1554.22  63
  -4  -5   1 50480.3 1521.36  34
  -4  -5   1 49222.4 1518.42  28
  -4  -5   0 5704.91 287.279  16
  -4  -5  -1 3035.67 198.033  16
   4   5   2 10.9230 111.871  10
  -4  -5  -2 92.0942 123.566  17
  -4  -5  -2 67.6622 102.740  16
  -4  -5  -3 16454.5 511.688  17
  -4  -5  -3 16014.6 516.895  16
  -4  -5  -4 10870.8 387.476  17
  -4  -5  -5 205920. 5710.96  11
  -4  -5  -6 90455.8 2658.35  11
   4   5   6 87585.8 2749.28  14
   4   5   6 84658.2 2726.59   7
   4   5   7 31843.6 1008.10  55
   4   5   7 32871.7 1328.55   7
   4   5   7 34140.8 1073.79  38
   4   5   7 36583.0 1398.82  14
  -4  -5  -7 33622.0 1048.07  59
   4   5   8 10536.5 711.990   7
  -4  -5  -8 11389.8 474.576  59
   4   5   9 2059.37 441.285  12
   4   5   9 1870.49 325.679   7
   4   5   9 2737.76 240.750  38
   4   5   9 2251.09 418.455  14
   4   5  10 13780.4 551.326  38
  -4  -5 -11 12542.6 476.903  47
   4   5  11 12343.4 455.251  18
   4   5  11 12625.1 472.895  38
  -4  -5 -12 41.0787 51.8465  47
   4   5  12-18.9263 50.5387  21
  -4  -6   5 3714.42 195.781  46
  -4  -6   5 4004.22 193.484  36
  -4  -6   4 24204.5 728.569  49
  -4  -6   4 23918.3 750.781  46
  -4  -6   4 22082.2 728.708  16
  -4  -6   3 153.597 147.407  49
  -4  -6   3 98.7123 158.025  16
  -4  -6   3 56.4288 136.427  35
  -4  -6   3 87.5520 126.958  63
  -4  -6   2 37655.4 1223.69  64
  -4  -6   2 43674.1 1282.77  63
  -4  -6   1 5032.39 278.021  24
  -4  -6   1 5155.31 295.793  39
  -4  -6   1 4505.79 265.960  34
  -4  -6   1 5135.17 304.568  63
  -4  -6   0 47266.3 1451.32  44
  -4  -6   0 47172.7 1429.00  39
  -4  -6   0 46149.5 1429.00  34
  -4  -6  -1 65612.3 1872.39  44
  -4  -6  -1 65738.5 1781.77  17
  -4  -6  -1 70793.5 1871.12  16
   4   6   2 8309.23 569.380  10
  -4  -6  -2 9085.71 349.978  17
   4   6   3 30151.6 1258.74  10
  -4  -6  -3 29779.5 891.909  17
  -4  -6  -3 32115.3 911.897  16
   4   6   4 3921.20 412.697  10
  -4  -6  -4 3523.32 222.893  17
  -4  -6  -5 8900.43 552.894  11
  -4  -6  -6 41342.2 1311.97  47
   4   6   6 41142.5 1299.03  38
  -4  -6  -6 44403.8 1237.81  17
   4   6   6 40938.7 1600.58   7
  -4  -6  -7 3209.53 349.806  11
  -4  -6  -7 2648.16 223.170  47
   4   6   7 3231.68 252.904  38
   4   6   7 2565.58 357.977   7
  -4  -6  -8 87273.1 2437.03  47
   4   6   8 85048.5 2432.70  38
   4   6   9 644.303 236.815   7
  -4  -6  -9 971.480 169.322  47
   4   6   9 480.712 306.230  12
  -4  -6 -10 9522.26 424.778  47
   4   6  10 8942.64 421.409  38
   4   6  10 8492.41 390.719  30
  -4  -6 -11 151.811 89.4902  47
   4   6  11 147.754 102.627  18
   4   6  11 220.821 131.973  38
   4   6  12 12.2074 76.6767  57
  -4  -7   4 18300.0 577.017  36
  -4  -7   3 4230.01 229.330  49
  -4  -7   3 4408.12 251.200  16
  -4  -7   3 4736.66 291.137  67
  -4  -7   2 7994.97 367.976  49
  -4  -7   2 8028.86 398.963  67
  -4  -7   2 7833.19 390.571  63
  -4  -7   1 25960.8 887.106  39
  -4  -7   1 28060.6 935.947  63
  -4  -7   0 6861.74 354.073  44
  -4  -7   0 6846.03 339.582  39
  -4  -7   0 6112.09 343.853  16
  -4  -7  -1 1917.44 174.943  17
  -4  -7  -1 2090.60 192.605  39
  -4  -7  -1 2380.63 227.976  16
  -4  -7  -1 2003.83 163.706  32
  -4  -7  -2 437.387 115.455  26
  -4  -7  -2 464.692 167.991  17
  -4  -7  -2 639.471 165.772  16
  -4  -7  -2 497.256 100.542  32
  -4  -7  -3 12002.4 470.379  26
   4   7   3 12998.1 799.079  10
  -4  -7  -3 13874.8 472.695  17
  -4  -7  -3 13000.8 469.958  16
  -4  -7  -3 13394.2 511.879  33
   4   7   4 14897.0 873.178  10
  -4  -7  -4 13859.2 495.561  17
  -4  -7  -4 14354.1 551.913  33
  -4  -7  -5 130.822 115.077  44
   4   7   5 202.060 121.501  38
  -4  -7  -5 163.785 116.841  33
  -4  -7  -6 7648.80 374.260  47
  -4  -7  -6 8735.57 562.139  11
   4   7   6 7272.61 368.636  38
   4   7   6 7751.50 615.934   7
  -4  -7  -7 1895.50 307.163  11
  -4  -7  -7 1719.65 185.192  47
   4   7   7 1416.65 317.943   7
   4   7   7 1755.79 212.922  38
  -4  -7  -7 1937.29 224.867  17
  -4  -7  -8 5715.09 319.052  47
   4   7   8 6066.04 360.124  38
  -4  -7  -9 3602.25 251.113  47
  -4  -7 -10 506.061 123.305  47
   4   7  10 607.244 145.795  30
  -4  -7 -11 2475.68 159.086  47
   4   7  11 2946.68 207.050  57
   4   7  12 312.252 74.5179  57
  -4  -8   2 13669.3 458.159  49
  -4  -8   2 13411.8 503.301  67
  -4  -8   2 14655.0 520.307  63
  -4  -8   1 4143.92 266.979  16
  -4  -8   1 3804.48 284.301  67
  -4  -8   1 3872.11 265.175  63
  -4  -8   0 510.241 152.974  39
  -4  -8   0 445.538 171.777  16
   4   8   0 566.460 146.266  61
  -4  -8  -1 8120.59 362.167  39
  -4  -8  -1 7442.22 366.150  16
  -4  -8  -2 16720.5 589.977  39
  -4  -8  -2 16480.9 553.602  17
  -4  -8  -2 17776.5 606.059  16
   4   8   3 21.7126 158.707  10
  -4  -8  -3 3.10183 181.539  17
  -4  -8  -3-15.9660 126.801  16
  -4  -8  -3 17.5928 90.5076  32
   4   8   4 4550.06 527.303  10
  -4  -8  -4 5562.15 319.655  44
  -4  -8  -4 5542.58 299.610  17
  -4  -8  -4 4759.09 281.591  33
   4   8   4 4747.51 314.954  30
  -4  -8  -5 3365.48 262.828  44
  -4  -8  -5 3341.83 237.222  33
   4   8   5 3388.28 277.098  30
  -4  -8  -6 14361.0 779.843  11
  -4  -8  -6 14759.7 595.659  44
   4   8   6 14185.8 564.299  38
   4   8   6 12762.0 867.804   7
  -4  -8  -6 14138.0 551.737  33
   4   8   6 13269.6 604.973  30
  -4  -8  -7 20922.4 959.239  11
   4   8   7 21382.7 776.331  38
  -4  -8  -7 22201.8 712.031  17
   4   8   7 18519.3 1075.89   7
  -4  -8  -7 20479.2 736.480  33
   4   8   7 21754.7 821.971  30
  -4  -8  -8 2203.63 300.593  11
   4   8   8 2017.38 354.888   7
   4   8   9 696.658 176.941  30
  -4  -8  -9 589.569 125.527  47
   4   8   9 739.122 201.142  38
   4   8  10 6399.13 321.817  30
   4   8  10 5363.48 280.565  57
  -4  -8 -11 44.8684 67.9669  33
   4   8  11 58.9311 82.9089  57
  -4  -8 -12 27.4869 57.2935  44
  -4  -9   1 965.609 129.086  16
  -4  -9   1 1204.99 167.944  67
  -4  -9   1 1055.25 132.829  63
  -4  -9   0 708.232 148.863  16
  -4  -9   0 1035.47 192.703  67
  -4  -9   0 945.971 152.423  63
   4   9   0 836.808 132.945  61
  -4  -9  -1 1676.16 192.406  16
   4   9   1 1997.94 220.194  61
  -4  -9  -2 46.6737 132.842  44
  -4  -9  -2 28.0754 108.964  39
  -4  -9  -2-12.7314 144.701  17
  -4  -9  -2 38.4882 145.625  16
   4   9   2-123.849 155.083  61
  -4  -9  -3 153.042 128.819  44
  -4  -9  -3 68.7008 102.867  39
  -4  -9  -3 33.1875 170.670  17
  -4  -9  -3-15.4727 127.389  16
  -4  -9  -3 58.2898 99.7415  32
  -4  -9  -4 2219.19 214.808  44
  -4  -9  -4 2370.00 232.082  17
  -4  -9  -4 2131.84 179.444  32
   4   9   4 2009.81 207.312  30
  -4  -9  -5 8216.21 406.215  44
  -4  -9  -5 8079.76 370.844  17
   4   9   5 7484.02 409.117  30
  -4  -9  -6 8753.63 619.806  11
  -4  -9  -6 11344.9 483.878  44
   4   9   6 7727.20 714.616   7
  -4  -9  -6 10216.7 414.476  33
   4   9   6 10551.9 501.307  30
  -4  -9  -7 3701.22 265.472  44
   4   9   7 3732.30 302.899  30
  -4  -9  -8 25328.6 817.137  44
  -4  -9  -8 21524.6 732.976  33
  -4  -9  -9 1440.49 176.435  44
  -4  -9  -9 1232.51 127.037  33
   4   9  10 933.079 147.302  30
  -4  -9 -10 942.463 143.270  44
  -4  -9 -11 449.728 94.6128  44
  -4 -10   1 432.251 59.4383  46
  -4 -10   0 5575.40 223.600  67
  -4 -10   0 5368.89 230.861  63
  -4 -10  -1 428.758 120.205  16
  -4 -10  -1 534.644 150.544  67
  -4 -10  -1 680.773 128.900  63
   4  10   1 610.674 125.733  61
  -4 -10  -2 3475.78 215.013  16
   4  10   2 4611.20 287.778  61
  -4 -10  -3 2689.67 220.366  44
  -4 -10  -3 2600.75 199.574  17
   4  10   3 2667.33 247.315  61
  -4 -10  -4 5445.78 301.621  44
  -4 -10  -4 5230.78 275.746  17
  -4 -10  -4 4875.40 261.954  32
   4  10   4 4695.83 324.317  61
  -4 -10  -5 22578.7 771.587  44
  -4 -10  -5 22558.9 709.757  17
  -4 -10  -5 22862.4 739.743  32
   4  10   5 20959.4 763.888  30
  -4 -10  -6 15532.6 587.343  44
  -4 -10  -6 16761.3 576.711  32
   4  10   6 14917.8 607.298  30
   4  10   7 12440.3 531.634  30
  -4 -10  -7 12108.3 483.512  44
   4  10   8 8665.50 426.366  30
  -4 -10  -8 8382.61 367.636  44
  -4 -10  -9 122.198 96.7328  44
  -4 -10 -10 79.2226 78.8208  44
   4  10  10 48.7916 93.9346  30
  -4 -10 -11 74.8827 44.9955  44
   4  10  11 129.739 49.1057  37
  -4 -11  -1 1977.57 105.282  63
  -4 -11  -2 4391.56 192.513  63
   4  11   2 4022.07 192.780  61
  -4 -11  -3 851.692 120.527  67
   4  11   3 1136.78 151.185  61
  -4 -11  -4 9049.48 361.417  44
  -4 -11  -4 8836.45 322.055  17
   4  11   4 9129.48 399.358  61
  -4 -11  -5 8810.10 347.728  44
  -4 -11  -5 9199.20 326.154  17
  -4 -11  -5 8312.96 327.004  32
  -4 -11  -6 81.6690 88.8809  32
  -4 -11  -6 70.0834 86.5203  44
   4  11   6 11.7209 98.9366  30
   4  11   6 30.1252 124.763  61
  -4 -11  -7 696.255 109.553  32
  -4 -11  -7 598.713 102.896  44
   4  11   7 726.355 136.104  30
   4  11   7 791.280 139.348  61
  -4 -11  -8 5548.42 248.526  44
  -4 -11  -8 6175.83 258.973  32
  -4 -11  -9 58.0380 59.9471  44
   4  11   9 69.5706 94.5286  30
  -4 -11  -9 123.811 70.6000  32
  -4 -11 -10 74.2374 33.8251  44
  -4 -11 -10 139.880 53.8955  32
   4  11  10 172.069 70.2014  30
   4  12   4 179.871 45.6863  52
  -4 -12  -4 232.392 53.3781  63
   4  12   4 310.768 65.3846  61
   4  12   5 459.059 72.0396  52
   4  12   6 3257.57 174.131  61
  -4 -12  -7 647.176 59.0506  44
   4  12   7 764.404 81.1302  52
  -4 -12  -7 686.734 68.5782  32
   4  12   7 782.504 82.9792  61
  -4 -12  -8 1226.97 76.6943  32
   4  12   8 1548.90 100.202  30
  -5   8   5 12257.5 369.875  66
  -5   8   4 24.5792 50.0423  20
  -5   8   4 3.20189 39.9076  66
  -5   8   3 2392.71 142.238  27
  -5   8   2 4011.90 184.431  20
  -5   8   2 3313.01 170.420  27
  -5   8   1 1023.58 93.7900  20
  -5   8   1 838.765 77.3279  27
  -5   8   0 206.845 40.1017  20
  -5   8   0 151.718 39.7729  40
  -5   7   6 2104.52 118.679  51
  -5   7   6 2383.20 139.748  42
  -5   7   5 3123.62 187.839  56
  -5   7   5 2701.91 152.412  51
  -5   7   5 2995.49 181.173  42
  -5   7   5 3416.37 180.088  27
  -5   7   4 15796.4 530.300  20
  -5   7   4 15818.1 544.549  42
  -5   7   3 1396.78 164.298  56
  -5   7   3 1372.75 136.010  42
  -5   7   2 13842.7 497.503  66
  -5   7   2 15125.7 550.130  56
  -5   7   2 13988.5 526.219  27
  -5   7   1 27761.7 843.621  40
  -5   7   1 27514.4 872.375  27
  -5   7   0 33888.6 1034.98  40
  -5   7   0 32681.9 1018.06  27
  -5   7  -1 27.9551 69.7087  20
  -5   7  -1 142.354 86.0058  40
   5  -7   2 1038.79 92.4629  64
  -5   7  -3 964.692 74.1629  40
  -5   6   7 7256.14 282.854  51
  -5   6   7 7430.08 280.843  65
  -5   6   6 7725.52 327.975  51
  -5   6   6 7643.47 327.219  65
  -5   6   6 7753.57 308.390  56
  -5   6   5 645.877 126.700  56
  -5   6   5 734.642 141.662  42
  -5   6   5 590.224 117.690  27
  -5   6   5 704.178 130.865  65
  -5   6   5 567.965 120.993  51
  -5   6   4 9660.65 442.490  56
  -5   6   4 10822.1 431.428  51
  -5   6   4 9213.35 431.611  42
  -5   6   4 10640.8 448.919  27
  -5   6   3 3989.36 242.816  51
  -5   6   3 4034.65 263.142  42
  -5   6   2 3483.31 264.369  56
  -5   6   2 3115.96 219.832  42
  -5   6   2 2563.62 183.572  40
  -5   6   2 2935.66 180.589   4
  -5   6   2 3328.26 247.889  27
  -5   6   1 19697.4 714.547  56
  -5   6   1 18831.2 661.153  40
  -5   6   1 19087.7 674.871  66
  -5   6   1 18038.8 587.284   4
  -5   6   0 3815.70 256.420  40
  -5   6   0 3664.59 197.676   4
  -5   6   0 3142.59 231.454  27
  -5   6  -1 374.596 105.397  27
  -5   6  -1 428.044 121.628  20
  -5   6  -1 354.746 143.568  40
  -5   6  -2 429.243 96.1821  23
  -5   6  -2 278.756 90.5994  20
   5  -6   2 207.952 97.7800  19
  -5   6  -3 127.891 81.7557  23
   5  -6   3 17.8340 91.1627  19
  -5   6  -3 95.8598 100.550  40
  -5   6  -4 5142.28 214.503  23
  -5   6  -4 4631.66 213.073  40
  -5   5   8 1641.00 101.814  51
  -5   5   8 1667.71 109.006  65
  -5   5   7 13503.4 484.826  65
  -5   5   7 13419.9 481.366  51
  -5   5   6 1533.76 167.904  51
  -5   5   6 1644.73 171.518  42
  -5   5   6 1233.90 168.716  65
  -5   5   5 181.252 110.723  27
  -5   5   5 109.220 110.883  56
  -5   5   5 234.657 135.925  51
  -5   5   5 201.709 134.935  65
  -5   5   4 895.820 168.389  56
  -5   5   4 951.506 173.260  51
  -5   5   4 1120.33 177.001  42
  -5   5   4 794.438 159.693  27
  -5   5   4 902.205 171.160  65
  -5   5   4 659.544 123.054  58
  -5   5   3 7122.39 385.443  65
  -5   5   3 6576.12 364.655  51
  -5   5   3 7609.18 400.697  56
  -5   5   3 7408.24 384.246  42
  -5   5   3 6625.80 310.021   4
  -5   5   2 37309.1 1154.62  52
  -5   5   2 38778.6 1153.74  42
  -5   5   2 34364.6 1118.17  51
  -5   5   2 33123.4 1424.49   9
  -5   5   2 32822.2 1072.83  40
  -5   5   2 33320.0 1360.64   1
  -5   5   2 34845.3 1044.86   4
  -5   5   1 75817.4 2112.32  56
  -5   5   1 68163.1 2313.79   1
  -5   5   1 66869.7 2027.89  42
  -5   5   1 67971.3 2042.62  40
  -5   5   1 72837.9 1976.72   4
  -5   5   0 11602.8 523.983  56
  -5   5   0 11913.7 527.432  52
  -5   5   0 8941.77 649.471   1
  -5   5   0 11496.1 422.535   3
  -5   5   0 9266.71 700.559   9
  -5   5   0 11988.7 509.645  40
  -5   5   0 11058.5 483.307  66
  -5   5  -1 1272.40 146.932  23
  -5   5  -1 1466.78 162.635   3
  -5   5  -1 1735.00 198.209  40
  -5   5  -2 15.4857 97.4203  23
  -5   5  -2 31.1431 125.221   3
  -5   5  -2-10.5546 104.723  20
  -5   5  -3 7426.16 296.883   3
  -5   5  -3 7322.25 350.474  23
  -5   5  -3 6449.79 300.882  20
  -5   5  -3 7328.14 376.450  40
  -5   5  -4 6182.55 253.996   3
  -5   5  -4 7137.48 328.589  23
  -5   5  -4 6873.09 332.422  40
   5  -5   4 6034.68 288.418  64
   5  -5   5 224.224 93.6212  19
  -5   5  -5 351.568 85.5086  40
  -5   5  -6 28.2702 46.0785  23
  -5   4   8 296.871 66.2794  51
  -5   4   7 23781.4 756.403  51
  -5   4   7 22951.7 720.581  41
  -5   4   7 22145.7 730.375   5
  -5   4   6 12721.3 534.602  54
  -5   4   6 11444.3 485.243  42
  -5   4   6 11340.6 471.163   5
  -5   4   6 11730.1 510.822  65
  -5   4   5 2113.13 193.316  56
  -5   4   5 2106.61 239.945  54
  -5   4   5 1808.01 213.128  51
  -5   4   5 2060.81 217.588  42
  -5   4   5 2188.56 208.733   5
  -5   4   5 1863.58 181.653  27
  -5   4   5 2313.90 236.635  65
  -5   4   4 5440.47 322.126  56
  -5   4   4 4777.46 346.537  54
  -5   4   4 5001.88 325.231  51
  -5   4   4 4594.04 267.946  20
  -5   4   4 5386.98 315.453   5
  -5   4   4 5346.02 350.604  65
  -5   4   4 4650.97 268.248  58
  -5   4   4 5221.49 320.442  27
  -5   4   3 21645.2 819.377  56
  -5   4   3 22609.5 811.758  51
  -5   4   3 21554.4 1038.63   1
  -5   4   3 22334.8 824.525  42
  -5   4   3 19505.3 1033.43   9
  -5   4   3 22709.6 842.002  65
  -5   4   3 21973.3 725.604   4
  -5   4   3 23791.9 833.608  27
  -5   4   2 412.807 148.394  25
  -5   4   2 779.371 286.157   1
  -5   4   2 364.057 140.521  51
  -5   4   2 262.252 157.907  65
  -5   4   2 424.024 155.714  42
  -5   4   2 444.137 111.456  40
  -5   4   2 576.169 277.249   9
  -5   4   2 985.292 171.882   4
  -5   4   1 45232.7 1466.61  56
  -5   4   1 46044.8 1467.24  52
  -5   4   1 46406.3 1722.23   1
  -5   4   1 47298.5 1768.41   9
  -5   4   1 50479.6 1457.07  42
  -5   4   1 46593.5 1438.71  40
  -5   4   1 45969.8 1436.23  51
  -5   4   1 47498.5 1474.33  65
  -5   4   0 4499.17 313.404  56
  -5   4   0 4961.03 265.696   3
  -5   4   0 4007.38 260.973  42
  -5   4   0 5082.21 310.452  40
  -5   4   0 4518.96 475.779   1
  -5   4  -1 13359.9 568.310  56
  -5   4  -1 12684.0 559.190  52
  -5   4  -1 13693.5 480.177   3
  -5   4  -1 12484.8 504.019  23
  -5   4  -1 12409.8 772.442   9
  -5   4  -1 12756.3 559.009  40
  -5   4  -1 11732.7 761.107   1
  -5   4  -1 12628.0 528.394  66
  -5   4  -2 13995.5 477.437   3
  -5   4  -2 11616.0 500.752  23
  -5   4  -2 12974.6 807.597   9
  -5   4  -2 11977.6 772.268   8
  -5   4  -2 11012.9 470.750  27
  -5   4  -3 7875.89 401.913  23
  -5   4  -3 8576.66 668.532   9
  -5   4  -3 9331.30 393.780  20
  -5   4  -3 8034.76 422.744  40
  -5   4  -3 8095.21 659.782   8
  -5   4  -4 51103.4 1527.02  23
  -5   4  -4 51066.0 1532.91  40
   5  -4   4 49463.8 1407.83  60
  -5   4  -5 901.055 143.265  40
   5  -4   5 549.378 111.728  64
   5  -4   6 13340.5 484.993   6
  -5   4  -6 13529.4 454.416  40
  -5   4  -6 14450.4 506.260  59
  -5   4  -7 7096.09 237.790  23
   5  -4   7 7401.45 225.256   6
  -5   4  -7 7024.14 237.033  59
  -5   3   8 2297.48 146.716   5
  -5   3   8 2520.38 159.782  65
  -5   3   7 2202.17 185.287  51
  -5   3   7 2200.11 187.621   5
  -5   3   7 2325.66 205.833  65
  -5   3   6 8722.40 409.171  42
  -5   3   6 8927.83 421.962   5
  -5   3   5 1692.14 171.884  56
  -5   3   5 1968.64 217.425  42
  -5   3   5 1831.52 212.066   5
  -5   3   5 1738.79 176.336  27
  -5   3   4 5060.84 316.048  56
  -5   3   4 6001.54 358.078  42
  -5   3   4 5792.14 353.183  37
  -5   3   4 6118.28 358.705   5
  -5   3   4 6397.67 394.978  65
  -5   3   4 5704.16 300.153  58
  -5   3   4 5894.92 343.893  27
  -5   3   3 556.903 146.208  27
  -5   3   3 504.673 139.088  56
  -5   3   3 402.015 246.490   9
  -5   3   3 576.479 274.408   1
  -5   3   3 580.272 155.103   5
  -5   3   3 591.820 168.098  65
  -5   3   3 576.959 151.901   4
  -5   3   2 10517.6 503.775  56
  -5   3   2 10517.4 484.170  51
  -5   3   2 10241.1 676.585   9
  -5   3   2 10329.0 495.391  42
  -5   3   2 12013.5 726.473   1
  -5   3   2 10393.5 477.358   5
  -5   3   2 11258.0 518.192  65
  -5   3   2 12176.1 445.202   4
  -5   3   1 172067. 4305.17  52
  -5   3   1 160198. 4609.67   1
  -5   3   1 150238. 4178.21   3
  -5   3   1 150827. 4585.20   9
  -5   3   1 169631. 4308.25  42
  -5   3   1 151147. 4254.94  40
  -5   3   1 155069. 4307.77  65
  -5   3   1 149430. 4275.03  51
  -5   3   0 20211.7 743.657  56
  -5   3   0 18598.7 694.517  51
  -5   3   0 19882.8 645.594   3
  -5   3   0 20488.7 960.153   9
  -5   3   0 20107.5 703.972  42
  -5   3   0 19513.5 719.864  40
  -5   3   0 20128.9 958.422   1
  -5   3  -1 2646.87 234.738  56
  -5   3  -1 2678.18 213.241   3
  -5   3  -1 2946.78 237.323  52
  -5   3  -1 2179.99 188.012  23
  -5   3  -1 2604.71 226.293  40
  -5   3  -1 2263.51 397.384   1
  -5   3  -1 2288.44 340.477   8
  -5   3  -2 60976.4 1827.63  27
  -5   3  -2 62851.2 1856.81  23
  -5   3  -2 66853.7 2139.96   8
  -5   3  -2 65286.5 1859.49  66
  -5   3  -3 846.855 170.108  23
  -5   3  -3 701.520 132.424  20
  -5   3  -3 667.036 275.391   9
  -5   3  -3 823.547 171.543  40
  -5   3  -3 1152.91 314.459   8
  -5   3  -4 37015.5 1245.23  23
  -5   3  -4 41773.2 1591.10   9
  -5   3  -4 39459.0 1254.08  40
   5  -3   4 38338.7 1491.66  13
  -5   3  -5 1732.62 191.438  40
  -5   3  -6 182.500 119.305  23
  -5   3  -6 99.4206 93.4741  40
  -5   3  -7 139.349 94.8023  23
   5  -3   7 179.784 108.183   6
   5  -3   8 62.5029 53.6714  55
  -5   3  -8 43.9572 43.7147  23
   5  -3   8 96.0849 63.6379   6
  -5   3  -8 7.63009 66.6599  59
  -5   2   8 1833.05 134.290  65
  -5   2   8 1578.34 130.394   5
  -5   2   8 1767.46 143.113  54
  -5   2   7 486.500 144.497  54
  -5   2   7 787.144 145.762  65
  -5   2   7 562.050 116.707  51
  -5   2   6 361.774 162.926  54
  -5   2   6 180.601 128.484  51
  -5   2   6 24.9345 97.2755  41
  -5   2   6 231.399 150.264  36
  -5   2   6 118.942 135.722   5
  -5   2   5 18589.5 724.835  54
  -5   2   5 18229.5 671.711  36
  -5   2   5 18626.2 694.600   5
  -5   2   4 2651.59 211.051  56
  -5   2   4 3843.60 305.206  54
  -5   2   4 3535.20 242.650  49
  -5   2   4 3174.25 221.844  58
  -5   2   4 3828.55 269.125  42
  -5   2   4 3462.35 251.219  36
  -5   2   4 3642.18 272.683   5
  -5   2   4 3543.58 243.955  27
  -5   2   3 18061.5 693.525  56
  -5   2   3 21707.2 782.712  54
  -5   2   3 21711.8 721.844  58
  -5   2   3 16751.0 653.572  20
  -5   2   3 19154.9 964.476   1
  -5   2   3 19520.9 730.553  42
  -5   2   3 17981.1 898.086   9
  -5   2   3 21202.2 751.629  37
  -5   2   3 19700.3 686.774  36
  -5   2   3 22018.3 753.355   5
  -5   2   3 19732.0 663.094   4
  -5   2   3 21105.9 727.812  27
  -5   2   2 1151.74 161.928  56
  -5   2   2 1488.87 191.308  54
  -5   2   2 1086.95 165.538  51
  -5   2   2 1116.33 304.876   1
  -5   2   2 1102.24 136.285  48
  -5   2   2 1438.66 180.255  42
  -5   2   2 1187.35 283.788   9
  -5   2   2 1184.95 171.612   5
  -5   2   2 1199.03 186.452  65
  -5   2   2 1433.56 169.632   4
  -5   2   2 1306.71 162.023  27
  -5   2   1 61098.5 1722.59  56
  -5   2   1 56353.6 1723.83  54
  -5   2   1 57968.8 1953.23   1
  -5   2   1 56966.3 1697.63  51
  -5   2   1 52310.9 1595.64   3
  -5   2   1 55134.0 1902.71   9
  -5   2   1 63770.7 1718.91  42
  -5   2   1 52147.3 1670.69   5
  -5   2   1 58618.8 1725.26  65
  -5   2   1 64194.4 1717.55  27
  -5   2   0 9165.69 410.466  27
  -5   2   0 8740.11 354.062   3
  -5   2   0 9784.74 582.811   9
  -5   2   0 9670.15 430.579  65
  -5   2   0 9395.43 597.357   1
  -5   2  -1 1583.18 193.720  56
  -5   2  -1 2014.62 194.672   3
  -5   2  -1 2728.68 366.807   9
  -5   2  -1 1477.62 181.382  40
  -5   2  -1 2450.82 313.979   8
  -5   2  -2 44001.6 1318.20  56
  -5   2  -2 39050.4 1268.46  23
  -5   2  -2 46262.3 1589.75   9
  -5   2  -2 40201.7 1288.71  66
  -5   2  -2 46330.2 1511.81   8
  -5   2  -3 3428.37 268.152  23
  -5   2  -3 3300.18 248.992  20
  -5   2  -3 4109.14 287.113  40
  -5   2  -3 3466.21 242.088  66
   5  -2   3 4359.27 453.488  13
  -5   2  -4 4211.50 467.927   9
  -5   2  -4 3793.23 239.311  20
  -5   2  -4 4550.99 293.167  40
  -5   2  -4 4489.84 481.801   8
   5  -2   4 3941.72 423.987  13
  -5   2  -5 30440.8 1340.04   9
  -5   2  -5 31806.1 1035.77  40
   5  -2   5 30586.8 1280.64  13
  -5   2  -6 102.615 120.034  23
  -5   2  -6 15.5785 95.8097  40
  -5   2  -7 535.169 133.270  23
   5  -2   8 811.647 120.609  55
  -5   2  -8 879.477 111.715  23
   5  -2   9 583.838 62.3150  55
  -5   2  -9 911.234 89.3416  59
  -5   1   8 180.593 82.0605  54
  -5   1   7 41136.9 1271.12  54
  -5   1   7 42152.7 1252.76  65
  -5   1   6 1805.62 182.185  51
  -5   1   6 1668.22 216.044  49
  -5   1   6 1809.90 193.404  45
  -5   1   6 1740.53 202.135  36
  -5   1   5 94293.9 2569.63  51
  -5   1   5 94610.1 2511.39  49
  -5   1   5 87692.2 2552.39  21
  -5   1   5 91117.6 2545.02  45
  -5   1   5 91024.6 2545.68  36
  -5   1   5 95573.5 2458.37  35
  -5   1   5 89588.5 2502.16  29
  -5   1   5 90022.3 2455.87  28
  -5   1   4 35338.9 1093.07  24
  -5   1   4 39150.2 1123.98  49
  -5   1   4 37377.1 1181.93  21
  -5   1   4 34672.0 1131.83  45
  -5   1   4 31707.0 1141.72  42
  -5   1   4 40028.9 1161.16  36
  -5   1   4 39366.7 1070.57  35
  -5   1   4 35072.8 1125.25  58
  -5   1   4 34533.0 1073.70  28
  -5   1   3 126248. 3353.74  54
  -5   1   3 112179. 3199.06  24
  -5   1   3 118737. 3219.08  49
  -5   1   3 108759. 3278.95  42
  -5   1   3 119782. 3250.78  36
  -5   1   3 122615. 3281.06  27
  -5   1   3 125838. 3279.47  58
  -5   1   2 65414.1 1898.28  54
  -5   1   2 61212.8 1884.58  65
  -5   1   2 67425.1 1871.03  58
  -5   1   2 65341.4 1859.49  27
  -5   1   1 502.253 202.772   9
  -5   1   0 16499.4 714.172   9
  -5   1   0 13327.2 574.620   8
  -5   1  -1 7907.60 495.348   9
  -5   1  -1 6651.64 420.460   8
  -5   1  -2 1028.60 254.391   9
  -5   1  -2 1082.70 232.004   8
  -5   1  -3 28501.2 1146.73   9
  -5   1  -3 29056.4 1094.45   8
   5  -1   3 29378.5 1048.06  13
   5  -1   4 603.957 232.047  12
  -5   1  -4 802.733 120.922  20
  -5   1  -4 747.712 138.630  40
  -5   1  -4 789.962 273.343   8
   5  -1   4 689.851 240.475  13
  -5   1  -5 73814.2 2108.96  23
  -5   1  -5 74725.4 2086.32  40
   5  -1   5 78564.9 2367.61  13
   5  -1   5 74130.4 2559.17  12
   5  -1   6 49591.0 2084.69  12
  -5   1  -6 53149.0 1650.24  23
   5  -1   6 52090.8 1587.39  18
  -5   1  -6 57522.0 1610.35  40
  -5   1  -6 57939.7 1969.46   8
   5  -1   6 56703.1 1928.80  13
  -5   1  -7 43429.6 1312.93  23
   5  -1   7 40742.6 1274.92  18
   5  -1   8 16670.8 563.576  55
  -5   1  -8 15400.0 569.924  23
   5  -1   9-48.7161 92.5214  55
  -5   1  -9 50.5925 51.6306  23
   5  -1   9 69.9261 96.5713   6
  -5   1  -9 112.540 98.2942  59
   5  -1  10 397.512 49.5879   6
  -5   0   8 1194.29 94.4703  54
  -5   0   8 1587.42 104.582   5
  -5   0   7 20110.0 707.179  54
  -5   0   7 21927.2 698.204  45
  -5   0   7 21016.6 700.847   5
  -5   0   6 12601.3 517.920  49
  -5   0   6 13767.7 528.957  45
  -5   0   6 14057.3 533.109  36
  -5   0   6 12822.2 484.120  35
  -5   0   6 12477.5 528.118   5
  -5   0   5 14415.0 552.076  58
  -5   0   5 16154.1 590.942  24
  -5   0   5 14544.6 576.696  51
  -5   0   5 17166.7 597.103  49
  -5   0   5 14869.6 589.062  21
  -5   0   5 16589.6 614.725  45
  -5   0   5 15286.2 562.681  41
  -5   0   5 17055.9 618.919  36
  -5   0   5 16553.8 561.704  35
  -5   0   5 15643.2 554.234  28
  -5   0   4 10129.8 409.849  24
  -5   0   4 9293.16 424.237  51
  -5   0   4 8666.35 391.400  49
  -5   0   4 9816.30 431.333  21
  -5   0   4 9136.16 410.137  45
  -5   0   4 9284.94 379.769  28
  -5   0   4 8645.30 733.456   2
  -5   0   4 9024.14 407.076  41
  -5   0   4 9647.55 418.893  36
  -5   0   4 7792.28 365.358  35
  -5   0   4 9791.52 420.091  58
  -5   0   4 8911.97 404.855  29
  -5   0   3 21002.0 728.096  51
  -5   0   3 19043.0 652.338  49
  -5   0   3 20860.7 666.545  24
  -5   0   3 18181.5 685.976  21
  -5   0   3 18619.4 665.209  45
  -5   0   3 18205.0 689.796  42
  -5   0   3 19725.4 677.814  36
  -5   0   3 21770.7 741.846   5
  -5   0   3 20559.3 704.166  58
  -5   0   2 4764.31 452.351   1
  -5   0   2 4399.71 270.223  42
  -5   0   2 4955.26 283.494   5
  -5   0   2 4686.94 252.297   4
  -5   0   1 15708.5 682.084   9
  -5   0   1 16406.3 777.683   1
  -5   0   1 16373.3 542.870   4
  -5   0   0 1688.32 151.113   3
  -5   0   0 1799.91 287.377   1
  -5   0   0 1523.49 232.308   9
  -5   0  -1 5127.04 232.469   3
  -5   0  -1 5227.55 365.827   9
  -5   0  -1 4573.28 301.701   8
  -5   0  -2 34367.7 1225.07   9
  -5   0  -2 34837.9 1162.53   8
  -5   0  -3 37277.8 1264.63   8
   5   0   3 35137.7 1184.54  13
   5   0   3 33847.3 1270.99  12
  -5   0  -4 22783.3 957.915   8
   5   0   4 22184.2 893.243  13
   5   0   4 21643.2 1002.30  12
  -5   0  -5 11360.6 478.844  23
  -5   0  -5 10956.0 449.335  40
   5   0   5 10763.4 617.200  13
   5   0   5 11469.1 743.279  12
  -5   0  -6 8002.62 384.154  23
   5   0   6 6985.88 348.884  18
  -5   0  -6 7238.13 329.877  40
   5   0   6 7086.72 551.639  13
   5   0   6 6363.77 613.942  12
  -5   0  -7 7014.27 351.553  23
   5   0   7 7011.13 360.679  18
  -5   0  -7 5863.75 552.242   8
   5   0   7 6203.13 558.574  14
   5   0   7 5865.39 540.732  13
   5   0   7 5579.51 603.903  12
  -5   0  -8 2701.88 201.630  23
   5   0   8 2748.39 242.923  18
   5   0   9 19755.7 607.715  55
   5   0   9 17716.6 622.411   6
  -5   0  -9 19426.5 670.977  59
   5   0  10 1789.68 123.471  55
   5   0  10 1973.54 137.395   6
  -5   0 -10 2050.36 144.235  59
  -5  -1   7 3408.09 203.313  54
  -5  -1   7 3693.43 206.556  45
  -5  -1   7 3810.67 216.751  36
  -5  -1   7 3778.18 208.810   5
  -5  -1   6 2855.54 220.853  45
  -5  -1   6 2660.89 216.174   5
  -5  -1   5 600.378 164.750  24
  -5  -1   5 444.575 141.355  45
  -5  -1   5 463.013 153.319  36
  -5  -1   5 505.521 184.005  35
  -5  -1   4 19656.4 704.515  53
  -5  -1   4 17372.7 657.311  24
  -5  -1   4 19426.3 662.347  49
  -5  -1   4 20163.9 693.674  45
  -5  -1   4 17115.6 1053.12   2
  -5  -1   4 18985.3 653.920  41
  -5  -1   4 19552.7 684.052  36
  -5  -1   4 19428.0 644.992  35
  -5  -1   4 16249.4 635.172  51
  -5  -1   4 17009.1 639.896  29
  -5  -1   4 18514.7 675.056  58
  -5  -1   4 19527.8 656.215  28
  -5  -1   3 5314.21 279.792  24
  -5  -1   3 4608.22 278.782  51
  -5  -1   3 5041.13 276.252  49
  -5  -1   3 4606.98 272.408  45
  -5  -1   3 5074.59 545.074   2
  -5  -1   3 4847.90 279.874  41
  -5  -1   3 5821.40 289.432  28
  -5  -1   3 5881.36 293.355  36
  -5  -1   3 5003.23 290.526  29
  -5  -1   3 5497.30 303.943  58
  -5  -1   2 7704.76 347.202  31
  -5  -1   2 10080.9 410.424  58
  -5  -1   1 17557.3 567.768   4
  -5  -1   1 17899.5 804.457   1
  -5  -1   0 4079.48 362.919   1
  -5  -1   0 4404.63 211.748   4
  -5  -1  -1 2837.06 248.236   9
  -5  -1  -1 2561.35 206.767   8
  -5  -1  -1 3002.45 170.642   3
   5   1   2 35508.9 1137.86  14
  -5  -1  -2 40157.6 1251.42   9
   5   1   3 2942.67 326.525  12
   5   1   3 2742.36 263.317  13
   5   1   4 17827.9 746.937  13
   5   1   5 1760.97 325.672  12
   5   1   5 1307.59 279.214  13
  -5  -1  -6 6214.59 329.133  23
   5   1   6 6377.24 509.601  14
   5   1   6 6167.94 504.693  13
   5   1   6 5677.76 563.136  12
  -5  -1  -7 7571.09 362.560  23
   5   1   7 7526.66 593.105  14
   5   1   7 7637.54 580.510  13
   5   1   7 7598.85 697.439  12
   5   1   8 9348.83 387.580  55
  -5  -1  -8 7094.71 344.779  23
   5   1   8 6454.44 583.598  14
   5   1   8 8107.34 402.252  18
  -5  -1  -8 6695.71 587.265   8
  -5  -1  -8 8311.22 430.876  59
   5   1   8 6074.52 655.231  12
  -5  -1  -9 2749.46 175.428  23
   5   1   9 2988.68 224.139   6
   5   1   9 3076.99 248.507  18
  -5  -1  -9 2888.66 239.738  59
   5   1  10 1325.34 139.847   6
   5   1  10 1310.07 146.353  55
  -5  -1 -10 1590.24 152.576  59
   5   1  11 2266.77 109.198   6
  -5  -2   7 478.518 89.6829  45
  -5  -2   7 376.661 93.1644  36
  -5  -2   6 841.232 169.180  49
  -5  -2   6 988.261 143.696  45
  -5  -2   6 891.345 137.314   5
  -5  -2   5 117.117 127.915  45
  -5  -2   4 23192.1 816.358  53
  -5  -2   4 22535.9 807.569  24
  -5  -2   4 24449.2 766.570  46
  -5  -2   4 24353.0 810.133  28
  -5  -2   4 25150.3 831.854  36
  -5  -2   3 40605.7 1339.47  53
  -5  -2   3 45598.8 1346.60  24
  -5  -2   3 47530.7 1340.41  49
  -5  -2   3 40394.0 1796.17   2
  -5  -2   3 45402.9 1300.17  39
  -5  -2   3 48755.0 1366.68  36
  -5  -2   3 45614.5 1290.40  67
  -5  -2   3 38202.7 1322.77  29
  -5  -2   3 42728.7 1378.70  58
  -5  -2   3 45653.1 1338.08  28
  -5  -2   2 64563.4 1914.76  49
  -5  -2   2 63398.1 2338.17   2
  -5  -2   2 67226.7 1945.23  41
  -5  -2   2 70613.4 1932.16  36
  -5  -2   2 65328.2 1937.53  34
  -5  -2   2 73299.2 1974.78  29
  -5  -2   2 69767.9 1982.05  58
  -5  -2   1 357.179 197.377   1
  -5  -2   0 33069.1 1174.81   1
  -5  -2   0 32678.3 940.961   4
  -5  -2  -1 74997.2 2035.10   3
  -5  -2  -1 74071.1 2117.49   9
  -5  -2  -2 905.960 106.120   3
  -5  -2  -2 779.441 164.204   9
  -5  -2  -2 885.854 213.471   1
   5   2   3 54845.3 1656.70  14
   5   2   4 28077.4 1022.42  14
   5   2   5 75182.6 2380.92  14
   5   2   5 78313.9 2614.98  12
  -5  -2  -6 3054.48 213.142  23
  -5  -2  -6 2882.89 235.363  59
   5   2   6 2417.40 357.295  14
   5   2   6 3353.39 459.758  12
   5   2   7 1890.17 399.584  12
  -5  -2  -7 2753.78 210.128  23
   5   2   7 2518.42 389.052  14
  -5  -2  -7 2784.92 250.144  59
   5   2   8 34845.1 1007.06  55
  -5  -2  -8 28445.6 974.364  23
   5   2   8 32864.0 1362.26  14
  -5  -2  -8 31571.3 1068.09  59
   5   2   8 30231.0 1531.87  12
   5   2   9 5685.16 303.127  55
   5   2   9 5238.73 297.786   6
   5   2   9 5304.23 322.107  18
  -5  -2  -9 5468.46 319.441  59
  -5  -2 -10 5678.31 293.290  59
   5   2  10 5555.11 277.784   6
   5   2  10 5925.77 309.095  18
   5   2  10 6143.78 284.925  38
   5   2  11 630.145 85.4789   6
  -5  -2 -11 664.205 78.0599  59
  -5  -3   7 667.747 71.4274  36
  -5  -3   6 135.414 123.176  49
  -5  -3   6 7.43117 92.3371  45
  -5  -3   6 90.6494 104.421  36
  -5  -3   5 12290.1 473.970  49
  -5  -3   5 11732.0 444.738  46
  -5  -3   5 12195.3 487.663  45
  -5  -3   5 12854.7 457.554  35
  -5  -3   4 9067.35 377.017  46
  -5  -3   4 9717.63 427.382  36
  -5  -3   4 8837.37 394.793  35
  -5  -3   4 8912.33 395.000  67
  -5  -3   3 105.719 158.637  67
  -5  -3   3 80.7798 188.456   2
  -5  -3   3 170.175 123.131  46
  -5  -3   3 107.572 125.810  39
  -5  -3   3 6.44160 126.884  58
  -5  -3   2 26398.3 858.524  24
  -5  -3   2 24108.1 1162.47   2
  -5  -3   2 24979.9 819.789  39
  -5  -3   2 25308.8 862.525  34
  -5  -3   2 27187.8 825.593  67
  -5  -3   2 26513.8 874.617  29
  -5  -3   2 28469.4 917.940  58
  -5  -3   1 46986.6 1388.73  31
  -5  -3   0 50630.1 1453.69  16
  -5  -3  -1 69198.2 2063.88   1
  -5  -3  -2 55835.8 1689.21   1
   5   3   3 6485.82 359.590  14
   5   3   4 5380.14 375.859  14
   5   3   5 73654.4 2290.42  14
  -5  -3  -6 129462. 3625.66  59
   5   3   6 135083. 3906.05  14
   5   3   7 16213.5 563.660  55
   5   3   7 16515.8 871.969  14
  -5  -3  -7 14703.6 567.320  23
   5   3   7 17356.5 1060.18  12
  -5  -3  -7 16419.2 642.511  59
   5   3   8 20403.8 697.394  55
   5   3   8 19060.1 1191.15  12
   5   3   8 21432.1 1055.22  14
  -5  -3  -8 20558.6 767.019  59
   5   3   9 662.501 159.640  55
   5   3   9 674.096 137.912   6
  -5  -3  -9 626.411 149.463  59
   5   3  10 229.242 145.283  55
   5   3  10 202.378 106.288   6
   5   3  10 46.8577 127.712  38
  -5  -3 -10 167.231 102.900  59
   5   3  11 3596.75 173.398   6
  -5  -3 -11 3618.92 175.253  59
  -5  -3 -12 17.3202 34.8756  47
  -5  -4   6 3894.07 199.636  49
  -5  -4   6 4180.31 193.847  45
  -5  -4   5 16037.3 561.551  49
  -5  -4   5 16266.5 545.930  46
  -5  -4   5 16697.6 586.876  45
  -5  -4   5 16419.8 549.142  35
  -5  -4   4 10152.8 453.524  49
  -5  -4   4 9838.06 425.956  46
  -5  -4   4 11570.5 447.562  35
  -5  -4   4 10492.2 463.413  67
  -5  -4   3 55635.7 1737.35  24
  -5  -4   3 57576.1 1683.08  46
  -5  -4   3 59909.1 1709.94  67
  -5  -4   2 8832.88 413.682  24
  -5  -4   2 9157.93 398.628  39
  -5  -4   2 10390.9 421.835  16
  -5  -4   2 8528.20 409.229  34
  -5  -4   2 9919.41 400.402  63
  -5  -4   2 8493.80 408.960  28
  -5  -4   2 9240.04 403.865  67
  -5  -4   1 626.051 125.084  26
  -5  -4   1 616.621 125.773  39
  -5  -4   1 615.692 121.325  34
  -5  -4   1 628.992 139.980  28
  -5  -4   0 714.254 158.382  16
  -5  -4   0 444.561 118.168  58
  -5  -4  -1 4964.71 325.559  11
  -5  -4  -1 6871.12 293.037  16
  -5  -4  -2 10789.7 517.695  11
  -5  -4  -2 11400.2 408.542  16
  -5  -4  -3 13230.1 601.703  11
  -5  -4  -4 12905.4 605.717  11
   5   4   4 11501.9 578.516  14
   5   4   5 124782. 3641.14  14
   5   4   6 26.8974 227.022  14
  -5  -4  -6 34.2430 98.9832  59
   5   4   7 12963.0 493.830  55
  -5  -4  -7 13990.6 562.028  59
   5   4   7 14749.0 815.428  14
   5   4   8 1889.78 423.314  12
   5   4   8 2097.80 198.762  55
   5   4   8 2018.12 387.364  14
  -5  -4  -8 2102.26 213.594  59
   5   4   9 10181.6 433.036  55
  -5  -4  -9 10982.1 470.960  59
   5   4   9 9650.44 744.463  14
   5   4   9 9524.89 842.950  12
  -5  -4 -10 2377.69 188.495  59
   5   4  10 2644.57 229.371  38
   5   4  11 1264.01 149.665  18
   5   4  11 1401.41 145.355  38
  -5  -4 -11 948.267 96.4270  59
  -5  -4 -12 8072.84 283.191  47
  -5  -5   5 612.211 117.037  49
  -5  -5   5 487.926 101.259  45
  -5  -5   5 788.683 116.559  36
  -5  -5   4 2216.11 196.689  49
  -5  -5   4 2306.31 187.811  46
  -5  -5   4 2431.80 200.313  35
  -5  -5   3 2444.28 240.352  24
  -5  -5   3 2618.01 238.647  49
  -5  -5   3 2571.95 212.578  46
  -5  -5   3 2798.27 237.253  16
  -5  -5   3 2885.40 237.830  35
  -5  -5   3 2555.18 255.881  67
  -5  -5   2 11366.5 499.801  24
  -5  -5   2 12176.7 497.327  39
  -5  -5   2 11732.5 500.003  67
  -5  -5   2 13195.5 497.978  63
  -5  -5   1 49249.3 1475.00  24
  -5  -5   1 50309.1 1495.98  34
  -5  -5   1 51242.4 1468.71  63
  -5  -5   1 47340.1 1477.35  28
  -5  -5   0 3613.27 215.246  44
  -5  -5   0 3858.55 247.764  16
  -5  -5   0 2917.18 238.543  58
  -5  -5   0 3963.72 241.761  34
  -5  -5   0 3039.17 214.188  31
  -5  -5   0 3318.91 226.423  28
  -5  -5  -1 20520.7 669.010  26
  -5  -5  -1 17849.3 739.119  11
  -5  -5  -1 20047.2 645.486  16
  -5  -5  -1 17107.6 659.055  58
  -5  -5  -2 107152. 2985.89  11
  -5  -5  -2 110096. 2785.08  16
  -5  -5  -3 24119.1 972.283  11
  -5  -5  -3 25096.6 752.791  17
  -5  -5  -3 27028.6 784.078  16
  -5  -5  -4 13219.4 639.161  11
  -5  -5  -4 9047.08 408.620  17
  -5  -5  -6 4082.25 262.998  47
  -5  -5  -6 4161.19 258.232  59
   5   5   7 561.178 129.433  55
   5   5   7 608.218 270.567  14
  -5  -5  -7 538.426 129.741  59
   5   5   8 2960.06 223.551  55
   5   5   8 2708.95 446.097  14
  -5  -5  -8 3241.52 244.239  59
   5   5   9 198.067 281.451  12
   5   5   9-174.003 255.129  14
  -5  -5  -9 41.2151 112.655  59
   5   5  10 4735.38 295.082  38
  -5  -5 -10 4248.86 241.986  59
  -5  -5 -11 2097.41 175.256  47
   5   5  11 1805.24 167.333  18
   5   5  11 2291.72 191.182  38
  -5  -5 -12 111.717 58.1969  47
  -5  -6   5 315.904 55.8379  36
  -5  -6   4 503.261 119.783  49
  -5  -6   4 568.295 124.511  46
  -5  -6   4 589.323 116.897  36
  -5  -6   3 7593.83 351.007  49
  -5  -6   3 7315.81 329.613  46
  -5  -6   3 7411.96 314.860  35
  -5  -6   2 983.070 178.596  24
  -5  -6   2 1057.48 202.702  49
  -5  -6   2 775.666 143.892  63
  -5  -6   1 2382.05 217.213  24
  -5  -6   1 2595.05 213.461  34
  -5  -6   1 2933.28 218.599  63
  -5  -6   0-4.84232 113.379  24
  -5  -6   0-21.1489 101.989  44
  -5  -6   0 321.015 174.272  16
  -5  -6   0 77.5317 110.181  34
  -5  -6   0 103.102 100.122  63
  -5  -6   0 36.1639 124.831  28
  -5  -6  -1 93.4096 105.435  26
  -5  -6  -1 77.5402 90.7212  44
  -5  -6  -1 36.6479 146.112  16
  -5  -6  -1 76.4219 101.311  34
  -5  -6  -1 94.3620 101.880  28
  -5  -6  -2 1593.74 168.743  26
  -5  -6  -2 1660.73 160.365  44
  -5  -6  -2 1726.27 154.718  17
  -5  -6  -2 1700.29 178.723  16
  -5  -6  -2 1397.39 159.093  33
  -5  -6  -3 107983. 3420.32  11
  -5  -6  -3 119997. 3233.66  26
  -5  -6  -3 122007. 3232.99  44
  -5  -6  -3 116332. 3137.66  17
  -5  -6  -3 116051. 3170.73  16
  -5  -6  -3 119645. 3240.71  33
  -5  -6  -4 21153.8 895.544  11
  -5  -6  -4 21562.8 718.428  44
  -5  -6  -4 20099.3 648.719  17
  -5  -6  -4 20869.7 723.381  33
  -5  -6  -5 650.983 131.597  47
   5   6   5 417.674 191.422   7
  -5  -6  -5 485.035 176.288  17
  -5  -6  -6 1562.67 288.826  11
  -5  -6  -6 1735.88 185.869  47
   5   6   6 1695.79 187.438  38
   5   6   6 1505.25 276.852   7
  -5  -6  -7 19516.3 721.777  47
   5   6   7 18942.6 706.712  38
  -5  -6  -7 18919.4 681.253  59
  -5  -6  -8 97.1471 134.558  47
   5   6   8 122.832 151.365  38
  -5  -6  -8 16.5609 97.9310  59
  -5  -6  -9 16269.9 639.340  47
   5   6   9 16103.9 630.716  38
  -5  -6  -9 14800.9 567.172  59
  -5  -6 -10 12908.1 532.177  47
  -5  -6 -11 3547.06 214.905  47
   5   6  11 3342.74 204.363  18
   5   6  11 3551.52 234.264  38
  -5  -6 -12 2601.83 133.052  47
   5   6  12 2326.27 138.392  57
  -5  -7   4 2194.28 113.713  46
  -5  -7   4 2530.97 124.192  36
  -5  -7   3 621.535 120.305  49
  -5  -7   3 624.029 128.288  46
  -5  -7   2 1851.73 190.199  49
  -5  -7   2 1584.60 160.768  35
  -5  -7   1 65487.4 1943.40  39
  -5  -7   1 69463.3 1955.43  63
  -5  -7   0 29684.4 961.839  44
  -5  -7   0 28637.1 936.076  39
  -5  -7   0 30330.5 954.367  16
  -5  -7   0 26570.5 921.786  34
  -5  -7   0 29037.9 955.156  63
  -5  -7  -1 510.724 135.129  44
  -5  -7  -1 681.899 154.874  39
  -5  -7  -1 566.345 182.952  16
  -5  -7  -1 515.441 128.114  34
  -5  -7  -2 13071.3 534.637  26
  -5  -7  -2 14330.4 541.341  44
  -5  -7  -2 13366.3 460.589  17
  -5  -7  -2 14963.1 540.578  16
  -5  -7  -3 32470.6 1042.88  26
  -5  -7  -3 34999.0 1067.02  44
  -5  -7  -3 33444.3 982.921  17
  -5  -7  -3 33442.0 1008.62  16
  -5  -7  -3 32529.9 1056.34  33
  -5  -7  -4 5205.64 270.218  26
  -5  -7  -4 5530.47 303.823  44
  -5  -7  -4 5124.32 277.760  17
  -5  -7  -4 5549.05 306.967  33
  -5  -7  -5 164.105 91.5891  26
  -5  -7  -5 187.732 119.672  44
  -5  -7  -5 159.333 180.715  17
  -5  -7  -5 166.519 117.502  33
  -5  -7  -6 719.806 269.234  11
  -5  -7  -6 521.500 137.065  47
   5   7   6 710.363 143.041  38
  -5  -7  -6 495.917 144.046  33
   5   7   6 437.517 223.804   7
  -5  -7  -7 2418.07 345.690  11
  -5  -7  -7 2530.60 226.384  47
   5   7   7 2116.80 225.074  38
  -5  -7  -8 13862.9 577.911  47
   5   7   8 14663.8 596.345  38
  -5  -7  -9 1936.58 202.301  47
   5   7   9 1882.22 231.355  38
  -5  -7 -10 2051.41 192.734  47
   5   7  11 275.185 95.9151  57
  -5  -7 -11 426.309 100.818  47
   5   7  11 314.426 102.082  18
   5   7  12 590.540 103.540  38
  -5  -8   3 5.05219 55.9340  46
  -5  -8   3 30.5109 49.5047  36
  -5  -8   2 6122.98 248.943  49
  -5  -8   2 6088.66 261.074  46
  -5  -8   2 5926.64 284.269  67
  -5  -8   1 17376.0 597.417  49
  -5  -8   1 16993.1 610.966  67
  -5  -8   1 17466.3 604.911  63
  -5  -8   0 154.427 150.308  39
  -5  -8   0 68.5972 156.426  16
  -5  -8   0 146.582 116.119  63
  -5  -8  -1 12034.5 491.711  44
  -5  -8  -1 12121.7 477.883  39
  -5  -8  -1 12309.9 483.566  16
  -5  -8  -1 10650.8 435.215  34
  -5  -8  -2 21973.1 775.835  44
  -5  -8  -2 22532.9 762.953  39
  -5  -8  -2 23860.1 769.001  16
  -5  -8  -2 21117.3 740.817  34
  -5  -8  -3 8602.98 398.613  44
  -5  -8  -3 8026.59 349.178  17
  -5  -8  -3 8385.89 362.766  16
  -5  -8  -4 19684.2 685.334  26
  -5  -8  -4 20519.8 672.270  17
  -5  -8  -4 21219.0 734.231  33
  -5  -8  -4 20525.1 665.774  32
   5   8   4 20415.5 745.821  30
  -5  -8  -5 2764.38 240.356  17
  -5  -8  -5 2572.57 220.593  33
   5   8   5 2209.04 235.924  30
  -5  -8  -6 18378.2 891.425  11
   5   8   6 17344.9 638.294  38
  -5  -8  -6 18799.7 676.631  33
  -5  -8  -7 321.490 226.840  11
   5   8   7 178.882 148.690  38
  -5  -8  -7 240.971 126.407  33
  -5  -8  -8 12177.8 513.305  47
   5   8   8 12704.3 538.815  38
  -5  -8  -8 12825.5 522.514  33
  -5  -8  -9 9835.06 428.890  47
   5   8   9 10436.7 471.587  38
   5   8   9 9165.46 463.064  30
  -5  -8 -10 8132.38 364.020  47
   5   8  10 9229.85 418.974  38
   5   8  10 8823.83 402.197  30
   5   8  11 7740.20 305.642  30
   5   8  11 7200.20 330.154  38
  -5  -8 -11 7097.61 296.083  33
  -5  -8 -12 17.3488 54.8275  44
  -5  -9   2 438.593 51.6776  36
  -5  -9   1 11067.1 354.442  49
  -5  -9   1 11093.3 391.558  67
  -5  -9   0 24554.1 749.418  16
  -5  -9   0 23460.0 758.853  67
  -5  -9   0 23663.1 760.523  63
  -5  -9  -1 2725.24 210.444  39
  -5  -9  -1 2494.72 205.109  16
  -5  -9  -1 2772.24 211.435  63
   5   9   1 2141.64 191.852  61
  -5  -9  -2 504.820 140.450  39
  -5  -9  -2 549.586 151.202  16
   5   9   2 599.436 159.239  61
  -5  -9  -3 421.019 130.182  39
  -5  -9  -3 362.639 148.133  17
  -5  -9  -3 355.826 130.588  16
  -5  -9  -3 380.543 89.3538  32
  -5  -9  -4 15129.4 512.455  17
  -5  -9  -4 13813.0 498.200  32
  -5  -9  -5 2762.35 240.732  17
  -5  -9  -5 2428.73 180.615  32
   5   9   5 2456.53 238.180  30
  -5  -9  -6 2093.31 231.503  17
  -5  -9  -6 2183.49 187.737  33
   5   9   6 1753.35 224.032  30
  -5  -9  -7 5721.21 328.712  44
  -5  -9  -7 4990.88 282.118  33
   5   9   7 5457.30 353.469  30
  -5  -9  -8 4211.36 282.854  44
   5   9   8 4187.25 278.316  38
  -5  -9  -8 3709.50 234.856  33
   5   9   8 4442.04 319.512  30
  -5  -9  -9 127.321 126.256  44
   5   9   9 108.827 158.396  38
  -5  -9  -9 158.248 93.9829  33
  -5  -9 -10 139.363 118.365  44
   5   9  10 185.094 144.628  38
  -5  -9 -10 101.800 82.3251  33
   5   9  10 196.640 130.114  30
  -5  -9 -11 3918.26 208.170  44
  -5  -9 -11 3492.27 156.372  33
  -5  -9 -12 3920.86 149.322  44
  -5 -10   0 735.963 107.200  67
  -5 -10  -1 185.845 93.8321  16
  -5 -10  -1 429.353 140.489  67
  -5 -10  -1 322.163 86.3944  63
  -5 -10  -2 5476.72 264.315  63
   5  10   2 4994.99 272.519  61
  -5 -10  -3 6510.89 278.478  39
   5  10   3 6480.26 353.561  61
  -5 -10  -4 59.0509 119.897  44
  -5 -10  -4-23.8828 90.5576  39
  -5 -10  -4-11.7723 149.409  17
  -5 -10  -5 70.6932 116.938  44
  -5 -10  -5 53.6836 164.589  17
  -5 -10  -5-3.42303 77.9488  32
   5  10   5 127.660 118.611  30
  -5 -10  -6 5.09352 118.388  44
  -5 -10  -6 121.736 170.582  17
   5  10   6-32.4398 119.289  30
  -5 -10  -6 32.7406 85.3252  32
  -5 -10  -7 410.951 129.963  44
   5  10   7 378.509 157.393  30
  -5 -10  -8-50.6624 110.521  44
  -5 -10  -8-14.6853 65.8481  33
   5  10   8 17.3645 139.374  30
  -5 -10  -9 4203.97 230.286  44
  -5 -10  -9 3053.18 158.479  33
  -5 -10 -10 12622.8 445.578  44
  -5 -10 -11 9238.25 344.840  44
   5  10  11 13030.7 363.863  30
  -5 -11  -2 3325.30 146.241  67
  -5 -11  -2 2381.64 125.814  63
  -5 -11  -3 184.695 112.761  67
  -5 -11  -3 148.953 74.1270  63
   5  11   3 250.563 97.5264  61
  -5 -11  -4 454.358 108.515  44
   5  11   4 360.471 125.959  61
  -5 -11  -5 3475.68 204.469  44
  -5 -11  -5 3226.77 181.521  17
   5  11   5 3098.84 223.636  61
  -5 -11  -6 26978.4 785.393  44
   5  11   6 23282.2 753.329  30
  -5 -11  -7 1170.25 125.422  44
  -5 -11  -7 1072.36 105.109  32
   5  11   7 1046.18 132.518  30
   5  11   7 1133.39 151.089  61
  -5 -11  -8 3922.72 201.870  44
  -5 -11  -8 4175.85 186.814  32
   5  11   8 3711.42 213.977  61
  -5 -11  -9 2052.17 119.419  32
  -5 -11  -9 1852.31 128.058  44
   5  11   9 2067.97 160.325  30
  -5 -11 -10 2330.67 118.103  44
  -5 -11 -10 2514.84 109.468  32
   5  12   5 6725.84 265.808  52
   5  12   5 10414.4 304.596  61
  -5 -12  -6 22.5301 46.8348  44
   5  12   7 555.734 72.8259  52
  -5 -12  -7 471.492 60.7130  44
   5  12   7 642.104 84.6103  61
  -5 -12  -8 44.3988 34.8466  44
  -6   7   4 31.6928 36.5370  41
  -6   7   4 56.3404 46.4509  66
  -6   7   3 6096.58 234.899  66
  -6   7   3 6752.70 244.614  20
  -6   7   3 6780.42 251.827  27
  -6   7   2 25504.8 751.973  27
  -6   7   1 1452.16 113.326  20
  -6   7   1 1195.85 96.3292  27
  -6   7   0 37.3686 51.6756  20
  -6   6   6 1304.70 78.3091  51
  -6   6   6 1305.24 83.7545  66
  -6   6   5 2870.53 168.709  66
  -6   6   5 2669.98 149.402  51
  -6   6   4 6825.08 293.783  66
  -6   6   4 6206.17 265.910  27
  -6   6   3 1241.53 115.910  51
  -6   6   3 1201.39 129.544  20
  -6   6   3 1627.60 157.065  66
  -6   6   3 1559.63 153.741  27
  -6   6   2 2481.94 180.226  20
  -6   6   2 2278.42 155.765  41
  -6   6   2 2094.92 175.899  66
  -6   6   1 18121.2 590.221  66
  -6   6   1 16965.3 521.580   4
  -6   6   1 16586.4 588.422  27
  -6   6   0 14910.4 527.176  20
  -6   6   0 13697.5 492.731  40
  -6   6   0 14827.4 505.443  27
  -6   6  -1 236.326 68.7757  27
  -6   6  -1 145.319 90.8927  20
  -6   6  -1 283.066 97.9590  40
  -6   6  -2 274.637 67.0432  20
  -6   6  -3 710.575 86.8195  40
  -6   5   6 1284.69 119.762  51
  -6   5   6 1479.80 119.577  41
  -6   5   6 1432.71 117.352  66
  -6   5   5 10620.0 413.479  51
  -6   5   5 10502.2 417.647  65
  -6   5   4 7169.79 344.438  56
  -6   5   4 7534.87 356.025  42
  -6   5   4 8341.28 359.766  51
  -6   5   4 7157.81 338.796  27
  -6   5   3 1277.46 178.137  56
  -6   5   3 1165.55 157.120  51
  -6   5   3 1532.87 157.164  20
  -6   5   3 1050.42 158.969  42
  -6   5   3 1125.08 140.125  58
  -6   5   2 1038.51 143.304   4
  -6   5   2 1063.62 151.113  51
  -6   5   2 1426.88 172.026  20
  -6   5   2 1033.15 154.210  42
  -6   5   2 1461.90 181.739  27
  -6   5   1 2982.54 250.500  56
  -6   5   1 2879.96 195.153  40
  -6   5   1 2931.05 234.262  66
  -6   5   1 2704.39 193.174   4
  -6   5   1 2580.68 225.938  27
  -6   5   0 5191.98 301.473  20
  -6   5   0 4933.08 280.943  40
  -6   5   0 5123.61 255.255   4
  -6   5   0 5135.80 290.836  66
  -6   5   0 5058.96 293.195  27
  -6   5  -1 1520.12 182.814  20
  -6   5  -1 1163.61 140.100  66
  -6   5  -1 1321.90 152.450  27
  -6   5  -2 1635.93 150.408   3
  -6   5  -2 1702.28 161.180  20
  -6   5  -3 390.955 93.8857  23
  -6   5  -3 447.313 83.3167  20
  -6   5  -3 500.312 105.737   3
  -6   5  -4 88.1034 71.3235  23
  -6   5  -4 70.8811 79.9536  40
  -6   5  -5 246.699 56.3968  23
  -6   4   7 842.409 79.4511  51
  -6   4   6 473.580 104.350  41
  -6   4   6 433.955 96.9415  66
  -6   4   6 378.352 118.215  65
  -6   4   5 5286.86 298.134  51
  -6   4   5 5385.93 301.549  42
  -6   4   5 5319.93 304.179  65
  -6   4   4 30397.5 1024.29  56
  -6   4   4 31761.6 1050.35  51
  -6   4   4 34477.0 1085.62  65
  -6   4   4 32953.2 1032.31  27
  -6   4   3 51941.7 1679.66  56
  -6   4   3 59268.4 1726.03  65
  -6   4   3 60045.1 1708.19  51
  -6   4   3 54712.5 1646.06  20
  -6   4   3 55950.6 1695.43  42
  -6   4   3 56867.0 1646.77  58
  -6   4   3 53587.6 1678.25  27
  -6   4   2 41501.3 1346.25  56
  -6   4   2 42726.6 1314.45  51
  -6   4   2 42155.3 1297.61  20
  -6   4   2 39429.2 1309.69  42
  -6   4   2 41585.8 1226.16   4
  -6   4   1 13093.7 544.974  51
  -6   4   1 14631.3 576.826  20
  -6   4   1 13953.1 555.965  42
  -6   4   1 13133.6 519.716  40
  -6   4   1 14583.9 510.101   4
  -6   4   1 14305.4 583.834  27
  -6   4   0 153527. 4035.80  56
  -6   4   0 149023. 3977.80  40
  -6   4   0 141626. 3992.46  66
  -6   4   0 149928. 4002.80  27
  -6   4  -1 1372.73 144.532  23
  -6   4  -1 2237.04 205.588   3
  -6   4  -1 1663.02 206.780  20
  -6   4  -1 1959.51 218.504  40
  -6   4  -1 1514.67 189.652  66
  -6   4  -1 1845.98 197.720  27
  -6   4  -2 15258.5 508.267   3
  -6   4  -2 14479.5 532.609  23
  -6   4  -2 14947.5 568.403  20
  -6   4  -2 14659.2 538.019  66
  -6   4  -3 45613.7 1319.57   3
  -6   4  -3 44192.0 1378.56  23
  -6   4  -3 48570.2 1386.16  20
  -6   4  -3 47760.8 1432.60  40
  -6   4  -4 2946.28 186.605   3
  -6   4  -4 2732.34 207.523  23
  -6   4  -4 3112.51 231.165  40
  -6   4  -5 4435.07 207.932   3
  -6   4  -5 4946.35 249.336  23
  -6   4  -5 4893.34 239.382  40
   6  -4   6 439.052 79.7106   6
  -6   3   7 3759.59 179.198  51
  -6   3   7 5014.59 213.888  65
  -6   3   6 441.591 123.004  51
  -6   3   6 519.421 108.333  41
  -6   3   5 203.283 133.061   5
  -6   3   5 167.293 107.913  29
  -6   3   4 68455.1 1976.02  56
  -6   3   4 73444.1 2014.05   5
  -6   3   4 70560.8 1989.47  27
  -6   3   3 649.881 158.938  27
  -6   3   3 451.802 143.667  56
  -6   3   3 481.208 160.502  51
  -6   3   3 529.235 128.349  20
  -6   3   3 645.121 175.349  65
  -6   3   3 558.872 136.833  58
  -6   3   2 2461.73 254.369  56
  -6   3   2 2217.53 229.878  51
  -6   3   2 2059.06 170.787  48
  -6   3   2 2129.11 208.660  20
  -6   3   2 2823.16 269.831  42
  -6   3   2 1951.54 339.488   9
  -6   3   2 2650.93 393.219   1
  -6   3   2 3145.65 280.376  65
  -6   3   2 3271.66 234.953   4
  -6   3   1 41349.2 1302.78  56
  -6   3   1 41372.3 1264.23  51
  -6   3   1 34936.9 1170.90  48
  -6   3   1 37476.9 1235.00  20
  -6   3   1 39914.2 1561.18   1
  -6   3   1 39112.6 1531.71   9
  -6   3   1 39711.2 1260.61  42
  -6   3   1 36094.5 1190.95  40
  -6   3   1 41434.2 1304.90  65
  -6   3   1 40932.8 1180.34   4
  -6   3   1 40171.9 1263.62  27
  -6   3   0 5622.94 546.903   1
  -6   3   0 5113.43 327.014  51
  -6   3   0 5276.54 530.420   9
  -6   3   0 5317.80 324.489  42
  -6   3   0 5534.72 335.657  40
  -6   3   0 6337.34 366.769  27
  -6   3  -1 1240.74 327.709   1
  -6   3  -1 1181.49 140.567  23
  -6   3  -1 1354.21 186.442   3
  -6   3  -1 1161.23 180.620  20
  -6   3  -1 1328.43 159.081  41
  -6   3  -1 1472.40 193.225  40
  -6   3  -1 1203.96 319.050   9
  -6   3  -1 1448.00 192.696  66
  -6   3  -1 1370.66 184.141  27
  -6   3  -2 168.616 105.286  27
  -6   3  -2 174.244 120.520  66
  -6   3  -2 245.443 113.074  23
  -6   3  -2 327.883 161.390   3
  -6   3  -2 82.8090 119.298  20
  -6   3  -2 33.6257 236.550   9
  -6   3  -2 194.258 233.455   8
  -6   3  -2 34.0240 249.886   1
  -6   3  -3 14779.9 529.389   3
  -6   3  -3 14001.3 577.947  23
  -6   3  -3 13486.7 562.467  20
  -6   3  -4 5052.01 306.231  23
  -6   3  -4 4536.19 260.757  59
  -6   3  -4 4573.16 252.929  20
  -6   3  -4 4967.55 308.257  40
  -6   3  -5 10360.5 431.528  40
  -6   3  -5 9459.12 408.855  59
  -6   3  -6 3175.82 187.143  40
  -6   3  -6 3113.83 202.052  59
  -6   3  -7 6777.72 266.473  23
   6  -3   7 6453.06 264.598   6
  -6   3  -7 6302.57 257.911  59
  -6   2   7 5644.34 251.430  54
  -6   2   7 5659.42 241.082   5
  -6   2   7 5802.87 242.613  65
  -6   2   6 105.283 117.859  54
  -6   2   6 147.841 106.540  51
  -6   2   6 183.849 120.466  65
  -6   2   5 439.472 159.658  65
  -6   2   5 527.404 157.445  54
  -6   2   5 501.148 143.821  51
  -6   2   5 409.331 131.042  41
  -6   2   5 360.518 106.850  29
  -6   2   4 12571.7 564.963  54
  -6   2   4 11725.5 549.519  51
  -6   2   4 12726.6 565.383  65
  -6   2   4 13077.8 543.343  42
  -6   2   4 10905.3 464.410  58
  -6   2   3 2781.61 228.433  56
  -6   2   3 4003.53 310.121  54
  -6   2   3 2802.03 207.943  20
  -6   2   3 2800.33 411.418   1
  -6   2   3 3756.41 250.751  58
  -6   2   3 3348.21 254.054  27
  -6   2   2 56757.1 1703.92  56
  -6   2   2 63647.0 1769.86  54
  -6   2   2 60094.2 1730.81  51
  -6   2   2 52921.2 1617.59  48
  -6   2   2 49869.4 1634.81  20
  -6   2   2 51945.5 1616.45  43
  -6   2   2 58836.9 1731.22  42
  -6   2   2 51121.4 1889.18   9
  -6   2   2 57112.0 2028.86   1
  -6   2   2 62642.9 1716.71  58
  -6   2   1 69246.7 2160.26  56
  -6   2   1 74521.3 2158.12  51
  -6   2   1 72307.8 2085.99  48
  -6   2   1 69555.9 2109.04  20
  -6   2   1 74412.7 2405.37   9
  -6   2   1 78573.1 2176.80  42
  -6   2   1 74778.8 2143.39  27
  -6   2   0 2674.34 230.602  51
  -6   2   0 2417.61 213.574   3
  -6   2   0 2337.77 220.979  20
  -6   2   0 2373.41 217.445  42
  -6   2   0 2363.21 213.851  40
  -6   2   0 2206.28 362.034   1
  -6   2   0 2432.64 361.357   9
  -6   2   0 2497.29 227.794  27
  -6   2  -1 12239.9 522.224  51
  -6   2  -1 12290.1 466.473   3
  -6   2  -1 11641.0 472.414  23
  -6   2  -1 13141.9 746.392   9
  -6   2  -1 13478.5 539.018  40
  -6   2  -1 12607.5 762.304   1
  -6   2  -1 12682.7 548.945  66
  -6   2  -1 14650.9 543.672  27
  -6   2  -2 11834.2 474.376  23
  -6   2  -2 10431.8 693.685   9
  -6   2  -2 12013.6 499.380  20
  -6   2  -2 10366.3 709.647   1
  -6   2  -2 9074.26 608.743   8
  -6   2  -2 10626.0 490.793  66
  -6   2  -2 11268.3 461.881  27
  -6   2  -3 13479.6 536.731  23
  -6   2  -3 12265.1 763.043   9
  -6   2  -3 12607.5 517.011  20
  -6   2  -3 12286.0 548.278  40
  -6   2  -3 11766.2 510.168  66
  -6   2  -4 662.747 160.809  23
  -6   2  -4 569.540 140.278  59
  -6   2  -4 636.226 134.413  20
  -6   2  -4 441.346 150.233  40
  -6   2  -4 785.216 288.548   8
  -6   2  -5 20594.1 749.865  40
  -6   2  -5 20805.4 757.952  59
  -6   2  -6 130.500 100.551  40
  -6   2  -6 95.1941 125.018  59
  -6   2  -7 4807.89 256.735  23
  -6   2  -7 4325.60 257.281  59
  -6   2  -8 1437.74 113.180  23
  -6   2  -8 1728.85 137.847  59
  -6   1   7 1418.20 120.041  54
  -6   1   7 1546.40 123.819   5
  -6   1   6 30669.7 957.410  54
  -6   1   6 29168.0 936.682  65
  -6   1   5 262.248 147.744  54
  -6   1   5 292.377 131.592  51
  -6   1   5 306.480 116.350  41
  -6   1   5 343.918 138.824  36
  -6   1   5 203.775 146.270  65
  -6   1   5 245.539 94.5061  29
  -6   1   4 4985.46 339.344  54
  -6   1   4 5480.11 262.486  24
  -6   1   4 4922.80 327.950  51
  -6   1   4 5655.48 296.196  49
  -6   1   4 5164.68 321.007  41
  -6   1   4 4699.61 292.127  36
  -6   1   4 5345.84 251.789  35
  -6   1   4 4679.19 295.263  29
  -6   1   4 4796.34 341.817  65
  -6   1   4 5347.81 254.811  28
  -6   1   4 4765.53 282.294  58
  -6   1   3 14710.0 649.707  54
  -6   1   3 18076.3 563.896  24
  -6   1   3 15422.6 662.089  51
  -6   1   3 16146.8 565.011  49
  -6   1   3 15959.7 639.194  42
  -6   1   3 14422.2 569.391  36
  -6   1   3 15466.6 660.799  65
  -6   1   3 16714.0 622.384  58
  -6   1   2 64502.7 1939.71  56
  -6   1   2 71786.6 2015.13  54
  -6   1   2 63394.2 1906.32  48
  -6   1   2 61728.7 1899.83  20
  -6   1   2 64819.0 1888.42  43
  -6   1   2 69197.6 2004.74  65
  -6   1   2 66169.3 1951.23  27
  -6   1   2 77080.8 1988.96  58
  -6   1   1 137077. 4109.26  56
  -6   1   1 151217. 4154.78  54
  -6   1   1 155863. 4153.76  51
  -6   1   1 154342. 4095.29  48
  -6   1   1 153987. 4100.92  20
  -6   1   1 137293. 4302.33   9
  -6   1   1 155231. 4153.17  42
  -6   1   1 142804. 4020.59  31
  -6   1   1 161577. 4176.43  65
  -6   1   1 153984. 4122.79  27
  -6   1   0 25663.5 874.255  51
  -6   1   0 24895.6 853.118  20
  -6   1   0 23392.3 1017.33   9
  -6   1   0 24688.3 860.355  42
  -6   1   0 23392.0 787.489  31
  -6   1   0 25890.1 864.424  27
  -6   1  -1 57010.3 1812.22  51
  -6   1  -1 57558.9 1752.83  23
  -6   1  -1 69047.0 2096.16   9
  -6   1  -1 62783.6 1811.26  40
  -6   1  -1 58174.3 1894.83   8
  -6   1  -1 63538.8 1857.30  66
  -6   1  -1 69566.2 1836.57  27
  -6   1  -2 2465.73 198.093  23
  -6   1  -2 2026.47 191.478  20
  -6   1  -2 2086.59 180.245  41
  -6   1  -2 1663.64 316.479   9
  -6   1  -2 1736.45 273.518   8
  -6   1  -2 2363.94 216.898  66
  -6   1  -2 2322.83 186.011  27
  -6   1  -3 2941.39 231.276  23
  -6   1  -3 3093.07 243.108  66
  -6   1  -3 2873.21 395.946   9
  -6   1  -3 2994.54 226.312  20
  -6   1  -3 3376.71 259.955  40
  -6   1  -3 3073.09 369.768   8
  -6   1  -3 2647.27 215.139  59
  -6   1  -4 1055.04 172.687  23
  -6   1  -4 1231.86 154.813  20
  -6   1  -4 1280.80 322.063   9
  -6   1  -4 1323.95 179.682  40
  -6   1  -4 1049.36 294.117   8
  -6   1  -4 1022.28 165.029  59
  -6   1  -5 43.3300 111.520  40
  -6   1  -5-106.356 242.755   8
  -6   1  -5 132.495 140.463  59
  -6   1  -6 649.732 152.857  23
  -6   1  -6 562.598 128.437  40
  -6   1  -6 525.643 171.639  59
  -6   1  -7 17930.3 655.369  23
  -6   1  -7 17836.2 681.835  59
   6  -1   8 392.205 125.227  55
  -6   1  -8 432.727 99.6169  23
   6  -1   9 3798.04 183.126   6
  -6   0   7 1160.62 99.8126   5
  -6   0   6 639.573 129.826  54
  -6   0   6 930.222 148.752   5
  -6   0   5 4470.60 284.244  54
  -6   0   5 3542.46 229.795  51
  -6   0   5 3966.29 269.200  49
  -6   0   5 4196.82 237.303  45
  -6   0   5 4549.02 268.024  36
  -6   0   5 4745.70 286.235   5
  -6   0   5 4739.81 250.428  35
  -6   0   5 4303.89 270.609  65
  -6   0   4 121993. 3324.91  54
  -6   0   4 118221. 3229.31  24
  -6   0   4 103515. 3258.41  51
  -6   0   4 123867. 3237.77  49
  -6   0   4 114122. 3226.91  45
  -6   0   4 115963. 3273.53  41
  -6   0   4 121207. 3258.99  36
  -6   0   4 114383. 3297.59   5
  -6   0   4 121350. 3188.25  35
  -6   0   4 113653. 3314.34  65
  -6   0   4 117923. 3256.48  29
  -6   0   4 125197. 3222.93  28
  -6   0   4 118655. 3261.11  58
  -6   0   3 21709.0 790.898  54
  -6   0   3 23162.8 723.384  24
  -6   0   3 20437.5 773.335  51
  -6   0   3 19525.4 690.503  49
  -6   0   3 21230.2 767.172  41
  -6   0   3 22504.9 784.473   5
  -6   0   3 21626.7 719.792  36
  -6   0   3 19649.9 667.494  35
  -6   0   3 21913.2 760.494  58
  -6   0   3 19493.9 729.808  66
  -6   0   3 22393.1 770.981  29
  -6   0   3 21813.6 806.611  65
  -6   0   2 2569.33 236.355  54
  -6   0   2 2792.94 239.785  51
  -6   0   2 2123.75 369.844   1
  -6   0   2 2510.29 190.845  49
  -6   0   2 2494.50 206.315  48
  -6   0   2 3086.09 247.040   5
  -6   0   2 2618.83 191.347  36
  -6   0   2 2954.90 253.762  65
  -6   0   2 2329.13 181.641  31
  -6   0   2 2766.59 231.657  58
  -6   0   1 5240.18 340.291  54
  -6   0   1 7963.95 395.091  51
  -6   0   1 8147.44 373.668  48
  -6   0   1 5321.87 310.432  20
  -6   0   1 7758.79 342.998  43
  -6   0   1 6103.69 366.726   5
  -6   0   1 8033.01 582.862   1
  -6   0   1 6318.05 375.345  65
  -6   0   1 8253.64 342.851  31
  -6   0   1 9054.97 366.863  62
  -6   0   1 8162.64 351.846   4
  -6   0   1 8428.24 395.756  58
  -6   0   0 313811. 8434.70  65
  -6   0   0 300588. 8409.85  54
  -6   0   0 306802. 8706.66   1
  -6   0   0 318954. 8395.04  20
  -6   0   0 291304. 8555.00   9
  -6   0   0 313854. 8396.12  43
  -6   0   0 325503. 8372.75  31
  -6   0   0 311771. 8403.90  27
  -6   0  -1 16949.7 683.076  51
  -6   0  -1 22776.9 647.214   3
  -6   0  -1 19340.0 842.731   9
  -6   0  -1 17257.7 679.840  20
  -6   0  -1 17759.9 675.344  41
  -6   0  -1 23634.4 1000.30   1
  -6   0  -1 19733.3 686.666  27
  -6   0  -2 8165.39 347.884   3
  -6   0  -2 9343.00 412.246  51
  -6   0  -2 8591.91 374.880  23
  -6   0  -2 9418.30 548.211   9
  -6   0  -2 10466.4 419.087  20
  -6   0  -2 8860.72 385.339  41
  -6   0  -2 7296.03 457.452   8
  -6   0  -2 9485.63 419.812  66
  -6   0  -2 8748.39 376.416  27
  -6   0  -3 64541.2 1772.62  23
  -6   0  -3 57169.5 1984.94   9
  -6   0  -3 58301.4 1755.57  20
  -6   0  -3 63009.8 1786.84  40
  -6   0  -3 57344.8 1917.52   8
  -6   0  -3 58629.2 1788.59  66
  -6   0  -3 61357.6 1769.94  59
  -6   0  -4 28844.7 944.028  23
  -6   0  -4 27324.0 1166.42   9
  -6   0  -4 26861.1 898.522  20
  -6   0  -4 30374.3 956.364  40
  -6   0  -4 29371.5 1133.66   8
  -6   0  -4 27077.0 942.378  59
  -6   0  -5 929.212 304.086   9
  -6   0  -5 1022.79 155.580  40
  -6   0  -5 1229.86 295.960   8
  -6   0  -5 944.365 173.971  59
  -6   0  -6 6720.63 355.684  23
  -6   0  -6 6090.31 296.251  43
   6   0   6 5356.25 284.716  18
  -6   0  -6 5585.50 297.442  40
  -6   0  -6 5274.78 511.753   8
   6   0   6 5181.21 501.880  14
   6   0   6 5575.18 499.721  13
  -6   0  -6 6406.65 380.142  59
   6   0   6 5313.43 538.318  12
  -6   0  -7 16839.8 609.012  23
  -6   0  -7 16699.6 654.266  59
   6   0   8 3601.19 233.541  55
  -6   0  -8 3443.10 222.451  23
   6   0   8 3170.11 220.766  18
   6   0   9 247.394 113.621  55
  -6   0  -9 174.021 109.183  59
   6   0   9 140.942 100.037   6
   6   0  10 4797.46 189.556   6
  -6   0 -10 5299.60 204.985  59
  -6  -1   6 3885.44 235.104  49
  -6  -1   6 4501.18 226.480   5
  -6  -1   6 4185.36 227.426  36
  -6  -1   5 14111.2 551.108  54
  -6  -1   5 14450.9 542.659  49
  -6  -1   5 15601.5 528.157  45
  -6  -1   5 15225.5 546.680  36
  -6  -1   5 13452.2 544.389   5
  -6  -1   5 14336.9 511.019  35
  -6  -1   4 9631.77 438.211  54
  -6  -1   4 8839.70 401.288  24
  -6  -1   4 9084.15 390.359  51
  -6  -1   4 9952.40 413.443  49
  -6  -1   4 9745.49 394.722  45
  -6  -1   4 7890.44 375.865  41
  -6  -1   4 10666.8 426.468  36
  -6  -1   4 10405.0 452.822   5
  -6  -1   4 9933.55 397.793  35
  -6  -1   4 8388.39 404.105  65
  -6  -1   4 8605.92 384.258  29
  -6  -1   4 8915.95 413.360  58
  -6  -1   4 9805.73 402.572  28
  -6  -1   3 899.042 165.438  54
  -6  -1   3 1358.85 174.272  24
  -6  -1   3 1142.31 160.574  51
  -6  -1   3 1064.49 167.816  49
  -6  -1   3 1323.97 170.439  41
  -6  -1   3 1072.98 152.684  36
  -6  -1   3 1169.88 185.252   5
  -6  -1   3 1035.26 174.734  65
  -6  -1   3 1251.46 167.641  29
  -6  -1   3 1412.94 175.296  58
  -6  -1   3 1601.59 179.041  28
  -6  -1   2 3003.58 243.445  54
  -6  -1   2 3017.10 247.397  51
  -6  -1   2 4198.20 248.952  49
  -6  -1   2 2205.76 214.049  66
  -6  -1   2 3663.02 266.672  41
  -6  -1   2 3043.35 256.760  65
  -6  -1   2 3232.97 254.197   5
  -6  -1   2 3427.50 226.639  36
  -6  -1   2 3817.91 275.842  29
  -6  -1   2 5144.54 299.088  58
  -6  -1   1 93480.6 2610.86  54
  -6  -1   1 101075. 2646.32  51
  -6  -1   1 89534.5 2887.37   1
  -6  -1   1 83770.2 2522.92  49
  -6  -1   1 95200.9 2618.58  48
  -6  -1   1 87207.3 2564.01  43
  -6  -1   1 106292. 2667.31  41
  -6  -1   1 103839. 2629.41   5
  -6  -1   1 83997.2 2551.13  34
  -6  -1   1 95053.7 2585.42  31
  -6  -1   1 89141.5 2620.31  65
  -6  -1   1 91709.4 2616.75  66
  -6  -1   1 93373.5 2578.24  62
  -6  -1   1 101938. 2661.49  29
  -6  -1   1 88696.2 2533.35   4
  -6  -1   1 97879.1 2628.49  58
  -6  -1   0 53730.7 1651.09  51
  -6  -1   0 59438.4 1672.33  65
  -6  -1   0 59327.4 1660.17  48
  -6  -1   0 53653.2 1620.79  20
  -6  -1   0 59295.7 1644.76  43
  -6  -1   0 51010.1 1853.83   1
  -6  -1   0 56478.2 1641.38   5
  -6  -1   0 56804.5 1670.05  66
  -6  -1   0 51522.4 1573.60   4
  -6  -1   0 60218.2 1646.90  31
  -6  -1   0 57291.7 1667.11  58
  -6  -1  -1 30885.9 903.609   3
  -6  -1  -1 28414.1 1052.30   9
  -6  -1  -1 32145.3 1206.67   1
  -6  -1  -2 1969.63 274.148   8
  -6  -1  -2 2410.70 394.259   1
  -6  -1  -3 6744.97 456.371   9
  -6  -1  -3 7480.88 336.017  20
  -6  -1  -3 6557.78 424.954   8
  -6  -1  -3 7492.27 357.742  66
  -6  -1  -4 90.9434 96.3810  23
  -6  -1  -4 111.270 93.6158  20
  -6  -1  -4 10.6877 99.4531  40
  -6  -1  -4 77.0994 215.807   8
   6   1   4-41.3451 165.149  14
  -6  -1  -4 23.4178 102.209  59
  -6  -1  -5 24566.9 847.868  23
  -6  -1  -5 25046.5 826.883  40
   6   1   5 24823.7 1048.03  14
  -6  -1  -5 24451.5 867.825  59
   6   1   5 24183.7 1130.14  12
  -6  -1  -6 12800.3 527.944  23
  -6  -1  -6 11436.9 458.682  43
  -6  -1  -6 12078.1 720.695   8
   6   1   6 12490.7 723.913  14
  -6  -1  -6 13228.5 564.451  59
   6   1   6 10874.4 772.156  12
  -6  -1  -7 16090.3 605.115  23
   6   1   7 15366.7 579.038  18
   6   1   7 14949.8 833.743  14
   6   1   7 13502.5 910.101  12
   6   1   8 157.058 134.529  55
  -6  -1  -8 177.668 103.068  23
   6   1   8 176.299 138.536  18
   6   1   9 373.842 137.925  55
   6   1   9 380.900 122.256   6
   6   1   9 443.833 140.815  18
  -6  -1  -9 545.148 144.721  59
   6   1  10 8719.64 310.977  55
   6   1  10 7802.22 305.728   6
  -6  -1 -10 8329.28 333.418  59
  -6  -2   6 2813.70 172.075  36
  -6  -2   5 613.241 138.561  36
  -6  -2   5 565.159 120.656   5
  -6  -2   4 4888.50 303.770  54
  -6  -2   4 7624.09 364.088  24
  -6  -2   4 7598.39 362.647  49
  -6  -2   4 5981.91 305.747  45
  -6  -2   4 7565.97 350.064  28
  -6  -2   4 7296.17 352.439  36
  -6  -2   4 5647.28 326.360   5
  -6  -2   3 318.136 128.265  54
  -6  -2   3 541.980 157.230  24
  -6  -2   3 318.615 153.865  49
  -6  -2   3 420.838 109.190  45
  -6  -2   3 471.869 115.914  41
  -6  -2   3 268.061 121.492  36
  -6  -2   3 427.414 144.519   5
  -6  -2   3 368.104 120.434  29
  -6  -2   3 499.310 146.277  28
  -6  -2   3 463.657 142.776  58
  -6  -2   2 2570.51 187.479  26
  -6  -2   2 1616.42 182.680  51
  -6  -2   2 3191.34 244.411  49
  -6  -2   2 2210.54 216.824  41
  -6  -2   2 2715.65 239.188  58
  -6  -2   2 2067.19 213.176   5
  -6  -2   2 2569.68 208.154  36
  -6  -2   2 2317.00 215.316  34
  -6  -2   2 2170.27 217.380  29
  -6  -2   1 476.386 104.331  26
  -6  -2   1 356.978 116.599  51
  -6  -2   1 512.156 141.645  49
  -6  -2   1 444.736 134.014  41
  -6  -2   1 345.282 99.3646  36
  -6  -2   1 357.896 119.741   5
  -6  -2   1 421.755 118.926  34
  -6  -2   1 396.066 114.212  65
  -6  -2   1 414.944 120.849  31
  -6  -2   1 377.910 110.876  62
  -6  -2   1 473.815 128.392  29
  -6  -2   0 545.642 130.822  51
  -6  -2   0 760.719 132.446  43
  -6  -2   0 418.098 137.903  41
  -6  -2   0 637.488 129.478  34
  -6  -2   0 717.953 144.184  31
  -6  -2   0 923.607 144.630  62
  -6  -2   0 1015.59 142.252   4
  -6  -2   0 785.512 260.166   1
  -6  -2   0 861.162 150.982  58
  -6  -2  -1 19779.8 852.068   1
  -6  -2  -1 20664.4 635.635   4
  -6  -2  -2 13339.9 441.890   3
  -6  -2  -2 12425.2 555.512   9
  -6  -2  -3 5468.85 243.903   3
  -6  -2  -3 4676.14 348.296   9
  -6  -2  -4 91997.1 2425.33  43
   6   2   4 86796.0 2729.41  12
   6   2   5-52.9971 175.719  12
  -6  -2  -5 54.6271 94.4278  23
  -6  -2  -5 19.7513 88.6813  43
   6   2   5 11.7236 186.582  14
  -6  -2  -5-49.4672 115.067  59
  -6  -2  -6 58337.7 1654.23  23
  -6  -2  -6 51839.1 1579.62  43
   6   2   6 56130.7 1908.16  14
   6   2   6 55683.3 2084.14  12
   6   2   7 56447.9 1952.26  14
  -6  -2  -7 53904.8 1619.49  23
   6   2   7 53238.6 2119.24  12
   6   2   8 4183.48 252.944  55
  -6  -2  -8 3563.90 230.308  23
  -6  -2  -8 3573.45 284.993  59
   6   2   9 6393.63 320.675   6
   6   2   9 6388.41 337.366  18
  -6  -2  -9 7048.32 365.963  59
   6   2  10 997.834 137.457  55
   6   2  10 860.437 118.842   6
   6   2  10 868.190 139.393  18
   6   2  10 1045.11 136.296  38
  -6  -2 -10 1144.22 135.890  59
  -6  -2 -11 1643.02 113.890  47
  -6  -2 -11 1402.18 91.7460  59
  -6  -3   6 2266.92 145.405  49
  -6  -3   6 2845.18 147.011  36
  -6  -3   5 2120.41 171.333  36
  -6  -3   4 31540.8 1013.94  45
  -6  -3   4 35102.3 1050.26  36
  -6  -3   3 28037.8 852.886  49
  -6  -3   3 24795.9 816.369  45
  -6  -3   3 23625.2 812.162   5
  -6  -3   3 27147.5 846.851  36
  -6  -3   3 24214.2 785.395  67
  -6  -3   3 21374.3 838.473  58
  -6  -3   3 25676.7 847.895  28
  -6  -3   2 1657.03 210.120  49
  -6  -3   2 1360.01 165.071  39
  -6  -3   2 1032.18 158.785   5
  -6  -3   2 1589.71 171.044  36
  -6  -3   2 1171.96 176.106  67
  -6  -3   2 871.453 157.778  29
  -6  -3   2 1174.41 196.033  58
  -6  -3   1 10270.8 429.184  26
  -6  -3   1 10485.6 458.970  41
  -6  -3   1 10653.6 413.207  39
  -6  -3   1 11536.3 432.679  36
  -6  -3   1 11738.9 471.116  34
  -6  -3   1 11561.3 484.995  29
  -6  -3   0 57813.3 1621.82  26
  -6  -3   0 49003.7 1624.60  48
  -6  -3   0 52319.5 1646.09  41
  -6  -3   0 62518.1 1651.42  34
  -6  -3   0 57446.3 1645.87  31
  -6  -3   0 55634.6 1641.00  62
  -6  -3   0 56789.7 1671.31  58
  -6  -3  -1 1399.76 152.794  48
  -6  -3  -1 1356.52 147.688  43
  -6  -3  -1 1208.99 159.384  41
  -6  -3  -1 1103.30 226.785   1
  -6  -3  -1 1296.95 160.258  31
  -6  -3  -1 1314.29 159.829  62
  -6  -3  -1 1164.46 121.488   4
  -6  -3  -1 1457.11 156.330  29
  -6  -3  -1 1237.19 155.311  58
  -6  -3  -2 7104.74 431.744   1
  -6  -3  -2 8036.56 289.656   4
  -6  -3  -3 566.529 99.1754   3
  -6  -3  -3 414.460 173.176   1
  -6  -3  -4 3288.16 185.660   3
  -6  -3  -5 10718.9 449.847  47
  -6  -3  -5 10502.3 434.020  43
   6   3   5 9450.62 570.372  14
   6   3   5 11224.5 734.865  12
  -6  -3  -5 10455.2 456.548  59
   6   3   6 29855.7 913.829  55
  -6  -3  -6 29332.3 963.692  23
  -6  -3  -6 29562.5 942.193  43
   6   3   6 32590.8 1247.80  14
   6   3   6 33395.2 1455.15  12
   6   3   7 1285.21 343.880  12
   6   3   7 1094.23 155.379  55
  -6  -3  -7 1011.65 142.840  23
   6   3   7 842.983 279.863  14
  -6  -3  -7 1045.08 184.208  59
   6   3   8 64791.0 1862.44  55
   6   3   8 65919.1 2279.64  14
  -6  -3  -8 66380.6 1966.02  59
   6   3   8 66290.2 2509.12  12
   6   3   9 135.319 135.594  55
   6   3   9 179.056 108.044   6
  -6  -3  -9 207.385 127.924  59
   6   3  10 3846.57 229.531  55
   6   3  10 3111.06 189.434   6
  -6  -3 -10 3460.07 219.210  59
   6   3  10 3598.93 235.327  18
   6   3  11 5172.18 240.375  18
  -6  -3 -11 5353.23 224.009  59
  -6  -4   5 23.5923 102.434  49
  -6  -4   5 154.926 87.4536  36
  -6  -4   5 174.103 123.538  35
  -6  -4   4 7601.64 340.468  36
  -6  -4   4 7555.75 334.871  35
  -6  -4   3 443.045 164.886  24
  -6  -4   3 452.918 124.860  46
  -6  -4   3 419.436 135.692  36
  -6  -4   3 345.621 169.345  67
  -6  -4   2 2021.98 218.189  24
  -6  -4   2 1595.64 154.839  46
  -6  -4   2 1999.85 192.273  39
  -6  -4   2 1896.84 188.862  36
  -6  -4   2 2019.48 214.369  67
  -6  -4   1 6315.93 329.287  26
  -6  -4   1 6157.72 308.185  39
  -6  -4   1 6882.94 346.329  28
  -6  -4   0 11009.0 439.459  26
  -6  -4   0 10446.8 445.606  31
  -6  -4   0 11042.9 483.333  58
  -6  -4  -1 21356.4 717.603  26
  -6  -4  -1 21134.5 725.083  31
  -6  -4  -1 20530.2 731.201  62
  -6  -4  -1 21999.7 744.060  58
  -6  -4  -2 4668.16 261.295  48
  -6  -4  -2 4954.24 269.855  29
  -6  -4  -2 4076.51 248.007  58
  -6  -4  -3 46745.7 1416.42  62
  -6  -4  -4 16999.6 596.726  43
  -6  -4  -4 16356.5 606.427  59
  -6  -4  -5 34070.7 1058.38  47
   6   4   5 30850.6 1197.64  14
  -6  -4  -6 4080.35 268.554  47
   6   4   6 3116.15 376.347  14
  -6  -4  -6 3667.44 263.239  59
   6   4   7 2041.35 422.117  12
   6   4   7 1630.40 170.751  55
   6   4   7 2053.98 360.256  14
  -6  -4  -7 2343.77 223.484  59
   6   4   8 8093.23 365.381  55
   6   4   8 8172.24 674.853  14
  -6  -4  -8 9439.07 444.858  59
   6   4   8 7985.58 754.281  12
   6   4   9 579.114 146.102  55
  -6  -4  -9 714.118 148.411  59
   6   4  10 5098.66 269.339  55
   6   4  10 4985.81 287.349  18
  -6  -4 -10 5296.64 278.312  59
  -6  -4 -11 195.229 94.9776  47
   6   4  11 103.226 92.8364  18
   6   4  11 257.389 108.510  38
  -6  -4 -11 74.3457 62.5543  59
  -6  -4 -12 127.078 40.8585  47
  -6  -5   5 363.718 70.0020  49
  -6  -5   4 7363.33 314.710  49
  -6  -5   4 8071.44 323.894  36
  -6  -5   4 7871.36 309.343  35
  -6  -5   3 10655.5 459.639  24
  -6  -5   3 11453.5 450.685  49
  -6  -5   3 10578.5 392.364  46
  -6  -5   3 11137.5 440.378  36
  -6  -5   3 10798.6 423.795  35
  -6  -5   3 10369.9 428.278  67
  -6  -5   2 55299.9 1641.41  24
  -6  -5   2 55537.4 1562.34  46
  -6  -5   2 56926.1 1623.37  39
  -6  -5   2 57301.1 1604.58  67
  -6  -5   1 5.56442 138.486  24
  -6  -5   1 29.4168 133.381  39
  -6  -5   1 90.8708 115.601  34
  -6  -5   1-35.0821 170.622  67
  -6  -5   1 56.9160 141.425  28
  -6  -5   0 1595.22 180.812  26
  -6  -5   0 1908.87 190.279  39
  -6  -5   0 1810.34 185.050  34
  -6  -5   0 1487.48 197.540  58
  -6  -5   0 1774.39 187.263  28
  -6  -5  -1 5325.83 257.114  44
  -6  -5  -1 5482.67 297.716  31
  -6  -5  -1 4865.98 303.065  58
  -6  -5  -2 17067.4 599.509  26
  -6  -5  -2 14679.9 528.935  44
  -6  -5  -2 16125.7 574.266  33
  -6  -5  -2 17220.6 595.664  31
  -6  -5  -2 14950.5 590.245  62
  -6  -5  -2 16340.1 590.114  58
  -6  -5  -3 14221.4 514.821  48
  -6  -5  -3 14733.0 542.513  33
  -6  -5  -3 14699.1 558.042  62
  -6  -5  -3 13968.2 523.479  58
  -6  -5  -4 3431.58 364.411  11
  -6  -5  -4 3704.84 240.044  47
  -6  -5  -4 3347.78 222.020  44
  -6  -5  -4 3829.49 247.263  33
  -6  -5  -4 3842.03 243.380  62
  -6  -5  -5 3856.79 256.392  47
  -6  -5  -5 4090.70 251.227  62
  -6  -5  -5 3554.34 249.125  59
  -6  -5  -6 33417.7 1072.37  47
  -6  -5  -6 33153.2 1035.67  62
  -6  -5  -6 33159.6 1070.26  59
   6   5   7 5120.65 266.322  55
   6   5   7 5500.56 525.592  14
   6   5   8 561.162 298.737  12
   6   5   8 698.249 144.116  55
   6   5   8 828.154 313.261  14
  -6  -5  -8 1079.53 174.388  59
   6   5   9 9033.67 434.041  38
  -6  -5  -9 8320.83 406.210  59
  -6  -5 -10 1850.99 199.631  47
  -6  -5 -10 1848.81 167.650  59
  -6  -5 -11 1645.23 149.431  47
   6   5  11 1796.82 168.799  38
  -6  -5 -12 40.1585 47.6055  47
   6   5  12 49.2024 55.9135  38
  -6  -6   4 40.3449 73.8292  49
  -6  -6   4 47.6230 64.5340  36
  -6  -6   3 11530.8 410.761  49
  -6  -6   3 10446.7 408.243  36
  -6  -6   3 10227.1 377.373  35
  -6  -6   2 3571.18 253.079  24
  -6  -6   2 4044.60 271.296  49
  -6  -6   2 3971.39 222.241  46
  -6  -6   2 4194.66 279.108  67
  -6  -6   1 520.790 155.955  24
  -6  -6   1 855.859 203.528  67
  -6  -6   0 65260.2 1983.87  24
  -6  -6   0 70892.5 2028.95  34
  -6  -6   0 64273.3 1990.30  28
  -6  -6  -1 8578.41 364.851  44
  -6  -6  -1 8189.34 384.701  16
  -6  -6  -1 8864.81 403.102  34
  -6  -6  -1 7466.19 360.959  28
  -6  -6  -2 82196.2 2341.16  26
  -6  -6  -2 82669.5 2300.82  44
  -6  -6  -2 78984.9 2290.73  16
  -6  -6  -2 83299.4 2325.94  31
  -6  -6  -3 2063.16 192.667  26
  -6  -6  -3 1698.23 269.998  11
  -6  -6  -3 2078.94 174.146  44
  -6  -6  -3 2231.57 188.061  31
  -6  -6  -3 1381.34 160.233  58
  -6  -6  -4 5010.44 415.885  11
  -6  -6  -4 5191.59 278.789  44
  -6  -6  -4 4414.88 267.165  62
  -6  -6  -5 20572.8 907.576  11
  -6  -6  -5 20511.5 733.473  47
  -6  -6  -5 21034.0 714.596  44
  -6  -6  -5 18615.0 682.186  62
   6   6   6 88259.4 2471.94  38
  -6  -6  -6 87544.9 2458.44  62
   6   6   7 72107.6 2094.64  38
  -6  -6  -8 5640.63 342.548  47
   6   6   8 5841.40 352.487  38
  -6  -6  -8 5008.81 307.345  59
  -6  -6  -9 8124.62 412.291  47
   6   6   9 7840.73 408.808  38
  -6  -6  -9 7682.27 371.737  59
  -6  -6 -10 12180.2 503.995  47
  -6  -6 -11 3340.71 202.578  47
   6   6  11 3105.46 193.938  18
  -6  -6 -12 946.952 81.9287  47
   6   6  12 1363.68 107.618  38
  -6  -7   3 7026.12 262.266  49
  -6  -7   3 7905.62 281.663  36
  -6  -7   2 308.404 133.076  49
  -6  -7   2 145.632 105.401  46
  -6  -7   2 347.668 112.969  36
  -6  -7   2 210.649 119.323  35
  -6  -7   2 222.388 157.433  67
  -6  -7   1 2507.93 203.841  24
  -6  -7   1 3040.78 252.216  49
  -6  -7   1 3350.48 261.929  67
  -6  -7   0 1722.79 182.000  24
  -6  -7   0 1882.69 219.561  16
  -6  -7   0 1785.36 181.869  34
  -6  -7   0 1888.52 166.781  63
  -6  -7  -1 55102.3 1536.85  24
  -6  -7  -1 51958.3 1545.86  44
  -6  -7  -1 51847.1 1544.68  39
  -6  -7  -1 53955.9 1559.77  16
  -6  -7  -1 52449.8 1561.21  34
  -6  -7  -1 49318.5 1517.66  63
  -6  -7  -2 20612.4 768.941  26
  -6  -7  -2 23428.1 759.758  44
  -6  -7  -2 21159.6 742.957  16
  -6  -7  -2 23511.0 785.898  34
  -6  -7  -3 1202.30 162.349  26
  -6  -7  -3 1364.89 268.558  11
  -6  -7  -3 1380.44 160.664  44
  -6  -7  -3 1302.57 167.935  16
  -6  -7  -4 3052.72 222.030  26
  -6  -7  -4 2921.57 350.115  11
  -6  -7  -4 3238.63 228.816  44
  -6  -7  -4 2891.85 232.005  33
  -6  -7  -5 39635.8 1212.85  44
  -6  -7  -5 39657.3 1227.14  33
  -6  -7  -6 36180.3 1086.15  44
  -6  -7  -6 37772.5 1115.24  33
  -6  -7  -7 887.121 160.338  47
   6   7   7 940.839 173.667  38
  -6  -7  -8 277.210 138.123  47
   6   7   8 98.5294 160.284  38
  -6  -7  -9 99.4235 126.705  47
   6   7   9 133.537 166.471  38
  -6  -7 -10 3065.64 228.301  47
   6   7  10 3234.78 254.833  38
  -6  -7 -11 348.022 97.0788  47
   6   7  11 527.942 135.281  38
   6   7  11 543.444 103.730  30
   6   7  12 2080.05 131.005  38
  -6  -7 -12 1681.49 104.985  33
  -6  -8   2 2025.82 117.674  49
  -6  -8   2 1867.51 123.071  36
  -6  -8   1 12787.9 449.936  49
  -6  -8   0 7575.92 351.105  39
  -6  -8   0 7633.90 344.070  16
  -6  -8  -1 4816.13 282.325  39
  -6  -8  -1 4553.49 277.506  16
  -6  -8  -1 4074.67 245.671  34
  -6  -8  -1 4724.83 254.093  63
  -6  -8  -2 1579.06 170.699  44
  -6  -8  -2 1716.95 193.015  39
  -6  -8  -2 1365.11 191.860  16
  -6  -8  -2 1755.58 173.030  34
  -6  -8  -3 79053.3 2371.55  26
  -6  -8  -3 83644.9 2331.83  16
  -6  -8  -4 36717.3 1191.51  26
  -6  -8  -4 35655.1 1445.05  11
  -6  -8  -5 32544.8 1020.11  26
  -6  -8  -5 33896.8 1071.30  44
  -6  -8  -5 34745.2 1082.51  33
  -6  -8  -6 15365.8 543.835  26
  -6  -8  -6 14116.3 786.920  11
  -6  -8  -6 16237.6 617.825  44
  -6  -8  -6 16256.7 616.678  33
  -6  -8  -7 347.329 136.266  44
   6   8   7 312.535 140.046  38
  -6  -8  -7 188.674 133.110  33
  -6  -8  -8 1143.58 185.511  44
   6   8   8 1135.02 178.164  38
  -6  -8  -8 1131.98 170.541  33
  -6  -8  -9 6388.66 335.253  47
   6   8   9 6343.40 348.763  38
  -6  -8  -9 6753.87 341.638  33
   6   8  10 1760.04 194.342  38
  -6  -8 -10 1688.75 166.851  33
   6   8  10 1498.35 185.402  30
   6   8  11 1873.99 167.270  38
  -6  -8 -11 1652.31 134.988  33
   6   8  11 1754.42 146.732  30
  -6  -8 -12 3.61060 32.7852  33
  -6  -9   1 1541.03 89.4055  49
  -6  -9   1 1700.61 100.954  36
  -6  -9   0 372.338 113.391  49
  -6  -9   0 424.044 137.611  67
  -6  -9  -1 4547.92 252.348  39
  -6  -9  -2 3698.61 234.989  44
  -6  -9  -2 3573.01 233.572  39
  -6  -9  -2 3402.73 221.244  16
  -6  -9  -2 3187.89 190.474  34
  -6  -9  -2 3432.52 208.240  63
   6   9   2 3089.24 222.320  61
  -6  -9  -3 53035.6 1490.71  44
  -6  -9  -3 52910.7 1470.16  39
  -6  -9  -4 140.487 114.694  44
  -6  -9  -4 27.5571 94.0890  34
  -6  -9  -5 1624.11 179.668  44
   6   9   5 1362.97 178.156  30
  -6  -9  -6 71.8463 120.445  44
  -6  -9  -6 15.4649 108.779  33
   6   9   6 55.3229 133.964  30
  -6  -9  -7 11835.3 479.440  33
   6   9   7 12045.4 527.599  30
   6   9   8 99.0073 124.934  38
  -6  -9  -8 171.688 110.727  33
   6   9   8 281.301 169.490  30
   6   9   9 21034.1 705.904  38
  -6  -9  -9 20380.2 686.732  33
   6   9  10 1535.25 173.267  38
  -6  -9 -10 1191.33 125.462  33
  -6  -9 -11 101.970 58.2475  33
   6   9  11 102.942 79.7976  30
  -6 -10  -1 11292.0 376.362  49
  -6 -10  -1 12390.1 393.460  67
  -6 -10  -2 28294.9 746.439  67
   6  10   2 20944.4 700.983  61
  -6 -10  -3 82.2340 97.9222  44
  -6 -10  -3 11.8840 99.2543  39
   6  10   3-58.6350 114.734  61
  -6 -10  -4 86.2241 99.1856  39
  -6 -10  -5 1071.15 129.272  39
   6  10   6 276.002 112.348  30
   6  10   7 24.5581 116.642  30
  -6 -10  -8 44.2375 74.2454  33
   6  10   8-81.4563 123.835  30
  -6 -10  -9 2543.36 177.691  44
  -6 -10  -9 2006.04 134.965  33
   6  10   9 2493.25 203.197  30
  -6 -10 -10 386.375 87.4590  44
  -6 -10 -10 242.888 55.4378  33
  -6 -10 -11 134.778 49.8514  44
   6  10  11 176.131 58.2272  30
  -6 -11  -3 4308.89 174.485  67
   6  11   3 2720.74 137.494  61
   6  11   4 1056.40 122.822  61
   6  11   5 134.158 102.707  61
  -6 -11  -7 5483.75 236.160  44
   6  11   7 4380.13 211.616  30
  -6 -11  -8 24.8433 71.0828  44
   6  11   8 85.8532 84.1285  30
  -6 -11  -9 647.407 83.7480  44
   6  11   9 721.005 102.674  30
  -6 -11 -10 196.001 46.4965  44
   6  11  10 168.601 57.2460  30
   6  12   6 113.949 52.3504  61
  -6 -12  -7-9.89893 36.0281  44
  -6 -12  -8 17.8481 28.4663  44
  -7   6   3 1328.79 89.6486  66
  -7   6   2 4290.00 174.164  20
  -7   6   2 4016.94 169.996  66
  -7   6   1 3.90014 51.9757  58
  -7   6   0 2767.52 135.419  20
  -7   6   0 2783.27 126.832  43
  -7   5   5 10.6250 35.7930  66
  -7   5   4 1514.88 119.426  41
  -7   5   4 1563.06 117.138  29
  -7   5   3 811.444 106.272  41
  -7   5   3 937.330 122.010  66
  -7   5   2 4394.81 221.663  20
  -7   5   2 4418.42 218.912  41
  -7   5   2 4420.03 243.434  66
  -7   5   2 4290.30 212.097  58
  -7   5   2 4096.28 221.282  27
  -7   5   1 390.383 109.069  27
  -7   5   1 427.217 93.9356  43
  -7   5   1 339.327 82.1919  41
  -7   5   1 389.110 115.780  66
  -7   5   1 355.694 111.898  58
  -7   5   0 2683.61 188.690  20
  -7   5   0 2645.70 173.512  66
  -7   5   0 2643.42 153.006   4
  -7   5   0 2493.14 165.864  27
  -7   5  -1 7564.27 306.543  20
  -7   5  -1 6639.41 258.291   4
  -7   5  -2 4793.72 214.774  20
  -7   5  -3 4991.10 216.099  43
  -7   4   5 3419.85 178.605  51
  -7   4   5 3440.89 176.126  41
  -7   4   5 3477.78 169.866  66
  -7   4   4 2501.93 179.123  51
  -7   4   4 2421.20 180.955  66
  -7   4   4 2611.42 174.114  29
  -7   4   3 238.845 114.949  51
  -7   4   3 179.154 109.474  41
  -7   4   3 142.706 84.4160  58
  -7   4   2 43738.1 1276.43  51
  -7   4   2 42012.3 1253.92  20
  -7   4   2 41250.3 1267.29  41
  -7   4   2 44172.2 1307.37  66
  -7   4   1 1136.83 165.295  20
  -7   4   1 1407.66 157.235  41
  -7   4   1 1341.33 177.831  66
  -7   4   1 1523.45 163.005   4
  -7   4   1 1332.88 167.479  27
  -7   4   0 8687.53 366.299  41
  -7   4   0 9293.80 420.000  66
  -7   4   0 9736.98 367.345   4
  -7   4   0 8321.39 388.788  27
  -7   4  -1 2157.16 178.935   4
  -7   4  -1 1757.93 191.189  20
  -7   4  -1 1491.02 168.321  40
  -7   4  -1 1710.96 181.118  66
  -7   4  -1 1665.47 160.224  27
  -7   4  -2 7944.70 356.049  20
  -7   4  -2 8108.58 366.170  40
  -7   4  -3 11033.5 375.485   3
  -7   4  -3 11664.4 435.105  40
  -7   4  -4 7758.17 298.848  23
  -7   4  -4 8544.00 287.634   3
  -7   4  -5 47.9511 48.8281  23
  -7   3   5 853.326 113.640  41
  -7   3   4 82.3753 109.946  51
  -7   3   4 144.320 109.573  66
  -7   3   4 101.965 104.391  29
  -7   3   3 110.833 132.240  66
  -7   3   3 46.1929 126.904  51
  -7   3   3 127.222 97.8756  58
  -7   3   2 4746.88 304.838  51
  -7   3   2 4629.94 275.147  20
  -7   3   2 5894.56 335.798  41
  -7   3   2 5941.10 310.231  58
  -7   3   1 28291.2 975.368  51
  -7   3   1 25393.7 884.256  48
  -7   3   1 27293.2 955.527  20
  -7   3   1 28338.3 942.187  43
  -7   3   1 31698.8 995.404  41
  -7   3   1 31649.1 1022.01  66
  -7   3   1 32990.7 926.489   4
  -7   3   1 29130.8 978.454  27
  -7   3   0 16983.6 631.205  48
  -7   3   0 18793.4 673.966  41
  -7   3   0 19224.8 640.965   4
  -7   3   0 17243.5 689.311  27
  -7   3  -1 591.373 145.891  27
  -7   3  -1 503.190 161.079  20
  -7   3  -1 436.699 116.026  41
  -7   3  -1 665.284 150.147  40
  -7   3  -1 366.447 149.377  66
  -7   3  -2 4059.27 228.965  23
  -7   3  -2 4825.18 256.060   3
  -7   3  -2 5315.42 300.138  20
  -7   3  -2 5292.35 308.475  40
  -7   3  -2 4773.98 287.968  66
  -7   3  -2 3955.65 236.958  27
  -7   3  -3 1160.42 145.739  23
  -7   3  -3 1480.68 171.559   3
  -7   3  -3 1183.37 158.493  20
  -7   3  -4 17074.3 553.730   3
  -7   3  -4 17082.9 592.775  23
  -7   3  -4 16701.0 611.046  40
  -7   3  -5 18085.8 563.862   3
  -7   3  -5 18881.5 613.275  23
  -7   3  -5 17983.2 595.021  43
  -7   3  -6 6328.60 230.382   3
  -7   2   5 2236.67 175.280  51
  -7   2   5 1945.32 155.739  41
  -7   2   5 2324.52 185.198  65
  -7   2   4 48251.8 1395.59  51
  -7   2   4 44450.9 1382.24  65
  -7   2   4 44430.7 1371.11  41
  -7   2   4 46582.4 1360.04  66
  -7   2   4 43754.8 1346.09  29
  -7   2   3 658.937 167.679  66
  -7   2   3 749.091 148.135  58
  -7   2   2 232.479 154.603  51
  -7   2   2 227.552 93.0776  48
  -7   2   2 178.027 111.936  20
  -7   2   2 227.114 92.2329  43
  -7   2   2 339.055 156.345  41
  -7   2   2 291.691 163.479  66
  -7   2   2 261.159 136.301  58
  -7   2   1 9588.12 485.337  51
  -7   2   1 9974.71 433.733  48
  -7   2   1 9539.61 458.725  20
  -7   2   1 10467.6 455.445  43
  -7   2   1 12174.6 531.634  41
  -7   2   1 11477.5 516.310  58
  -7   2   1 10344.9 482.413  27
  -7   2   0 24506.1 863.345  51
  -7   2   0 23714.3 813.967  48
  -7   2   0 23632.4 1121.04   1
  -7   2   0 23867.1 849.735  20
  -7   2   0 21089.0 1050.78   9
  -7   2   0 24011.0 851.841  41
  -7   2   0 25109.0 893.632  66
  -7   2   0 24409.0 850.553  27
  -7   2  -1 16910.8 949.423   1
  -7   2  -1 19292.8 986.917   9
  -7   2  -1 17257.4 673.578  41
  -7   2  -1 19553.5 703.557  40
  -7   2  -1 17878.0 723.100  66
  -7   2  -1 18667.9 694.650  27
  -7   2  -2 4778.37 275.712  23
  -7   2  -2 5500.33 337.382  20
  -7   2  -2 4628.49 330.553  66
  -7   2  -2 4443.51 507.744   1
  -7   2  -2 4947.27 284.886  27
  -7   2  -3 3923.31 258.576  23
  -7   2  -3 4358.38 279.119  20
  -7   2  -3 3952.90 269.415  66
  -7   2  -4 1000.82 159.595  23
  -7   2  -4 777.550 133.134  20
  -7   2  -4 1164.34 176.577  40
  -7   2  -5 1310.92 168.862  23
  -7   2  -5 1124.06 156.158  40
  -7   2  -5 1131.99 132.782  59
  -7   2  -6 7359.55 291.674   3
  -7   2  -6 6922.40 280.251  43
  -7   2  -6 6863.25 301.774  59
   7  -2   7 1124.64 117.089  55
  -7   2  -7 991.040 107.174   3
  -7   2  -7 1238.08 114.045  23
   7  -2   8 5432.26 178.701  55
  -7   1   5 6696.84 297.997  51
  -7   1   5 7041.17 312.352  65
  -7   1   4 2848.20 226.971  54
  -7   1   4 2993.25 223.626  51
  -7   1   4 2474.20 209.870  41
  -7   1   4 3176.47 235.466   5
  -7   1   4 2875.18 232.427  65
  -7   1   4 3044.67 204.202  29
  -7   1   4 2482.75 181.665  58
  -7   1   3 65424.5 1935.91  54
  -7   1   3 64620.2 1937.87  51
  -7   1   3 67679.8 1933.60  41
  -7   1   3 56246.2 1879.98  66
  -7   1   3 73452.3 1979.01  65
  -7   1   3 67207.5 1926.23  29
  -7   1   3 62260.4 1877.83  58
  -7   1   3 67287.4 1828.87  28
  -7   1   2 34958.0 1059.05  66
  -7   1   2 31555.9 1035.76  65
  -7   1   2 34303.7 1016.34  58
  -7   1   1 334.702 157.380  66
  -7   1   1 367.719 127.381  48
  -7   1   1 397.632 125.345  20
  -7   1   1 262.412 116.036  43
  -7   1   1 311.928 150.184  41
  -7   1   1 254.419 254.889   1
  -7   1   1 294.545 159.583  65
  -7   1   1 264.247 153.032  58
  -7   1   1 400.109 169.776   4
  -7   1   0 157995. 4226.89  48
  -7   1   0 148531. 4228.61  20
  -7   1   0 162722. 4638.63   1
  -7   1   0 151246. 4225.15  43
  -7   1   0 149926. 4254.45  41
  -7   1   0 149857. 4139.81  31
  -7   1   0 153103. 4245.12  27
  -7   1  -1 13058.4 779.572   1
  -7   1  -1 12717.7 547.236  51
  -7   1  -1 10923.9 702.379   9
  -7   1  -1 11781.0 523.395  41
  -7   1  -1 12766.9 568.793  66
  -7   1  -1 11985.7 463.630  31
  -7   1  -1 12188.3 517.621  27
  -7   1  -2 28272.5 951.756  23
  -7   1  -2 32073.2 1030.29  20
  -7   1  -2 29374.8 1263.40   9
  -7   1  -2 29625.0 980.502  41
  -7   1  -2 31481.7 1008.01  40
  -7   1  -2 28744.5 1038.95  66
  -7   1  -2 32660.4 1342.42   1
  -7   1  -2 28356.8 964.266  27
  -7   1  -3 1220.97 159.214  23
  -7   1  -3 1276.51 172.435  20
  -7   1  -3 1302.73 296.006   9
  -7   1  -3 1225.86 256.991   8
  -7   1  -3 1630.67 196.056  66
  -7   1  -3 1189.89 330.820   1
  -7   1  -4 2964.80 241.626  23
  -7   1  -4 2874.16 218.309  20
  -7   1  -4 2987.66 246.719  40
  -7   1  -4 1974.69 356.535   9
  -7   1  -4 1961.46 325.207   8
  -7   1  -4 2438.33 202.215  59
  -7   1  -5 23450.2 825.415  23
  -7   1  -5 23823.6 808.712  40
  -7   1  -5 21823.1 788.529  59
  -7   1  -6 21.0365 85.5642  43
  -7   1  -6 33.8378 114.142  59
  -7   1  -7 17612.3 593.422  23
  -7   1  -7 16081.9 590.013  59
   7  -1   8 3370.09 178.016  55
   7  -1   8 3416.03 184.021   6
  -7   1  -8 3636.11 188.959  59
  -7   0   5 2745.61 186.487   5
  -7   0   4 4609.24 279.548  54
  -7   0   4 5787.19 261.260  24
  -7   0   4 4660.44 271.517  51
  -7   0   4 4811.23 258.400  49
  -7   0   4 5282.02 278.549  41
  -7   0   4 5088.66 293.067   5
  -7   0   4 4755.12 250.457  36
  -7   0   4 5179.67 288.630  65
  -7   0   4 4909.54 259.863  29
  -7   0   4 6110.31 254.900  28
  -7   0   4 5200.89 267.755  58
  -7   0   3 13545.4 569.631  54
  -7   0   3 16649.3 530.320  24
  -7   0   3 13969.7 570.730  51
  -7   0   3 14235.5 498.034  49
  -7   0   3 12439.9 521.595  66
  -7   0   3 13124.1 563.843  41
  -7   0   3 14582.1 576.627   5
  -7   0   3 12656.5 497.379  36
  -7   0   3 13618.6 469.644  35
  -7   0   3 14165.0 593.916  65
  -7   0   3 14984.7 570.068  29
  -7   0   3 15297.1 566.262  58
  -7   0   3 16005.5 527.834  28
  -7   0   2 10712.8 509.980  54
  -7   0   2 14506.4 491.298  24
  -7   0   2 12397.9 554.723  51
  -7   0   2 12447.4 551.700  41
  -7   0   2 11686.8 525.157   5
  -7   0   2 11639.3 523.497  66
  -7   0   2 12044.2 555.553  65
  -7   0   2 13328.4 555.084  29
  -7   0   2 14339.8 555.565  58
  -7   0   1 165897. 4236.20  51
  -7   0   1 149576. 4532.57   1
  -7   0   1 161249. 4170.93  48
  -7   0   1 138026. 4108.16  43
  -7   0   1 169641. 4238.94  66
  -7   0   1 143533. 4093.79  31
  -7   0   1 145645. 4199.18  65
  -7   0   1 146745. 4099.79  62
  -7   0   1 149069. 4092.73   4
  -7   0   1 170007. 4210.04  58
  -7   0   0 14351.0 572.889  48
  -7   0   0 14029.4 546.796  20
  -7   0   0 12499.7 534.343  43
  -7   0   0 12945.5 785.272   1
  -7   0   0 14430.1 592.621  41
  -7   0   0 15360.3 616.785  66
  -7   0   0 13833.7 519.734  31
  -7   0   0 13199.8 513.951   4
  -7   0  -1 13524.2 786.654   1
  -7   0  -1 13473.9 581.779  51
  -7   0  -1 13300.0 500.322   3
  -7   0  -1 13251.7 549.878  20
  -7   0  -1 13855.8 560.625  43
  -7   0  -1 14216.4 574.565  41
  -7   0  -2 11806.6 458.283   3
  -7   0  -2 10808.9 657.633   9
  -7   0  -2 11624.0 504.108  41
  -7   0  -2 12411.9 745.748   1
  -7   0  -3 79258.5 2109.91   3
  -7   0  -3 72546.9 2157.49  23
  -7   0  -3 73814.7 2434.47   9
  -7   0  -3 85951.7 2206.13  20
  -7   0  -3 72976.1 2150.76  41
  -7   0  -3 80651.0 2573.33   1
  -7   0  -3 77458.7 2226.51  66
  -7   0  -3 66868.7 2126.05  59
  -7   0  -4 2178.68 216.916   3
  -7   0  -4 1928.23 193.886  23
  -7   0  -4 1687.60 318.489   9
  -7   0  -4 1727.27 297.386   8
  -7   0  -4 2045.58 196.003  59
  -7   0  -5 515.433 140.491  43
  -7   0  -5 505.141 239.272   9
  -7   0  -5 624.482 247.970   8
  -7   0  -5 650.438 152.456  59
  -7   0  -6 22446.7 783.921  43
  -7   0  -6 27031.7 889.823  59
  -7   0  -7 20937.8 731.371  23
  -7   0  -7 20815.2 759.051  59
   7   0   8 544.086 123.708  55
  -7   0  -8 621.566 107.688  23
  -7   0  -8 682.052 134.329  59
   7   0   9 8500.62 292.417  55
   7   0   9 7746.22 293.046   6
  -7  -1   5 6110.07 266.834   5
  -7  -1   5 6507.40 266.244  36
  -7  -1   4 6482.46 296.912  24
  -7  -1   4 5666.10 286.346  49
  -7  -1   4 6254.31 306.364   5
  -7  -1   4 6269.16 285.513  36
  -7  -1   4 5897.45 271.742  35
  -7  -1   4 6034.59 283.298  28
  -7  -1   4 5572.60 284.076  58
  -7  -1   3 2705.28 220.733  54
  -7  -1   3 2948.21 215.310  24
  -7  -1   3 2335.50 200.949  51
  -7  -1   3 2759.56 202.085  49
  -7  -1   3 2408.12 205.490  41
  -7  -1   3 2835.27 228.166   5
  -7  -1   3 2581.06 189.370  36
  -7  -1   3 2715.11 203.585  35
  -7  -1   3 2537.52 212.634  65
  -7  -1   3 2583.64 207.453  29
  -7  -1   3 2778.37 223.282  58
  -7  -1   3 2813.34 204.602  28
  -7  -1   2 38838.3 1284.09  54
  -7  -1   2 44932.9 1336.61  51
  -7  -1   2 45427.4 1276.07  24
  -7  -1   2 39831.4 1223.44  49
  -7  -1   2 39903.6 1314.39  41
  -7  -1   2 42069.4 1304.42   5
  -7  -1   2 41116.1 1230.44  36
  -7  -1   2 41667.8 1284.91  66
  -7  -1   2 41080.8 1313.65  65
  -7  -1   2 42817.6 1320.90  29
  -7  -1   2 46266.5 1336.88  58
  -7  -1   1 14638.0 603.343  54
  -7  -1   1 19079.7 680.555  51
  -7  -1   1 16276.7 627.794  48
  -7  -1   1 16796.5 664.496  41
  -7  -1   1 17083.6 629.091   5
  -7  -1   1 13772.1 814.200   1
  -7  -1   1 16439.3 639.028  66
  -7  -1   1 15879.5 591.497  31
  -7  -1   1 15525.4 636.876  65
  -7  -1   1 16730.6 589.318  62
  -7  -1   1 18195.3 656.848  58
  -7  -1   0 26554.0 820.043  26
  -7  -1   0 25444.7 905.894  51
  -7  -1   0 28799.1 911.634  48
  -7  -1   0 24411.1 855.733  43
  -7  -1   0 23250.3 810.479  34
  -7  -1   0 26630.2 920.059  66
  -7  -1   0 27488.6 867.882  31
  -7  -1   0 24369.5 1114.79   1
  -7  -1   0 28922.2 890.432  62
  -7  -1   0 24529.6 810.136   4
  -7  -1   0 27098.4 930.407  29
  -7  -1  -1 9794.59 647.664   1
  -7  -1  -1 11261.9 474.357  43
  -7  -1  -1 11953.0 501.648  41
  -7  -1  -1 10885.8 432.347   4
  -7  -1  -1 11403.0 507.216  66
  -7  -1  -1 10179.6 483.700  58
  -7  -1  -2 20053.3 677.147   3
  -7  -1  -2 22345.1 763.104  41
  -7  -1  -2 19760.8 973.090   1
  -7  -1  -2 22723.5 774.754  29
  -7  -1  -2 21046.9 768.420  58
  -7  -1  -3 57810.1 1628.33   3
  -7  -1  -3 50926.3 1860.01   9
  -7  -1  -3 61195.0 1741.33  43
  -7  -1  -3 53059.2 1679.08  41
  -7  -1  -3 56879.5 2014.62   1
  -7  -1  -3 58416.6 1740.08  66
  -7  -1  -3 53750.4 1676.95  59
  -7  -1  -3 67223.2 1719.10  29
  -7  -1  -4-28.5113 97.5918  23
  -7  -1  -4 3.66046 149.508   3
  -7  -1  -4 74.8356 115.058  43
  -7  -1  -4-104.644 197.325   9
  -7  -1  -4 142.214 187.215   8
  -7  -1  -4 182.512 118.898  59
  -7  -1  -5 167.170 116.681  43
  -7  -1  -5-58.0600 207.231   9
  -7  -1  -5 100.626 208.616   8
  -7  -1  -5 6.61542 119.551  59
  -7  -1  -6 4415.64 285.843  23
  -7  -1  -6 3161.03 421.295   9
  -7  -1  -6 3847.40 238.353  43
  -7  -1  -6 3742.19 421.818   8
  -7  -1  -6 4359.77 304.908  59
  -7  -1  -7 12002.9 482.258  23
  -7  -1  -7 12978.8 537.392  59
   7   1   8 698.535 141.625  55
  -7  -1  -8 715.749 121.761  23
   7   1   8 529.837 123.244  18
   7   1   9 400.156 114.693  55
   7   1   9 340.785 98.9933   6
   7   1  10 111.655 63.7222  55
   7   1  10 100.464 50.3035   6
  -7  -1 -10 179.019 59.8992  59
  -7  -2   5 13488.9 454.304  49
  -7  -2   5 13559.3 443.294  36
  -7  -2   4 17829.7 610.891  24
  -7  -2   4 16471.2 589.570  49
  -7  -2   4 17773.7 585.661  36
  -7  -2   4 18246.2 578.538  35
  -7  -2   3 1587.88 193.925  24
  -7  -2   3 1129.06 176.215  49
  -7  -2   3 1135.47 162.940   5
  -7  -2   3 1302.79 151.800  36
  -7  -2   3 1456.41 199.003  35
  -7  -2   3 1339.68 178.498  58
  -7  -2   3 1544.48 175.772  28
  -7  -2   2 18905.6 667.192  24
  -7  -2   2 19119.2 636.662  49
  -7  -2   2 16474.4 662.574  41
  -7  -2   2 18399.0 670.397   5
  -7  -2   2 18876.2 629.105  36
  -7  -2   2 16100.9 633.289  65
  -7  -2   2 19772.8 689.799  29
  -7  -2   2 19469.0 705.426  58
  -7  -2   2 20180.9 677.054  28
  -7  -2   1 66699.9 1843.95  26
  -7  -2   1 65794.2 1923.87  51
  -7  -2   1 66897.0 1845.50  49
  -7  -2   1 69824.0 1956.57  41
  -7  -2   1 67693.4 1898.09   5
  -7  -2   1 67703.5 1895.14  34
  -7  -2   1 55931.8 1865.34  66
  -7  -2   1 64236.7 1885.49  31
  -7  -2   1 59302.4 1879.69  65
  -7  -2   1 72106.5 1949.68  29
  -7  -2   0 7340.91 319.813  26
  -7  -2   0 6408.40 355.034  51
  -7  -2   0 4715.63 465.201   1
  -7  -2   0 7595.26 396.186  41
  -7  -2   0 6338.56 323.531  34
  -7  -2   0 6314.63 349.241  66
  -7  -2   0 7812.73 364.567  31
  -7  -2   0 7217.48 347.952  62
  -7  -2   0 6299.96 296.762   4
  -7  -2  -1 11923.6 532.461  48
  -7  -2  -1 14700.4 545.636  43
  -7  -2  -1 13358.7 555.063  41
  -7  -2  -1 10897.2 673.196   1
  -7  -2  -1 14593.0 514.531  34
  -7  -2  -1 12100.7 538.987  66
  -7  -2  -1 14568.8 554.125  31
  -7  -2  -1 11970.4 466.725   4
  -7  -2  -1 14240.4 553.012  62
  -7  -2  -1 13782.1 564.675  29
  -7  -2  -1 13667.3 552.137  58
  -7  -2  -2 234.338 118.214  48
  -7  -2  -2 292.753 122.653  43
  -7  -2  -2 410.200 122.301  41
  -7  -2  -2 213.675 195.426   1
  -7  -2  -2 290.495 120.687  66
  -7  -2  -2 291.655 121.092  29
  -7  -2  -2 189.429 115.008  58
  -7  -2  -3 264.910 207.504   1
  -7  -2  -3 176.514 128.895   3
  -7  -2  -3 186.564 119.463  43
  -7  -2  -3-11.0593 89.7569  41
  -7  -2  -3 148.368 98.3700  29
  -7  -2  -3 110.139 100.121  59
  -7  -2  -3 126.192 105.248  58
  -7  -2  -4 9933.94 393.504   3
  -7  -2  -4 8774.30 560.084   9
  -7  -2  -4 11194.3 468.812  43
  -7  -2  -4 8685.31 534.936   8
  -7  -2  -4 10220.7 652.665   1
  -7  -2  -4 10657.2 462.724  59
  -7  -2  -4 10879.0 441.747  58
  -7  -2  -5-47.5127 90.6511  47
  -7  -2  -5 57.1142 108.984  43
  -7  -2  -5-13.2040 197.446   9
  -7  -2  -5 192.584 210.119   8
  -7  -2  -5 84.5015 120.962  59
  -7  -2  -6 4349.48 279.212  23
  -7  -2  -6 3437.26 245.414  47
  -7  -2  -6 3970.09 240.079  43
  -7  -2  -6 3288.86 407.554   8
  -7  -2  -6 3920.83 286.268  59
   7   2   7 6053.71 291.778  55
  -7  -2  -7 6380.41 333.398  23
  -7  -2  -7 6757.29 379.500  59
   7   2   8 44.2681 115.109  55
   7   2   8 29.9532 120.390  18
   7   2   9 32987.0 937.388  55
  -7  -2  -9 32633.7 991.450  47
   7   2   9 29753.1 936.646   6
   7   2   9 28086.5 937.812  18
  -7  -2  -9 35054.7 1020.80  59
   7   2  10 11106.8 358.493  55
  -7  -2 -10 10256.8 368.177  47
   7   2  10 11452.3 383.930  38
  -7  -2 -10 10994.8 388.712  59
  -7  -3   5 1690.99 132.304  49
  -7  -3   5 1893.58 113.469  36
  -7  -3   4 6346.55 295.977  49
  -7  -3   4 6371.61 276.504  36
  -7  -3   3 4543.43 267.549  49
  -7  -3   3 4729.64 249.765  36
  -7  -3   3 4680.56 273.368  28
  -7  -3   2 8696.29 386.001  49
  -7  -3   2 8015.39 354.639   5
  -7  -3   2 8906.27 368.810  36
  -7  -3   2 9078.87 426.216  58
  -7  -3   1 1084.12 142.961  26
  -7  -3   1 1025.15 164.286  49
  -7  -3   1 1132.67 141.585   5
  -7  -3   1 956.616 131.008  39
  -7  -3   1 1061.68 132.533  36
  -7  -3   1 1145.50 163.913  34
  -7  -3   1 1201.02 167.117  29
  -7  -3   0 70130.4 1963.76  26
  -7  -3   0 60200.1 1926.81  49
  -7  -3   0 70983.5 2032.77  41
  -7  -3   0 70354.4 1923.21  39
  -7  -3   0 77184.6 2014.79  34
  -7  -3   0 64574.1 1974.42  62
  -7  -3   0 73972.3 2045.75  58
  -7  -3  -1 39547.8 1252.70  48
  -7  -3  -1 31542.5 1353.80   1
  -7  -3  -1 41537.4 1285.90  41
  -7  -3  -1 46239.4 1262.65  34
  -7  -3  -1 41966.7 1263.64  62
  -7  -3  -1 45231.2 1291.07  29
  -7  -3  -1 38256.0 1143.65   4
  -7  -3  -1 38386.9 1261.48  58
  -7  -3  -2 84.3245 147.568   1
  -7  -3  -2 99.9883 113.190  48
  -7  -3  -2 101.865 108.329  43
  -7  -3  -2 196.522 119.689  62
  -7  -3  -2 227.845 119.028  29
  -7  -3  -2 150.277 109.737  58
  -7  -3  -2 65.1638 91.1668   4
  -7  -3  -3 2686.37 215.287  48
  -7  -3  -3 2242.63 156.458   3
  -7  -3  -3 2880.00 219.371  43
  -7  -3  -3 2683.32 183.376  33
  -7  -3  -3 2989.16 211.765  29
  -7  -3  -3 2874.91 209.761  58
  -7  -3  -4 20862.3 688.140   3
  -7  -3  -4 22564.2 763.465  47
  -7  -3  -4 26610.4 831.913  43
  -7  -3  -4 19968.4 925.728   1
  -7  -3  -4 23448.9 766.029  33
  -7  -3  -4 24212.9 765.394  29
  -7  -3  -4 23654.5 804.070  59
  -7  -3  -4 24593.8 781.786  58
  -7  -3  -5 538.323 127.656  47
  -7  -3  -5 617.182 125.448   3
  -7  -3  -5 678.122 136.405  43
  -7  -3  -5 584.102 207.799   9
  -7  -3  -5 585.864 149.902  59
  -7  -3  -6 41948.5 1323.66  47
  -7  -3  -6 40371.7 1288.49  43
   7   3   7 10602.5 407.296  55
  -7  -3  -7 11090.4 485.692  47
   7   3   7 9542.98 747.849  12
   7   3   8 15.0208 113.549  55
  -7  -3  -8 92.1990 128.373  47
   7   3   9 63.9527 110.959  55
  -7  -3  -9 90.1825 120.523  47
   7   3   9 53.4121 84.5500   6
   7   3   9 42.4656 118.590  18
  -7  -3  -9 166.564 122.265  59
   7   3  10 52.7454 93.5703  55
  -7  -3 -10 85.0967 92.4543  47
   7   3  10-9.79048 96.9619  18
   7   3  10 44.5960 116.320  38
  -7  -3 -10 95.0703 89.0440  59
  -7  -3 -11 4892.34 193.439  47
   7   3  11 4919.17 183.920  38
  -7  -3 -11 4493.35 178.333  59
  -7  -4   4 4632.90 211.593  36
  -7  -4   4 4781.91 225.802  35
  -7  -4   3 2000.28 194.285  49
  -7  -4   3 2192.72 168.742  36
  -7  -4   2 4384.48 275.858  49
  -7  -4   2 4253.09 242.688  36
  -7  -4   1 3761.14 266.546  24
  -7  -4   1 3625.62 256.987  49
  -7  -4   1 3319.87 224.400  39
  -7  -4   1 3773.64 221.787  36
  -7  -4   1 3559.18 226.938  67
  -7  -4   1 3432.16 248.690  28
  -7  -4   0 5668.65 303.528  26
  -7  -4   0 6160.57 295.076  39
  -7  -4   0 6272.40 335.372  34
  -7  -4   0 5213.04 311.931  31
  -7  -4   0 5892.45 347.273  58
  -7  -4  -1 348.989 127.314  26
  -7  -4  -1 211.115 117.369  34
  -7  -4  -1 339.684 126.460  31
  -7  -4  -1 330.498 126.391  62
  -7  -4  -1 271.897 123.150  29
  -7  -4  -1 202.585 128.027  58
  -7  -4  -2 19072.6 719.188  48
  -7  -4  -2 20912.3 750.490  31
  -7  -4  -2 20004.9 729.637  58
  -7  -4  -3 17461.2 641.458  48
  -7  -4  -3 16873.1 614.991  33
  -7  -4  -3 16855.0 637.706  29
  -7  -4  -3 17680.3 637.146  58
  -7  -4  -4 934.200 143.063  48
  -7  -4  -4 1085.71 143.051  47
  -7  -4  -4 1165.97 156.410  33
  -7  -4  -4 1225.93 171.837  62
  -7  -4  -4 912.110 132.811  29
  -7  -4  -5 11740.0 485.819  47
  -7  -4  -5 12311.6 506.612  59
   7   4   6 959.005 290.648  12
  -7  -4  -6 1149.58 166.920  47
   7   4   7 3592.93 214.486  55
  -7  -4  -7 4117.01 279.388  47
   7   4   7 3649.87 497.566  12
   7   4   8 5506.73 272.779  55
  -7  -4  -8 5841.44 341.829  47
  -7  -4  -8 5748.51 349.987  59
   7   4   9 3.48025 111.320  55
  -7  -4  -9 108.307 126.684  47
  -7  -4  -9 11.3916 121.780  59
  -7  -4 -10 465.415 121.274  47
   7   4  10 381.172 118.781  18
  -7  -4 -10 456.815 108.427  59
  -7  -4 -11 528.206 88.9568  47
   7   4  11 473.414 99.1174  38
  -7  -5   4 551.402 85.4895  49
  -7  -5   4 545.148 66.0212  36
  -7  -5   3 20359.1 636.573  36
  -7  -5   3 19931.8 625.332  35
  -7  -5   2 314.652 144.062  24
  -7  -5   2 432.931 114.979  36
  -7  -5   2 230.571 139.488  67
  -7  -5   1 20636.5 728.113  24
  -7  -5   1 22220.1 735.364  49
  -7  -5   1 21020.0 703.788  39
  -7  -5   1 22591.3 702.100  36
  -7  -5   1 19329.8 672.785  67
  -7  -5   1 19517.9 719.509  28
  -7  -5   0 3567.22 250.706  26
  -7  -5   0 3747.63 238.447  39
  -7  -5   0 3743.72 218.172  36
  -7  -5   0 3489.16 268.786  58
  -7  -5   0 3572.78 252.340  28
  -7  -5  -1 6051.70 320.800  26
  -7  -5  -1 5719.40 319.521  31
  -7  -5  -1 6193.51 347.415  58
  -7  -5  -1 6255.16 328.191  28
  -7  -5  -2 135.012 122.103  31
  -7  -5  -2 48.1535 114.565  58
  -7  -5  -3 3754.33 242.925  48
  -7  -5  -3 4294.84 259.250  33
  -7  -5  -3 4263.52 277.611  62
  -7  -5  -3 4346.27 261.537  58
  -7  -5  -4 39364.1 1150.12  33
  -7  -5  -4 36396.4 1154.95  62
  -7  -5  -5 302.259 117.190  47
  -7  -5  -5 284.395 131.195  33
  -7  -5  -5 165.463 114.544  62
  -7  -5  -6 5141.45 308.199  47
  -7  -5  -6 5058.07 303.324  62
  -7  -5  -7 18734.6 713.025  47
  -7  -5  -7 19779.4 694.561  62
   7   5   7 17138.1 1123.80  12
  -7  -5  -7 19318.4 725.838  59
  -7  -5  -8 47209.4 1479.82  47
  -7  -5  -8 48205.7 1480.90  59
  -7  -5  -9 2433.56 229.612  47
  -7  -5  -9 2293.42 208.513  59
  -7  -5 -10 4509.48 240.914  59
   7   5  11-51.1856 80.9352  18
  -7  -6   3 2985.85 160.230  49
  -7  -6   3 3042.46 146.276  36
  -7  -6   3 2715.04 148.742  35
  -7  -6   2 5413.37 250.981  36
  -7  -6   2 5278.38 255.201  35
  -7  -6   2 4860.54 249.927  67
  -7  -6   1 552.160 142.387  24
  -7  -6   1 498.294 142.073  39
  -7  -6   1 614.743 122.275  36
  -7  -6   1 658.664 169.026  67
  -7  -6   0 15851.8 567.807  24
  -7  -6   0 14592.1 549.351  39
  -7  -6   0 15751.2 586.961  34
  -7  -6   0 13932.0 531.983  67
  -7  -6   0 14266.2 558.037  28
  -7  -6  -1 8405.35 377.092  39
  -7  -6  -1 8205.79 395.056  34
  -7  -6  -2 4999.60 249.871  44
  -7  -6  -2 5703.41 318.473  34
  -7  -6  -2 4867.72 286.389  31
  -7  -6  -2 5410.55 277.791  28
  -7  -6  -3 29294.3 915.138  26
  -7  -6  -3 26099.2 840.930  44
  -7  -6  -3 26784.7 889.135  33
  -7  -6  -3 30396.7 912.447  31
  -7  -6  -3 23534.8 870.824  58
  -7  -6  -4 29123.0 911.400  44
  -7  -6  -4 29055.8 953.426  33
  -7  -6  -4 30993.8 964.983  31
  -7  -6  -5 6181.50 309.337  44
  -7  -6  -5 5928.17 337.136  33
  -7  -6  -5 5982.16 322.988  62
  -7  -6  -6 2720.87 229.025  47
  -7  -6  -6 2657.38 210.122  44
   7   6   6 2306.24 202.654  38
  -7  -6  -6 2625.90 230.810  33
  -7  -6  -6 2449.63 205.186  62
  -7  -6  -7 60827.0 1810.70  47
   7   6   7 63220.5 1786.80  38
  -7  -6  -7 58201.0 1745.92  62
   7   6   8 85512.0 2443.13  38
   7   6   9 7425.25 375.395  38
   7   6  10 2570.42 218.115  38
  -7  -6 -11 2871.33 170.641  47
   7   6  11 2783.63 185.257  38
   7   6  12 45.7389 46.5615  38
  -7  -7   2 1232.39 118.609  49
  -7  -7   2 1096.57 99.0680  36
  -7  -7   2 1006.24 105.288  35
  -7  -7   1 2009.85 156.215  36
  -7  -7   1 1872.22 171.051  35
  -7  -7   1 1816.42 181.835  67
  -7  -7   0 14076.0 511.173  24
  -7  -7   0 14328.3 520.952  67
  -7  -7  -1 910.343 148.823  24
  -7  -7  -1 926.298 150.841  34
  -7  -7  -1 557.380 137.126  28
  -7  -7  -2 941.653 166.899  26
  -7  -7  -2 1118.24 149.837  24
  -7  -7  -2 1187.08 138.741  44
  -7  -7  -2 1342.36 169.933  34
  -7  -7  -2 891.903 134.484  28
  -7  -7  -3 117.375 116.645  26
  -7  -7  -3 127.398 94.5332  44
  -7  -7  -3 46.6535 98.4729  31
  -7  -7  -4 23562.1 809.572  26
  -7  -7  -4 24750.5 792.498  44
  -7  -7  -4 23183.0 786.449  31
  -7  -7  -5 58128.5 1661.80  26
  -7  -7  -5 54882.9 1631.51  44
  -7  -7  -5 54577.4 1627.53  31
  -7  -7  -6 409.746 137.971  44
  -7  -7  -7 58322.4 1621.61  44
   7   7   7 51149.0 1579.87  38
  -7  -7  -8 106209. 2865.60  44
   7   7   8 99241.7 2858.98  38
   7   7   9 485.196 161.779  38
  -7  -7 -10 40.5780 98.8835  47
   7   7  10 117.183 130.527  38
  -7  -7 -11 6045.63 258.539  47
  -7  -7 -11 5175.66 238.943  44
   7   7  11 7345.36 284.736  38
  -7  -7 -11 6446.39 266.176  33
   7   7  11 6469.31 266.435  30
  -7  -7 -12 2882.61 116.873  33
  -7  -8   1 1587.24 122.793  49
  -7  -8   1 1236.62 92.9905  35
  -7  -8   1 1474.87 133.181  67
  -7  -8   0 16376.5 541.371  49
  -7  -8   0 14971.2 523.364  67
  -7  -8  -1 11350.8 429.966  34
  -7  -8  -2 4.31925 95.8943  44
  -7  -8  -2 126.695 132.453  39
  -7  -8  -2 115.354 99.3068  34
  -7  -8  -3 559.268 136.436  26
  -7  -8  -3 479.180 118.284  44
  -7  -8  -3 447.272 123.710  34
  -7  -8  -4 357.601 117.922  26
  -7  -8  -4 478.513 118.362  44
  -7  -8  -5 1139.04 146.996  26
  -7  -8  -5 1097.39 146.409  44
  -7  -8  -6 1987.78 170.479  26
  -7  -8  -6 2000.49 189.044  44
  -7  -8  -6 1727.18 191.584  33
  -7  -8  -7 55947.6 1630.53  26
  -7  -8  -7 60565.9 1690.96  44
  -7  -8  -7 56439.1 1697.36  33
  -7  -8  -8 640.962 139.954  44
   7   8   8 725.091 146.057  38
  -7  -8  -8 947.311 159.647  33
  -7  -8  -9 6691.07 319.762  44
   7   8   9 6233.93 315.839  38
  -7  -8  -9 6148.80 323.769  33
  -7  -8 -10 2291.02 172.965  44
   7   8  10 2695.88 196.937  38
  -7  -8 -10 2548.33 180.460  33
  -7  -8 -11 10059.7 349.023  33
   7   8  11 10431.7 362.545  30
  -7  -9   0 2913.22 141.433  49
  -7  -9  -1 88.3632 111.937  49
  -7  -9  -2 1966.62 171.363  39
  -7  -9  -3 7793.29 331.944  44
  -7  -9  -3 7496.68 329.819  39
  -7  -9  -3 7095.65 311.203  34
  -7  -9  -4 4440.21 243.352  44
  -7  -9  -4 4280.19 238.547  34
  -7  -9  -5 42.3676 87.3719  26
  -7  -9  -5 51.8464 97.0608  44
  -7  -9  -6 104.173 82.0557  26
  -7  -9  -6 58.2051 100.795  44
  -7  -9  -6 136.976 106.919  33
   7   9   6 15.0508 114.688  30
  -7  -9  -7 29829.8 955.105  33
   7   9   7 28810.7 978.678  30
  -7  -9  -8 25723.2 850.677  33
   7   9   8 25726.6 891.322  30
  -7  -9  -9 11070.2 403.832  44
   7   9   9 8977.85 367.003  38
  -7  -9  -9 9714.34 389.287  33
   7   9   9 10482.9 441.492  30
  -7  -9 -10 1244.61 123.128  44
   7   9  10 1160.47 130.747  38
  -7  -9 -10 1126.72 114.390  33
  -7  -9 -11 4091.65 173.026  44
  -7  -9 -11 4113.15 167.333  33
  -7 -10  -3 793.382 111.341  39
   7  10   3 529.636 86.8598  61
  -7 -10  -4 1164.13 122.492  44
  -7 -10  -4 1159.57 125.727  39
  -7 -10  -4 781.305 86.0242  34
  -7 -10  -5 1070.04 122.588  44
  -7 -10  -5 1069.72 125.036  39
  -7 -10  -5 796.464 96.7715  34
  -7 -10  -6 9750.12 348.555  44
  -7 -10  -6 7144.34 306.019  34
  -7 -10  -7 739.681 116.831  44
   7  10   7 528.172 118.143  30
  -7 -10  -8 6031.50 268.122  44
   7  10   8 5905.61 287.008  30
  -7 -10  -9 81.3907 75.9538  44
  -7 -10  -9-9.72296 60.1109  33
   7  10   9 44.8482 100.582  30
  -7 -10 -10 2350.06 133.537  44
   7  10  10 2888.10 162.863  30
  -7 -11  -3 3234.74 124.315  67
  -7 -11  -4 18815.3 552.235  67
  -7 -11  -5 4667.77 193.564  44
   7  11   5 3638.74 190.572  61
  -7 -11  -6 332.965 76.6240  44
   7  11   6 259.917 90.8739  61
  -7 -11  -7 1744.36 121.022  44
  -7 -11  -8 104.475 61.4450  44
   7  11   8 121.213 55.3036  30
   7  11   9 4666.97 178.223  30
   7  11   9 4164.39 170.470  61
  -8   5   1 2069.36 95.7194  29
  -8   5   0 179.266 44.5018  58
  -8   5  -1 3646.97 115.021  43
  -8   5  -1 1791.35 101.183  58
  -8   4   3 1929.46 113.869  41
  -8   4   2 1709.46 119.605  41
  -8   4   2 1939.86 140.525  66
  -8   4   2 1763.14 130.452  29
  -8   4   1 476.860 79.8090  41
  -8   4   1 569.730 105.380  66
  -8   4   1 428.018 92.8456  29
  -8   4   1 456.698 88.2855  58
  -8   4   0 7214.81 274.573  43
  -8   4   0 7443.70 297.755  66
  -8   4   0 7317.95 260.253   4
  -8   4  -1 6563.46 262.066  43
  -8   4  -1 6676.97 233.730   4
  -8   4  -1 6911.78 279.703  58
  -8   4  -2 3911.73 198.702  58
  -8   4  -3 486.648 76.9643  43
  -8   4  -3 397.703 72.3460  58
  -8   3   4 259.957 51.5812  29
  -8   3   3 16224.8 550.426  41
  -8   3   3 16274.5 552.410  66
  -8   3   3 17303.4 551.386  29
  -8   3   2 5744.23 276.454  41
  -8   3   2 6253.73 290.077  29
  -8   3   1 731.694 124.599  41
  -8   3   1 787.909 131.062  58
  -8   3   0 70.1032 100.768  20
  -8   3   0 138.991 93.2039  43
  -8   3   0 151.225 90.8461  41
  -8   3   0 251.811 121.229  66
  -8   3   0 69.4551 108.604   4
  -8   3  -1 15769.2 566.933  48
  -8   3  -1 19609.4 629.572  43
  -8   3  -1 15564.1 552.744  41
  -8   3  -1 19558.5 644.686  66
  -8   3  -1 19213.6 580.725   4
  -8   3  -1 19115.3 650.679  58
  -8   3  -2 317.001 95.7886  48
  -8   3  -2 267.237 100.943  20
  -8   3  -2 188.421 74.3745  29
  -8   3  -2 299.615 110.556   4
  -8   3  -3 3635.72 226.104  43
  -8   3  -3 4022.95 199.417   4
  -8   3  -4 1562.65 116.841   3
  -8   3  -4 1675.47 127.692  43
  -8   3  -5-29.8314 41.7080  43
  -8   2   4 674.476 96.3438  41
  -8   2   4 707.950 79.2977  29
  -8   2   3 665.989 120.748  66
  -8   2   3 455.239 94.8448  58
  -8   2   2 23604.4 820.894  51
  -8   2   2 24751.6 828.673  41
  -8   2   2 24709.3 836.702  66
  -8   2   2 24823.8 793.389  58
  -8   2   1 2729.21 173.397  48
  -8   2   1 2780.38 184.488  43
  -8   2   1 3031.81 242.114  41
  -8   2   0 2868.79 195.183  48
  -8   2   0 3071.97 222.015  20
  -8   2   0 2776.91 209.410  43
  -8   2   0 2755.58 216.711  41
  -8   2  -1 4293.11 258.414  48
  -8   2  -1 4923.64 293.844  43
  -8   2  -1 3577.05 244.024  41
  -8   2  -1 4230.43 300.994  66
  -8   2  -1 5077.16 320.708  58
  -8   2  -2 4082.66 267.537  20
  -8   2  -2 4355.92 282.180  66
  -8   2  -3 20906.9 748.751  43
  -8   2  -4 2628.69 198.375  43
  -8   2  -5 8027.77 259.208   3
  -8   2  -5 7369.78 276.756  43
   8  -2   6 514.429 83.3576  55
  -8   2  -6 704.631 86.0151   3
  -8   2  -6 518.586 53.9697  43
   8  -2   7 14.0086 35.3369   6
  -8   1   4 1140.48 110.771  41
  -8   1   3 1436.48 158.477  51
  -8   1   3 1419.27 157.636  41
  -8   1   3 1039.95 126.425  66
  -8   1   3 1462.46 147.481  29
  -8   1   3 1144.16 127.135  58
  -8   1   2 9041.45 396.125  66
  -8   1   2 7528.99 363.520  58
  -8   1   1 54439.6 1547.24  41
  -8   1   1 52230.6 1552.31  66
  -8   1   1 56149.6 1526.86  58
  -8   1   0 36236.1 1166.62  48
  -8   1   0 38824.7 1187.53  43
  -8   1   0 34791.9 1127.21  62
  -8   1   0 39319.0 1143.15   4
  -8   1  -1 65640.9 1949.77  48
  -8   1  -1 63654.3 1953.68  20
  -8   1  -1 67867.5 1959.71  43
  -8   1  -1 67868.7 1967.38  41
  -8   1  -1 68581.6 2017.63  66
  -8   1  -1 68296.9 1901.57   4
  -8   1  -1 68785.5 1997.49  58
  -8   1  -2 10975.2 472.933  41
  -8   1  -2 13542.6 557.073  66
  -8   1  -2 11703.0 499.731  29
  -8   1  -2 13093.4 545.517  58
  -8   1  -3 121126. 2835.21  43
  -8   1  -3 86739.0 2693.06  29
  -8   1  -4 6433.60 341.181  43
  -8   1  -5 181.850 109.648  23
  -8   1  -5 201.094 109.947  43
  -8   1  -5 136.575 93.5791  58
  -8   1  -6 13163.0 448.067  43
   8  -1   7 73.0372 74.7120  55
  -8   1  -7 37.2331 77.2496   3
   8  -1   8-17.0268 35.2044   6
  -8   0   3 331.398 108.604  41
  -8   0   3 346.652 103.527  29
  -8   0   3 348.678 89.0555  28
  -8   0   3 424.385 108.701  58
  -8   0   2 1312.73 180.888  51
  -8   0   2 1904.86 194.634  41
  -8   0   2 1269.32 158.675  66
  -8   0   2 1602.45 180.516  29
  -8   0   2 1758.12 190.124  58
  -8   0   1 48170.1 1555.42  51
  -8   0   1 53296.7 1454.58  24
  -8   0   1 46039.8 1538.05  66
  -8   0   1 53906.6 1556.57  58
  -8   0   0 36955.0 1118.03  48
  -8   0   0 34825.6 1091.30  43
  -8   0   0 33102.6 1135.29  41
  -8   0   0 35365.3 1163.25  66
  -8   0   0 33683.0 1036.91  31
  -8   0   0 33120.6 1058.69  62
  -8   0   0 35283.6 1142.66  29
  -8   0   0 34618.8 1049.12   4
  -8   0  -1 18667.1 692.448  48
  -8   0  -1 17328.7 664.426  43
  -8   0  -1 20074.8 709.506  41
  -8   0  -1 16439.4 605.110  31
  -8   0  -1 16570.0 613.844   4
  -8   0  -1 17895.3 700.204  29
  -8   0  -1 18351.9 693.623  58
  -8   0  -2 44225.8 1363.43  41
  -8   0  -2 46471.8 1374.86  29
  -8   0  -2 45638.7 1392.51  58
  -8   0  -3 847.191 192.600   3
  -8   0  -3 467.921 137.571  29
  -8   0  -3 696.088 184.990  58
  -8   0  -4 2032.99 198.141   3
  -8   0  -4 1861.80 206.033  43
  -8   0  -4 1517.63 146.080  59
  -8   0  -4 2028.40 198.364  58
  -8   0  -5 49049.3 1326.52   3
  -8   0  -5 51633.3 1409.32  23
  -8   0  -5 49112.2 1397.34  43
  -8   0  -5 43095.5 1352.14  59
  -8   0  -5 39254.1 1331.63  58
  -8   0  -6 25490.1 744.591   3
  -8   0  -6 23082.8 766.977  43
  -8   0  -6 23196.6 783.401  59
   8   0   7 476.060 110.716  55
  -8   0  -7 467.620 114.507   3
  -8   0  -7 624.434 117.053  59
   8   0   8 27111.8 754.074  55
   8   0   8 26480.1 771.693   6
  -8   0  -8 25189.4 772.184  59
  -8  -1   3 31065.9 871.781  24
  -8  -1   3 30201.6 899.070  58
  -8  -1   3 29725.0 867.293  28
  -8  -1   2 17834.5 568.261  24
  -8  -1   2 13822.9 580.519  41
  -8  -1   2 15277.9 586.786  29
  -8  -1   2 16385.2 603.970  58
  -8  -1   2 16608.7 567.371  28
  -8  -1   1 27426.8 897.178  41
  -8  -1   1 22960.4 833.394  66
  -8  -1   0 25839.3 855.183  48
  -8  -1   0 22142.7 798.954  43
  -8  -1   0 22973.8 857.714  66
  -8  -1   0 25700.5 808.829  31
  -8  -1   0 25004.1 812.808  62
  -8  -1   0 22692.8 764.218   4
  -8  -1  -1 18392.8 665.786  43
  -8  -1  -1 16229.7 676.294  41
  -8  -1  -1 15593.4 881.394   1
  -8  -1  -1 17471.2 698.346  66
  -8  -1  -1 17804.5 641.526  31
  -8  -1  -1 19868.4 688.686  62
  -8  -1  -1 17440.2 607.864   4
  -8  -1  -1 18030.1 688.849  29
  -8  -1  -1 17869.4 677.789  58
  -8  -1  -2 3388.60 258.231  43
  -8  -1  -2 3448.93 256.036  41
  -8  -1  -2 3279.93 230.097   4
  -8  -1  -2 3023.80 395.758   1
  -8  -1  -2 3522.80 255.512  29
  -8  -1  -2 3677.49 264.269  58
  -8  -1  -3 9260.59 383.562   3
  -8  -1  -3 9164.15 409.635  29
  -8  -1  -3 8592.73 634.463   1
  -8  -1  -3 9615.31 441.756  58
  -8  -1  -4 2625.92 208.371   3
  -8  -1  -4 2227.76 191.823  59
  -8  -1  -4 2716.80 218.746  58
  -8  -1  -5 11761.0 432.008   3
  -8  -1  -5 12699.6 497.461  43
  -8  -1  -5 10836.9 466.416  59
  -8  -1  -5 10125.2 428.864  58
  -8  -1  -6 8253.96 342.649   3
  -8  -1  -6 7817.68 357.636  43
  -8  -1  -6 8138.24 389.780  59
  -8  -1  -7 3271.23 205.215   3
   8   1   7 3672.38 197.603  55
  -8  -1  -7 3787.26 255.165  59
   8   1   8 2665.07 160.180  55
  -8  -1  -8 2931.43 195.842  59
   8   1   9 9181.81 290.574  55
   8   1   9 8356.70 287.618   6
  -8  -1  -9 9080.80 319.317  59
  -8  -2   3 425.315 114.362  24
  -8  -2   3 496.156 126.189  35
  -8  -2   3 561.192 119.218  28
  -8  -2   2 6285.02 306.628  24
  -8  -2   2 6384.63 282.229  35
  -8  -2   2 5421.80 300.027  29
  -8  -2   2 6485.93 332.574  58
  -8  -2   2 6440.29 303.641  28
  -8  -2   1 12529.0 486.066  24
  -8  -2   1 11780.9 508.274  41
  -8  -2   1 12725.5 514.864  29
  -8  -2   0 30858.2 924.823  26
  -8  -2   0 28839.7 945.603  34
  -8  -2   0 31022.2 979.187  31
  -8  -2   0 30962.4 969.921  62
  -8  -2  -1 207.580 110.547  26
  -8  -2  -1 272.315 218.499   1
  -8  -2  -1 325.472 125.332  43
  -8  -2  -1 256.510 98.1278  34
  -8  -2  -1 195.410 134.856  31
  -8  -2  -1 277.472 135.156  62
  -8  -2  -1 301.533 138.501  29
  -8  -2  -1 550.242 163.815  58
  -8  -2  -1 244.554 127.701   4
  -8  -2  -2 14078.0 577.919  48
  -8  -2  -2 14084.7 562.138  43
  -8  -2  -2 13370.7 562.240  41
  -8  -2  -2 11380.2 719.487   1
  -8  -2  -2 13759.2 501.964  34
  -8  -2  -2 14847.5 576.359  31
  -8  -2  -2 13615.5 494.109   4
  -8  -2  -2 16510.2 614.708  62
  -8  -2  -2 12448.3 547.297  29
  -8  -2  -2 14322.2 570.062  58
  -8  -2  -3 35291.4 1135.12  48
  -8  -2  -3 33838.5 1033.55  34
  -8  -2  -3 34405.2 1085.40  29
  -8  -2  -3 35920.2 1113.09  58
  -8  -2  -4 434.321 236.301   1
  -8  -2  -4 691.641 150.924   3
  -8  -2  -4 803.244 162.258  43
  -8  -2  -4 529.263 106.810  29
  -8  -2  -4 621.998 140.152  59
  -8  -2  -4 680.198 141.657  58
  -8  -2  -5 520.424 140.560   3
  -8  -2  -5 521.035 138.139  43
  -8  -2  -5 655.264 141.227  59
  -8  -2  -6 56.1409 125.333   3
  -8  -2  -6 34.4424 102.666  43
  -8  -2  -6 18.3587 118.662  59
   8   2   7 121.816 102.384  55
  -8  -2  -7 178.311 126.818   3
  -8  -2  -7 288.242 134.286  59
   8   2   8 2.72285 93.7530  55
  -8  -2  -8 84.2839 110.279   3
  -8  -2  -8 97.3825 114.915  59
   8   2   9 16.6985 79.4412  55
   8   2   9-6.22425 62.4599   6
   8   2  10 885.831 78.6218  38
  -8  -2 -10 1032.01 77.6126  59
  -8  -3   3 12115.3 403.528  49
  -8  -3   3 10641.3 394.995  35
  -8  -3   2 4280.89 254.529  24
  -8  -3   2 3751.78 218.104  49
  -8  -3   2 4027.87 244.764  35
  -8  -3   2 3823.20 252.702  58
  -8  -3   2 4207.08 241.002  28
  -8  -3   1 89334.4 2428.11  24
  -8  -3   1 86137.1 2366.71  49
  -8  -3   1 83903.5 2437.34  29
  -8  -3   0 13784.0 499.821  26
  -8  -3   0 12597.5 469.540  49
  -8  -3   0 13785.5 532.383  34
  -8  -3   0 14324.8 543.729  31
  -8  -3  -1 5532.52 290.159  26
  -8  -3  -1 4887.74 306.259  48
  -8  -3  -1 6572.54 313.229  34
  -8  -3  -1 5868.31 324.952  31
  -8  -3  -1 5280.23 310.277  62
  -8  -3  -1 6123.89 339.480  29
  -8  -3  -1 5760.73 333.999  58
  -8  -3  -2 16827.2 630.554  48
  -8  -3  -2 17242.0 590.617  34
  -8  -3  -2 17689.2 639.979  62
  -8  -3  -2 15039.7 606.843  29
  -8  -3  -2 14081.6 500.397   4
  -8  -3  -2 15817.3 617.622  58
  -8  -3  -3 11187.4 481.123  48
  -8  -3  -3 12334.6 476.410  29
  -8  -3  -3 11169.8 470.892  58
  -8  -3  -4 24257.2 833.550  48
  -8  -3  -4 27169.6 860.225  43
  -8  -3  -4 27011.1 802.903  29
  -8  -3  -4 24907.9 813.083  58
  -8  -3  -5 5757.67 254.049   3
  -8  -3  -5 6023.72 331.930  59
  -8  -3  -6 5846.89 252.443   3
  -8  -3  -6 5542.58 290.845  47
  -8  -3  -6 5964.65 311.449  43
  -8  -3  -6 6018.64 285.713  33
  -8  -3  -6 6647.18 354.702  59
  -8  -3  -7 17532.6 553.074   3
  -8  -3  -7 16911.1 618.516  47
  -8  -3  -7 16928.4 596.942  33
   8   3   8 1150.10 125.880  55
  -8  -3  -8 1181.90 149.475  47
   8   3   8 1230.45 142.769  18
   8   3   9 484.510 94.3278  55
  -8  -3  -9 435.466 98.3528  47
   8   3   9 324.281 96.9040  18
  -8  -3  -9 615.834 126.299  59
  -8  -3 -10 508.107 81.7833  59
  -8  -4   3 5703.52 232.486  49
  -8  -4   2 68.4724 111.288  49
  -8  -4   1-14.2984 122.965  49
  -8  -4   0 6725.72 322.188  26
  -8  -4   0 7217.54 318.540  49
  -8  -4   0 6894.38 297.824  39
  -8  -4   0 6946.69 354.661  34
  -8  -4   0 6968.58 373.405  58
  -8  -4   0 7145.78 344.523  28
  -8  -4  -1 2406.34 195.912  26
  -8  -4  -1 2716.43 196.291  49
  -8  -4  -1 2445.39 184.176  39
  -8  -4  -1 3003.32 222.067  34
  -8  -4  -1 2358.40 216.610  29
  -8  -4  -1 2970.08 239.114  58
  -8  -4  -2 10389.2 435.640  26
  -8  -4  -2 8786.70 420.236  48
  -8  -4  -2 10567.8 440.474  34
  -8  -4  -2 9894.03 446.433  62
  -8  -4  -2 7986.43 416.224  29
  -8  -4  -2 11288.0 464.953  58
  -8  -4  -3 412.376 131.926  48
  -8  -4  -3 477.779 130.342  29
  -8  -4  -3 468.760 130.073  58
  -8  -4  -4 1151.89 161.702  48
  -8  -4  -4 1445.18 147.767  33
  -8  -4  -4 1772.30 201.638  62
  -8  -4  -4 1336.02 156.655  58
  -8  -4  -5 1911.03 192.001  48
  -8  -4  -5 2065.12 180.567  33
  -8  -4  -5 2056.72 220.630  62
  -8  -4  -6 497.069 119.246  48
  -8  -4  -6 543.744 129.333  47
  -8  -4  -6 324.908 115.824  33
  -8  -4  -6 484.919 151.466  62
  -8  -4  -6 592.045 143.172  59
  -8  -4  -7 6288.86 293.684  48
  -8  -4  -7 5982.95 319.053  47
  -8  -4  -7 5975.44 313.907  33
  -8  -4  -8 4268.26 263.355  47
  -8  -4  -8 4758.78 246.559  62
  -8  -4  -9 4796.41 258.157  47
   8   4   9 4319.45 238.901  18
  -8  -4 -10 5165.23 230.990  47
   8   4  10 5742.75 251.667  38
  -8  -4 -10 5157.16 234.518  59
  -8  -5   3 2292.96 121.124  49
  -8  -5   2 4675.45 240.140  24
  -8  -5   2 4332.53 216.938  49
  -8  -5   1 10984.1 441.559  24
  -8  -5   1 11627.2 428.550  49
  -8  -5   1 11092.1 440.267  28
  -8  -5   0 59618.1 1699.30  24
  -8  -5   0 56135.7 1648.59  39
  -8  -5   0 53690.7 1672.80  28
  -8  -5  -1 9831.60 420.923  26
  -8  -5  -1 9836.11 398.248  39
  -8  -5  -1 9839.51 428.331  31
  -8  -5  -1 9468.04 446.071  58
  -8  -5  -1 10254.0 424.382  28
  -8  -5  -2 698.644 137.185  26
  -8  -5  -2 786.883 150.650  34
  -8  -5  -2 823.346 151.750  31
  -8  -5  -2 675.323 148.073  58
  -8  -5  -3 94.4954 128.718  31
  -8  -5  -3 50.5404 104.515  58
  -8  -5  -4 5965.20 308.465  48
  -8  -5  -4 6423.07 312.853  33
  -8  -5  -4 6023.89 340.727  62
  -8  -5  -4 5690.35 298.383  58
  -8  -5  -5 95.3474 92.4699  48
  -8  -5  -5 119.178 117.337  33
  -8  -5  -5 57.1311 116.452  62
  -8  -5  -6 12044.7 510.923  47
  -8  -5  -6 11921.7 510.703  33
  -8  -5  -7 3352.81 237.772  47
  -8  -5  -7 3286.38 237.735  33
  -8  -5  -7 3807.49 244.490  62
  -8  -5  -8 1241.11 162.183  47
  -8  -5  -8 1356.21 164.391  33
  -8  -5  -8 1037.98 126.040  62
  -8  -5  -8 1509.00 183.311  59
  -8  -5  -9 13262.4 520.030  47
   8   5   9 14873.1 528.430  38
  -8  -5 -10 4502.32 230.384  47
   8   5  10 4080.16 215.774  18
  -8  -5 -10 4746.79 227.113  33
  -8  -5 -11 371.837 59.5611  47
   8   5  11 383.360 75.2427  38
  -8  -5 -11 357.395 51.7777  33
  -8  -6   2 2548.01 143.510  49
  -8  -6   2 2504.31 141.869  35
  -8  -6   1 26543.9 791.136  24
  -8  -6   1 24765.0 777.051  49
  -8  -6   0 58474.3 1650.40  24
  -8  -6   0 54978.5 1623.78  39
  -8  -6   0 53991.6 1636.39  28
  -8  -6  -1 16501.4 629.919  26
  -8  -6  -1 18738.7 632.567  24
  -8  -6  -1 19257.2 624.781  39
  -8  -6  -1 17352.2 587.370  67
  -8  -6  -1 18954.9 629.154  28
  -8  -6  -2 9551.18 412.302  31
  -8  -6  -2 9508.00 391.299  28
  -8  -6  -3 2370.61 200.596  31
  -8  -6  -3 1984.14 187.638  58
  -8  -6  -3 2254.47 182.739  28
  -8  -6  -4 11.2368 116.692  26
  -8  -6  -4-30.5239 104.198  33
  -8  -6  -4 60.2042 117.773  31
  -8  -6  -4-14.4112 91.9108  58
  -8  -6  -5 6956.42 350.419  33
  -8  -6  -5 6459.20 343.766  62
  -8  -6  -6 3785.61 253.608  33
  -8  -6  -6 3226.65 237.673  62
   8   6   7 6765.12 327.269  38
  -8  -6  -7 7018.60 353.244  33
  -8  -6  -7 6785.46 325.800  62
  -8  -6  -8 481.427 133.825  47
   8   6   8 440.146 142.644  38
  -8  -6  -8 402.361 129.089  33
  -8  -6  -9 1277.45 155.770  47
   8   6   9 1226.01 160.318  38
  -8  -6  -9 1099.74 148.639  33
  -8  -6 -10 114.850 89.4931  47
   8   6  10 186.031 107.204  38
  -8  -6 -10 3.48886 84.0385  33
   8   6  11 8245.98 282.717  38
  -8  -6 -11 7546.18 272.092  33
  -8  -7   1 940.290 105.102  35
  -8  -7   0 542.716 109.387  24
  -8  -7   0 480.114 133.334  49
  -8  -7  -1 1495.91 151.792  24
  -8  -7  -1 1456.75 160.692  39
  -8  -7  -1 1438.55 156.578  34
  -8  -7  -1 1353.40 172.760  67
  -8  -7  -2 7678.70 338.883  24
  -8  -7  -2 8166.38 352.721  39
  -8  -7  -2 6965.00 319.732  28
  -8  -7  -3 666.993 136.360  26
  -8  -7  -3 681.513 143.382  34
  -8  -7  -3 624.499 122.479  31
  -8  -7  -3 488.252 107.456  28
  -8  -7  -4 5255.31 292.875  26
  -8  -7  -4 5284.12 278.889  31
  -8  -7  -5 4101.42 251.941  26
  -8  -7  -5 3406.57 198.395  44
  -8  -7  -5 3771.88 247.077  33
  -8  -7  -5 3542.94 231.749  31
  -8  -7  -6 5307.64 255.523  44
  -8  -7  -6 5433.97 302.414  33
  -8  -7  -6 5531.45 289.519  31
  -8  -7  -7 2159.75 167.640  44
  -8  -7  -7 2627.18 210.712  33
  -8  -7  -8 3508.72 204.913  44
   8   7   8 3709.86 224.289  38
  -8  -7  -8 4009.66 249.808  33
   8   7   9 825.336 139.145  38
  -8  -7  -9 900.176 142.477  33
   8   7  10 141.686 96.6781  38
   8   7  11 13899.2 398.334  38
   8   7  11 11100.9 385.301  30
  -8  -8   0 4532.83 173.586  35
  -8  -8  -1 9023.38 314.047  24
  -8  -8  -1 9921.85 348.080  67
  -8  -8  -2 6195.33 255.923  24
  -8  -8  -2 6634.89 294.734  34
  -8  -8  -3 2195.20 153.351  24
  -8  -8  -3 2352.05 181.239  34
  -8  -8  -4 3844.49 238.274  26
  -8  -8  -4 4201.06 248.884  34
  -8  -8  -5 1885.13 148.433  44
  -8  -8  -5 1711.97 137.954  31
  -8  -8  -6 14632.4 504.691  26
  -8  -8  -6 12867.9 473.398  44
  -8  -8  -7 3264.37 194.482  26
  -8  -8  -7 2893.04 182.826  44
  -8  -8  -8 53329.7 1435.64  26
  -8  -8  -8 48246.6 1440.01  44
  -8  -8  -9 4937.08 227.014  44
   8   8   9 5006.08 232.400  38
   8   8  10 35860.0 1060.62  38
  -8  -8 -10 39897.0 1088.88  33
   8   8  11 1430.26 85.5414  38
  -8  -8 -11 1535.26 88.8864  33
   8   8  11 1327.87 92.4823  30
  -8  -9  -1 22677.0 634.064  67
  -8  -9  -2 11948.1 405.826  39
  -8  -9  -2 12346.7 402.676  67
  -8  -9  -3-31.2994 98.1260  39
  -8  -9  -3 5.74642 69.5371  34
  -8  -9  -4 32285.1 963.838  39
  -8  -9  -4 32774.3 972.401  34
  -8  -9  -5 3916.23 196.704  44
  -8  -9  -5 3555.38 211.524  34
  -8  -9  -6 4632.82 224.626  26
  -8  -9  -6 4692.21 221.129  44
  -8  -9  -7 3407.17 173.131  26
  -8  -9  -7 3303.48 179.476  44
  -8  -9  -8 3850.35 194.863  44
  -8  -9  -8 4484.36 224.020  33
   8   9   8 4013.54 241.315  30
  -8  -9  -9 674.159 87.6099  44
  -8  -9  -9 917.921 108.667  33
   8   9   9 773.924 125.050  30
  -8  -9 -10 8074.81 284.515  33
   8   9  10 8037.66 307.887  30
  -8 -10  -3 151.249 79.8459  67
  -8 -10  -4 2322.97 127.528  39
   8  10   4 1206.77 89.4778  61
  -8 -10  -5 258.102 86.3782  39
  -8 -10  -5 231.835 63.1421  34
  -8 -10  -6 917.230 91.4884  44
  -8 -10  -6 1032.40 108.528  39
  -8 -10  -6 785.386 87.4592  34
  -8 -10  -7 576.926 82.1634  44
  -8 -10  -7 478.875 80.1857  34
  -8 -10  -8 2008.76 115.206  44
   8  10   8 1347.77 114.649  30
  -8 -10  -9 1654.20 95.3044  44
   8  10   9 1781.99 121.655  30
   8  10  10 2023.83 98.6134  30
   8  11   6 3009.59 130.608  61
   8  11   7 18702.3 553.048  61
  -9   3   1 2111.30 107.984  29
  -9   3   1 1813.73 98.8958  58
  -9   3   0 1121.08 80.9729  29
  -9   3  -1 4079.83 168.433  43
  -9   3  -1 4525.32 187.388  58
  -9   3  -2 5458.14 200.323  43
  -9   3  -2 4464.99 191.313  58
  -9   3  -3 5571.37 197.985  43
  -9   2   2 1112.38 80.1588  58
  -9   2   1 731.362 97.1939  41
  -9   2   1 837.546 102.901  29
  -9   2   1 791.273 101.131  58
  -9   2   0 3163.86 183.665  29
  -9   2  -1 9308.02 333.495  43
  -9   2  -1 8561.47 323.960  29
  -9   2  -1 8818.02 343.486  58
  -9   2  -2 2367.45 148.592  48
  -9   2  -2 2971.52 180.669  43
  -9   2  -2 2045.07 122.497  29
  -9   2  -2 2937.10 178.102  58
  -9   2  -3 3325.95 173.634  48
  -9   2  -3 2894.23 171.739  58
  -9   2  -4 1894.28 116.304  48
  -9   2  -4 1973.46 120.843  43
  -9   2  -5 737.855 66.0397  48
  -9   1   2 1560.79 116.939  58
  -9   1   1 5691.76 272.702  41
  -9   1   1 5304.88 255.909  58
  -9   1   0 9799.82 388.141  41
  -9   1   0 8559.40 372.315  29
  -9   1  -1 51.8581 84.8939  48
  -9   1  -1 136.956 97.6013  43
  -9   1  -1 228.860 107.924  29
  -9   1  -1 146.567 111.278  58
  -9   1  -1 156.540 107.241   4
  -9   1  -2 968.058 132.339  48
  -9   1  -2 1032.89 139.168  43
  -9   1  -2 1117.74 135.782   4
  -9   1  -2 952.744 124.286  62
  -9   1  -2 836.374 112.900  29
  -9   1  -2 1058.35 144.566  58
  -9   1  -3 2591.95 185.945  48
  -9   1  -3 2685.23 202.461  43
  -9   1  -3 2697.44 172.014   4
  -9   1  -3 2488.80 190.294  58
  -9   1  -4 421.539 109.158  43
  -9   1  -4 408.894 106.013   4
  -9   1  -4 410.212 96.0484  58
  -9   1  -5 6142.94 261.070  48
  -9   1  -5 6307.94 249.036  43
  -9   1  -6 7701.48 278.122  48
  -9   0   2 731.246 111.036  29
  -9   0   2 742.443 107.671  58
  -9   0   1 2385.79 194.952  41
  -9   0   1 2742.63 202.687  29
  -9   0   1 3115.88 208.201  58
  -9   0   0 582.106 135.732  41
  -9   0   0 647.658 131.286  29
  -9   0  -1 6544.81 314.029  48
  -9   0  -1 6735.89 308.125  43
  -9   0  -1 5684.36 272.475  62
  -9   0  -1 6310.52 317.049  29
  -9   0  -1 5969.79 278.086   4
  -9   0  -1 6296.40 325.616  58
  -9   0  -2 38545.4 1127.83  48
  -9   0  -2 38225.3 1117.54  43
  -9   0  -2 36176.0 1054.79   4
  -9   0  -2 35899.0 1105.61  62
  -9   0  -2 35307.7 1092.98  29
  -9   0  -3 16483.4 545.786   4
  -9   0  -3 15429.4 536.624  29
  -9   0  -3 16155.8 589.474  58
  -9   0  -4 29668.8 905.385  43
  -9   0  -4 26175.4 858.882  58
  -9   0  -5 10854.2 341.948   3
  -9   0  -5 11395.1 393.370  43
  -9   0  -6 892.754 108.887   3
  -9   0  -6 814.703 92.0713  43
  -9   0  -7 53.9796 55.3535  48
  -9  -1   2 17863.0 570.193  58
  -9  -1   2 16816.8 529.479  28
  -9  -1   1 308.821 107.479  28
  -9  -1   0 3625.91 202.908  24
  -9  -1   0 3690.41 246.193  29
  -9  -1  -1 20.5190 116.583  48
  -9  -1  -1 7.20387 85.5440  31
  -9  -1  -1 43.9737 91.3375  62
  -9  -1  -1 107.103 111.992  29
  -9  -1  -1 26.9140 123.267  58
  -9  -1  -2 16051.9 582.238  43
  -9  -1  -2 13174.1 518.267  31
  -9  -1  -2 16674.2 606.959  62
  -9  -1  -2 15845.8 530.889   4
  -9  -1  -2 12854.4 556.600  29
  -9  -1  -2 15906.4 596.023  58
  -9  -1  -3 8469.67 362.272  31
  -9  -1  -3 8731.91 344.763   4
  -9  -1  -3 9191.98 420.567  62
  -9  -1  -3 7684.12 351.357  29
  -9  -1  -3 8172.30 382.349  58
  -9  -1  -4 1795.05 197.093  48
  -9  -1  -4 1663.83 187.752  43
  -9  -1  -4 1620.62 163.983   4
  -9  -1  -4 1545.22 161.122  58
  -9  -1  -5 326.962 121.503   3
  -9  -1  -5 394.434 120.001  43
  -9  -1  -5 335.247 86.9651  58
  -9  -1  -6 1344.50 133.800   3
  -9  -1  -6 1332.04 130.341  43
  -9  -1  -7 2948.50 151.568   3
  -9  -1  -8 4995.88 193.197  48
  -9  -1  -8 7241.31 220.119  62
  -9  -2   2 9907.33 335.468  24
  -9  -2   2 9182.74 356.100  58
  -9  -2   2 9489.21 341.217  28
  -9  -2   1 420.100 107.247  24
  -9  -2   1 417.431 111.000  28
  -9  -2   0 11446.7 435.785  24
  -9  -2  -1 58881.8 1669.84  31
  -9  -2  -1 62946.5 1726.87  29
  -9  -2  -1 59400.0 1720.23  58
  -9  -2  -2 8465.69 350.674  26
  -9  -2  -2 9384.16 392.443  31
  -9  -2  -2 9153.69 411.751  62
  -9  -2  -2 8655.08 395.782  29
  -9  -2  -2 8450.42 328.861   4
  -9  -2  -2 8789.92 407.162  58
  -9  -2  -3 6422.13 354.558  48
  -9  -2  -3 7461.18 352.633  31
  -9  -2  -3 5737.18 269.486   4
  -9  -2  -3 7112.38 369.892  62
  -9  -2  -3 6136.69 308.298  29
  -9  -2  -3 6971.16 342.223  58
  -9  -2  -4 11879.5 496.005  48
  -9  -2  -4 13406.6 510.631  43
  -9  -2  -4 12210.2 417.971   4
  -9  -2  -4 10478.6 419.620  29
  -9  -2  -4 11220.7 460.461  58
  -9  -2  -5 13889.2 533.546  48
  -9  -2  -5 14829.0 534.546  43
  -9  -2  -6 599.675 130.231  48
  -9  -2  -6 211.508 77.8620   3
  -9  -2  -7 1299.90 130.968  48
  -9  -2  -7 1279.40 138.023  59
  -9  -2  -8 433.864 67.2038  48
  -9  -2  -8 563.236 83.3765  62
   9   2   9 1107.19 89.9086  38
  -9  -3   2 979.483 108.446  24
  -9  -3   2 836.644 105.271  28
  -9  -3   1 692.603 126.727  24
  -9  -3   0 30624.0 932.036  24
  -9  -3   0 29778.9 966.271  58
  -9  -3  -1 1359.09 132.324  26
  -9  -3  -1 1314.25 132.825  34
  -9  -3  -1 1550.42 167.177  31
  -9  -3  -1 1129.76 158.967  29
  -9  -3  -1 1504.15 190.407  58
  -9  -3  -2 14560.3 516.157  26
  -9  -3  -2 14433.4 553.294  48
  -9  -3  -2 13972.4 498.497  34
  -9  -3  -2 14955.3 554.025  31
  -9  -3  -2 14006.4 545.706  62
  -9  -3  -2 13210.1 536.577  29
  -9  -3  -2 14168.5 554.857  58
  -9  -3  -3 11715.6 484.458  48
  -9  -3  -3 10578.3 416.058  34
  -9  -3  -3 11990.5 498.534  62
  -9  -3  -3 10748.2 453.435  29
  -9  -3  -3 11730.6 478.095  58
  -9  -3  -4 11350.4 463.760  48
  -9  -3  -4 10184.7 386.807  34
  -9  -3  -4 10322.4 428.768  58
  -9  -3  -5 6521.81 333.368  48
  -9  -3  -5 6781.59 369.280  62
  -9  -3  -6 228.983 110.009  48
  -9  -3  -6 308.808 136.211  62
  -9  -3  -7 5998.80 282.149  48
  -9  -3  -7 7532.33 334.339  62
  -9  -3  -8 2565.72 140.165  48
  -9  -3  -8 3797.66 184.046  62
   9   3   9 3167.36 174.090  38
  -9  -4   2 1910.23 116.375  35
  -9  -4   1 4293.52 207.918  35
  -9  -4   0 21663.2 713.730  58
  -9  -4   0 20438.6 677.856  28
  -9  -4  -1 10664.5 406.802  26
  -9  -4  -1 10265.5 441.800  58
  -9  -4  -1 9927.94 419.596  28
  -9  -4  -2 26791.7 853.182  26
  -9  -4  -2 28685.9 865.982  34
  -9  -4  -2 27299.9 890.446  58
  -9  -4  -3 9700.51 409.404  26
  -9  -4  -3 8407.89 387.905  48
  -9  -4  -3 8994.34 380.196  34
  -9  -4  -3 9212.89 403.762  58
  -9  -4  -4 10080.4 424.708  48
  -9  -4  -4 10214.1 409.499  34
  -9  -4  -4 9396.15 401.378  58
  -9  -4  -5 1945.89 178.749  48
  -9  -4  -5 2269.05 213.831  62
  -9  -4  -6 15622.2 582.689  48
  -9  -4  -6 19649.6 660.412  62
  -9  -4  -7-33.1117 72.3091  48
  -9  -4  -7 78.6909 101.295  62
  -9  -4  -8 475.448 87.6367  62
   9   4   9 2093.01 150.833  38
   9   4  10 2072.45 111.720  38
  -9  -5   1 263.123 93.3930  24
  -9  -5   0 16196.0 537.952  24
  -9  -5   0 14892.4 518.007  28
  -9  -5  -1 3421.31 219.480  24
  -9  -5  -1 3665.68 221.910  34
  -9  -5  -1 3082.69 201.278  28
  -9  -5  -2 567.610 116.768  26
  -9  -5  -2 424.804 110.189  39
  -9  -5  -2 472.151 120.008  34
  -9  -5  -2 480.347 130.424  31
  -9  -5  -2 480.305 129.364  28
  -9  -5  -2 468.722 132.563  58
  -9  -5  -3 11049.0 446.036  26
  -9  -5  -3 11020.5 454.004  34
  -9  -5  -3 11625.7 470.196  31
  -9  -5  -3 11211.2 451.589  58
  -9  -5  -4 6197.15 323.919  31
  -9  -5  -4 5949.99 316.534  62
  -9  -5  -4 5081.76 274.161  58
  -9  -5  -5 7060.24 325.547  48
  -9  -5  -5 8361.80 385.162  62
  -9  -5  -6 15587.6 532.704  48
  -9  -5  -6 14356.1 528.207  33
   9   5   7 325.138 110.365  38
  -9  -5  -7 257.919 89.7682  33
  -9  -5  -7 290.785 107.960  62
   9   5   8 280.913 113.707  38
  -9  -5  -8 190.087 76.1078  62
   9   5   9 1454.92 132.721  38
   9   5  10 367.926 71.8848  38
  -9  -6   0 18640.1 581.613  24
  -9  -6  -1 3753.71 214.605  24
  -9  -6  -1 4045.40 197.405  39
  -9  -6  -1 3815.26 207.909  28
  -9  -6  -2 1454.97 150.841  26
  -9  -6  -2 1544.23 143.577  39
  -9  -6  -2 1254.15 138.162  28
  -9  -6  -3 4357.51 260.635  34
  -9  -6  -3 4363.29 249.287  31
  -9  -6  -3 4500.97 229.099  28
  -9  -6  -4 8225.53 380.158  34
  -9  -6  -4 8641.64 372.347  31
  -9  -6  -4 7855.71 325.972  28
  -9  -6  -5 3621.81 238.576  31
  -9  -6  -6 3032.49 192.505  33
  -9  -6  -6 3229.44 228.126  31
  -9  -6  -6 2875.07 206.434  62
  -9  -6  -7-34.2429 84.7949  33
  -9  -6  -7 11.4592 80.2396  62
   9   6   8 5849.63 253.704  38
  -9  -6  -8 5793.65 265.834  33
   9   6   9 220.308 87.5681  38
  -9  -6  -9 220.329 77.3630  33
   9   6  10 1970.12 113.981  38
  -9  -7   0 21.1811 53.6919  49
  -9  -7   0 19.8141 70.4629  35
  -9  -7  -1 4348.32 194.976  24
  -9  -7  -1 4454.88 197.804  49
  -9  -7  -2 9257.30 356.907  24
  -9  -7  -2 10388.6 359.025  49
  -9  -7  -2 9673.01 361.972  39
  -9  -7  -2 10466.0 391.525  34
  -9  -7  -3 1925.42 153.066  24
  -9  -7  -3 1920.35 164.388  39
  -9  -7  -3 1717.83 129.339  28
  -9  -7  -4 6145.51 291.027  26
  -9  -7  -4 6120.13 277.317  31
  -9  -7  -5 2246.33 174.815  26
  -9  -7  -5 2155.89 164.797  31
  -9  -7  -6 1725.70 158.874  26
  -9  -7  -6 1581.83 145.364  31
  -9  -7  -7 630.791 116.074  26
  -9  -7  -7 530.509 107.093  33
  -9  -7  -7 720.955 113.531  31
  -9  -7  -8 2390.07 160.723  26
  -9  -7  -8 2190.89 156.977  33
  -9  -7  -8 1968.35 146.177  31
  -9  -7  -9 3156.20 148.386  26
   9   7   9 2401.78 134.008  38
  -9  -7  -9 3341.44 168.613  33
  -9  -7  -9 2476.88 136.190  31
  -9  -7 -10 4597.96 178.712  33
  -9  -8  -1 18870.6 507.247  49
  -9  -8  -1 17012.9 502.081  35
  -9  -8  -2 1158.05 83.2042  24
  -9  -8  -2 1439.93 114.212  49
  -9  -8  -2 1477.22 117.060  39
  -9  -8  -3 18808.1 589.026  24
  -9  -8  -3 18960.7 614.189  49
  -9  -8  -3 21387.5 626.053  39
  -9  -8  -3 22862.1 650.780  34
  -9  -8  -4 356.897 97.2860  26
  -9  -8  -4 225.118 78.0692  24
  -9  -8  -4 407.640 103.438  34
  -9  -8  -5 11848.0 428.016  26
  -9  -8  -6 1098.65 118.047  26
  -9  -8  -6 912.894 92.8659  31
  -9  -8  -7 330.230 86.3032  26
  -9  -8  -7 269.828 63.6916  31
  -9  -8  -8 248.803 68.6035  26
  -9  -8  -8 264.828 82.2577  33
  -9  -8  -9-2.21741 33.1584  26
  -9  -8  -9-23.4399 60.9780  33
  -9  -8 -10 354.527 50.1212  33
   9   8  10 290.165 60.9357  30
  -9  -9  -3 5.50712 65.2479  49
  -9  -9  -4 51.4119 76.5387  39
  -9  -9  -4-47.5364 59.9974  34
  -9  -9  -5 1055.00 110.692  39
  -9  -9  -5 973.476 101.501  34
  -9  -9  -6 2996.52 168.853  34
   9   9   8-26.0223 65.3576  30
   9   9   9 890.596 85.4129  30
  -9 -10  -5 4013.48 150.127  39
  -9 -10  -6 1369.66 85.4551  39
  -9 -10  -6 936.423 66.2544  34
  -9 -10  -7 1742.06 95.0772  39
  -9 -10  -7 1443.36 81.6130  34
  -9 -10  -8 11.3310 35.5931  39
 -10   1  -1 504.845 67.0846  58
 -10   1  -2 620.560 74.0929  58
 -10   1  -3 7797.63 225.576  48
 -10   1  -3 5588.78 207.395  58
 -10   1  -4 104.612 31.6430  48
 -10   0   1 249.214 45.1005  58
 -10   0   0 38.2081 51.2952  29
 -10   0  -1 1346.75 107.607  29
 -10   0  -1 1267.12 114.788  58
 -10   0  -2 9539.02 332.530  48
 -10   0  -2 10242.0 350.661  58
 -10   0  -3 1212.62 98.3934  62
 -10   0  -3 1607.84 119.376  58
 -10   0  -4 511.421 77.6652  62
 -10   0  -4 324.526 52.0660  58
 -10   0  -5 3702.19 160.198  48
 -10   0  -5 3389.43 157.244  62
 -10  -1   1 1136.99 86.2366  58
 -10  -1   0 131.552 68.9053  28
 -10  -1   0 190.777 79.3366  58
 -10  -1  -1 14364.7 522.850  29
 -10  -1  -1 19143.4 558.538  58
 -10  -1  -2 4881.89 232.310  29
 -10  -1  -2 6097.86 261.575  58
 -10  -1  -3 483.971 105.805  48
 -10  -1  -3 493.877 97.8521  62
 -10  -1  -3 471.726 98.6176  58
 -10  -1  -4 167.728 87.7328  48
 -10  -1  -4 234.288 88.2911  62
 -10  -1  -4 88.7779 66.6804  58
 -10  -1  -5 1352.46 123.101  48
 -10  -1  -6 1462.34 103.841  48
 -10  -1  -6 1297.29 107.082  62
 -10  -2   1 5318.14 188.467  28
 -10  -2   0 9991.48 364.929  58
 -10  -2   0 10194.9 347.512  28
 -10  -2  -1 13782.6 445.422  24
 -10  -2  -1 14383.2 490.220  58
 -10  -2  -2 13213.3 446.214  31
 -10  -2  -2 12931.0 457.060  62
 -10  -2  -3 2549.22 180.604  48
 -10  -2  -3 2627.58 160.273  31
 -10  -2  -3 2624.59 177.372  62
 -10  -2  -3 2525.19 172.706  58
 -10  -2  -4 10046.8 390.701  48
 -10  -2  -4 11480.9 380.087  31
 -10  -2  -4 10503.4 400.633  62
 -10  -2  -4 9089.03 353.500  58
 -10  -2  -5 2548.68 170.430  48
 -10  -2  -5 2598.00 157.241  31
 -10  -2  -6 13779.1 467.085  48
 -10  -2  -6 14166.9 457.705  31
 -10  -2  -6 14883.4 490.840  62
 -10  -2  -7 1536.57 91.1734  48
 -10  -2  -7 1754.56 100.745  31
 -10  -3   0 684.267 91.3795  24
 -10  -3   0 573.867 91.9946  58
 -10  -3  -1 3436.37 179.593  24
 -10  -3  -1 3069.25 185.413  58
 -10  -3  -1 3107.35 181.879  28
 -10  -3  -2 2256.12 153.717  31
 -10  -3  -2 2463.77 172.805  58
 -10  -3  -3 3965.97 218.480  31
 -10  -3  -3 4084.67 226.465  62
 -10  -3  -3 4086.32 222.100  58
 -10  -3  -4 27245.7 845.239  26
 -10  -3  -4 27875.9 866.838  48
 -10  -3  -4 27765.3 841.812  58
 -10  -3  -5 490.803 102.527  48
 -10  -3  -5 563.500 116.037  31
 -10  -3  -5 499.304 115.883  62
 -10  -3  -6 2520.79 157.204  48
 -10  -3  -6 2817.70 180.082  31
 -10  -3  -6 2828.87 179.922  62
 -10  -3  -7 474.337 61.7747  48
 -10  -3  -7 702.265 90.1801  62
 -10  -3  -8 213.530 59.0042  31
 -10  -4   0 11465.2 359.983  24
 -10  -4   0 10106.1 351.914  28
 -10  -4  -1 38.2615 79.6704  28
 -10  -4  -1-36.8524 77.3997  58
 -10  -4  -2 32.9623 93.9765  28
 -10  -4  -2 24.3951 92.1105  58
 -10  -4  -3 31889.0 892.966  26
 -10  -4  -3 27778.1 894.437  58
 -10  -4  -4 47.4580 84.4986  26
 -10  -4  -4-20.8442 74.2260  58
 -10  -4  -5 86.1763 77.5380  48
 -10  -4  -6 15493.1 514.167  48
 -10  -4  -6 17650.3 565.603  62
 -10  -4  -7 62.6160 68.5521  62
 -10  -4  -8 5459.43 192.662  62
 -10  -5  -1 46.4247 81.7766  24
 -10  -5  -1 21.5748 70.6608  28
 -10  -5  -2 5092.06 235.932  24
 -10  -5  -2 4973.06 219.346  28
 -10  -5  -3 1785.51 135.980  26
 -10  -5  -3 1891.85 134.076  34
 -10  -5  -3 1910.46 151.916  31
 -10  -5  -3 1660.42 134.808  28
 -10  -5  -4 965.989 113.929  26
 -10  -5  -4 974.519 107.185  34
 -10  -5  -5 12140.1 430.043  26
 -10  -5  -5 11886.6 438.933  31
 -10  -5  -5 10743.4 423.044  62
 -10  -5  -6 278.065 112.896  31
 -10  -5  -6 131.681 87.7408  62
 -10  -5  -7 8853.17 343.451  31
 -10  -5  -7 8278.64 315.126  62
 -10  -5  -8 3457.11 179.885  31
 -10  -5  -9 1089.78 74.4904  31
 -10  -6  -1 7612.40 243.596  24
 -10  -6  -1 6132.76 224.705  35
 -10  -6  -2 10498.6 358.108  24
 -10  -6  -2 10359.9 340.857  28
 -10  -6  -3 335.463 84.2570  26
 -10  -6  -3 192.094 89.9381  24
 -10  -6  -3 185.919 80.2774  34
 -10  -6  -3 178.409 71.1211  28
 -10  -6  -4 16472.6 535.935  26
 -10  -6  -4 15343.0 529.240  31
 -10  -6  -4 15826.8 495.411  28
 -10  -6  -5 12975.2 446.711  34
 -10  -6  -5 12681.2 446.854  31
 -10  -6  -6 1466.81 125.444  34
 -10  -6  -6 1741.71 138.420  31
 -10  -6  -7 5096.10 228.856  26
 -10  -6  -7 5241.20 227.746  31
 -10  -6  -8 294.689 70.1648  26
 -10  -6  -8 257.516 70.2627  31
 -10  -6  -9 2092.34 93.3249  26
 -10  -6  -9 1868.98 89.0190  31
 -10  -7  -2 217.386 50.4766  24
 -10  -7  -3 970.584 90.0368  24
 -10  -7  -4 873.667 94.2521  24
 -10  -7  -4 900.954 96.2788  39
 -10  -7  -4 1060.16 106.521  34
 -10  -7  -5 311.348 80.2333  26
 -10  -7  -5 248.130 80.5353  34
 -10  -7  -5 343.676 75.2723  31
 -10  -7  -6 3995.49 188.717  26
 -10  -7  -6 3589.01 185.795  34
 -10  -7  -6 3577.38 171.774  31
 -10  -7  -7 205.319 70.0633  26
 -10  -7  -7 227.714 76.1838  34
 -10  -7  -7 174.285 62.9711  31
 -10  -7  -8 2296.03 115.790  26
 -10  -7  -8 2169.17 121.598  34
 -10  -8  -4 1768.96 98.3012  39
 -10  -8  -4 1811.42 108.023  34
 -10  -8  -5 2578.44 129.883  39
 -10  -8  -6 97.5043 59.0146  26
 -10  -8  -6 58.9199 65.8516  39
 -10  -8  -7 77.0665 49.4041  26
 -10  -8  -7 58.2216 56.4439  34
 -10  -8  -8 110.821 46.2821  34
 -10  -9  -6 843.171 59.4020  34
 -10  -9  -7 5071.65 172.047  34
 -11  -2  -3 9908.85 300.529  28
 -11  -3  -2 9567.61 287.407  28
 -11  -3  -3 192.491 50.7005  28
 -11  -4  -3 628.579 65.6404  24
 -11  -4  -3 470.824 54.6697  28
 -11  -4  -4 64.0693 43.8440  28
 -11  -4  -5 383.733 57.3406  31
 -11  -4  -6 100.190 39.2491  31
 -11  -5  -5 5726.82 206.445  26
 -11  -5  -5 7232.19 227.575  31
 -11  -5  -6 1097.21 72.0482  26
 -11  -5  -6 1402.04 82.5879  31
 -11  -6  -4 2505.51 103.961  24
 -11  -6  -5 876.198 64.7852  24
   0   0   0    0.00    0.00   0

TITL JS721E in P-1
REM P-1 (#2 in standard setting)
CELL 1.54184   8.798843   9.729691   9.947414  60.6944  69.6749  70.2041
ZERR    2.00   0.000347   0.000446   0.000451   0.0048   0.0041   0.0039
LATT  1
SFAC C H N O
UNIT 10.00 22.00 22.00 20.00
REM  CrysAlisPro recorded range (K): Min=99.8; max=100.1; aver:100.0
TEMP -173
SIZE 0.05 0.06 0.26
TREF
HKLF 4
END
;
_shelx_hkl_checksum              4180
_olex2_diffrn_ambient_temperature_device 'Oxford Cryosystems'
_olex2_exptl_crystal_mounting_method
'The crystal was mounted on a nylon loop with paratone oil'
_olex2_submission_original_sample_id JS167B
_olex2_submission_special_instructions 'No special instructions were received'
_oxdiff_exptl_absorpt_empirical_details
;
Empirical correction (ABSPACK) includes:
- Absorption correction using spherical harmonics
- Frame scaling
;
_oxdiff_exptl_absorpt_empirical_full_max 1.856
_oxdiff_exptl_absorpt_empirical_full_min 0.417
loop_
_space_group_symop_operation_xyz
'x, y, z'
'-x, -y, -z'
loop_
_atom_site_label
_atom_site_type_symbol
_atom_site_fract_x
_atom_site_fract_y
_atom_site_fract_z
_atom_site_U_iso_or_equiv
_atom_site_adp_type
_atom_site_occupancy
_atom_site_site_symmetry_order
_atom_site_calc_flag
_atom_site_refinement_flags_posn
_atom_site_refinement_flags_adp
_atom_site_refinement_flags_occupancy
_atom_site_disorder_assembly
_atom_site_disorder_group
O1 O 0.6149(2) -0.0029(2) 1.0892(2) 0.0299(5) Uani 1 1 d . . . . .
O2 O 0.8684(2) -0.0982(2) 0.9939(2) 0.0308(5) Uani 1 1 d . . . . .
O3 O 1.1705(2) 0.2480(2) 0.6235(2) 0.0226(4) Uani 1 1 d . . . . .
O4 O 1.3017(2) 0.0409(2) 0.5681(2) 0.0237(4) Uani 1 1 d . . . . .
O5 O 1.1299(2) -0.1811(2) 0.6829(3) 0.0279(4) Uani 1 1 d . . . . .
O6 O 0.8678(2) -0.0831(2) 0.6922(2) 0.0243(4) Uani 1 1 d . . . . .
O7 O 0.6419(2) 0.2978(2) 1.0847(2) 0.0245(4) Uani 1 1 d . . . . .
O8 O 0.3759(2) 0.3373(3) 1.1800(2) 0.0278(4) Uani 1 1 d . . . . .
O9 O 0.3289(2) 0.4081(2) 0.7581(2) 0.0258(4) Uani 1 1 d . . . . .
O10 O 0.1942(2) 0.4185(2) 0.9829(2) 0.0239(4) Uani 1 1 d . . . . .
N1 N 0.8245(2) 0.3387(3) 0.6126(3) 0.0205(4) Uani 1 1 d D . . . .
H1 H 0.874(4) 0.394(4) 0.511(2) 0.024(8) Uiso 1 1 d D . . . .
N2 N 0.6817(3) 0.4146(3) 0.6785(3) 0.0209(4) Uani 1 1 d . . . . .
N3 N 0.7427(3) 0.0092(3) 0.9849(3) 0.0222(5) Uani 1 1 d . . . . .
N4 N 1.1697(2) 0.1207(3) 0.6187(2) 0.0196(4) Uani 1 1 d . . . . .
N5 N 1.0088(2) -0.0693(3) 0.6795(2) 0.0198(4) Uani 1 1 d . . . . .
N6 N 0.4962(3) 0.3250(3) 1.0713(3) 0.0211(4) Uani 1 1 d . . . . .
N7 N 0.3289(3) 0.3901(3) 0.8917(3) 0.0199(4) Uani 1 1 d . . . . .
C1 C 0.8697(3) 0.1835(3) 0.7085(3) 0.0191(5) Uani 1 1 d . . . . .
C2 C 0.7455(3) 0.1567(3) 0.8451(3) 0.0189(5) Uani 1 1 d . . . . .
C3 C 0.6309(3) 0.3035(3) 0.8210(3) 0.0193(5) Uani 1 1 d . . . . .
C4 C 1.0204(3) 0.0774(3) 0.6659(3) 0.0194(5) Uani 1 1 d . . . . .
C5 C 0.4794(3) 0.3423(3) 0.9299(3) 0.0200(5) Uani 1 1 d . . . . .
N8 N 0.5708(3) 0.2046(3) 0.5764(3) 0.0272(5) Uani 1 1 d D . . . .
H8A H 0.619(5) 0.098(3) 0.605(4) 0.037(10) Uiso 1 1 d D . . . .
H8B H 0.481(3) 0.204(5) 0.655(3) 0.032(9) Uiso 1 1 d D . . . .
N9 N 0.5209(3) 0.2577(3) 0.4323(3) 0.0209(5) Uani 1 1 d D . . . .
H9A H 0.454(4) 0.199(4) 0.441(5) 0.036(10) Uiso 1 1 d D . . . .
H9B H 0.613(3) 0.244(4) 0.359(3) 0.027(8) Uiso 1 1 d D . . . .
H9C H 0.474(4) 0.362(2) 0.404(4) 0.033(9) Uiso 1 1 d D . . . .
N10 N 0.9797(3) 0.5695(3) 0.7080(3) 0.0303(5) Uani 1 1 d D . . . .
N11 N 0.9711(3) 0.4116(3) 0.8318(3) 0.0220(5) Uani 1 1 d D . . . .
H11A H 1.024(4) 0.335(4) 0.795(4) 0.032(9) Uiso 1 1 d D . . . .
H11B H 0.866(3) 0.401(5) 0.886(4) 0.036(10) Uiso 1 1 d D . . . .
H11C H 1.027(5) 0.387(6) 0.905(4) 0.059(13) Uiso 1 1 d D . . . .
H10A H 1.048(5) 0.597(7) 0.742(7) 0.089 Uiso 1 1 d D U . . .
H10B H 0.885(4) 0.639(6) 0.735(7) 0.089 Uiso 1 1 d D U . . .
loop_
_atom_site_aniso_label
_atom_site_aniso_U_11
_atom_site_aniso_U_22
_atom_site_aniso_U_33
_atom_site_aniso_U_23
_atom_site_aniso_U_13
_atom_site_aniso_U_12
O1 0.0227(10) 0.0267(10) 0.0247(9) -0.0054(8) 0.0055(7) -0.0067(8)
O2 0.0255(10) 0.0236(9) 0.0275(10) -0.0065(8) -0.0026(8) 0.0034(8)
O3 0.0156(8) 0.0217(9) 0.0312(9) -0.0141(8) -0.0004(7) -0.0049(7)
O4 0.0108(8) 0.0237(9) 0.0340(10) -0.0159(8) 0.0012(7) -0.0010(7)
O5 0.0132(8) 0.0209(9) 0.0454(11) -0.0158(8) -0.0016(8) -0.0010(7)
O6 0.0126(8) 0.0250(9) 0.0351(10) -0.0137(8) -0.0029(7) -0.0045(7)
O7 0.0140(8) 0.0321(10) 0.0273(9) -0.0137(8) -0.0033(7) -0.0040(7)
O8 0.0170(9) 0.0407(11) 0.0254(9) -0.0179(9) 0.0031(7) -0.0074(8)
O9 0.0151(8) 0.0361(11) 0.0246(9) -0.0151(8) -0.0015(7) -0.0028(7)
O10 0.0107(8) 0.0307(10) 0.0288(9) -0.0169(8) 0.0015(7) -0.0017(7)
N1 0.0109(9) 0.0191(10) 0.0231(10) -0.0075(8) 0.0020(8) -0.0015(7)
N2 0.0132(9) 0.0197(10) 0.0244(10) -0.0095(8) 0.0004(8) -0.0016(8)
N3 0.0196(10) 0.0194(10) 0.0217(10) -0.0073(8) -0.0014(8) -0.0026(8)
N4 0.0137(10) 0.0193(10) 0.0226(10) -0.0090(8) -0.0005(8) -0.0029(8)
N5 0.0119(9) 0.0200(10) 0.0231(10) -0.0087(8) 0.0000(7) -0.0029(7)
N6 0.0149(10) 0.0219(10) 0.0231(10) -0.0096(8) 0.0002(8) -0.0043(8)
N7 0.0129(10) 0.0206(10) 0.0246(10) -0.0113(8) -0.0001(8) -0.0030(8)
C1 0.0128(11) 0.0188(11) 0.0236(11) -0.0088(9) -0.0017(9) -0.0035(9)
C2 0.0130(11) 0.0179(11) 0.0217(11) -0.0072(9) -0.0008(9) -0.0035(8)
C3 0.0138(11) 0.0205(12) 0.0227(11) -0.0102(9) -0.0012(9) -0.0037(9)
C4 0.0112(11) 0.0203(12) 0.0245(12) -0.0107(10) 0.0002(9) -0.0029(9)
C5 0.0120(11) 0.0223(12) 0.0229(12) -0.0102(10) -0.0006(9) -0.0025(9)
N8 0.0228(11) 0.0307(12) 0.0293(12) -0.0163(10) -0.0082(9) 0.0014(9)
N9 0.0147(10) 0.0204(10) 0.0243(10) -0.0097(8) -0.0005(8) -0.0034(8)
N10 0.0246(12) 0.0208(11) 0.0285(12) -0.0066(9) 0.0045(9) -0.0017(9)
N11 0.0177(10) 0.0216(11) 0.0241(11) -0.0095(9) -0.0009(8) -0.0051(8)
loop_
_atom_type_symbol
_atom_type_description
_atom_type_scat_dispersion_real
_atom_type_scat_dispersion_imag
_atom_type_scat_source
C C 0.0181 0.0091 'International Tables Vol C Tables 4.2.6.8 and 6.1.1.4'
H H 0.0000 0.0000 'International Tables Vol C Tables 4.2.6.8 and 6.1.1.4'
N N 0.0311 0.0180 'International Tables Vol C Tables 4.2.6.8 and 6.1.1.4'
O O 0.0492 0.0322 'International Tables Vol C Tables 4.2.6.8 and 6.1.1.4'
loop_
_exptl_crystal_face_index_h
_exptl_crystal_face_index_k
_exptl_crystal_face_index_l
_exptl_crystal_face_perp_dist
2 1 1 0.1328
-6 -2 -2 0.1219
0 -5 0 0.0247
0 5 0 0.0303
0 2 6 0.0361
0 -2 -6 0.0134
loop_
_geom_angle_atom_site_label_1
_geom_angle_atom_site_label_2
_geom_angle_atom_site_label_3
_geom_angle
_geom_angle_site_symmetry_1
_geom_angle_site_symmetry_3
_geom_angle_publ_flag
N2 N1 H1 118(2) . . ?
C1 N1 H1 128(2) . . ?
C1 N1 N2 113.2(2) . . ?
C3 N2 N1 105.7(2) . . ?
O1 N3 O2 123.9(2) . . ?
O1 N3 C2 118.0(2) . . ?
O2 N3 C2 118.0(2) . . ?
O3 N4 C4 117.8(2) . . ?
O4 N4 O3 120.2(2) . . ?
O4 N4 C4 122.0(2) . . ?
O5 N5 O6 121.3(2) . . ?
O5 N5 C4 122.2(2) . . ?
O6 N5 C4 116.4(2) . . ?
O7 N6 C5 116.4(2) . . ?
O8 N6 O7 120.6(2) . . ?
O8 N6 C5 123.0(2) . . ?
O9 N7 O10 119.8(2) . . ?
O9 N7 C5 117.2(2) . . ?
O10 N7 C5 123.0(2) . . ?
N1 C1 C2 104.9(2) . . ?
N1 C1 C4 123.6(2) . . ?
C2 C1 C4 131.5(2) . . ?
C1 C2 N3 125.6(2) . . ?
C1 C2 C3 106.7(2) . . ?
C3 C2 N3 127.7(2) . . ?
N2 C3 C2 109.5(2) . . ?
N2 C3 C5 121.5(2) . . ?
C2 C3 C5 128.9(2) . . ?
N4 C4 N5 121.9(2) . . ?
N4 C4 C1 119.4(2) . . ?
N5 C4 C1 118.7(2) . . ?
N6 C5 C3 117.3(2) . . ?
N7 C5 N6 122.7(2) . . ?
N7 C5 C3 120.1(2) . . ?
H8A N8 H8B 104(3) . . ?
N9 N8 H8A 106(2) . . ?
N9 N8 H8B 110(2) . . ?
N8 N9 H9A 114(3) . . ?
N8 N9 H9B 108(2) . . ?
N8 N9 H9C 106(2) . . ?
H9A N9 H9B 106(3) . . ?
H9A N9 H9C 113(3) . . ?
H9B N9 H9C 111(3) . . ?
N11 N10 H10A 99(4) . . ?
N11 N10 H10B 107(4) . . ?
H10A N10 H10B 95(2) . . ?
N10 N11 H11A 111(2) . . ?
N10 N11 H11B 113(3) . . ?
N10 N11 H11C 112(3) . . ?
H11A N11 H11B 112(3) . . ?
H11A N11 H11C 103(4) . . ?
H11B N11 H11C 105(4) . . ?
loop_
_geom_bond_atom_site_label_1
_geom_bond_atom_site_label_2
_geom_bond_distance
_geom_bond_site_symmetry_2
_geom_bond_publ_flag
O1 N3 1.230(3) . ?
O2 N3 1.232(3) . ?
O3 N4 1.265(3) . ?
O4 N4 1.253(3) . ?
O5 N5 1.235(3) . ?
O6 N5 1.249(3) . ?
O7 N6 1.259(3) . ?
O8 N6 1.245(3) . ?
O9 N7 1.253(3) . ?
O10 N7 1.257(3) . ?
N1 H1 0.905(18) . ?
N1 N2 1.352(3) . ?
N1 C1 1.340(3) . ?
N2 C3 1.328(3) . ?
N3 C2 1.428(3) . ?
N4 C4 1.370(3) . ?
N5 C4 1.403(3) . ?
N6 C5 1.387(3) . ?
N7 C5 1.369(3) . ?
C1 C2 1.387(3) . ?
C1 C4 1.454(3) . ?
C2 C3 1.404(3) . ?
C3 C5 1.466(3) . ?
N8 H8A 0.910(19) . ?
N8 H8B 0.895(18) . ?
N8 N9 1.439(3) . ?
N9 H9A 0.905(18) . ?
N9 H9B 0.906(18) . ?
N9 H9C 0.893(18) . ?
N10 N11 1.430(3) . ?
N10 H10A 0.94(2) . ?
N10 H10B 0.930(19) . ?
N11 H11A 0.912(18) . ?
N11 H11B 0.909(19) . ?
N11 H11C 0.913(19) . ?
loop_
_geom_hbond_atom_site_label_D
_geom_hbond_atom_site_label_H
_geom_hbond_atom_site_label_A
_geom_hbond_distance_DH
_geom_hbond_distance_HA
_geom_hbond_distance_DA
_geom_hbond_angle_DHA
_geom_hbond_site_symmetry_A
_geom_hbond_publ_flag
N1 H1 N10 0.905(18) 2.04(2) 2.894(3) 158(3) 2_766 yes
N8 H8A O4 0.910(19) 2.47(3) 3.075(3) 125(3) 2_756 yes
N8 H8B O1 0.895(18) 2.40(3) 3.097(3) 134(3) 2_657 yes
N9 H9A O3 0.905(18) 2.58(4) 3.013(3) 110(3) 1_455 yes
N9 H9A O4 0.905(18) 2.02(2) 2.855(3) 152(3) 1_455 yes
N9 H9B O5 0.906(18) 2.08(3) 2.854(3) 143(3) 2_756 yes
N9 H9C N2 0.893(18) 2.07(2) 2.938(3) 164(3) 2_666 yes
N11 H11A O3 0.912(18) 2.10(2) 2.952(3) 155(3) . yes
N11 H11C O10 0.913(19) 2.04(3) 2.890(3) 154(4) 1_655 yes
N10 H10A O5 0.94(2) 2.25(5) 3.008(3) 138(5) 1_565 yes
N10 H10A O9 0.94(2) 2.53(5) 3.030(3) 113(4) 1_655 yes
N10 H10B O8 0.930(19) 2.12(4) 2.916(3) 142(5) 2_667 yes
N10 H10B O10 0.930(19) 2.46(6) 2.962(3) 114(4) 2_667 yes
loop_
_geom_torsion_atom_site_label_1
_geom_torsion_atom_site_label_2
_geom_torsion_atom_site_label_3
_geom_torsion_atom_site_label_4
_geom_torsion
_geom_torsion_site_symmetry_1
_geom_torsion_site_symmetry_2
_geom_torsion_site_symmetry_3
_geom_torsion_site_symmetry_4
_geom_torsion_publ_flag
O1 N3 C2 C1 -171.0(2) . . . . ?
O1 N3 C2 C3 12.8(4) . . . . ?
O2 N3 C2 C1 8.9(4) . . . . ?
O2 N3 C2 C3 -167.2(2) . . . . ?
O3 N4 C4 N5 -173.7(2) . . . . ?
O3 N4 C4 C1 4.2(3) . . . . ?
O4 N4 C4 N5 8.2(4) . . . . ?
O4 N4 C4 C1 -173.9(2) . . . . ?
O5 N5 C4 N4 15.7(4) . . . . ?
O5 N5 C4 C1 -162.2(2) . . . . ?
O6 N5 C4 N4 -166.1(2) . . . . ?
O6 N5 C4 C1 16.0(3) . . . . ?
O7 N6 C5 N7 -172.3(2) . . . . ?
O7 N6 C5 C3 9.0(3) . . . . ?
O8 N6 C5 N7 6.6(4) . . . . ?
O8 N6 C5 C3 -172.0(2) . . . . ?
O9 N7 C5 N6 177.2(2) . . . . ?
O9 N7 C5 C3 -4.2(3) . . . . ?
O10 N7 C5 N6 -1.6(4) . . . . ?
O10 N7 C5 C3 177.0(2) . . . . ?
N1 N2 C3 C2 1.0(3) . . . . ?
N1 N2 C3 C5 179.0(2) . . . . ?
N1 C1 C2 N3 -177.2(2) . . . . ?
N1 C1 C2 C3 -0.4(3) . . . . ?
N1 C1 C4 N4 55.2(4) . . . . ?
N1 C1 C4 N5 -126.9(3) . . . . ?
N2 N1 C1 C2 1.1(3) . . . . ?
N2 N1 C1 C4 -178.6(2) . . . . ?
N2 C3 C5 N6 -117.0(3) . . . . ?
N2 C3 C5 N7 64.4(3) . . . . ?
N3 C2 C3 N2 176.4(2) . . . . ?
N3 C2 C3 C5 -1.4(4) . . . . ?
C1 N1 N2 C3 -1.3(3) . . . . ?
C1 C2 C3 N2 -0.4(3) . . . . ?
C1 C2 C3 C5 -178.2(2) . . . . ?
C2 C1 C4 N4 -124.3(3) . . . . ?
C2 C1 C4 N5 53.6(4) . . . . ?
C2 C3 C5 N6 60.6(4) . . . . ?
C2 C3 C5 N7 -118.1(3) . . . . ?
C4 C1 C2 N3 2.4(4) . . . . ?
C4 C1 C2 C3 179.2(3) . . . . ?
loop_
_exptl_oxdiff_crystal_face_indexfrac_h
_exptl_oxdiff_crystal_face_indexfrac_k
_exptl_oxdiff_crystal_face_indexfrac_l
_exptl_oxdiff_crystal_face_x
_exptl_oxdiff_crystal_face_y
_exptl_oxdiff_crystal_face_z
1.9990 0.9984 0.9991 0.0497 0.2594 -0.2343
-5.7015 -2.3678 -2.0973 -0.1533 -0.6425 0.7508
0.0156 -5.3240 0.1456 0.9701 -0.2331 0.0676
-0.0759 5.3263 -0.1104 -0.9709 0.2333 -0.0533
-0.0645 2.3575 6.0277 0.1689 0.7067 0.6870
0.2755 -2.2655 -5.9379 -0.1629 -0.6815 -0.7134
