#------------------------------------------------------------------------------
#$Date: 2016-03-24 17:12:39 +0200 (Thu, 24 Mar 2016) $
#$Revision: 179681 $
#$URL: svn://www.crystallography.net/cod/cif/7/00/03/7000343.cif $
#------------------------------------------------------------------------------
#
# This file is available in the Crystallography Open Database (COD),
# http://www.crystallography.net/
#
# All data on this site have been placed in the public domain by the
# contributors.
#
data_7000343
loop_
_publ_author_name
'Meilikhov, Mikhail'
'Yusenko, Kirill'
'Fischer, Roland A.'
_publ_section_title
;
 The adsorbate structure of ferrocene inside [Al(OH)(bdc)]x (MIL-53): a
 powder X-ray diffraction study
;
_journal_issue                   4
_journal_name_full               'Dalton Transactions'
_journal_page_first              600
_journal_paper_doi               10.1039/b820882b
_journal_year                    2009
_chemical_formula_moiety         '4(C8 Al O5), C20 Fe2'
_chemical_formula_structural     0.5FeCp@Al(OH)(BDC)
_chemical_formula_sum            'C52 Al4 Fe2 O20'
_chemical_formula_weight         1164.14
_chemical_name_common            'included ferrocene in MIL-53(Al)'
_chemical_name_systematic        ' ?'
_space_group_IT_number           74
_symmetry_cell_setting           orthorhombic
_symmetry_space_group_name_Hall  '-I 2b 2'
_symmetry_space_group_name_H-M   'I m m a'
_cell_angle_alpha                90
_cell_angle_beta                 90
_cell_angle_gamma                90
_cell_formula_units_Z            1
_cell_length_a                   6.623(2)
_cell_length_b                   16.893(3)
_cell_length_c                   12.592(2)
_cell_measurement_temperature    293
_cell_volume                     1408.8(5)
_computing_cell_refinement
'Jana2000 (Petricek, Dusek & Palatinus, 2000)'
_computing_data_collection       'Bruker D8'
_computing_publication_material
'Jana2000 (Petricek, Dusek & Palatinus, 2000)'
_computing_structure_refinement
'Jana2000 (Petricek, Dusek & Palatinus, 2000)'
_computing_structure_solution    'FOX http://objcryst.sourceforge.net'
_diffrn_ambient_temperature      293
_diffrn_detector                 'Briker D8'
_diffrn_detector_type            'position sensitive'
_diffrn_measurement_device_type  'Briker D8'
_diffrn_radiation_type           'Cu K\a'
_diffrn_radiation_wavelength     1.54178
_diffrn_source                   X-ray
_diffrn_source_type              'Cu K\a'
_exptl_absorpt_coefficient_mu    5.369
_exptl_absorpt_process_details
'(Jana2000; Petricek, Dusek & Palatinus, 2000)'
_exptl_crystal_density_diffrn    1.372
_exptl_crystal_F_000             608
_pd_char_colour                  yellow
_pd_instr_location               ' ?'
_pd_meas_2theta_range_inc        0.014
_pd_meas_2theta_range_max        59.864
_pd_meas_2theta_range_min        7.000
_pd_meas_number_of_points        3728
_pd_meas_scan_method             step
_pd_proc_2theta_range_inc        0.014
_pd_proc_2theta_range_max        59.864
_pd_proc_2theta_range_min        7
_pd_proc_ls_background_function  '16 Legendre polynoms'
_pd_proc_ls_pref_orient_corr     none
_pd_proc_ls_profile_function     Pseudo-Voigt
_pd_proc_ls_prof_R_factor        0.0220
_pd_proc_ls_prof_wR_expected     0.0206
_pd_proc_ls_prof_wR_factor       0.0307
_pd_spec_mount_mode              transmission
_pd_spec_shape                   cylinder
_refine_ls_extinction_method     none
_refine_ls_number_parameters     45
_refine_ls_R_factor_all          0.0952
_refine_ls_R_factor_gt           0.0947
_refine_ls_shift/su_max          0.0379
_refine_ls_shift/su_mean         0.0064
_refine_ls_weighting_scheme      sigma
_refine_ls_wR_factor_gt          0.0710
_refine_ls_wR_factor_ref         0.0712
_cod_data_source_file            b820882b.txt
_cod_data_source_block           (FeCp@MIL53_Al)
_cod_database_code               7000343
loop_
_symmetry_equiv_pos_site_id
_symmetry_equiv_pos_as_xyz
1 x,y,z
2 -x,y,z
3 x,1/2-y,z
4 x,1/2+y,-z
5 -x,-y,-z
6 x,-y,-z
7 -x,1/2+y,-z
8 -x,1/2-y,z
9 1/2+x,1/2+y,1/2+z
10 1/2-x,1/2+y,1/2+z
11 1/2+x,-y,1/2+z
12 1/2+x,y,1/2-z
13 1/2-x,1/2-y,1/2-z
14 1/2+x,1/2-y,1/2-z
15 1/2-x,y,1/2-z
16 1/2-x,-y,1/2+z
loop_
_atom_site_label
_atom_site_type_symbol
_atom_site_fract_x
_atom_site_fract_y
_atom_site_fract_z
_atom_site_adp_type
_atom_site_U_iso_or_equiv
_atom_site_symmetry_multiplicity
_atom_site_occupancy
_atom_site_calc_flag
_atom_site_refinement_flags
_atom_site_disorder_assembly
_atom_site_disorder_group
Al1 Al 0.25 0.25 0.75 Uiso 0.038 4 1 d . . .
O1 O 0 0.25 0.69297(13) Uiso 0.038 4 1 d . . .
O2 O 0.15590(17) 0.16690(12) 0.84182(12) Uiso 0.038 16 1 d . . .
C1 C 0 0.05987(19) 0.95711(15) Uiso 0.038 8 1 d . . .
C2 C 0 0.12911(14) 0.88311(11) Uiso 0.038 8 1 d . . .
C3 C -0.1958(4) 0.0361(2) 0.97409(15) Uiso 0.038 16 1 d . . .
Fe1 Fe 0.25 0.25 0.25 Uiso 0.038 4 0.5 d . . .
C4 C 0.080(10) 0.2934(13) 0.363(5) Uiso 0.038 16 0.5 d . . .
C5 C 0.287(9) 0.3234(17) 0.365(2) Uiso 0.038 16 0.5 d . . .
C6 C 0.425(11) 0.25 0.370(6) Uiso 0.038 8 0.5 d . . .
loop_
_atom_type_symbol
_atom_type_scat_dispersion_real
_atom_type_scat_dispersion_imag
_atom_type_scat_source
_atom_type_scat_Cromer_Mann_a1
_atom_type_scat_Cromer_Mann_b1
_atom_type_scat_Cromer_Mann_a2
_atom_type_scat_Cromer_Mann_b2
_atom_type_scat_Cromer_Mann_a3
_atom_type_scat_Cromer_Mann_b3
_atom_type_scat_Cromer_Mann_a4
_atom_type_scat_Cromer_Mann_b4
_atom_type_scat_Cromer_Mann_c
C 0.018 0.009 'International Tables Vol C Tables 4.2.6.8 and 6.1.1.4' 2.31
20.843901 1.02 10.2075 1.5886 0.5687 0.865 51.651199 0.2156
Al 0.213 0.245 'International Tables Vol C Tables 4.2.6.8 and 6.1.1.4' 6.4202
3.0387 1.9002 0.7426 1.5936 31.547199 1.9646 85.0886 1.1151
Fe -1.134 3.197 'International Tables Vol C Tables 4.2.6.8 and 6.1.1.4' 11.7695
4.7611 7.3573 0.3072 3.5222 15.3535 2.3045 76.880501 1.0369
O 0.049 0.032 'International Tables Vol C Tables 4.2.6.8 and 6.1.1.4' 3.0485
13.2771 2.2868 5.7011 1.5463 0.3239 0.867 32.908901 0.2508
loop_
_geom_angle_atom_site_label_1
_geom_angle_atom_site_label_2
_geom_angle_atom_site_label_3
_geom_angle_site_symmetry_1
_geom_angle_site_symmetry_2
_geom_angle_site_symmetry_3
_geom_angle
_geom_angle_publ_flag
O1 Al1 O1 . . 13_556 180 yes
O1 Al1 O2 . . . 86.67(5) yes
O1 Al1 O2 . . 13_556 93.33(5) yes
O1 Al1 O2 . . 3_555 86.67(5) yes
O1 Al1 O2 . . 15_556 93.33(5) yes
O1 Al1 O1 13_556 . . 180 yes
O1 Al1 O2 13_556 . . 93.33(5) yes
O1 Al1 O2 13_556 . 13_556 86.67(5) yes
O1 Al1 O2 13_556 . 3_555 93.33(5) yes
O1 Al1 O2 13_556 . 15_556 86.67(5) yes
O2 Al1 O2 . . 13_556 180 yes
O2 Al1 O2 . . 3_555 93.81(7) yes
O2 Al1 O2 . . 15_556 86.19(7) yes
O2 Al1 O2 13_556 . . 180 yes
O2 Al1 O2 13_556 . 3_555 86.19(7) yes
O2 Al1 O2 13_556 . 15_556 93.81(7) yes
O2 Al1 O2 3_555 . . 93.81(7) yes
O2 Al1 O2 3_555 . 13_556 86.19(7) yes
O2 Al1 O2 3_555 . 15_556 180 yes
O2 Al1 O2 15_556 . . 86.19(7) yes
O2 Al1 O2 15_556 . 13_556 93.81(7) yes
O2 Al1 O2 15_556 . 3_555 180 yes
Al1 O1 Al1 . . 2_555 133.11(10) yes
Al1 O1 O2 . . . 48.58(4) yes
Al1 O1 O2 . . 13_556 45.04(3) yes
Al1 O1 O2 . . 2_555 94.52(6) yes
Al1 O1 O2 . . 14_456 146.63(5) yes
Al1 O1 O2 . . 3_555 48.58(4) yes
Al1 O1 O2 . . 15_556 45.04(3) yes
Al1 O1 O2 . . 12_456 146.63(5) yes
Al1 O1 O2 . . 8_555 94.52(6) yes
Al1 O1 Al1 2_555 . . 133.11(10) yes
Al1 O1 O2 2_555 . . 94.52(6) yes
Al1 O1 O2 2_555 . 13_556 146.63(5) yes
Al1 O1 O2 2_555 . 2_555 48.58(4) yes
Al1 O1 O2 2_555 . 14_456 45.04(3) yes
Al1 O1 O2 2_555 . 3_555 94.52(6) yes
Al1 O1 O2 2_555 . 15_556 146.63(5) yes
Al1 O1 O2 2_555 . 12_456 45.04(3) yes
Al1 O1 O2 2_555 . 8_555 48.58(4) yes
O2 O1 O2 . . 13_556 93.62(5) yes
O2 O1 O2 . . 14_456 137.83(7) yes
O2 O1 O2 . . 3_555 66.53(7) yes
O2 O1 O2 . . 15_556 59.69(5) yes
O2 O1 O2 . . 12_456 99.99(6) yes
O2 O1 O2 . . 8_555 85.83(7) yes
O2 O1 O2 13_556 . . 93.62(5) yes
O2 O1 O2 13_556 . 2_555 137.83(7) yes
O2 O1 O2 13_556 . 14_456 114.33(6) yes
O2 O1 O2 13_556 . 3_555 59.69(5) yes
O2 O1 O2 13_556 . 15_556 62.34(6) yes
O2 O1 O2 13_556 . 12_456 161.41(8) yes
O2 O1 O2 13_556 . 8_555 99.99(6) yes
O2 O1 O2 2_555 . . 47.59(5) yes
O2 O1 O2 2_555 . 13_556 137.83(7) yes
O2 O1 O2 2_555 . 14_456 93.62(5) yes
O2 O1 O2 2_555 . 3_555 85.83(7) yes
O2 O1 O2 2_555 . 15_556 99.99(6) yes
O2 O1 O2 2_555 . 12_456 59.69(5) yes
O2 O1 O2 2_555 . 8_555 66.53(7) yes
O2 O1 O2 14_456 . . 137.83(7) yes
O2 O1 O2 14_456 . 13_556 114.33(6) yes
O2 O1 O2 14_456 . 2_555 93.62(5) yes
O2 O1 O2 14_456 . 3_555 99.99(6) yes
O2 O1 O2 14_456 . 15_556 161.41(8) yes
O2 O1 O2 14_456 . 12_456 62.34(6) yes
O2 O1 O2 14_456 . 8_555 59.69(5) yes
O2 O1 O2 3_555 . . 66.53(7) yes
O2 O1 O2 3_555 . 13_556 59.69(5) yes
O2 O1 O2 3_555 . 2_555 85.83(7) yes
O2 O1 O2 3_555 . 14_456 99.99(6) yes
O2 O1 O2 3_555 . 15_556 93.62(5) yes
O2 O1 O2 3_555 . 12_456 137.83(7) yes
O2 O1 O2 15_556 . . 59.69(5) yes
O2 O1 O2 15_556 . 13_556 62.34(6) yes
O2 O1 O2 15_556 . 2_555 99.99(6) yes
O2 O1 O2 15_556 . 14_456 161.41(8) yes
O2 O1 O2 15_556 . 3_555 93.62(5) yes
O2 O1 O2 15_556 . 12_456 114.33(6) yes
O2 O1 O2 15_556 . 8_555 137.83(7) yes
O2 O1 O2 12_456 . . 99.99(6) yes
O2 O1 O2 12_456 . 13_556 161.41(8) yes
O2 O1 O2 12_456 . 2_555 59.69(5) yes
O2 O1 O2 12_456 . 14_456 62.34(6) yes
O2 O1 O2 12_456 . 3_555 137.83(7) yes
O2 O1 O2 12_456 . 15_556 114.33(6) yes
O2 O1 O2 12_456 . 8_555 93.62(5) yes
O2 O1 O2 8_555 . . 85.83(7) yes
O2 O1 O2 8_555 . 13_556 99.99(6) yes
O2 O1 O2 8_555 . 2_555 66.53(7) yes
O2 O1 O2 8_555 . 14_456 59.69(5) yes
O2 O1 O2 8_555 . 15_556 137.83(7) yes
O2 O1 O2 8_555 . 12_456 93.62(5) yes
Al1 O2 C1 . . . 174.87(7) yes
Al1 O2 C2 . . . 147.48(12) yes
Al1 O2 C3 . . 2_555 155.51(8) yes
O1 O2 O1 . . 13_556 86.38(6) yes
O1 O2 O2 . . 2_555 66.20(6) yes
O1 O2 O2 . . 3_555 56.73(5) yes
O1 O2 O2 . . 15_556 63.05(5) yes
O1 O2 C1 . . . 130.20(5) yes
O1 O2 C2 . . . 103.77(9) yes
O1 O2 C3 . . 2_555 155.95(8) yes
O1 O2 O1 13_556 . . 86.38(6) yes
O1 O2 O2 13_556 . 2_555 147.17(11) yes
O1 O2 O2 13_556 . 3_555 58.83(5) yes
O1 O2 O2 13_556 . 15_556 57.26(6) yes
O1 O2 C1 13_556 . . 143.41(7) yes
O1 O2 C2 13_556 . . 166.11(12) yes
O1 O2 C3 13_556 . 2_555 115.37(7) yes
O2 O2 O2 2_555 . 3_555 90 yes
O2 O2 O2 2_555 . 15_556 118.33(8) yes
O2 O2 C1 2_555 . . 65.99(7) yes
O2 O2 C3 2_555 . 2_555 95.45(9) yes
O2 O2 O2 3_555 . 2_555 90 yes
O2 O2 O2 3_555 . 15_556 90 yes
O2 O2 C1 3_555 . . 135.42(9) yes
O2 O2 C2 3_555 . . 118.91(13) yes
O2 O2 C3 3_555 . 2_555 142.65(8) yes
O2 O2 O2 15_556 . 2_555 118.33(8) yes
O2 O2 O2 15_556 . 3_555 90 yes
O2 O2 C1 15_556 . . 134.15(11) yes
O2 O2 C2 15_556 . . 135.85(13) yes
O2 O2 C3 15_556 . 2_555 118.84(9) yes
C2 O2 C3 . . 2_555 56.92(11) yes
O2 C1 C1 . . 5_557 153.86(7) yes
O2 C1 C3 . . . 132.93(18) yes
O2 C1 C3 . . 5_557 119.94(7) yes
O2 C1 C3 . . 2_555 85.03(15) yes
O2 C1 C3 . . 6_557 165.50(9) yes
O2 C1 C1 2_555 . 5_557 153.86(7) yes
O2 C1 C3 2_555 . . 85.03(15) yes
O2 C1 C3 2_555 . 5_557 165.50(9) yes
O2 C1 C3 2_555 . 2_555 132.93(18) yes
O2 C1 C3 2_555 . 6_557 119.94(7) yes
C1 C1 C2 5_557 . . 169.56(17) yes
C1 C1 C3 5_557 . . 70.66(17) yes
C1 C1 C3 5_557 . 2_555 70.66(17) yes
C2 C1 C3 . . . 109.00(16) yes
C2 C1 C3 . . 5_557 143.48(8) yes
C2 C1 C3 . . 2_555 109.00(16) yes
C2 C1 C3 . . 6_557 143.48(8) yes
C3 C1 C3 . . 5_557 105.9(2) yes
C3 C1 C3 . . 2_555 141.3(3) yes
C3 C1 C3 5_557 . 6_557 70.40(13) yes
C3 C1 C3 2_555 . 6_557 105.9(2) yes
C3 C1 C3 6_557 . 5_557 70.40(13) yes
C3 C1 C3 6_557 . 2_555 105.9(2) yes
O2 C2 O2 . . 2_555 102.87(17) yes
O2 C2 C1 . . . 128.56(10) yes
O2 C2 C3 . . . 162.12(14) yes
O2 C2 C3 . . 2_555 94.82(10) yes
O2 C2 O2 2_555 . . 102.87(17) yes
O2 C2 C1 2_555 . . 128.56(10) yes
O2 C2 C3 2_555 . . 94.82(10) yes
O2 C2 C3 2_555 . 2_555 162.12(14) yes
C3 C2 C3 . . 2_555 67.39(11) yes
C3 C2 C3 2_555 . . 67.39(11) yes
O2 C3 C1 2_555 . . 65.47(16) yes
O2 C3 C1 2_555 . 5_557 138.49(11) yes
O2 C3 C3 2_555 . 5_557 112.27(10) yes
O2 C3 C3 2_555 . 2_555 84.55(10) yes
O2 C3 C3 2_555 . 6_557 169.61(18) yes
C1 C3 C1 . . 5_557 74.14(17) yes
C1 C3 C3 . . 5_557 47.41(16) yes
C1 C3 C1 5_557 . . 74.14(17) yes
C1 C3 C2 5_557 . . 110.70(11) yes
C1 C3 C3 5_557 . 2_555 54.80(10) yes
C2 C3 C3 . . 5_557 84.16(9) yes
C2 C3 C3 . . 2_555 56.30(9) yes
C2 C3 C3 . . 6_557 145.49(19) yes
C3 C3 C3 5_557 . 6_557 61.93(15) yes
C3 C3 C3 2_555 . 6_557 90 yes
C3 C3 C3 6_557 . 5_557 61.93(15) yes
C3 C3 C3 6_557 . 2_555 90 yes
C4 Fe1 C4 . . 13_555 180 yes
C4 Fe1 C4 . . 2_555 19(2) yes
C4 Fe1 C4 . . 14_555 161(2) yes
C4 Fe1 C4 . . 3_555 44.1(13) yes
C4 Fe1 C4 . . 15_555 135.9(13) yes
C4 Fe1 C4 . . 12_555 138.0(14) yes
C4 Fe1 C4 . . 8_555 42.0(14) yes
C4 Fe1 C5 . . . 44(2) yes
C4 Fe1 C5 . . 13_555 136(2) yes
C4 Fe1 C5 . . 3_555 76.6(18) yes
C4 Fe1 C5 . . 15_555 103.4(18) yes
C4 Fe1 C6 . . . 77(3) yes
C4 Fe1 C6 . . 13_555 103(3) yes
C4 Fe1 C6 . . 2_655 93(2) yes
C4 Fe1 C6 . . 14_455 87(2) yes
C4 Fe1 C4 13_555 . . 180 yes
C4 Fe1 C4 13_555 . 2_555 161(2) yes
C4 Fe1 C4 13_555 . 14_555 19(2) yes
C4 Fe1 C4 13_555 . 3_555 135.9(13) yes
C4 Fe1 C4 13_555 . 15_555 44.1(13) yes
C4 Fe1 C4 13_555 . 12_555 42.0(14) yes
C4 Fe1 C4 13_555 . 8_555 138.0(14) yes
C4 Fe1 C5 13_555 . . 136(2) yes
C4 Fe1 C5 13_555 . 13_555 44(2) yes
C4 Fe1 C5 13_555 . 3_555 103.4(18) yes
C4 Fe1 C5 13_555 . 15_555 76.6(18) yes
C4 Fe1 C6 13_555 . . 103(3) yes
C4 Fe1 C6 13_555 . 13_555 77(3) yes
C4 Fe1 C6 13_555 . 2_655 87(2) yes
C4 Fe1 C6 13_555 . 14_455 93(2) yes
C4 Fe1 C4 2_555 . . 19(2) yes
C4 Fe1 C4 2_555 . 13_555 161(2) yes
C4 Fe1 C4 2_555 . 14_555 180 yes
C4 Fe1 C4 2_555 . 3_555 42.0(14) yes
C4 Fe1 C4 2_555 . 15_555 138.0(14) yes
C4 Fe1 C4 2_555 . 12_555 148.6(8) yes
C4 Fe1 C4 2_555 . 8_555 31.4(8) yes
C4 Fe1 C5 2_555 . . 62(2) yes
C4 Fe1 C5 2_555 . 13_555 118(2) yes
C4 Fe1 C5 2_555 . 3_555 83.2(18) yes
C4 Fe1 C5 2_555 . 15_555 96.8(18) yes
C4 Fe1 C6 2_555 . . 94(2) yes
C4 Fe1 C6 2_555 . 13_555 86(2) yes
C4 Fe1 C6 2_555 . 2_655 111(2) yes
C4 Fe1 C6 2_555 . 14_455 69(2) yes
C4 Fe1 C4 14_555 . . 161(2) yes
C4 Fe1 C4 14_555 . 13_555 19(2) yes
C4 Fe1 C4 14_555 . 2_555 180 yes
C4 Fe1 C4 14_555 . 3_555 138.0(14) yes
C4 Fe1 C4 14_555 . 15_555 42.0(14) yes
C4 Fe1 C4 14_555 . 12_555 31.4(8) yes
C4 Fe1 C4 14_555 . 8_555 148.6(8) yes
C4 Fe1 C5 14_555 . . 118(2) yes
C4 Fe1 C5 14_555 . 13_555 62(2) yes
C4 Fe1 C5 14_555 . 3_555 96.8(18) yes
C4 Fe1 C5 14_555 . 15_555 83.2(18) yes
C4 Fe1 C6 14_555 . . 86(2) yes
C4 Fe1 C6 14_555 . 13_555 94(2) yes
C4 Fe1 C6 14_555 . 2_655 69(2) yes
C4 Fe1 C6 14_555 . 14_455 111(2) yes
C4 Fe1 C4 3_555 . . 44.1(13) yes
C4 Fe1 C4 3_555 . 13_555 135.9(13) yes
C4 Fe1 C4 3_555 . 2_555 42.0(14) yes
C4 Fe1 C4 3_555 . 14_555 138.0(14) yes
C4 Fe1 C4 3_555 . 15_555 180 yes
C4 Fe1 C4 3_555 . 12_555 161(2) yes
C4 Fe1 C4 3_555 . 8_555 19(2) yes
C4 Fe1 C5 3_555 . . 76.6(18) yes
C4 Fe1 C5 3_555 . 13_555 103.4(18) yes
C4 Fe1 C5 3_555 . 3_555 44(2) yes
C4 Fe1 C5 3_555 . 15_555 136(2) yes
C4 Fe1 C6 3_555 . . 77(3) yes
C4 Fe1 C6 3_555 . 13_555 103(3) yes
C4 Fe1 C6 3_555 . 2_655 93(2) yes
C4 Fe1 C6 3_555 . 14_455 87(2) yes
C4 Fe1 C4 15_555 . . 135.9(13) yes
C4 Fe1 C4 15_555 . 13_555 44.1(13) yes
C4 Fe1 C4 15_555 . 2_555 138.0(14) yes
C4 Fe1 C4 15_555 . 14_555 42.0(14) yes
C4 Fe1 C4 15_555 . 3_555 180 yes
C4 Fe1 C4 15_555 . 12_555 19(2) yes
C4 Fe1 C4 15_555 . 8_555 161(2) yes
C4 Fe1 C5 15_555 . . 103.4(18) yes
C4 Fe1 C5 15_555 . 13_555 76.6(18) yes
C4 Fe1 C5 15_555 . 3_555 136(2) yes
C4 Fe1 C5 15_555 . 15_555 44(2) yes
C4 Fe1 C6 15_555 . . 103(3) yes
C4 Fe1 C6 15_555 . 13_555 77(3) yes
C4 Fe1 C6 15_555 . 2_655 87(2) yes
C4 Fe1 C6 15_555 . 14_455 93(2) yes
C4 Fe1 C4 12_555 . . 138.0(14) yes
C4 Fe1 C4 12_555 . 13_555 42.0(14) yes
C4 Fe1 C4 12_555 . 2_555 148.6(8) yes
C4 Fe1 C4 12_555 . 14_555 31.4(8) yes
C4 Fe1 C4 12_555 . 3_555 161(2) yes
C4 Fe1 C4 12_555 . 15_555 19(2) yes
C4 Fe1 C4 12_555 . 8_555 180 yes
C4 Fe1 C5 12_555 . . 96.8(18) yes
C4 Fe1 C5 12_555 . 13_555 83.2(18) yes
C4 Fe1 C5 12_555 . 3_555 118(2) yes
C4 Fe1 C5 12_555 . 15_555 62(2) yes
C4 Fe1 C6 12_555 . . 86(2) yes
C4 Fe1 C6 12_555 . 13_555 94(2) yes
C4 Fe1 C6 12_555 . 2_655 69(2) yes
C4 Fe1 C6 12_555 . 14_455 111(2) yes
C4 Fe1 C4 8_555 . . 42.0(14) yes
C4 Fe1 C4 8_555 . 13_555 138.0(14) yes
C4 Fe1 C4 8_555 . 2_555 31.4(8) yes
C4 Fe1 C4 8_555 . 14_555 148.6(8) yes
C4 Fe1 C4 8_555 . 3_555 19(2) yes
C4 Fe1 C4 8_555 . 15_555 161(2) yes
C4 Fe1 C4 8_555 . 12_555 180 yes
C4 Fe1 C5 8_555 . . 83.2(18) yes
C4 Fe1 C5 8_555 . 13_555 96.8(18) yes
C4 Fe1 C5 8_555 . 3_555 62(2) yes
C4 Fe1 C5 8_555 . 15_555 118(2) yes
C4 Fe1 C6 8_555 . . 94(2) yes
C4 Fe1 C6 8_555 . 13_555 86(2) yes
C4 Fe1 C6 8_555 . 2_655 111(2) yes
C4 Fe1 C6 8_555 . 14_455 69(2) yes
C5 Fe1 C5 . . 13_555 180 yes
C5 Fe1 C5 . . 3_555 80.2(12) yes
C5 Fe1 C5 . . 15_555 99.8(12) yes
C5 Fe1 C6 . . . 47.5(17) yes
C5 Fe1 C6 . . 13_555 132.5(17) yes
C5 Fe1 C6 . . 2_655 57.5(19) yes
C5 Fe1 C6 . . 14_455 122.5(19) yes
C5 Fe1 C5 13_555 . . 180 yes
C5 Fe1 C5 13_555 . 3_555 99.8(12) yes
C5 Fe1 C5 13_555 . 15_555 80.2(12) yes
C5 Fe1 C6 13_555 . . 132.5(17) yes
C5 Fe1 C6 13_555 . 13_555 47.5(17) yes
C5 Fe1 C6 13_555 . 2_655 122.5(19) yes
C5 Fe1 C6 13_555 . 14_455 57.5(19) yes
C5 Fe1 C5 3_555 . . 80.2(12) yes
C5 Fe1 C5 3_555 . 13_555 99.8(12) yes
C5 Fe1 C5 3_555 . 15_555 180 yes
C5 Fe1 C6 3_555 . . 47.5(17) yes
C5 Fe1 C6 3_555 . 13_555 132.5(17) yes
C5 Fe1 C6 3_555 . 2_655 57.5(19) yes
C5 Fe1 C6 3_555 . 14_455 122.5(19) yes
C5 Fe1 C5 15_555 . . 99.8(12) yes
C5 Fe1 C5 15_555 . 13_555 80.2(12) yes
C5 Fe1 C5 15_555 . 3_555 180 yes
C5 Fe1 C6 15_555 . . 132.5(17) yes
C5 Fe1 C6 15_555 . 13_555 47.5(17) yes
C5 Fe1 C6 15_555 . 2_655 122.5(19) yes
C5 Fe1 C6 15_555 . 14_455 57.5(19) yes
C6 Fe1 C6 . . 13_555 180 yes
C6 Fe1 C6 . . 2_655 18(3) yes
C6 Fe1 C6 . . 14_455 162(3) yes
C6 Fe1 C6 13_555 . . 180 yes
C6 Fe1 C6 13_555 . 2_655 162(3) yes
C6 Fe1 C6 13_555 . 14_455 18(3) yes
C6 Fe1 C6 2_655 . . 18(3) yes
C6 Fe1 C6 2_655 . 13_555 162(3) yes
C6 Fe1 C6 2_655 . 14_455 180 yes
C6 Fe1 C6 14_455 . . 162(3) yes
C6 Fe1 C6 14_455 . 13_555 18(3) yes
C6 Fe1 C6 14_455 . 2_655 180 yes
Fe1 C4 Fe1 . . 2_555 89(2) yes
Fe1 C4 C4 . . 2_555 125(5) yes
Fe1 C4 C4 . . 3_555 68(3) yes
Fe1 C4 C4 . . 8_555 92(2) yes
Fe1 C4 C5 . . . 67(3) yes
Fe1 C4 C5 . . 2_555 130(3) yes
Fe1 C4 C5 . . 3_555 51.2(13) yes
Fe1 C4 C6 . . . 51(2) yes
Fe1 C4 Fe1 2_555 . . 89(2) yes
Fe1 C4 C4 2_555 . 3_555 74(3) yes
Fe1 C4 C4 2_555 . 8_555 46(2) yes
Fe1 C4 C5 2_555 . . 150(4) yes
Fe1 C4 C5 2_555 . 3_555 104.2(17) yes
Fe1 C4 C6 2_555 . . 135(2) yes
C4 C4 C4 2_555 . 3_555 90 yes
C4 C4 C4 2_555 . 8_555 54(3) yes
C4 C4 C5 2_555 . . 160(3) yes
C4 C4 C5 2_555 . 3_555 125(3) yes
C4 C4 C6 2_555 . . 162(2) yes
C4 C4 C4 3_555 . 2_555 90 yes
C4 C4 C5 3_555 . . 110(4) yes
C4 C4 C5 3_555 . 2_555 102(4) yes
C4 C4 C6 3_555 . . 72(3) yes
C4 C4 C5 8_555 . . 146(4) yes
C4 C4 C5 8_555 . 2_555 66(3) yes
C4 C4 C5 8_555 . 3_555 71(2) yes
C4 C4 C6 8_555 . . 108(2) yes
C5 C4 C5 . . 2_555 148(2) yes
C5 C4 C5 . . 3_555 76(3) yes
C5 C4 C5 2_555 . . 148(2) yes
C5 C4 C5 2_555 . 3_555 136(2) yes
C5 C4 C6 2_555 . . 173(2) yes
C5 C4 C5 3_555 . . 76(3) yes
C5 C4 C5 3_555 . 2_555 136(2) yes
Fe1 C5 C4 . . . 69(3) yes
Fe1 C5 C4 . . 2_555 75(2) yes
Fe1 C5 C4 . . 3_555 52.3(17) yes
Fe1 C5 C5 . . 2_655 97(2) yes
Fe1 C5 C5 . . 3_555 49.9(10) yes
Fe1 C5 C6 . . . 66(3) yes
Fe1 C5 C6 . . 2_655 77(2) yes
C4 C5 C5 . . 2_655 160(2) yes
C4 C5 C5 . . 3_555 70(2) yes
C4 C5 C5 . . 15_555 80(3) yes
C4 C5 C6 . . . 106(3) yes
C4 C5 C6 . . 2_655 127(2) yes
C4 C5 C5 2_555 . 2_655 168.2(15) yes
C4 C5 C5 2_555 . 3_555 78(2) yes
C4 C5 C5 2_555 . 15_555 80(2) yes
C4 C5 C6 2_555 . . 115(3) yes
C4 C5 C6 2_555 . 2_655 135.3(18) yes
C4 C5 C5 3_555 . 2_655 125(2) yes
C4 C5 C5 3_555 . 15_555 84(2) yes
C4 C5 C6 3_555 . . 71(3) yes
C4 C5 C6 3_555 . 2_655 91.8(19) yes
C5 C5 C5 2_655 . 3_555 90 yes
C5 C5 C5 2_655 . 15_555 99.6(18) yes
C5 C5 C5 3_555 . 2_655 90 yes
C5 C5 C5 3_555 . 15_555 90 yes
C5 C5 C5 15_555 . 2_655 99.6(18) yes
C5 C5 C5 15_555 . 3_555 90 yes
C5 C5 C6 15_555 . . 98(3) yes
C5 C5 C6 15_555 . 2_655 100(2) yes
Fe1 C6 Fe1 . . 2_655 92(3) yes
Fe1 C6 C4 . . . 53(2) yes
Fe1 C6 C4 . . 3_555 53(2) yes
Fe1 C6 C5 . . . 67(3) yes
Fe1 C6 C5 . . 2_655 119(3) yes
Fe1 C6 C5 . . 3_555 67(3) yes
Fe1 C6 C5 . . 8_655 119(3) yes
Fe1 C6 C6 . . 2_655 127(7) yes
Fe1 C6 Fe1 2_655 . . 92(3) yes
Fe1 C6 C4 2_655 . . 139(3) yes
Fe1 C6 C4 2_655 . 3_555 139(3) yes
Fe1 C6 C5 2_655 . . 118(3) yes
Fe1 C6 C5 2_655 . 2_655 45.4(15) yes
Fe1 C6 C5 2_655 . 3_555 118(3) yes
Fe1 C6 C5 2_655 . 8_655 45.4(15) yes
C4 C6 C5 . . 2_655 129.1(13) yes
C4 C6 C5 . . 3_555 71(3) yes
C4 C6 C5 . . 8_655 164(2) yes
C4 C6 C6 . . 2_655 162.0(12) yes
C4 C6 C5 3_555 . . 71(3) yes
C4 C6 C5 3_555 . 2_655 164(2) yes
C4 C6 C5 3_555 . 8_655 129.1(13) yes
C4 C6 C6 3_555 . 2_655 162.0(12) yes
C5 C6 C5 . . 2_655 93(2) yes
C5 C6 C5 . . 3_555 107(5) yes
C5 C6 C5 . . 8_655 159(4) yes
C5 C6 C6 . . 2_655 126(3) yes
C5 C6 C5 2_655 . . 93(2) yes
C5 C6 C5 2_655 . 3_555 159(4) yes
C5 C6 C5 3_555 . . 107(5) yes
C5 C6 C5 3_555 . 2_655 159(4) yes
C5 C6 C5 3_555 . 8_655 93(2) yes
C5 C6 C6 3_555 . 2_655 126(3) yes
C5 C6 C5 8_655 . . 159(4) yes
C5 C6 C5 8_655 . 2_655 66(2) yes
C5 C6 C5 8_655 . 3_555 93(2) yes
loop_
_geom_bond_atom_site_label_1
_geom_bond_atom_site_label_2
_geom_bond_site_symmetry_1
_geom_bond_site_symmetry_2
_geom_bond_distance
_geom_bond_publ_flag
Al1 O1 . . 1.8048(7) yes
Al1 O1 . 13_556 1.8048(7) yes
Al1 O2 . . 1.9225(18) yes
Al1 O2 . 13_556 1.9225(18) yes
Al1 O2 . 3_555 1.9225(18) yes
Al1 O2 . 15_556 1.9225(18) yes
O1 O2 . . 2.559(2) yes
O1 O2 . 13_556 2.7123(15) yes
O1 O2 . 2_555 2.559(2) yes
O1 O2 . 14_456 2.7123(15) yes
O1 O2 . 3_555 2.559(2) yes
O1 O2 . 15_556 2.7123(15) yes
O1 O2 . 12_456 2.7123(15) yes
O1 O2 . 8_555 2.559(2) yes
O2 O2 . 2_555 2.0652(16) yes
O2 O2 . 3_555 2.808(3) yes
O2 O2 . 15_556 2.627(2) yes
O2 C1 . . 2.538(3) yes
O2 C2 . . 1.3206(19) yes
O2 C3 . 2_555 2.780(4) yes
C1 C2 . . 1.495(3) yes
C1 C3 . . 1.374(3) yes
C3 C3 . 6_557 1.383(4) yes
Fe1 C4 . . 1.95(6) yes
Fe1 C4 . 13_555 1.95(6) yes
Fe1 C4 . 2_555 2.71(6) yes
Fe1 C4 . 14_555 2.71(6) yes
Fe1 C4 . 3_555 1.95(6) yes
Fe1 C4 . 15_555 1.95(6) yes
Fe1 C4 . 12_555 2.71(6) yes
Fe1 C4 . 8_555 2.71(6) yes
Fe1 C5 . . 1.92(3) yes
Fe1 C5 . 13_555 1.92(3) yes
Fe1 C5 . 3_555 1.92(3) yes
Fe1 C5 . 15_555 1.92(3) yes
Fe1 C6 . . 1.90(7) yes
Fe1 C6 . 13_555 1.90(7) yes
Fe1 C6 . 2_655 2.63(7) yes
Fe1 C6 . 14_455 2.63(7) yes
C4 C5 . . 1.46(8) yes
C5 C6 . . 1.54(6) yes
loop_
_pd_proc_point_id
_pd_proc_2theta_corrected
_pd_proc_intensity_net
_pd_calc_intensity_net
_pd_proc_ls_weight
1 6.9084 5926.00 5853.57 76.98
2 6.9226 5846.00 5836.54 76.46
3 6.9368 5847.00 5819.70 76.47
4 6.9510 5821.00 5803.05 76.30
5 6.9651 5779.00 5786.69 76.02
6 6.9793 5766.00 5770.39 75.93
7 6.9935 5748.00 5754.26 75.82
8 7.0077 5657.00 5738.31 75.21
9 7.0219 5699.00 5722.52 75.49
10 7.0361 5714.00 5706.90 75.59
11 7.0502 5687.00 5691.55 75.41
12 7.0644 5502.00 5676.25 74.18
13 7.0786 5759.00 5661.12 75.89
14 7.0928 5623.00 5646.13 74.99
15 7.1070 5738.00 5631.31 75.75
16 7.1212 5577.00 5616.63 74.68
17 7.1353 5564.00 5602.20 74.59
18 7.1495 5640.00 5587.82 75.10
19 7.1637 5669.00 5573.58 75.29
20 7.1779 5672.00 5559.48 75.31
21 7.1921 5489.00 5545.53 74.09
22 7.2063 5622.00 5531.71 74.98
23 7.2204 5485.00 5518.12 74.06
24 7.2346 5462.00 5504.57 73.91
25 7.2488 5507.00 5491.14 74.21
26 7.2630 5484.00 5477.85 74.05
27 7.2772 5538.00 5464.69 74.42
28 7.2914 5486.00 5451.65 74.07
29 7.3056 5477.00 5438.73 74.01
30 7.3197 5470.00 5426.02 73.96
31 7.3339 5406.00 5413.34 73.53
32 7.3481 5390.00 5408.84 73.42
33 7.3623 5409.00 5396.58 73.55
34 7.3765 5372.00 5388.47 73.29
35 7.3907 5322.00 5376.55 72.95
36 7.4048 5513.00 5364.83 74.25
37 7.4190 5191.00 5353.15 72.05
38 7.4332 5463.00 5341.59 73.91
39 7.4474 5294.00 5330.14 72.76
40 7.4616 5340.00 5318.81 73.08
41 7.4758 5284.00 5307.59 72.69
42 7.4899 5331.00 5296.57 73.01
43 7.5041 5296.00 5285.58 72.77
44 7.5183 5160.00 5274.70 71.83
45 7.5325 5400.00 5263.94 73.48
46 7.5467 5199.00 5253.28 72.10
47 7.5609 5383.00 5242.74 73.37
48 7.5750 5433.00 5232.38 73.71
49 7.5892 5321.00 5222.06 72.95
50 7.6034 5191.00 5211.85 72.05
51 7.6176 5242.00 5201.75 72.40
52 7.6318 5321.00 5191.75 72.95
53 7.6460 5165.00 5181.87 71.87
54 7.6602 5188.00 5172.10 72.03
55 7.6743 5292.00 5162.50 72.75
56 7.6885 5167.00 5152.95 71.88
57 7.7027 5254.00 5143.52 72.48
58 7.7169 5099.00 5134.19 71.41
59 7.7311 5239.00 5124.98 72.38
60 7.7453 5159.00 5115.88 71.83
61 7.7594 5128.00 5106.97 71.61
62 7.7736 5184.00 5098.11 72.00
63 7.7878 4992.00 5089.38 70.65
64 7.8020 5201.00 5080.76 72.12
65 7.8162 5083.00 5072.28 71.30
66 7.8304 5022.00 5063.92 70.87
67 7.8445 5044.00 5055.76 71.02
68 7.8587 4931.00 5047.68 70.22
69 7.8729 5078.00 5039.74 71.26
70 7.8871 5056.00 5031.95 71.11
71 7.9013 5179.00 5024.32 71.97
72 7.9155 5093.00 5016.85 71.37
73 7.9296 4965.00 5009.60 70.46
74 7.9438 5063.00 5002.47 71.15
75 7.9580 5016.00 4995.54 70.82
76 7.9722 4942.00 4988.80 70.30
77 7.9864 4991.00 4982.28 70.65
78 8.0006 4996.00 4975.99 70.68
79 8.0148 4857.00 4969.94 69.69
80 8.0289 4948.00 4964.20 70.34
81 8.0431 5023.00 4958.70 70.87
82 8.0573 5031.00 4953.52 70.93
83 8.0715 5010.00 4948.68 70.78
84 8.0857 4914.00 4944.24 70.10
85 8.0999 4850.00 4940.25 69.64
86 8.1140 5005.00 4936.79 70.75
87 8.1282 5013.00 4933.91 70.80
88 8.1424 4926.00 4931.76 70.19
89 8.1566 4947.00 4930.48 70.33
90 8.1708 4950.00 4930.29 70.36
91 8.1850 4921.00 4931.44 70.15
92 8.1991 4974.00 4934.27 70.53
93 8.2133 5062.00 4939.22 71.15
94 8.2275 4852.00 4946.81 69.66
95 8.2417 5156.00 4957.67 71.81
96 8.2559 5040.00 4972.52 70.99
97 8.2701 5010.00 4992.18 70.78
98 8.2842 4881.00 5017.29 69.86
99 8.2984 5004.00 5049.07 70.74
100 8.3126 5050.00 5088.21 71.06
101 8.3268 5107.00 5135.51 71.46
102 8.3410 5165.00 5191.72 71.87
103 8.3552 5153.00 5257.62 71.78
104 8.3694 5054.00 5334.20 71.09
105 8.3835 5337.00 5422.12 73.05
106 8.3977 5254.00 5524.44 72.48
107 8.4119 5287.00 5642.82 72.71
108 8.4261 5552.00 5779.71 74.51
109 8.4403 5660.00 5937.46 75.23
110 8.4545 5709.00 6118.34 75.56
111 8.4686 5735.00 6323.72 75.73
112 8.4828 6062.00 6561.44 77.86
113 8.4970 6494.00 6838.15 80.59
114 8.5112 6695.00 7163.54 81.82
115 8.5254 6991.00 7541.38 83.61
116 8.5396 7624.00 7954.27 87.32
117 8.5537 7819.00 8344.39 88.43
118 8.5679 8587.00 8625.52 92.67
119 8.5821 8624.00 8701.11 92.87
120 8.5963 8565.00 8527.59 92.55
121 8.6105 7723.00 8133.92 87.88
122 8.6247 7041.00 7600.01 83.91
123 8.6388 6487.00 7020.95 80.54
124 8.6530 5732.00 6461.52 75.71
125 8.6672 5395.00 5971.81 73.45
126 8.6814 5133.00 5572.59 71.64
127 8.6956 5005.00 5265.81 70.75
128 8.7098 4922.00 5041.70 70.16
129 8.7240 4915.00 4885.09 70.11
130 8.7381 4856.00 4780.56 69.68
131 8.7523 4701.00 4712.43 68.56
132 8.7665 4788.00 4670.13 69.20
133 8.7807 4859.00 4644.94 69.71
134 8.7949 4766.00 4630.49 69.04
135 8.8091 4708.00 4622.18 68.61
136 8.8232 4711.00 4616.86 68.64
137 8.8374 4663.00 4612.34 68.29
138 8.8516 4724.00 4607.34 68.73
139 8.8658 4569.00 4601.17 67.59
140 8.8800 4621.00 4593.55 67.98
141 8.8942 4626.00 4584.52 68.01
142 8.9083 4535.00 4574.35 67.34
143 8.9225 4701.00 4563.16 68.56
144 8.9367 4670.00 4551.32 68.34
145 8.9509 4552.00 4539.10 67.47
146 8.9651 4547.00 4526.74 67.43
147 8.9793 4432.00 4514.40 66.57
148 8.9934 4519.00 4502.33 67.22
149 9.0076 4519.00 4490.42 67.22
150 9.0218 4477.00 4478.83 66.91
151 9.0360 4557.00 4467.58 67.51
152 9.0502 4453.00 4456.67 66.73
153 9.0644 4444.00 4446.11 66.66
154 9.0786 4479.00 4435.87 66.93
155 9.0927 4480.00 4426.01 66.93
156 9.1069 4435.00 4416.37 66.60
157 9.1211 4502.00 4406.99 67.10
158 9.1353 4423.00 4397.86 66.51
159 9.1495 4527.00 4388.96 67.28
160 9.1637 4394.00 4380.26 66.29
161 9.1778 4428.00 4371.81 66.54
162 9.1920 4424.00 4363.48 66.51
163 9.2062 4474.00 4355.31 66.89
164 9.2204 4409.00 4347.29 66.40
165 9.2346 4465.00 4339.41 66.82
166 9.2488 4375.00 4331.65 66.14
167 9.2629 4439.00 4324.08 66.63
168 9.2771 4516.00 4316.55 67.20
169 9.2913 4427.00 4309.14 66.54
170 9.3055 4341.00 4301.82 65.89
171 9.3197 4399.00 4294.60 66.32
172 9.3339 4352.00 4287.46 65.97
173 9.3480 4380.00 4280.45 66.18
174 9.3622 4278.00 4289.64 65.41
175 9.3764 4335.00 4283.25 65.84
176 9.3906 4379.00 4284.96 66.17
177 9.4048 4237.00 4279.00 65.09
178 9.4190 4303.00 4273.14 65.60
179 9.4332 4402.00 4267.38 66.35
180 9.4473 4363.00 4261.77 66.05
181 9.4615 4329.00 4256.22 65.80
182 9.4757 4375.00 4250.77 66.14
183 9.4899 4343.00 4245.43 65.90
184 9.5041 4433.00 4240.19 66.58
185 9.5183 4449.00 4235.07 66.70
186 9.5324 4306.00 4230.09 65.62
187 9.5466 4414.00 4225.19 66.44
188 9.5608 4298.00 4220.41 65.56
189 9.5750 4290.00 4215.76 65.50
190 9.5892 4342.00 4211.24 65.89
191 9.6034 4272.00 4206.86 65.36
192 9.6175 4277.00 4202.65 65.40
193 9.6317 4457.00 4198.57 66.76
194 9.6459 4164.00 4194.65 64.53
195 9.6601 4201.00 4190.90 64.82
196 9.6743 4316.00 4187.34 65.70
197 9.6885 4236.00 4183.97 65.08
198 9.7026 4265.00 4180.85 65.31
199 9.7168 4247.00 4177.93 65.17
200 9.7310 4186.00 4175.27 64.70
201 9.7452 4264.00 4172.88 65.30
202 9.7594 4298.00 4170.79 65.56
203 9.7736 4252.00 4169.03 65.21
204 9.7878 4352.00 4167.63 65.97
205 9.8019 4233.00 4158.76 65.06
206 9.8161 4309.00 4154.44 65.64
207 9.8303 4181.00 4154.65 64.66
208 9.8445 4219.00 4155.41 64.95
209 9.8587 4289.00 4156.78 65.49
210 9.8729 4348.00 4158.86 65.94
211 9.8870 4243.00 4161.72 65.14
212 9.9012 4264.00 4165.53 65.30
213 9.9154 4318.00 4170.44 65.71
214 9.9296 4353.00 4176.66 65.98
215 9.9438 4303.00 4184.49 65.60
216 9.9580 4271.00 4194.34 65.35
217 9.9721 4302.00 4206.68 65.59
218 9.9863 4354.00 4222.50 65.98
219 10.0005 4344.00 4242.85 65.91
220 10.0147 4456.00 4269.28 66.75
221 10.0289 4480.00 4303.78 66.93
222 10.0431 4554.00 4348.90 67.48
223 10.0572 4516.00 4407.17 67.20
224 10.0714 4594.00 4482.70 67.78
225 10.0856 4631.00 4578.51 68.05
226 10.0998 4748.00 4697.69 68.91
227 10.1140 4907.00 4842.83 70.05
228 10.1282 5003.00 5015.96 70.73
229 10.1424 5207.00 5218.97 72.16
230 10.1565 5404.00 5452.67 73.51
231 10.1707 5696.00 5724.57 75.47
232 10.1849 6070.00 6040.46 77.91
233 10.1991 6445.00 6413.19 80.28
234 10.2133 6844.00 6865.69 82.73
235 10.2275 7585.00 7434.90 87.09
236 10.2416 8396.00 8156.54 91.63
237 10.2558 9157.00 9039.12 95.69
238 10.2700 9956.00 9941.14 99.78
239 10.2842 10401.00 10557.20 101.99
240 10.2984 10472.00 10598.00 102.33
241 10.3126 10100.00 10015.40 100.50
242 10.3267 9377.00 9005.00 96.83
243 10.3409 7874.00 7837.32 88.74
244 10.3551 6657.00 6755.68 81.59
245 10.3693 5981.00 5879.87 77.34
246 10.3835 5223.00 5234.14 72.27
247 10.3977 4777.00 4791.51 69.12
248 10.4118 4617.00 4508.39 67.95
249 10.4260 4337.00 4335.36 65.86
250 10.4402 4301.00 4236.74 65.58
251 10.4544 4356.00 4183.71 66.00
252 10.4686 4317.00 4155.93 65.70
253 10.4828 4106.00 4140.01 64.08
254 10.4970 4075.00 4127.81 63.84
255 10.5111 4211.00 4115.11 64.89
256 10.5253 4061.00 4099.99 63.73
257 10.5395 4019.00 4082.31 63.40
258 10.5537 4101.00 4062.65 64.04
259 10.5679 4042.00 4041.88 63.58
260 10.5821 4068.00 4020.83 63.78
261 10.5962 3996.00 4000.31 63.21
262 10.6104 3989.00 3980.47 63.16
263 10.6246 4015.00 3961.72 63.36
264 10.6388 3977.00 3944.17 63.06
265 10.6530 3929.00 3927.82 62.68
266 10.6672 3848.00 3912.61 62.03
267 10.6813 3914.00 3898.56 62.56
268 10.6955 3890.00 3885.37 62.37
269 10.7097 3962.00 3873.03 62.94
270 10.7239 3873.00 3861.45 62.23
271 10.7381 3917.00 3850.55 62.59
272 10.7523 3831.00 3840.26 61.90
273 10.7664 3839.00 3830.56 61.96
274 10.7806 3865.00 3821.27 62.17
275 10.7948 3938.00 3812.41 62.75
276 10.8090 3845.00 3803.93 62.01
277 10.8232 3806.00 3795.81 61.69
278 10.8374 3740.00 3787.99 61.16
279 10.8516 3810.00 3780.46 61.73
280 10.8657 3786.00 3773.24 61.53
281 10.8799 3852.00 3766.20 62.06
282 10.8941 3809.00 3759.38 61.72
283 10.9083 3817.00 3752.76 61.78
284 10.9225 3722.00 3746.31 61.01
285 10.9367 3680.00 3740.04 60.66
286 10.9508 3785.00 3733.97 61.52
287 10.9650 3651.00 3727.99 60.42
288 10.9792 3652.00 3722.15 60.43
289 10.9934 3651.00 3716.44 60.42
290 11.0076 3709.00 3710.84 60.90
291 11.0218 3632.00 3705.35 60.27
292 11.0359 3665.00 3700.00 60.54
293 11.0501 3592.00 3694.70 59.93
294 11.0643 3723.00 3689.50 61.02
295 11.0785 3582.00 3684.38 59.85
296 11.0927 3609.00 3679.34 60.08
297 11.1069 3689.00 3674.38 60.74
298 11.1210 3639.00 3669.52 60.32
299 11.1352 3610.00 3664.69 60.08
300 11.1494 3664.00 3659.93 60.53
301 11.1636 3639.00 3655.24 60.32
302 11.1778 3595.00 3650.60 59.96
303 11.1920 3704.00 3646.02 60.86
304 11.2062 3595.00 3641.49 59.96
305 11.2203 3678.00 3621.54 60.65
306 11.2345 3522.00 3609.72 59.35
307 11.2487 3546.00 3606.02 59.55
308 11.2629 3585.00 3602.32 59.87
309 11.2771 3551.00 3598.65 59.59
310 11.2913 3460.00 3594.99 58.82
311 11.3054 3510.00 3591.37 59.25
312 11.3196 3498.00 3587.75 59.14
313 11.3338 3553.00 3584.14 59.61
314 11.3480 3504.00 3580.55 59.19
315 11.3622 3645.00 3576.97 60.37
316 11.3764 3516.00 3573.41 59.30
317 11.3905 3538.00 3569.89 59.48
318 11.4047 3637.00 3566.37 60.31
319 11.4189 3540.00 3562.86 59.50
320 11.4331 3494.00 3559.37 59.11
321 11.4473 3367.00 3555.89 58.03
322 11.4615 3581.00 3552.44 59.84
323 11.4756 3595.00 3549.02 59.96
324 11.4898 3494.00 3545.59 59.11
325 11.5040 3488.00 3542.18 59.06
326 11.5182 3441.00 3538.79 58.66
327 11.5324 3541.00 3535.42 59.51
328 11.5466 3516.00 3532.06 59.30
329 11.5608 3401.00 3528.71 58.32
330 11.5749 3454.00 3525.41 58.77
331 11.5891 3434.00 3522.10 58.60
332 11.6033 3539.00 3518.81 59.49
333 11.6175 3526.00 3515.53 59.38
334 11.6317 3420.00 3512.27 58.48
335 11.6459 3495.00 3509.03 59.12
336 11.6600 3349.00 3505.82 57.87
337 11.6742 3424.00 3502.61 58.51
338 11.6884 3418.00 3499.42 58.46
339 11.7026 3413.00 3496.24 58.42
340 11.7168 3417.00 3493.08 58.46
341 11.7310 3434.00 3489.93 58.60
342 11.7451 3458.00 3486.82 58.80
343 11.7593 3481.00 3483.71 59.00
344 11.7735 3395.00 3480.61 58.27
345 11.7877 3415.00 3477.53 58.44
346 11.8019 3447.00 3474.47 58.71
347 11.8161 3399.00 3471.42 58.30
348 11.8302 3436.00 3468.41 58.62
349 11.8444 3365.00 3465.39 58.01
350 11.8586 3454.00 3462.39 58.77
351 11.8728 3372.00 3459.40 58.07
352 11.8870 3514.00 3456.43 59.28
353 11.9012 3394.00 3453.48 58.26
354 11.9154 3311.00 3450.54 57.54
355 11.9295 3344.00 3447.64 57.83
356 11.9437 3357.00 3444.73 57.94
357 11.9579 3479.00 3441.84 58.98
358 11.9721 3325.00 3438.97 57.66
359 11.9863 3423.00 3436.11 58.51
360 12.0005 3443.00 3433.27 58.68
361 12.0146 3426.00 3430.46 58.53
362 12.0288 3332.00 3427.65 57.72
363 12.0430 3402.00 3424.85 58.33
364 12.0572 3417.00 3422.07 58.46
365 12.0714 3289.00 3419.31 57.35
366 12.0856 3370.00 3416.56 58.05
367 12.0997 3421.00 3413.84 58.49
368 12.1139 3498.00 3411.12 59.14
369 12.1281 3374.00 3408.42 58.09
370 12.1423 3338.00 3405.73 57.78
371 12.1565 3285.00 3403.05 57.31
372 12.1707 3484.00 3400.40 59.03
373 12.1848 3408.00 3397.77 58.38
374 12.1990 3284.00 3395.14 57.31
375 12.2132 3362.00 3392.53 57.98
376 12.2274 3454.00 3389.93 58.77
377 12.2416 3480.00 3387.35 58.99
378 12.2558 3343.00 3384.78 57.82
379 12.2700 3338.00 3382.23 57.78
380 12.2841 3326.00 3379.71 57.67
381 12.2983 3469.00 3377.18 58.90
382 12.3125 3341.00 3374.67 57.80
383 12.3267 3284.00 3372.18 57.31
384 12.3409 3332.00 3369.70 57.72
385 12.3551 3437.00 3367.23 58.63
386 12.3692 3339.00 3364.80 57.78
387 12.3834 3284.00 3362.36 57.31
388 12.3976 3256.00 3359.94 57.06
389 12.4118 3241.00 3357.53 56.93
390 12.4260 3416.00 3355.14 58.45
391 12.4402 3308.00 3352.76 57.52
392 12.4543 3397.00 3350.41 58.28
393 12.4685 3337.00 3348.06 57.77
394 12.4827 3273.00 3345.73 57.21
395 12.4969 3173.00 3343.40 56.33
396 12.5111 3331.00 3341.10 57.71
397 12.5253 3149.00 3338.80 56.12
398 12.5394 3226.00 3336.54 56.80
399 12.5536 3270.00 3334.27 57.18
400 12.5678 3260.00 3332.02 57.10
401 12.5820 3330.00 3329.78 57.71
402 12.5962 3288.00 3327.55 57.34
403 12.6104 3363.00 3325.34 57.99
404 12.6246 3316.00 3323.14 57.58
405 12.6387 3168.00 3320.97 56.28
406 12.6529 3328.00 3318.80 57.69
407 12.6671 3243.00 3316.65 56.95
408 12.6813 3270.00 3314.50 57.18
409 12.6955 3324.00 3312.37 57.65
410 12.7097 3216.00 3310.25 56.71
411 12.7238 3151.00 3308.16 56.13
412 12.7380 3290.00 3306.07 57.36
413 12.7522 3255.00 3303.99 57.05
414 12.7664 3254.00 3301.93 57.04
415 12.7806 3213.00 3299.88 56.68
416 12.7948 3224.00 3297.84 56.78
417 12.8089 3295.00 3295.83 57.40
418 12.8231 3249.00 3293.81 57.00
419 12.8373 3232.00 3291.81 56.85
420 12.8515 3281.00 3289.82 57.28
421 12.8657 3273.00 3287.85 57.21
422 12.8799 3224.00 3285.88 56.78
423 12.8940 3242.00 3283.95 56.94
424 12.9082 3221.00 3282.01 56.75
425 12.9224 3229.00 3281.08 56.82
426 12.9366 3222.00 3279.20 56.76
427 12.9508 3135.00 3277.82 55.99
428 12.9650 3202.00 3275.98 56.59
429 12.9792 3294.00 3274.15 57.39
430 12.9933 3221.00 3272.35 56.75
431 13.0075 3208.00 3270.55 56.64
432 13.0217 3276.00 3268.77 57.24
433 13.0359 3211.00 3267.00 56.67
434 13.0501 3114.00 3265.25 55.80
435 13.0643 3183.00 3263.51 56.42
436 13.0784 3293.00 3261.80 57.38
437 13.0926 3237.00 3260.09 56.89
438 13.1068 3088.00 3258.40 55.57
439 13.1210 3151.00 3256.73 56.13
440 13.1352 3258.00 3255.07 57.08
441 13.1494 3169.00 3253.43 56.29
442 13.1635 3219.00 3251.81 56.74
443 13.1777 3200.00 3250.20 56.57
444 13.1919 3208.00 3248.61 56.64
445 13.2061 3277.00 3247.04 57.25
446 13.2203 3188.00 3245.48 56.46
447 13.2345 3110.00 3243.95 55.77
448 13.2486 3275.00 3242.45 57.23
449 13.2628 3209.00 3240.95 56.65
450 13.2770 3137.00 3239.48 56.01
451 13.2912 3221.00 3238.03 56.75
452 13.3054 3197.00 3236.60 56.54
453 13.3196 3219.00 3235.20 56.74
454 13.3338 3253.00 3233.83 57.04
455 13.3479 3125.00 3232.49 55.90
456 13.3621 3193.00 3231.17 56.51
457 13.3763 3208.00 3229.88 56.64
458 13.3905 3163.00 3228.63 56.24
459 13.4047 3223.00 3227.42 56.77
460 13.4189 3202.00 3226.24 56.59
461 13.4330 3228.00 3225.12 56.82
462 13.4472 3192.00 3224.04 56.50
463 13.4614 3199.00 3223.01 56.56
464 13.4756 3296.00 3222.04 57.41
465 13.4898 3232.00 3221.14 56.85
466 13.5040 3182.00 3220.32 56.41
467 13.5181 3132.00 3219.59 55.96
468 13.5323 3181.00 3218.97 56.40
469 13.5465 3100.00 3218.49 55.68
470 13.5607 3208.00 3218.17 56.64
471 13.5749 3239.00 3218.07 56.91
472 13.5891 3158.00 3218.24 56.20
473 13.6032 3115.00 3218.76 55.81
474 13.6174 3216.00 3219.74 56.71
475 13.6316 3130.00 3221.29 55.95
476 13.6458 3240.00 3223.56 56.92
477 13.6600 3257.00 3226.70 57.07
478 13.6742 3188.00 3230.91 56.46
479 13.6884 3285.00 3236.41 57.31
480 13.7025 3294.00 3243.47 57.39
481 13.7167 3163.00 3252.70 56.24
482 13.7309 3293.00 3264.88 57.38
483 13.7451 3248.00 3281.19 56.99
484 13.7593 3338.00 3303.10 57.78
485 13.7735 3433.00 3332.22 58.59
486 13.7876 3398.00 3369.70 58.29
487 13.8018 3473.00 3417.43 58.93
488 13.8160 3677.00 3476.43 60.64
489 13.8302 3724.00 3547.21 61.02
490 13.8444 3777.00 3626.77 61.46
491 13.8586 3765.00 3703.98 61.36
492 13.8727 3874.00 3758.67 62.24
493 13.8869 3846.00 3773.54 62.02
494 13.9011 3817.00 3743.36 61.78
495 13.9153 3611.00 3675.55 60.09
496 13.9295 3624.00 3587.59 60.20
497 13.9437 3624.00 3491.44 60.20
498 13.9578 3477.00 3404.88 58.97
499 13.9720 3321.00 3335.74 57.63
500 13.9862 3301.00 3283.49 57.45
501 14.0004 3251.00 3247.39 57.02
502 14.0146 3214.00 3223.76 56.69
503 14.0288 3260.00 3208.81 57.10
504 14.0430 3251.00 3199.47 57.02
505 14.0571 3113.00 3193.56 55.79
506 14.0713 3148.00 3189.55 56.11
507 14.0855 3135.00 3186.61 55.99
508 14.0997 3237.00 3184.20 56.89
509 14.1139 3175.00 3182.04 56.35
510 14.1281 3107.00 3179.99 55.74
511 14.1422 3112.00 3177.99 55.79
512 14.1564 3211.00 3176.01 56.67
513 14.1706 3098.00 3174.08 55.66
514 14.1848 3142.00 3172.21 56.05
515 14.1990 3193.00 3170.42 56.51
516 14.2132 3173.00 3168.72 56.33
517 14.2273 3096.00 3167.13 55.64
518 14.2415 3159.00 3165.63 56.21
519 14.2557 3075.00 3164.23 55.45
520 14.2699 3179.00 3162.93 56.38
521 14.2841 3194.00 3161.72 56.52
522 14.2983 3134.00 3160.61 55.98
523 14.3124 3200.00 3159.59 56.57
524 14.3266 3230.00 3158.65 56.83
525 14.3408 3173.00 3157.79 56.33
526 14.3550 3104.00 3157.02 55.71
527 14.3692 3250.00 3156.32 57.01
528 14.3834 3115.00 3155.72 55.81
529 14.3976 3139.00 3155.19 56.03
530 14.4117 3228.00 3154.76 56.82
531 14.4259 3108.00 3154.42 55.75
532 14.4401 3201.00 3154.19 56.58
533 14.4543 3121.00 3154.05 55.87
534 14.4685 3150.00 3154.04 56.12
535 14.4827 3164.00 3154.15 56.25
536 14.4968 3150.00 3154.40 56.12
537 14.5110 3161.00 3154.81 56.22
538 14.5252 3057.00 3155.40 55.29
539 14.5394 3069.00 3156.19 55.40
540 14.5536 3187.00 3157.23 56.45
541 14.5678 3225.00 3158.55 56.79
542 14.5819 3193.00 3160.21 56.51
543 14.5961 3111.00 3162.32 55.78
544 14.6103 3285.00 3164.97 57.31
545 14.6245 3284.00 3168.33 57.31
546 14.6387 3256.00 3172.58 57.06
547 14.6529 3175.00 3177.98 56.35
548 14.6670 3232.00 3184.75 56.85
549 14.6812 3179.00 3193.36 56.38
550 14.6954 3234.00 3204.17 56.87
551 14.7096 3309.00 3217.66 57.52
552 14.7238 3375.00 3234.47 58.09
553 14.7380 3311.00 3255.56 57.54
554 14.7522 3356.00 3282.46 57.93
555 14.7663 3527.00 3317.46 59.39
556 14.7805 3393.00 3364.85 58.25
557 14.7947 3614.00 3429.49 60.12
558 14.8089 3709.00 3517.08 60.90
559 14.8231 3833.00 3633.04 61.91
560 14.8373 4086.00 3780.77 63.92
561 14.8514 4266.00 3964.14 65.31
562 14.8656 4738.00 4186.64 68.83
563 14.8798 5085.00 4443.40 71.31
564 14.8940 5485.00 4717.72 74.06
565 14.9082 5798.00 4966.02 76.14
566 14.9224 6272.00 5126.63 79.20
567 14.9365 6306.00 5153.67 79.41
568 14.9507 5955.00 5041.40 77.17
569 14.9649 5759.00 4813.85 75.89
570 14.9791 5262.00 4515.15 72.54
571 14.9933 4768.00 4198.43 69.05
572 15.0075 4249.00 3908.38 65.18
573 15.0216 3815.00 3671.85 61.77
574 15.0358 3638.00 3492.58 60.32
575 15.0500 3557.00 3367.25 59.64
576 15.0642 3436.00 3284.67 58.62
577 15.0784 3301.00 3232.65 57.45
578 15.0926 3198.00 3200.71 56.55
579 15.1068 3141.00 3181.16 56.04
580 15.1209 3123.00 3168.92 55.88
581 15.1351 3228.00 3160.64 56.82
582 15.1493 3155.00 3154.53 56.17
583 15.1635 3203.00 3149.50 56.60
584 15.1777 3233.00 3144.98 56.86
585 15.1919 3163.00 3140.69 56.24
586 15.2060 3159.00 3136.56 56.21
587 15.2202 3210.00 3132.50 56.66
588 15.2344 3214.00 3128.59 56.69
589 15.2486 3118.00 3124.83 55.84
590 15.2628 3163.00 3121.28 56.24
591 15.2770 3171.00 3117.93 56.31
592 15.2911 3133.00 3114.82 55.97
593 15.3053 3155.00 3111.90 56.17
594 15.3195 3147.00 3109.18 56.10
595 15.3337 3082.00 3106.65 55.52
596 15.3479 3212.00 3104.29 56.67
597 15.3621 3116.00 3102.08 55.82
598 15.3762 3151.00 3100.02 56.13
599 15.3904 3108.00 3098.08 55.75
600 15.4046 3128.00 3096.24 55.93
601 15.4188 3159.00 3094.50 56.21
602 15.4330 3019.00 3092.85 54.95
603 15.4472 3047.00 3091.29 55.20
604 15.4614 3169.00 3089.79 56.29
605 15.4755 3055.00 3088.37 55.27
606 15.4897 3126.00 3086.99 55.91
607 15.5039 3144.00 3085.67 56.07
608 15.5181 3015.00 3084.40 54.91
609 15.5323 3163.00 3083.17 56.24
610 15.5465 3194.00 3081.98 56.52
611 15.5606 3142.00 3080.83 56.05
612 15.5748 3105.00 3079.71 55.72
613 15.5890 3113.00 3078.63 55.79
614 15.6032 3133.00 3077.57 55.97
615 15.6174 3113.00 3076.53 55.79
616 15.6316 3066.00 3075.53 55.37
617 15.6457 3098.00 3074.55 55.66
618 15.6599 3160.00 3073.58 56.21
619 15.6741 3119.00 3072.64 55.85
620 15.6883 3050.00 3071.71 55.23
621 15.7025 2979.00 3070.80 54.58
622 15.7167 3075.00 3069.91 55.45
623 15.7308 3095.00 3069.03 55.63
624 15.7450 3189.00 3068.17 56.47
625 15.7592 3045.00 3067.32 55.18
626 15.7734 3077.00 3066.48 55.47
627 15.7876 3078.00 3065.65 55.48
628 15.8018 2981.00 3064.83 54.60
629 15.8160 2947.00 3064.03 54.29
630 15.8301 3031.00 3063.24 55.05
631 15.8443 3074.00 3062.45 55.44
632 15.8585 3038.00 3061.67 55.12
633 15.8727 3066.00 3060.90 55.37
634 15.8869 3027.00 3060.14 55.02
635 15.9011 3046.00 3059.39 55.19
636 15.9152 3087.00 3055.81 55.56
637 15.9294 3126.00 3055.15 55.91
638 15.9436 2967.00 3054.49 54.47
639 15.9578 3033.00 3052.45 55.07
640 15.9720 2978.00 3051.84 54.57
641 15.9862 3045.00 3051.23 55.18
642 16.0003 3011.00 3050.62 54.87
643 16.0145 2991.00 3050.01 54.69
644 16.0287 3049.00 3049.46 55.22
645 16.0429 2999.00 3048.86 54.76
646 16.0571 3069.00 3048.25 55.40
647 16.0713 3008.00 3047.68 54.85
648 16.0854 3140.00 3047.09 56.04
649 16.0996 3019.00 3046.49 54.95
650 16.1138 2979.00 3045.89 54.58
651 16.1280 3075.00 3045.29 55.45
652 16.1422 3050.00 3044.69 55.23
653 16.1564 2999.00 3044.10 54.76
654 16.1706 2947.00 3043.50 54.29
655 16.1847 2988.00 3042.92 54.66
656 16.1989 2979.00 3042.32 54.58
657 16.2131 2969.00 3041.73 54.49
658 16.2273 2978.00 3041.14 54.57
659 16.2415 3130.00 3040.56 55.95
660 16.2557 2970.00 3039.97 54.50
661 16.2698 2965.00 3039.39 54.45
662 16.2840 3088.00 3038.80 55.57
663 16.2982 3007.00 3038.22 54.84
664 16.3124 2988.00 3037.64 54.66
665 16.3266 3056.00 3037.06 55.28
666 16.3408 3039.00 3044.36 55.13
667 16.3549 3059.00 3044.01 55.31
668 16.3691 2985.00 3043.66 54.64
669 16.3833 3045.00 3047.19 55.18
670 16.3975 3090.00 3046.97 55.59
671 16.4117 2923.00 3046.77 54.06
672 16.4259 2937.00 3046.59 54.19
673 16.4400 3040.00 3046.43 55.14
674 16.4542 3007.00 3046.29 54.84
675 16.4684 2975.00 3046.17 54.54
676 16.4826 3020.00 3046.08 54.95
677 16.4968 2978.00 3046.00 54.57
678 16.5110 2933.00 3045.95 54.16
679 16.5252 3027.00 3045.94 55.02
680 16.5393 2965.00 3045.95 54.45
681 16.5535 2983.00 3045.99 54.62
682 16.5677 3063.00 3046.06 55.34
683 16.5819 2998.00 3046.17 54.75
684 16.5961 3007.00 3046.32 54.84
685 16.6103 2906.00 3046.51 53.91
686 16.6244 2964.00 3046.74 54.44
687 16.6386 3047.00 3047.03 55.20
688 16.6528 2939.00 3047.36 54.21
689 16.6670 3009.00 3047.75 54.85
690 16.6812 3050.00 3048.20 55.23
691 16.6954 3037.00 3048.72 55.11
692 16.7095 2955.00 3049.31 54.36
693 16.7237 3051.00 3049.99 55.24
694 16.7379 2974.00 3050.75 54.53
695 16.7521 3017.00 3051.61 54.93
696 16.7663 2969.00 3052.59 54.49
697 16.7805 3003.00 3053.69 54.80
698 16.7946 2974.00 3054.92 54.53
699 16.8088 3039.00 3056.31 55.13
700 16.8230 2969.00 3057.89 54.49
701 16.8372 3071.00 3059.67 55.42
702 16.8514 3105.00 3061.69 55.72
703 16.8656 3000.00 3063.99 54.77
704 16.8798 3129.00 3066.65 55.94
705 16.8939 2901.00 3069.77 53.86
706 16.9081 3008.00 3073.54 54.85
707 16.9223 2978.00 3078.16 54.57
708 16.9365 3074.00 3083.86 55.44
709 16.9507 3051.00 3090.90 55.24
710 16.9649 3028.00 3099.47 55.03
711 16.9790 3028.00 3109.64 55.03
712 16.9932 3024.00 3121.67 54.99
713 17.0074 3042.00 3135.48 55.15
714 17.0216 3002.00 3150.79 54.79
715 17.0358 3147.00 3166.84 56.10
716 17.0500 3197.00 3182.34 56.54
717 17.0641 3023.00 3195.99 54.98
718 17.0783 3083.00 3207.64 55.52
719 17.0925 3071.00 3217.92 55.42
720 17.1067 3086.00 3228.28 55.55
721 17.1209 3273.00 3240.76 57.21
722 17.1351 3183.00 3257.73 56.42
723 17.1492 3286.00 3281.46 57.32
724 17.1634 3418.00 3314.81 58.46
725 17.1776 3432.00 3360.98 58.58
726 17.1918 3593.00 3425.85 59.94
727 17.2060 3590.00 3517.37 59.92
728 17.2202 3850.00 3650.59 62.05
729 17.2344 3998.00 3846.35 63.23
730 17.2485 4341.00 4126.68 65.89
731 17.2627 4767.00 4521.46 69.04
732 17.2769 5046.00 5050.40 71.04
733 17.2911 5772.00 5727.56 75.97
734 17.3053 6594.00 6558.13 81.20
735 17.3195 7243.00 7534.62 85.11
736 17.3336 8547.00 8614.82 92.45
737 17.3478 9580.00 9726.73 97.88
738 17.3620 10577.00 10700.70 102.85
739 17.3762 11293.00 11334.20 106.27
740 17.3904 11395.00 11482.60 106.75
741 17.4046 11054.00 11122.80 105.14
742 17.4187 10356.00 10332.60 101.76
743 17.4329 9130.00 9230.89 95.55
744 17.4471 7789.00 7993.96 88.26
745 17.4613 6694.00 6790.69 81.82
746 17.4755 5551.00 5741.77 74.50
747 17.4897 4932.00 4905.80 70.23
748 17.5038 4340.00 4293.13 65.88
749 17.5180 4071.00 3867.34 63.80
750 17.5322 3671.00 3590.61 60.59
751 17.5464 3546.00 3418.65 59.55
752 17.5606 3481.00 3314.61 59.00
753 17.5748 3423.00 3251.87 58.51
754 17.5890 3203.00 3213.03 56.60
755 17.6031 3244.00 3187.68 56.96
756 17.6173 3195.00 3169.41 56.52
757 17.6315 3158.00 3155.02 56.20
758 17.6457 3152.00 3142.71 56.14
759 17.6599 3090.00 3131.56 55.59
760 17.6741 3090.00 3121.16 55.59
761 17.6882 3200.00 3111.43 56.57
762 17.7024 3093.00 3102.19 55.61
763 17.7166 3112.00 3093.53 55.79
764 17.7308 3177.00 3085.47 56.36
765 17.7450 3126.00 3078.02 55.91
766 17.7592 3054.00 3071.17 55.26
767 17.7733 3094.00 3064.93 55.62
768 17.7875 3131.00 3059.20 55.96
769 17.8017 3065.00 3053.98 55.36
770 17.8159 3075.00 3049.23 55.45
771 17.8301 3041.00 3044.91 55.15
772 17.8443 3120.00 3041.00 55.86
773 17.8584 3058.00 3037.48 55.30
774 17.8726 3001.00 3034.27 54.78
775 17.8868 2993.00 3031.40 54.71
776 17.9010 2969.00 3028.85 54.49
777 17.9152 2978.00 3026.61 54.57
778 17.9294 2983.00 3024.71 54.62
779 17.9436 2997.00 3023.14 54.74
780 17.9577 3100.00 3021.95 55.68
781 17.9719 3053.00 3021.16 55.25
782 17.9861 2966.00 3020.84 54.46
783 18.0003 2984.00 3021.06 54.63
784 18.0145 3038.00 3021.95 55.12
785 18.0287 2960.00 3023.77 54.41
786 18.0428 3009.00 3026.93 54.85
787 18.0570 2931.00 3032.26 54.14
788 18.0712 3017.00 3041.02 54.93
789 18.0854 3022.00 3054.96 54.97
790 18.0996 3191.00 3076.41 56.49
791 18.1138 3041.00 3107.63 55.15
792 18.1279 3080.00 3150.16 55.50
793 18.1421 3092.00 3205.93 55.61
794 18.1563 3232.00 3275.08 56.85
795 18.1705 3321.00 3356.88 57.63
796 18.1847 3524.00 3448.53 59.36
797 18.1989 3600.00 3543.10 60.00
798 18.2130 3710.00 3627.38 60.91
799 18.2272 3724.00 3686.27 61.02
800 18.2414 3642.00 3706.13 60.35
801 18.2556 3666.00 3683.34 60.55
802 18.2698 3554.00 3622.47 59.62
803 18.2840 3522.00 3533.26 59.35
804 18.2982 3316.00 3429.10 57.58
805 18.3123 3291.00 3324.85 57.37
806 18.3265 3201.00 3230.19 56.58
807 18.3407 3181.00 3152.28 56.40
808 18.3549 2985.00 3092.99 54.64
809 18.3691 3054.00 3050.90 55.26
810 18.3833 2975.00 3022.74 54.54
811 18.3974 2969.00 3004.83 54.49
812 18.4116 2864.00 2985.84 53.52
813 18.4258 2906.00 2979.00 53.91
814 18.4400 2940.00 2974.64 54.22
815 18.4542 2919.00 2967.86 54.03
816 18.4684 2883.00 2965.74 53.69
817 18.4825 2889.00 2964.05 53.75
818 18.4967 2980.00 2962.55 54.59
819 18.5109 2922.00 2961.18 54.06
820 18.5251 2872.00 2959.88 53.59
821 18.5393 3057.00 2958.64 55.29
822 18.5535 2819.00 2957.44 53.09
823 18.5676 2883.00 2956.29 53.69
824 18.5818 2867.00 2955.18 53.54
825 18.5960 2829.00 2954.11 53.19
826 18.6102 2925.00 2953.08 54.08
827 18.6244 2907.00 2952.10 53.92
828 18.6386 2945.00 2951.15 54.27
829 18.6528 2871.00 2950.24 53.58
830 18.6669 2940.00 2949.37 54.22
831 18.6811 2884.00 2948.52 53.70
832 18.6953 2884.00 2947.71 53.70
833 18.7095 2946.00 2946.91 54.28
834 18.7237 3004.00 2946.14 54.81
835 18.7379 2906.00 2945.38 53.91
836 18.7520 2845.00 2944.65 53.34
837 18.7662 2935.00 2943.93 54.18
838 18.7804 2891.00 2943.23 53.77
839 18.7946 2904.00 2942.53 53.89
840 18.8088 2884.00 2941.85 53.70
841 18.8230 2826.00 2941.18 53.16
842 18.8371 2879.00 2940.52 53.66
843 18.8513 2889.00 2939.87 53.75
844 18.8655 2889.00 2939.23 53.75
845 18.8797 2917.00 2938.59 54.01
846 18.8939 2788.00 2937.96 52.80
847 18.9081 2816.00 2937.34 53.07
848 18.9222 2914.00 2937.03 53.98
849 18.9364 2862.00 2936.43 53.50
850 18.9506 2801.00 2935.83 52.92
851 18.9648 2881.00 2935.39 53.67
852 18.9790 2851.00 2934.80 53.39
853 18.9932 2825.00 2934.22 53.15
854 19.0074 2889.00 2933.65 53.75
855 19.0215 2874.00 2933.08 53.61
856 19.0357 2961.00 2932.52 54.42
857 19.0499 2901.00 2931.95 53.86
858 19.0641 2791.00 2931.39 52.83
859 19.0783 2807.00 2930.84 52.98
860 19.0925 2941.00 2930.29 54.23
861 19.1066 2895.00 2929.74 53.81
862 19.1208 2857.00 2929.20 53.45
863 19.1350 2742.00 2928.66 52.36
864 19.1492 2851.00 2928.12 53.39
865 19.1634 2870.00 2927.59 53.57
866 19.1776 2868.00 2927.06 53.55
867 19.1917 2853.00 2926.53 53.41
868 19.2059 2872.00 2926.01 53.59
869 19.2201 2848.00 2925.49 53.37
870 19.2343 2875.00 2924.97 53.62
871 19.2485 2862.00 2924.46 53.50
872 19.2627 2853.00 2923.95 53.41
873 19.2768 2842.00 2922.90 53.31
874 19.2910 2886.00 2922.41 53.72
875 19.3052 2833.00 2921.93 53.23
876 19.3194 2868.00 2921.18 53.55
877 19.3336 2929.00 2920.71 54.12
878 19.3478 2947.00 2920.25 54.29
879 19.3620 2798.00 2919.79 52.90
880 19.3761 2767.00 2919.34 52.60
881 19.3903 2910.00 2918.89 53.94
882 19.4045 2908.00 2918.44 53.93
883 19.4187 2963.00 2918.01 54.43
884 19.4329 2851.00 2917.57 53.39
885 19.4471 2801.00 2917.15 52.92
886 19.4612 2861.00 2916.74 53.49
887 19.4754 2880.00 2916.33 53.67
888 19.4896 2855.00 2915.94 53.43
889 19.5038 2849.00 2915.55 53.38
890 19.5180 2743.00 2915.18 52.37
891 19.5322 2930.00 2914.82 54.13
892 19.5463 2813.00 2914.48 53.04
893 19.5605 2860.00 2914.16 53.48
894 19.5747 2907.00 2913.86 53.92
895 19.5889 2800.00 2913.59 52.92
896 19.6031 2846.00 2913.34 53.35
897 19.6173 2854.00 2913.14 53.42
898 19.6314 2822.00 2912.98 53.12
899 19.6456 2870.00 2912.88 53.57
900 19.6598 2824.00 2912.84 53.14
901 19.6740 2928.00 2912.90 54.11
902 19.6882 2846.00 2913.07 53.35
903 19.7024 2808.00 2913.38 52.99
904 19.7166 2866.00 2913.87 53.53
905 19.7307 2870.00 2914.59 53.57
906 19.7449 2839.00 2915.65 53.28
907 19.7591 2867.00 2917.27 53.54
908 19.7733 2851.00 2919.85 53.39
909 19.7875 3016.00 2924.09 54.92
910 19.8017 2996.00 2931.41 54.74
911 19.8158 3045.00 2942.90 55.18
912 19.8300 3123.00 2961.01 55.88
913 19.8442 3032.00 2987.83 55.06
914 19.8584 3171.00 3025.31 56.31
915 19.8726 3173.00 3074.35 56.33
916 19.8868 3329.00 3135.35 57.70
917 19.9009 3495.00 3206.94 59.12
918 19.9151 3556.00 3287.44 59.63
919 19.9293 3874.00 3370.51 62.24
920 19.9435 3946.00 3446.06 62.82
921 19.9577 3994.00 3501.09 63.20
922 19.9719 4025.00 3524.68 63.44
923 19.9860 4073.00 3512.90 63.82
924 20.0002 3937.00 3468.37 62.75
925 20.0144 3895.00 3398.38 62.41
926 20.0286 3780.00 3313.08 61.48
927 20.0428 3496.00 3223.68 59.13
928 20.0570 3438.00 3139.89 58.63
929 20.0712 3374.00 3068.24 58.09
930 20.0853 3266.00 3012.08 57.15
931 20.0995 2976.00 2970.63 54.55
932 20.1137 3040.00 2942.30 55.14
933 20.1279 2979.00 2924.09 54.58
934 20.1421 3000.00 2912.91 54.77
935 20.1563 3051.00 2906.22 55.24
936 20.1704 2982.00 2902.22 54.61
937 20.1846 2915.00 2899.68 53.99
938 20.1988 2817.00 2897.96 53.08
939 20.2130 2962.00 2896.67 54.42
940 20.2272 2792.00 2895.61 52.84
941 20.2414 2886.00 2894.66 53.72
942 20.2555 2916.00 2893.79 54.00
943 20.2697 2919.00 2892.96 54.03
944 20.2839 2942.00 2892.17 54.24
945 20.2981 2973.00 2891.42 54.53
946 20.3123 2931.00 2890.69 54.14
947 20.3265 2824.00 2889.99 53.14
948 20.3406 2761.00 2889.34 52.55
949 20.3548 2897.00 2888.70 53.82
950 20.3690 2911.00 2888.10 53.95
951 20.3832 2886.00 2887.52 53.72
952 20.3974 2865.00 2886.98 53.53
953 20.4116 2903.00 2886.46 53.88
954 20.4258 2833.00 2885.97 53.23
955 20.4399 2893.00 2885.51 53.79
956 20.4541 2907.00 2885.07 53.92
957 20.4683 2914.00 2884.67 53.98
958 20.4825 2843.00 2884.30 53.32
959 20.4967 2849.00 2883.97 53.38
960 20.5109 2897.00 2883.68 53.82
961 20.5250 2905.00 2883.45 53.90
962 20.5392 2942.00 2883.28 54.24
963 20.5534 2735.00 2883.18 52.30
964 20.5676 2876.00 2883.17 53.63
965 20.5818 2826.00 2883.28 53.16
966 20.5960 2937.00 2883.54 54.19
967 20.6101 2835.00 2884.00 53.24
968 20.6243 2948.00 2884.79 54.30
969 20.6385 2827.00 2886.15 53.17
970 20.6527 2865.00 2888.55 53.53
971 20.6669 2884.00 2892.84 53.70
972 20.6811 2915.00 2900.42 53.99
973 20.6952 2952.00 2913.15 54.33
974 20.7094 2968.00 2933.63 54.48
975 20.7236 2880.00 2964.32 53.67
976 20.7378 2921.00 3007.29 54.05
977 20.7520 2911.00 3063.77 53.95
978 20.7662 3009.00 3133.92 54.85
979 20.7804 3068.00 3216.50 55.39
980 20.7945 3092.00 3307.37 55.61
981 20.8087 3154.00 3400.74 56.16
982 20.8229 3083.00 3484.50 55.52
983 20.8371 3150.00 3544.50 56.12
984 20.8513 3214.00 3569.22 56.69
985 20.8655 3135.00 3554.49 55.99
986 20.8796 3149.00 3504.18 56.12
987 20.8938 3135.00 3426.02 55.99
988 20.9080 3125.00 3331.47 55.90
989 20.9222 3065.00 3232.50 55.36
990 20.9364 2947.00 3139.38 54.29
991 20.9506 2955.00 3059.22 54.36
992 20.9647 3000.00 2995.91 54.77
993 20.9789 2985.00 2948.91 54.64
994 20.9931 2894.00 2916.72 53.80
995 21.0073 2920.00 2895.77 54.04
996 21.0215 2872.00 2883.22 53.59
997 21.0357 2903.00 2875.85 53.88
998 21.0498 2813.00 2871.42 53.04
999 21.0640 2827.00 2868.81 53.17
1000 21.0782 2827.00 2867.12 53.17
1001 21.0924 2752.00 2865.89 52.46
1002 21.1066 2891.00 2864.90 53.77
1003 21.1208 2890.00 2864.04 53.76
1004 21.1350 2900.00 2863.24 53.85
1005 21.1491 2835.00 2862.48 53.24
1006 21.1633 2832.00 2861.75 53.22
1007 21.1775 2853.00 2861.04 53.41
1008 21.1917 2839.00 2860.36 53.28
1009 21.2059 2866.00 2859.69 53.53
1010 21.2201 2871.00 2859.05 53.58
1011 21.2342 2927.00 2858.43 54.10
1012 21.2484 2789.00 2857.83 52.81
1013 21.2626 2878.00 2857.24 53.65
1014 21.2768 2860.00 2856.67 53.48
1015 21.2910 2753.00 2856.11 52.47
1016 21.3052 2874.00 2855.56 53.61
1017 21.3193 2902.00 2855.03 53.87
1018 21.3335 2939.00 2854.51 54.21
1019 21.3477 2853.00 2854.00 53.41
1020 21.3619 2848.00 2853.51 53.37
1021 21.3761 2892.00 2853.02 53.78
1022 21.3903 2883.00 2852.55 53.69
1023 21.4044 2899.00 2852.10 53.84
1024 21.4186 2879.00 2851.68 53.66
1025 21.4328 2730.00 2851.31 52.25
1026 21.4470 2821.00 2851.04 53.11
1027 21.4612 2790.00 2850.95 52.82
1028 21.4754 2902.00 2851.14 53.87
1029 21.4896 2968.00 2851.77 54.48
1030 21.5037 2931.00 2852.96 54.14
1031 21.5179 2931.00 2854.88 54.14
1032 21.5321 2930.00 2857.58 54.13
1033 21.5463 2864.00 2861.10 53.52
1034 21.5605 2871.00 2865.36 53.58
1035 21.5747 2977.00 2870.18 54.56
1036 21.5888 2940.00 2875.14 54.22
1037 21.6030 2963.00 2879.69 54.43
1038 21.6172 3003.00 2883.00 54.80
1039 21.6314 2898.00 2884.38 53.83
1040 21.6456 3047.00 2883.51 55.20
1041 21.6598 2931.00 2880.52 54.14
1042 21.6739 2986.00 2875.89 54.64
1043 21.6881 3015.00 2870.21 54.91
1044 21.7023 2957.00 2864.15 54.38
1045 21.7165 2990.00 2858.31 54.68
1046 21.7307 2930.00 2853.11 54.13
1047 21.7449 3037.00 2848.81 55.11
1048 21.7590 2861.00 2845.49 53.49
1049 21.7732 2803.00 2843.03 52.94
1050 21.7874 2944.00 2841.29 54.26
1051 21.8016 2878.00 2840.07 53.65
1052 21.8158 2809.00 2839.19 53.00
1053 21.8300 2885.00 2838.50 53.71
1054 21.8442 2942.00 2837.93 54.24
1055 21.8583 2860.00 2837.43 53.48
1056 21.8725 2858.00 2836.95 53.46
1057 21.8867 2815.00 2836.25 53.06
1058 21.9009 2912.00 2835.80 53.96
1059 21.9151 2854.00 2835.36 53.42
1060 21.9293 2903.00 2834.80 53.88
1061 21.9434 2804.00 2834.36 52.95
1062 21.9576 2735.00 2833.92 52.30
1063 21.9718 2888.00 2833.48 53.74
1064 21.9860 2767.00 2833.05 52.60
1065 22.0002 2844.00 2832.61 53.33
1066 22.0144 2881.00 2832.17 53.67
1067 22.0285 2890.00 2831.74 53.76
1068 22.0427 2793.00 2831.30 52.85
1069 22.0569 2750.00 2830.87 52.44
1070 22.0711 2846.00 2830.44 53.35
1071 22.0853 2840.00 2830.00 53.29
1072 22.0995 2822.00 2829.57 53.12
1073 22.1136 2850.00 2829.13 53.39
1074 22.1278 2860.00 2828.70 53.48
1075 22.1420 2912.00 2828.27 53.96
1076 22.1562 2845.00 2827.83 53.34
1077 22.1704 2777.00 2827.40 52.70
1078 22.1846 2863.00 2826.97 53.51
1079 22.1988 2818.00 2826.53 53.08
1080 22.2129 2772.00 2826.10 52.65
1081 22.2271 2833.00 2825.66 53.23
1082 22.2413 2932.00 2825.23 54.15
1083 22.2555 2885.00 2824.79 53.71
1084 22.2697 2784.00 2824.36 52.76
1085 22.2839 2775.00 2823.92 52.68
1086 22.2980 2846.00 2823.49 53.35
1087 22.3122 2980.00 2823.06 54.59
1088 22.3264 2882.00 2822.62 53.68
1089 22.3406 2850.00 2822.18 53.39
1090 22.3548 2930.00 2821.75 54.13
1091 22.3690 2833.00 2821.31 53.23
1092 22.3831 2915.00 2820.87 53.99
1093 22.3973 2879.00 2820.43 53.66
1094 22.4115 2816.00 2820.00 53.07
1095 22.4257 2933.00 2819.56 54.16
1096 22.4399 2928.00 2819.12 54.11
1097 22.4541 2819.00 2818.68 53.09
1098 22.4682 2779.00 2818.24 52.72
1099 22.4824 2884.00 2817.80 53.70
1100 22.4966 2821.00 2817.36 53.11
1101 22.5108 2910.00 2816.92 53.94
1102 22.5250 2844.00 2816.47 53.33
1103 22.5392 2830.00 2816.03 53.20
1104 22.5534 2822.00 2815.59 53.12
1105 22.5675 2767.00 2815.15 52.60
1106 22.5817 2844.00 2814.70 53.33
1107 22.5959 2779.00 2814.26 52.72
1108 22.6101 2861.00 2813.81 53.49
1109 22.6243 2815.00 2813.36 53.06
1110 22.6385 2866.00 2812.92 53.53
1111 22.6526 2809.00 2812.46 53.00
1112 22.6668 2894.00 2812.01 53.80
1113 22.6810 2786.00 2811.56 52.78
1114 22.6952 2886.00 2811.12 53.72
1115 22.7094 2861.00 2810.66 53.49
1116 22.7236 2817.00 2810.21 53.08
1117 22.7377 2804.00 2809.76 52.95
1118 22.7519 2816.00 2809.31 53.07
1119 22.7661 2844.00 2808.85 53.33
1120 22.7803 2874.00 2808.40 53.61
1121 22.7945 2816.00 2807.94 53.07
1122 22.8087 2987.00 2807.49 54.65
1123 22.8228 2853.00 2807.03 53.41
1124 22.8370 2829.00 2806.58 53.19
1125 22.8512 2859.00 2806.12 53.47
1126 22.8654 2754.00 2805.66 52.48
1127 22.8796 2855.00 2805.20 53.43
1128 22.8938 2868.00 2804.74 53.55
1129 22.9080 2845.00 2804.27 53.34
1130 22.9221 2917.00 2803.81 54.01
1131 22.9363 2879.00 2803.35 53.66
1132 22.9505 2837.00 2802.88 53.26
1133 22.9647 2873.00 2802.42 53.60
1134 22.9789 2806.00 2801.95 52.97
1135 22.9931 2813.00 2801.48 53.04
1136 23.0072 2896.00 2801.02 53.81
1137 23.0214 2850.00 2800.55 53.39
1138 23.0356 2846.00 2800.07 53.35
1139 23.0498 2781.00 2799.60 52.74
1140 23.0640 2821.00 2799.13 53.11
1141 23.0782 2765.00 2798.65 52.58
1142 23.0923 2850.00 2798.18 53.39
1143 23.1065 2834.00 2797.70 53.24
1144 23.1207 2906.00 2797.23 53.91
1145 23.1349 2758.00 2796.75 52.52
1146 23.1491 2787.00 2796.27 52.79
1147 23.1633 2784.00 2795.78 52.76
1148 23.1774 2867.00 2795.30 53.54
1149 23.1916 2860.00 2794.82 53.48
1150 23.2058 2817.00 2794.34 53.08
1151 23.2200 2878.00 2793.85 53.65
1152 23.2342 2890.00 2793.36 53.76
1153 23.2484 2874.00 2792.87 53.61
1154 23.2626 2773.00 2792.38 52.66
1155 23.2767 2898.00 2791.89 53.83
1156 23.2909 2754.00 2791.40 52.48
1157 23.3051 2801.00 2790.91 52.92
1158 23.3193 2797.00 2790.41 52.89
1159 23.3335 2895.00 2789.91 53.81
1160 23.3477 2771.00 2789.42 52.64
1161 23.3618 2832.00 2788.92 53.22
1162 23.3760 2910.00 2788.42 53.94
1163 23.3902 2765.00 2787.92 52.58
1164 23.4044 2805.00 2787.41 52.96
1165 23.4186 2798.00 2786.91 52.90
1166 23.4328 2980.00 2786.40 54.59
1167 23.4469 2779.00 2785.90 52.72
1168 23.4611 2721.00 2785.39 52.16
1169 23.4753 2766.00 2784.87 52.59
1170 23.4895 2656.00 2784.36 51.54
1171 23.5037 2749.00 2783.85 52.43
1172 23.5179 2856.00 2783.33 53.44
1173 23.5320 2875.00 2782.82 53.62
1174 23.5462 2826.00 2782.30 53.16
1175 23.5604 2817.00 2781.78 53.08
1176 23.5746 2756.00 2781.26 52.50
1177 23.5888 2911.00 2780.73 53.95
1178 23.6030 2746.00 2780.21 52.40
1179 23.6172 2695.00 2779.68 51.91
1180 23.6313 2806.00 2779.15 52.97
1181 23.6455 2811.00 2778.62 53.02
1182 23.6597 2824.00 2778.09 53.14
1183 23.6739 2733.00 2777.56 52.28
1184 23.6881 2877.00 2777.02 53.64
1185 23.7023 2790.00 2776.49 52.82
1186 23.7164 2848.00 2775.95 53.37
1187 23.7306 2821.00 2775.41 53.11
1188 23.7448 2848.00 2774.87 53.37
1189 23.7590 2878.00 2774.32 53.65
1190 23.7732 2829.00 2773.78 53.19
1191 23.7874 2821.00 2773.23 53.11
1192 23.8015 2720.00 2772.89 52.15
1193 23.8157 2818.00 2772.34 53.08
1194 23.8299 2836.00 2771.80 53.25
1195 23.8441 2821.00 2771.25 53.11
1196 23.8583 2849.00 2770.80 53.38
1197 23.8725 2815.00 2770.25 53.06
1198 23.8866 2825.00 2769.70 53.15
1199 23.9008 2772.00 2769.15 52.65
1200 23.9150 2772.00 2768.60 52.65
1201 23.9292 2863.00 2768.04 53.51
1202 23.9434 2771.00 2767.48 52.64
1203 23.9576 2811.00 2766.92 53.02
1204 23.9718 2769.00 2766.36 52.62
1205 23.9859 2812.00 2765.80 53.03
1206 24.0001 2672.00 2765.24 51.69
1207 24.0143 2770.00 2764.68 52.63
1208 24.0285 2713.00 2764.11 52.09
1209 24.0427 2799.00 2763.54 52.91
1210 24.0569 2850.00 2763.05 53.39
1211 24.0710 2702.00 2762.49 51.98
1212 24.0852 2808.00 2761.92 52.99
1213 24.0994 2768.00 2761.35 52.61
1214 24.1136 2860.00 2760.78 53.48
1215 24.1278 2830.00 2760.25 53.20
1216 24.1420 2662.00 2759.67 51.59
1217 24.1561 2759.00 2759.11 52.53
1218 24.1703 2771.00 2758.53 52.64
1219 24.1845 2755.00 2757.96 52.49
1220 24.1987 2802.00 2757.38 52.93
1221 24.2129 2732.00 2756.81 52.27
1222 24.2271 2827.00 2756.23 53.17
1223 24.2412 2759.00 2755.66 52.53
1224 24.2554 2707.00 2755.08 52.03
1225 24.2696 2869.00 2754.51 53.56
1226 24.2838 2674.00 2753.93 51.71
1227 24.2980 2785.00 2753.35 52.77
1228 24.3122 2808.00 2752.78 52.99
1229 24.3264 2746.00 2752.21 52.40
1230 24.3405 2802.00 2751.64 52.93
1231 24.3547 2717.00 2751.07 52.12
1232 24.3689 2723.00 2750.50 52.18
1233 24.3831 2853.00 2749.94 53.41
1234 24.3973 2753.00 2749.37 52.47
1235 24.4115 2737.00 2748.81 52.32
1236 24.4256 2830.00 2748.26 53.20
1237 24.4398 2706.00 2747.71 52.02
1238 24.4540 2738.00 2747.17 52.33
1239 24.4682 2734.00 2746.63 52.29
1240 24.4824 2696.00 2746.10 51.92
1241 24.4966 2721.00 2745.58 52.16
1242 24.5107 2797.00 2745.07 52.89
1243 24.5249 2704.00 2744.58 52.00
1244 24.5391 2755.00 2744.10 52.49
1245 24.5533 2734.00 2743.64 52.29
1246 24.5675 2873.00 2743.21 53.60
1247 24.5817 2793.00 2742.80 52.85
1248 24.5958 2777.00 2742.44 52.70
1249 24.6100 2825.00 2742.12 53.15
1250 24.6242 2647.00 2741.85 51.45
1251 24.6384 2717.00 2741.74 52.12
1252 24.6526 2692.00 2741.64 51.88
1253 24.6668 2726.00 2741.66 52.21
1254 24.6810 2743.00 2741.88 52.37
1255 24.6951 2736.00 2742.43 52.31
1256 24.7093 2722.00 2743.58 52.17
1257 24.7235 2754.00 2745.72 52.48
1258 24.7377 2664.00 2749.62 51.61
1259 24.7519 2738.00 2756.38 52.33
1260 24.7661 2674.00 2767.51 51.71
1261 24.7802 2785.00 2784.59 52.77
1262 24.7944 2769.00 2809.62 52.62
1263 24.8086 2779.00 2844.01 52.72
1264 24.8228 2886.00 2888.76 53.72
1265 24.8370 2889.00 2944.24 53.75
1266 24.8512 2935.00 3009.87 54.18
1267 24.8653 2858.00 3083.16 53.46
1268 24.8795 3161.00 3161.03 56.22
1269 24.8937 3133.00 3235.90 55.97
1270 24.9079 3260.00 3298.19 57.10
1271 24.9221 3287.00 3338.30 57.33
1272 24.9363 3226.00 3350.18 56.80
1273 24.9504 3196.00 3333.40 56.53
1274 24.9646 3115.00 3291.48 55.81
1275 24.9788 3062.00 3230.66 55.34
1276 24.9930 2983.00 3158.16 54.62
1277 25.0072 2988.00 3081.40 54.66
1278 25.0214 3012.00 3007.19 54.88
1279 25.0356 2923.00 2941.02 54.06
1280 25.0497 2902.00 2887.10 53.87
1281 25.0639 2918.00 2846.83 54.02
1282 25.0781 2777.00 2821.16 52.70
1283 25.0923 2790.00 2809.23 52.82
1284 25.1065 2717.00 2809.51 52.12
1285 25.1207 2790.00 2819.17 52.82
1286 25.1348 2755.00 2835.99 52.49
1287 25.1490 2708.00 2857.71 52.04
1288 25.1632 2723.00 2881.42 52.18
1289 25.1774 2801.00 2903.29 52.92
1290 25.1916 2694.00 2919.69 51.90
1291 25.2058 2775.00 2927.64 52.68
1292 25.2199 2788.00 2925.91 52.80
1293 25.2341 2754.00 2915.04 52.48
1294 25.2483 2703.00 2896.66 51.99
1295 25.2625 2766.00 2872.96 52.59
1296 25.2767 2774.00 2846.32 52.67
1297 25.2909 2720.00 2819.05 52.15
1298 25.3050 2741.00 2793.32 52.35
1299 25.3192 2828.00 2770.21 53.18
1300 25.3334 2784.00 2750.79 52.76
1301 25.3476 2805.00 2735.37 52.96
1302 25.3618 2694.00 2723.76 51.90
1303 25.3760 2673.00 2715.42 51.70
1304 25.3902 2779.00 2709.64 52.72
1305 25.4043 2592.00 2705.71 50.91
1306 25.4185 2700.00 2702.98 51.96
1307 25.4327 2745.00 2701.03 52.39
1308 25.4469 2705.00 2699.54 52.01
1309 25.4611 2688.00 2698.33 51.85
1310 25.4753 2620.00 2697.28 51.19
1311 25.4894 2708.00 2696.34 52.04
1312 25.5036 2609.00 2695.46 51.08
1313 25.5178 2716.00 2694.67 52.12
1314 25.5320 2647.00 2693.91 51.45
1315 25.5462 2701.00 2693.20 51.97
1316 25.5604 2627.00 2692.57 51.25
1317 25.5745 2747.00 2692.06 52.41
1318 25.5887 2760.00 2691.74 52.54
1319 25.6029 2662.00 2691.71 51.59
1320 25.6171 2664.00 2692.17 51.61
1321 25.6313 2705.00 2693.39 52.01
1322 25.6455 2743.00 2695.75 52.37
1323 25.6596 2559.00 2699.62 50.59
1324 25.6738 2777.00 2705.51 52.70
1325 25.6880 2714.00 2713.76 52.10
1326 25.7022 2725.00 2724.67 52.20
1327 25.7164 2752.00 2738.37 52.46
1328 25.7306 2767.00 2754.80 52.60
1329 25.7448 2676.00 2773.60 51.73
1330 25.7589 2723.00 2793.76 52.18
1331 25.7731 2817.00 2813.94 53.08
1332 25.7873 2812.00 2831.68 53.03
1333 25.8015 2785.00 2844.33 52.77
1334 25.8157 2896.00 2849.92 53.81
1335 25.8299 2904.00 2847.85 53.89
1336 25.8440 2811.00 2838.84 53.02
1337 25.8582 2768.00 2824.10 52.61
1338 25.8724 2823.00 2805.31 53.13
1339 25.8866 2878.00 2784.22 53.65
1340 25.9008 2768.00 2762.62 52.61
1341 25.9150 2700.00 2742.05 51.96
1342 25.9291 2745.00 2723.76 52.39
1343 25.9433 2665.00 2708.17 51.62
1344 25.9575 2717.00 2695.72 52.12
1345 25.9717 2734.00 2686.31 52.29
1346 25.9859 2631.00 2679.56 51.29
1347 26.0001 2610.00 2674.98 51.09
1348 26.0142 2660.00 2672.05 51.58
1349 26.0284 2630.00 2670.30 51.28
1350 26.0426 2673.00 2669.27 51.70
1351 26.0568 2715.00 2669.23 52.11
1352 26.0710 2663.00 2670.05 51.60
1353 26.0852 2714.00 2672.03 52.10
1354 26.0994 2624.00 2675.73 51.22
1355 26.1135 2763.00 2681.82 52.56
1356 26.1277 2721.00 2691.69 52.16
1357 26.1419 2734.00 2706.43 52.29
1358 26.1561 2856.00 2727.30 53.44
1359 26.1703 2734.00 2755.39 52.29
1360 26.1845 2878.00 2791.48 53.65
1361 26.1986 2995.00 2835.62 54.73
1362 26.2128 2909.00 2888.25 53.94
1363 26.2270 2979.00 2947.92 54.58
1364 26.2412 3061.00 3011.92 55.33
1365 26.2554 3141.00 3075.26 56.04
1366 26.2696 3254.00 3130.73 57.04
1367 26.2837 3253.00 3170.21 57.04
1368 26.2979 3337.00 3188.51 57.77
1369 26.3121 3305.00 3183.67 57.49
1370 26.3263 3224.00 3157.67 56.78
1371 26.3405 3217.00 3114.62 56.72
1372 26.3547 3119.00 3059.11 55.85
1373 26.3688 3014.00 2996.70 54.90
1374 26.3830 3032.00 2931.69 55.06
1375 26.3972 2962.00 2869.15 54.42
1376 26.4114 2886.00 2812.68 53.72
1377 26.4256 2757.00 2764.45 52.51
1378 26.4398 2694.00 2725.40 51.90
1379 26.4540 2674.00 2695.39 51.71
1380 26.4681 2631.00 2673.54 51.29
1381 26.4823 2657.00 2658.08 51.55
1382 26.4965 2679.00 2647.59 51.76
1383 26.5107 2603.00 2640.64 51.02
1384 26.5249 2721.00 2636.12 52.16
1385 26.5391 2623.00 2633.27 51.22
1386 26.5532 2698.00 2631.63 51.94
1387 26.5674 2697.00 2630.96 51.93
1388 26.5816 2667.00 2631.20 51.64
1389 26.5958 2660.00 2632.37 51.58
1390 26.6100 2645.00 2634.50 51.43
1391 26.6242 2608.00 2637.64 51.07
1392 26.6383 2611.00 2641.76 51.10
1393 26.6525 2698.00 2646.86 51.94
1394 26.6667 2709.00 2652.72 52.05
1395 26.6809 2717.00 2658.98 52.12
1396 26.6951 2571.00 2664.96 50.71
1397 26.7093 2685.00 2669.80 51.82
1398 26.7234 2662.00 2672.59 51.59
1399 26.7376 2651.00 2672.84 51.49
1400 26.7518 2657.00 2670.48 51.55
1401 26.7660 2662.00 2665.83 51.59
1402 26.7802 2631.00 2659.35 51.29
1403 26.7944 2586.00 2651.56 50.85
1404 26.8086 2586.00 2643.06 50.85
1405 26.8227 2583.00 2634.47 50.82
1406 26.8369 2568.00 2626.19 50.68
1407 26.8511 2565.00 2618.67 50.65
1408 26.8653 2664.00 2612.14 51.61
1409 26.8795 2571.00 2606.71 50.71
1410 26.8937 2580.00 2602.38 50.79
1411 26.9078 2611.00 2599.15 51.10
1412 26.9220 2616.00 2596.69 51.15
1413 26.9362 2535.00 2594.99 50.35
1414 26.9504 2648.00 2593.94 51.46
1415 26.9646 2620.00 2593.45 51.19
1416 26.9788 2633.00 2593.58 51.31
1417 26.9929 2664.00 2594.28 51.61
1418 27.0071 2541.00 2595.57 50.41
1419 27.0213 2652.00 2597.42 51.50
1420 27.0355 2587.00 2599.75 50.86
1421 27.0497 2650.00 2602.51 51.48
1422 27.0639 2649.00 2605.45 51.47
1423 27.0780 2611.00 2608.27 51.10
1424 27.0922 2660.00 2610.69 51.58
1425 27.1064 2681.00 2612.35 51.78
1426 27.1206 2610.00 2612.93 51.09
1427 27.1348 2700.00 2612.17 51.96
1428 27.1490 2644.00 2610.00 51.42
1429 27.1632 2621.00 2606.57 51.20
1430 27.1773 2716.00 2602.18 52.12
1431 27.1915 2615.00 2597.07 51.14
1432 27.2057 2483.00 2591.59 49.83
1433 27.2199 2558.00 2586.01 50.58
1434 27.2341 2581.00 2580.61 50.80
1435 27.2483 2597.00 2575.60 50.96
1436 27.2624 2568.00 2571.12 50.68
1437 27.2766 2572.00 2567.19 50.71
1438 27.2908 2573.00 2563.82 50.72
1439 27.3050 2587.00 2560.97 50.86
1440 27.3192 2572.00 2558.56 50.71
1441 27.3334 2481.00 2556.49 49.81
1442 27.3475 2490.00 2554.69 49.90
1443 27.3617 2620.00 2553.05 51.19
1444 27.3759 2503.00 2551.53 50.03
1445 27.3901 2511.00 2550.09 50.11
1446 27.4043 2548.00 2548.69 50.48
1447 27.4185 2579.00 2547.32 50.78
1448 27.4326 2504.00 2545.98 50.04
1449 27.4468 2532.00 2544.63 50.32
1450 27.4610 2564.00 2543.30 50.64
1451 27.4752 2537.00 2541.69 50.37
1452 27.4894 2438.00 2540.37 49.38
1453 27.5036 2588.00 2539.04 50.87
1454 27.5178 2552.00 2537.72 50.52
1455 27.5319 2617.00 2536.41 51.16
1456 27.5461 2590.00 2534.95 50.89
1457 27.5603 2510.00 2533.64 50.10
1458 27.5745 2487.00 2532.32 49.87
1459 27.5887 2466.00 2531.00 49.66
1460 27.6029 2535.00 2529.69 50.35
1461 27.6170 2575.00 2528.38 50.74
1462 27.6312 2550.00 2527.07 50.50
1463 27.6454 2564.00 2525.76 50.64
1464 27.6596 2601.00 2524.45 51.00
1465 27.6738 2530.00 2523.14 50.30
1466 27.6880 2543.00 2521.83 50.43
1467 27.7021 2460.00 2520.53 49.60
1468 27.7163 2501.00 2519.23 50.01
1469 27.7305 2521.00 2517.92 50.21
1470 27.7447 2507.00 2516.63 50.07
1471 27.7589 2435.00 2515.34 49.35
1472 27.7731 2486.00 2514.05 49.86
1473 27.7872 2515.00 2512.79 50.15
1474 27.8014 2447.00 2511.52 49.47
1475 27.8156 2498.00 2510.27 49.98
1476 27.8298 2488.00 2509.03 49.88
1477 27.8440 2446.00 2507.81 49.46
1478 27.8582 2477.00 2506.61 49.77
1479 27.8724 2488.00 2505.44 49.88
1480 27.8865 2480.00 2504.32 49.80
1481 27.9007 2481.00 2503.23 49.81
1482 27.9149 2499.00 2502.21 49.99
1483 27.9291 2456.00 2501.26 49.56
1484 27.9433 2362.00 2500.51 48.60
1485 27.9575 2426.00 2500.00 49.25
1486 27.9716 2512.00 2499.85 50.12
1487 27.9858 2476.00 2500.20 49.76
1488 28.0000 2551.00 2501.23 50.51
1489 28.0142 2494.00 2503.15 49.94
1490 28.0284 2494.00 2506.14 49.94
1491 28.0426 2404.00 2510.35 49.03
1492 28.0567 2445.00 2515.87 49.45
1493 28.0709 2484.00 2522.83 49.84
1494 28.0851 2468.00 2531.19 49.68
1495 28.0993 2500.00 2540.75 50.00
1496 28.1135 2583.00 2551.06 50.82
1497 28.1277 2563.00 2561.27 50.63
1498 28.1418 2434.00 2570.11 49.34
1499 28.1560 2622.00 2576.36 51.21
1500 28.1702 2546.00 2578.96 50.46
1501 28.1844 2583.00 2577.64 50.82
1502 28.1986 2661.00 2572.73 51.58
1503 28.2128 2573.00 2564.84 50.72
1504 28.2270 2525.00 2554.63 50.25
1505 28.2411 2562.00 2542.88 50.62
1506 28.2553 2489.00 2530.21 49.89
1507 28.2695 2488.00 2517.50 49.88
1508 28.2837 2440.00 2505.42 49.40
1509 28.2979 2433.00 2494.46 49.33
1510 28.3121 2509.00 2484.93 50.09
1511 28.3262 2472.00 2476.97 49.72
1512 28.3404 2446.00 2470.41 49.46
1513 28.3546 2522.00 2465.14 50.22
1514 28.3688 2447.00 2460.96 49.47
1515 28.3830 2418.00 2457.60 49.17
1516 28.3972 2400.00 2454.86 48.99
1517 28.4113 2429.00 2452.54 49.28
1518 28.4255 2411.00 2450.49 49.10
1519 28.4397 2468.00 2448.62 49.68
1520 28.4539 2506.00 2446.86 50.06
1521 28.4681 2507.00 2445.18 50.07
1522 28.4823 2398.00 2443.55 48.97
1523 28.4964 2336.00 2441.97 48.33
1524 28.5106 2458.00 2440.39 49.58
1525 28.5248 2487.00 2438.85 49.87
1526 28.5390 2322.00 2437.33 48.19
1527 28.5532 2494.00 2435.84 49.94
1528 28.5674 2408.00 2434.40 49.07
1529 28.5816 2410.00 2433.02 49.09
1530 28.5957 2473.00 2431.73 49.73
1531 28.6099 2358.00 2430.53 48.56
1532 28.6241 2379.00 2429.44 48.78
1533 28.6383 2412.00 2428.49 49.11
1534 28.6525 2397.00 2427.69 48.96
1535 28.6667 2489.00 2427.05 49.89
1536 28.6808 2438.00 2426.57 49.38
1537 28.6950 2413.00 2426.22 49.12
1538 28.7092 2399.00 2425.97 48.98
1539 28.7234 2401.00 2425.72 49.00
1540 28.7376 2428.00 2425.35 49.27
1541 28.7518 2483.00 2424.70 49.83
1542 28.7659 2442.00 2423.79 49.42
1543 28.7801 2405.00 2422.32 49.04
1544 28.7943 2431.00 2420.45 49.31
1545 28.8085 2427.00 2418.24 49.26
1546 28.8227 2437.00 2415.76 49.37
1547 28.8369 2376.00 2413.14 48.74
1548 28.8510 2472.00 2410.37 49.72
1549 28.8652 2321.00 2407.55 48.18
1550 28.8794 2321.00 2404.77 48.18
1551 28.8936 2384.00 2402.11 48.83
1552 28.9078 2335.00 2399.59 48.32
1553 28.9220 2445.00 2397.23 49.45
1554 28.9362 2423.00 2395.04 49.22
1555 28.9503 2357.00 2393.01 48.55
1556 28.9645 2441.00 2391.13 49.41
1557 28.9787 2416.00 2389.31 49.15
1558 28.9929 2312.00 2387.57 48.08
1559 29.0071 2319.00 2385.88 48.16
1560 29.0213 2432.00 2384.23 49.32
1561 29.0354 2450.00 2382.64 49.50
1562 29.0496 2346.00 2381.03 48.44
1563 29.0638 2317.00 2379.42 48.14
1564 29.0780 2328.00 2377.82 48.25
1565 29.0922 2277.00 2376.23 47.72
1566 29.1064 2414.00 2374.64 49.13
1567 29.1205 2326.00 2373.06 48.23
1568 29.1347 2329.00 2371.47 48.26
1569 29.1489 2325.00 2369.88 48.22
1570 29.1631 2395.00 2368.29 48.94
1571 29.1773 2374.00 2366.70 48.72
1572 29.1915 2395.00 2365.10 48.94
1573 29.2056 2295.00 2363.52 47.91
1574 29.2198 2323.00 2361.93 48.20
1575 29.2340 2367.00 2360.34 48.65
1576 29.2482 2460.00 2358.75 49.60
1577 29.2624 2391.00 2357.16 48.90
1578 29.2766 2345.00 2355.57 48.43
1579 29.2908 2229.00 2353.98 47.21
1580 29.3049 2384.00 2352.40 48.83
1581 29.3191 2334.00 2350.80 48.31
1582 29.3333 2371.00 2349.21 48.69
1583 29.3475 2335.00 2347.62 48.32
1584 29.3617 2381.00 2346.03 48.80
1585 29.3759 2400.00 2344.44 48.99
1586 29.3900 2340.00 2342.86 48.37
1587 29.4042 2347.00 2341.26 48.45
1588 29.4184 2343.00 2339.59 48.40
1589 29.4326 2352.00 2338.01 48.50
1590 29.4468 2383.00 2336.42 48.82
1591 29.4610 2357.00 2334.83 48.55
1592 29.4751 2367.00 2333.26 48.65
1593 29.4893 2291.00 2331.67 47.86
1594 29.5035 2349.00 2330.05 48.47
1595 29.5177 2299.00 2328.47 47.95
1596 29.5319 2301.00 2326.89 47.97
1597 29.5461 2436.00 2325.32 49.36
1598 29.5602 2361.00 2323.75 48.59
1599 29.5744 2376.00 2322.18 48.74
1600 29.5886 2282.00 2320.62 47.77
1601 29.6028 2299.00 2319.05 47.95
1602 29.6170 2277.00 2317.50 47.72
1603 29.6312 2254.00 2315.94 47.48
1604 29.6454 2306.00 2314.40 48.02
1605 29.6595 2331.00 2312.87 48.28
1606 29.6737 2362.00 2311.34 48.60
1607 29.6879 2278.00 2309.83 47.73
1608 29.7021 2308.00 2308.32 48.04
1609 29.7163 2369.00 2306.83 48.67
1610 29.7305 2258.00 2305.36 47.52
1611 29.7446 2415.00 2303.92 49.14
1612 29.7588 2249.00 2302.49 47.42
1613 29.7730 2267.00 2301.09 47.61
1614 29.7872 2467.00 2299.73 49.67
1615 29.8014 2289.00 2298.41 47.84
1616 29.8156 2364.00 2297.14 48.62
1617 29.8297 2306.00 2295.94 48.02
1618 29.8439 2325.00 2294.81 48.22
1619 29.8581 2292.00 2293.82 47.87
1620 29.8723 2290.00 2292.99 47.85
1621 29.8865 2279.00 2292.42 47.74
1622 29.9007 2426.00 2292.21 49.25
1623 29.9148 2202.00 2292.48 46.93
1624 29.9290 2258.00 2293.39 47.52
1625 29.9432 2301.00 2295.11 47.97
1626 29.9574 2268.00 2297.82 47.62
1627 29.9716 2320.00 2301.65 48.17
1628 29.9858 2320.00 2306.77 48.17
1629 30.0000 2256.00 2313.26 47.50
1630 30.0141 2268.00 2321.11 47.62
1631 30.0283 2257.00 2330.37 47.51
1632 30.0425 2280.00 2340.71 47.75
1633 30.0567 2263.00 2351.52 47.57
1634 30.0709 2380.00 2361.77 48.79
1635 30.0851 2321.00 2370.17 48.18
1636 30.0992 2412.00 2375.48 49.11
1637 30.1134 2277.00 2377.19 47.72
1638 30.1276 2361.00 2375.38 48.59
1639 30.1418 2359.00 2370.66 48.57
1640 30.1560 2263.00 2363.69 47.57
1641 30.1702 2273.00 2355.08 47.68
1642 30.1843 2345.00 2345.50 48.43
1643 30.1985 2316.00 2335.53 48.12
1644 30.2127 2282.00 2325.96 47.77
1645 30.2269 2248.00 2317.42 47.41
1646 30.2411 2248.00 2310.31 47.41
1647 30.2553 2262.00 2304.66 47.56
1648 30.2694 2291.00 2300.25 47.86
1649 30.2836 2216.00 2296.50 47.07
1650 30.2978 2254.00 2292.86 47.48
1651 30.3120 2234.00 2288.91 47.27
1652 30.3262 2279.00 2284.46 47.74
1653 30.3404 2209.00 2279.53 47.00
1654 30.3546 2199.00 2274.10 46.89
1655 30.3687 2263.00 2268.30 47.57
1656 30.3829 2284.00 2262.12 47.79
1657 30.3971 2185.00 2255.78 46.74
1658 30.4113 2238.00 2249.51 47.31
1659 30.4255 2210.00 2243.47 47.01
1660 30.4397 2182.00 2237.85 46.71
1661 30.4538 2333.00 2232.78 48.30
1662 30.4680 2231.00 2228.22 47.23
1663 30.4822 2292.00 2224.21 47.87
1664 30.4964 2198.00 2220.70 46.88
1665 30.5106 2323.00 2217.62 48.20
1666 30.5248 2249.00 2214.89 47.42
1667 30.5389 2245.00 2212.45 47.38
1668 30.5531 2161.00 2210.20 46.49
1669 30.5673 2261.00 2208.11 47.55
1670 30.5815 2277.00 2206.10 47.72
1671 30.5957 2179.00 2204.16 46.68
1672 30.6099 2254.00 2202.27 47.48
1673 30.6240 2213.00 2200.43 47.04
1674 30.6382 2179.00 2198.61 46.68
1675 30.6524 2139.00 2196.80 46.25
1676 30.6666 2233.00 2195.00 47.25
1677 30.6808 2296.00 2193.21 47.92
1678 30.6950 2140.00 2191.44 46.26
1679 30.7092 2191.00 2189.67 46.81
1680 30.7233 2224.00 2187.92 47.16
1681 30.7375 2222.00 2186.41 47.14
1682 30.7517 2257.00 2184.67 47.51
1683 30.7659 2150.00 2182.93 46.37
1684 30.7801 2232.00 2181.19 47.24
1685 30.7943 2177.00 2179.46 46.66
1686 30.8084 2193.00 2177.75 46.83
1687 30.8226 2198.00 2176.15 46.88
1688 30.8368 2215.00 2174.44 47.06
1689 30.8510 2191.00 2172.72 46.81
1690 30.8652 2157.00 2171.02 46.44
1691 30.8794 2284.00 2169.31 47.79
1692 30.8935 2207.00 2167.62 46.98
1693 30.9077 2197.00 2165.93 46.87
1694 30.9219 2138.00 2164.23 46.24
1695 30.9361 2234.00 2162.54 47.27
1696 30.9503 2138.00 2160.85 46.24
1697 30.9645 2177.00 2159.16 46.66
1698 30.9786 2160.00 2157.49 46.48
1699 30.9928 2228.00 2155.81 47.20
1700 31.0070 2182.00 2154.13 46.71
1701 31.0212 2221.00 2152.46 47.13
1702 31.0354 2207.00 2150.78 46.98
1703 31.0496 2093.00 2149.11 45.75
1704 31.0638 2244.00 2147.44 47.37
1705 31.0779 2154.00 2145.79 46.41
1706 31.0921 2219.00 2144.13 47.11
1707 31.1063 2072.00 2142.47 45.52
1708 31.1205 2175.00 2140.81 46.64
1709 31.1347 2127.00 2139.16 46.12
1710 31.1489 2190.00 2137.51 46.80
1711 31.1630 2136.00 2135.87 46.22
1712 31.1772 2070.00 2134.23 45.50
1713 31.1914 2206.00 2132.59 46.97
1714 31.2056 2120.00 2130.95 46.04
1715 31.2198 2105.00 2129.32 45.88
1716 31.2340 2078.00 2127.70 45.59
1717 31.2481 2149.00 2126.09 46.36
1718 31.2623 2167.00 2124.47 46.55
1719 31.2765 2181.00 2122.86 46.70
1720 31.2907 2150.00 2121.26 46.37
1721 31.3049 2171.00 2119.67 46.59
1722 31.3191 2182.00 2118.09 46.71
1723 31.3332 2172.00 2116.53 46.60
1724 31.3474 2225.00 2114.97 47.17
1725 31.3616 2027.00 2113.43 45.02
1726 31.3758 2123.00 2112.71 46.08
1727 31.3900 2155.00 2111.23 46.42
1728 31.4042 2153.00 2109.78 46.40
1729 31.4184 2133.00 2108.37 46.18
1730 31.4325 2128.00 2106.90 46.13
1731 31.4467 2098.00 2105.59 45.80
1732 31.4609 2182.00 2104.74 46.71
1733 31.4751 2156.00 2103.58 46.43
1734 31.4893 2195.00 2102.51 46.85
1735 31.5035 2063.00 2101.50 45.42
1736 31.5176 2121.00 2100.68 46.05
1737 31.5318 2196.00 2100.00 46.86
1738 31.5460 2166.00 2099.48 46.54
1739 31.5602 2088.00 2099.12 45.69
1740 31.5744 2094.00 2098.92 45.76
1741 31.5886 2055.00 2098.88 45.33
1742 31.6027 2139.00 2099.05 46.25
1743 31.6169 2088.00 2099.45 45.69
1744 31.6311 2127.00 2100.08 46.12
1745 31.6453 2029.00 2101.03 45.04
1746 31.6595 2137.00 2102.20 46.23
1747 31.6737 2113.00 2103.47 45.97
1748 31.6878 2156.00 2104.60 46.43
1749 31.7020 2095.00 2105.32 45.77
1750 31.7162 2049.00 2105.35 45.27
1751 31.7304 2126.00 2104.61 46.11
1752 31.7446 2088.00 2103.11 45.69
1753 31.7588 2064.00 2101.03 45.43
1754 31.7730 2044.00 2098.51 45.21
1755 31.7871 2094.00 2095.72 45.76
1756 31.8013 2032.00 2092.74 45.08
1757 31.8155 2143.00 2089.74 46.29
1758 31.8297 2094.00 2086.88 45.76
1759 31.8439 2081.00 2084.36 45.62
1760 31.8581 2078.00 2082.33 45.59
1761 31.8722 2077.00 2080.93 45.57
1762 31.8864 2071.00 2080.22 45.51
1763 31.9006 2035.00 2080.26 45.11
1764 31.9148 2143.00 2081.06 46.29
1765 31.9290 2060.00 2082.61 45.39
1766 31.9432 2152.00 2084.89 46.39
1767 31.9573 2136.00 2087.97 46.22
1768 31.9715 2079.00 2092.05 45.60
1769 31.9857 2191.00 2097.39 46.81
1770 31.9999 2101.00 2104.24 45.84
1771 32.0141 2037.00 2112.89 45.13
1772 32.0283 2070.00 2123.52 45.50
1773 32.0424 2181.00 2136.19 46.70
1774 32.0566 2141.00 2151.03 46.27
1775 32.0708 2177.00 2167.57 46.66
1776 32.0850 2103.00 2184.88 45.86
1777 32.0992 2179.00 2201.31 46.68
1778 32.1134 2161.00 2214.75 46.49
1779 32.1276 2133.00 2223.26 46.18
1780 32.1417 2151.00 2225.86 46.38
1781 32.1559 2254.00 2222.78 47.48
1782 32.1701 2121.00 2214.92 46.05
1783 32.1843 2125.00 2203.24 46.10
1784 32.1985 2098.00 2188.48 45.80
1785 32.2127 2143.00 2171.26 46.29
1786 32.2268 2136.00 2152.46 46.22
1787 32.2410 2104.00 2132.84 45.87
1788 32.2552 2141.00 2113.55 46.27
1789 32.2694 2036.00 2095.46 45.12
1790 32.2836 2040.00 2079.17 45.17
1791 32.2978 2006.00 2064.99 44.79
1792 32.3119 2037.00 2053.11 45.13
1793 32.3261 2063.00 2043.29 45.42
1794 32.3403 2116.00 2035.44 46.00
1795 32.3545 1993.00 2029.29 44.64
1796 32.3687 2023.00 2024.54 44.98
1797 32.3829 2010.00 2020.92 44.83
1798 32.3970 1963.00 2018.21 44.31
1799 32.4112 2011.00 2016.15 44.84
1800 32.4254 1993.00 2014.65 44.64
1801 32.4396 2072.00 2013.60 45.52
1802 32.4538 2059.00 2012.93 45.38
1803 32.4680 2016.00 2012.63 44.90
1804 32.4822 1948.00 2012.69 44.14
1805 32.4963 2048.00 2013.13 45.25
1806 32.5105 1989.00 2014.05 44.60
1807 32.5247 1992.00 2015.53 44.63
1808 32.5389 2020.00 2017.75 44.94
1809 32.5531 1942.00 2020.98 44.07
1810 32.5673 2039.00 2025.55 45.16
1811 32.5814 2027.00 2031.88 45.02
1812 32.5956 1983.00 2040.59 44.53
1813 32.6098 2068.00 2052.30 45.48
1814 32.6240 2065.00 2067.67 45.44
1815 32.6382 2050.00 2087.43 45.28
1816 32.6524 2152.00 2112.25 46.39
1817 32.6665 2134.00 2142.58 46.20
1818 32.6807 2107.00 2179.42 45.90
1819 32.6949 2201.00 2222.96 46.91
1820 32.7091 2243.00 2273.08 47.36
1821 32.7233 2291.00 2328.73 47.86
1822 32.7375 2455.00 2387.33 49.55
1823 32.7516 2475.00 2443.86 49.75
1824 32.7658 2468.00 2493.01 49.68
1825 32.7800 2451.00 2528.09 49.51
1826 32.7942 2594.00 2545.38 50.93
1827 32.8084 2568.00 2544.79 50.68
1828 32.8226 2536.00 2528.91 50.36
1829 32.8368 2508.00 2500.92 50.08
1830 32.8509 2432.00 2463.51 49.32
1831 32.8651 2415.00 2417.84 49.14
1832 32.8793 2328.00 2366.00 48.25
1833 32.8935 2345.00 2310.67 48.43
1834 32.9077 2274.00 2254.94 47.69
1835 32.9219 2225.00 2201.58 47.17
1836 32.9360 2129.00 2153.04 46.14
1837 32.9502 2142.00 2109.84 46.28
1838 32.9644 2042.00 2072.95 45.19
1839 32.9786 1956.00 2042.31 44.23
1840 32.9928 1939.00 2017.53 44.03
1841 33.0070 1948.00 1997.91 44.14
1842 33.0211 1991.00 1982.68 44.62
1843 33.0353 1925.00 1970.80 43.87
1844 33.0495 2040.00 1961.56 45.17
1845 33.0637 1932.00 1954.30 43.95
1846 33.0779 1965.00 1948.47 44.33
1847 33.0921 1926.00 1943.62 43.89
1848 33.1062 1915.00 1939.56 43.76
1849 33.1204 1963.00 1935.97 44.31
1850 33.1346 1944.00 1932.75 44.09
1851 33.1488 1874.00 1929.79 43.29
1852 33.1630 1894.00 1927.02 43.52
1853 33.1772 1992.00 1924.38 44.63
1854 33.1914 1974.00 1921.88 44.43
1855 33.2055 1922.00 1919.49 43.84
1856 33.2197 1941.00 1917.17 44.06
1857 33.2339 1957.00 1914.91 44.24
1858 33.2481 2016.00 1912.83 44.90
1859 33.2623 1941.00 1910.70 44.06
1860 33.2765 1891.00 1908.62 43.49
1861 33.2906 1841.00 1906.60 42.91
1862 33.3048 1880.00 1904.61 43.36
1863 33.3190 1993.00 1902.66 44.64
1864 33.3332 1921.00 1900.78 43.83
1865 33.3474 1821.00 1898.91 42.67
1866 33.3616 1910.00 1897.06 43.70
1867 33.3757 1934.00 1895.26 43.98
1868 33.3899 1910.00 1893.48 43.70
1869 33.4041 1899.00 1891.72 43.58
1870 33.4183 1861.00 1889.98 43.14
1871 33.4325 1880.00 1888.27 43.36
1872 33.4467 1872.00 1886.58 43.27
1873 33.4608 1968.00 1884.92 44.36
1874 33.4750 1915.00 1883.26 43.76
1875 33.4892 1928.00 1881.63 43.91
1876 33.5034 1928.00 1880.01 43.91
1877 33.5176 1862.00 1878.17 43.15
1878 33.5318 1927.00 1876.58 43.90
1879 33.5460 1876.00 1875.02 43.31
1880 33.5601 1928.00 1873.47 43.91
1881 33.5743 1792.00 1871.93 42.33
1882 33.5885 1843.00 1870.40 42.93
1883 33.6027 1964.00 1868.77 44.32
1884 33.6169 1815.00 1867.27 42.60
1885 33.6311 1907.00 1865.78 43.67
1886 33.6452 1841.00 1864.32 42.91
1887 33.6594 1854.00 1862.86 43.06
1888 33.6736 1943.00 1861.43 44.08
1889 33.6878 1825.00 1860.01 42.72
1890 33.7020 1906.00 1858.64 43.66
1891 33.7162 1914.00 1857.27 43.75
1892 33.7303 1830.00 1855.93 42.78
1893 33.7445 1865.00 1854.60 43.19
1894 33.7587 1909.00 1853.31 43.69
1895 33.7729 1923.00 1852.05 43.85
1896 33.7871 1883.00 1850.83 43.39
1897 33.8013 1826.00 1849.63 42.73
1898 33.8154 1828.00 1848.46 42.76
1899 33.8296 1838.00 1847.28 42.87
1900 33.8438 1854.00 1846.10 43.06
1901 33.8580 1846.00 1844.88 42.97
1902 33.8722 1859.00 1843.63 43.12
1903 33.8864 1907.00 1842.34 43.67
1904 33.9006 1836.00 1841.54 42.85
1905 33.9147 1947.00 1840.24 44.12
1906 33.9289 1843.00 1838.92 42.93
1907 33.9431 1850.00 1837.62 43.01
1908 33.9573 1816.00 1836.34 42.61
1909 33.9715 1892.00 1835.10 43.50
1910 33.9857 1818.00 1834.18 42.64
1911 33.9998 1792.00 1833.12 42.33
1912 34.0140 1837.00 1832.18 42.86
1913 34.0282 1827.00 1831.40 42.74
1914 34.0424 1851.00 1830.82 43.02
1915 34.0566 1886.00 1830.48 43.43
1916 34.0708 1819.00 1830.40 42.65
1917 34.0849 1809.00 1830.63 42.53
1918 34.0991 1778.00 1831.20 42.17
1919 34.1133 1874.00 1832.13 43.29
1920 34.1275 1881.00 1833.44 43.37
1921 34.1417 1771.00 1835.09 42.08
1922 34.1559 1861.00 1836.99 43.14
1923 34.1700 1929.00 1838.93 43.92
1924 34.1842 1906.00 1839.84 43.66
1925 34.1984 1876.00 1840.96 43.31
1926 34.2126 1870.00 1841.21 43.24
1927 34.2268 1977.00 1840.51 44.46
1928 34.2410 1938.00 1838.95 44.02
1929 34.2552 1907.00 1836.71 43.67
1930 34.2693 1842.00 1833.98 42.92
1931 34.2835 1851.00 1830.43 43.02
1932 34.2977 1892.00 1826.91 43.50
1933 34.3119 1823.00 1823.12 42.70
1934 34.3261 1863.00 1819.21 43.16
1935 34.3403 1882.00 1815.32 43.38
1936 34.3544 1873.00 1811.62 43.28
1937 34.3686 1836.00 1808.17 42.85
1938 34.3828 1798.00 1805.05 42.40
1939 34.3970 1789.00 1802.28 42.30
1940 34.4112 1776.00 1799.87 42.14
1941 34.4254 1782.00 1797.82 42.21
1942 34.4395 1866.00 1796.10 43.20
1943 34.4537 1719.00 1794.67 41.46
1944 34.4679 1743.00 1793.54 41.75
1945 34.4821 1818.00 1792.69 42.64
1946 34.4963 1794.00 1792.13 42.36
1947 34.5105 1806.00 1791.90 42.50
1948 34.5246 1878.00 1792.04 43.34
1949 34.5388 1810.00 1792.59 42.54
1950 34.5530 1854.00 1793.63 43.06
1951 34.5672 1810.00 1795.23 42.54
1952 34.5814 1848.00 1797.45 42.99
1953 34.5956 1760.00 1800.36 41.95
1954 34.6098 1838.00 1804.04 42.87
1955 34.6239 1804.00 1808.45 42.47
1956 34.6381 1842.00 1813.59 42.92
1957 34.6523 1889.00 1819.21 43.46
1958 34.6665 1882.00 1824.86 43.38
1959 34.6807 1825.00 1829.88 42.72
1960 34.6949 1900.00 1833.55 43.59
1961 34.7090 1855.00 1835.32 43.07
1962 34.7232 1967.00 1835.11 44.35
1963 34.7374 1931.00 1833.13 43.94
1964 34.7516 1876.00 1829.80 43.31
1965 34.7658 1806.00 1825.43 42.50
1966 34.7800 1805.00 1820.21 42.49
1967 34.7941 1776.00 1814.30 42.14
1968 34.8083 1865.00 1807.78 43.19
1969 34.8225 1787.00 1800.97 42.27
1970 34.8367 1784.00 1794.20 42.24
1971 34.8509 1873.00 1787.75 43.28
1972 34.8651 1816.00 1781.84 42.61
1973 34.8792 1823.00 1776.63 42.70
1974 34.8934 1780.00 1772.09 42.19
1975 34.9076 1771.00 1768.28 42.08
1976 34.9218 1810.00 1765.16 42.54
1977 34.9360 1776.00 1762.68 42.14
1978 34.9502 1772.00 1760.78 42.10
1979 34.9644 1821.00 1759.39 42.67
1980 34.9785 1714.00 1758.46 41.40
1981 34.9927 1693.00 1757.96 41.15
1982 35.0069 1770.00 1757.86 42.07
1983 35.0211 1789.00 1758.16 42.30
1984 35.0353 1824.00 1758.88 42.71
1985 35.0495 1775.00 1760.02 42.13
1986 35.0636 1777.00 1761.61 42.15
1987 35.0778 1772.00 1763.70 42.10
1988 35.0920 1779.00 1766.32 42.18
1989 35.1062 1740.00 1769.46 41.71
1990 35.1204 1858.00 1773.10 43.10
1991 35.1346 1871.00 1777.15 43.26
1992 35.1487 1716.00 1781.51 41.42
1993 35.1629 1809.00 1786.25 42.53
1994 35.1771 1763.00 1791.51 41.99
1995 35.1913 1749.00 1797.64 41.82
1996 35.2055 1859.00 1805.07 43.12
1997 35.2197 1789.00 1814.27 42.30
1998 35.2338 1798.00 1825.56 42.40
1999 35.2480 1818.00 1839.50 42.64
2000 35.2622 1854.00 1856.37 43.06
2001 35.2764 1889.00 1876.47 43.46
2002 35.2906 1816.00 1899.84 42.61
2003 35.3048 1908.00 1926.00 43.68
2004 35.3190 1927.00 1953.57 43.90
2005 35.3331 1834.00 1979.94 42.83
2006 35.3473 1974.00 2002.28 44.43
2007 35.3615 1988.00 2017.42 44.59
2008 35.3757 2012.00 2023.78 44.86
2009 35.3899 1994.00 2021.73 44.65
2010 35.4041 1917.00 2012.88 43.78
2011 35.4182 1948.00 1999.10 44.14
2012 35.4324 1998.00 1981.31 44.70
2013 35.4466 1892.00 1960.08 43.50
2014 35.4608 1826.00 1935.83 42.73
2015 35.4750 1949.00 1909.35 44.15
2016 35.4892 1921.00 1881.94 43.83
2017 35.5033 1795.00 1855.14 42.37
2018 35.5175 1872.00 1829.73 43.27
2019 35.5317 1841.00 1806.67 42.91
2020 35.5459 1679.00 1786.39 40.98
2021 35.5601 1768.00 1769.01 42.05
2022 35.5743 1794.00 1754.45 42.36
2023 35.5884 1727.00 1742.57 41.56
2024 35.6026 1823.00 1732.87 42.70
2025 35.6168 1642.00 1725.08 40.52
2026 35.6310 1777.00 1718.84 42.15
2027 35.6452 1755.00 1713.76 41.89
2028 35.6594 1717.00 1709.67 41.44
2029 35.6736 1753.00 1706.28 41.87
2030 35.6877 1705.00 1703.44 41.29
2031 35.7019 1726.00 1700.98 41.55
2032 35.7161 1755.00 1698.83 41.89
2033 35.7303 1651.00 1696.93 40.63
2034 35.7445 1692.00 1695.20 41.13
2035 35.7587 1722.00 1693.66 41.50
2036 35.7728 1716.00 1692.28 41.42
2037 35.7870 1694.00 1691.00 41.16
2038 35.8012 1725.00 1689.82 41.53
2039 35.8154 1761.00 1688.69 41.96
2040 35.8296 1683.00 1687.57 41.02
2041 35.8438 1741.00 1686.40 41.73
2042 35.8579 1759.00 1685.15 41.94
2043 35.8721 1763.00 1683.81 41.99
2044 35.8863 1637.00 1682.38 40.46
2045 35.9005 1728.00 1680.91 41.57
2046 35.9147 1739.00 1679.40 41.70
2047 35.9289 1736.00 1677.86 41.67
2048 35.9430 1728.00 1676.32 41.57
2049 35.9572 1728.00 1674.74 41.57
2050 35.9714 1717.00 1673.17 41.44
2051 35.9856 1681.00 1671.61 41.00
2052 35.9998 1704.00 1670.07 41.28
2053 36.0140 1720.00 1668.59 41.47
2054 36.0282 1648.00 1667.15 40.60
2055 36.0423 1761.00 1665.78 41.96
2056 36.0565 1702.00 1664.45 41.26
2057 36.0707 1697.00 1663.17 41.19
2058 36.0849 1707.00 1661.94 41.32
2059 36.0991 1653.00 1660.75 40.66
2060 36.1133 1732.00 1659.59 41.62
2061 36.1274 1626.00 1658.48 40.32
2062 36.1416 1674.00 1657.38 40.91
2063 36.1558 1651.00 1656.19 40.63
2064 36.1700 1617.00 1655.12 40.21
2065 36.1842 1734.00 1654.08 41.64
2066 36.1984 1648.00 1653.04 40.60
2067 36.2125 1645.00 1652.03 40.56
2068 36.2267 1714.00 1651.01 41.40
2069 36.2409 1619.00 1649.96 40.24
2070 36.2551 1583.00 1648.96 39.79
2071 36.2693 1560.00 1647.97 39.50
2072 36.2835 1692.00 1646.99 41.13
2073 36.2976 1644.00 1646.02 40.55
2074 36.3118 1644.00 1645.06 40.55
2075 36.3260 1591.00 1644.09 39.89
2076 36.3402 1647.00 1643.14 40.58
2077 36.3544 1557.00 1642.19 39.46
2078 36.3686 1672.00 1641.24 40.89
2079 36.3828 1696.00 1640.31 41.18
2080 36.3969 1717.00 1639.38 41.44
2081 36.4111 1610.00 1638.45 40.12
2082 36.4253 1602.00 1637.63 40.03
2083 36.4395 1618.00 1636.71 40.22
2084 36.4537 1674.00 1635.80 40.91
2085 36.4679 1681.00 1634.89 41.00
2086 36.4820 1593.00 1634.00 39.91
2087 36.4962 1592.00 1633.10 39.90
2088 36.5104 1640.00 1632.20 40.50
2089 36.5246 1639.00 1631.36 40.48
2090 36.5388 1626.00 1630.51 40.32
2091 36.5530 1621.00 1629.63 40.26
2092 36.5671 1606.00 1628.76 40.07
2093 36.5813 1587.00 1627.89 39.84
2094 36.5955 1621.00 1627.02 40.26
2095 36.6097 1626.00 1626.16 40.32
2096 36.6239 1661.00 1625.26 40.76
2097 36.6381 1611.00 1624.42 40.14
2098 36.6522 1631.00 1623.58 40.39
2099 36.6664 1619.00 1622.73 40.24
2100 36.6806 1626.00 1621.89 40.32
2101 36.6948 1589.00 1621.05 39.86
2102 36.7090 1630.00 1620.20 40.37
2103 36.7232 1616.00 1619.37 40.20
2104 36.7374 1612.00 1618.54 40.15
2105 36.7515 1718.00 1617.72 41.45
2106 36.7657 1586.00 1616.91 39.82
2107 36.7799 1579.00 1616.09 39.74
2108 36.7941 1536.00 1615.28 39.19
2109 36.8083 1586.00 1614.48 39.82
2110 36.8225 1599.00 1613.16 39.99
2111 36.8366 1524.00 1612.38 39.04
2112 36.8508 1576.00 1611.60 39.70
2113 36.8650 1558.00 1610.82 39.47
2114 36.8792 1591.00 1610.05 39.89
2115 36.8934 1627.00 1609.28 40.34
2116 36.9076 1582.00 1608.52 39.77
2117 36.9217 1603.00 1607.52 40.04
2118 36.9359 1534.00 1606.78 39.17
2119 36.9501 1610.00 1606.05 40.12
2120 36.9643 1607.00 1605.33 40.09
2121 36.9785 1622.00 1604.63 40.27
2122 36.9927 1617.00 1603.93 40.21
2123 37.0068 1628.00 1603.26 40.35
2124 37.0210 1576.00 1602.61 39.70
2125 37.0352 1544.00 1602.01 39.29
2126 37.0494 1508.00 1601.40 38.83
2127 37.0636 1650.00 1600.81 40.62
2128 37.0778 1601.00 1600.24 40.01
2129 37.0920 1565.00 1599.69 39.56
2130 37.1061 1625.00 1599.13 40.31
2131 37.1203 1616.00 1598.55 40.20
2132 37.1345 1594.00 1597.96 39.92
2133 37.1487 1613.00 1597.29 40.16
2134 37.1629 1593.00 1596.58 39.91
2135 37.1771 1574.00 1595.84 39.67
2136 37.1912 1551.00 1595.07 39.38
2137 37.2054 1671.00 1594.29 40.88
2138 37.2196 1561.00 1593.49 39.51
2139 37.2338 1554.00 1592.68 39.42
2140 37.2480 1597.00 1591.86 39.96
2141 37.2622 1589.00 1591.04 39.86
2142 37.2763 1571.00 1590.22 39.64
2143 37.2905 1605.00 1589.41 40.06
2144 37.3047 1601.00 1588.61 40.01
2145 37.3189 1587.00 1587.83 39.84
2146 37.3331 1612.00 1587.07 40.15
2147 37.3473 1624.00 1586.34 40.30
2148 37.3614 1525.00 1585.63 39.05
2149 37.3756 1553.00 1584.94 39.41
2150 37.3898 1555.00 1584.27 39.43
2151 37.4040 1598.00 1583.61 39.97
2152 37.4182 1608.00 1582.97 40.10
2153 37.4324 1533.00 1582.35 39.15
2154 37.4466 1587.00 1581.74 39.84
2155 37.4607 1629.00 1581.15 40.36
2156 37.4749 1537.00 1580.58 39.20
2157 37.4891 1482.00 1580.02 38.50
2158 37.5033 1545.00 1579.48 39.31
2159 37.5175 1545.00 1578.96 39.31
2160 37.5317 1610.00 1578.45 40.12
2161 37.5458 1578.00 1577.98 39.72
2162 37.5600 1530.00 1577.53 39.12
2163 37.5742 1481.00 1577.11 38.48
2164 37.5884 1566.00 1576.72 39.57
2165 37.6026 1435.00 1576.37 37.88
2166 37.6168 1566.00 1576.07 39.57
2167 37.6309 1556.00 1575.81 39.45
2168 37.6451 1564.00 1575.62 39.55
2169 37.6593 1523.00 1575.49 39.03
2170 37.6735 1619.00 1575.46 40.24
2171 37.6877 1556.00 1575.53 39.45
2172 37.7019 1654.00 1575.72 40.67
2173 37.7160 1642.00 1576.07 40.52
2174 37.7302 1589.00 1576.60 39.86
2175 37.7444 1648.00 1577.34 40.60
2176 37.7586 1596.00 1578.33 39.95
2177 37.7728 1534.00 1579.64 39.17
2178 37.7870 1554.00 1581.48 39.42
2179 37.8012 1530.00 1583.62 39.12
2180 37.8153 1613.00 1586.26 40.16
2181 37.8295 1579.00 1589.50 39.74
2182 37.8437 1564.00 1593.34 39.55
2183 37.8579 1650.00 1597.70 40.62
2184 37.8721 1531.00 1602.36 39.13
2185 37.8863 1562.00 1606.92 39.52
2186 37.9004 1551.00 1610.92 39.38
2187 37.9146 1579.00 1613.76 39.74
2188 37.9288 1582.00 1615.29 39.77
2189 37.9430 1501.00 1615.60 38.74
2190 37.9572 1554.00 1615.02 39.42
2191 37.9714 1511.00 1613.87 38.87
2192 37.9855 1598.00 1612.28 39.97
2193 37.9997 1611.00 1610.17 40.14
2194 38.0139 1547.00 1607.36 39.33
2195 38.0281 1577.00 1603.78 39.71
2196 38.0423 1547.00 1599.53 39.33
2197 38.0565 1645.00 1594.96 40.56
2198 38.0706 1611.00 1590.20 40.14
2199 38.0848 1493.00 1585.53 38.64
2200 38.0990 1593.00 1581.12 39.91
2201 38.1132 1505.00 1577.02 38.79
2202 38.1274 1573.00 1573.23 39.66
2203 38.1416 1507.00 1569.75 38.82
2204 38.1558 1555.00 1566.64 39.43
2205 38.1699 1551.00 1563.81 39.38
2206 38.1841 1522.00 1561.28 39.01
2207 38.1983 1607.00 1559.06 40.09
2208 38.2125 1479.00 1557.13 38.46
2209 38.2267 1528.00 1555.46 39.09
2210 38.2409 1502.00 1554.02 38.76
2211 38.2550 1553.00 1552.79 39.41
2212 38.2692 1527.00 1551.72 39.08
2213 38.2834 1584.00 1550.81 39.80
2214 38.2976 1608.00 1550.03 40.10
2215 38.3118 1593.00 1549.38 39.91
2216 38.3260 1477.00 1548.84 38.43
2217 38.3401 1539.00 1548.42 39.23
2218 38.3543 1569.00 1548.11 39.61
2219 38.3685 1486.00 1547.93 38.55
2220 38.3827 1536.00 1547.90 39.19
2221 38.3969 1562.00 1548.02 39.52
2222 38.4111 1483.00 1548.32 38.51
2223 38.4252 1553.00 1548.83 39.41
2224 38.4394 1507.00 1549.56 38.82
2225 38.4536 1505.00 1550.52 38.79
2226 38.4678 1594.00 1551.69 39.92
2227 38.4820 1565.00 1553.01 39.56
2228 38.4962 1551.00 1554.32 39.38
2229 38.5104 1505.00 1555.42 38.79
2230 38.5245 1557.00 1556.11 39.46
2231 38.5387 1550.00 1556.24 39.37
2232 38.5529 1504.00 1555.83 38.78
2233 38.5671 1499.00 1554.99 38.72
2234 38.5813 1515.00 1553.86 38.92
2235 38.5955 1530.00 1552.55 39.12
2236 38.6096 1567.00 1551.11 39.59
2237 38.6238 1585.00 1549.51 39.81
2238 38.6380 1508.00 1547.75 38.83
2239 38.6522 1565.00 1545.86 39.56
2240 38.6664 1563.00 1543.90 39.53
2241 38.6806 1532.00 1541.97 39.14
2242 38.6947 1600.00 1540.13 40.00
2243 38.7089 1475.00 1538.43 38.41
2244 38.7231 1613.00 1536.89 40.16
2245 38.7373 1501.00 1535.53 38.74
2246 38.7515 1525.00 1534.34 39.05
2247 38.7657 1541.00 1533.32 39.26
2248 38.7798 1558.00 1532.45 39.47
2249 38.7940 1530.00 1531.71 39.12
2250 38.8082 1580.00 1531.08 39.75
2251 38.8224 1634.00 1530.56 40.42
2252 38.8366 1505.00 1530.14 38.79
2253 38.8508 1572.00 1529.80 39.65
2254 38.8650 1588.00 1529.54 39.85
2255 38.8791 1530.00 1529.37 39.12
2256 38.8933 1588.00 1529.28 39.85
2257 38.9075 1515.00 1529.27 38.92
2258 38.9217 1574.00 1529.32 39.67
2259 38.9359 1560.00 1529.44 39.50
2260 38.9501 1528.00 1529.58 39.09
2261 38.9642 1481.00 1529.72 38.48
2262 38.9784 1569.00 1529.83 39.61
2263 38.9926 1578.00 1529.91 39.72
2264 39.0068 1482.00 1529.99 38.50
2265 39.0210 1456.00 1530.09 38.16
2266 39.0352 1527.00 1530.26 39.08
2267 39.0493 1510.00 1530.52 38.86
2268 39.0635 1488.00 1530.91 38.57
2269 39.0777 1587.00 1531.46 39.84
2270 39.0919 1524.00 1532.22 39.04
2271 39.1061 1514.00 1533.25 38.91
2272 39.1203 1519.00 1534.62 38.97
2273 39.1344 1592.00 1536.41 39.90
2274 39.1486 1528.00 1538.74 39.09
2275 39.1628 1551.00 1541.70 39.38
2276 39.1770 1470.00 1545.41 38.34
2277 39.1912 1515.00 1549.97 38.92
2278 39.2054 1589.00 1555.45 39.86
2279 39.2196 1565.00 1561.79 39.56
2280 39.2337 1593.00 1569.05 39.91
2281 39.2479 1537.00 1576.20 39.20
2282 39.2621 1568.00 1582.76 39.60
2283 39.2763 1616.00 1587.92 40.20
2284 39.2905 1574.00 1590.95 39.67
2285 39.3047 1522.00 1591.82 39.01
2286 39.3188 1497.00 1590.99 38.69
2287 39.3330 1679.00 1589.06 40.98
2288 39.3472 1539.00 1586.72 39.23
2289 39.3614 1493.00 1583.92 38.64
2290 39.3756 1546.00 1580.81 39.32
2291 39.3898 1510.00 1577.37 38.86
2292 39.4039 1504.00 1573.53 38.78
2293 39.4181 1557.00 1569.75 39.46
2294 39.4323 1587.00 1566.35 39.84
2295 39.4465 1496.00 1563.69 38.68
2296 39.4607 1544.00 1562.04 39.29
2297 39.4749 1517.00 1561.51 38.95
2298 39.4890 1513.00 1561.99 38.90
2299 39.5032 1493.00 1563.11 38.64
2300 39.5174 1509.00 1564.39 38.85
2301 39.5316 1531.00 1565.19 39.13
2302 39.5458 1557.00 1564.98 39.46
2303 39.5600 1559.00 1563.63 39.48
2304 39.5742 1581.00 1561.35 39.76
2305 39.5883 1563.00 1558.53 39.53
2306 39.6025 1560.00 1555.42 39.50
2307 39.6167 1579.00 1552.12 39.74
2308 39.6309 1522.00 1548.62 39.01
2309 39.6451 1597.00 1544.78 39.96
2310 39.6593 1490.00 1540.59 38.60
2311 39.6734 1574.00 1536.18 39.67
2312 39.6876 1497.00 1531.70 38.69
2313 39.7018 1521.00 1527.39 39.00
2314 39.7160 1574.00 1523.37 39.67
2315 39.7302 1555.00 1519.75 39.43
2316 39.7444 1558.00 1516.55 39.47
2317 39.7585 1544.00 1513.80 39.29
2318 39.7727 1512.00 1511.42 38.88
2319 39.7869 1453.00 1509.39 38.12
2320 39.8011 1517.00 1507.67 38.95
2321 39.8153 1450.00 1506.22 38.08
2322 39.8295 1526.00 1505.35 39.06
2323 39.8436 1564.00 1504.40 39.55
2324 39.8578 1472.00 1503.47 38.37
2325 39.8720 1485.00 1502.66 38.54
2326 39.8862 1426.00 1501.93 37.76
2327 39.9004 1551.00 1501.27 39.38
2328 39.9146 1463.00 1500.67 38.25
2329 39.9288 1529.00 1500.11 39.10
2330 39.9429 1483.00 1499.79 38.51
2331 39.9571 1483.00 1499.35 38.51
2332 39.9713 1486.00 1498.90 38.55
2333 39.9855 1515.00 1498.47 38.92
2334 39.9997 1491.00 1498.06 38.61
2335 40.0139 1548.00 1497.67 39.34
2336 40.0280 1443.00 1497.27 37.99
2337 40.0422 1472.00 1496.92 38.37
2338 40.0564 1522.00 1496.59 39.01
2339 40.0706 1536.00 1496.28 39.19
2340 40.0848 1454.00 1495.98 38.13
2341 40.0990 1499.00 1495.71 38.72
2342 40.1131 1479.00 1495.45 38.46
2343 40.1273 1505.00 1495.19 38.79
2344 40.1415 1491.00 1494.96 38.61
2345 40.1557 1465.00 1494.75 38.28
2346 40.1699 1505.00 1494.57 38.79
2347 40.1841 1562.00 1494.40 39.52
2348 40.1982 1460.00 1494.26 38.21
2349 40.2124 1487.00 1494.14 38.56
2350 40.2266 1514.00 1494.04 38.91
2351 40.2408 1508.00 1493.97 38.83
2352 40.2550 1605.00 1493.93 40.06
2353 40.2692 1489.00 1493.93 38.59
2354 40.2834 1463.00 1493.96 38.25
2355 40.2975 1487.00 1494.03 38.56
2356 40.3117 1468.00 1494.14 38.31
2357 40.3259 1498.00 1494.31 38.70
2358 40.3401 1472.00 1494.53 38.37
2359 40.3543 1508.00 1494.82 38.83
2360 40.3685 1482.00 1495.17 38.50
2361 40.3826 1517.00 1495.60 38.95
2362 40.3968 1579.00 1496.12 39.74
2363 40.4110 1444.00 1496.73 38.00
2364 40.4252 1590.00 1497.45 39.87
2365 40.4394 1530.00 1498.29 39.12
2366 40.4536 1498.00 1499.32 38.70
2367 40.4677 1516.00 1500.46 38.94
2368 40.4819 1482.00 1501.80 38.50
2369 40.4961 1529.00 1503.38 39.10
2370 40.5103 1507.00 1505.25 38.82
2371 40.5245 1425.00 1507.49 37.75
2372 40.5387 1524.00 1510.18 39.04
2373 40.5528 1489.00 1513.41 38.59
2374 40.5670 1517.00 1517.37 38.95
2375 40.5812 1546.00 1522.17 39.32
2376 40.5954 1481.00 1528.04 38.48
2377 40.6096 1513.00 1535.18 38.90
2378 40.6238 1497.00 1543.84 38.69
2379 40.6380 1558.00 1554.22 39.47
2380 40.6521 1561.00 1566.29 39.51
2381 40.6663 1633.00 1579.99 40.41
2382 40.6805 1634.00 1594.52 40.42
2383 40.6947 1724.00 1608.59 41.52
2384 40.7089 1662.00 1620.77 40.77
2385 40.7231 1696.00 1629.21 41.18
2386 40.7372 1726.00 1633.45 41.55
2387 40.7514 1653.00 1633.89 40.66
2388 40.7656 1679.00 1631.38 40.98
2389 40.7798 1788.00 1626.77 42.28
2390 40.7940 1651.00 1621.09 40.63
2391 40.8082 1686.00 1614.43 41.06
2392 40.8223 1699.00 1606.84 41.22
2393 40.8365 1627.00 1597.88 40.34
2394 40.8507 1612.00 1587.83 40.15
2395 40.8649 1605.00 1577.09 40.06
2396 40.8791 1637.00 1566.11 40.46
2397 40.8933 1587.00 1555.56 39.84
2398 40.9074 1564.00 1545.85 39.55
2399 40.9216 1504.00 1537.12 38.78
2400 40.9358 1463.00 1529.58 38.25
2401 40.9500 1489.00 1523.26 38.59
2402 40.9642 1461.00 1518.12 38.22
2403 40.9784 1464.00 1514.07 38.26
2404 40.9926 1492.00 1510.99 38.63
2405 41.0067 1537.00 1508.78 39.20
2406 41.0209 1511.00 1507.29 38.87
2407 41.0351 1518.00 1506.34 38.96
2408 41.0493 1509.00 1506.10 38.85
2409 41.0635 1488.00 1506.40 38.57
2410 41.0777 1449.00 1507.23 38.07
2411 41.0918 1487.00 1508.59 38.56
2412 41.1060 1459.00 1510.55 38.20
2413 41.1202 1472.00 1513.17 38.37
2414 41.1344 1444.00 1516.53 38.00
2415 41.1486 1577.00 1520.87 39.71
2416 41.1628 1472.00 1526.35 38.37
2417 41.1769 1480.00 1533.17 38.47
2418 41.1911 1575.00 1541.67 39.69
2419 41.2053 1507.00 1552.15 38.82
2420 41.2195 1479.00 1564.83 38.46
2421 41.2337 1578.00 1579.74 39.72
2422 41.2479 1634.00 1596.47 40.42
2423 41.2620 1654.00 1613.74 40.67
2424 41.2762 1615.00 1629.95 40.19
2425 41.2904 1656.00 1642.68 40.69
2426 41.3046 1679.00 1650.13 40.98
2427 41.3188 1697.00 1651.89 41.19
2428 41.3330 1647.00 1648.98 40.58
2429 41.3472 1678.00 1643.18 40.96
2430 41.3613 1594.00 1636.11 39.92
2431 41.3755 1631.00 1628.46 40.39
2432 41.3897 1666.00 1620.19 40.82
2433 41.4039 1651.00 1610.76 40.63
2434 41.4181 1630.00 1599.74 40.37
2435 41.4323 1579.00 1587.21 39.74
2436 41.4464 1556.00 1573.93 39.45
2437 41.4606 1593.00 1561.01 39.91
2438 41.4748 1557.00 1548.28 39.46
2439 41.4890 1481.00 1536.69 38.48
2440 41.5032 1444.00 1526.46 38.00
2441 41.5174 1464.00 1517.66 38.26
2442 41.5315 1547.00 1510.25 39.33
2443 41.5457 1490.00 1504.03 38.60
2444 41.5599 1489.00 1498.90 38.59
2445 41.5741 1486.00 1494.94 38.55
2446 41.5883 1487.00 1491.51 38.56
2447 41.6025 1453.00 1488.76 38.12
2448 41.6166 1504.00 1486.50 38.78
2449 41.6308 1452.00 1484.65 38.11
2450 41.6450 1443.00 1483.13 37.99
2451 41.6592 1464.00 1481.89 38.26
2452 41.6734 1519.00 1480.88 38.97
2453 41.6876 1491.00 1480.07 38.61
2454 41.7018 1484.00 1479.42 38.52
2455 41.7159 1458.00 1478.96 38.18
2456 41.7301 1417.00 1478.63 37.64
2457 41.7443 1441.00 1478.45 37.96
2458 41.7585 1468.00 1478.44 38.31
2459 41.7727 1429.00 1478.60 37.80
2460 41.7869 1477.00 1478.97 38.43
2461 41.8010 1416.00 1479.56 37.63
2462 41.8152 1494.00 1480.42 38.65
2463 41.8294 1485.00 1481.57 38.54
2464 41.8436 1431.00 1483.03 37.83
2465 41.8578 1500.00 1484.78 38.73
2466 41.8720 1472.00 1486.70 38.37
2467 41.8861 1538.00 1488.61 39.22
2468 41.9003 1483.00 1490.30 38.51
2469 41.9145 1478.00 1491.56 38.44
2470 41.9287 1513.00 1492.34 38.90
2471 41.9429 1543.00 1492.79 39.28
2472 41.9571 1556.00 1493.12 39.45
2473 41.9712 1506.00 1493.55 38.81
2474 41.9854 1459.00 1494.24 38.20
2475 41.9996 1548.00 1495.24 39.34
2476 42.0138 1511.00 1496.58 38.87
2477 42.0280 1473.00 1498.30 38.38
2478 42.0422 1444.00 1500.51 38.00
2479 42.0564 1526.00 1503.44 39.06
2480 42.0705 1513.00 1507.27 38.90
2481 42.0847 1510.00 1512.20 38.86
2482 42.0989 1494.00 1518.18 38.65
2483 42.1131 1496.00 1524.80 38.68
2484 42.1273 1574.00 1531.28 39.67
2485 42.1415 1501.00 1536.53 38.74
2486 42.1556 1487.00 1539.70 38.56
2487 42.1698 1517.00 1540.22 38.95
2488 42.1840 1621.00 1538.58 40.26
2489 42.1982 1575.00 1535.34 39.69
2490 42.2124 1544.00 1531.95 39.29
2491 42.2266 1597.00 1528.58 39.96
2492 42.2407 1499.00 1525.18 38.72
2493 42.2549 1535.00 1521.54 39.18
2494 42.2691 1488.00 1517.24 38.57
2495 42.2833 1521.00 1512.25 39.00
2496 42.2975 1561.00 1506.51 39.51
2497 42.3117 1541.00 1500.77 39.26
2498 42.3258 1492.00 1495.37 38.63
2499 42.3400 1479.00 1490.28 38.46
2500 42.3542 1566.00 1485.83 39.57
2501 42.3684 1476.00 1482.02 38.42
2502 42.3826 1422.00 1478.82 37.71
2503 42.3968 1514.00 1476.22 38.91
2504 42.4110 1534.00 1474.15 39.17
2505 42.4251 1503.00 1472.50 38.77
2506 42.4393 1362.00 1471.23 36.91
2507 42.4535 1458.00 1470.29 38.18
2508 42.4677 1502.00 1469.65 38.76
2509 42.4819 1506.00 1469.27 38.81
2510 42.4961 1446.00 1469.15 38.03
2511 42.5102 1527.00 1469.24 39.08
2512 42.5244 1481.00 1469.56 38.48
2513 42.5386 1470.00 1470.11 38.34
2514 42.5528 1444.00 1470.88 38.00
2515 42.5670 1503.00 1471.86 38.77
2516 42.5812 1388.00 1473.01 37.26
2517 42.5953 1462.00 1474.27 38.24
2518 42.6095 1519.00 1475.62 38.97
2519 42.6237 1429.00 1477.05 37.80
2520 42.6379 1531.00 1478.60 39.13
2521 42.6521 1441.00 1480.35 37.96
2522 42.6663 1554.00 1482.40 39.42
2523 42.6804 1485.00 1484.79 38.54
2524 42.6946 1528.00 1487.57 39.09
2525 42.7088 1431.00 1490.71 37.83
2526 42.7230 1491.00 1494.22 38.61
2527 42.7372 1453.00 1498.16 38.12
2528 42.7514 1521.00 1502.72 39.00
2529 42.7656 1501.00 1507.85 38.74
2530 42.7797 1477.00 1514.57 38.43
2531 42.7939 1483.00 1523.21 38.51
2532 42.8081 1553.00 1533.98 39.41
2533 42.8223 1550.00 1547.05 39.37
2534 42.8365 1607.00 1562.13 40.09
2535 42.8507 1606.00 1578.19 40.07
2536 42.8648 1717.00 1593.25 41.44
2537 42.8790 1666.00 1604.96 40.82
2538 42.8932 1655.00 1611.47 40.68
2539 42.9074 1715.00 1612.33 41.41
2540 42.9216 1813.00 1608.79 42.58
2541 42.9358 1693.00 1603.01 41.15
2542 42.9499 1589.00 1596.93 39.86
2543 42.9641 1644.00 1591.39 40.55
2544 42.9783 1727.00 1586.28 41.56
2545 42.9925 1734.00 1580.59 41.64
2546 43.0067 1731.00 1573.31 41.61
2547 43.0209 1765.00 1563.97 42.01
2548 43.0350 1614.00 1553.05 40.17
2549 43.0492 1649.00 1541.23 40.61
2550 43.0634 1684.00 1529.54 41.04
2551 43.0776 1582.00 1518.66 39.77
2552 43.0918 1650.00 1508.98 40.62
2553 43.1060 1575.00 1500.86 39.69
2554 43.1202 1622.00 1493.73 40.27
2555 43.1343 1501.00 1487.68 38.74
2556 43.1485 1483.00 1482.42 38.51
2557 43.1627 1405.00 1477.84 37.48
2558 43.1769 1488.00 1473.85 38.57
2559 43.1911 1473.00 1470.51 38.38
2560 43.2053 1516.00 1467.56 38.94
2561 43.2194 1509.00 1465.08 38.85
2562 43.2336 1467.00 1462.99 38.30
2563 43.2478 1570.00 1461.24 39.62
2564 43.2620 1482.00 1459.79 38.50
2565 43.2762 1408.00 1458.61 37.52
2566 43.2904 1417.00 1457.66 37.64
2567 43.3045 1464.00 1456.91 38.26
2568 43.3187 1395.00 1456.33 37.35
2569 43.3329 1490.00 1456.15 38.60
2570 43.3471 1446.00 1455.89 38.03
2571 43.3613 1397.00 1455.79 37.38
2572 43.3755 1397.00 1455.79 37.38
2573 43.3896 1467.00 1456.01 38.30
2574 43.4038 1420.00 1456.42 37.68
2575 43.4180 1593.00 1457.06 39.91
2576 43.4322 1441.00 1458.26 37.96
2577 43.4464 1494.00 1459.53 38.65
2578 43.4606 1473.00 1461.23 38.38
2579 43.4748 1510.00 1463.43 38.86
2580 43.4889 1512.00 1466.26 38.88
2581 43.5031 1538.00 1469.74 39.22
2582 43.5173 1586.00 1473.74 39.82
2583 43.5315 1515.00 1478.02 38.92
2584 43.5457 1496.00 1481.82 38.68
2585 43.5599 1523.00 1484.57 39.03
2586 43.5740 1514.00 1485.91 38.91
2587 43.5882 1555.00 1485.96 39.43
2588 43.6024 1575.00 1485.03 39.69
2589 43.6166 1523.00 1484.20 39.03
2590 43.6308 1542.00 1483.74 39.27
2591 43.6450 1516.00 1483.84 38.94
2592 43.6591 1501.00 1484.39 38.74
2593 43.6733 1523.00 1485.08 39.03
2594 43.6875 1477.00 1485.53 38.43
2595 43.7017 1533.00 1485.44 39.15
2596 43.7159 1484.00 1484.48 38.52
2597 43.7301 1535.00 1482.77 39.18
2598 43.7442 1584.00 1480.43 39.80
2599 43.7584 1450.00 1477.54 38.08
2600 43.7726 1479.00 1474.63 38.46
2601 43.7868 1497.00 1471.98 38.69
2602 43.8010 1444.00 1469.71 38.00
2603 43.8152 1506.00 1467.70 38.81
2604 43.8294 1526.00 1465.73 39.06
2605 43.8435 1469.00 1463.66 38.33
2606 43.8577 1495.00 1461.28 38.67
2607 43.8719 1484.00 1458.73 38.52
2608 43.8861 1473.00 1456.17 38.38
2609 43.9003 1449.00 1453.73 38.07
2610 43.9145 1469.00 1451.51 38.33
2611 43.9286 1449.00 1449.52 38.07
2612 43.9428 1462.00 1447.73 38.24
2613 43.9570 1454.00 1446.12 38.13
2614 43.9712 1463.00 1444.68 38.25
2615 43.9854 1501.00 1443.41 38.74
2616 43.9996 1388.00 1442.31 37.26
2617 44.0137 1496.00 1441.36 38.68
2618 44.0279 1409.00 1440.56 37.54
2619 44.0421 1470.00 1439.89 38.34
2620 44.0563 1399.00 1439.33 37.40
2621 44.0705 1391.00 1438.89 37.30
2622 44.0847 1463.00 1438.55 38.25
2623 44.0988 1459.00 1438.30 38.20
2624 44.1130 1421.00 1438.14 37.70
2625 44.1272 1410.00 1438.05 37.55
2626 44.1414 1441.00 1438.05 37.96
2627 44.1556 1521.00 1438.13 39.00
2628 44.1698 1380.00 1438.29 37.15
2629 44.1840 1448.00 1438.56 38.05
2630 44.1981 1396.00 1438.93 37.36
2631 44.2123 1420.00 1439.42 37.68
2632 44.2265 1389.00 1440.01 37.27
2633 44.2407 1421.00 1440.70 37.70
2634 44.2549 1381.00 1441.49 37.16
2635 44.2691 1450.00 1442.38 38.08
2636 44.2832 1456.00 1443.40 38.16
2637 44.2974 1449.00 1444.61 38.07
2638 44.3116 1476.00 1446.08 38.42
2639 44.3258 1522.00 1447.40 39.01
2640 44.3400 1445.00 1449.57 38.01
2641 44.3542 1398.00 1452.07 37.39
2642 44.3683 1378.00 1454.76 37.12
2643 44.3825 1403.00 1457.45 37.46
2644 44.3967 1401.00 1459.83 37.43
2645 44.4109 1394.00 1461.63 37.34
2646 44.4251 1415.00 1462.64 37.62
2647 44.4393 1458.00 1463.19 38.18
2648 44.4534 1401.00 1463.42 37.43
2649 44.4676 1436.00 1463.66 37.89
2650 44.4818 1466.00 1464.11 38.29
2651 44.4960 1469.00 1464.85 38.33
2652 44.5102 1503.00 1465.90 38.77
2653 44.5244 1474.00 1467.29 38.39
2654 44.5386 1453.00 1468.92 38.12
2655 44.5527 1484.00 1470.97 38.52
2656 44.5669 1475.00 1473.64 38.41
2657 44.5811 1564.00 1477.21 39.55
2658 44.5953 1490.00 1481.83 38.60
2659 44.6095 1562.00 1487.54 39.52
2660 44.6237 1551.00 1494.14 39.38
2661 44.6378 1659.00 1501.03 40.73
2662 44.6520 1474.00 1507.49 38.39
2663 44.6662 1524.00 1512.54 39.04
2664 44.6804 1544.00 1515.54 39.29
2665 44.6946 1600.00 1516.39 40.00
2666 44.7088 1651.00 1515.59 40.63
2667 44.7229 1601.00 1513.91 40.01
2668 44.7371 1531.00 1512.03 39.13
2669 44.7513 1561.00 1510.35 39.51
2670 44.7655 1538.00 1508.94 39.22
2671 44.7797 1572.00 1507.59 39.65
2672 44.7939 1560.00 1506.09 39.50
2673 44.8080 1534.00 1504.42 39.17
2674 44.8222 1576.00 1502.77 39.70
2675 44.8364 1535.00 1501.56 39.18
2676 44.8506 1616.00 1501.24 40.20
2677 44.8648 1534.00 1502.18 39.17
2678 44.8790 1469.00 1504.56 38.33
2679 44.8932 1469.00 1508.34 38.33
2680 44.9073 1515.00 1513.19 38.92
2681 44.9215 1491.00 1518.55 38.61
2682 44.9357 1431.00 1523.58 37.83
2683 44.9499 1385.00 1527.56 37.22
2684 44.9641 1421.00 1530.04 37.70
2685 44.9783 1455.00 1531.50 38.14
2686 44.9924 1542.00 1532.37 39.27
2687 45.0066 1440.00 1533.37 37.95
2688 45.0208 1437.00 1534.74 37.91
2689 45.0350 1475.00 1536.45 38.41
2690 45.0492 1557.00 1537.91 39.46
2691 45.0634 1553.00 1538.27 39.41
2692 45.0775 1567.00 1536.72 39.59
2693 45.0917 1571.00 1533.05 39.64
2694 45.1059 1484.00 1527.51 38.52
2695 45.1201 1482.00 1520.71 38.50
2696 45.1343 1489.00 1513.35 38.59
2697 45.1485 1573.00 1506.18 39.66
2698 45.1626 1490.00 1499.45 38.60
2699 45.1768 1489.00 1493.07 38.59
2700 45.1910 1399.00 1486.94 37.40
2701 45.2052 1447.00 1480.91 38.04
2702 45.2194 1495.00 1474.91 38.67
2703 45.2336 1393.00 1469.03 37.32
2704 45.2478 1457.00 1463.43 38.17
2705 45.2619 1425.00 1458.35 37.75
2706 45.2761 1426.00 1453.78 37.76
2707 45.2903 1388.00 1449.93 37.26
2708 45.3045 1447.00 1446.79 38.04
2709 45.3187 1426.00 1444.38 37.76
2710 45.3329 1402.00 1442.69 37.44
2711 45.3470 1418.00 1441.69 37.66
2712 45.3612 1465.00 1441.34 38.28
2713 45.3754 1442.00 1441.60 37.97
2714 45.3896 1424.00 1442.34 37.74
2715 45.4038 1430.00 1443.41 37.82
2716 45.4180 1401.00 1444.53 37.43
2717 45.4321 1415.00 1445.38 37.62
2718 45.4463 1445.00 1445.71 38.01
2719 45.4605 1432.00 1445.35 37.84
2720 45.4747 1441.00 1444.33 37.96
2721 45.4889 1463.00 1442.83 38.25
2722 45.5031 1471.00 1441.04 38.35
2723 45.5172 1505.00 1439.15 38.79
2724 45.5314 1402.00 1437.39 37.44
2725 45.5456 1405.00 1435.40 37.48
2726 45.5598 1386.00 1433.30 37.23
2727 45.5740 1427.00 1431.01 37.78
2728 45.5882 1369.00 1428.54 37.00
2729 45.6024 1447.00 1425.94 38.04
2730 45.6165 1467.00 1423.30 38.30
2731 45.6307 1367.00 1420.71 36.97
2732 45.6449 1399.00 1418.32 37.40
2733 45.6591 1402.00 1416.03 37.44
2734 45.6733 1361.00 1413.93 36.89
2735 45.6875 1421.00 1412.05 37.70
2736 45.7016 1349.00 1410.38 36.73
2737 45.7158 1389.00 1408.88 37.27
2738 45.7300 1348.00 1407.56 36.72
2739 45.7442 1363.00 1406.40 36.92
2740 45.7584 1348.00 1405.37 36.72
2741 45.7726 1332.00 1404.46 36.50
2742 45.7867 1344.00 1403.66 36.66
2743 45.8009 1392.00 1402.95 37.31
2744 45.8151 1383.00 1402.33 37.19
2745 45.8293 1407.00 1401.77 37.51
2746 45.8435 1322.00 1401.28 36.36
2747 45.8577 1331.00 1400.85 36.48
2748 45.8718 1365.00 1400.47 36.95
2749 45.8860 1362.00 1400.14 36.91
2750 45.9002 1341.00 1399.85 36.62
2751 45.9144 1310.00 1399.61 36.19
2752 45.9286 1315.00 1399.41 36.26
2753 45.9428 1378.00 1399.19 37.12
2754 45.9570 1368.00 1399.14 36.99
2755 45.9711 1345.00 1399.10 36.67
2756 45.9853 1357.00 1399.12 36.84
2757 45.9995 1387.00 1399.21 37.24
2758 46.0137 1387.00 1399.39 37.24
2759 46.0279 1345.00 1399.65 36.67
2760 46.0421 1426.00 1400.03 37.76
2761 46.0562 1407.00 1400.54 37.51
2762 46.0704 1340.00 1401.24 36.61
2763 46.0846 1369.00 1402.07 37.00
2764 46.0988 1354.00 1403.19 36.80
2765 46.1130 1374.00 1404.56 37.07
2766 46.1272 1368.00 1406.26 36.99
2767 46.1413 1388.00 1408.31 37.26
2768 46.1555 1369.00 1410.78 37.00
2769 46.1697 1366.00 1413.68 36.96
2770 46.1839 1406.00 1416.97 37.50
2771 46.1981 1419.00 1420.56 37.67
2772 46.2123 1466.00 1424.22 38.29
2773 46.2264 1380.00 1427.64 37.15
2774 46.2406 1440.00 1430.52 37.95
2775 46.2548 1386.00 1432.31 37.23
2776 46.2690 1339.00 1433.31 36.59
2777 46.2832 1475.00 1433.33 38.41
2778 46.2974 1476.00 1432.54 38.42
2779 46.3116 1446.00 1431.20 38.03
2780 46.3257 1422.00 1429.52 37.71
2781 46.3399 1418.00 1427.62 37.66
2782 46.3541 1415.00 1425.52 37.62
2783 46.3683 1495.00 1423.18 38.67
2784 46.3825 1447.00 1420.43 38.04
2785 46.3967 1437.00 1417.50 37.91
2786 46.4108 1367.00 1414.35 36.97
2787 46.4250 1393.00 1411.04 37.32
2788 46.4392 1378.00 1407.73 37.12
2789 46.4534 1443.00 1404.52 37.99
2790 46.4676 1455.00 1401.49 38.14
2791 46.4818 1407.00 1398.70 37.51
2792 46.4959 1406.00 1396.19 37.50
2793 46.5101 1479.00 1393.94 38.46
2794 46.5243 1378.00 1391.95 37.12
2795 46.5385 1353.00 1390.22 36.78
2796 46.5527 1365.00 1388.72 36.95
2797 46.5669 1323.00 1387.21 36.37
2798 46.5810 1414.00 1386.13 37.60
2799 46.5952 1362.00 1385.24 36.91
2800 46.6094 1359.00 1384.50 36.86
2801 46.6236 1380.00 1383.93 37.15
2802 46.6378 1352.00 1383.53 36.77
2803 46.6520 1385.00 1383.25 37.22
2804 46.6662 1341.00 1383.10 36.62
2805 46.6803 1363.00 1383.09 36.92
2806 46.6945 1365.00 1383.22 36.95
2807 46.7087 1303.00 1383.37 36.10
2808 46.7229 1397.00 1383.56 37.38
2809 46.7371 1411.00 1384.03 37.56
2810 46.7513 1393.00 1384.57 37.32
2811 46.7654 1387.00 1385.11 37.24
2812 46.7796 1423.00 1385.66 37.72
2813 46.7938 1295.00 1386.21 35.99
2814 46.8080 1387.00 1386.77 37.24
2815 46.8222 1391.00 1387.38 37.30
2816 46.8364 1377.00 1388.09 37.11
2817 46.8505 1375.00 1388.90 37.08
2818 46.8647 1385.00 1389.74 37.22
2819 46.8789 1387.00 1390.73 37.24
2820 46.8931 1352.00 1391.70 36.77
2821 46.9073 1359.00 1392.51 36.86
2822 46.9215 1350.00 1393.06 36.74
2823 46.9356 1319.00 1393.24 36.32
2824 46.9498 1393.00 1393.02 37.32
2825 46.9640 1318.00 1392.43 36.30
2826 46.9782 1324.00 1391.55 36.39
2827 46.9924 1366.00 1390.47 36.96
2828 47.0066 1321.00 1389.27 36.35
2829 47.0208 1305.00 1388.01 36.12
2830 47.0349 1339.00 1386.74 36.59
2831 47.0491 1362.00 1385.37 36.91
2832 47.0633 1396.00 1383.93 37.36
2833 47.0775 1339.00 1382.41 36.59
2834 47.0917 1381.00 1380.84 37.16
2835 47.1059 1384.00 1379.26 37.20
2836 47.1200 1397.00 1377.71 37.38
2837 47.1342 1378.00 1376.23 37.12
2838 47.1484 1316.00 1374.77 36.28
2839 47.1626 1336.00 1373.51 36.55
2840 47.1768 1351.00 1372.39 36.76
2841 47.1910 1354.00 1371.42 36.80
2842 47.2051 1377.00 1370.59 37.11
2843 47.2193 1306.00 1369.91 36.14
2844 47.2335 1386.00 1369.36 37.23
2845 47.2477 1377.00 1368.96 37.11
2846 47.2619 1401.00 1368.70 37.43
2847 47.2761 1318.00 1368.58 36.30
2848 47.2902 1397.00 1368.57 37.38
2849 47.3044 1298.00 1368.76 36.03
2850 47.3186 1364.00 1369.11 36.93
2851 47.3328 1392.00 1369.65 37.31
2852 47.3470 1320.00 1370.39 36.33
2853 47.3612 1357.00 1371.37 36.84
2854 47.3754 1384.00 1372.61 37.20
2855 47.3895 1340.00 1374.14 36.61
2856 47.4037 1310.00 1376.04 36.19
2857 47.4179 1337.00 1378.32 36.56
2858 47.4321 1326.00 1381.05 36.41
2859 47.4463 1345.00 1384.25 36.67
2860 47.4605 1411.00 1387.95 37.56
2861 47.4746 1438.00 1392.07 37.92
2862 47.4888 1393.00 1396.58 37.32
2863 47.5030 1447.00 1401.29 38.04
2864 47.5172 1401.00 1405.92 37.43
2865 47.5314 1399.00 1410.15 37.40
2866 47.5456 1420.00 1413.62 37.68
2867 47.5597 1413.00 1416.07 37.59
2868 47.5739 1455.00 1417.40 38.14
2869 47.5881 1438.00 1417.63 37.92
2870 47.6023 1507.00 1416.92 38.82
2871 47.6165 1499.00 1415.51 38.72
2872 47.6307 1421.00 1413.58 37.70
2873 47.6448 1425.00 1411.28 37.75
2874 47.6590 1465.00 1408.62 38.28
2875 47.6732 1419.00 1405.59 37.67
2876 47.6874 1499.00 1402.18 38.72
2877 47.7016 1355.00 1398.41 36.81
2878 47.7158 1399.00 1394.34 37.40
2879 47.7300 1427.00 1390.10 37.78
2880 47.7441 1381.00 1385.84 37.16
2881 47.7583 1444.00 1381.64 38.00
2882 47.7725 1422.00 1377.62 37.71
2883 47.7867 1392.00 1373.87 37.31
2884 47.8009 1347.00 1370.43 36.70
2885 47.8151 1428.00 1367.33 37.79
2886 47.8292 1381.00 1364.59 37.16
2887 47.8434 1361.00 1362.18 36.89
2888 47.8576 1362.00 1360.12 36.91
2889 47.8718 1396.00 1358.38 37.36
2890 47.8860 1406.00 1356.95 37.50
2891 47.9002 1359.00 1355.85 36.86
2892 47.9143 1389.00 1355.01 37.27
2893 47.9285 1355.00 1354.44 36.81
2894 47.9427 1433.00 1354.12 37.85
2895 47.9569 1424.00 1354.03 37.74
2896 47.9711 1355.00 1354.16 36.81
2897 47.9853 1359.00 1354.48 36.86
2898 47.9994 1434.00 1354.92 37.87
2899 48.0136 1398.00 1355.46 37.39
2900 48.0278 1409.00 1355.99 37.54
2901 48.0420 1373.00 1356.46 37.05
2902 48.0562 1436.00 1356.80 37.89
2903 48.0704 1404.00 1357.00 37.47
2904 48.0846 1371.00 1356.91 37.03
2905 48.0987 1404.00 1356.84 37.47
2906 48.1129 1415.00 1356.77 37.62
2907 48.1271 1454.00 1356.57 38.13
2908 48.1413 1340.00 1356.34 36.61
2909 48.1555 1373.00 1356.07 37.05
2910 48.1697 1360.00 1355.72 36.88
2911 48.1838 1419.00 1355.25 37.67
2912 48.1980 1409.00 1354.61 37.54
2913 48.2122 1380.00 1353.77 37.15
2914 48.2264 1364.00 1352.71 36.93
2915 48.2406 1359.00 1351.49 36.86
2916 48.2548 1394.00 1350.13 37.34
2917 48.2689 1431.00 1348.70 37.83
2918 48.2831 1312.00 1347.23 36.22
2919 48.2973 1337.00 1345.74 36.56
2920 48.3115 1301.00 1344.26 36.07
2921 48.3257 1353.00 1342.80 36.78
2922 48.3399 1397.00 1341.40 37.38
2923 48.3540 1391.00 1339.97 37.30
2924 48.3682 1364.00 1338.55 36.93
2925 48.3824 1287.00 1337.16 35.87
2926 48.3966 1354.00 1335.81 36.80
2927 48.4108 1358.00 1334.50 36.85
2928 48.4250 1314.00 1333.27 36.25
2929 48.4392 1314.00 1332.10 36.25
2930 48.4533 1325.00 1331.04 36.40
2931 48.4675 1351.00 1330.03 36.76
2932 48.4817 1420.00 1329.09 37.68
2933 48.4959 1330.00 1328.24 36.47
2934 48.5101 1341.00 1327.45 36.62
2935 48.5243 1330.00 1326.74 36.47
2936 48.5384 1363.00 1326.09 36.92
2937 48.5526 1325.00 1325.51 36.40
2938 48.5668 1340.00 1324.99 36.61
2939 48.5810 1387.00 1324.52 37.24
2940 48.5952 1321.00 1324.12 36.35
2941 48.6094 1319.00 1323.77 36.32
2942 48.6235 1367.00 1323.48 36.97
2943 48.6377 1311.00 1323.25 36.21
2944 48.6519 1289.00 1323.08 35.90
2945 48.6661 1388.00 1322.98 37.26
2946 48.6803 1393.00 1322.96 37.32
2947 48.6945 1286.00 1322.99 35.86
2948 48.7086 1312.00 1323.13 36.22
2949 48.7228 1347.00 1323.36 36.70
2950 48.7370 1352.00 1323.68 36.77
2951 48.7512 1324.00 1324.09 36.39
2952 48.7654 1352.00 1324.68 36.77
2953 48.7796 1335.00 1325.24 36.54
2954 48.7938 1347.00 1325.83 36.70
2955 48.8079 1337.00 1326.41 36.56
2956 48.8221 1274.00 1326.93 35.69
2957 48.8363 1303.00 1327.32 36.10
2958 48.8505 1338.00 1327.56 36.58
2959 48.8647 1354.00 1327.56 36.80
2960 48.8789 1333.00 1327.47 36.51
2961 48.8930 1297.00 1327.17 36.01
2962 48.9072 1293.00 1326.74 35.96
2963 48.9214 1342.00 1326.19 36.63
2964 48.9356 1357.00 1325.55 36.84
2965 48.9498 1331.00 1324.85 36.48
2966 48.9640 1364.00 1324.07 36.93
2967 48.9781 1310.00 1323.23 36.19
2968 48.9923 1352.00 1322.33 36.77
2969 49.0065 1345.00 1321.35 36.67
2970 49.0207 1369.00 1320.37 37.00
2971 49.0349 1303.00 1319.38 36.10
2972 49.0491 1291.00 1318.41 35.93
2973 49.0632 1292.00 1317.49 35.94
2974 49.0774 1269.00 1316.61 35.62
2975 49.0916 1325.00 1315.82 36.40
2976 49.1058 1323.00 1315.11 36.37
2977 49.1200 1311.00 1314.51 36.21
2978 49.1342 1379.00 1314.01 37.13
2979 49.1484 1287.00 1313.62 35.87
2980 49.1625 1326.00 1313.35 36.41
2981 49.1767 1295.00 1313.21 35.99
2982 49.1909 1295.00 1313.18 35.99
2983 49.2051 1324.00 1313.28 36.39
2984 49.2193 1272.00 1313.50 35.67
2985 49.2335 1279.00 1313.83 35.76
2986 49.2476 1306.00 1314.24 36.14
2987 49.2618 1335.00 1314.71 36.54
2988 49.2760 1222.00 1315.20 34.96
2989 49.2902 1329.00 1315.68 36.46
2990 49.3044 1300.00 1316.05 36.06
2991 49.3186 1283.00 1316.28 35.82
2992 49.3327 1304.00 1316.35 36.11
2993 49.3469 1276.00 1316.24 35.72
2994 49.3611 1308.00 1315.97 36.17
2995 49.3753 1307.00 1315.55 36.15
2996 49.3895 1291.00 1315.01 35.93
2997 49.4037 1338.00 1314.39 36.58
2998 49.4178 1323.00 1313.68 36.37
2999 49.4320 1279.00 1312.89 35.76
3000 49.4462 1310.00 1312.02 36.19
3001 49.4604 1313.00 1311.09 36.24
3002 49.4746 1356.00 1310.09 36.82
3003 49.4888 1259.00 1309.04 35.48
3004 49.5030 1281.00 1307.96 35.79
3005 49.5171 1289.00 1306.88 35.90
3006 49.5313 1307.00 1305.79 36.15
3007 49.5455 1323.00 1304.74 36.37
3008 49.5597 1345.00 1303.72 36.67
3009 49.5739 1338.00 1302.75 36.58
3010 49.5881 1300.00 1301.67 36.06
3011 49.6022 1342.00 1300.82 36.63
3012 49.6164 1301.00 1300.02 36.07
3013 49.6306 1334.00 1299.29 36.52
3014 49.6448 1271.00 1298.61 35.65
3015 49.6590 1281.00 1297.98 35.79
3016 49.6732 1343.00 1297.40 36.65
3017 49.6873 1286.00 1296.88 35.86
3018 49.7015 1318.00 1296.39 36.30
3019 49.7157 1245.00 1295.93 35.28
3020 49.7299 1338.00 1295.43 36.58
3021 49.7441 1303.00 1295.05 36.10
3022 49.7583 1285.00 1294.69 35.85
3023 49.7724 1320.00 1294.38 36.33
3024 49.7866 1333.00 1294.07 36.51
3025 49.8008 1283.00 1293.86 35.82
3026 49.8150 1296.00 1293.60 36.00
3027 49.8292 1226.00 1293.35 35.01
3028 49.8434 1247.00 1293.12 35.31
3029 49.8576 1334.00 1292.90 36.52
3030 49.8717 1275.00 1292.71 35.71
3031 49.8859 1317.00 1292.52 36.29
3032 49.9001 1234.00 1292.37 35.13
3033 49.9143 1259.00 1292.22 35.48
3034 49.9285 1308.00 1292.12 36.17
3035 49.9427 1322.00 1292.01 36.36
3036 49.9568 1380.00 1291.91 37.15
3037 49.9710 1278.00 1291.84 35.75
3038 49.9852 1313.00 1291.78 36.24
3039 49.9994 1280.00 1291.75 35.78
3040 50.0136 1327.00 1291.74 36.43
3041 50.0278 1249.00 1291.75 35.34
3042 50.0419 1259.00 1291.79 35.48
3043 50.0561 1310.00 1291.86 36.19
3044 50.0703 1257.00 1291.96 35.45
3045 50.0845 1349.00 1292.09 36.73
3046 50.0987 1305.00 1292.26 36.12
3047 50.1129 1343.00 1292.47 36.65
3048 50.1270 1292.00 1292.73 35.94
3049 50.1412 1272.00 1293.05 35.67
3050 50.1554 1278.00 1293.39 35.75
3051 50.1696 1272.00 1293.84 35.67
3052 50.1838 1338.00 1294.37 36.58
3053 50.1980 1361.00 1295.00 36.89
3054 50.2122 1306.00 1295.68 36.14
3055 50.2263 1255.00 1296.43 35.43
3056 50.2405 1216.00 1297.26 34.87
3057 50.2547 1312.00 1298.14 36.22
3058 50.2689 1292.00 1299.06 35.94
3059 50.2831 1324.00 1299.99 36.39
3060 50.2973 1282.00 1300.89 35.81
3061 50.3114 1302.00 1301.77 36.08
3062 50.3256 1259.00 1302.63 35.48
3063 50.3398 1270.00 1303.40 35.64
3064 50.3540 1289.00 1304.17 35.90
3065 50.3682 1373.00 1304.94 37.05
3066 50.3824 1270.00 1305.73 35.64
3067 50.3965 1309.00 1306.57 36.18
3068 50.4107 1258.00 1307.49 35.47
3069 50.4249 1305.00 1308.53 36.12
3070 50.4391 1292.00 1309.68 35.94
3071 50.4533 1329.00 1310.95 36.46
3072 50.4675 1301.00 1312.36 36.07
3073 50.4816 1306.00 1313.87 36.14
3074 50.4958 1340.00 1315.51 36.61
3075 50.5100 1356.00 1317.22 36.82
3076 50.5242 1342.00 1318.94 36.63
3077 50.5384 1306.00 1320.60 36.14
3078 50.5526 1273.00 1322.12 35.68
3079 50.5668 1326.00 1323.41 36.41
3080 50.5809 1251.00 1324.40 35.37
3081 50.5951 1409.00 1325.09 37.54
3082 50.6093 1355.00 1325.46 36.81
3083 50.6235 1310.00 1325.55 36.19
3084 50.6377 1343.00 1325.42 36.65
3085 50.6519 1321.00 1325.12 36.35
3086 50.6660 1284.00 1324.68 35.83
3087 50.6802 1291.00 1324.15 35.93
3088 50.6944 1342.00 1323.54 36.63
3089 50.7086 1349.00 1322.86 36.73
3090 50.7228 1293.00 1322.12 35.96
3091 50.7370 1316.00 1321.34 36.28
3092 50.7511 1355.00 1320.54 36.81
3093 50.7653 1274.00 1319.72 35.69
3094 50.7795 1311.00 1318.90 36.21
3095 50.7937 1366.00 1318.08 36.96
3096 50.8079 1308.00 1317.23 36.17
3097 50.8221 1292.00 1316.34 35.94
3098 50.8362 1273.00 1315.40 35.68
3099 50.8504 1281.00 1314.38 35.79
3100 50.8646 1344.00 1313.28 36.66
3101 50.8788 1266.00 1312.13 35.58
3102 50.8930 1308.00 1310.93 36.17
3103 50.9072 1310.00 1309.71 36.19
3104 50.9214 1360.00 1308.50 36.88
3105 50.9355 1291.00 1307.30 35.93
3106 50.9497 1307.00 1306.11 36.15
3107 50.9639 1300.00 1304.94 36.06
3108 50.9781 1310.00 1303.78 36.19
3109 50.9923 1279.00 1302.65 35.76
3110 51.0065 1269.00 1301.55 35.62
3111 51.0206 1246.00 1300.52 35.30
3112 51.0348 1275.00 1299.54 35.71
3113 51.0490 1277.00 1298.67 35.74
3114 51.0632 1247.00 1297.88 35.31
3115 51.0774 1270.00 1297.27 35.64
3116 51.0916 1350.00 1296.81 36.74
3117 51.1057 1219.00 1296.54 34.91
3118 51.1199 1259.00 1296.45 35.48
3119 51.1341 1232.00 1296.62 35.10
3120 51.1483 1267.00 1296.96 35.59
3121 51.1625 1296.00 1297.53 36.00
3122 51.1767 1343.00 1298.34 36.65
3123 51.1908 1353.00 1299.39 36.78
3124 51.2050 1311.00 1300.69 36.21
3125 51.2192 1324.00 1302.22 36.39
3126 51.2334 1334.00 1303.98 36.52
3127 51.2476 1275.00 1305.92 35.71
3128 51.2618 1256.00 1308.02 35.44
3129 51.2760 1294.00 1310.14 35.97
3130 51.2901 1286.00 1312.21 35.86
3131 51.3043 1282.00 1314.16 35.81
3132 51.3185 1304.00 1315.87 36.11
3133 51.3327 1335.00 1317.32 36.54
3134 51.3469 1342.00 1318.33 36.63
3135 51.3611 1340.00 1318.95 36.61
3136 51.3752 1353.00 1319.19 36.78
3137 51.3894 1317.00 1319.07 36.29
3138 51.4036 1312.00 1318.63 36.22
3139 51.4178 1345.00 1317.93 36.67
3140 51.4320 1359.00 1316.98 36.86
3141 51.4462 1381.00 1315.81 37.16
3142 51.4603 1378.00 1314.46 37.12
3143 51.4745 1337.00 1312.89 36.56
3144 51.4887 1328.00 1311.14 36.44
3145 51.5029 1340.00 1309.24 36.61
3146 51.5171 1421.00 1307.23 37.70
3147 51.5313 1352.00 1305.16 36.77
3148 51.5454 1330.00 1303.09 36.47
3149 51.5596 1250.00 1301.03 35.36
3150 51.5738 1376.00 1299.03 37.09
3151 51.5880 1359.00 1297.13 36.86
3152 51.6022 1354.00 1295.31 36.80
3153 51.6164 1281.00 1293.66 35.79
3154 51.6306 1264.00 1292.15 35.55
3155 51.6447 1324.00 1290.80 36.39
3156 51.6589 1276.00 1289.60 35.72
3157 51.6731 1263.00 1288.56 35.54
3158 51.6873 1302.00 1287.66 36.08
3159 51.7015 1244.00 1286.92 35.27
3160 51.7157 1277.00 1286.32 35.74
3161 51.7298 1300.00 1285.87 36.06
3162 51.7440 1263.00 1285.55 35.54
3163 51.7582 1324.00 1285.35 36.39
3164 51.7724 1215.00 1285.29 34.86
3165 51.7866 1295.00 1285.36 35.99
3166 51.8008 1315.00 1285.55 36.26
3167 51.8149 1318.00 1285.85 36.30
3168 51.8291 1261.00 1286.24 35.51
3169 51.8433 1279.00 1286.73 35.76
3170 51.8575 1316.00 1287.28 36.28
3171 51.8717 1340.00 1287.88 36.61
3172 51.8859 1303.00 1288.50 36.10
3173 51.9000 1392.00 1289.10 37.31
3174 51.9142 1338.00 1289.66 36.58
3175 51.9284 1251.00 1290.15 35.37
3176 51.9426 1331.00 1290.55 36.48
3177 51.9568 1288.00 1290.84 35.89
3178 51.9710 1261.00 1291.04 35.51
3179 51.9852 1334.00 1291.13 36.52
3180 51.9993 1254.00 1291.14 35.41
3181 52.0135 1318.00 1291.10 36.30
3182 52.0277 1272.00 1290.97 35.67
3183 52.0419 1279.00 1290.78 35.76
3184 52.0561 1337.00 1290.54 36.56
3185 52.0703 1230.00 1290.26 35.07
3186 52.0844 1299.00 1289.94 36.04
3187 52.0986 1225.00 1289.59 35.00
3188 52.1128 1260.00 1289.23 35.50
3189 52.1270 1261.00 1288.86 35.51
3190 52.1412 1256.00 1288.52 35.44
3191 52.1554 1361.00 1288.21 36.89
3192 52.1695 1286.00 1287.93 35.86
3193 52.1837 1243.00 1287.72 35.26
3194 52.1979 1297.00 1287.58 36.01
3195 52.2121 1285.00 1287.52 35.85
3196 52.2263 1299.00 1287.56 36.04
3197 52.2405 1325.00 1287.70 36.40
3198 52.2546 1299.00 1287.95 36.04
3199 52.2688 1229.00 1288.32 35.06
3200 52.2830 1294.00 1288.83 35.97
3201 52.2972 1226.00 1289.47 35.01
3202 52.3114 1292.00 1290.26 35.94
3203 52.3256 1314.00 1291.20 36.25
3204 52.3398 1257.00 1292.31 35.45
3205 52.3539 1278.00 1293.58 35.75
3206 52.3681 1317.00 1295.05 36.29
3207 52.3823 1212.00 1296.71 34.81
3208 52.3965 1292.00 1298.56 35.94
3209 52.4107 1316.00 1300.60 36.28
3210 52.4249 1320.00 1302.81 36.33
3211 52.4390 1271.00 1305.14 35.65
3212 52.4532 1274.00 1307.59 35.69
3213 52.4674 1309.00 1310.08 36.18
3214 52.4816 1311.00 1312.55 36.21
3215 52.4958 1299.00 1314.91 36.04
3216 52.5100 1265.00 1317.07 35.57
3217 52.5241 1327.00 1318.96 36.43
3218 52.5383 1281.00 1320.54 35.79
3219 52.5525 1308.00 1321.75 36.17
3220 52.5667 1348.00 1322.59 36.72
3221 52.5809 1313.00 1323.06 36.24
3222 52.5951 1339.00 1323.19 36.59
3223 52.6092 1301.00 1323.02 36.07
3224 52.6234 1308.00 1322.57 36.17
3225 52.6376 1347.00 1321.87 36.70
3226 52.6518 1273.00 1320.96 35.68
3227 52.6660 1301.00 1319.84 36.07
3228 52.6802 1346.00 1318.54 36.69
3229 52.6944 1293.00 1317.09 35.96
3230 52.7085 1337.00 1315.53 36.56
3231 52.7227 1321.00 1313.87 36.35
3232 52.7369 1353.00 1312.14 36.78
3233 52.7511 1320.00 1310.44 36.33
3234 52.7653 1316.00 1308.79 36.28
3235 52.7795 1277.00 1307.23 35.74
3236 52.7936 1253.00 1305.79 35.40
3237 52.8078 1289.00 1304.49 35.90
3238 52.8220 1314.00 1303.36 36.25
3239 52.8362 1343.00 1302.47 36.65
3240 52.8504 1353.00 1301.72 36.78
3241 52.8646 1358.00 1301.16 36.85
3242 52.8787 1322.00 1300.80 36.36
3243 52.8929 1338.00 1300.59 36.58
3244 52.9071 1355.00 1300.57 36.81
3245 52.9213 1366.00 1300.69 36.96
3246 52.9355 1360.00 1300.90 36.88
3247 52.9497 1293.00 1301.18 35.96
3248 52.9638 1347.00 1301.51 36.70
3249 52.9780 1381.00 1301.80 37.16
3250 52.9922 1427.00 1302.05 37.78
3251 53.0064 1344.00 1302.23 36.66
3252 53.0206 1397.00 1302.31 37.38
3253 53.0348 1368.00 1302.22 36.99
3254 53.0490 1402.00 1302.12 37.44
3255 53.0631 1404.00 1301.94 37.47
3256 53.0773 1355.00 1301.68 36.81
3257 53.0915 1369.00 1301.35 37.00
3258 53.1057 1341.00 1300.96 36.62
3259 53.1199 1266.00 1300.51 35.58
3260 53.1341 1380.00 1300.01 37.15
3261 53.1482 1276.00 1299.47 35.72
3262 53.1624 1244.00 1298.88 35.27
3263 53.1766 1388.00 1298.25 37.26
3264 53.1908 1316.00 1297.55 36.28
3265 53.2050 1240.00 1296.88 35.21
3266 53.2192 1340.00 1296.20 36.61
3267 53.2333 1329.00 1295.52 36.46
3268 53.2475 1235.00 1294.85 35.14
3269 53.2617 1268.00 1294.18 35.61
3270 53.2759 1261.00 1293.54 35.51
3271 53.2901 1317.00 1292.92 36.29
3272 53.3043 1270.00 1292.32 35.64
3273 53.3184 1314.00 1291.76 36.25
3274 53.3326 1270.00 1291.20 35.64
3275 53.3468 1203.00 1290.71 34.68
3276 53.3610 1140.00 1290.25 33.76
3277 53.3752 1299.00 1289.83 36.04
3278 53.3894 1232.00 1289.45 35.10
3279 53.4036 1173.00 1289.11 34.25
3280 53.4177 1349.00 1288.80 36.73
3281 53.4319 1316.00 1288.53 36.28
3282 53.4461 1372.00 1288.29 37.04
3283 53.4603 1321.00 1288.09 36.35
3284 53.4745 1314.00 1287.92 36.25
3285 53.4887 1297.00 1287.77 36.01
3286 53.5028 1214.00 1287.69 34.84
3287 53.5170 1341.00 1287.64 36.62
3288 53.5312 1254.00 1287.64 35.41
3289 53.5454 1267.00 1287.68 35.59
3290 53.5596 1285.00 1287.76 35.85
3291 53.5738 1267.00 1287.88 35.59
3292 53.5879 1242.00 1288.03 35.24
3293 53.6021 1285.00 1288.23 35.85
3294 53.6163 1263.00 1288.46 35.54
3295 53.6305 1317.00 1288.72 36.29
3296 53.6447 1240.00 1289.00 35.21
3297 53.6589 1245.00 1289.30 35.28
3298 53.6730 1290.00 1289.61 35.92
3299 53.6872 1310.00 1289.94 36.19
3300 53.7014 1364.00 1290.27 36.93
3301 53.7156 1271.00 1290.60 35.65
3302 53.7298 1298.00 1290.95 36.03
3303 53.7440 1262.00 1291.30 35.52
3304 53.7582 1252.00 1291.67 35.38
3305 53.7723 1265.00 1292.06 35.57
3306 53.7865 1344.00 1292.47 36.66
3307 53.8007 1334.00 1292.93 36.52
3308 53.8149 1264.00 1293.42 35.55
3309 53.8291 1281.00 1293.96 35.79
3310 53.8433 1299.00 1294.55 36.04
3311 53.8574 1264.00 1295.20 35.55
3312 53.8716 1298.00 1295.93 36.03
3313 53.8858 1221.00 1296.74 34.94
3314 53.9000 1283.00 1297.55 35.82
3315 53.9142 1333.00 1298.55 36.51
3316 53.9284 1273.00 1299.67 35.68
3317 53.9425 1307.00 1300.88 36.15
3318 53.9567 1261.00 1302.22 35.51
3319 53.9709 1306.00 1303.66 36.14
3320 53.9851 1290.00 1305.20 35.92
3321 53.9993 1310.00 1306.81 36.19
3322 54.0135 1259.00 1308.47 35.48
3323 54.0276 1280.00 1310.14 35.78
3324 54.0418 1210.00 1311.80 34.79
3325 54.0560 1309.00 1313.36 36.18
3326 54.0702 1312.00 1314.87 36.22
3327 54.0844 1318.00 1316.28 36.30
3328 54.0986 1301.00 1317.55 36.07
3329 54.1128 1337.00 1318.71 36.56
3330 54.1269 1326.00 1319.73 36.41
3331 54.1411 1214.00 1320.66 34.84
3332 54.1553 1324.00 1321.51 36.39
3333 54.1695 1358.00 1322.28 36.85
3334 54.1837 1331.00 1322.99 36.48
3335 54.1979 1352.00 1323.65 36.77
3336 54.2120 1384.00 1324.23 37.20
3337 54.2262 1353.00 1324.74 36.78
3338 54.2404 1380.00 1325.16 37.15
3339 54.2546 1317.00 1325.47 36.29
3340 54.2688 1403.00 1325.65 37.46
3341 54.2830 1328.00 1325.67 36.44
3342 54.2971 1333.00 1325.53 36.51
3343 54.3113 1299.00 1325.21 36.04
3344 54.3255 1332.00 1324.70 36.50
3345 54.3397 1367.00 1324.02 36.97
3346 54.3539 1326.00 1323.17 36.41
3347 54.3681 1362.00 1322.19 36.91
3348 54.3822 1316.00 1321.08 36.28
3349 54.3964 1322.00 1319.88 36.36
3350 54.4106 1272.00 1318.57 35.67
3351 54.4248 1394.00 1317.20 37.34
3352 54.4390 1371.00 1315.76 37.03
3353 54.4532 1406.00 1314.26 37.50
3354 54.4674 1309.00 1312.72 36.18
3355 54.4815 1347.00 1311.15 36.70
3356 54.4957 1335.00 1309.54 36.54
3357 54.5099 1370.00 1307.92 37.01
3358 54.5241 1334.00 1306.31 36.52
3359 54.5383 1255.00 1304.72 35.43
3360 54.5525 1252.00 1303.17 35.38
3361 54.5666 1363.00 1301.68 36.92
3362 54.5808 1248.00 1300.21 35.33
3363 54.5950 1314.00 1298.85 36.25
3364 54.6092 1260.00 1297.56 35.50
3365 54.6234 1312.00 1296.36 36.22
3366 54.6376 1234.00 1295.24 35.13
3367 54.6517 1317.00 1294.21 36.29
3368 54.6659 1338.00 1293.27 36.58
3369 54.6801 1263.00 1292.40 35.54
3370 54.6943 1274.00 1291.62 35.69
3371 54.7085 1315.00 1290.92 36.26
3372 54.7227 1331.00 1290.29 36.48
3373 54.7368 1251.00 1289.74 35.37
3374 54.7510 1287.00 1289.24 35.87
3375 54.7652 1273.00 1288.82 35.68
3376 54.7794 1225.00 1288.46 35.00
3377 54.7936 1307.00 1288.16 36.15
3378 54.8078 1295.00 1287.92 35.99
3379 54.8220 1312.00 1287.73 36.22
3380 54.8361 1262.00 1287.59 35.52
3381 54.8503 1271.00 1287.51 35.65
3382 54.8645 1310.00 1287.48 36.19
3383 54.8787 1240.00 1287.51 35.21
3384 54.8929 1294.00 1287.62 35.97
3385 54.9071 1260.00 1287.75 35.50
3386 54.9212 1261.00 1287.93 35.51
3387 54.9354 1311.00 1288.16 36.21
3388 54.9496 1229.00 1288.47 35.06
3389 54.9638 1285.00 1288.81 35.85
3390 54.9780 1284.00 1289.20 35.83
3391 54.9922 1265.00 1289.65 35.57
3392 55.0063 1241.00 1290.14 35.23
3393 55.0205 1361.00 1290.67 36.89
3394 55.0347 1297.00 1291.26 36.01
3395 55.0489 1297.00 1291.84 36.01
3396 55.0631 1299.00 1292.43 36.04
3397 55.0773 1287.00 1293.02 35.87
3398 55.0914 1292.00 1293.60 35.94
3399 55.1056 1300.00 1294.13 36.06
3400 55.1198 1277.00 1294.63 35.74
3401 55.1340 1275.00 1295.08 35.71
3402 55.1482 1287.00 1295.48 35.87
3403 55.1624 1305.00 1295.82 36.12
3404 55.1766 1309.00 1296.10 36.18
3405 55.1907 1259.00 1296.32 35.48
3406 55.2049 1313.00 1296.48 36.24
3407 55.2191 1280.00 1296.58 35.78
3408 55.2333 1263.00 1296.57 35.54
3409 55.2475 1278.00 1296.50 35.75
3410 55.2617 1314.00 1296.35 36.25
3411 55.2758 1278.00 1296.03 35.75
3412 55.2900 1304.00 1295.69 36.11
3413 55.3042 1271.00 1295.27 35.65
3414 55.3184 1316.00 1294.77 36.28
3415 55.3326 1319.00 1294.20 36.32
3416 55.3468 1294.00 1293.57 35.97
3417 55.3609 1195.00 1292.91 34.57
3418 55.3751 1327.00 1292.20 36.43
3419 55.3893 1300.00 1291.47 36.06
3420 55.4035 1340.00 1290.71 36.61
3421 55.4177 1257.00 1289.94 35.45
3422 55.4319 1306.00 1289.13 36.14
3423 55.4460 1308.00 1288.36 36.17
3424 55.4602 1235.00 1287.59 35.14
3425 55.4744 1290.00 1286.84 35.92
3426 55.4886 1290.00 1286.09 35.92
3427 55.5028 1313.00 1285.38 36.24
3428 55.5170 1249.00 1284.69 35.34
3429 55.5312 1255.00 1284.03 35.43
3430 55.5453 1304.00 1283.41 36.11
3431 55.5595 1318.00 1282.83 36.30
3432 55.5737 1257.00 1282.29 35.45
3433 55.5879 1214.00 1281.79 34.84
3434 55.6021 1304.00 1281.34 36.11
3435 55.6163 1363.00 1280.94 36.92
3436 55.6304 1268.00 1280.59 35.61
3437 55.6446 1255.00 1280.28 35.43
3438 55.6588 1320.00 1280.02 36.33
3439 55.6730 1251.00 1279.81 35.37
3440 55.6872 1326.00 1279.64 36.41
3441 55.7014 1302.00 1279.53 36.08
3442 55.7155 1245.00 1279.48 35.28
3443 55.7297 1306.00 1279.48 36.14
3444 55.7439 1296.00 1279.58 36.00
3445 55.7581 1229.00 1279.70 35.06
3446 55.7723 1230.00 1279.88 35.07
3447 55.7865 1300.00 1280.12 36.06
3448 55.8006 1250.00 1280.40 35.36
3449 55.8148 1244.00 1280.79 35.27
3450 55.8290 1226.00 1281.27 35.01
3451 55.8432 1246.00 1281.82 35.30
3452 55.8574 1267.00 1282.47 35.59
3453 55.8716 1268.00 1283.20 35.61
3454 55.8858 1250.00 1284.06 35.36
3455 55.8999 1303.00 1284.97 36.10
3456 55.9141 1361.00 1286.00 36.89
3457 55.9283 1260.00 1287.11 35.50
3458 55.9425 1294.00 1288.29 35.97
3459 55.9567 1296.00 1289.54 36.00
3460 55.9709 1272.00 1290.85 35.67
3461 55.9850 1214.00 1292.18 34.84
3462 55.9992 1292.00 1293.51 35.94
3463 56.0134 1292.00 1294.80 35.94
3464 56.0276 1297.00 1296.03 36.01
3465 56.0418 1272.00 1297.17 35.67
3466 56.0560 1279.00 1298.17 35.76
3467 56.0701 1315.00 1299.02 36.26
3468 56.0843 1322.00 1299.71 36.36
3469 56.0985 1293.00 1300.24 35.96
3470 56.1127 1304.00 1300.59 36.11
3471 56.1269 1307.00 1300.78 36.15
3472 56.1411 1338.00 1300.81 36.58
3473 56.1552 1288.00 1300.68 35.89
3474 56.1694 1343.00 1300.39 36.65
3475 56.1836 1235.00 1299.97 35.14
3476 56.1978 1280.00 1299.41 35.78
3477 56.2120 1331.00 1298.71 36.48
3478 56.2262 1269.00 1297.89 35.62
3479 56.2404 1296.00 1296.98 36.00
3480 56.2545 1237.00 1295.97 35.17
3481 56.2687 1309.00 1294.90 36.18
3482 56.2829 1256.00 1293.78 35.44
3483 56.2971 1306.00 1292.64 36.14
3484 56.3113 1287.00 1291.48 35.87
3485 56.3255 1307.00 1290.32 36.15
3486 56.3396 1256.00 1289.19 35.44
3487 56.3538 1348.00 1288.08 36.72
3488 56.3680 1271.00 1287.00 35.65
3489 56.3822 1281.00 1285.96 35.79
3490 56.3964 1224.00 1284.96 34.99
3491 56.4106 1300.00 1283.99 36.06
3492 56.4247 1305.00 1283.07 36.12
3493 56.4389 1317.00 1282.18 36.29
3494 56.4531 1299.00 1281.31 36.04
3495 56.4673 1268.00 1280.46 35.61
3496 56.4815 1259.00 1279.64 35.48
3497 56.4957 1341.00 1278.84 36.62
3498 56.5098 1224.00 1278.05 34.99
3499 56.5240 1314.00 1277.28 36.25
3500 56.5382 1243.00 1276.51 35.26
3501 56.5524 1269.00 1275.75 35.62
3502 56.5666 1317.00 1275.00 36.29
3503 56.5808 1282.00 1274.24 35.81
3504 56.5950 1218.00 1273.49 34.90
3505 56.6091 1255.00 1272.74 35.43
3506 56.6233 1309.00 1271.98 36.18
3507 56.6375 1307.00 1271.21 36.15
3508 56.6517 1342.00 1270.44 36.63
3509 56.6659 1247.00 1269.67 35.31
3510 56.6801 1251.00 1268.90 35.37
3511 56.6942 1181.00 1268.12 34.37
3512 56.7084 1256.00 1267.35 35.44
3513 56.7226 1248.00 1266.58 35.33
3514 56.7368 1211.00 1265.82 34.80
3515 56.7510 1286.00 1265.07 35.86
3516 56.7652 1244.00 1264.34 35.27
3517 56.7793 1271.00 1263.65 35.65
3518 56.7935 1250.00 1262.96 35.36
3519 56.8077 1202.00 1262.29 34.67
3520 56.8219 1298.00 1261.64 36.03
3521 56.8361 1247.00 1261.02 35.31
3522 56.8503 1279.00 1260.42 35.76
3523 56.8644 1233.00 1259.86 35.11
3524 56.8786 1283.00 1259.31 35.82
3525 56.8928 1251.00 1258.80 35.37
3526 56.9070 1233.00 1258.31 35.11
3527 56.9212 1228.00 1257.86 35.04
3528 56.9354 1254.00 1257.44 35.41
3529 56.9496 1247.00 1257.05 35.31
3530 56.9637 1253.00 1256.68 35.40
3531 56.9779 1223.00 1256.35 34.97
3532 56.9921 1253.00 1256.05 35.40
3533 57.0063 1260.00 1255.77 35.50
3534 57.0205 1302.00 1255.47 36.08
3535 57.0347 1255.00 1255.25 35.43
3536 57.0488 1251.00 1255.06 35.37
3537 57.0630 1275.00 1254.90 35.71
3538 57.0772 1268.00 1254.75 35.61
3539 57.0914 1193.00 1254.63 34.54
3540 57.1056 1329.00 1254.52 36.46
3541 57.1198 1233.00 1254.44 35.11
3542 57.1339 1246.00 1254.36 35.30
3543 57.1481 1242.00 1254.30 35.24
3544 57.1623 1327.00 1254.24 36.43
3545 57.1765 1280.00 1254.19 35.78
3546 57.1907 1206.00 1254.12 34.73
3547 57.2049 1262.00 1254.08 35.52
3548 57.2190 1286.00 1254.03 35.86
3549 57.2332 1244.00 1253.98 35.27
3550 57.2474 1292.00 1253.93 35.94
3551 57.2616 1272.00 1253.88 35.67
3552 57.2758 1244.00 1253.82 35.27
3553 57.2900 1241.00 1253.69 35.23
3554 57.3042 1274.00 1253.61 35.69
3555 57.3183 1267.00 1253.51 35.59
3556 57.3325 1292.00 1253.41 35.94
3557 57.3467 1295.00 1253.28 35.99
3558 57.3609 1282.00 1253.15 35.81
3559 57.3751 1230.00 1253.00 35.07
3560 57.3893 1176.00 1252.84 34.29
3561 57.4034 1238.00 1252.68 35.19
3562 57.4176 1250.00 1252.50 35.36
3563 57.4318 1245.00 1252.33 35.28
3564 57.4460 1271.00 1252.15 35.65
3565 57.4602 1342.00 1251.94 36.63
3566 57.4744 1256.00 1251.77 35.44
3567 57.4885 1335.00 1251.59 36.54
3568 57.5027 1225.00 1251.42 35.00
3569 57.5169 1297.00 1251.26 36.01
3570 57.5311 1297.00 1251.11 36.01
3571 57.5453 1289.00 1250.97 35.90
3572 57.5595 1295.00 1250.84 35.99
3573 57.5736 1337.00 1250.73 36.56
3574 57.5878 1282.00 1250.63 35.81
3575 57.6020 1272.00 1250.55 35.67
3576 57.6162 1240.00 1250.53 35.21
3577 57.6304 1340.00 1250.48 36.61
3578 57.6446 1254.00 1250.46 35.41
3579 57.6588 1288.00 1250.46 35.89
3580 57.6729 1340.00 1250.49 36.61
3581 57.6871 1226.00 1250.53 35.01
3582 57.7013 1239.00 1250.60 35.20
3583 57.7155 1292.00 1250.69 35.94
3584 57.7297 1233.00 1250.83 35.11
3585 57.7439 1216.00 1250.97 34.87
3586 57.7580 1289.00 1251.12 35.90
3587 57.7722 1250.00 1251.32 35.36
3588 57.7864 1235.00 1251.50 35.14
3589 57.8006 1312.00 1251.70 36.22
3590 57.8148 1280.00 1251.91 35.78
3591 57.8290 1334.00 1252.12 36.52
3592 57.8431 1241.00 1252.33 35.23
3593 57.8573 1280.00 1252.54 35.78
3594 57.8715 1256.00 1252.76 35.44
3595 57.8857 1298.00 1252.96 36.03
3596 57.8999 1305.00 1253.16 36.12
3597 57.9141 1257.00 1253.36 35.45
3598 57.9282 1178.00 1253.55 34.32
3599 57.9424 1215.00 1253.74 34.86
3600 57.9566 1220.00 1253.93 34.93
3601 57.9708 1288.00 1254.13 35.89
3602 57.9850 1170.00 1254.34 34.21
3603 57.9992 1278.00 1254.56 35.75
3604 58.0134 1244.00 1254.79 35.27
3605 58.0275 1258.00 1255.04 35.47
3606 58.0417 1302.00 1255.31 36.08
3607 58.0559 1281.00 1255.62 35.79
3608 58.0701 1296.00 1255.95 36.00
3609 58.0843 1265.00 1256.34 35.57
3610 58.0985 1272.00 1256.75 35.67
3611 58.1126 1234.00 1257.21 35.13
3612 58.1268 1223.00 1257.72 34.97
3613 58.1410 1218.00 1258.30 34.90
3614 58.1552 1205.00 1258.94 34.71
3615 58.1694 1286.00 1259.65 35.86
3616 58.1836 1315.00 1260.45 36.26
3617 58.1977 1244.00 1261.29 35.27
3618 58.2119 1258.00 1262.25 35.47
3619 58.2261 1291.00 1263.30 35.93
3620 58.2403 1296.00 1264.44 36.00
3621 58.2545 1217.00 1265.66 34.89
3622 58.2687 1299.00 1266.98 36.04
3623 58.2828 1323.00 1268.37 36.37
3624 58.2970 1318.00 1269.85 36.30
3625 58.3112 1270.00 1271.41 35.64
3626 58.3254 1259.00 1273.03 35.48
3627 58.3396 1247.00 1274.71 35.31
3628 58.3538 1271.00 1276.42 35.65
3629 58.3680 1256.00 1278.13 35.44
3630 58.3821 1300.00 1279.82 36.06
3631 58.3963 1361.00 1281.51 36.89
3632 58.4105 1225.00 1283.13 35.00
3633 58.4247 1321.00 1284.65 36.35
3634 58.4389 1276.00 1286.06 35.72
3635 58.4531 1320.00 1287.33 36.33
3636 58.4672 1292.00 1288.43 35.94
3637 58.4814 1373.00 1289.36 37.05
3638 58.4956 1286.00 1290.10 35.86
3639 58.5098 1364.00 1290.65 36.93
3640 58.5240 1351.00 1291.02 36.76
3641 58.5382 1277.00 1291.20 35.74
3642 58.5523 1270.00 1291.21 35.64
3643 58.5665 1334.00 1291.05 36.52
3644 58.5807 1289.00 1290.72 35.90
3645 58.5949 1283.00 1290.24 35.82
3646 58.6091 1343.00 1289.63 36.65
3647 58.6233 1271.00 1288.88 35.65
3648 58.6374 1306.00 1288.02 36.14
3649 58.6516 1281.00 1287.05 35.79
3650 58.6658 1240.00 1285.99 35.21
3651 58.6800 1290.00 1284.85 35.92
3652 58.6942 1267.00 1283.64 35.59
3653 58.7084 1285.00 1282.39 35.85
3654 58.7226 1250.00 1281.09 35.36
3655 58.7367 1312.00 1279.78 36.22
3656 58.7509 1230.00 1278.44 35.07
3657 58.7651 1242.00 1277.11 35.24
3658 58.7793 1274.00 1275.78 35.69
3659 58.7935 1238.00 1274.48 35.19
3660 58.8077 1253.00 1273.20 35.40
3661 58.8218 1220.00 1271.97 34.93
3662 58.8360 1222.00 1270.77 34.96
3663 58.8502 1261.00 1269.61 35.51
3664 58.8644 1249.00 1268.51 35.34
3665 58.8786 1183.00 1267.45 34.39
3666 58.8928 1204.00 1266.45 34.70
3667 58.9069 1231.00 1265.50 35.09
3668 58.9211 1237.00 1264.60 35.17
3669 58.9353 1289.00 1263.76 35.90
3670 58.9495 1211.00 1262.96 34.80
3671 58.9637 1281.00 1262.21 35.79
3672 58.9779 1270.00 1261.52 35.64
3673 58.9920 1208.00 1260.88 34.76
3674 59.0062 1297.00 1260.29 36.01
3675 59.0204 1228.00 1259.76 35.04
3676 59.0346 1253.00 1259.26 35.40
3677 59.0488 1209.00 1258.82 34.77
3678 59.0630 1310.00 1258.42 36.19
3679 59.0772 1270.00 1258.08 35.64
3680 59.0913 1298.00 1257.79 36.03
3681 59.1055 1242.00 1257.53 35.24
3682 59.1197 1252.00 1257.34 35.38
3683 59.1339 1221.00 1257.18 34.94
3684 59.1481 1278.00 1257.08 35.75
3685 59.1623 1279.00 1257.04 35.76
3686 59.1764 1274.00 1257.04 35.69
3687 59.1906 1201.00 1257.10 34.66
3688 59.2048 1255.00 1257.21 35.43
3689 59.2190 1254.00 1257.38 35.41
3690 59.2332 1259.00 1257.60 35.48
3691 59.2474 1177.00 1257.88 34.31
3692 59.2615 1247.00 1258.21 35.31
3693 59.2757 1184.00 1258.53 34.41
3694 59.2899 1253.00 1258.96 35.40
3695 59.3041 1241.00 1259.43 35.23
3696 59.3183 1247.00 1259.94 35.31
3697 59.3325 1191.00 1260.46 34.51
3698 59.3466 1277.00 1260.98 35.74
3699 59.3608 1250.00 1261.50 35.36
3700 59.3750 1269.00 1261.99 35.62
3701 59.3892 1274.00 1262.43 35.69
3702 59.4034 1274.00 1262.80 35.69
3703 59.4176 1232.00 1263.08 35.10
3704 59.4318 1261.00 1263.27 35.51
3705 59.4459 1276.00 1263.31 35.72
3706 59.4601 1271.00 1263.25 35.65
3707 59.4743 1233.00 1263.06 35.11
3708 59.4885 1212.00 1262.73 34.81
3709 59.5027 1210.00 1262.26 34.79
3710 59.5169 1240.00 1261.65 35.21
3711 59.5310 1276.00 1260.91 35.72
3712 59.5452 1275.00 1260.03 35.71
3713 59.5594 1287.00 1259.02 35.87
3714 59.5736 1226.00 1257.88 35.01
3715 59.5878 1293.00 1256.62 35.96
3716 59.6020 1234.00 1255.24 35.13
3717 59.6161 1258.00 1253.76 35.47
3718 59.6303 1261.00 1252.17 35.51
3719 59.6445 1230.00 1250.47 35.07
3720 59.6587 1281.00 1248.68 35.79
3721 59.6729 1268.00 1246.81 35.61
3722 59.6871 1223.00 1244.85 34.97
3723 59.7012 1273.00 1242.83 35.68
3724 59.7154 1243.00 1240.72 35.26
3725 59.7296 1313.00 1238.54 36.24
3726 59.7438 1333.00 1236.29 36.51
3727 59.7580 1302.00 1233.96 36.08
3728 59.7722 1312.00 1231.56 36.22
