#------------------------------------------------------------------------------
#$Date: 2016-03-24 17:12:39 +0200 (Thu, 24 Mar 2016) $
#$Revision: 179681 $
#$URL: svn://www.crystallography.net/cod/cif/7/00/03/7000344.cif $
#------------------------------------------------------------------------------
#
# This file is available in the Crystallography Open Database (COD),
# http://www.crystallography.net/
#
# All data on this site have been placed in the public domain by the
# contributors.
#
data_7000344
loop_
_publ_author_name
'Meilikhov, Mikhail'
'Yusenko, Kirill'
'Fischer, Roland A.'
_publ_section_title
;
 The adsorbate structure of ferrocene inside [Al(OH)(bdc)]x (MIL-53): a
 powder X-ray diffraction study
;
_journal_issue                   4
_journal_name_full               'Dalton Transactions'
_journal_page_first              600
_journal_paper_doi               10.1039/b820882b
_journal_year                    2009
_chemical_formula_moiety         '4(C8 Al O5), C13.32 Fe1.33 O1.33'
_chemical_formula_structural     0.33FeAc@Al(OH)(BDC)
_chemical_formula_sum            'C45.32 Al4 Fe1.33 O21.33'
_chemical_formula_weight         1067.85
_chemical_name_common            '1-ferrocene-aldehyde in MIL-53(Al)'
_chemical_name_systematic        ' ?'
_space_group_IT_number           74
_symmetry_cell_setting           orthorhombic
_symmetry_space_group_name_Hall  '-I 2b 2'
_symmetry_space_group_name_H-M   'I m m a'
_cell_angle_alpha                90
_cell_angle_beta                 90
_cell_angle_gamma                90
_cell_formula_units_Z            1
_cell_length_a                   6.654(2)
_cell_length_b                   16.448(3)
_cell_length_c                   13.375(2)
_cell_measurement_temperature    293
_cell_volume                     1463.8(6)
_computing_cell_refinement
'Jana2000 (Petricek, Dusek & Palatinus, 2000)'
_computing_data_collection       'Bruker D8'
_computing_publication_material
'Jana2000 (Petricek, Dusek & Palatinus, 2000)'
_computing_structure_refinement
'Jana2000 (Petricek, Dusek & Palatinus, 2000)'
_computing_structure_solution    'FOX http://objcryst.sourceforge.net'
_diffrn_ambient_temperature      293
_diffrn_detector                 'Bruker D8'
_diffrn_detector_type            'position sensitive'
_diffrn_measurement_device_type  'Bruker D8'
_diffrn_radiation_type           'Cu K\a'
_diffrn_radiation_wavelength     1.54178
_diffrn_source                   X-ray
_diffrn_source_type              'Cu K\a'
_exptl_absorpt_coefficient_mu    3.876
_exptl_absorpt_process_details
'(Jana2000; Petricek, Dusek & Palatinus, 2000)'
_exptl_crystal_density_diffrn    1.211
_exptl_crystal_F_000             553
_pd_char_colour                  red
_pd_instr_location               ' ?'
_pd_meas_2theta_range_inc        0.014
_pd_meas_2theta_range_max        59.864
_pd_meas_2theta_range_min        7.000
_pd_meas_number_of_points        3728
_pd_meas_scan_method             step
_pd_proc_2theta_range_inc        0.014
_pd_proc_2theta_range_max        59.864
_pd_proc_2theta_range_min        7
_pd_proc_ls_background_function  '16 Legendre polynoms'
_pd_proc_ls_pref_orient_corr     none
_pd_proc_ls_profile_function     Pseudo-Voigt
_pd_proc_ls_prof_R_factor        0.0213
_pd_proc_ls_prof_wR_expected     0.0177
_pd_proc_ls_prof_wR_factor       0.0287
_pd_spec_mount_mode              transmission
_pd_spec_shape                   cylinder
_refine_ls_extinction_method     none
_refine_ls_number_parameters     49
_refine_ls_R_factor_all          0.0863
_refine_ls_R_factor_gt           0.0826
_refine_ls_shift/su_max          0.0207
_refine_ls_shift/su_mean         0.0060
_refine_ls_weighting_scheme      sigma
_refine_ls_wR_factor_gt          0.0675
_refine_ls_wR_factor_ref         0.0678
_cod_data_source_file            b820882b.txt
_cod_data_source_block           (FeAc@MIL53_Al)
_cod_database_code               7000344
loop_
_symmetry_equiv_pos_site_id
_symmetry_equiv_pos_as_xyz
1 x,y,z
2 -x,y,z
3 x,1/2-y,z
4 x,1/2+y,-z
5 -x,-y,-z
6 x,-y,-z
7 -x,1/2+y,-z
8 -x,1/2-y,z
9 1/2+x,1/2+y,1/2+z
10 1/2-x,1/2+y,1/2+z
11 1/2+x,-y,1/2+z
12 1/2+x,y,1/2-z
13 1/2-x,1/2-y,1/2-z
14 1/2+x,1/2-y,1/2-z
15 1/2-x,y,1/2-z
16 1/2-x,-y,1/2+z
loop_
_atom_site_label
_atom_site_type_symbol
_atom_site_fract_x
_atom_site_fract_y
_atom_site_fract_z
_atom_site_adp_type
_atom_site_U_iso_or_equiv
_atom_site_symmetry_multiplicity
_atom_site_occupancy
_atom_site_calc_flag
_atom_site_refinement_flags
_atom_site_disorder_assembly
_atom_site_disorder_group
Al1 Al 0.25 0.25 0.75 Uiso 0.038 4 1 d . . .
O1 O 0 0.25 0.667(6) Uiso 0.038 4 1 d . . .
O2 O 0.157(2) 0.1686(13) 0.8412(14) Uiso 0.038 16 1 d . . .
C1 C -0.178(6) 0.0426(12) 0.9702(9) Uiso 0.038 16 1 d . . .
C2 C 0 0.0644(12) 0.9548(10) Uiso 0.038 8 1 d . . .
C3 C 0 0.1307(12) 0.8827(14) Uiso 0.038 8 1 d . . .
Fe1 Fe 0.25 0.25 0.25 Uiso 0.038 4 0.333 d . . .
C4 C 0.5 0.25 0.260(6) Uiso 0.038 4 0.332 d . . .
C5 C 0.386(18) 0.2956(18) 0.124(5) Uiso 0.038 16 0.333 d . . .
C6 C 0.454(8) 0.335(2) 0.212(6) Uiso 0.038 16 0.333 d . . .
C7 C 0.623(12) 0.25 0.362(10) Uiso 0.038 8 0.1667 d . . .
O3 O 0.672(17) 0.208(3) 0.405(12) Uiso 0.038 16 0.0833 d . . .
loop_
_atom_type_symbol
_atom_type_scat_dispersion_real
_atom_type_scat_dispersion_imag
_atom_type_scat_source
Al 0.066 0.053 'International Tables Vol C Tables 4.2.6.8 and 6.1.1.1'
Fe 0.349 0.853 'International Tables Vol C Tables 4.2.6.8 and 6.1.1.1'
O 0.011 0.006 'International Tables Vol C Tables 4.2.6.8 and 6.1.1.1'
C 0.003 0.002 'International Tables Vol C Tables 4.2.6.8 and 6.1.1.1'
loop_
_geom_bond_atom_site_label_1
_geom_bond_atom_site_label_2
_geom_bond_site_symmetry_1
_geom_bond_site_symmetry_2
_geom_bond_distance
_geom_bond_publ_flag
Al1 O1 . . 2.00(4) yes
Al1 O1 . 13_556 2.00(4) yes
Al1 O2 . . 1.91(2) yes
Al1 O2 . 13_556 1.91(2) yes
Al1 O2 . 3_555 1.91(2) yes
Al1 O2 . 15_556 1.91(2) yes
O1 O2 . . 2.88(7) yes
O1 O2 . 13_556 2.649(17) yes
O1 O2 . 2_555 2.88(7) yes
O1 O2 . 14_456 2.649(17) yes
O1 O2 . 3_555 2.88(7) yes
O1 O2 . 15_556 2.649(17) yes
O1 O2 . 12_456 2.649(17) yes
O1 O2 . 8_555 2.88(7) yes
O2 O2 . 2_555 2.09(2) yes
O2 O2 . 3_555 2.68(3) yes
O2 O2 . 15_556 2.73(3) yes
O2 C2 . . 2.52(2) yes
O2 C3 . . 1.34(2) yes
O2 C1 . 2_555 2.70(3) yes
C2 C3 . . 1.46(3) yes
C2 C1 . . 1.25(4) yes
C2 C1 . 2_555 1.25(4) yes
C1 C1 . 6_557 1.61(3) yes
Fe1 C4 . . 1.669(7) yes
Fe1 C4 . 13_555 1.669(7) yes
Fe1 C5 . . 2.06(8) yes
Fe1 C5 . 13_555 2.06(8) yes
Fe1 C5 . 3_555 2.06(8) yes
Fe1 C5 . 15_555 2.06(8) yes
Fe1 C6 . . 2.01(5) yes
Fe1 C6 . 13_555 2.01(5) yes
Fe1 C6 . 2_655 2.46(5) yes
Fe1 C6 . 14_455 2.46(5) yes
Fe1 C6 . 3_555 2.01(5) yes
Fe1 C6 . 15_555 2.01(5) yes
Fe1 C6 . 12_455 2.46(5) yes
Fe1 C6 . 8_655 2.46(5) yes
Fe1 C7 . . 2.90(10) yes
Fe1 C7 . 13_555 2.90(10) yes
Fe1 C7 . 2_655 1.72(13) yes
Fe1 C7 . 14_455 1.72(13) yes
Fe1 O3 . 2_655 2.25(15) yes
Fe1 O3 . 14_455 2.25(15) yes
Fe1 O3 . 12_455 2.25(15) yes
Fe1 O3 . 8_655 2.25(15) yes
C4 C6 . . 1.56(6) yes
C4 C6 . 2_655 1.56(6) yes
C4 C6 . 3_555 1.56(6) yes
C4 C6 . 8_655 1.56(6) yes
C4 C7 . . 1.59(14) yes
C4 C7 . 2_655 1.59(14) yes
C5 C5 . 2_655 1.51(17) yes
C5 C5 . 3_555 1.50(4) yes
C6 C5 . . 1.42(10) yes
O3 O3 . 3_555 1.39(8) yes
O3 O3 . 8_655 2.68(14) yes
loop_
_pd_proc_point_id
_pd_proc_2theta_corrected
_pd_proc_intensity_net
_pd_calc_intensity_net
_pd_proc_ls_weight
1 6.9542 6678.00 6860.87 81.72
2 6.9684 6612.00 6836.03 81.31
3 6.9826 6648.00 6811.58 81.54
4 6.9968 6466.00 6787.52 80.41
5 7.0109 6828.00 6764.00 82.63
6 7.0251 6750.00 6740.69 82.16
7 7.0393 6561.00 6717.75 81.00
8 7.0535 6625.00 6695.18 81.39
9 7.0677 6632.00 6672.96 81.44
10 7.0819 6605.00 6651.10 81.27
11 7.0960 6625.00 6629.74 81.39
12 7.1102 6543.00 6608.58 80.89
13 7.1244 6544.00 6587.75 80.89
14 7.1386 6421.00 6567.27 80.13
15 7.1528 6450.00 6547.11 80.31
16 7.1670 6679.00 6527.28 81.73
17 7.1811 6482.00 6507.91 80.51
18 7.1953 6408.00 6488.72 80.05
19 7.2095 6404.00 6469.84 80.03
20 7.2237 6549.00 6451.27 80.93
21 7.2379 6479.00 6433.01 80.49
22 7.2521 6510.00 6415.05 80.68
23 7.2662 6403.00 6397.51 80.02
24 7.2804 6463.00 6380.14 80.39
25 7.2946 6600.00 6363.06 81.24
26 7.3088 6458.00 6346.26 80.36
27 7.3230 6404.00 6329.75 80.03
28 7.3372 6321.00 6313.52 79.50
29 7.3514 6291.00 6297.57 79.32
30 7.3655 6266.00 6281.99 79.16
31 7.3797 6464.00 6266.58 80.40
32 7.3939 6263.00 6251.43 79.14
33 7.4081 6237.00 6236.54 78.97
34 7.4223 6245.00 6221.91 79.03
35 7.4365 6400.00 6207.55 80.00
36 7.4506 6248.00 6193.53 79.04
37 7.4648 6282.00 6179.67 79.26
38 7.4790 6279.00 6166.06 79.24
39 7.4932 6208.00 6152.69 78.79
40 7.5074 6200.00 6139.57 78.74
41 7.5216 6133.00 6126.70 78.31
42 7.5357 6144.00 6114.15 78.38
43 7.5499 6098.00 6101.76 78.09
44 7.5641 6202.00 6089.60 78.75
45 7.5783 6138.00 6077.68 78.35
46 7.5925 6216.00 6066.00 78.84
47 7.6067 6227.00 6054.56 78.91
48 7.6208 6085.00 6043.43 78.01
49 7.6350 6191.00 6032.46 78.68
50 7.6492 6203.00 6021.72 78.76
51 7.6634 6031.00 6011.23 77.66
52 7.6776 6238.00 6000.97 78.98
53 7.6918 6016.00 5990.95 77.56
54 7.7060 6176.00 5981.18 78.59
55 7.7201 6099.00 5971.73 78.10
56 7.7343 6118.00 5962.46 78.22
57 7.7485 6104.00 5953.44 78.13
58 7.7627 5989.00 5944.70 77.39
59 7.7769 5979.00 5936.23 77.32
60 7.7911 6074.00 5928.04 77.94
61 7.8052 6124.00 5920.22 78.26
62 7.8194 6118.00 5912.64 78.22
63 7.8336 6077.00 5905.40 77.96
64 7.8478 5946.00 5898.52 77.11
65 7.8620 6121.00 5892.02 78.24
66 7.8762 5955.00 5885.93 77.17
67 7.8903 5979.00 5880.32 77.32
68 7.9045 5794.00 5875.15 76.12
69 7.9187 5980.00 5870.51 77.33
70 7.9329 5921.00 5866.44 76.95
71 7.9471 5972.00 5862.99 77.28
72 7.9613 5975.00 5860.23 77.30
73 7.9754 5956.00 5858.22 77.18
74 7.9896 6124.00 5857.02 78.26
75 8.0038 6063.00 5856.73 77.87
76 8.0180 5969.00 5857.42 77.26
77 8.0322 6040.00 5859.23 77.72
78 8.0464 5836.00 5862.31 76.39
79 8.0606 6060.00 5866.86 77.85
80 8.0747 5868.00 5873.10 76.60
81 8.0889 5995.00 5881.49 77.43
82 8.1031 5923.00 5892.48 76.96
83 8.1173 5959.00 5906.76 77.19
84 8.1315 6098.00 5925.18 78.09
85 8.1457 6001.00 5948.82 77.47
86 8.1598 6088.00 5978.75 78.03
87 8.1740 6068.00 6016.85 77.90
88 8.1882 6014.00 6064.58 77.55
89 8.2024 6204.00 6123.58 78.77
90 8.2166 6019.00 6195.49 77.58
91 8.2308 6193.00 6281.77 78.70
92 8.2449 6255.00 6382.87 79.09
93 8.2591 6431.00 6501.14 80.19
94 8.2733 6366.00 6636.46 79.79
95 8.2875 6307.00 6789.02 79.42
96 8.3017 6432.00 6958.51 80.20
97 8.3159 6494.00 7143.95 80.59
98 8.3300 6750.00 7341.81 82.16
99 8.3442 6789.00 7551.08 82.40
100 8.3584 7092.00 7764.02 84.21
101 8.3726 7534.00 7970.74 86.80
102 8.3868 7744.00 8157.54 88.00
103 8.4010 8078.00 8307.70 89.88
104 8.4152 8570.00 8404.18 92.57
105 8.4293 8442.00 8433.67 91.88
106 8.4435 8237.00 8390.70 90.76
107 8.4577 7878.00 8277.81 88.76
108 8.4719 7951.00 8105.64 89.17
109 8.4861 7331.00 7889.29 85.62
110 8.5003 7083.00 7645.12 84.16
111 8.5144 6820.00 7390.31 82.58
112 8.5286 6649.00 7134.36 81.54
113 8.5428 6459.00 6889.59 80.37
114 8.5570 6308.00 6663.66 79.42
115 8.5712 6257.00 6461.48 79.10
116 8.5854 5956.00 6285.46 77.18
117 8.5995 5996.00 6136.84 77.43
118 8.6137 5939.00 6012.23 77.06
119 8.6279 5982.00 5910.35 77.34
120 8.6421 5670.00 5828.24 75.30
121 8.6563 5803.00 5762.70 76.18
122 8.6705 5662.00 5710.69 75.25
123 8.6846 5673.00 5669.72 75.32
124 8.6988 5637.00 5636.85 75.08
125 8.7130 5574.00 5610.49 74.66
126 8.7272 5689.00 5589.06 75.43
127 8.7414 5502.00 5571.35 74.18
128 8.7556 5585.00 5556.43 74.73
129 8.7698 5636.00 5543.59 75.07
130 8.7839 5593.00 5532.36 74.79
131 8.7981 5546.00 5522.18 74.47
132 8.8123 5475.00 5512.86 73.99
133 8.8265 5611.00 5504.16 74.91
134 8.8407 5542.00 5495.93 74.44
135 8.8549 5572.00 5488.06 74.65
136 8.8690 5543.00 5480.52 74.45
137 8.8832 5581.00 5473.16 74.71
138 8.8974 5562.00 5465.97 74.58
139 8.9116 5437.00 5458.95 73.74
140 8.9258 5363.00 5452.08 73.23
141 8.9400 5600.00 5445.34 74.83
142 8.9541 5520.00 5438.78 74.30
143 8.9683 5516.00 5432.30 74.27
144 8.9825 5514.00 5425.94 74.26
145 8.9967 5357.00 5419.70 73.19
146 9.0109 5507.00 5413.57 74.21
147 9.0251 5310.00 5407.57 72.87
148 9.0392 5452.00 5411.15 73.84
149 9.0534 5366.00 5405.53 73.25
150 9.0676 5346.00 5400.02 73.12
151 9.0818 5392.00 5394.62 73.43
152 9.0960 5442.00 5389.33 73.77
153 9.1102 5455.00 5384.12 73.86
154 9.1244 5512.00 5379.02 74.24
155 9.1385 5388.00 5374.04 73.40
156 9.1527 5438.00 5369.10 73.74
157 9.1669 5458.00 5364.25 73.88
158 9.1811 5339.00 5359.47 73.07
159 9.1953 5370.00 5354.77 73.28
160 9.2095 5462.00 5350.13 73.91
161 9.2236 5425.00 5345.60 73.65
162 9.2378 5274.00 5341.09 72.62
163 9.2520 5415.00 5336.64 73.59
164 9.2662 5270.00 5332.24 72.59
165 9.2804 5203.00 5327.90 72.13
166 9.2946 5351.00 5323.60 73.15
167 9.3087 5218.00 5319.39 72.24
168 9.3229 5342.00 5315.19 73.09
169 9.3371 5274.00 5311.03 72.62
170 9.3513 5407.00 5306.92 73.53
171 9.3655 5404.00 5302.84 73.51
172 9.3797 5100.00 5298.81 71.41
173 9.3938 5335.00 5294.84 73.04
174 9.4080 5232.00 5290.87 72.33
175 9.4222 5356.00 5286.94 73.18
176 9.4364 5508.00 5283.05 74.22
177 9.4506 5324.00 5279.19 72.97
178 9.4648 5239.00 5275.36 72.38
179 9.4790 5267.00 5271.56 72.57
180 9.4931 5229.00 5267.82 72.31
181 9.5073 5233.00 5264.09 72.34
182 9.5215 5279.00 5260.38 72.66
183 9.5357 5285.00 5256.70 72.70
184 9.5499 5256.00 5253.06 72.50
185 9.5641 5176.00 5249.44 71.94
186 9.5782 5168.00 5245.88 71.89
187 9.5924 5110.00 5242.33 71.48
188 9.6066 5282.00 5238.80 72.68
189 9.6208 5030.00 5235.31 70.92
190 9.6350 5245.00 5231.85 72.42
191 9.6492 5201.00 5228.42 72.12
192 9.6633 5298.00 5225.05 72.79
193 9.6775 5159.00 5221.69 71.83
194 9.6917 5225.00 5218.36 72.28
195 9.7059 5263.00 5215.07 72.55
196 9.7201 5208.00 5211.82 72.17
197 9.7343 5078.00 5208.61 71.26
198 9.7484 5023.00 5205.46 70.87
199 9.7626 5181.00 5202.34 71.98
200 9.7768 5014.00 5199.26 70.81
201 9.7910 5118.00 5196.23 71.54
202 9.8052 5221.00 5193.24 72.26
203 9.8194 5130.00 5190.32 71.62
204 9.8336 5124.00 5187.45 71.58
205 9.8477 5256.00 5184.66 72.50
206 9.8619 5254.00 5181.92 72.48
207 9.8761 5045.00 5179.24 71.03
208 9.8903 5136.00 5176.64 71.67
209 9.9045 5031.00 5174.12 70.93
210 9.9187 4975.00 5171.69 70.53
211 9.9328 5033.00 5169.36 70.94
212 9.9470 5076.00 5167.12 71.25
213 9.9612 5054.00 5164.98 71.09
214 9.9754 5254.00 5162.96 72.48
215 9.9896 5060.00 5161.07 71.13
216 10.0038 4891.00 5159.32 69.94
217 10.0179 5155.00 5157.73 71.80
218 10.0321 5152.00 5156.30 71.78
219 10.0463 5108.00 5155.05 71.47
220 10.0605 4948.00 5154.01 70.34
221 10.0747 5099.00 5153.20 71.41
222 10.0889 5121.00 5152.64 71.56
223 10.1030 5237.00 5152.37 72.37
224 10.1172 5099.00 5152.43 71.41
225 10.1314 5174.00 5152.85 71.93
226 10.1456 5050.00 5153.68 71.06
227 10.1598 5161.00 5154.99 71.84
228 10.1740 5052.00 5156.83 71.08
229 10.1882 5033.00 5159.29 70.94
230 10.2023 5064.00 5162.41 71.16
231 10.2165 5188.00 5166.33 72.03
232 10.2307 5237.00 5171.13 72.37
233 10.2449 5264.00 5176.91 72.55
234 10.2591 5175.00 5183.79 71.94
235 10.2733 5231.00 5191.87 72.33
236 10.2874 5301.00 5196.20 72.81
237 10.3016 5452.00 5207.18 73.84
238 10.3158 5192.00 5219.81 72.06
239 10.3300 5495.00 5234.28 74.13
240 10.3442 5428.00 5250.89 73.68
241 10.3584 5549.00 5269.98 74.49
242 10.3725 5567.00 5291.93 74.61
243 10.3867 5782.00 5317.76 76.04
244 10.4009 5801.00 5348.30 76.16
245 10.4151 5707.00 5384.83 75.54
246 10.4293 5724.00 5428.93 75.66
247 10.4435 5809.00 5482.52 76.22
248 10.4576 5923.00 5547.28 76.96
249 10.4718 6293.00 5626.57 79.33
250 10.4860 6427.00 5722.71 80.17
251 10.5002 6588.00 5838.69 81.17
252 10.5144 6616.00 5977.98 81.34
253 10.5286 6794.00 6144.48 82.43
254 10.5428 6921.00 6342.62 83.19
255 10.5569 7249.00 6575.14 85.14
256 10.5711 7424.00 6848.99 86.16
257 10.5853 7831.00 7163.41 88.49
258 10.5995 8068.00 7513.32 89.82
259 10.6137 8379.00 7883.62 91.54
260 10.6279 8608.00 8246.18 92.78
261 10.6420 8957.00 8558.63 94.64
262 10.6562 9253.00 8780.82 96.19
263 10.6704 9315.00 8874.86 96.51
264 10.6846 9468.00 8827.10 97.30
265 10.6988 9576.00 8648.73 97.86
266 10.7130 9338.00 8368.51 96.63
267 10.7271 8963.00 8024.41 94.67
268 10.7413 8634.00 7645.18 92.92
269 10.7555 8132.00 7261.16 90.18
270 10.7697 7644.00 6893.59 87.43
271 10.7839 6996.00 6556.98 83.64
272 10.7981 6621.00 6259.76 81.37
273 10.8122 6186.00 6006.90 78.65
274 10.8264 5672.00 5794.25 75.31
275 10.8406 5513.00 5620.51 74.25
276 10.8548 5407.00 5480.82 73.53
277 10.8690 5248.00 5369.71 72.44
278 10.8832 5341.00 5281.81 73.08
279 10.8974 5238.00 5212.28 72.37
280 10.9115 5189.00 5157.37 72.03
281 10.9257 5149.00 5112.95 71.76
282 10.9399 5046.00 5076.83 71.04
283 10.9541 4958.00 5046.98 70.41
284 10.9683 4907.00 5021.85 70.05
285 10.9825 4919.00 5000.29 70.14
286 10.9966 4946.00 4981.56 70.33
287 11.0108 4936.00 4964.76 70.26
288 11.0250 4851.00 4949.53 69.65
289 11.0392 4891.00 4935.54 69.94
290 11.0534 4812.00 4922.52 69.37
291 11.0676 4811.00 4910.28 69.36
292 11.0817 4870.00 4898.76 69.79
293 11.0959 4906.00 4887.69 70.04
294 11.1101 4847.00 4877.09 69.62
295 11.1243 4766.00 4866.90 69.04
296 11.1385 4802.00 4857.08 69.30
297 11.1527 4821.00 4847.60 69.43
298 11.1668 4819.00 4838.50 69.42
299 11.1810 4716.00 4829.62 68.67
300 11.1952 4714.00 4821.02 68.66
301 11.2094 4811.00 4812.67 69.36
302 11.2236 4657.00 4804.56 68.24
303 11.2378 4670.00 4796.68 68.34
304 11.2520 4664.00 4789.01 68.29
305 11.2661 4668.00 4781.59 68.32
306 11.2803 4767.00 4774.30 69.04
307 11.2945 4637.00 4767.18 68.10
308 11.3087 4650.00 4760.22 68.19
309 11.3229 4654.00 4753.41 68.22
310 11.3371 4614.00 4746.74 67.93
311 11.3512 4678.00 4740.25 68.40
312 11.3654 4641.00 4733.82 68.12
313 11.3796 4518.00 4727.51 67.22
314 11.3938 4626.00 4721.30 68.01
315 11.4080 4671.00 4715.19 68.34
316 11.4222 4692.00 4709.16 68.50
317 11.4363 4553.00 4703.26 67.48
318 11.4505 4485.00 4697.40 66.97
319 11.4647 4512.00 4691.61 67.17
320 11.4789 4532.00 4685.89 67.32
321 11.4931 4645.00 4680.23 68.15
322 11.5073 4630.00 4674.64 68.04
323 11.5214 4486.00 4669.14 66.98
324 11.5356 4525.00 4663.65 67.27
325 11.5498 4586.00 4658.21 67.72
326 11.5640 4526.00 4652.82 67.28
327 11.5782 4688.00 4647.48 68.47
328 11.5924 4427.00 4642.18 66.54
329 11.6066 4543.00 4636.91 67.40
330 11.6207 4497.00 4631.73 67.06
331 11.6349 4425.00 4626.54 66.52
332 11.6491 4563.00 4621.39 67.55
333 11.6633 4476.00 4616.27 66.90
334 11.6775 4603.00 4611.19 67.85
335 11.6917 4447.00 4606.13 66.69
336 11.7058 4526.00 4601.14 67.28
337 11.7200 4482.00 4596.14 66.95
338 11.7342 4429.00 4591.16 66.55
339 11.7484 4456.00 4586.22 66.75
340 11.7626 4544.00 4583.38 67.41
341 11.7768 4479.00 4578.52 66.93
342 11.7909 4486.00 4573.73 66.98
343 11.8051 4391.00 4568.92 66.26
344 11.8193 4610.00 4564.13 67.90
345 11.8335 4483.00 4559.37 66.96
346 11.8477 4552.00 4554.63 67.47
347 11.8619 4467.00 4549.91 66.84
348 11.8760 4386.00 4545.25 66.23
349 11.8902 4366.00 4540.57 66.08
350 11.9044 4504.00 4535.91 67.11
351 11.9186 4524.00 4531.27 67.26
352 11.9328 4401.00 4526.66 66.34
353 11.9470 4455.00 4522.06 66.75
354 11.9612 4479.00 4517.48 66.93
355 11.9753 4272.00 4512.95 65.36
356 11.9895 4457.00 4508.40 66.76
357 12.0037 4311.00 4503.88 65.66
358 12.0179 4353.00 4499.37 65.98
359 12.0321 4327.00 4494.88 65.78
360 12.0463 4467.00 4490.42 66.84
361 12.0604 4429.00 4486.00 66.55
362 12.0746 4407.00 4481.56 66.39
363 12.0888 4433.00 4477.15 66.58
364 12.1030 4395.00 4472.75 66.29
365 12.1172 4341.00 4468.37 65.89
366 12.1314 4336.00 4464.01 65.85
367 12.1455 4337.00 4459.70 65.86
368 12.1597 4407.00 4455.37 66.39
369 12.1739 4326.00 4451.07 65.77
370 12.1881 4334.00 4446.78 65.83
371 12.2023 4513.00 4442.51 67.18
372 12.2165 4424.00 4438.27 66.51
373 12.2306 4471.00 4434.07 66.87
374 12.2448 4313.00 4429.86 65.67
375 12.2590 4336.00 4425.67 65.85
376 12.2732 4246.00 4421.51 65.16
377 12.2874 4366.00 4417.36 66.08
378 12.3016 4345.00 4404.09 65.92
379 12.3158 4440.00 4400.15 66.63
380 12.3299 4282.00 4396.25 65.44
381 12.3441 4275.00 4392.34 65.38
382 12.3583 4407.00 4388.46 66.39
383 12.3725 4258.00 4384.60 65.25
384 12.3867 4269.00 4380.76 65.34
385 12.4009 4373.00 4376.94 66.13
386 12.4150 4288.00 4373.18 65.48
387 12.4292 4246.00 4369.41 65.16
388 12.4434 4362.00 4365.68 66.05
389 12.4576 4292.00 4361.97 65.51
390 12.4718 4237.00 4358.30 65.09
391 12.4860 4296.00 4354.66 65.54
392 12.5001 4204.00 4351.08 64.84
393 12.5143 4311.00 4347.51 65.66
394 12.5285 4331.00 4343.99 65.81
395 12.5427 4315.00 4340.50 65.69
396 12.5569 4218.00 4337.07 64.95
397 12.5711 4235.00 4333.68 65.08
398 12.5852 4298.00 4330.37 65.56
399 12.5994 4181.00 4327.10 64.66
400 12.6136 4297.00 4323.90 65.55
401 12.6278 4202.00 4320.76 64.82
402 12.6420 4234.00 4317.71 65.07
403 12.6562 4296.00 4314.74 65.54
404 12.6704 4298.00 4311.88 65.56
405 12.6845 4313.00 4309.14 65.67
406 12.6987 4410.00 4306.51 66.41
407 12.7129 4324.00 4304.01 65.76
408 12.7271 4292.00 4301.68 65.51
409 12.7413 4262.00 4299.53 65.28
410 12.7555 4167.00 4297.57 64.55
411 12.7696 4304.00 4295.86 65.60
412 12.7838 4263.00 4294.38 65.29
413 12.7980 4239.00 4293.17 65.11
414 12.8122 4233.00 4292.26 65.06
415 12.8264 4289.00 4291.66 65.49
416 12.8406 4302.00 4291.40 65.59
417 12.8547 4363.00 4291.48 66.05
418 12.8689 4324.00 4291.92 65.76
419 12.8831 4310.00 4292.73 65.65
420 12.8973 4286.00 4293.95 65.47
421 12.9115 4416.00 4295.62 66.45
422 12.9257 4298.00 4297.83 65.56
423 12.9398 4445.00 4300.69 66.67
424 12.9540 4438.00 4304.46 66.62
425 12.9682 4457.00 4309.46 66.76
426 12.9824 4375.00 4316.16 66.14
427 12.9966 4531.00 4325.28 67.31
428 13.0108 4412.00 4337.86 66.42
429 13.0250 4758.00 4355.35 68.98
430 13.0391 4623.00 4379.51 67.99
431 13.0533 4737.00 4413.08 68.83
432 13.0675 4633.00 4458.47 68.07
433 13.0817 4925.00 4517.41 70.18
434 13.0959 4677.00 4589.17 68.39
435 13.1101 4720.00 4668.28 68.70
436 13.1242 4671.00 4742.70 68.34
437 13.1384 4530.00 4798.19 67.31
438 13.1526 4654.00 4821.47 68.22
439 13.1668 4531.00 4808.79 67.31
440 13.1810 4607.00 4766.00 67.87
441 13.1952 4536.00 4703.82 67.35
442 13.2093 4481.00 4633.30 66.94
443 13.2235 4445.00 4561.37 66.67
444 13.2377 4420.00 4493.58 66.48
445 13.2519 4413.00 4432.70 66.43
446 13.2661 4382.00 4379.87 66.20
447 13.2803 4305.00 4335.12 65.61
448 13.2944 4367.00 4298.11 66.08
449 13.3086 4419.00 4267.37 66.48
450 13.3228 4183.00 4242.15 64.68
451 13.3370 4311.00 4221.43 65.66
452 13.3512 4128.00 4204.32 64.25
453 13.3654 4177.00 4190.06 64.63
454 13.3796 4291.00 4186.36 65.51
455 13.3937 4299.00 4176.30 65.57
456 13.4079 4230.00 4167.51 65.04
457 13.4221 4126.00 4159.78 64.23
458 13.4363 4195.00 4152.85 64.77
459 13.4505 4147.00 4146.57 64.40
460 13.4647 4104.00 4140.77 64.06
461 13.4788 4186.00 4135.42 64.70
462 13.4930 4097.00 4130.34 64.01
463 13.5072 4227.00 4125.52 65.02
464 13.5214 4138.00 4120.92 64.33
465 13.5356 4157.00 4116.51 64.47
466 13.5498 4119.00 4112.27 64.18
467 13.5639 3988.00 4108.20 63.15
468 13.5781 4180.00 4104.24 64.65
469 13.5923 4041.00 4100.40 63.57
470 13.6065 4039.00 4096.67 63.55
471 13.6207 4151.00 4093.05 64.43
472 13.6349 4019.00 4089.53 63.40
473 13.6490 4041.00 4086.12 63.57
474 13.6632 4065.00 4082.78 63.76
475 13.6774 4089.00 4079.52 63.95
476 13.6916 4006.00 4076.34 63.29
477 13.7058 4023.00 4073.24 63.43
478 13.7200 3975.00 4070.20 63.05
479 13.7342 4037.00 4067.24 63.54
480 13.7483 4072.00 4064.36 63.81
481 13.7625 3983.00 4061.53 63.11
482 13.7767 4042.00 4058.76 63.58
483 13.7909 3914.00 4056.06 62.56
484 13.8051 3946.00 4053.41 62.82
485 13.8193 4038.00 4050.83 63.55
486 13.8334 4103.00 4048.32 64.05
487 13.8476 3911.00 4045.86 62.54
488 13.8618 4135.00 4043.45 64.30
489 13.8760 4054.00 4041.11 63.67
490 13.8902 4022.00 4038.82 63.42
491 13.9044 4015.00 4036.60 63.36
492 13.9185 4030.00 4034.45 63.48
493 13.9327 4094.00 4032.35 63.98
494 13.9469 3908.00 4030.32 62.51
495 13.9611 3949.00 4028.36 62.84
496 13.9753 3961.00 4026.46 62.94
497 13.9895 4028.00 4024.64 63.47
498 14.0036 3904.00 4022.91 62.48
499 14.0178 4062.00 4021.24 63.73
500 14.0320 3942.00 4019.65 62.79
501 14.0462 3968.00 4018.15 62.99
502 14.0604 4014.00 4016.74 63.36
503 14.0746 3871.00 4015.43 62.22
504 14.0888 3957.00 4014.22 62.90
505 14.1029 4008.00 4013.12 63.31
506 14.1171 3900.00 4012.14 62.45
507 14.1313 4037.00 4011.27 63.54
508 14.1455 3990.00 4010.54 63.17
509 14.1597 4006.00 4009.95 63.29
510 14.1739 3960.00 4009.51 62.93
511 14.1880 3979.00 4009.24 63.08
512 14.2022 3999.00 4009.15 63.24
513 14.2164 4096.00 4009.26 64.00
514 14.2306 4111.00 4009.59 64.12
515 14.2448 4038.00 4010.15 63.55
516 14.2590 4010.00 4010.98 63.32
517 14.2731 3940.00 4012.10 62.77
518 14.2873 4071.00 4013.55 63.80
519 14.3015 4004.00 4015.37 63.28
520 14.3157 4020.00 4017.59 63.40
521 14.3299 4029.00 4020.29 63.47
522 14.3441 4015.00 4023.50 63.36
523 14.3582 3970.00 4027.26 63.01
524 14.3724 4052.00 4031.69 63.66
525 14.3866 3969.00 4036.83 63.00
526 14.4008 3939.00 4042.75 62.76
527 14.4150 4063.00 4049.52 63.74
528 14.4292 4086.00 4057.19 63.92
529 14.4434 3981.00 4065.79 63.10
530 14.4575 3900.00 4075.26 62.45
531 14.4717 3922.00 4085.75 62.63
532 14.4859 3942.00 4097.14 62.79
533 14.5001 3899.00 4109.38 62.44
534 14.5143 4150.00 4122.40 64.42
535 14.5285 4024.00 4134.13 63.44
536 14.5426 4102.00 4148.56 64.05
537 14.5568 4051.00 4163.96 63.65
538 14.5710 4080.00 4180.52 63.87
539 14.5852 4074.00 4198.88 63.83
540 14.5994 4231.00 4220.12 65.05
541 14.6136 4187.00 4246.07 64.71
542 14.6277 4322.00 4279.29 65.74
543 14.6419 4223.00 4324.51 64.98
544 14.6561 4373.00 4387.68 66.13
545 14.6703 4467.00 4477.20 66.84
546 14.6845 4563.00 4603.57 67.55
547 14.6987 4756.00 4778.10 68.96
548 14.7128 4955.00 5007.55 70.39
549 14.7270 5293.00 5294.28 72.75
550 14.7412 5647.00 5616.96 75.15
551 14.7554 5763.00 5931.21 75.91
552 14.7696 6101.00 6176.27 78.11
553 14.7838 6328.00 6300.74 79.55
554 14.7980 6435.00 6287.85 80.22
555 14.8121 6253.00 6159.59 79.08
556 14.8263 6128.00 5954.15 78.28
557 14.8405 6006.00 5712.18 77.50
558 14.8547 5559.00 5463.80 74.56
559 14.8689 5414.00 5227.93 73.58
560 14.8831 5117.00 5014.71 71.53
561 14.8972 4774.00 4829.51 69.09
562 14.9114 4703.00 4670.17 68.58
563 14.9256 4464.00 4536.49 66.81
564 14.9398 4528.00 4425.73 67.29
565 14.9540 4382.00 4334.76 66.20
566 14.9682 4336.00 4260.41 65.85
567 14.9823 4213.00 4200.22 64.91
568 14.9965 4243.00 4150.79 65.14
569 15.0107 4118.00 4110.44 64.17
570 15.0249 4076.00 4077.36 63.84
571 15.0391 4141.00 4050.07 64.35
572 15.0533 4018.00 4027.35 63.39
573 15.0674 4191.00 4008.36 64.74
574 15.0816 3999.00 3992.08 63.24
575 15.0958 4079.00 3978.04 63.87
576 15.1100 4062.00 3965.77 63.73
577 15.1242 4105.00 3954.92 64.07
578 15.1384 4122.00 3945.21 64.20
579 15.1526 4081.00 3936.43 63.88
580 15.1667 4093.00 3928.47 63.98
581 15.1809 3977.00 3921.11 63.06
582 15.1951 3974.00 3914.31 63.04
583 15.2093 4091.00 3908.00 63.96
584 15.2235 3975.00 3902.12 63.05
585 15.2377 4031.00 3896.63 63.49
586 15.2518 3996.00 3891.52 63.21
587 15.2660 4047.00 3906.64 63.62
588 15.2802 3935.00 3902.42 62.73
589 15.2944 3984.00 3898.47 63.12
590 15.3086 3926.00 3894.77 62.66
591 15.3228 3954.00 3891.29 62.88
592 15.3369 3975.00 3888.04 63.05
593 15.3511 4009.00 3884.96 63.32
594 15.3653 4122.00 3882.06 64.20
595 15.3795 4071.00 3879.32 63.80
596 15.3937 4015.00 3876.73 63.36
597 15.4079 3922.00 3874.29 62.63
598 15.4220 3991.00 3871.99 63.17
599 15.4362 4005.00 3869.81 63.29
600 15.4504 3973.00 3867.74 63.03
601 15.4646 3925.00 3865.78 62.65
602 15.4788 4152.00 3863.92 64.44
603 15.4930 3977.00 3862.16 63.06
604 15.5072 4024.00 3860.49 63.44
605 15.5213 4023.00 3858.93 63.43
606 15.5355 4025.00 3857.44 63.44
607 15.5497 4000.00 3856.03 63.25
608 15.5639 4011.00 3854.70 63.33
609 15.5781 3902.00 3853.44 62.47
610 15.5923 4074.00 3852.26 63.83
611 15.6064 3947.00 3851.78 62.83
612 15.6206 4043.00 3850.75 63.58
613 15.6348 3921.00 3849.78 62.62
614 15.6490 3841.00 3848.88 61.98
615 15.6632 4023.00 3848.05 63.43
616 15.6774 3914.00 3847.28 62.56
617 15.6915 3928.00 3846.58 62.67
618 15.7057 4089.00 3845.93 63.95
619 15.7199 3912.00 3845.35 62.55
620 15.7341 3976.00 3844.83 63.06
621 15.7483 4013.00 3844.38 63.35
622 15.7625 3930.00 3843.98 62.69
623 15.7766 3948.00 3843.65 62.83
624 15.7908 4019.00 3843.37 63.40
625 15.8050 3995.00 3843.17 63.21
626 15.8192 3965.00 3843.02 62.97
627 15.8334 3799.00 3842.94 61.64
628 15.8476 3940.00 3842.92 62.77
629 15.8618 3893.00 3842.98 62.39
630 15.8759 3926.00 3843.09 62.66
631 15.8901 3963.00 3843.28 62.95
632 15.9043 3999.00 3843.54 63.24
633 15.9185 3905.00 3843.88 62.49
634 15.9327 3968.00 3844.29 62.99
635 15.9469 3967.00 3844.77 62.98
636 15.9610 3989.00 3845.34 63.16
637 15.9752 3843.00 3845.99 61.99
638 15.9894 4002.00 3846.72 63.26
639 16.0036 3876.00 3847.55 62.26
640 16.0178 3976.00 3848.47 63.06
641 16.0320 3996.00 3849.48 63.21
642 16.0461 3911.00 3850.59 62.54
643 16.0603 3875.00 3851.82 62.25
644 16.0745 3840.00 3853.15 61.97
645 16.0887 3800.00 3854.60 61.64
646 16.1029 3910.00 3856.18 62.53
647 16.1171 3972.00 3857.88 63.02
648 16.1312 3898.00 3859.71 62.43
649 16.1454 3886.00 3861.69 62.34
650 16.1596 3904.00 3863.83 62.48
651 16.1738 3888.00 3858.01 62.35
652 16.1880 3990.00 3860.64 63.17
653 16.2022 3960.00 3863.45 62.93
654 16.2164 4018.00 3866.45 63.39
655 16.2305 3959.00 3869.63 62.92
656 16.2447 4003.00 3873.05 63.27
657 16.2589 4012.00 3876.71 63.34
658 16.2731 3954.00 3880.61 62.88
659 16.2873 3855.00 3884.79 62.09
660 16.3015 3855.00 3889.26 62.09
661 16.3156 3979.00 3894.02 63.08
662 16.3298 4060.00 3899.15 63.72
663 16.3440 4096.00 3904.66 64.00
664 16.3582 3923.00 3910.57 62.63
665 16.3724 3905.00 3916.93 62.49
666 16.3866 3941.00 3923.77 62.78
667 16.4007 3921.00 3931.08 62.62
668 16.4149 4094.00 3939.02 63.98
669 16.4291 4040.00 3949.34 63.56
670 16.4433 3882.00 3958.61 62.31
671 16.4575 3855.00 3968.63 62.09
672 16.4717 4048.00 3979.46 63.62
673 16.4858 3865.00 3991.06 62.17
674 16.5000 4002.00 4003.67 63.26
675 16.5142 3952.00 4017.25 62.86
676 16.5284 3980.00 4031.86 63.09
677 16.5426 3973.00 4047.53 63.03
678 16.5568 4060.00 4064.28 63.72
679 16.5710 3994.00 4082.09 63.20
680 16.5851 3904.00 4100.80 62.48
681 16.5993 3969.00 4120.62 63.00
682 16.6135 3922.00 4141.32 62.63
683 16.6277 4021.00 4162.78 63.41
684 16.6419 3896.00 4184.87 62.42
685 16.6561 3999.00 4207.43 63.24
686 16.6702 4042.00 4230.16 63.58
687 16.6844 3977.00 4253.30 63.06
688 16.6986 3983.00 4276.65 63.11
689 16.7128 4046.00 4300.33 63.61
690 16.7270 3890.00 4324.59 62.37
691 16.7412 4043.00 4349.96 63.58
692 16.7553 4047.00 4377.11 63.62
693 16.7695 4185.00 4407.78 64.69
694 16.7837 4188.00 4443.91 64.71
695 16.7979 4263.00 4488.65 65.29
696 16.8121 4367.00 4546.69 66.08
697 16.8263 4555.00 4624.74 67.49
698 16.8404 4746.00 4731.24 68.89
699 16.8546 4773.00 4880.07 69.09
700 16.8688 4998.00 5086.19 70.70
701 16.8830 5411.00 5367.89 73.56
702 16.8972 5839.00 5744.28 76.41
703 16.9114 6154.00 6231.24 78.45
704 16.9256 6845.00 6835.30 82.73
705 16.9397 7465.00 7538.99 86.40
706 16.9539 8184.00 8312.64 90.47
707 16.9681 8798.00 9081.22 93.80
708 16.9823 9340.00 9753.40 96.64
709 16.9965 10056.00 10241.50 100.28
710 17.0107 10278.00 10489.00 101.38
711 17.0248 10252.00 10486.40 101.25
712 17.0390 10091.00 10264.20 100.45
713 17.0532 9614.00 9875.52 98.05
714 17.0674 9052.00 9379.01 95.14
715 17.0816 8451.00 8826.92 91.93
716 17.0958 8000.00 8260.56 89.44
717 17.1099 7320.00 7713.55 85.56
718 17.1241 6977.00 7198.02 83.53
719 17.1383 6385.00 6729.81 79.91
720 17.1525 6232.00 6314.32 78.94
721 17.1667 5858.00 5952.55 76.54
722 17.1809 5527.00 5642.33 74.34
723 17.1950 5338.00 5381.13 73.06
724 17.2092 5259.00 5160.19 72.52
725 17.2234 5079.00 4976.14 71.27
726 17.2376 4999.00 4823.92 70.70
727 17.2518 4785.00 4699.06 69.17
728 17.2660 4664.00 4597.76 68.29
729 17.2802 4723.00 4516.90 68.72
730 17.2943 4568.00 4454.35 67.59
731 17.3085 4512.00 4406.99 67.17
732 17.3227 4547.00 4373.19 67.43
733 17.3369 4307.00 4350.49 65.63
734 17.3511 4423.00 4335.87 66.51
735 17.3653 4328.00 4325.70 65.79
736 17.3794 4194.00 4316.26 64.76
737 17.3936 4339.00 4304.22 65.87
738 17.4078 4274.00 4287.69 65.38
739 17.4220 4035.00 4266.19 63.52
740 17.4362 4074.00 4240.42 63.83
741 17.4504 4096.00 4211.74 64.00
742 17.4645 4167.00 4181.79 64.55
743 17.4787 4049.00 4151.44 63.63
744 17.4929 4032.00 4121.90 63.50
745 17.5071 4014.00 4093.90 63.36
746 17.5213 4017.00 4070.88 63.38
747 17.5355 4000.00 4047.16 63.25
748 17.5496 4148.00 4025.91 64.40
749 17.5638 4009.00 4006.78 63.32
750 17.5780 3833.00 3989.82 61.91
751 17.5922 3883.00 3974.85 62.31
752 17.6064 3921.00 3961.67 62.62
753 17.6206 3897.00 3950.08 62.43
754 17.6348 3928.00 3939.87 62.67
755 17.6489 4028.00 3930.94 63.47
756 17.6631 3943.00 3923.00 62.79
757 17.6773 3946.00 3915.97 62.82
758 17.6915 3897.00 3909.75 62.43
759 17.7057 3835.00 3904.24 61.93
760 17.7199 3996.00 3899.35 63.21
761 17.7340 3838.00 3895.05 61.95
762 17.7482 3903.00 3891.21 62.47
763 17.7624 3835.00 3887.82 61.93
764 17.7766 3922.00 3884.84 62.63
765 17.7908 4012.00 3882.22 63.34
766 17.8050 3837.00 3879.94 61.94
767 17.8191 3862.00 3877.98 62.15
768 17.8333 3825.00 3876.30 61.85
769 17.8475 3980.00 3874.87 63.09
770 17.8617 3779.00 3873.67 61.47
771 17.8759 3862.00 3872.68 62.15
772 17.8901 3756.00 3871.88 61.29
773 17.9042 3780.00 3871.25 61.48
774 17.9184 3852.00 3870.74 62.06
775 17.9326 3938.00 3870.34 62.75
776 17.9468 3841.00 3870.04 61.98
777 17.9610 3838.00 3869.80 61.95
778 17.9752 3889.00 3869.62 62.36
779 17.9894 3880.00 3869.49 62.29
780 18.0035 3863.00 3869.41 62.15
781 18.0177 3794.00 3869.40 61.60
782 18.0319 3882.00 3869.51 62.31
783 18.0461 3875.00 3869.80 62.25
784 18.0603 3836.00 3870.40 61.94
785 18.0745 3923.00 3871.47 62.63
786 18.0886 3865.00 3873.28 62.17
787 18.1028 3856.00 3876.25 62.10
788 18.1170 3949.00 3880.93 62.84
789 18.1312 4055.00 3888.09 63.68
790 18.1454 3911.00 3898.75 62.54
791 18.1596 3921.00 3914.16 62.62
792 18.1737 3952.00 3935.59 62.86
793 18.1879 3887.00 3964.86 62.35
794 18.2021 3978.00 4003.24 63.07
795 18.2163 4032.00 4051.52 63.50
796 18.2305 4221.00 4109.37 64.97
797 18.2447 4324.00 4174.70 65.76
798 18.2588 4459.00 4242.74 66.78
799 18.2730 4520.00 4308.23 67.23
800 18.2872 4512.00 4363.58 67.17
801 18.3014 4725.00 4402.67 68.74
802 18.3156 4992.00 4422.00 70.65
803 18.3298 5055.00 4421.31 71.10
804 18.3440 5039.00 4403.08 70.99
805 18.3581 4861.00 4371.52 69.72
806 18.3723 4726.00 4330.48 68.75
807 18.3865 4659.00 4284.11 68.26
808 18.4007 4477.00 4235.68 66.91
809 18.4149 4345.00 4187.66 65.92
810 18.4291 4221.00 4141.84 64.97
811 18.4432 4007.00 4099.65 63.30
812 18.4574 3942.00 4061.17 62.79
813 18.4716 3988.00 4026.99 63.15
814 18.4858 3828.00 3997.10 61.87
815 18.5000 3798.00 3971.27 61.63
816 18.5142 4011.00 3949.82 63.33
817 18.5283 3762.00 3931.18 61.34
818 18.5425 3788.00 3915.30 61.55
819 18.5567 3815.00 3901.93 61.77
820 18.5709 3840.00 3890.70 61.97
821 18.5851 3975.00 3881.26 63.05
822 18.5993 3913.00 3873.35 62.55
823 18.6134 3904.00 3866.77 62.48
824 18.6276 3831.00 3861.21 61.90
825 18.6418 3871.00 3856.56 62.22
826 18.6560 3841.00 3852.67 61.98
827 18.6702 3815.00 3849.43 61.77
828 18.6844 3829.00 3846.75 61.88
829 18.6986 3760.00 3844.52 61.32
830 18.7127 3826.00 3842.71 61.85
831 18.7269 3831.00 3821.82 61.90
832 18.7411 3976.00 3820.95 63.06
833 18.7553 3882.00 3820.34 62.31
834 18.7695 3757.00 3819.95 61.29
835 18.7837 3856.00 3819.77 62.10
836 18.7978 3841.00 3819.76 61.98
837 18.8120 3717.00 3819.93 60.97
838 18.8262 3811.00 3820.26 61.73
839 18.8404 3903.00 3820.74 62.47
840 18.8546 3731.00 3821.36 61.08
841 18.8688 3871.00 3822.13 62.22
842 18.8829 3781.00 3823.03 61.49
843 18.8971 3731.00 3824.08 61.08
844 18.9113 3858.00 3825.27 62.11
845 18.9255 3772.00 3826.59 61.42
846 18.9397 3924.00 3828.05 62.64
847 18.9539 3775.00 3829.64 61.44
848 18.9680 3931.00 3831.35 62.70
849 18.9822 3721.00 3833.20 61.00
850 18.9964 3780.00 3835.15 61.48
851 19.0106 3895.00 3837.21 62.41
852 19.0248 3926.00 3839.36 62.66
853 19.0390 3817.00 3841.57 61.78
854 19.0532 3890.00 3843.83 62.37
855 19.0673 3784.00 3846.09 61.51
856 19.0815 3813.00 3848.36 61.75
857 19.0957 3766.00 3850.59 61.37
858 19.1099 3820.00 3852.75 61.81
859 19.1241 3782.00 3854.80 61.50
860 19.1383 3791.00 3856.72 61.57
861 19.1524 3955.00 3858.48 62.89
862 19.1666 3786.00 3859.48 61.53
863 19.1808 3814.00 3860.94 61.76
864 19.1950 3751.00 3862.28 61.25
865 19.2092 3853.00 3863.54 62.07
866 19.2234 3793.00 3864.84 61.59
867 19.2375 3841.00 3866.32 61.98
868 19.2517 3843.00 3868.29 61.99
869 19.2659 3891.00 3871.12 62.38
870 19.2801 3952.00 3875.42 62.86
871 19.2943 3844.00 3882.03 62.00
872 19.3085 3943.00 3892.10 62.79
873 19.3226 3893.00 3907.01 62.39
874 19.3368 3985.00 3928.84 63.13
875 19.3510 3930.00 3959.73 62.69
876 19.3652 4031.00 4002.16 63.49
877 19.3794 4146.00 4058.51 64.39
878 19.3936 4149.00 4130.70 64.41
879 19.4078 4277.00 4219.44 65.40
880 19.4219 4506.00 4322.55 67.13
881 19.4361 4539.00 4437.75 67.37
882 19.4503 4517.00 4555.64 67.21
883 19.4645 4558.00 4666.50 67.51
884 19.4787 4673.00 4759.40 68.36
885 19.4929 4728.00 4825.31 68.76
886 19.5070 4729.00 4859.22 68.77
887 19.5212 4724.00 4861.45 68.73
888 19.5354 4666.00 4835.35 68.31
889 19.5496 4528.00 4786.81 67.29
890 19.5638 4633.00 4722.38 68.07
891 19.5780 4555.00 4648.18 67.49
892 19.5921 4523.00 4569.93 67.25
893 19.6063 4336.00 4490.57 65.85
894 19.6205 4369.00 4413.64 66.10
895 19.6347 4239.00 4341.27 65.11
896 19.6489 4164.00 4274.75 64.53
897 19.6631 4140.00 4214.76 64.34
898 19.6772 4224.00 4161.85 64.99
899 19.6914 4079.00 4115.11 63.87
900 19.7056 4201.00 4074.54 64.82
901 19.7198 4129.00 4039.59 64.26
902 19.7340 3990.00 4009.65 63.17
903 19.7482 4000.00 3984.10 63.25
904 19.7624 4083.00 3962.35 63.90
905 19.7765 3971.00 3943.98 63.02
906 19.7907 3849.00 3928.25 62.04
907 19.8049 3912.00 3914.86 62.55
908 19.8191 3983.00 3903.48 63.11
909 19.8333 4030.00 3893.78 63.48
910 19.8475 3904.00 3885.51 62.48
911 19.8616 4009.00 3878.50 63.32
912 19.8758 3896.00 3872.45 62.42
913 19.8900 3811.00 3867.28 61.73
914 19.9042 3942.00 3862.84 62.79
915 19.9184 3947.00 3859.03 62.83
916 19.9326 3872.00 3855.74 62.23
917 19.9467 3743.00 3852.93 61.18
918 19.9609 3907.00 3850.48 62.51
919 19.9751 3892.00 3848.36 62.39
920 19.9893 3932.00 3846.52 62.71
921 20.0035 3754.00 3844.93 61.27
922 20.0177 3865.00 3843.55 62.17
923 20.0318 3846.00 3842.36 62.02
924 20.0460 3891.00 3841.32 62.38
925 20.0602 3937.00 3840.42 62.75
926 20.0744 3871.00 3839.64 62.22
927 20.0886 3749.00 3838.96 61.23
928 20.1028 3787.00 3838.37 61.54
929 20.1170 3888.00 3837.86 62.35
930 20.1311 3848.00 3837.40 62.03
931 20.1453 3878.00 3836.98 62.27
932 20.1595 3789.00 3834.87 61.55
933 20.1737 3769.00 3834.52 61.39
934 20.1879 3848.00 3834.18 62.03
935 20.2021 3827.00 3833.84 61.86
936 20.2162 3839.00 3833.48 61.96
937 20.2304 3789.00 3833.10 61.55
938 20.2446 3802.00 3832.70 61.66
939 20.2588 3806.00 3832.30 61.69
940 20.2730 3852.00 3831.89 62.06
941 20.2872 3832.00 3831.50 61.90
942 20.3013 3815.00 3831.20 61.77
943 20.3155 3845.00 3831.02 62.01
944 20.3297 3944.00 3831.10 62.80
945 20.3439 3777.00 3831.57 61.46
946 20.3581 3810.00 3832.65 61.73
947 20.3723 3761.00 3834.61 61.33
948 20.3864 3891.00 3837.78 62.38
949 20.4006 3749.00 3842.64 61.23
950 20.4148 3851.00 3849.67 62.06
951 20.4290 3803.00 3859.39 61.67
952 20.4432 3828.00 3872.29 61.87
953 20.4574 3788.00 3888.71 61.55
954 20.4716 3841.00 3908.72 61.98
955 20.4857 3918.00 3931.71 62.59
956 20.4999 3829.00 3956.97 61.88
957 20.5141 3801.00 3982.64 61.65
958 20.5283 3889.00 4006.53 62.36
959 20.5425 3810.00 4026.43 61.73
960 20.5567 3793.00 4040.54 61.59
961 20.5708 3858.00 4047.91 62.11
962 20.5850 3911.00 4048.66 62.54
963 20.5992 3870.00 4043.48 62.21
964 20.6134 3916.00 4033.55 62.58
965 20.6276 3846.00 4020.19 62.02
966 20.6418 3955.00 4004.66 62.89
967 20.6559 3832.00 3988.13 61.90
968 20.6701 3872.00 3971.23 62.23
969 20.6843 3735.00 3954.70 61.11
970 20.6985 3762.00 3939.02 61.34
971 20.7127 3723.00 3924.47 61.02
972 20.7269 3824.00 3911.23 61.84
973 20.7410 3898.00 3899.44 62.43
974 20.7552 3868.00 3888.93 62.19
975 20.7694 3792.00 3879.73 61.58
976 20.7836 3810.00 3871.74 61.73
977 20.7978 3731.00 3864.85 61.08
978 20.8120 3841.00 3858.94 61.98
979 20.8262 3913.00 3853.88 62.55
980 20.8403 3717.00 3849.59 60.97
981 20.8545 3833.00 3845.92 61.91
982 20.8687 3908.00 3842.81 62.51
983 20.8829 3789.00 3840.16 61.55
984 20.8971 3841.00 3837.93 61.98
985 20.9113 3849.00 3836.05 62.04
986 20.9254 3862.00 3834.48 62.15
987 20.9396 3808.00 3833.15 61.71
988 20.9538 3870.00 3832.05 62.21
989 20.9680 3838.00 3831.14 61.95
990 20.9822 3832.00 3830.38 61.90
991 20.9964 3771.00 3829.77 61.41
992 21.0105 3828.00 3829.27 61.87
993 21.0247 3868.00 3828.87 62.19
994 21.0389 3838.00 3828.54 61.95
995 21.0531 3811.00 3828.28 61.73
996 21.0673 3820.00 3828.07 61.81
997 21.0815 3784.00 3827.89 61.51
998 21.0956 3855.00 3827.73 62.09
999 21.1098 3808.00 3827.58 61.71
1000 21.1240 3849.00 3827.42 62.04
1001 21.1382 3953.00 3827.25 62.87
1002 21.1524 3713.00 3827.05 60.93
1003 21.1666 3912.00 3826.82 62.55
1004 21.1808 3761.00 3826.54 61.33
1005 21.1949 3801.00 3826.22 61.65
1006 21.2091 3839.00 3825.85 61.96
1007 21.2233 3831.00 3825.43 61.90
1008 21.2375 3896.00 3824.97 62.42
1009 21.2517 3982.00 3824.50 63.10
1010 21.2659 3744.00 3824.05 61.19
1011 21.2800 3715.00 3823.68 60.95
1012 21.2942 3829.00 3823.46 61.88
1013 21.3084 3999.00 3823.52 63.24
1014 21.3226 3879.00 3824.02 62.28
1015 21.3368 3816.00 3825.18 61.77
1016 21.3510 3835.00 3827.28 61.93
1017 21.3651 3771.00 3830.65 61.41
1018 21.3793 3876.00 3835.72 62.26
1019 21.3935 3799.00 3842.92 61.64
1020 21.4077 3896.00 3852.66 62.42
1021 21.4219 3905.00 3865.29 62.49
1022 21.4361 3900.00 3878.00 62.45
1023 21.4502 3816.00 3896.42 61.77
1024 21.4644 3901.00 3917.15 62.46
1025 21.4786 3768.00 3938.88 61.38
1026 21.4928 3927.00 3959.96 62.67
1027 21.5070 3847.00 3978.54 62.02
1028 21.5212 3773.00 3992.95 61.42
1029 21.5354 3918.00 4002.11 62.59
1030 21.5495 3910.00 4005.67 62.53
1031 21.5637 3986.00 4004.02 63.13
1032 21.5779 3894.00 3997.92 62.40
1033 21.5921 3960.00 3988.41 62.93
1034 21.6063 3969.00 3976.53 63.00
1035 21.6205 3974.00 3963.23 63.04
1036 21.6346 3897.00 3949.39 62.43
1037 21.6488 3936.00 3935.42 62.74
1038 21.6630 3851.00 3921.87 62.06
1039 21.6772 3894.00 3909.05 62.40
1040 21.6914 4042.00 3897.17 63.58
1041 21.7056 3921.00 3886.34 62.62
1042 21.7197 3860.00 3876.66 62.13
1043 21.7339 3832.00 3867.98 61.90
1044 21.7481 3780.00 3860.31 61.48
1045 21.7623 3808.00 3853.58 61.71
1046 21.7765 3858.00 3847.71 62.11
1047 21.7907 3835.00 3842.59 61.93
1048 21.8048 3971.00 3838.21 63.02
1049 21.8190 3890.00 3834.34 62.37
1050 21.8332 3955.00 3830.98 62.89
1051 21.8474 3932.00 3828.05 62.71
1052 21.8616 3953.00 3825.50 62.87
1053 21.8758 3903.00 3823.27 62.47
1054 21.8900 3796.00 3821.31 61.61
1055 21.9041 3817.00 3819.61 61.78
1056 21.9183 3819.00 3818.09 61.80
1057 21.9325 3721.00 3816.74 61.00
1058 21.9467 3848.00 3815.55 62.03
1059 21.9609 3813.00 3814.47 61.75
1060 21.9751 3796.00 3813.51 61.61
1061 21.9892 3740.00 3812.64 61.16
1062 22.0034 3778.00 3811.84 61.47
1063 22.0176 3885.00 3811.11 62.33
1064 22.0318 3870.00 3810.43 62.21
1065 22.0460 3757.00 3809.81 61.29
1066 22.0602 3784.00 3809.22 61.51
1067 22.0743 3767.00 3808.66 61.38
1068 22.0885 3753.00 3808.14 61.26
1069 22.1027 3859.00 3807.64 62.12
1070 22.1169 3762.00 3807.16 61.34
1071 22.1311 3756.00 3806.70 61.29
1072 22.1453 3850.00 3806.25 62.05
1073 22.1594 3694.00 3805.83 60.78
1074 22.1736 3842.00 3805.41 61.98
1075 22.1878 3796.00 3805.00 61.61
1076 22.2020 3735.00 3804.60 61.11
1077 22.2162 3727.00 3804.22 61.05
1078 22.2304 3781.00 3803.83 61.49
1079 22.2446 3883.00 3803.46 62.31
1080 22.2587 3795.00 3803.09 61.60
1081 22.2729 3795.00 3802.73 61.60
1082 22.2871 3774.00 3802.37 61.43
1083 22.3013 3763.00 3802.01 61.34
1084 22.3155 3870.00 3801.66 62.21
1085 22.3297 3804.00 3801.31 61.68
1086 22.3438 3885.00 3800.97 62.33
1087 22.3580 3819.00 3800.63 61.80
1088 22.3722 3786.00 3800.28 61.53
1089 22.3864 3792.00 3799.94 61.58
1090 22.4006 3855.00 3799.60 62.09
1091 22.4148 3814.00 3799.27 61.76
1092 22.4289 3767.00 3798.93 61.38
1093 22.4431 3768.00 3798.60 61.38
1094 22.4573 3869.00 3798.26 62.20
1095 22.4715 3863.00 3797.93 62.15
1096 22.4857 3832.00 3797.59 61.90
1097 22.4999 3692.00 3797.26 60.76
1098 22.5140 3808.00 3796.92 61.71
1099 22.5282 3706.00 3796.59 60.88
1100 22.5424 3717.00 3796.25 60.97
1101 22.5566 3797.00 3795.91 61.62
1102 22.5708 3871.00 3794.94 62.22
1103 22.5850 3750.00 3794.61 61.24
1104 22.5992 3774.00 3794.27 61.43
1105 22.6133 3854.00 3793.94 62.08
1106 22.6275 3877.00 3793.61 62.27
1107 22.6417 3693.00 3793.27 60.77
1108 22.6559 3848.00 3792.94 62.03
1109 22.6701 3803.00 3792.60 61.67
1110 22.6843 3707.00 3793.44 60.89
1111 22.6984 3901.00 3793.11 62.46
1112 22.7126 3835.00 3792.78 61.93
1113 22.7268 3852.00 3792.45 62.06
1114 22.7410 3766.00 3792.12 61.37
1115 22.7552 3811.00 3791.79 61.73
1116 22.7694 3822.00 3791.45 61.82
1117 22.7835 3810.00 3791.12 61.73
1118 22.7977 3804.00 3790.78 61.68
1119 22.8119 3785.00 3790.44 61.52
1120 22.8261 3761.00 3790.10 61.33
1121 22.8403 3707.00 3789.75 60.89
1122 22.8545 3767.00 3789.41 61.38
1123 22.8686 3842.00 3789.06 61.98
1124 22.8828 3745.00 3788.71 61.20
1125 22.8970 3904.00 3788.36 62.48
1126 22.9112 3882.00 3788.01 62.31
1127 22.9254 3822.00 3787.65 61.82
1128 22.9396 3814.00 3787.29 61.76
1129 22.9538 3964.00 3786.93 62.96
1130 22.9679 3802.00 3786.57 61.66
1131 22.9821 3738.00 3786.21 61.14
1132 22.9963 3811.00 3785.84 61.73
1133 23.0105 3832.00 3785.47 61.90
1134 23.0247 3800.00 3785.10 61.64
1135 23.0389 3777.00 3784.73 61.46
1136 23.0530 3756.00 3784.36 61.29
1137 23.0672 4034.00 3783.98 63.51
1138 23.0814 3826.00 3783.61 61.85
1139 23.0956 3819.00 3783.23 61.80
1140 23.1098 3899.00 3782.85 62.44
1141 23.1240 3948.00 3782.46 62.83
1142 23.1381 3815.00 3782.08 61.77
1143 23.1523 3745.00 3781.69 61.20
1144 23.1665 3759.00 3781.30 61.31
1145 23.1807 3746.00 3780.92 61.20
1146 23.1949 3854.00 3780.52 62.08
1147 23.2091 3743.00 3780.43 61.18
1148 23.2232 3790.00 3780.04 61.56
1149 23.2374 3836.00 3779.65 61.94
1150 23.2516 3917.00 3779.26 62.59
1151 23.2658 3789.00 3778.86 61.55
1152 23.2800 3831.00 3778.47 61.90
1153 23.2942 3645.00 3778.07 60.37
1154 23.3084 3872.00 3777.67 62.23
1155 23.3225 3767.00 3777.27 61.38
1156 23.3367 3883.00 3776.87 62.31
1157 23.3509 3798.00 3776.47 61.63
1158 23.3651 3712.00 3776.07 60.93
1159 23.3793 3798.00 3775.67 61.63
1160 23.3935 3762.00 3775.26 61.34
1161 23.4076 3695.00 3774.86 60.79
1162 23.4218 3682.00 3774.45 60.68
1163 23.4360 3666.00 3774.04 60.55
1164 23.4502 3789.00 3773.63 61.55
1165 23.4644 3766.00 3773.22 61.37
1166 23.4786 3906.00 3772.80 62.50
1167 23.4927 3687.00 3772.38 60.72
1168 23.5069 3852.00 3771.96 62.06
1169 23.5211 3890.00 3771.53 62.37
1170 23.5353 3784.00 3771.10 61.51
1171 23.5495 3882.00 3771.40 62.31
1172 23.5637 3821.00 3770.97 61.81
1173 23.5778 3789.00 3769.98 61.55
1174 23.5920 3773.00 3769.54 61.42
1175 23.6062 3768.00 3769.10 61.38
1176 23.6204 3867.00 3768.65 62.19
1177 23.6346 3812.00 3768.19 61.74
1178 23.6488 3708.00 3767.72 60.89
1179 23.6630 3852.00 3767.26 62.06
1180 23.6771 3843.00 3766.79 61.99
1181 23.6913 3756.00 3766.33 61.29
1182 23.7055 3809.00 3765.87 61.72
1183 23.7197 3822.00 3765.43 61.82
1184 23.7339 3789.00 3765.02 61.55
1185 23.7481 3708.00 3764.65 60.89
1186 23.7622 3736.00 3764.34 61.12
1187 23.7764 3869.00 3764.11 62.20
1188 23.7906 3781.00 3763.99 61.49
1189 23.8048 3895.00 3764.00 62.41
1190 23.8190 3894.00 3764.18 62.40
1191 23.8332 3761.00 3764.54 61.33
1192 23.8473 3864.00 3765.11 62.16
1193 23.8615 3838.00 3765.87 61.95
1194 23.8757 3646.00 3766.80 60.38
1195 23.8899 3683.00 3767.83 60.69
1196 23.9041 3853.00 3768.85 62.07
1197 23.9183 3735.00 3769.76 61.11
1198 23.9324 3804.00 3770.45 61.68
1199 23.9466 3880.00 3770.83 62.29
1200 23.9608 3800.00 3770.88 61.64
1201 23.9750 3859.00 3770.61 62.12
1202 23.9892 3743.00 3770.05 61.18
1203 24.0034 3714.00 3769.28 60.94
1204 24.0176 3790.00 3768.35 61.56
1205 24.0317 3817.00 3767.33 61.78
1206 24.0459 3902.00 3766.26 62.47
1207 24.0601 3866.00 3765.19 62.18
1208 24.0743 3745.00 3764.14 61.20
1209 24.0885 3751.00 3763.14 61.25
1210 24.1027 3875.00 3762.52 62.25
1211 24.1168 3833.00 3761.67 61.91
1212 24.1310 3699.00 3760.89 60.82
1213 24.1452 3707.00 3760.47 60.89
1214 24.1594 3773.00 3759.85 61.42
1215 24.1736 3727.00 3759.32 61.05
1216 24.1878 3833.00 3758.86 61.91
1217 24.2019 3610.00 3758.47 60.08
1218 24.2161 3744.00 3758.13 61.19
1219 24.2303 3817.00 3757.86 61.78
1220 24.2445 3802.00 3757.63 61.66
1221 24.2587 3778.00 3757.43 61.47
1222 24.2729 3878.00 3757.27 62.27
1223 24.2870 3855.00 3757.13 62.09
1224 24.3012 3781.00 3757.00 61.49
1225 24.3154 3693.00 3756.85 60.77
1226 24.3296 3734.00 3756.69 61.11
1227 24.3438 3772.00 3756.49 61.42
1228 24.3580 3648.00 3756.23 60.40
1229 24.3722 3818.00 3755.91 61.79
1230 24.3863 3783.00 3755.47 61.51
1231 24.4005 3793.00 3754.91 61.59
1232 24.4147 3604.00 3754.19 60.03
1233 24.4289 3705.00 3753.30 60.87
1234 24.4431 3889.00 3752.22 62.36
1235 24.4573 3803.00 3750.91 61.67
1236 24.4714 3691.00 3749.38 60.75
1237 24.4856 3690.00 3747.61 60.75
1238 24.4998 3687.00 3745.57 60.72
1239 24.5140 3789.00 3743.31 61.55
1240 24.5282 3813.00 3740.84 61.75
1241 24.5424 3724.00 3738.24 61.02
1242 24.5565 3681.00 3735.61 60.67
1243 24.5707 3757.00 3733.06 61.29
1244 24.5849 3700.00 3730.83 60.83
1245 24.5991 3761.00 3729.21 61.33
1246 24.6133 3739.00 3728.57 61.15
1247 24.6275 3848.00 3729.41 62.03
1248 24.6416 3697.00 3732.35 60.80
1249 24.6558 3847.00 3738.17 62.02
1250 24.6700 3760.00 3747.76 61.32
1251 24.6842 3675.00 3762.05 60.62
1252 24.6984 3846.00 3782.00 62.02
1253 24.7126 3736.00 3808.33 61.12
1254 24.7268 3827.00 3841.36 61.86
1255 24.7409 3759.00 3880.34 61.31
1256 24.7551 3822.00 3924.35 61.82
1257 24.7693 3868.00 3970.51 62.19
1258 24.7835 3943.00 4015.26 62.79
1259 24.7977 3906.00 4054.70 62.50
1260 24.8119 3914.00 4085.47 62.56
1261 24.8260 4129.00 4105.32 64.26
1262 24.8402 4347.00 4113.95 65.93
1263 24.8544 4242.00 4111.97 65.13
1264 24.8686 4321.00 4101.11 65.73
1265 24.8828 4349.00 4083.46 65.95
1266 24.8970 4230.00 4061.12 65.04
1267 24.9111 4274.00 4036.12 65.38
1268 24.9253 4182.00 4009.57 64.67
1269 24.9395 4205.00 3982.77 64.85
1270 24.9537 4181.00 3956.56 64.66
1271 24.9679 4138.00 3931.49 64.33
1272 24.9821 3858.00 3907.91 62.11
1273 24.9962 3766.00 3886.18 61.37
1274 25.0104 3793.00 3866.06 61.59
1275 25.0246 3696.00 3847.72 60.79
1276 25.0388 3772.00 3831.10 61.42
1277 25.0530 3741.00 3816.12 61.16
1278 25.0672 3760.00 3802.68 61.32
1279 25.0814 3694.00 3790.66 60.78
1280 25.0955 3731.00 3780.03 61.08
1281 25.1097 3629.00 3770.56 60.24
1282 25.1239 3662.00 3762.28 60.51
1283 25.1381 3716.00 3755.16 60.96
1284 25.1523 3775.00 3749.21 61.44
1285 25.1665 3693.00 3744.47 60.77
1286 25.1806 3710.00 3741.07 60.91
1287 25.1948 3704.00 3739.08 60.86
1288 25.2090 3669.00 3738.69 60.57
1289 25.2232 3654.00 3740.09 60.45
1290 25.2374 3806.00 3743.40 61.69
1291 25.2516 3688.00 3748.67 60.73
1292 25.2657 3720.00 3755.69 60.99
1293 25.2799 3520.00 3764.18 59.33
1294 25.2941 3697.00 3773.40 60.80
1295 25.3083 3670.00 3782.39 60.58
1296 25.3225 3604.00 3790.13 60.03
1297 25.3367 3705.00 3795.66 60.87
1298 25.3508 3723.00 3798.38 61.02
1299 25.3650 3809.00 3798.12 61.72
1300 25.3792 3605.00 3795.04 60.04
1301 25.3934 3629.00 3789.61 60.24
1302 25.4076 3517.00 3782.59 59.30
1303 25.4218 3714.00 3774.25 60.94
1304 25.4360 3706.00 3765.36 60.88
1305 25.4501 3735.00 3756.54 61.11
1306 25.4643 3671.00 3748.17 60.59
1307 25.4785 3672.00 3740.82 60.60
1308 25.4927 3729.00 3735.00 61.07
1309 25.5069 3744.00 3731.27 61.19
1310 25.5211 3673.00 3730.23 60.61
1311 25.5352 3771.00 3732.47 61.41
1312 25.5494 3930.00 3738.64 62.69
1313 25.5636 3920.00 3749.25 62.61
1314 25.5778 3834.00 3764.59 61.92
1315 25.5920 4072.00 3784.47 63.81
1316 25.6062 3953.00 3808.29 62.87
1317 25.6203 4205.00 3833.84 64.85
1318 25.6345 4149.00 3859.47 64.41
1319 25.6487 4220.00 3882.47 64.96
1320 25.6629 4279.00 3900.52 65.41
1321 25.6771 4293.00 3912.10 65.52
1322 25.6913 4320.00 3916.67 65.73
1323 25.7054 4459.00 3914.68 66.78
1324 25.7196 4337.00 3907.13 65.86
1325 25.7338 4295.00 3895.35 65.54
1326 25.7480 4318.00 3880.66 65.71
1327 25.7622 4465.00 3864.24 66.82
1328 25.7764 4232.00 3847.00 65.05
1329 25.7906 4170.00 3829.64 64.58
1330 25.8047 4064.00 3812.77 63.75
1331 25.8189 3988.00 3796.47 63.15
1332 25.8331 4032.00 3781.06 63.50
1333 25.8473 4018.00 3766.64 63.39
1334 25.8615 4049.00 3753.25 63.63
1335 25.8757 3893.00 3740.87 62.39
1336 25.8898 3959.00 3729.53 62.92
1337 25.9040 3769.00 3719.01 61.39
1338 25.9182 3862.00 3709.33 62.15
1339 25.9324 3887.00 3700.39 62.35
1340 25.9466 3754.00 3692.13 61.27
1341 25.9608 3652.00 3684.48 60.43
1342 25.9749 3816.00 3677.42 61.77
1343 25.9891 3764.00 3670.82 61.35
1344 26.0033 3798.00 3664.69 61.63
1345 26.0175 3703.00 3659.06 60.85
1346 26.0317 3902.00 3653.95 62.47
1347 26.0459 3659.00 3649.39 60.49
1348 26.0600 3659.00 3645.61 60.49
1349 26.0742 3808.00 3642.68 61.71
1350 26.0884 3674.00 3640.85 60.61
1351 26.1026 3742.00 3640.42 61.17
1352 26.1168 3637.00 3641.72 60.31
1353 26.1310 3684.00 3645.11 60.70
1354 26.1452 3713.00 3651.04 60.93
1355 26.1593 3669.00 3659.56 60.57
1356 26.1735 3769.00 3671.00 61.39
1357 26.1877 3722.00 3685.13 61.01
1358 26.2019 3710.00 3701.47 60.91
1359 26.2161 3758.00 3719.15 61.30
1360 26.2303 3672.00 3737.04 60.60
1361 26.2444 3828.00 3753.82 61.87
1362 26.2586 3829.00 3768.49 61.88
1363 26.2728 3800.00 3779.93 61.64
1364 26.2870 3775.00 3787.47 61.44
1365 26.3012 3725.00 3790.75 61.03
1366 26.3154 3831.00 3789.86 61.90
1367 26.3295 3784.00 3785.24 61.51
1368 26.3437 3752.00 3777.50 61.25
1369 26.3579 3876.00 3767.42 62.26
1370 26.3721 3770.00 3755.77 61.40
1371 26.3863 3851.00 3743.25 62.06
1372 26.4005 3758.00 3730.41 61.30
1373 26.4146 3694.00 3717.77 60.78
1374 26.4288 3665.00 3705.47 60.54
1375 26.4430 3824.00 3693.83 61.84
1376 26.4572 3705.00 3682.98 60.87
1377 26.4714 3630.00 3673.01 60.25
1378 26.4856 3699.00 3663.95 60.82
1379 26.4998 3591.00 3655.79 59.92
1380 26.5139 3521.00 3648.52 59.34
1381 26.5281 3704.00 3641.96 60.86
1382 26.5423 3598.00 3636.05 59.98
1383 26.5565 3612.00 3630.68 60.10
1384 26.5707 3553.00 3625.74 59.61
1385 26.5849 3599.00 3621.16 59.99
1386 26.5990 3515.00 3616.92 59.29
1387 26.6132 3641.00 3612.92 60.34
1388 26.6274 3628.00 3609.21 60.23
1389 26.6416 3526.00 3605.75 59.38
1390 26.6558 3577.00 3602.53 59.81
1391 26.6700 3508.00 3599.51 59.23
1392 26.6841 3533.00 3596.66 59.44
1393 26.6983 3682.00 3593.90 60.68
1394 26.7125 3543.00 3591.19 59.52
1395 26.7267 3531.00 3588.50 59.42
1396 26.7409 3535.00 3585.83 59.46
1397 26.7551 3705.00 3583.17 60.87
1398 26.7692 3710.00 3580.54 60.91
1399 26.7834 3618.00 3577.93 60.15
1400 26.7976 3561.00 3575.37 59.67
1401 26.8118 3564.00 3572.87 59.70
1402 26.8260 3533.00 3570.43 59.44
1403 26.8402 3483.00 3568.06 59.02
1404 26.8544 3508.00 3565.76 59.23
1405 26.8685 3551.00 3563.54 59.59
1406 26.8827 3628.00 3561.38 60.23
1407 26.8969 3509.00 3559.29 59.24
1408 26.9111 3453.00 3556.09 58.76
1409 26.9253 3528.00 3554.13 59.40
1410 26.9395 3494.00 3552.22 59.11
1411 26.9536 3551.00 3550.38 59.59
1412 26.9678 3491.00 3548.56 59.08
1413 26.9820 3537.00 3546.79 59.47
1414 26.9962 3485.00 3545.05 59.03
1415 27.0104 3430.00 3543.35 58.57
1416 27.0246 3438.00 3541.68 58.63
1417 27.0387 3454.00 3540.04 58.77
1418 27.0529 3557.00 3538.42 59.64
1419 27.0671 3499.00 3536.83 59.15
1420 27.0813 3449.00 3535.25 58.73
1421 27.0955 3516.00 3533.73 59.30
1422 27.1097 3501.00 3532.19 59.17
1423 27.1238 3566.00 3530.68 59.72
1424 27.1380 3469.00 3529.17 58.90
1425 27.1522 3499.00 3527.67 59.15
1426 27.1664 3451.00 3526.18 58.75
1427 27.1806 3615.00 3524.71 60.12
1428 27.1948 3409.00 3523.24 58.39
1429 27.2090 3513.00 3521.78 59.27
1430 27.2231 3528.00 3520.33 59.40
1431 27.2373 3443.00 3518.88 58.68
1432 27.2515 3409.00 3517.43 58.39
1433 27.2657 3343.00 3515.98 57.82
1434 27.2799 3522.00 3514.53 59.35
1435 27.2941 3516.00 3513.08 59.30
1436 27.3082 3502.00 3511.63 59.18
1437 27.3224 3520.00 3510.16 59.33
1438 27.3366 3525.00 3508.68 59.37
1439 27.3508 3377.00 3507.19 58.11
1440 27.3650 3459.00 3505.67 58.81
1441 27.3792 3442.00 3504.14 58.67
1442 27.3933 3453.00 3502.59 58.76
1443 27.4075 3457.00 3501.00 58.80
1444 27.4217 3433.00 3499.37 58.59
1445 27.4359 3382.00 3497.41 58.15
1446 27.4501 3346.00 3495.71 57.84
1447 27.4643 3554.00 3493.97 59.62
1448 27.4784 3541.00 3492.19 59.51
1449 27.4926 3297.00 3490.35 57.42
1450 27.5068 3367.00 3488.45 58.03
1451 27.5210 3364.00 3486.51 58.00
1452 27.5352 3448.00 3484.52 58.72
1453 27.5494 3366.00 3482.50 58.02
1454 27.5636 3421.00 3480.45 58.49
1455 27.5777 3510.00 3478.41 59.25
1456 27.5919 3395.00 3476.38 58.27
1457 27.6061 3448.00 3474.42 58.72
1458 27.6203 3517.00 3472.57 59.30
1459 27.6345 3347.00 3470.89 57.85
1460 27.6487 3513.00 3469.47 59.27
1461 27.6628 3462.00 3468.41 58.84
1462 27.6770 3425.00 3467.80 58.52
1463 27.6912 3356.00 3467.77 57.93
1464 27.7054 3427.00 3468.44 58.54
1465 27.7196 3452.00 3469.93 58.75
1466 27.7338 3364.00 3472.30 58.00
1467 27.7479 3272.00 3474.84 57.20
1468 27.7621 3389.00 3478.99 58.22
1469 27.7763 3357.00 3483.83 57.94
1470 27.7905 3373.00 3489.06 58.08
1471 27.8047 3364.00 3494.28 58.00
1472 27.8189 3498.00 3499.06 59.14
1473 27.8330 3371.00 3502.95 58.06
1474 27.8472 3395.00 3505.72 58.27
1475 27.8614 3377.00 3507.18 58.11
1476 27.8756 3368.00 3507.38 58.03
1477 27.8898 3456.00 3506.52 58.79
1478 27.9040 3385.00 3504.90 58.18
1479 27.9182 3507.00 3502.92 59.22
1480 27.9323 3315.00 3500.97 57.58
1481 27.9465 3325.00 3499.39 57.66
1482 27.9607 3362.00 3498.53 57.98
1483 27.9749 3339.00 3498.62 57.78
1484 27.9891 3447.00 3499.77 58.71
1485 28.0033 3428.00 3501.98 58.55
1486 28.0174 3497.00 3505.01 59.14
1487 28.0316 3333.00 3508.59 57.73
1488 28.0458 3434.00 3512.20 58.60
1489 28.0600 3370.00 3515.33 58.05
1490 28.0742 3405.00 3517.49 58.35
1491 28.0884 3478.00 3518.31 58.97
1492 28.1025 3397.00 3517.61 58.28
1493 28.1167 3506.00 3515.33 59.21
1494 28.1309 3423.00 3511.62 58.51
1495 28.1451 3520.00 3506.67 59.33
1496 28.1593 3442.00 3500.75 58.67
1497 28.1735 3453.00 3494.13 58.76
1498 28.1876 3473.00 3487.10 58.93
1499 28.2018 3447.00 3479.78 58.71
1500 28.2160 3313.00 3472.39 57.56
1501 28.2302 3468.00 3465.06 58.89
1502 28.2444 3544.00 3457.90 59.53
1503 28.2586 3431.00 3450.99 58.57
1504 28.2728 3363.00 3444.36 57.99
1505 28.2869 3401.00 3438.09 58.32
1506 28.3011 3395.00 3432.10 58.27
1507 28.3153 3496.00 3426.45 59.13
1508 28.3295 3412.00 3421.12 58.41
1509 28.3437 3345.00 3416.10 57.84
1510 28.3579 3399.00 3411.06 58.30
1511 28.3720 3303.00 3406.62 57.47
1512 28.3862 3413.00 3402.40 58.42
1513 28.4004 3418.00 3398.39 58.46
1514 28.4146 3340.00 3394.58 57.79
1515 28.4288 3386.00 3390.69 58.19
1516 28.4430 3198.00 3387.24 56.55
1517 28.4571 3295.00 3383.97 57.40
1518 28.4713 3438.00 3380.83 58.63
1519 28.4855 3313.00 3377.84 57.56
1520 28.4997 3283.00 3375.02 57.30
1521 28.5139 3289.00 3372.37 57.35
1522 28.5281 3424.00 3369.92 58.51
1523 28.5422 3364.00 3367.71 58.00
1524 28.5564 3411.00 3365.74 58.40
1525 28.5706 3368.00 3364.07 58.03
1526 28.5848 3249.00 3362.73 57.00
1527 28.5990 3318.00 3361.78 57.60
1528 28.6132 3325.00 3361.24 57.66
1529 28.6274 3386.00 3361.14 58.19
1530 28.6415 3303.00 3361.47 57.47
1531 28.6557 3362.00 3362.19 57.98
1532 28.6699 3193.00 3363.22 56.51
1533 28.6841 3286.00 3364.46 57.32
1534 28.6983 3359.00 3365.92 57.96
1535 28.7125 3412.00 3367.10 58.41
1536 28.7266 3393.00 3368.03 58.25
1537 28.7408 3375.00 3368.56 58.09
1538 28.7550 3265.00 3368.68 57.14
1539 28.7692 3218.00 3368.32 56.73
1540 28.7834 3287.00 3367.51 57.33
1541 28.7976 3368.00 3366.27 58.03
1542 28.8117 3263.00 3364.66 57.12
1543 28.8259 3262.00 3362.69 57.11
1544 28.8401 3305.00 3360.40 57.49
1545 28.8543 3259.00 3357.82 57.09
1546 28.8685 3307.00 3354.96 57.51
1547 28.8827 3373.00 3351.92 58.08
1548 28.8968 3270.00 3348.63 57.18
1549 28.9110 3262.00 3345.17 57.11
1550 28.9252 3258.00 3341.59 57.08
1551 28.9394 3217.00 3337.95 56.72
1552 28.9536 3319.00 3334.28 57.61
1553 28.9678 3412.00 3330.61 58.41
1554 28.9820 3419.00 3326.99 58.47
1555 28.9961 3370.00 3323.46 58.05
1556 29.0103 3233.00 3319.98 56.86
1557 29.0245 3173.00 3316.60 56.33
1558 29.0387 3273.00 3313.31 57.21
1559 29.0529 3339.00 3310.13 57.78
1560 29.0671 3306.00 3307.04 57.50
1561 29.0812 3323.00 3304.08 57.65
1562 29.0954 3287.00 3301.19 57.33
1563 29.1096 3251.00 3298.39 57.02
1564 29.1238 3321.00 3295.68 57.63
1565 29.1380 3192.00 3293.05 56.50
1566 29.1522 3271.00 3290.49 57.19
1567 29.1663 3183.00 3288.34 56.42
1568 29.1805 3245.00 3285.91 56.96
1569 29.1947 3209.00 3283.53 56.65
1570 29.2089 3296.00 3281.20 57.41
1571 29.2231 3269.00 3278.92 57.18
1572 29.2373 3211.00 3276.67 56.67
1573 29.2514 3291.00 3274.48 57.37
1574 29.2656 3176.00 3272.29 56.36
1575 29.2798 3192.00 3270.14 56.50
1576 29.2940 3291.00 3268.01 57.37
1577 29.3082 3379.00 3265.89 58.13
1578 29.3224 3285.00 3263.79 57.31
1579 29.3366 3263.00 3261.71 57.12
1580 29.3507 3197.00 3259.65 56.54
1581 29.3649 3267.00 3257.58 57.16
1582 29.3791 3230.00 3255.52 56.83
1583 29.3933 3321.00 3253.46 57.63
1584 29.4075 3213.00 3251.41 56.68
1585 29.4217 3273.00 3249.36 57.21
1586 29.4358 3323.00 3247.32 57.65
1587 29.4500 3275.00 3245.27 57.23
1588 29.4642 3258.00 3243.22 57.08
1589 29.4784 3321.00 3241.16 57.63
1590 29.4926 3255.00 3239.09 57.05
1591 29.5068 3254.00 3237.02 57.04
1592 29.5209 3238.00 3234.96 56.90
1593 29.5351 3078.00 3232.87 55.48
1594 29.5493 3158.00 3230.78 56.20
1595 29.5635 3218.00 3228.69 56.73
1596 29.5777 3182.00 3226.59 56.41
1597 29.5919 3325.00 3224.49 57.66
1598 29.6060 3250.00 3222.40 57.01
1599 29.6202 3204.00 3220.30 56.60
1600 29.6344 3212.00 3218.22 56.67
1601 29.6486 3112.00 3216.15 55.79
1602 29.6628 3162.00 3214.11 56.23
1603 29.6770 3271.00 3212.12 57.19
1604 29.6912 3180.00 3210.17 56.39
1605 29.7053 3069.00 3208.31 55.40
1606 29.7195 3130.00 3206.88 55.95
1607 29.7337 3093.00 3205.19 55.61
1608 29.7479 3162.00 3203.64 56.23
1609 29.7621 3267.00 3202.22 57.16
1610 29.7763 3217.00 3200.96 56.72
1611 29.7904 3257.00 3199.88 57.07
1612 29.8046 3106.00 3198.96 55.73
1613 29.8188 3181.00 3198.19 56.40
1614 29.8330 3135.00 3197.56 55.99
1615 29.8472 3271.00 3197.02 57.19
1616 29.8614 3209.00 3196.51 56.65
1617 29.8755 3158.00 3195.98 56.20
1618 29.8897 3217.00 3195.35 56.72
1619 29.9039 3122.00 3194.54 55.87
1620 29.9181 3254.00 3193.53 57.04
1621 29.9323 3155.00 3192.25 56.17
1622 29.9465 3233.00 3190.72 56.86
1623 29.9606 3174.00 3188.93 56.34
1624 29.9748 3239.00 3186.90 56.91
1625 29.9890 3316.00 3184.66 57.58
1626 30.0032 3255.00 3182.23 57.05
1627 30.0174 3218.00 3179.67 56.73
1628 30.0316 3122.00 3177.01 55.87
1629 30.0458 3164.00 3174.27 56.25
1630 30.0599 3209.00 3171.50 56.65
1631 30.0741 3178.00 3168.70 56.37
1632 30.0883 3090.00 3165.89 55.59
1633 30.1025 3178.00 3163.09 56.37
1634 30.1167 3160.00 3160.33 56.21
1635 30.1309 3158.00 3157.60 56.20
1636 30.1450 3181.00 3154.93 56.40
1637 30.1592 3121.00 3152.28 55.87
1638 30.1734 3192.00 3149.69 56.50
1639 30.1876 3106.00 3147.15 55.73
1640 30.2018 3044.00 3144.66 55.17
1641 30.2160 3035.00 3142.22 55.09
1642 30.2301 3176.00 3139.85 56.36
1643 30.2443 3112.00 3137.32 55.79
1644 30.2585 3211.00 3135.00 56.67
1645 30.2727 3115.00 3132.73 55.81
1646 30.2869 3169.00 3130.48 56.29
1647 30.3011 3111.00 3128.26 55.78
1648 30.3152 3198.00 3126.07 56.55
1649 30.3294 3085.00 3124.10 55.54
1650 30.3436 3132.00 3121.93 55.96
1651 30.3578 3123.00 3119.77 55.88
1652 30.3720 3035.00 3117.62 55.09
1653 30.3862 3176.00 3115.48 56.36
1654 30.4004 3168.00 3113.35 56.28
1655 30.4145 3149.00 3111.44 56.12
1656 30.4287 3140.00 3109.32 56.04
1657 30.4429 3171.00 3107.21 56.31
1658 30.4571 3053.00 3105.11 55.25
1659 30.4713 3137.00 3103.02 56.01
1660 30.4855 3078.00 3100.93 55.48
1661 30.4996 3088.00 3098.88 55.57
1662 30.5138 3152.00 3096.58 56.14
1663 30.5280 3029.00 3094.51 55.04
1664 30.5422 3142.00 3092.45 56.05
1665 30.5564 3097.00 3090.39 55.65
1666 30.5706 3184.00 3088.34 56.43
1667 30.5847 3083.00 3086.30 55.52
1668 30.5989 3110.00 3084.26 55.77
1669 30.6131 3149.00 3082.22 56.12
1670 30.6273 3091.00 3080.18 55.60
1671 30.6415 3045.00 3078.15 55.18
1672 30.6557 3115.00 3076.12 55.81
1673 30.6698 3111.00 3074.11 55.78
1674 30.6840 3061.00 3072.09 55.33
1675 30.6982 3133.00 3070.07 55.97
1676 30.7124 3058.00 3068.06 55.30
1677 30.7266 2994.00 3066.05 54.72
1678 30.7408 3082.00 3064.04 55.52
1679 30.7550 3049.00 3062.03 55.22
1680 30.7691 2987.00 3060.04 54.65
1681 30.7833 3111.00 3058.04 55.78
1682 30.7975 3038.00 3056.04 55.12
1683 30.8117 3014.00 3054.05 54.90
1684 30.8259 3096.00 3052.50 55.64
1685 30.8401 3114.00 3050.51 55.80
1686 30.8542 3112.00 3048.54 55.79
1687 30.8684 2947.00 3046.56 54.29
1688 30.8826 3164.00 3044.58 56.25
1689 30.8968 2958.00 3042.60 54.39
1690 30.9110 2955.00 3040.73 54.36
1691 30.9252 3104.00 3038.76 55.71
1692 30.9393 3027.00 3036.81 55.02
1693 30.9535 2974.00 3034.84 54.53
1694 30.9677 3014.00 3032.87 54.90
1695 30.9819 3038.00 3030.91 55.12
1696 30.9961 3072.00 3028.95 55.43
1697 31.0103 3007.00 3026.99 54.84
1698 31.0244 2993.00 3025.05 54.71
1699 31.0386 3230.00 3023.09 56.83
1700 31.0528 2978.00 3021.13 54.57
1701 31.0670 3040.00 3019.18 55.14
1702 31.0812 3032.00 3017.22 55.06
1703 31.0954 2992.00 3015.26 54.70
1704 31.1096 3020.00 3013.30 54.95
1705 31.1237 3049.00 3011.35 55.22
1706 31.1379 2920.00 3009.39 54.04
1707 31.1521 2981.00 3007.42 54.60
1708 31.1663 2981.00 3005.44 54.60
1709 31.1805 3043.00 3003.46 55.16
1710 31.1947 2985.00 3001.47 54.64
1711 31.2088 2945.00 2999.48 54.27
1712 31.2230 2880.00 2997.47 53.67
1713 31.2372 3004.00 2995.45 54.81
1714 31.2514 3051.00 2993.42 55.24
1715 31.2656 2967.00 2991.37 54.47
1716 31.2798 2920.00 2989.30 54.04
1717 31.2939 3028.00 2987.15 55.03
1718 31.3081 3110.00 2985.04 55.77
1719 31.3223 2941.00 2982.91 54.23
1720 31.3365 3052.00 2980.75 55.24
1721 31.3507 2973.00 2978.57 54.53
1722 31.3649 2870.00 2976.35 53.57
1723 31.3790 3118.00 2974.12 55.84
1724 31.3932 3010.00 2971.83 54.86
1725 31.4074 2985.00 2969.51 54.64
1726 31.4216 2963.00 2967.15 54.43
1727 31.4358 2888.00 2964.75 53.74
1728 31.4500 3029.00 2962.28 55.04
1729 31.4642 3020.00 2959.80 54.95
1730 31.4783 2966.00 2957.30 54.46
1731 31.4925 2988.00 2954.76 54.66
1732 31.5067 2904.00 2952.18 53.89
1733 31.5209 2916.00 2949.58 54.00
1734 31.5351 2874.00 2946.98 53.61
1735 31.5493 2842.00 2944.40 53.31
1736 31.5634 2840.00 2941.88 53.29
1737 31.5776 2909.00 2939.41 53.94
1738 31.5918 3039.00 2937.05 55.13
1739 31.6060 2994.00 2934.84 54.72
1740 31.6202 3000.00 2932.84 54.77
1741 31.6344 2954.00 2931.10 54.35
1742 31.6485 2898.00 2929.70 53.83
1743 31.6627 2970.00 2928.68 54.50
1744 31.6769 2936.00 2928.13 54.18
1745 31.6911 2965.00 2928.12 54.45
1746 31.7053 2892.00 2928.72 53.78
1747 31.7195 3037.00 2929.97 55.11
1748 31.7336 2943.00 2931.89 54.25
1749 31.7478 2897.00 2934.52 53.82
1750 31.7620 2877.00 2937.81 53.64
1751 31.7762 2898.00 2941.70 53.83
1752 31.7904 2935.00 2946.05 54.18
1753 31.8046 2975.00 2950.70 54.54
1754 31.8188 2953.00 2955.43 54.34
1755 31.8329 2987.00 2959.98 54.65
1756 31.8471 3042.00 2964.18 55.15
1757 31.8613 2949.00 2967.78 54.30
1758 31.8755 3061.00 2970.60 55.33
1759 31.8897 2959.00 2972.52 54.40
1760 31.9039 3005.00 2973.51 54.82
1761 31.9180 3139.00 2973.56 56.03
1762 31.9322 3115.00 2972.73 55.81
1763 31.9464 3137.00 2971.10 56.01
1764 31.9606 3206.00 2968.80 56.62
1765 31.9748 3076.00 2965.93 55.46
1766 31.9890 3178.00 2962.59 56.37
1767 32.0031 3122.00 2958.91 55.87
1768 32.0173 3019.00 2954.90 54.95
1769 32.0315 3069.00 2950.62 55.40
1770 32.0457 3116.00 2946.11 55.82
1771 32.0599 3061.00 2941.37 55.33
1772 32.0741 3052.00 2936.42 55.24
1773 32.0882 3057.00 2931.29 55.29
1774 32.1024 2985.00 2925.95 54.64
1775 32.1166 3034.00 2920.45 55.08
1776 32.1308 2913.00 2914.86 53.97
1777 32.1450 2926.00 2909.27 54.09
1778 32.1592 3003.00 2903.75 54.80
1779 32.1734 2966.00 2898.43 54.46
1780 32.1875 3000.00 2893.47 54.77
1781 32.2017 2967.00 2888.93 54.47
1782 32.2159 3006.00 2885.00 54.83
1783 32.2301 3003.00 2881.83 54.80
1784 32.2443 2900.00 2879.57 53.85
1785 32.2585 2850.00 2878.38 53.39
1786 32.2726 2980.00 2878.39 54.59
1787 32.2868 2875.00 2879.72 53.62
1788 32.3010 2924.00 2882.46 54.07
1789 32.3152 2900.00 2886.66 53.85
1790 32.3294 2743.00 2892.30 52.37
1791 32.3436 2892.00 2899.29 53.78
1792 32.3577 2922.00 2907.41 54.06
1793 32.3719 2757.00 2916.51 52.51
1794 32.3861 2885.00 2926.18 53.71
1795 32.4003 2869.00 2936.01 53.56
1796 32.4145 2908.00 2945.56 53.93
1797 32.4287 2902.00 2954.37 53.87
1798 32.4428 2927.00 2961.96 54.10
1799 32.4570 3089.00 2968.11 55.58
1800 32.4712 3058.00 2972.50 55.30
1801 32.4854 3028.00 2975.01 55.03
1802 32.4996 3043.00 2975.58 55.16
1803 32.5138 3097.00 2974.27 55.65
1804 32.5280 3190.00 2971.21 56.48
1805 32.5421 3104.00 2966.60 55.71
1806 32.5563 3237.00 2960.57 56.89
1807 32.5705 3204.00 2953.36 56.60
1808 32.5847 3062.00 2945.18 55.34
1809 32.5989 3090.00 2936.24 55.59
1810 32.6131 3094.00 2926.71 55.62
1811 32.6272 3064.00 2916.84 55.35
1812 32.6414 2916.00 2906.64 54.00
1813 32.6556 2949.00 2896.31 54.30
1814 32.6698 2976.00 2885.97 54.55
1815 32.6840 3015.00 2875.67 54.91
1816 32.6982 2970.00 2865.57 54.50
1817 32.7123 2957.00 2855.77 54.38
1818 32.7265 2867.00 2846.18 53.54
1819 32.7407 2846.00 2836.92 53.35
1820 32.7549 2828.00 2828.03 53.18
1821 32.7691 2806.00 2819.56 52.97
1822 32.7833 2803.00 2811.55 52.94
1823 32.7974 2813.00 2804.09 53.04
1824 32.8116 2916.00 2797.12 54.00
1825 32.8258 2844.00 2790.77 53.33
1826 32.8400 2818.00 2785.10 53.08
1827 32.8542 2872.00 2780.20 53.59
1828 32.8684 2832.00 2776.15 53.22
1829 32.8826 2760.00 2773.07 52.54
1830 32.8967 2830.00 2771.07 53.20
1831 32.9109 2893.00 2770.24 53.79
1832 32.9251 2795.00 2770.71 52.87
1833 32.9393 2775.00 2772.58 52.68
1834 32.9535 2836.00 2775.94 53.25
1835 32.9677 2834.00 2780.84 53.24
1836 32.9818 2699.00 2787.24 51.95
1837 32.9960 2781.00 2795.19 52.74
1838 33.0102 2756.00 2804.52 52.50
1839 33.0244 2806.00 2815.05 52.97
1840 33.0386 2845.00 2826.46 53.34
1841 33.0528 2712.00 2838.39 52.08
1842 33.0669 2774.00 2850.35 52.67
1843 33.0811 2801.00 2862.02 52.92
1844 33.0953 2867.00 2872.87 53.54
1845 33.1095 2832.00 2882.46 53.22
1846 33.1237 2862.00 2890.52 53.50
1847 33.1379 2859.00 2896.61 53.47
1848 33.1520 2853.00 2900.65 53.41
1849 33.1662 2855.00 2902.64 53.43
1850 33.1804 2911.00 2902.57 53.95
1851 33.1946 2865.00 2900.57 53.53
1852 33.2088 2910.00 2896.81 53.94
1853 33.2230 2860.00 2891.48 53.48
1854 33.2372 2903.00 2884.80 53.88
1855 33.2513 2838.00 2877.07 53.27
1856 33.2655 2868.00 2868.38 53.55
1857 33.2797 2851.00 2858.99 53.39
1858 33.2939 2805.00 2849.10 52.96
1859 33.3081 2901.00 2838.86 53.86
1860 33.3223 2814.00 2828.44 53.05
1861 33.3364 2727.00 2818.03 52.22
1862 33.3506 2775.00 2807.59 52.68
1863 33.3648 2800.00 2797.28 52.92
1864 33.3790 2757.00 2787.16 52.51
1865 33.3932 2787.00 2777.30 52.79
1866 33.4074 2749.00 2767.72 52.43
1867 33.4215 2741.00 2758.53 52.35
1868 33.4357 2754.00 2749.59 52.48
1869 33.4499 2831.00 2740.98 53.21
1870 33.4641 2731.00 2732.71 52.26
1871 33.4783 2688.00 2724.78 51.85
1872 33.4925 2750.00 2717.19 52.44
1873 33.5066 2684.00 2709.96 51.81
1874 33.5208 2652.00 2703.02 51.50
1875 33.5350 2708.00 2696.41 52.04
1876 33.5492 2730.00 2690.17 52.25
1877 33.5634 2745.00 2684.31 52.39
1878 33.5776 2764.00 2678.86 52.57
1879 33.5918 2716.00 2673.89 52.12
1880 33.6059 2739.00 2669.46 52.34
1881 33.6201 2662.00 2665.59 51.59
1882 33.6343 2751.00 2662.39 52.45
1883 33.6485 2631.00 2659.94 51.29
1884 33.6627 2617.00 2658.34 51.16
1885 33.6769 2676.00 2657.68 51.73
1886 33.6910 2728.00 2658.05 52.23
1887 33.7052 2669.00 2659.55 51.66
1888 33.7194 2721.00 2662.24 52.16
1889 33.7336 2701.00 2666.24 51.97
1890 33.7478 2772.00 2671.44 52.65
1891 33.7620 2618.00 2677.88 51.17
1892 33.7761 2687.00 2685.44 51.84
1893 33.7903 2633.00 2694.12 51.31
1894 33.8045 2716.00 2703.71 52.12
1895 33.8187 2730.00 2714.00 52.25
1896 33.8329 2629.00 2724.77 51.27
1897 33.8471 2712.00 2735.75 52.08
1898 33.8612 2732.00 2746.60 52.27
1899 33.8754 2865.00 2757.20 53.53
1900 33.8896 2700.00 2767.23 51.96
1901 33.9038 2727.00 2776.42 52.22
1902 33.9180 2688.00 2784.56 51.85
1903 33.9322 2668.00 2791.44 51.65
1904 33.9464 2755.00 2796.88 52.49
1905 33.9605 2751.00 2800.71 52.45
1906 33.9747 2654.00 2802.88 51.52
1907 33.9889 2609.00 2803.30 51.08
1908 34.0031 2667.00 2801.96 51.64
1909 34.0173 2752.00 2798.89 52.46
1910 34.0315 2755.00 2794.19 52.49
1911 34.0456 2718.00 2788.02 52.13
1912 34.0598 2610.00 2780.44 51.09
1913 34.0740 2651.00 2771.66 51.49
1914 34.0882 2684.00 2761.86 51.81
1915 34.1024 2734.00 2751.23 52.29
1916 34.1166 2693.00 2739.99 51.89
1917 34.1307 2674.00 2728.41 51.71
1918 34.1449 2627.00 2716.53 51.25
1919 34.1591 2751.00 2704.66 52.45
1920 34.1733 2537.00 2692.98 50.37
1921 34.1875 2702.00 2681.71 51.98
1922 34.2017 2609.00 2671.05 51.08
1923 34.2158 2714.00 2661.27 52.10
1924 34.2300 2697.00 2652.45 51.93
1925 34.2442 2641.00 2644.85 51.39
1926 34.2584 2697.00 2638.68 51.93
1927 34.2726 2771.00 2634.12 52.64
1928 34.2868 2686.00 2631.36 51.83
1929 34.3010 2573.00 2630.55 50.72
1930 34.3151 2585.00 2631.82 50.84
1931 34.3293 2750.00 2635.27 52.44
1932 34.3435 2701.00 2640.98 51.97
1933 34.3577 2716.00 2648.87 52.12
1934 34.3719 2718.00 2658.90 52.13
1935 34.3861 2673.00 2670.87 51.70
1936 34.4002 2752.00 2684.43 52.46
1937 34.4144 2697.00 2699.42 51.93
1938 34.4286 2694.00 2715.33 51.90
1939 34.4428 2796.00 2731.67 52.88
1940 34.4570 2661.00 2747.92 51.58
1941 34.4712 2737.00 2763.57 52.32
1942 34.4853 2797.00 2778.06 52.89
1943 34.4995 2706.00 2791.16 52.02
1944 34.5137 2765.00 2802.42 52.58
1945 34.5279 2826.00 2811.58 53.16
1946 34.5421 2710.00 2818.47 52.06
1947 34.5563 2875.00 2823.02 53.62
1948 34.5704 2792.00 2825.20 52.84
1949 34.5846 2833.00 2825.09 53.23
1950 34.5988 2819.00 2822.78 53.09
1951 34.6130 2805.00 2818.41 52.96
1952 34.6272 2739.00 2812.17 52.34
1953 34.6414 2877.00 2804.26 53.64
1954 34.6556 2746.00 2794.91 52.40
1955 34.6697 2775.00 2784.44 52.68
1956 34.6839 2754.00 2772.91 52.48
1957 34.6981 2714.00 2760.63 52.10
1958 34.7123 2748.00 2747.80 52.42
1959 34.7265 2695.00 2734.62 51.91
1960 34.7407 2713.00 2721.28 52.09
1961 34.7548 2673.00 2708.02 51.70
1962 34.7690 2682.00 2694.78 51.79
1963 34.7832 2721.00 2681.79 52.16
1964 34.7974 2641.00 2669.13 51.39
1965 34.8116 2695.00 2656.87 51.91
1966 34.8258 2617.00 2645.07 51.16
1967 34.8399 2632.00 2633.87 51.30
1968 34.8541 2608.00 2623.11 51.07
1969 34.8683 2562.00 2612.90 50.62
1970 34.8825 2577.00 2603.24 50.76
1971 34.8967 2568.00 2594.12 50.68
1972 34.9109 2577.00 2585.54 50.76
1973 34.9250 2563.00 2577.54 50.63
1974 34.9392 2569.00 2569.97 50.69
1975 34.9534 2605.00 2562.87 51.04
1976 34.9676 2675.00 2556.22 51.72
1977 34.9818 2596.00 2550.00 50.95
1978 34.9960 2565.00 2544.00 50.65
1979 35.0102 2508.00 2538.54 50.08
1980 35.0243 2626.00 2533.47 51.24
1981 35.0385 2490.00 2528.71 49.90
1982 35.0527 2501.00 2524.23 50.01
1983 35.0669 2483.00 2520.03 49.83
1984 35.0811 2538.00 2516.10 50.38
1985 35.0953 2608.00 2512.42 51.07
1986 35.1094 2489.00 2508.99 49.89
1987 35.1236 2518.00 2505.76 50.18
1988 35.1378 2492.00 2502.74 49.92
1989 35.1520 2540.00 2499.90 50.40
1990 35.1662 2484.00 2497.25 49.84
1991 35.1804 2531.00 2494.76 50.31
1992 35.1945 2503.00 2492.44 50.03
1993 35.2087 2443.00 2490.23 49.43
1994 35.2229 2465.00 2488.13 49.65
1995 35.2371 2586.00 2486.14 50.85
1996 35.2513 2461.00 2484.17 49.61
1997 35.2655 2495.00 2482.32 49.95
1998 35.2796 2471.00 2480.52 49.71
1999 35.2938 2432.00 2478.73 49.32
2000 35.3080 2489.00 2476.96 49.89
2001 35.3222 2439.00 2475.19 49.39
2002 35.3364 2584.00 2473.41 50.83
2003 35.3506 2507.00 2471.62 50.07
2004 35.3648 2453.00 2469.80 49.53
2005 35.3789 2506.00 2467.98 50.06
2006 35.3931 2431.00 2466.12 49.31
2007 35.4073 2343.00 2464.25 48.40
2008 35.4215 2459.00 2462.36 49.59
2009 35.4357 2417.00 2460.45 49.16
2010 35.4499 2463.00 2458.54 49.63
2011 35.4640 2456.00 2456.63 49.56
2012 35.4782 2471.00 2454.71 49.71
2013 35.4924 2419.00 2452.79 49.18
2014 35.5066 2442.00 2450.87 49.42
2015 35.5208 2451.00 2448.96 49.51
2016 35.5350 2543.00 2447.07 50.43
2017 35.5491 2443.00 2445.20 49.43
2018 35.5633 2405.00 2443.33 49.04
2019 35.5775 2417.00 2441.48 49.16
2020 35.5917 2429.00 2439.66 49.28
2021 35.6059 2406.00 2437.86 49.05
2022 35.6201 2455.00 2436.08 49.55
2023 35.6342 2404.00 2434.34 49.03
2024 35.6484 2430.00 2432.61 49.29
2025 35.6626 2432.00 2430.91 49.32
2026 35.6768 2495.00 2428.92 49.95
2027 35.6910 2523.00 2427.28 50.23
2028 35.7052 2471.00 2425.67 49.71
2029 35.7194 2477.00 2424.10 49.77
2030 35.7335 2407.00 2422.57 49.06
2031 35.7477 2453.00 2421.07 49.53
2032 35.7619 2406.00 2419.60 49.05
2033 35.7761 2438.00 2418.17 49.38
2034 35.7903 2368.00 2416.78 48.66
2035 35.8045 2527.00 2415.43 50.27
2036 35.8186 2443.00 2414.12 49.43
2037 35.8328 2433.00 2412.84 49.33
2038 35.8470 2380.00 2411.61 48.79
2039 35.8612 2409.00 2410.41 49.08
2040 35.8754 2460.00 2409.46 49.60
2041 35.8896 2417.00 2408.32 49.16
2042 35.9037 2457.00 2407.22 49.57
2043 35.9179 2387.00 2406.13 48.86
2044 35.9321 2461.00 2405.05 49.61
2045 35.9463 2385.00 2403.98 48.84
2046 35.9605 2302.00 2402.91 47.98
2047 35.9747 2314.00 2401.84 48.10
2048 35.9888 2490.00 2400.76 49.90
2049 36.0030 2392.00 2399.76 48.91
2050 36.0172 2508.00 2398.64 50.08
2051 36.0314 2443.00 2397.50 49.43
2052 36.0456 2494.00 2396.34 49.94
2053 36.0598 2449.00 2395.15 49.49
2054 36.0740 2440.00 2393.94 49.40
2055 36.0881 2405.00 2392.71 49.04
2056 36.1023 2413.00 2391.46 49.12
2057 36.1165 2456.00 2390.18 49.56
2058 36.1307 2433.00 2388.88 49.33
2059 36.1449 2384.00 2387.56 48.83
2060 36.1591 2367.00 2386.23 48.65
2061 36.1732 2452.00 2384.90 49.52
2062 36.1874 2403.00 2383.54 49.02
2063 36.2016 2349.00 2382.18 48.47
2064 36.2158 2444.00 2380.82 49.44
2065 36.2300 2367.00 2379.45 48.65
2066 36.2442 2541.00 2378.12 50.41
2067 36.2583 2427.00 2376.77 49.26
2068 36.2725 2456.00 2375.41 49.56
2069 36.2867 2320.00 2374.05 48.17
2070 36.3009 2370.00 2372.70 48.68
2071 36.3151 2370.00 2371.35 48.68
2072 36.3293 2378.00 2370.01 48.76
2073 36.3434 2369.00 2368.70 48.67
2074 36.3576 2381.00 2367.37 48.80
2075 36.3718 2331.00 2366.06 48.28
2076 36.3860 2515.00 2364.76 50.15
2077 36.4002 2349.00 2363.47 48.47
2078 36.4144 2372.00 2362.18 48.70
2079 36.4286 2364.00 2360.90 48.62
2080 36.4427 2344.00 2359.64 48.41
2081 36.4569 2362.00 2358.37 48.60
2082 36.4711 2411.00 2356.76 49.10
2083 36.4853 2384.00 2355.50 48.83
2084 36.4995 2329.00 2354.26 48.26
2085 36.5137 2422.00 2353.01 49.21
2086 36.5278 2361.00 2351.77 48.59
2087 36.5420 2397.00 2350.53 48.96
2088 36.5562 2328.00 2349.28 48.25
2089 36.5704 2351.00 2348.04 48.49
2090 36.5846 2377.00 2346.79 48.75
2091 36.5988 2337.00 2345.54 48.34
2092 36.6129 2428.00 2344.29 49.27
2093 36.6271 2301.00 2343.03 47.97
2094 36.6413 2362.00 2341.76 48.60
2095 36.6555 2402.00 2340.48 49.01
2096 36.6697 2339.00 2339.19 48.36
2097 36.6839 2336.00 2337.90 48.33
2098 36.6980 2327.00 2336.60 48.24
2099 36.7122 2262.00 2335.27 47.56
2100 36.7264 2344.00 2333.94 48.41
2101 36.7406 2320.00 2332.59 48.17
2102 36.7548 2317.00 2331.22 48.14
2103 36.7690 2302.00 2329.84 47.98
2104 36.7832 2343.00 2328.45 48.40
2105 36.7973 2249.00 2327.05 47.42
2106 36.8115 2324.00 2325.62 48.21
2107 36.8257 2259.00 2324.19 47.53
2108 36.8399 2341.00 2322.77 48.38
2109 36.8541 2339.00 2321.32 48.36
2110 36.8683 2347.00 2319.88 48.45
2111 36.8824 2419.00 2318.45 49.18
2112 36.8966 2297.00 2317.02 47.93
2113 36.9108 2371.00 2315.63 48.69
2114 36.9250 2397.00 2314.26 48.96
2115 36.9392 2380.00 2312.94 48.79
2116 36.9534 2311.00 2311.68 48.07
2117 36.9675 2256.00 2310.51 47.50
2118 36.9817 2234.00 2309.42 47.27
2119 36.9959 2322.00 2308.44 48.19
2120 37.0101 2374.00 2307.59 48.72
2121 37.0243 2297.00 2306.89 47.93
2122 37.0385 2252.00 2306.36 47.46
2123 37.0526 2446.00 2306.02 49.46
2124 37.0668 2262.00 2305.90 47.56
2125 37.0810 2333.00 2306.00 48.30
2126 37.0952 2329.00 2306.34 48.26
2127 37.1094 2320.00 2306.95 48.17
2128 37.1236 2298.00 2307.82 47.94
2129 37.1378 2233.00 2308.96 47.25
2130 37.1519 2357.00 2310.36 48.55
2131 37.1661 2311.00 2312.02 48.07
2132 37.1803 2367.00 2313.94 48.65
2133 37.1945 2223.00 2316.06 47.15
2134 37.2087 2345.00 2318.38 48.43
2135 37.2229 2256.00 2320.83 47.50
2136 37.2370 2331.00 2323.35 48.28
2137 37.2512 2302.00 2325.91 47.98
2138 37.2654 2367.00 2328.43 48.65
2139 37.2796 2320.00 2330.86 48.17
2140 37.2938 2242.00 2333.09 47.35
2141 37.3080 2362.00 2335.10 48.60
2142 37.3221 2384.00 2336.79 48.83
2143 37.3363 2305.00 2338.15 48.01
2144 37.3505 2369.00 2339.14 48.67
2145 37.3647 2323.00 2339.67 48.20
2146 37.3789 2320.00 2339.85 48.17
2147 37.3931 2251.00 2339.63 47.44
2148 37.4072 2231.00 2339.02 47.23
2149 37.4214 2356.00 2338.02 48.54
2150 37.4356 2270.00 2336.68 47.64
2151 37.4498 2303.00 2335.02 47.99
2152 37.4640 2303.00 2333.08 47.99
2153 37.4782 2243.00 2330.90 47.36
2154 37.4924 2266.00 2328.31 47.60
2155 37.5065 2342.00 2325.77 48.39
2156 37.5207 2287.00 2323.08 47.82
2157 37.5349 2273.00 2320.29 47.68
2158 37.5491 2234.00 2317.45 47.27
2159 37.5633 2258.00 2314.57 47.52
2160 37.5775 2238.00 2311.69 47.31
2161 37.5916 2247.00 2308.85 47.40
2162 37.6058 2292.00 2306.04 47.87
2163 37.6200 2292.00 2303.29 47.87
2164 37.6342 2303.00 2300.63 47.99
2165 37.6484 2250.00 2298.17 47.43
2166 37.6626 2251.00 2295.73 47.44
2167 37.6767 2266.00 2293.44 47.60
2168 37.6909 2280.00 2291.25 47.75
2169 37.7051 2239.00 2289.21 47.32
2170 37.7193 2224.00 2287.30 47.16
2171 37.7335 2273.00 2285.53 47.68
2172 37.7477 2355.00 2283.91 48.53
2173 37.7618 2297.00 2282.46 47.93
2174 37.7760 2311.00 2281.14 48.07
2175 37.7902 2264.00 2279.99 47.58
2176 37.8044 2319.00 2279.00 48.16
2177 37.8186 2334.00 2278.19 48.31
2178 37.8328 2224.00 2277.56 47.16
2179 37.8470 2262.00 2277.13 47.56
2180 37.8611 2286.00 2276.91 47.81
2181 37.8753 2174.00 2276.90 46.63
2182 37.8895 2266.00 2277.11 47.60
2183 37.9037 2248.00 2277.54 47.41
2184 37.9179 2221.00 2278.25 47.13
2185 37.9321 2375.00 2279.12 48.73
2186 37.9462 2292.00 2280.17 47.87
2187 37.9604 2279.00 2281.41 47.74
2188 37.9746 2251.00 2282.79 47.44
2189 37.9888 2359.00 2284.27 48.57
2190 38.0030 2280.00 2285.82 47.75
2191 38.0172 2307.00 2287.37 48.03
2192 38.0313 2281.00 2288.87 47.76
2193 38.0455 2285.00 2290.29 47.80
2194 38.0597 2313.00 2291.57 48.09
2195 38.0739 2235.00 2292.67 47.28
2196 38.0881 2284.00 2293.53 47.79
2197 38.1023 2200.00 2293.70 46.90
2198 38.1164 2257.00 2294.03 47.51
2199 38.1306 2291.00 2294.20 47.86
2200 38.1448 2254.00 2293.95 47.48
2201 38.1590 2317.00 2293.42 48.14
2202 38.1732 2262.00 2292.60 47.56
2203 38.1874 2202.00 2291.53 46.93
2204 38.2016 2310.00 2290.21 48.06
2205 38.2157 2250.00 2288.69 47.43
2206 38.2299 2299.00 2286.86 47.95
2207 38.2441 2235.00 2284.96 47.28
2208 38.2583 2240.00 2282.93 47.33
2209 38.2725 2256.00 2280.77 47.50
2210 38.2867 2395.00 2278.52 48.94
2211 38.3008 2211.00 2276.21 47.02
2212 38.3150 2249.00 2273.84 47.42
2213 38.3292 2329.00 2271.43 48.26
2214 38.3434 2301.00 2269.01 47.97
2215 38.3576 2283.00 2266.60 47.78
2216 38.3718 2301.00 2264.21 47.97
2217 38.3859 2155.00 2261.86 46.42
2218 38.4001 2191.00 2259.55 46.81
2219 38.4143 2366.00 2257.30 48.64
2220 38.4285 2260.00 2255.11 47.54
2221 38.4427 2203.00 2252.99 46.94
2222 38.4569 2278.00 2250.96 47.73
2223 38.4710 2190.00 2249.03 46.80
2224 38.4852 2191.00 2247.18 46.81
2225 38.4994 2260.00 2245.43 47.54
2226 38.5136 2225.00 2243.78 47.17
2227 38.5278 2216.00 2242.24 47.07
2228 38.5420 2286.00 2240.82 47.81
2229 38.5562 2220.00 2239.51 47.12
2230 38.5703 2247.00 2238.32 47.40
2231 38.5845 2197.00 2237.25 46.87
2232 38.5987 2285.00 2236.31 47.80
2233 38.6129 2191.00 2235.49 46.81
2234 38.6271 2198.00 2234.80 46.88
2235 38.6413 2316.00 2234.23 48.12
2236 38.6554 2206.00 2233.79 46.97
2237 38.6696 2320.00 2233.52 48.17
2238 38.6838 2259.00 2233.32 47.53
2239 38.6980 2205.00 2233.23 46.96
2240 38.7122 2259.00 2233.24 47.53
2241 38.7264 2219.00 2233.34 47.11
2242 38.7405 2275.00 2233.52 47.70
2243 38.7547 2159.00 2233.76 46.47
2244 38.7689 2172.00 2234.03 46.60
2245 38.7831 2330.00 2234.34 48.27
2246 38.7973 2313.00 2234.65 48.09
2247 38.8115 2258.00 2234.94 47.52
2248 38.8256 2189.00 2235.20 46.79
2249 38.8398 2182.00 2235.42 46.71
2250 38.8540 2256.00 2235.58 47.50
2251 38.8682 2186.00 2235.67 46.75
2252 38.8824 2164.00 2235.69 46.52
2253 38.8966 2222.00 2235.62 47.14
2254 38.9108 2182.00 2235.46 46.71
2255 38.9249 2336.00 2235.21 48.33
2256 38.9391 2180.00 2234.87 46.69
2257 38.9533 2216.00 2234.45 47.07
2258 38.9675 2233.00 2233.94 47.25
2259 38.9817 2257.00 2233.35 47.51
2260 38.9959 2247.00 2232.67 47.40
2261 39.0100 2201.00 2231.93 46.91
2262 39.0242 2184.00 2231.12 46.73
2263 39.0384 2208.00 2230.24 46.99
2264 39.0526 2186.00 2229.30 46.75
2265 39.0668 2116.00 2228.30 46.00
2266 39.0810 2211.00 2227.27 47.02
2267 39.0951 2218.00 2226.21 47.10
2268 39.1093 2230.00 2225.11 47.22
2269 39.1235 2223.00 2223.98 47.15
2270 39.1377 2292.00 2222.84 47.87
2271 39.1519 2272.00 2221.69 47.67
2272 39.1661 2137.00 2220.53 46.23
2273 39.1802 2190.00 2219.38 46.80
2274 39.1944 2175.00 2218.26 46.64
2275 39.2086 2232.00 2217.12 47.24
2276 39.2228 2149.00 2216.00 46.36
2277 39.2370 2193.00 2214.90 46.83
2278 39.2512 2089.00 2213.82 45.71
2279 39.2654 2138.00 2212.78 46.24
2280 39.2795 2241.00 2211.77 47.34
2281 39.2937 2140.00 2210.80 46.26
2282 39.3079 2247.00 2209.86 47.40
2283 39.3221 2197.00 2208.98 46.87
2284 39.3363 2152.00 2208.15 46.39
2285 39.3505 2101.00 2207.37 45.84
2286 39.3646 2235.00 2206.65 47.28
2287 39.3788 2223.00 2206.00 47.15
2288 39.3930 2222.00 2205.41 47.14
2289 39.4072 2171.00 2204.89 46.59
2290 39.4214 2106.00 2204.45 45.89
2291 39.4356 2173.00 2204.09 46.62
2292 39.4497 2183.00 2203.81 46.72
2293 39.4639 2123.00 2203.61 46.08
2294 39.4781 2301.00 2203.49 47.97
2295 39.4923 2127.00 2203.46 46.12
2296 39.5065 2153.00 2203.50 46.40
2297 39.5207 2186.00 2203.63 46.75
2298 39.5348 2174.00 2203.82 46.63
2299 39.5490 2059.00 2204.08 45.38
2300 39.5632 2133.00 2204.39 46.18
2301 39.5774 2099.00 2204.74 45.81
2302 39.5916 2263.00 2205.13 47.57
2303 39.6058 2213.00 2205.52 47.04
2304 39.6200 2252.00 2205.92 47.46
2305 39.6341 2180.00 2206.29 46.69
2306 39.6483 2159.00 2206.63 46.47
2307 39.6625 2043.00 2206.92 45.20
2308 39.6767 2118.00 2207.14 46.02
2309 39.6909 2170.00 2207.29 46.58
2310 39.7051 2165.00 2207.35 46.53
2311 39.7192 2223.00 2207.31 47.15
2312 39.7334 2119.00 2207.17 46.03
2313 39.7476 2133.00 2206.93 46.18
2314 39.7618 2201.00 2206.58 46.91
2315 39.7760 2095.00 2206.13 45.77
2316 39.7902 2190.00 2205.57 46.80
2317 39.8043 2136.00 2204.95 46.22
2318 39.8185 2150.00 2204.20 46.37
2319 39.8327 2140.00 2203.36 46.26
2320 39.8469 2132.00 2202.44 46.17
2321 39.8611 2223.00 2201.43 47.15
2322 39.8753 2131.00 2200.35 46.16
2323 39.8894 2122.00 2199.22 46.07
2324 39.9036 2158.00 2198.01 46.45
2325 39.9178 2201.00 2196.75 46.91
2326 39.9320 2169.00 2195.43 46.57
2327 39.9462 2173.00 2194.07 46.62
2328 39.9604 2148.00 2192.65 46.35
2329 39.9746 2170.00 2191.20 46.58
2330 39.9887 2189.00 2189.71 46.79
2331 40.0029 2180.00 2188.16 46.69
2332 40.0171 2176.00 2186.58 46.65
2333 40.0313 2205.00 2184.96 46.96
2334 40.0455 2223.00 2183.30 47.15
2335 40.0597 2162.00 2181.62 46.50
2336 40.0738 2199.00 2179.89 46.89
2337 40.0880 2183.00 2178.11 46.72
2338 40.1022 2170.00 2176.29 46.58
2339 40.1164 2158.00 2174.43 46.45
2340 40.1306 2208.00 2172.53 46.99
2341 40.1448 2258.00 2170.60 47.52
2342 40.1589 2113.00 2168.64 45.97
2343 40.1731 2230.00 2166.63 47.22
2344 40.1873 2190.00 2164.59 46.80
2345 40.2015 2250.00 2162.61 47.43
2346 40.2157 2058.00 2160.54 45.37
2347 40.2299 2171.00 2158.46 46.59
2348 40.2440 2088.00 2156.40 45.69
2349 40.2582 2210.00 2154.34 47.01
2350 40.2724 2116.00 2152.33 46.00
2351 40.2866 2198.00 2150.38 46.88
2352 40.3008 2174.00 2148.51 46.63
2353 40.3150 2168.00 2146.79 46.56
2354 40.3292 2181.00 2145.17 46.70
2355 40.3433 2159.00 2143.75 46.47
2356 40.3575 2113.00 2142.53 45.97
2357 40.3717 2164.00 2141.57 46.52
2358 40.3859 2117.00 2140.91 46.01
2359 40.4001 2232.00 2140.61 47.24
2360 40.4143 2132.00 2140.70 46.17
2361 40.4284 2252.00 2141.25 47.46
2362 40.4426 2261.00 2142.31 47.55
2363 40.4568 2059.00 2143.93 45.38
2364 40.4710 2180.00 2146.15 46.69
2365 40.4852 2144.00 2149.03 46.30
2366 40.4994 2197.00 2152.61 46.87
2367 40.5135 2127.00 2156.89 46.12
2368 40.5277 2206.00 2161.94 46.97
2369 40.5419 2170.00 2167.77 46.58
2370 40.5561 2191.00 2174.35 46.81
2371 40.5703 2245.00 2181.67 47.38
2372 40.5845 2243.00 2189.68 47.36
2373 40.5986 2233.00 2198.29 47.25
2374 40.6128 2215.00 2207.52 47.06
2375 40.6270 2179.00 2217.23 46.68
2376 40.6412 2200.00 2227.34 46.90
2377 40.6554 2217.00 2237.68 47.08
2378 40.6696 2261.00 2248.16 47.55
2379 40.6838 2253.00 2258.63 47.47
2380 40.6979 2141.00 2268.90 46.27
2381 40.7121 2204.00 2278.98 46.95
2382 40.7263 2235.00 2288.68 47.28
2383 40.7405 2278.00 2297.90 47.73
2384 40.7547 2233.00 2306.53 47.25
2385 40.7689 2314.00 2314.50 48.10
2386 40.7830 2417.00 2321.69 49.16
2387 40.7972 2365.00 2328.15 48.63
2388 40.8114 2386.00 2333.79 48.85
2389 40.8256 2480.00 2338.57 49.80
2390 40.8398 2395.00 2342.48 48.94
2391 40.8540 2387.00 2345.53 48.86
2392 40.8681 2414.00 2347.71 49.13
2393 40.8823 2432.00 2349.08 49.32
2394 40.8965 2435.00 2349.63 49.35
2395 40.9107 2491.00 2349.49 49.91
2396 40.9249 2530.00 2348.57 50.30
2397 40.9391 2514.00 2346.99 50.14
2398 40.9532 2450.00 2344.84 49.50
2399 40.9674 2428.00 2342.16 49.27
2400 40.9816 2372.00 2339.02 48.70
2401 40.9958 2337.00 2335.50 48.34
2402 41.0100 2300.00 2331.66 47.96
2403 41.0242 2456.00 2327.57 49.56
2404 41.0384 2367.00 2323.28 48.65
2405 41.0525 2421.00 2318.88 49.20
2406 41.0667 2345.00 2314.35 48.43
2407 41.0809 2337.00 2309.77 48.34
2408 41.0951 2385.00 2305.16 48.84
2409 41.1093 2352.00 2300.54 48.50
2410 41.1235 2313.00 2295.94 48.09
2411 41.1376 2321.00 2291.39 48.18
2412 41.1518 2282.00 2286.84 47.77
2413 41.1660 2258.00 2282.33 47.52
2414 41.1802 2228.00 2277.86 47.20
2415 41.1944 2212.00 2273.43 47.03
2416 41.2086 2260.00 2269.04 47.54
2417 41.2227 2201.00 2264.72 46.91
2418 41.2369 2333.00 2260.41 48.30
2419 41.2511 2197.00 2256.14 46.87
2420 41.2653 2235.00 2251.93 47.28
2421 41.2795 2113.00 2247.76 45.97
2422 41.2937 2167.00 2243.65 46.55
2423 41.3078 2298.00 2239.61 47.94
2424 41.3220 2243.00 2235.62 47.36
2425 41.3362 2266.00 2231.70 47.60
2426 41.3504 2230.00 2227.85 47.22
2427 41.3646 2202.00 2224.08 46.93
2428 41.3788 2303.00 2220.40 47.99
2429 41.3930 2232.00 2216.79 47.24
2430 41.4071 2209.00 2213.31 47.00
2431 41.4213 2174.00 2209.89 46.63
2432 41.4355 2194.00 2206.58 46.84
2433 41.4497 2201.00 2203.28 46.91
2434 41.4639 2157.00 2200.17 46.44
2435 41.4781 2104.00 2197.16 45.87
2436 41.4922 2201.00 2194.28 46.91
2437 41.5064 2164.00 2191.49 46.52
2438 41.5206 2138.00 2188.81 46.24
2439 41.5348 2130.00 2186.25 46.15
2440 41.5490 2155.00 2183.81 46.42
2441 41.5632 2128.00 2181.47 46.13
2442 41.5773 2172.00 2179.25 46.60
2443 41.5915 2147.00 2177.18 46.34
2444 41.6057 2153.00 2175.17 46.40
2445 41.6199 2105.00 2173.28 45.88
2446 41.6341 2171.00 2171.50 46.59
2447 41.6483 2093.00 2169.83 45.75
2448 41.6624 2170.00 2168.27 46.58
2449 41.6766 2145.00 2166.81 46.31
2450 41.6908 2155.00 2165.44 46.42
2451 41.7050 2198.00 2164.16 46.88
2452 41.7192 2095.00 2162.98 45.77
2453 41.7334 2186.00 2161.87 46.75
2454 41.7476 2203.00 2160.84 46.94
2455 41.7617 2160.00 2159.88 46.48
2456 41.7759 2148.00 2158.98 46.35
2457 41.7901 2100.00 2158.11 45.83
2458 41.8043 2243.00 2157.29 47.36
2459 41.8185 2088.00 2156.48 45.69
2460 41.8327 2183.00 2155.69 46.72
2461 41.8468 2143.00 2154.90 46.29
2462 41.8610 2066.00 2154.09 45.45
2463 41.8752 2182.00 2153.26 46.71
2464 41.8894 2211.00 2152.38 47.02
2465 41.9036 2268.00 2151.46 47.62
2466 41.9178 2116.00 2150.48 46.00
2467 41.9319 2215.00 2149.43 47.06
2468 41.9461 2120.00 2148.31 46.04
2469 41.9603 2123.00 2147.11 46.08
2470 41.9745 2068.00 2145.84 45.48
2471 41.9887 2180.00 2144.49 46.69
2472 42.0029 2126.00 2143.05 46.11
2473 42.0170 2213.00 2141.57 47.04
2474 42.0312 2184.00 2140.02 46.73
2475 42.0454 2151.00 2138.41 46.38
2476 42.0596 2199.00 2136.77 46.89
2477 42.0738 2126.00 2135.10 46.11
2478 42.0880 2207.00 2133.43 46.98
2479 42.1022 2143.00 2131.77 46.29
2480 42.1163 2085.00 2130.14 45.66
2481 42.1305 2146.00 2128.56 46.32
2482 42.1447 2094.00 2127.05 45.76
2483 42.1589 2148.00 2125.64 46.35
2484 42.1731 2170.00 2124.36 46.58
2485 42.1873 2111.00 2123.24 45.95
2486 42.2014 2142.00 2122.30 46.28
2487 42.2156 2111.00 2121.57 45.95
2488 42.2298 2113.00 2121.07 45.97
2489 42.2440 2223.00 2120.85 47.15
2490 42.2582 2135.00 2120.93 46.21
2491 42.2724 2139.00 2121.33 46.25
2492 42.2865 2165.00 2122.07 46.53
2493 42.3007 2148.00 2123.20 46.35
2494 42.3149 2154.00 2124.71 46.41
2495 42.3291 2243.00 2126.62 47.36
2496 42.3433 2140.00 2128.95 46.26
2497 42.3575 2092.00 2131.62 45.74
2498 42.3716 2184.00 2134.75 46.73
2499 42.3858 2138.00 2138.30 46.24
2500 42.4000 2142.00 2142.22 46.28
2501 42.4142 2128.00 2146.50 46.13
2502 42.4284 2185.00 2151.09 46.74
2503 42.4426 2138.00 2155.95 46.24
2504 42.4568 2197.00 2161.01 46.87
2505 42.4709 2155.00 2166.19 46.42
2506 42.4851 2092.00 2171.48 45.74
2507 42.4993 2161.00 2176.79 46.49
2508 42.5135 2178.00 2182.03 46.67
2509 42.5277 2170.00 2187.15 46.58
2510 42.5419 2171.00 2192.06 46.59
2511 42.5560 2165.00 2196.69 46.53
2512 42.5702 2254.00 2201.04 47.48
2513 42.5844 2267.00 2205.04 47.61
2514 42.5986 2232.00 2208.65 47.24
2515 42.6128 2233.00 2211.86 47.25
2516 42.6270 2285.00 2214.65 47.80
2517 42.6411 2260.00 2217.02 47.54
2518 42.6553 2348.00 2219.01 48.46
2519 42.6695 2271.00 2220.61 47.65
2520 42.6837 2341.00 2221.86 48.38
2521 42.6979 2285.00 2222.79 47.80
2522 42.7121 2435.00 2223.45 49.35
2523 42.7262 2459.00 2223.84 49.59
2524 42.7404 2373.00 2224.01 48.71
2525 42.7546 2355.00 2223.99 48.53
2526 42.7688 2415.00 2223.82 49.14
2527 42.7830 2383.00 2223.52 48.82
2528 42.7972 2383.00 2223.12 48.82
2529 42.8114 2359.00 2222.61 48.57
2530 42.8255 2323.00 2222.03 48.20
2531 42.8397 2293.00 2221.37 47.89
2532 42.8539 2308.00 2220.63 48.04
2533 42.8681 2300.00 2219.81 47.96
2534 42.8823 2243.00 2218.91 47.36
2535 42.8965 2282.00 2217.92 47.77
2536 42.9106 2244.00 2216.84 47.37
2537 42.9248 2186.00 2215.67 46.75
2538 42.9390 2173.00 2214.39 46.62
2539 42.9532 2192.00 2213.06 46.82
2540 42.9674 2232.00 2211.60 47.24
2541 42.9816 2174.00 2210.07 46.63
2542 42.9957 2105.00 2208.48 45.88
2543 43.0099 2123.00 2206.84 46.08
2544 43.0241 2239.00 2205.17 47.32
2545 43.0383 2213.00 2203.50 47.04
2546 43.0525 2214.00 2201.85 47.05
2547 43.0667 2203.00 2200.25 46.94
2548 43.0808 2159.00 2198.72 46.47
2549 43.0950 2107.00 2197.28 45.90
2550 43.1092 2244.00 2195.95 47.37
2551 43.1234 2149.00 2194.76 46.36
2552 43.1376 2099.00 2193.71 45.81
2553 43.1518 2125.00 2192.83 46.10
2554 43.1660 2189.00 2192.13 46.79
2555 43.1801 2228.00 2191.61 47.20
2556 43.1943 2074.00 2191.29 45.54
2557 43.2085 2170.00 2191.17 46.58
2558 43.2227 2197.00 2191.25 46.87
2559 43.2369 2190.00 2191.55 46.80
2560 43.2511 2326.00 2192.03 48.23
2561 43.2652 2235.00 2192.76 47.28
2562 43.2794 2089.00 2193.72 45.71
2563 43.2936 2191.00 2194.90 46.81
2564 43.3078 2245.00 2196.32 47.38
2565 43.3220 2229.00 2197.96 47.21
2566 43.3362 2244.00 2199.83 47.37
2567 43.3503 2167.00 2201.90 46.55
2568 43.3645 2296.00 2204.18 47.92
2569 43.3787 2210.00 2206.65 47.01
2570 43.3929 2218.00 2209.28 47.10
2571 43.4071 2281.00 2212.03 47.76
2572 43.4213 2288.00 2214.87 47.83
2573 43.4354 2192.00 2217.73 46.82
2574 43.4496 2265.00 2220.61 47.59
2575 43.4638 2289.00 2223.42 47.84
2576 43.4780 2355.00 2226.12 48.53
2577 43.4922 2321.00 2228.65 48.18
2578 43.5064 2325.00 2230.96 48.22
2579 43.5206 2221.00 2233.01 47.13
2580 43.5347 2218.00 2234.72 47.10
2581 43.5489 2266.00 2236.10 47.60
2582 43.5631 2331.00 2237.09 48.28
2583 43.5773 2316.00 2237.68 48.12
2584 43.5915 2208.00 2237.84 46.99
2585 43.6057 2295.00 2237.57 47.91
2586 43.6198 2279.00 2236.88 47.74
2587 43.6340 2309.00 2235.76 48.05
2588 43.6482 2282.00 2234.27 47.77
2589 43.6624 2306.00 2232.35 48.02
2590 43.6766 2318.00 2230.07 48.15
2591 43.6908 2319.00 2227.45 48.16
2592 43.7049 2252.00 2224.54 47.46
2593 43.7191 2207.00 2221.33 46.98
2594 43.7333 2262.00 2217.88 47.56
2595 43.7475 2298.00 2214.22 47.94
2596 43.7617 2384.00 2210.40 48.83
2597 43.7759 2265.00 2206.43 47.59
2598 43.7900 2204.00 2202.40 46.95
2599 43.8042 2179.00 2198.28 46.68
2600 43.8184 2205.00 2194.14 46.96
2601 43.8326 2145.00 2190.00 46.31
2602 43.8468 2136.00 2185.90 46.22
2603 43.8610 2239.00 2181.88 47.32
2604 43.8752 2204.00 2177.95 46.95
2605 43.8893 2235.00 2174.18 47.28
2606 43.9035 2103.00 2170.54 45.86
2607 43.9177 2190.00 2167.07 46.80
2608 43.9319 2202.00 2163.79 46.93
2609 43.9461 2146.00 2160.72 46.32
2610 43.9603 2167.00 2157.87 46.55
2611 43.9744 2171.00 2155.27 46.59
2612 43.9886 2121.00 2152.89 46.05
2613 44.0028 2178.00 2150.75 46.67
2614 44.0170 2100.00 2148.84 45.83
2615 44.0312 2115.00 2147.16 45.99
2616 44.0454 2086.00 2145.70 45.67
2617 44.0595 2139.00 2144.46 46.25
2618 44.0737 2113.00 2143.41 45.97
2619 44.0879 2167.00 2142.53 46.55
2620 44.1021 2112.00 2141.82 45.96
2621 44.1163 2072.00 2141.21 45.52
2622 44.1305 2159.00 2140.70 46.47
2623 44.1446 2103.00 2140.26 45.86
2624 44.1588 2055.00 2139.86 45.33
2625 44.1730 2042.00 2139.48 45.19
2626 44.1872 2104.00 2139.10 45.87
2627 44.2014 2153.00 2138.68 46.40
2628 44.2156 2164.00 2138.22 46.52
2629 44.2298 2092.00 2137.69 45.74
2630 44.2439 2133.00 2137.08 46.18
2631 44.2581 2089.00 2136.35 45.71
2632 44.2723 2104.00 2135.55 45.87
2633 44.2865 2141.00 2134.64 46.27
2634 44.3007 2141.00 2133.63 46.27
2635 44.3149 2156.00 2132.51 46.43
2636 44.3290 2144.00 2131.32 46.30
2637 44.3432 2137.00 2130.01 46.23
2638 44.3574 2128.00 2128.61 46.13
2639 44.3716 2138.00 2127.13 46.24
2640 44.3858 2071.00 2125.58 45.51
2641 44.4000 2088.00 2123.98 45.69
2642 44.4141 2030.00 2122.35 45.06
2643 44.4283 2081.00 2120.67 45.62
2644 44.4425 2077.00 2118.98 45.57
2645 44.4567 2067.00 2117.28 45.46
2646 44.4709 2187.00 2115.59 46.77
2647 44.4851 2102.00 2113.92 45.85
2648 44.4992 2088.00 2112.30 45.69
2649 44.5134 2134.00 2110.71 46.20
2650 44.5276 2114.00 2109.18 45.98
2651 44.5418 2100.00 2107.72 45.83
2652 44.5560 2092.00 2106.34 45.74
2653 44.5702 2074.00 2105.05 45.54
2654 44.5844 2010.00 2103.87 44.83
2655 44.5985 2058.00 2102.79 45.37
2656 44.6127 2088.00 2101.82 45.69
2657 44.6269 2107.00 2100.97 45.90
2658 44.6411 2033.00 2100.23 45.09
2659 44.6553 2123.00 2099.61 46.08
2660 44.6695 2119.00 2099.11 46.03
2661 44.6836 2057.00 2098.73 45.35
2662 44.6978 2143.00 2098.45 46.29
2663 44.7120 2134.00 2098.29 46.20
2664 44.7262 2065.00 2098.20 45.44
2665 44.7404 2142.00 2098.20 46.28
2666 44.7546 2035.00 2098.27 45.11
2667 44.7687 2120.00 2098.40 46.04
2668 44.7829 2017.00 2098.56 44.91
2669 44.7971 2073.00 2098.74 45.53
2670 44.8113 2078.00 2098.92 45.59
2671 44.8255 2105.00 2099.09 45.88
2672 44.8397 2131.00 2099.23 46.16
2673 44.8538 2151.00 2099.33 46.38
2674 44.8680 2108.00 2099.37 45.91
2675 44.8822 2109.00 2099.33 45.92
2676 44.8964 2079.00 2099.22 45.60
2677 44.9106 2093.00 2099.02 45.75
2678 44.9248 2097.00 2098.73 45.79
2679 44.9390 2084.00 2098.33 45.65
2680 44.9531 2159.00 2097.84 46.47
2681 44.9673 2004.00 2097.24 44.77
2682 44.9815 2083.00 2096.54 45.64
2683 44.9957 2076.00 2095.73 45.56
2684 45.0099 2057.00 2094.84 45.35
2685 45.0241 2090.00 2093.85 45.72
2686 45.0382 1978.00 2092.78 44.47
2687 45.0524 2088.00 2091.62 45.69
2688 45.0666 1987.00 2090.39 44.58
2689 45.0808 2084.00 2089.09 45.65
2690 45.0950 1998.00 2087.73 44.70
2691 45.1092 2085.00 2086.32 45.66
2692 45.1233 2050.00 2084.88 45.28
2693 45.1375 2057.00 2083.39 45.35
2694 45.1517 2033.00 2081.88 45.09
2695 45.1659 2056.00 2080.35 45.34
2696 45.1801 2076.00 2078.81 45.56
2697 45.1943 2020.00 2077.26 44.94
2698 45.2084 2098.00 2075.73 45.80
2699 45.2226 2086.00 2074.19 45.67
2700 45.2368 2020.00 2072.68 44.94
2701 45.2510 2069.00 2071.19 45.49
2702 45.2652 2023.00 2069.73 44.98
2703 45.2794 2071.00 2068.30 45.51
2704 45.2936 2037.00 2066.92 45.13
2705 45.3077 2027.00 2065.58 45.02
2706 45.3219 2061.00 2064.29 45.40
2707 45.3361 2053.00 2063.05 45.31
2708 45.3503 1982.00 2061.86 44.52
2709 45.3645 2049.00 2060.73 45.27
2710 45.3787 2191.00 2059.66 46.81
2711 45.3928 1980.00 2058.64 44.50
2712 45.4070 2080.00 2057.68 45.61
2713 45.4212 2076.00 2056.78 45.56
2714 45.4354 1964.00 2055.92 44.32
2715 45.4496 2059.00 2055.12 45.38
2716 45.4638 2014.00 2054.36 44.88
2717 45.4779 1937.00 2053.65 44.01
2718 45.4921 2055.00 2052.76 45.33
2719 45.5063 2049.00 2052.11 45.27
2720 45.5205 2073.00 2051.50 45.53
2721 45.5347 2016.00 2050.91 44.90
2722 45.5489 2078.00 2050.33 45.59
2723 45.5630 2078.00 2049.81 45.59
2724 45.5772 2015.00 2049.27 44.89
2725 45.5914 2038.00 2048.73 45.14
2726 45.6056 2045.00 2048.19 45.22
2727 45.6198 2077.00 2047.68 45.57
2728 45.6340 2088.00 2047.17 45.69
2729 45.6482 2097.00 2046.69 45.79
2730 45.6623 2075.00 2046.24 45.55
2731 45.6765 2037.00 2045.72 45.13
2732 45.6907 2058.00 2045.35 45.37
2733 45.7049 2073.00 2045.04 45.53
2734 45.7191 2056.00 2044.80 45.34
2735 45.7333 2062.00 2044.65 45.41
2736 45.7474 2167.00 2044.60 46.55
2737 45.7616 2084.00 2044.67 45.65
2738 45.7758 2059.00 2044.87 45.38
2739 45.7900 2139.00 2045.23 46.25
2740 45.8042 2040.00 2045.74 45.17
2741 45.8184 2115.00 2046.43 45.99
2742 45.8325 2085.00 2047.30 45.66
2743 45.8467 2109.00 2048.37 45.92
2744 45.8609 2105.00 2049.65 45.88
2745 45.8751 1996.00 2051.14 44.68
2746 45.8893 2085.00 2052.84 45.66
2747 45.9035 1997.00 2054.76 44.69
2748 45.9176 2046.00 2056.87 45.23
2749 45.9318 2139.00 2059.20 46.25
2750 45.9460 2036.00 2061.73 45.12
2751 45.9602 2042.00 2064.43 45.19
2752 45.9744 2004.00 2067.30 44.77
2753 45.9886 2100.00 2070.30 45.83
2754 46.0028 2086.00 2073.43 45.67
2755 46.0169 2034.00 2076.61 45.10
2756 46.0311 2135.00 2079.88 46.21
2757 46.0453 2126.00 2083.13 46.11
2758 46.0595 2195.00 2086.42 46.85
2759 46.0737 2096.00 2089.67 45.78
2760 46.0879 2081.00 2092.83 45.62
2761 46.1020 2076.00 2095.86 45.56
2762 46.1162 2032.00 2098.76 45.08
2763 46.1304 2011.00 2101.49 44.84
2764 46.1446 1986.00 2104.02 44.56
2765 46.1588 2142.00 2106.32 46.28
2766 46.1730 2096.00 2108.37 45.78
2767 46.1871 2160.00 2110.13 46.48
2768 46.2013 2169.00 2111.63 46.57
2769 46.2155 2120.00 2112.84 46.04
2770 46.2297 2067.00 2113.75 45.46
2771 46.2439 2044.00 2114.37 45.21
2772 46.2581 2144.00 2114.69 46.30
2773 46.2722 2114.00 2114.71 45.98
2774 46.2864 2086.00 2114.46 45.67
2775 46.3006 2141.00 2113.94 46.27
2776 46.3148 2043.00 2113.16 45.20
2777 46.3290 2138.00 2112.14 46.24
2778 46.3432 2077.00 2110.89 45.57
2779 46.3574 1994.00 2109.44 44.65
2780 46.3715 2107.00 2107.81 45.90
2781 46.3857 2014.00 2106.01 44.88
2782 46.3999 2063.00 2104.07 45.42
2783 46.4141 2117.00 2102.00 46.01
2784 46.4283 2136.00 2099.82 46.22
2785 46.4425 2096.00 2097.56 45.78
2786 46.4566 2055.00 2095.26 45.33
2787 46.4708 2141.00 2092.89 46.27
2788 46.4850 2094.00 2090.49 45.76
2789 46.4992 2013.00 2088.08 44.87
2790 46.5134 2049.00 2085.68 45.27
2791 46.5276 2115.00 2083.30 45.99
2792 46.5417 2112.00 2080.97 45.96
2793 46.5559 2060.00 2078.69 45.39
2794 46.5701 2110.00 2076.47 45.93
2795 46.5843 2102.00 2074.34 45.85
2796 46.5985 2089.00 2072.30 45.71
2797 46.6127 2044.00 2070.37 45.21
2798 46.6268 2049.00 2068.58 45.27
2799 46.6410 2197.00 2066.91 46.87
2800 46.6552 2003.00 2065.42 44.75
2801 46.6694 2024.00 2064.06 44.99
2802 46.6836 2056.00 2062.87 45.34
2803 46.6978 2101.00 2061.86 45.84
2804 46.7120 1996.00 2061.04 44.68
2805 46.7261 2096.00 2060.42 45.78
2806 46.7403 2106.00 2059.99 45.89
2807 46.7545 2025.00 2059.77 45.00
2808 46.7687 1967.00 2059.75 44.35
2809 46.7829 2111.00 2059.94 45.95
2810 46.7971 2026.00 2060.32 45.01
2811 46.8112 2082.00 2060.88 45.63
2812 46.8254 2091.00 2061.63 45.73
2813 46.8396 1999.00 2062.54 44.71
2814 46.8538 2040.00 2063.59 45.17
2815 46.8680 1999.00 2064.77 44.71
2816 46.8822 2018.00 2066.06 44.92
2817 46.8963 2104.00 2067.40 45.87
2818 46.9105 1986.00 2068.79 44.56
2819 46.9247 2056.00 2070.20 45.34
2820 46.9389 2082.00 2071.61 45.63
2821 46.9531 2105.00 2072.96 45.88
2822 46.9673 2075.00 2074.24 45.55
2823 46.9814 2058.00 2075.42 45.37
2824 46.9956 2003.00 2076.47 44.75
2825 47.0098 2026.00 2077.36 45.01
2826 47.0240 2077.00 2078.08 45.57
2827 47.0382 2150.00 2078.60 46.37
2828 47.0524 2049.00 2078.92 45.27
2829 47.0666 2235.00 2079.01 47.28
2830 47.0807 2149.00 2078.89 46.36
2831 47.0949 2150.00 2078.54 46.37
2832 47.1091 2118.00 2077.96 46.02
2833 47.1233 2143.00 2077.16 46.29
2834 47.1375 2150.00 2076.14 46.37
2835 47.1517 2124.00 2074.91 46.09
2836 47.1658 2097.00 2073.49 45.79
2837 47.1800 2178.00 2071.88 46.67
2838 47.1942 2107.00 2070.08 45.90
2839 47.2084 2145.00 2068.13 46.31
2840 47.2226 2186.00 2066.04 46.75
2841 47.2368 2046.00 2063.82 45.23
2842 47.2509 2104.00 2061.50 45.87
2843 47.2651 2087.00 2059.07 45.68
2844 47.2793 1978.00 2056.57 44.47
2845 47.2935 2011.00 2054.01 44.84
2846 47.3077 2161.00 2051.41 46.49
2847 47.3219 2041.00 2048.78 45.18
2848 47.3360 2037.00 2046.17 45.13
2849 47.3502 2087.00 2043.55 45.68
2850 47.3644 2050.00 2040.96 45.28
2851 47.3786 2082.00 2038.41 45.63
2852 47.3928 2024.00 2035.91 44.99
2853 47.4070 2062.00 2033.50 45.41
2854 47.4212 2043.00 2031.17 45.20
2855 47.4353 2020.00 2028.95 44.94
2856 47.4495 2027.00 2026.84 45.02
2857 47.4637 2136.00 2024.85 46.22
2858 47.4779 1984.00 2023.00 44.54
2859 47.4921 2067.00 2021.30 45.46
2860 47.5063 1982.00 2019.75 44.52
2861 47.5204 2022.00 2018.37 44.97
2862 47.5346 2082.00 2017.16 45.63
2863 47.5488 1962.00 2016.12 44.29
2864 47.5630 2033.00 2015.26 45.09
2865 47.5772 1984.00 2014.57 44.54
2866 47.5914 1965.00 2014.08 44.33
2867 47.6055 2036.00 2013.76 45.12
2868 47.6197 1917.00 2013.62 43.78
2869 47.6339 2074.00 2013.65 45.54
2870 47.6481 2030.00 2013.85 45.06
2871 47.6623 1997.00 2014.20 44.69
2872 47.6765 2006.00 2014.70 44.79
2873 47.6906 1990.00 2015.33 44.61
2874 47.7048 2020.00 2015.92 44.94
2875 47.7190 2006.00 2016.77 44.79
2876 47.7332 1977.00 2017.69 44.46
2877 47.7474 1934.00 2018.68 43.98
2878 47.7616 1994.00 2019.71 44.65
2879 47.7758 2071.00 2020.76 45.51
2880 47.7899 1933.00 2021.81 43.97
2881 47.8041 2007.00 2022.84 44.80
2882 47.8183 2001.00 2023.84 44.73
2883 47.8325 1908.00 2024.78 43.68
2884 47.8467 1997.00 2025.65 44.69
2885 47.8609 1986.00 2026.43 44.56
2886 47.8750 2068.00 2027.10 45.48
2887 47.8892 2020.00 2027.70 44.94
2888 47.9034 1989.00 2028.15 44.60
2889 47.9176 1932.00 2028.47 43.95
2890 47.9318 1993.00 2028.66 44.64
2891 47.9460 1949.00 2028.71 44.15
2892 47.9601 2020.00 2028.63 44.94
2893 47.9743 1998.00 2028.41 44.70
2894 47.9885 2025.00 2028.07 45.00
2895 48.0027 2008.00 2027.59 44.81
2896 48.0169 1898.00 2026.99 43.57
2897 48.0311 1958.00 2026.28 44.25
2898 48.0452 1945.00 2025.46 44.10
2899 48.0594 1933.00 2024.53 43.97
2900 48.0736 1994.00 2023.52 44.65
2901 48.0878 2089.00 2022.41 45.71
2902 48.1020 1901.00 2021.22 43.60
2903 48.1162 2025.00 2019.96 45.00
2904 48.1304 2046.00 2018.55 45.23
2905 48.1445 1937.00 2017.19 44.01
2906 48.1587 2036.00 2015.76 45.12
2907 48.1729 1977.00 2014.30 44.46
2908 48.1871 1959.00 2012.81 44.26
2909 48.2013 2044.00 2011.29 45.21
2910 48.2155 1861.00 2009.75 43.14
2911 48.2296 1954.00 2008.22 44.20
2912 48.2438 1968.00 2006.67 44.36
2913 48.2580 2082.00 2005.12 45.63
2914 48.2722 1948.00 2003.57 44.14
2915 48.2864 1979.00 2002.03 44.49
2916 48.3006 2009.00 2000.50 44.82
2917 48.3147 1906.00 1999.01 43.66
2918 48.3289 2004.00 1997.52 44.77
2919 48.3431 2004.00 1996.05 44.77
2920 48.3573 1976.00 1994.61 44.45
2921 48.3715 1989.00 1993.20 44.60
2922 48.3857 1960.00 1991.81 44.27
2923 48.3998 1946.00 1990.46 44.11
2924 48.4140 1937.00 1989.12 44.01
2925 48.4282 1893.00 1987.82 43.51
2926 48.4424 1955.00 1986.55 44.22
2927 48.4566 2006.00 1985.30 44.79
2928 48.4708 1925.00 1984.08 43.87
2929 48.4850 1908.00 1982.89 43.68
2930 48.4991 1953.00 1981.74 44.19
2931 48.5133 1935.00 1980.54 43.99
2932 48.5275 1899.00 1979.42 43.58
2933 48.5417 1920.00 1978.33 43.82
2934 48.5559 1952.00 1977.27 44.18
2935 48.5701 2015.00 1976.22 44.89
2936 48.5842 1999.00 1975.20 44.71
2937 48.5984 1944.00 1974.20 44.09
2938 48.6126 2028.00 1973.21 45.03
2939 48.6268 2042.00 1972.24 45.19
2940 48.6410 2014.00 1971.29 44.88
2941 48.6552 1926.00 1970.35 43.89
2942 48.6693 1861.00 1969.43 43.14
2943 48.6835 1941.00 1968.53 44.06
2944 48.6977 1985.00 1967.63 44.55
2945 48.7119 1927.00 1966.76 43.90
2946 48.7261 1916.00 1965.90 43.77
2947 48.7403 1981.00 1965.05 44.51
2948 48.7544 1939.00 1964.22 44.03
2949 48.7686 1998.00 1963.41 44.70
2950 48.7828 1966.00 1962.61 44.34
2951 48.7970 1910.00 1961.84 43.70
2952 48.8112 1918.00 1961.09 43.79
2953 48.8254 1932.00 1960.36 43.95
2954 48.8396 1958.00 1959.53 44.25
2955 48.8537 1995.00 1958.85 44.67
2956 48.8679 1920.00 1958.20 43.82
2957 48.8821 1991.00 1957.59 44.62
2958 48.8963 1901.00 1957.00 43.60
2959 48.9105 1949.00 1956.46 44.15
2960 48.9247 1940.00 1955.95 44.05
2961 48.9388 1943.00 1955.49 44.08
2962 48.9530 2026.00 1955.07 45.01
2963 48.9672 2019.00 1954.70 44.93
2964 48.9814 1974.00 1954.39 44.43
2965 48.9956 1917.00 1954.13 43.78
2966 49.0098 1997.00 1953.92 44.69
2967 49.0239 1980.00 1953.78 44.50
2968 49.0381 2053.00 1953.69 45.31
2969 49.0523 1933.00 1953.68 43.97
2970 49.0665 1919.00 1953.73 43.81
2971 49.0807 1901.00 1953.85 43.60
2972 49.0949 1955.00 1954.05 44.22
2973 49.1090 1923.00 1954.31 43.85
2974 49.1232 2005.00 1954.65 44.78
2975 49.1374 1952.00 1955.06 44.18
2976 49.1516 1970.00 1955.54 44.38
2977 49.1658 1992.00 1956.10 44.63
2978 49.1800 1993.00 1956.73 44.64
2979 49.1942 1992.00 1957.43 44.63
2980 49.2083 1978.00 1958.19 44.47
2981 49.2225 1888.00 1959.03 43.45
2982 49.2367 2015.00 1959.93 44.89
2983 49.2509 1948.00 1960.90 44.14
2984 49.2651 2043.00 1961.92 45.20
2985 49.2793 1955.00 1963.01 44.22
2986 49.2934 1990.00 1964.15 44.61
2987 49.3076 1965.00 1965.34 44.33
2988 49.3218 1928.00 1966.59 43.91
2989 49.3360 1981.00 1967.87 44.51
2990 49.3502 1911.00 1969.20 43.72
2991 49.3644 1994.00 1970.56 44.65
2992 49.3785 2015.00 1971.93 44.89
2993 49.3927 1952.00 1973.33 44.18
2994 49.4069 1978.00 1974.74 44.47
2995 49.4211 1961.00 1976.16 44.28
2996 49.4353 1970.00 1977.56 44.38
2997 49.4495 2066.00 1978.94 45.45
2998 49.4636 1987.00 1980.28 44.58
2999 49.4778 1952.00 1981.59 44.18
3000 49.4920 1945.00 1982.84 44.10
3001 49.5062 1929.00 1984.02 43.92
3002 49.5204 2011.00 1985.12 44.84
3003 49.5346 2023.00 1986.14 44.98
3004 49.5488 2016.00 1987.05 44.90
3005 49.5629 2024.00 1987.84 44.99
3006 49.5771 1996.00 1988.53 44.68
3007 49.5913 1971.00 1989.09 44.40
3008 49.6055 1957.00 1989.52 44.24
3009 49.6197 2094.00 1989.81 45.76
3010 49.6339 2028.00 1989.93 45.03
3011 49.6480 2079.00 1989.95 45.60
3012 49.6622 2012.00 1989.84 44.86
3013 49.6764 2041.00 1989.60 45.18
3014 49.6906 2042.00 1989.22 45.19
3015 49.7048 2024.00 1988.72 44.99
3016 49.7190 2097.00 1988.11 45.79
3017 49.7331 2060.00 1987.37 45.39
3018 49.7473 2003.00 1986.52 44.75
3019 49.7615 2021.00 1985.57 44.96
3020 49.7757 1975.00 1984.52 44.44
3021 49.7899 1983.00 1983.38 44.53
3022 49.8041 1978.00 1982.17 44.47
3023 49.8182 1913.00 1980.91 43.74
3024 49.8324 1981.00 1979.57 44.51
3025 49.8466 1920.00 1978.19 43.82
3026 49.8608 1971.00 1976.76 44.40
3027 49.8750 1953.00 1975.31 44.19
3028 49.8892 1998.00 1973.84 44.70
3029 49.9034 1939.00 1972.35 44.03
3030 49.9175 1943.00 1970.87 44.08
3031 49.9317 1987.00 1969.39 44.58
3032 49.9459 1979.00 1967.92 44.49
3033 49.9601 1941.00 1966.48 44.06
3034 49.9743 1909.00 1965.06 43.69
3035 49.9885 2022.00 1963.69 44.97
3036 50.0026 1959.00 1962.37 44.26
3037 50.0168 1911.00 1961.10 43.72
3038 50.0310 2005.00 1959.88 44.78
3039 50.0452 1942.00 1958.74 44.07
3040 50.0594 1990.00 1957.66 44.61
3041 50.0736 1985.00 1956.66 44.55
3042 50.0877 1955.00 1955.75 44.22
3043 50.1019 2027.00 1954.92 45.02
3044 50.1161 1978.00 1954.18 44.47
3045 50.1303 1936.00 1953.52 44.00
3046 50.1445 1941.00 1952.96 44.06
3047 50.1587 1985.00 1952.49 44.55
3048 50.1728 1983.00 1952.12 44.53
3049 50.1870 2004.00 1951.83 44.77
3050 50.2012 1944.00 1951.64 44.09
3051 50.2154 1936.00 1951.53 44.00
3052 50.2296 2049.00 1951.51 45.27
3053 50.2438 2037.00 1951.56 45.13
3054 50.2580 1859.00 1951.69 43.12
3055 50.2721 2000.00 1951.88 44.72
3056 50.2863 2020.00 1952.13 44.94
3057 50.3005 2027.00 1952.44 45.02
3058 50.3147 2007.00 1952.78 44.80
3059 50.3289 2060.00 1953.16 45.39
3060 50.3431 2025.00 1953.57 45.00
3061 50.3572 2052.00 1953.99 45.30
3062 50.3714 1964.00 1954.42 44.32
3063 50.3856 1955.00 1954.84 44.22
3064 50.3998 2024.00 1955.25 44.99
3065 50.4140 1982.00 1955.65 44.52
3066 50.4282 1884.00 1955.99 43.41
3067 50.4423 1978.00 1956.32 44.47
3068 50.4565 1990.00 1956.62 44.61
3069 50.4707 2029.00 1956.87 45.04
3070 50.4849 1925.00 1957.09 43.87
3071 50.4991 1930.00 1957.26 43.93
3072 50.5133 2047.00 1957.38 45.24
3073 50.5274 1999.00 1957.45 44.71
3074 50.5416 1985.00 1957.48 44.55
3075 50.5558 2007.00 1957.47 44.80
3076 50.5700 1980.00 1957.42 44.50
3077 50.5842 2032.00 1957.34 45.08
3078 50.5984 1953.00 1957.24 44.19
3079 50.6126 1924.00 1957.12 43.86
3080 50.6267 1918.00 1956.98 43.79
3081 50.6409 1944.00 1956.84 44.09
3082 50.6551 1973.00 1956.71 44.42
3083 50.6693 2019.00 1956.58 44.93
3084 50.6835 1949.00 1956.47 44.15
3085 50.6977 1945.00 1956.38 44.10
3086 50.7118 1958.00 1956.33 44.25
3087 50.7260 1916.00 1956.32 43.77
3088 50.7402 2067.00 1956.35 45.46
3089 50.7544 1978.00 1956.42 44.47
3090 50.7686 2049.00 1956.56 45.27
3091 50.7828 1963.00 1956.75 44.31
3092 50.7969 1963.00 1956.99 44.31
3093 50.8111 1912.00 1957.30 43.73
3094 50.8253 1988.00 1957.69 44.59
3095 50.8395 1910.00 1958.12 43.70
3096 50.8537 2004.00 1958.61 44.77
3097 50.8679 1929.00 1959.15 43.92
3098 50.8820 2041.00 1959.73 45.18
3099 50.8962 1898.00 1960.36 43.57
3100 50.9104 2052.00 1961.03 45.30
3101 50.9246 1989.00 1961.73 44.60
3102 50.9388 1877.00 1962.45 43.32
3103 50.9530 1952.00 1963.18 44.18
3104 50.9672 2045.00 1963.92 45.22
3105 50.9813 2029.00 1964.64 45.04
3106 50.9955 1917.00 1965.37 43.78
3107 51.0097 1939.00 1966.07 44.03
3108 51.0239 1952.00 1966.74 44.18
3109 51.0381 1962.00 1967.39 44.29
3110 51.0523 1960.00 1967.99 44.27
3111 51.0664 1964.00 1968.54 44.32
3112 51.0806 1998.00 1969.05 44.70
3113 51.0948 2042.00 1969.50 45.19
3114 51.1090 1985.00 1969.89 44.55
3115 51.1232 1994.00 1970.22 44.65
3116 51.1374 1987.00 1970.48 44.58
3117 51.1515 2038.00 1970.68 45.14
3118 51.1657 2002.00 1970.81 44.74
3119 51.1799 1995.00 1970.88 44.67
3120 51.1941 1935.00 1970.88 43.99
3121 51.2083 2035.00 1970.82 45.11
3122 51.2225 1981.00 1970.69 44.51
3123 51.2366 1892.00 1970.49 43.50
3124 51.2508 1991.00 1970.24 44.62
3125 51.2650 1974.00 1969.92 44.43
3126 51.2792 1969.00 1969.54 44.37
3127 51.2934 1954.00 1969.10 44.20
3128 51.3076 1995.00 1968.61 44.67
3129 51.3218 1984.00 1968.10 44.54
3130 51.3359 2000.00 1967.49 44.72
3131 51.3501 1952.00 1966.87 44.18
3132 51.3643 2021.00 1966.20 44.96
3133 51.3785 1976.00 1965.51 44.45
3134 51.3927 1970.00 1964.79 44.38
3135 51.4069 1967.00 1964.05 44.35
3136 51.4210 1921.00 1963.30 43.83
3137 51.4352 2038.00 1962.54 45.14
3138 51.4494 1961.00 1961.78 44.28
3139 51.4636 1983.00 1961.02 44.53
3140 51.4778 1967.00 1960.27 44.35
3141 51.4920 1917.00 1959.53 43.78
3142 51.5061 1921.00 1958.83 43.83
3143 51.5203 1937.00 1958.15 44.01
3144 51.5345 1953.00 1957.50 44.19
3145 51.5487 1976.00 1956.88 44.45
3146 51.5629 2025.00 1956.31 45.00
3147 51.5771 1867.00 1955.79 43.21
3148 51.5912 1866.00 1955.31 43.20
3149 51.6054 2017.00 1954.88 44.91
3150 51.6196 1921.00 1954.51 43.83
3151 51.6338 1961.00 1954.18 44.28
3152 51.6480 1952.00 1953.91 44.18
3153 51.6622 1909.00 1953.68 43.69
3154 51.6764 1956.00 1953.51 44.23
3155 51.6905 1934.00 1953.38 43.98
3156 51.7047 1876.00 1953.29 43.31
3157 51.7189 1982.00 1953.24 44.52
3158 51.7331 2007.00 1953.21 44.80
3159 51.7473 1947.00 1953.22 44.12
3160 51.7615 1988.00 1953.26 44.59
3161 51.7756 1980.00 1953.31 44.50
3162 51.7898 1929.00 1953.38 43.92
3163 51.8040 2015.00 1953.46 44.89
3164 51.8182 1955.00 1953.54 44.22
3165 51.8324 2043.00 1953.62 45.20
3166 51.8466 2004.00 1953.68 44.77
3167 51.8607 2007.00 1953.74 44.80
3168 51.8749 1900.00 1953.77 43.59
3169 51.8891 1910.00 1953.78 43.70
3170 51.9033 1983.00 1953.77 44.53
3171 51.9175 1963.00 1953.73 44.31
3172 51.9317 1973.00 1953.58 44.42
3173 51.9458 2016.00 1953.47 44.90
3174 51.9600 1966.00 1953.32 44.34
3175 51.9742 1965.00 1953.14 44.33
3176 51.9884 1948.00 1952.91 44.14
3177 52.0026 1944.00 1952.65 44.09
3178 52.0168 1944.00 1952.34 44.09
3179 52.0310 1947.00 1951.98 44.12
3180 52.0451 1893.00 1951.59 43.51
3181 52.0593 2000.00 1951.14 44.72
3182 52.0735 1960.00 1950.65 44.27
3183 52.0877 1998.00 1950.12 44.70
3184 52.1019 1987.00 1949.50 44.58
3185 52.1161 1970.00 1948.89 44.38
3186 52.1302 1899.00 1948.23 43.58
3187 52.1444 2019.00 1947.51 44.93
3188 52.1586 1910.00 1946.76 43.70
3189 52.1728 1878.00 1945.96 43.34
3190 52.1870 1945.00 1945.13 44.10
3191 52.2012 1918.00 1944.27 43.79
3192 52.2153 1872.00 1943.38 43.27
3193 52.2295 1927.00 1942.45 43.90
3194 52.2437 1877.00 1941.51 43.32
3195 52.2579 1895.00 1940.54 43.53
3196 52.2721 1924.00 1939.57 43.86
3197 52.2863 1958.00 1938.58 44.25
3198 52.3004 1887.00 1937.59 43.44
3199 52.3146 1960.00 1936.61 44.27
3200 52.3288 1962.00 1935.63 44.29
3201 52.3430 1994.00 1934.66 44.65
3202 52.3572 1934.00 1933.71 43.98
3203 52.3714 1934.00 1932.80 43.98
3204 52.3856 1948.00 1931.91 44.14
3205 52.3997 1910.00 1931.07 43.70
3206 52.4139 1926.00 1930.27 43.89
3207 52.4281 1957.00 1929.54 44.24
3208 52.4423 1850.00 1928.83 43.01
3209 52.4565 1862.00 1928.20 43.15
3210 52.4707 1927.00 1927.64 43.90
3211 52.4848 1881.00 1927.15 43.37
3212 52.4990 1938.00 1926.74 44.02
3213 52.5132 1973.00 1926.40 44.42
3214 52.5274 1923.00 1926.16 43.85
3215 52.5416 1882.00 1926.00 43.38
3216 52.5558 1916.00 1925.93 43.77
3217 52.5699 1908.00 1925.96 43.68
3218 52.5841 1903.00 1926.07 43.62
3219 52.5983 1884.00 1926.27 43.41
3220 52.6125 1924.00 1926.57 43.86
3221 52.6267 1941.00 1926.96 44.06
3222 52.6409 1995.00 1927.44 44.67
3223 52.6550 1918.00 1927.99 43.79
3224 52.6692 1893.00 1928.63 43.51
3225 52.6834 1830.00 1929.34 42.78
3226 52.6976 1908.00 1930.11 43.68
3227 52.7118 1931.00 1930.94 43.94
3228 52.7260 1929.00 1931.82 43.92
3229 52.7402 1881.00 1932.73 43.37
3230 52.7543 1967.00 1933.67 44.35
3231 52.7685 1981.00 1934.63 44.51
3232 52.7827 1948.00 1935.60 44.14
3233 52.7969 1869.00 1936.56 43.23
3234 52.8111 1930.00 1937.50 43.93
3235 52.8253 1930.00 1938.42 43.93
3236 52.8394 2000.00 1939.29 44.72
3237 52.8536 1897.00 1940.12 43.55
3238 52.8678 1933.00 1940.90 43.97
3239 52.8820 1925.00 1941.61 43.87
3240 52.8962 2031.00 1942.25 45.07
3241 52.9104 1978.00 1942.80 44.47
3242 52.9245 1908.00 1943.27 43.68
3243 52.9387 1878.00 1943.66 43.34
3244 52.9529 1996.00 1943.94 44.68
3245 52.9671 1947.00 1944.13 44.12
3246 52.9813 1909.00 1944.24 43.69
3247 52.9955 1977.00 1944.18 44.46
3248 53.0096 1875.00 1944.11 43.30
3249 53.0238 1893.00 1943.94 43.51
3250 53.0380 1900.00 1943.69 43.59
3251 53.0522 1990.00 1943.36 44.61
3252 53.0664 1984.00 1942.95 44.54
3253 53.0806 1880.00 1942.47 43.36
3254 53.0948 1981.00 1941.93 44.51
3255 53.1089 1984.00 1941.33 44.54
3256 53.1231 1941.00 1940.67 44.06
3257 53.1373 1961.00 1939.98 44.28
3258 53.1515 1864.00 1939.23 43.17
3259 53.1657 1964.00 1938.46 44.32
3260 53.1799 2016.00 1937.66 44.90
3261 53.1940 1904.00 1936.85 43.63
3262 53.2082 1885.00 1936.02 43.42
3263 53.2224 1888.00 1935.19 43.45
3264 53.2366 1977.00 1934.36 44.46
3265 53.2508 1943.00 1933.53 44.08
3266 53.2650 1859.00 1932.71 43.12
3267 53.2791 1937.00 1931.91 44.01
3268 53.2933 1915.00 1931.12 43.76
3269 53.3075 1909.00 1930.36 43.69
3270 53.3217 1959.00 1929.62 44.26
3271 53.3359 1949.00 1928.91 44.15
3272 53.3501 1879.00 1928.23 43.35
3273 53.3642 1922.00 1927.58 43.84
3274 53.3784 1987.00 1926.97 44.58
3275 53.3926 1871.00 1926.38 43.26
3276 53.4068 1913.00 1925.83 43.74
3277 53.4210 1893.00 1925.30 43.51
3278 53.4352 1997.00 1924.79 44.69
3279 53.4494 1949.00 1924.31 44.15
3280 53.4635 1927.00 1923.86 43.90
3281 53.4777 1952.00 1923.42 44.18
3282 53.4919 1933.00 1922.99 43.97
3283 53.5061 1842.00 1922.58 42.92
3284 53.5203 1939.00 1922.18 44.03
3285 53.5345 1930.00 1921.78 43.93
3286 53.5486 1941.00 1921.38 44.06
3287 53.5628 1881.00 1920.98 43.37
3288 53.5770 1950.00 1920.58 44.16
3289 53.5912 1930.00 1920.17 43.93
3290 53.6054 1921.00 1919.75 43.83
3291 53.6196 1867.00 1919.33 43.21
3292 53.6337 1922.00 1918.89 43.84
3293 53.6479 1991.00 1918.44 44.62
3294 53.6621 1941.00 1917.98 44.06
3295 53.6763 1933.00 1917.51 43.97
3296 53.6905 1971.00 1917.03 44.40
3297 53.7047 1913.00 1916.54 43.74
3298 53.7188 1948.00 1916.06 44.14
3299 53.7330 2037.00 1915.57 45.13
3300 53.7472 1948.00 1915.08 44.14
3301 53.7614 1955.00 1914.62 44.22
3302 53.7756 1981.00 1914.15 44.51
3303 53.7898 1968.00 1913.69 44.36
3304 53.8040 1907.00 1913.25 43.67
3305 53.8181 1942.00 1912.84 44.07
3306 53.8323 1925.00 1912.45 43.87
3307 53.8465 1862.00 1912.10 43.15
3308 53.8607 1951.00 1911.78 44.17
3309 53.8749 1935.00 1911.51 43.99
3310 53.8891 1878.00 1911.28 43.34
3311 53.9032 1944.00 1911.10 44.09
3312 53.9174 1926.00 1910.97 43.89
3313 53.9316 1951.00 1910.89 44.17
3314 53.9458 1900.00 1910.88 43.59
3315 53.9600 1903.00 1910.90 43.62
3316 53.9742 1963.00 1911.01 44.31
3317 53.9883 1904.00 1911.17 43.63
3318 54.0025 1934.00 1911.39 43.98
3319 54.0167 1889.00 1911.63 43.46
3320 54.0309 1925.00 1911.97 43.87
3321 54.0451 1871.00 1912.36 43.26
3322 54.0593 1899.00 1912.80 43.58
3323 54.0734 1882.00 1913.28 43.38
3324 54.0876 1831.00 1913.81 42.79
3325 54.1018 1912.00 1914.37 43.73
3326 54.1160 1906.00 1914.96 43.66
3327 54.1302 1927.00 1915.57 43.90
3328 54.1444 1881.00 1916.20 43.37
3329 54.1586 1820.00 1916.83 42.66
3330 54.1727 1888.00 1917.47 43.45
3331 54.1869 1905.00 1918.10 43.65
3332 54.2011 1903.00 1918.71 43.62
3333 54.2153 1945.00 1919.31 44.10
3334 54.2295 1944.00 1919.88 44.09
3335 54.2437 1957.00 1920.41 44.24
3336 54.2578 1958.00 1920.90 44.25
3337 54.2720 1906.00 1921.35 43.66
3338 54.2862 1961.00 1921.75 44.28
3339 54.3004 1954.00 1922.10 44.20
3340 54.3146 1943.00 1922.39 44.08
3341 54.3288 1927.00 1922.63 43.90
3342 54.3429 1851.00 1922.80 43.02
3343 54.3571 1905.00 1922.92 43.65
3344 54.3713 1967.00 1922.97 44.35
3345 54.3855 1912.00 1922.97 43.73
3346 54.3997 1870.00 1922.90 43.24
3347 54.4139 1937.00 1922.78 44.01
3348 54.4280 1926.00 1922.60 43.89
3349 54.4422 1868.00 1922.37 43.22
3350 54.4564 1901.00 1922.08 43.60
3351 54.4706 1891.00 1921.74 43.49
3352 54.4848 1866.00 1921.35 43.20
3353 54.4990 1873.00 1920.92 43.28
3354 54.5132 1864.00 1920.45 43.17
3355 54.5273 1921.00 1919.94 43.83
3356 54.5415 1946.00 1919.38 44.11
3357 54.5557 1903.00 1918.79 43.62
3358 54.5699 1948.00 1918.17 44.14
3359 54.5841 1927.00 1917.51 43.90
3360 54.5983 1845.00 1916.83 42.95
3361 54.6124 1912.00 1916.12 43.73
3362 54.6266 1809.00 1915.38 42.53
3363 54.6408 1919.00 1914.61 43.81
3364 54.6550 1945.00 1913.82 44.10
3365 54.6692 1934.00 1913.00 43.98
3366 54.6834 1880.00 1912.17 43.36
3367 54.6975 1894.00 1911.31 43.52
3368 54.7117 1904.00 1910.44 43.63
3369 54.7259 1868.00 1909.54 43.22
3370 54.7401 1908.00 1908.62 43.68
3371 54.7543 1840.00 1907.68 42.90
3372 54.7685 1826.00 1906.73 42.73
3373 54.7826 1875.00 1905.76 43.30
3374 54.7968 1944.00 1904.78 44.09
3375 54.8110 1854.00 1903.77 43.06
3376 54.8252 1832.00 1902.75 42.80
3377 54.8394 1854.00 1901.72 43.06
3378 54.8536 1860.00 1900.67 43.13
3379 54.8678 1894.00 1899.61 43.52
3380 54.8819 1865.00 1898.54 43.19
3381 54.8961 1955.00 1897.46 44.22
3382 54.9103 1887.00 1896.37 43.44
3383 54.9245 1897.00 1895.26 43.55
3384 54.9387 1878.00 1894.15 43.34
3385 54.9529 1831.00 1893.03 42.79
3386 54.9670 1895.00 1891.91 43.53
3387 54.9812 1883.00 1890.78 43.39
3388 54.9954 1921.00 1889.64 43.83
3389 55.0096 1891.00 1888.50 43.49
3390 55.0238 1885.00 1887.37 43.42
3391 55.0380 1866.00 1886.23 43.20
3392 55.0521 1869.00 1885.10 43.23
3393 55.0663 1871.00 1883.97 43.26
3394 55.0805 1916.00 1882.84 43.77
3395 55.0947 1911.00 1881.72 43.72
3396 55.1089 1870.00 1880.61 43.24
3397 55.1231 1918.00 1879.51 43.79
3398 55.1372 1862.00 1878.43 43.15
3399 55.1514 1834.00 1877.36 42.83
3400 55.1656 1915.00 1876.31 43.76
3401 55.1798 1940.00 1875.28 44.05
3402 55.1940 1867.00 1874.28 43.21
3403 55.2082 1904.00 1873.30 43.63
3404 55.2224 1859.00 1872.35 43.12
3405 55.2365 1895.00 1871.44 43.53
3406 55.2507 1817.00 1870.55 42.63
3407 55.2649 1904.00 1869.71 43.63
3408 55.2791 1871.00 1868.90 43.26
3409 55.2933 1895.00 1868.14 43.53
3410 55.3075 1880.00 1867.43 43.36
3411 55.3216 1903.00 1866.77 43.62
3412 55.3358 1847.00 1866.16 42.98
3413 55.3500 1926.00 1865.61 43.89
3414 55.3642 1914.00 1865.11 43.75
3415 55.3784 1905.00 1864.67 43.65
3416 55.3926 1879.00 1864.30 43.35
3417 55.4067 1940.00 1863.99 44.05
3418 55.4209 1846.00 1863.77 42.97
3419 55.4351 1894.00 1863.59 43.52
3420 55.4493 1807.00 1863.49 42.51
3421 55.4635 1802.00 1863.45 42.45
3422 55.4777 1889.00 1863.49 43.46
3423 55.4918 1912.00 1863.60 43.73
3424 55.5060 1871.00 1863.78 43.26
3425 55.5202 1828.00 1864.03 42.76
3426 55.5344 1886.00 1864.35 43.43
3427 55.5486 1897.00 1864.74 43.55
3428 55.5628 1854.00 1865.20 43.06
3429 55.5770 1812.00 1865.72 42.57
3430 55.5911 1928.00 1866.31 43.91
3431 55.6053 1874.00 1866.95 43.29
3432 55.6195 1878.00 1867.66 43.34
3433 55.6337 1833.00 1868.42 42.81
3434 55.6479 1914.00 1869.23 43.75
3435 55.6621 1859.00 1870.08 43.12
3436 55.6762 1834.00 1870.97 42.83
3437 55.6904 1827.00 1871.90 42.74
3438 55.7046 1880.00 1872.86 43.36
3439 55.7188 1913.00 1873.83 43.74
3440 55.7330 1833.00 1874.83 42.81
3441 55.7472 1885.00 1875.83 43.42
3442 55.7613 1870.00 1876.84 43.24
3443 55.7755 1861.00 1877.85 43.14
3444 55.7897 1896.00 1878.85 43.54
3445 55.8039 1886.00 1879.84 43.43
3446 55.8181 1814.00 1880.80 42.59
3447 55.8323 1846.00 1881.73 42.97
3448 55.8464 1923.00 1882.63 43.85
3449 55.8606 1828.00 1883.49 42.76
3450 55.8748 1849.00 1884.30 43.00
3451 55.8890 1827.00 1885.07 42.74
3452 55.9032 1887.00 1885.78 43.44
3453 55.9174 1898.00 1886.44 43.57
3454 55.9316 1843.00 1887.03 42.93
3455 55.9457 1827.00 1887.55 42.74
3456 55.9599 1853.00 1888.02 43.05
3457 55.9741 1859.00 1888.41 43.12
3458 55.9883 1842.00 1888.73 42.92
3459 56.0025 1846.00 1888.98 42.97
3460 56.0167 1919.00 1889.16 43.81
3461 56.0308 1920.00 1889.26 43.82
3462 56.0450 1911.00 1889.29 43.72
3463 56.0592 1961.00 1889.25 44.28
3464 56.0734 1950.00 1889.09 44.16
3465 56.0876 1958.00 1888.90 44.25
3466 56.1018 1818.00 1888.64 42.64
3467 56.1159 1955.00 1888.31 44.22
3468 56.1301 1954.00 1887.91 44.20
3469 56.1443 1873.00 1887.46 43.28
3470 56.1585 1812.00 1886.93 42.57
3471 56.1727 1863.00 1886.35 43.16
3472 56.1869 1828.00 1885.70 42.76
3473 56.2010 1895.00 1885.01 43.53
3474 56.2152 1912.00 1884.25 43.73
3475 56.2294 1836.00 1883.45 42.85
3476 56.2436 1910.00 1882.60 43.70
3477 56.2578 1841.00 1881.71 42.91
3478 56.2720 1898.00 1880.78 43.57
3479 56.2862 1903.00 1879.81 43.62
3480 56.3003 1913.00 1878.83 43.74
3481 56.3145 1837.00 1877.80 42.86
3482 56.3287 1931.00 1876.74 43.94
3483 56.3429 1834.00 1875.66 42.83
3484 56.3571 1870.00 1874.56 43.24
3485 56.3713 1839.00 1873.45 42.88
3486 56.3854 1893.00 1872.33 43.51
3487 56.3996 1858.00 1871.19 43.10
3488 56.4138 1924.00 1870.05 43.86
3489 56.4280 1836.00 1868.90 42.85
3490 56.4422 1869.00 1867.75 43.23
3491 56.4564 1861.00 1866.61 43.14
3492 56.4705 1855.00 1865.48 43.07
3493 56.4847 1891.00 1864.35 43.49
3494 56.4989 1862.00 1863.24 43.15
3495 56.5131 1797.00 1862.14 42.39
3496 56.5273 1760.00 1861.06 41.95
3497 56.5415 1927.00 1860.00 43.90
3498 56.5556 1849.00 1858.97 43.00
3499 56.5698 1946.00 1857.97 44.11
3500 56.5840 1874.00 1856.99 43.29
3501 56.5982 1885.00 1856.04 43.42
3502 56.6124 1949.00 1855.12 44.15
3503 56.6266 1924.00 1854.24 43.86
3504 56.6408 1896.00 1853.40 43.54
3505 56.6549 1837.00 1852.60 42.86
3506 56.6691 1859.00 1851.83 43.12
3507 56.6833 1851.00 1851.12 43.02
3508 56.6975 1901.00 1850.44 43.60
3509 56.7117 1805.00 1849.80 42.49
3510 56.7259 1840.00 1849.20 42.90
3511 56.7400 1820.00 1848.66 42.66
3512 56.7542 1857.00 1848.15 43.09
3513 56.7684 1820.00 1847.69 42.66
3514 56.7826 1895.00 1847.27 43.53
3515 56.7968 1895.00 1846.89 43.53
3516 56.8110 1918.00 1846.56 43.79
3517 56.8251 1876.00 1846.27 43.31
3518 56.8393 1841.00 1846.01 42.91
3519 56.8535 1848.00 1845.80 42.99
3520 56.8677 1827.00 1845.61 42.74
3521 56.8819 1746.00 1845.47 41.79
3522 56.8961 1826.00 1845.35 42.73
3523 56.9102 1880.00 1845.27 43.36
3524 56.9244 1848.00 1845.21 42.99
3525 56.9386 1834.00 1845.17 42.83
3526 56.9528 1808.00 1845.16 42.52
3527 56.9670 1910.00 1845.16 43.70
3528 56.9812 1829.00 1845.18 42.77
3529 56.9954 1887.00 1845.20 43.44
3530 57.0095 1845.00 1845.24 42.95
3531 57.0237 1886.00 1845.28 43.43
3532 57.0379 1869.00 1845.33 43.23
3533 57.0521 1914.00 1845.38 43.75
3534 57.0663 1829.00 1845.42 42.77
3535 57.0805 1773.00 1845.46 42.11
3536 57.0946 1774.00 1845.48 42.12
3537 57.1088 1845.00 1845.50 42.95
3538 57.1230 1827.00 1845.51 42.74
3539 57.1372 1764.00 1845.46 42.00
3540 57.1514 1864.00 1845.44 43.17
3541 57.1656 1897.00 1845.39 43.55
3542 57.1797 1903.00 1845.33 43.62
3543 57.1939 1795.00 1845.24 42.37
3544 57.2081 1792.00 1845.13 42.33
3545 57.2223 1817.00 1845.00 42.63
3546 57.2365 1802.00 1844.84 42.45
3547 57.2507 1879.00 1844.66 43.35
3548 57.2648 1820.00 1844.46 42.66
3549 57.2790 1915.00 1844.24 43.76
3550 57.2932 1851.00 1843.99 43.02
3551 57.3074 1805.00 1843.73 42.49
3552 57.3216 1887.00 1843.45 43.44
3553 57.3358 1797.00 1843.14 42.39
3554 57.3500 1872.00 1842.82 43.27
3555 57.3641 1854.00 1842.49 43.06
3556 57.3783 1772.00 1842.15 42.10
3557 57.3925 1940.00 1841.79 44.05
3558 57.4067 1853.00 1841.42 43.05
3559 57.4209 1891.00 1841.05 43.49
3560 57.4351 1908.00 1840.67 43.68
3561 57.4492 1784.00 1840.29 42.24
3562 57.4634 1876.00 1839.91 43.31
3563 57.4776 1898.00 1839.54 43.57
3564 57.4918 1840.00 1839.17 42.90
3565 57.5060 1890.00 1838.81 43.47
3566 57.5202 1820.00 1838.46 42.66
3567 57.5343 1833.00 1838.13 42.81
3568 57.5485 1841.00 1837.81 42.91
3569 57.5627 1878.00 1837.52 43.34
3570 57.5769 1871.00 1837.25 43.26
3571 57.5911 1846.00 1837.00 42.97
3572 57.6053 1863.00 1836.78 43.16
3573 57.6194 1903.00 1836.60 43.62
3574 57.6336 1807.00 1836.44 42.51
3575 57.6478 1927.00 1836.33 43.90
3576 57.6620 1876.00 1836.25 43.31
3577 57.6762 1890.00 1836.22 43.47
3578 57.6904 1892.00 1836.23 43.50
3579 57.7046 1771.00 1836.28 42.08
3580 57.7187 1858.00 1836.39 43.10
3581 57.7329 1908.00 1836.55 43.68
3582 57.7471 1803.00 1836.76 42.46
3583 57.7613 1770.00 1837.03 42.07
3584 57.7755 1893.00 1837.35 43.51
3585 57.7897 1808.00 1837.73 42.52
3586 57.8038 1807.00 1838.17 42.51
3587 57.8180 1846.00 1838.64 42.97
3588 57.8322 1874.00 1839.20 43.29
3589 57.8464 1866.00 1839.82 43.20
3590 57.8606 1875.00 1840.50 43.30
3591 57.8748 1839.00 1841.23 42.88
3592 57.8889 1855.00 1842.02 43.07
3593 57.9031 1909.00 1842.87 43.69
3594 57.9173 1833.00 1843.77 42.81
3595 57.9315 1877.00 1844.71 43.32
3596 57.9457 1856.00 1845.71 43.08
3597 57.9599 1884.00 1846.74 43.41
3598 57.9740 1841.00 1847.80 42.91
3599 57.9882 1876.00 1848.90 43.31
3600 58.0024 1869.00 1850.03 43.23
3601 58.0166 1843.00 1851.17 42.93
3602 58.0308 1956.00 1852.33 44.23
3603 58.0450 1903.00 1853.50 43.62
3604 58.0592 1844.00 1854.66 42.94
3605 58.0733 1835.00 1855.82 42.84
3606 58.0875 1893.00 1856.97 43.51
3607 58.1017 1838.00 1858.10 42.87
3608 58.1159 1904.00 1859.21 43.63
3609 58.1301 1815.00 1860.29 42.60
3610 58.1443 1807.00 1861.33 42.51
3611 58.1584 1857.00 1862.32 43.09
3612 58.1726 1779.00 1863.26 42.18
3613 58.1868 1877.00 1864.16 43.32
3614 58.2010 1836.00 1865.01 42.85
3615 58.2152 1867.00 1865.80 43.21
3616 58.2294 1845.00 1866.53 42.95
3617 58.2435 1891.00 1867.19 43.49
3618 58.2577 1841.00 1867.80 42.91
3619 58.2719 1832.00 1868.34 42.80
3620 58.2861 1902.00 1868.81 43.61
3621 58.3003 1882.00 1869.21 43.38
3622 58.3145 1941.00 1869.55 44.06
3623 58.3286 1845.00 1869.82 42.95
3624 58.3428 1841.00 1870.03 42.91
3625 58.3570 1847.00 1870.18 42.98
3626 58.3712 1780.00 1870.27 42.19
3627 58.3854 1881.00 1870.31 43.37
3628 58.3996 1863.00 1870.29 43.16
3629 58.4138 1842.00 1870.21 42.92
3630 58.4279 1972.00 1870.09 44.41
3631 58.4421 1891.00 1869.92 43.49
3632 58.4563 1891.00 1869.71 43.49
3633 58.4705 1889.00 1869.46 43.46
3634 58.4847 1930.00 1869.17 43.93
3635 58.4989 1899.00 1868.85 43.58
3636 58.5130 1869.00 1868.50 43.23
3637 58.5272 1816.00 1868.12 42.61
3638 58.5414 1861.00 1867.72 43.14
3639 58.5556 1873.00 1867.29 43.28
3640 58.5698 1903.00 1866.84 43.62
3641 58.5840 1874.00 1866.38 43.29
3642 58.5981 1875.00 1865.91 43.30
3643 58.6123 1740.00 1865.41 41.71
3644 58.6265 1863.00 1864.91 43.16
3645 58.6407 1804.00 1864.40 42.47
3646 58.6549 1823.00 1863.88 42.70
3647 58.6691 1827.00 1863.35 42.74
3648 58.6832 1841.00 1862.82 42.91
3649 58.6974 1836.00 1862.28 42.85
3650 58.7116 1874.00 1861.74 43.29
3651 58.7258 1911.00 1861.19 43.72
3652 58.7400 1860.00 1860.64 43.13
3653 58.7542 1844.00 1860.10 42.94
3654 58.7684 1882.00 1859.54 43.38
3655 58.7825 1815.00 1858.99 42.60
3656 58.7967 1779.00 1858.44 42.18
3657 58.8109 1817.00 1857.89 42.63
3658 58.8251 1842.00 1857.33 42.92
3659 58.8393 1818.00 1856.76 42.64
3660 58.8535 1882.00 1856.21 43.38
3661 58.8676 1852.00 1855.66 43.03
3662 58.8818 1914.00 1855.11 43.75
3663 58.8960 1867.00 1854.56 43.21
3664 58.9102 1808.00 1854.01 42.52
3665 58.9244 1867.00 1853.47 43.21
3666 58.9386 1843.00 1852.94 42.93
3667 58.9527 1866.00 1852.41 43.20
3668 58.9669 1791.00 1851.88 42.32
3669 58.9811 1868.00 1851.36 43.22
3670 58.9953 1845.00 1850.85 42.95
3671 59.0095 1822.00 1850.35 42.68
3672 59.0237 1783.00 1849.85 42.23
3673 59.0378 1880.00 1849.37 43.36
3674 59.0520 1859.00 1848.89 43.12
3675 59.0662 1833.00 1848.42 42.81
3676 59.0804 1827.00 1847.97 42.74
3677 59.0946 1786.00 1847.52 42.26
3678 59.1088 1856.00 1847.08 43.08
3679 59.1230 1823.00 1846.67 42.70
3680 59.1371 1887.00 1846.26 43.44
3681 59.1513 1800.00 1845.86 42.43
3682 59.1655 1869.00 1845.47 43.23
3683 59.1797 1817.00 1845.10 42.63
3684 59.1939 1835.00 1844.72 42.84
3685 59.2081 1830.00 1844.37 42.78
3686 59.2222 1750.00 1844.03 41.83
3687 59.2364 1824.00 1843.70 42.71
3688 59.2506 1802.00 1843.38 42.45
3689 59.2648 1832.00 1843.07 42.80
3690 59.2790 1816.00 1842.76 42.61
3691 59.2932 1901.00 1842.48 43.60
3692 59.3073 1876.00 1842.19 43.31
3693 59.3215 1834.00 1841.90 42.83
3694 59.3357 1821.00 1841.62 42.67
3695 59.3499 1788.00 1841.34 42.28
3696 59.3641 1860.00 1841.06 43.13
3697 59.3783 1824.00 1840.77 42.71
3698 59.3924 1920.00 1840.48 43.82
3699 59.4066 1812.00 1840.18 42.57
3700 59.4208 1801.00 1839.87 42.44
3701 59.4350 1925.00 1839.55 43.87
3702 59.4492 1902.00 1839.20 43.61
3703 59.4634 1837.00 1838.84 42.86
3704 59.4776 1849.00 1838.44 43.00
3705 59.4917 1836.00 1838.03 42.85
3706 59.5059 1958.00 1837.57 44.25
3707 59.5201 1782.00 1837.08 42.21
3708 59.5343 1798.00 1836.55 42.40
3709 59.5485 1861.00 1835.98 43.14
3710 59.5627 1855.00 1835.36 43.07
3711 59.5768 1877.00 1834.69 43.32
3712 59.5910 1807.00 1833.97 42.51
3713 59.6052 1743.00 1833.19 41.75
3714 59.6194 1894.00 1832.36 43.52
3715 59.6336 1838.00 1831.46 42.87
3716 59.6478 1746.00 1830.50 41.79
3717 59.6619 1841.00 1829.48 42.91
3718 59.6761 1844.00 1828.39 42.94
3719 59.6903 1880.00 1827.24 43.36
3720 59.7045 1814.00 1826.01 42.59
3721 59.7187 1928.00 1824.72 43.91
3722 59.7329 1757.00 1823.36 41.92
3723 59.7470 1853.00 1821.95 43.05
3724 59.7612 1780.00 1820.45 42.19
3725 59.7754 1867.00 1818.89 43.21
3726 59.7896 1846.00 1817.26 42.97
3727 59.8038 1918.00 1815.56 43.79
3728 59.8180 1785.00 1813.80 42.25
