#------------------------------------------------------------------------------
#$Date: 2016-03-25 13:37:44 +0200 (Fri, 25 Mar 2016) $
#$Revision: 179854 $
#$URL: svn://www.crystallography.net/cod/cif/7/01/50/7015062.cif $
#------------------------------------------------------------------------------
#
# This file is available in the Crystallography Open Database (COD),
# http://www.crystallography.net/
#
# All data on this site have been placed in the public domain by the
# contributors.
#
data_7015062
loop_
_publ_author_name
'Lhoste, J\'er\^ome'
'Henry, Natacha'
'Roussel, Pascal'
'Loiseau, Thierry'
'Abraham, Francis'
_publ_section_title
;
 An uranyl citrate coordination polymer with a 3D open-framework
 involving uranyl cation-cation interactions
;
_journal_issue                   11
_journal_name_full               'Dalton Transactions'
_journal_page_first              2422
_journal_paper_doi               10.1039/c0dt01721c
_journal_volume                  40
_journal_year                    2011
_chemical_formula_moiety         'C6 H4 O20 U4, 2(H2 O)'
_chemical_formula_structural     'C6 H4 O20 U4, 2(O)'
_chemical_formula_sum            'C6 H4 O22 U4'
_chemical_formula_weight         1380.2
_chemical_name_systematic        ' ?'
_space_group_IT_number           2
_symmetry_cell_setting           triclinic
_symmetry_space_group_name_Hall  '-P 1'
_symmetry_space_group_name_H-M   'P -1'
_cell_angle_alpha                79.881(2)
_cell_angle_beta                 86.231(2)
_cell_angle_gamma                81.912(2)
_cell_formula_units_Z            2
_cell_length_a                   8.0495(2)
_cell_length_b                   11.8852(5)
_cell_length_c                   11.9209(4)
_cell_measurement_reflns_used    6704
_cell_measurement_temperature    293
_cell_measurement_theta_max      32.13
_cell_measurement_theta_min      2.25
_cell_volume                     1110.58(7)
_computing_cell_refinement       unknown
_computing_data_collection       unknown
_computing_data_reduction        unknown
_computing_molecular_graphics    unknown
_computing_structure_solution    unknown
_diffrn_ambient_temperature      293
_diffrn_measured_fraction_theta_full 0.98
_diffrn_measured_fraction_theta_max 0.85
_diffrn_measurement_device       'four-cycle diffractometer'
_diffrn_measurement_device_type  'Bruker CCD'
_diffrn_measurement_method       '\f & \w scans'
_diffrn_radiation_monochromator  graphite
_diffrn_radiation_source         'X-ray tube'
_diffrn_radiation_type           'Mo K\a'
_diffrn_radiation_wavelength     0.71073
_diffrn_reflns_av_R_equivalents  0.045
_diffrn_reflns_av_sigmaI/netI    0.0574
_diffrn_reflns_limit_h_max       10
_diffrn_reflns_limit_h_min       -12
_diffrn_reflns_limit_k_max       16
_diffrn_reflns_limit_k_min       -18
_diffrn_reflns_limit_l_max       17
_diffrn_reflns_limit_l_min       -16
_diffrn_reflns_number            21659
_diffrn_reflns_theta_full        30.95
_diffrn_reflns_theta_max         33.31
_diffrn_reflns_theta_min         1.74
_exptl_absorpt_coefficient_mu    29.175
_exptl_absorpt_correction_T_max  0.43439
_exptl_absorpt_correction_T_min  0.2116
_exptl_absorpt_correction_type   numerical
_exptl_absorpt_process_details   'optimized using Stoe X-shape'
_exptl_crystal_colour            yellow-greeen
_exptl_crystal_density_diffrn    4.126
_exptl_crystal_description       Irregular
_exptl_crystal_F_000             1168
_exptl_crystal_size_max          0.13
_exptl_crystal_size_mid          0.05
_exptl_crystal_size_min          0.025
_refine_diff_density_max         4.63
_refine_diff_density_min         -4.56
_refine_ls_extinction_coef       1610(180)
_refine_ls_extinction_method     'B-C type 2 (Becker & Coppens, 1974)'
_refine_ls_goodness_of_fit_gt    3.56
_refine_ls_goodness_of_fit_ref   3.98
_refine_ls_hydrogen_treatment    constr
_refine_ls_number_constraints    17
_refine_ls_number_parameters     199
_refine_ls_number_reflns         7369
_refine_ls_number_restraints     0
_refine_ls_R_factor_all          0.0766
_refine_ls_R_factor_gt           0.0514
_refine_ls_shift/su_max          0.0033
_refine_ls_shift/su_mean         0.0012
_refine_ls_structure_factor_coef F
_refine_ls_weighting_scheme      sigma
_refine_ls_wR_factor_gt          0.0598
_refine_ls_wR_factor_ref         0.0791
_reflns_number_gt                5262
_reflns_number_total             7369
_reflns_threshold_expression     I>3\s(I)
_cod_data_source_file            C0DT01721C.TXT
_cod_data_source_block           (I)
_cod_depositor_comments
;
The following automatic conversions were performed:
'_exptl_absorpt_correction_type' value 'Numerical' changed to 'numerical'
according to '/home/saulius/struct/CIF-dictionaries/cif_core.dic'
dictionary named 'cif_core.dic' version 2.4.1 from 2010-06-29.

Automatic conversion script
Id: cif_fix_enum 1555 2011-01-17 13:19:09Z saulius 
;
_cod_database_code               7015062
loop_
_symmetry_equiv_pos_site_id
_symmetry_equiv_pos_as_xyz
1 x,y,z
2 -x,-y,-z
loop_
_atom_site_label
_atom_site_type_symbol
_atom_site_fract_x
_atom_site_fract_y
_atom_site_fract_z
_atom_site_adp_type
_atom_site_U_iso_or_equiv
_atom_site_symmetry_multiplicity
_atom_site_occupancy
_atom_site_calc_flag
_atom_site_refinement_flags
_atom_site_disorder_assembly
_atom_site_disorder_group
U1 U -0.04212(6) 0.43608(5) 0.29792(4) Uani 0.01834(14) 2 1 d . . .
U2 U -0.22304(6) 0.50507(5) -0.02365(4) Uani 0.01586(13) 2 1 d . . .
U3 U -0.3918(3) 0.8485(2) -0.0096(2) Uani 0.0538(10) 2 1 d . . .
U4 U -0.3168(6) 0.9375(4) 0.2814(4) Uani 0.0899(18) 2 1 d . . .
O1 O -0.7575(12) 1.4337(8) 0.2236(8) Uiso 0.0185(18) 2 1 d . . .
O2 O -0.3192(18) 1.4282(12) 0.2422(12) Uiso 0.039(3) 2 1 d . . .
O3 O -0.2637(14) 0.6523(10) 0.0054(10) Uiso 0.025(2) 2 1 d . . .
O4 O -0.0269(13) 0.4602(9) 0.1066(9) Uiso 0.0195(18) 2 1 d . . .
O5 O 0.4798(18) 0.2339(12) 0.1648(12) Uiso 0.037(3) 2 1 d . . .
C1 C -0.537(2) 1.2004(16) 0.2709(15) Uiso 0.031(3) 2 1 d . . .
O6 O -0.8676(14) 1.4252(10) 0.4534(10) Uiso 0.026(2) 2 1 d . . .
O7 O -0.214(2) 0.8120(15) 0.1512(15) Uiso 0.053(4) 2 1 d . . .
C2 C -0.6106(16) 1.4181(11) 0.2854(11) Uiso 0.017(2) 2 1 d . . .
O9 O -0.552(3) 0.7984(17) 0.0804(17) Uiso 0.064(5) 2 1 d . . .
C3 C -0.625(2) 1.5065(14) 0.3655(14) Uiso 0.028(3) 2 1 d . . .
O10 O -0.4875(14) 1.4797(10) 0.1004(10) Uiso 0.026(2) 2 1 d . . .
O11 O -0.0711(17) 0.5874(11) 0.2849(11) Uiso 0.034(3) 2 1 d . . .
O12 O -0.318(3) 0.978(2) 0.479(2) Uiso 0.082(6) 2 1 d . . .
O13 O -0.0180(17) 0.2846(11) 0.3200(11) Uiso 0.034(3) 2 1 d . . .
C4 C -0.763(2) 1.4966(15) 0.4567(15) Uiso 0.031(3) 2 1 d . . .
O16 O -0.229(3) 0.9002(18) -0.0991(18) Uiso 0.067(5) 2 1 d . . .
O17 O -0.594(3) 0.993(2) -0.092(2) Uiso 0.084(7) 2 1 d . . .
O18 O -0.099(3) 0.7931(17) 0.3795(17) Uiso 0.064(5) 2 1 d . . .
O19 O -0.1937(16) 0.3588(11) -0.0443(11) Uiso 0.031(2) 2 1 d . . .
C5 C -0.574(2) 1.2905(14) 0.3478(15) Uiso 0.029(3) 2 1 d . . .
O20 O -0.7708(17) 1.5606(11) 0.5304(11) Uiso 0.034(3) 2 1 d . . .
O21 O -0.474(3) 0.844(2) 0.335(2) Uiso 0.083(7) 2 1 d . . .
O14 O -0.524(3) 1.0981(18) 0.3169(18) Uiso 0.068(5) 2 1 d . . .
C6 C -0.4631(18) 1.4445(13) 0.2055(12) Uiso 0.021(3) 2 1 d . . .
O8 O -0.160(3) 1.0238(19) 0.2447(19) Uiso 0.070(5) 2 1 d . . .
Ow1 O -0.105(5) 0.113(3) -0.010(3) Uiso 0.139(9) 2 1 d . . .
Ow2 O 0.186(5) 0.856(3) 0.268(3) Uiso 0.139(9) 2 1 d . . .
H1c3 H -0.519934 1.502585 0.400124 Uiso 0.0332 2 1 d . . .
H2c3 H -0.638786 1.582852 0.321649 Uiso 0.0332 2 1 d . . .
H1c5 H -0.483668 1.283495 0.397967 Uiso 0.0343 2 1 d . . .
H2c5 H -0.666998 1.272501 0.39978 Uiso 0.0343 2 1 d . . .
loop_
_atom_site_aniso_label
_atom_site_aniso_type_symbol
_atom_site_aniso_U_11
_atom_site_aniso_U_22
_atom_site_aniso_U_33
_atom_site_aniso_U_12
_atom_site_aniso_U_13
_atom_site_aniso_U_23
U1 U 0.00808(19) 0.0365(3) 0.0120(2) -0.00305(17) 0.00013(14) -0.00843(18)
U2 U 0.00845(18) 0.0267(2) 0.0136(2) -0.00406(15) -0.00055(14) -0.00497(16)
U3 U 0.0410(14) 0.0479(16) 0.0754(17) 0.0003(11) -0.0095(12) -0.0202(13)
U4 U 0.104(3) 0.087(3) 0.080(3) -0.009(2) -0.005(2) -0.019(2)
loop_
_atom_type_symbol
_atom_type_scat_dispersion_real
_atom_type_scat_dispersion_imag
_atom_type_scat_source
U -9.677 9.665 'International Tables Vol C tables 4.2.6.8 and 6.1.1.1'
C 0.003 0.002 'International Tables Vol C tables 4.2.6.8 and 6.1.1.1'
O 0.011 0.006 'International Tables Vol C tables 4.2.6.8 and 6.1.1.1'
H 0.000 0.000 'International Tables Vol C tables 4.2.6.8 and 6.1.1.1'
loop_
_diffrn_standard_refln_index_h
_diffrn_standard_refln_index_k
_diffrn_standard_refln_index_l
? ? ?
loop_
_geom_bond_atom_site_label_1
_geom_bond_atom_site_label_2
_geom_bond_site_symmetry_1
_geom_bond_site_symmetry_2
_geom_bond_distance
_geom_bond_publ_flag
U1 O1 . 1_645 2.403(8) yes
U1 O2 . 1_545 2.387(16) yes
U1 O4 . . 2.245(11) yes
U1 O6 . 1_645 2.367(11) yes
U1 O11 . . 1.757(12) yes
U1 O13 . . 1.753(12) yes
U1 O20 . 2_476 2.465(13) yes
U2 O1 . 2_475 2.376(9) yes
U2 O3 . . 1.819(12) yes
U2 O4 . . 2.232(9) yes
U2 O4 . 2_565 2.242(9) yes
U2 O19 . . 1.776(12) yes
U3 O3 . . 2.397(11) yes
U3 O5 . 2_565 2.430(14) yes
U3 O7 . . 2.41(2) yes
U3 O9 . . 1.72(2) yes
U3 O16 . . 1.74(2) yes
U3 O17 . . 2.32(2) yes
U3 O17 . 2_475 2.40(3) yes
U4 O7 . . 2.37(2) yes
U4 O12 . . 2.48(3) yes
U4 O17 . 2_475 2.38(2) yes
U4 O18 . . 2.47(2) yes
U4 O21 . . 1.81(2) yes
U4 O14 . . 2.43(2) yes
U4 O8 . . 1.72(3) yes
O1 C2 . . 1.398(18) yes
O1 C3 . . 2.406(18) yes
O1 C5 . . 2.444(15) yes
O1 C6 . . 2.381(18) yes
O2 C2 . . 2.39(2) yes
O2 O10 . . 2.185(17) yes
O2 C6 . . 1.24(2) yes
O5 C1 . 1_645 1.26(3) yes
O5 C5 . 1_645 2.386(18) yes
O5 O14 . 1_645 2.21(2) yes
C1 C5 . . 1.51(3) yes
C1 O14 . . 1.23(3) yes
O6 C3 . . 2.401(18) yes
O6 C4 . . 1.29(2) yes
O6 O20 . . 2.244(19) yes
C2 C3 . . 1.541(18) yes
C2 O10 . . 2.398(16) yes
C2 C5 . . 1.571(16) yes
C2 C6 . . 1.51(2) yes
C3 C4 . . 1.50(2) yes
C3 O20 . . 2.354(18) yes
C3 H1c3 . . 0.9533 yes
C3 H2c3 . . 0.9574 yes
O10 O10 . 2_485 2.365(17) yes
O10 C6 . . 1.268(16) yes
C4 O20 . . 1.25(3) yes
C5 O14 . . 2.35(3) yes
C5 H1c5 . . 0.9563 yes
C5 H2c5 . . 0.9605 yes
loop_
_refln_index_h
_refln_index_k
_refln_index_l
_refln_F_squared_calc
_refln_F_squared_meas
_refln_F_squared_sigma
_refln_observed_status
1 0 0 2846.91 186.24 22.37 o
2 0 0 2832.39 2285.17 63.21 o
3 0 0 16402.96 14319.02 362.01 o
4 0 0 8984.20 11809.54 312.19 o
5 0 0 18828.77 18968.10 429.07 o
6 0 0 2949.66 3369.17 122.79 o
7 0 0 12324.60 12521.64 421.63 o
8 0 0 174.65 9.38 110.98 <
9 0 0 2.94 103.95 128.44 <
10 0 0 268.52 591.32 171.14 o
11 0 0 15819.56 16821.74 748.62 o
-11 1 0 10208.66 9626.86 778.34 o
-10 1 0 2063.86 2575.46 278.76 o
-9 1 0 3286.50 4049.75 319.18 o
-8 1 0 41.69 112.55 102.39 <
-7 1 0 1376.07 1085.16 127.57 o
-6 1 0 3819.93 3936.18 204.65 o
-5 1 0 26569.40 28323.71 738.56 o
-4 1 0 72678.84 78698.76 1560.68 o
-3 1 0 14382.70 10279.96 228.52 o
-2 1 0 44952.64 36935.89 741.13 o
-1 1 0 24381.90 25852.01 511.11 o
1 1 0 168716.53 160053.53 4553.23 o
2 1 0 22750.20 23074.31 1304.47 o
3 1 0 1638.82 1661.73 88.50 o
4 1 0 33548.52 37555.97 920.11 o
5 1 0 3526.95 3697.76 111.30 o
6 1 0 7395.69 6615.72 201.95 o
7 1 0 35852.54 38611.57 1123.30 o
8 1 0 131.66 327.20 101.86 o
9 1 0 10.94 -9.12 101.08 <
10 1 0 7541.69 8282.46 409.94 o
11 1 0 6513.19 6963.43 573.75 o
-11 2 0 3255.21 3434.71 544.96 o
-10 2 0 493.75 517.03 288.60 <
-9 2 0 4469.43 4059.51 346.83 o
-8 2 0 1093.34 1467.58 165.87 o
-7 2 0 1635.94 1780.36 134.33 o
-6 2 0 8311.72 8312.02 236.11 o
-5 2 0 4022.73 4529.95 160.42 o
-4 2 0 49373.93 51822.78 1123.18 o
-3 2 0 36332.86 33410.63 753.96 o
-2 2 0 84425.93 69805.10 1296.03 o
-1 2 0 89494.84 76617.00 1412.56 o
0 2 0 122743.26 121006.71 3370.33 o
1 2 0 6408.50 2490.89 57.37 o
2 2 0 77.47 152.14 39.34 o
3 2 0 4752.82 4118.80 338.86 o
4 2 0 4042.11 4243.56 384.50 o
5 2 0 8.98 10.68 48.46 <
6 2 0 12639.37 14231.39 473.26 o
7 2 0 24695.80 28448.31 826.83 o
8 2 0 10482.94 9517.47 393.54 o
9 2 0 1322.14 1872.57 164.03 o
10 2 0 2643.88 2797.78 314.85 o
11 2 0 18104.61 18790.49 1105.06 o
-11 3 0 4187.92 3447.45 573.84 o
-10 3 0 488.68 428.73 316.99 <
-9 3 0 4087.24 4336.65 525.80 o
-8 3 0 10635.33 9624.35 414.01 o
-7 3 0 1030.53 930.15 150.77 o
-6 3 0 185.66 318.34 95.60 o
-5 3 0 71993.41 68579.86 1723.15 o
-4 3 0 5455.13 6034.53 225.24 o
-3 3 0 2000.00 2330.82 135.85 o
-2 3 0 26502.43 20657.44 500.70 o
-1 3 0 18543.58 11361.58 250.65 o
0 3 0 102048.59 96394.97 1779.97 o
1 3 0 5204.58 5167.60 127.03 o
2 3 0 29167.62 27274.66 519.11 o
3 3 0 22018.20 22440.20 559.16 o
4 3 0 569.29 304.73 54.43 o
5 3 0 2617.40 2504.76 135.81 o
6 3 0 35271.30 34885.34 1055.52 o
7 3 0 32691.61 33158.59 2052.04 o
8 3 0 197.08 317.29 104.46 o
9 3 0 1676.30 1748.35 213.47 o
10 3 0 52.24 315.23 161.52 <
11 3 0 7268.17 7342.63 361.94 o
12 3 0 3888.41 3781.46 358.33 o
-11 4 0 1763.66 1825.27 546.38 o
-10 4 0 925.25 1503.11 420.57 o
-9 4 0 13023.54 12399.94 914.14 o
-8 4 0 1252.07 1781.50 256.21 o
-7 4 0 7685.85 7446.00 363.94 o
-6 4 0 2.11 63.31 90.14 <
-5 4 0 7092.86 7811.51 286.61 o
-4 4 0 98654.20 98063.61 2433.56 o
-3 4 0 7673.88 6700.14 168.92 o
-2 4 0 8265.90 7039.07 244.08 o
-1 4 0 16830.99 12852.83 315.20 o
0 4 0 1963.13 3408.75 140.27 o
1 4 0 29.57 86.23 42.99 <
2 4 0 11236.35 14508.95 299.35 o
3 4 0 7129.85 7305.11 178.31 o
4 4 0 2518.67 2092.17 77.54 o
5 4 0 3051.13 3552.29 180.79 o
6 4 0 1087.85 1711.79 135.14 o
7 4 0 53076.67 53403.95 3118.68 o
8 4 0 2114.38 2251.86 455.47 o
9 4 0 4151.39 3986.77 205.94 o
10 4 0 2792.44 3454.31 209.71 o
11 4 0 2066.42 2032.49 176.21 o
12 4 0 671.92 586.78 175.54 o
-11 5 0 25.11 568.72 504.89 <
-10 5 0 180.01 -131.82 363.14 <
-9 5 0 15264.42 14526.71 735.97 o
-8 5 0 12371.77 12263.25 636.98 o
-7 5 0 3978.05 3733.98 348.20 o
-6 5 0 12152.66 12436.25 422.46 o
-5 5 0 13792.06 12451.21 411.44 o
-4 5 0 4495.04 4343.35 223.29 o
-3 5 0 17352.24 17248.35 457.53 o
-2 5 0 26095.55 25196.50 696.05 o
-1 5 0 1805.88 1946.36 117.65 o
0 5 0 5354.65 5057.43 202.37 o
1 5 0 971.84 853.04 88.79 o
2 5 0 23668.87 21180.91 522.70 o
3 5 0 51894.33 54897.94 1043.19 o
4 5 0 6062.71 5258.00 169.60 o
5 5 0 2302.90 2006.36 101.49 o
6 5 0 23910.57 24698.96 786.85 o
7 5 0 4250.19 5509.18 251.68 o
8 5 0 6193.21 5881.08 294.33 o
9 5 0 1418.79 1550.69 174.70 o
-10 6 0 4875.00 3507.18 693.74 o
-9 6 0 3434.11 3354.42 408.38 o
-8 6 0 9002.55 7159.46 514.74 o
-7 6 0 1966.38 1711.93 275.91 o
-6 6 0 8124.27 9515.43 412.13 o
-5 6 0 29034.62 31171.07 875.63 o
-4 6 0 13327.75 13916.56 382.78 o
-3 6 0 10172.67 8726.90 323.47 o
-2 6 0 4936.97 4744.65 200.62 o
-1 6 0 6080.49 5804.60 201.53 o
0 6 0 1965.90 2789.45 168.65 o
1 6 0 18461.15 17805.76 517.53 o
2 6 0 24885.93 28079.50 692.17 o
3 6 0 19487.87 20882.54 523.80 o
4 6 0 21728.33 21258.30 599.55 o
5 6 0 9992.20 9380.86 236.69 o
6 6 0 9074.73 8408.27 284.81 o
7 6 0 27173.27 28255.47 1159.82 o
8 6 0 2427.99 2841.24 208.19 o
9 6 0 1158.06 860.06 145.30 o
10 6 0 1321.79 1367.97 465.54 <
-10 7 0 480.74 600.90 538.12 <
-9 7 0 16373.79 13006.30 784.65 o
-8 7 0 47.06 -17.45 230.30 <
-7 7 0 1.64 -521.31 186.28 <
-6 7 0 721.42 924.30 180.48 o
-5 7 0 737.97 1152.69 187.51 o
-4 7 0 10183.32 11073.17 318.61 o
-3 7 0 2842.13 3057.67 212.29 o
-2 7 0 23422.39 27234.23 786.20 o
-1 7 0 9841.75 10227.94 325.32 o
0 7 0 362.98 219.06 81.79 <
1 7 0 45.24 615.61 90.66 o
2 7 0 73503.80 72732.03 1842.58 o
3 7 0 15950.59 14385.66 399.52 o
4 7 0 4180.05 4084.64 177.83 o
5 7 0 6909.23 5908.33 240.70 o
6 7 0 301.39 489.98 99.51 o
7 7 0 7902.33 6878.68 324.45 o
8 7 0 505.10 653.25 135.18 o
9 7 0 11503.03 10809.54 588.00 o
10 7 0 1994.85 1807.95 200.68 o
-9 8 0 1896.00 1144.25 477.90 <
-8 8 0 8446.51 7010.38 810.19 o
-7 8 0 6424.26 8027.80 642.38 o
-6 8 0 1052.26 1133.00 211.45 o
-5 8 0 2584.86 3268.78 290.14 o
-4 8 0 47.26 86.49 93.27 <
-3 8 0 2501.91 2409.81 244.08 o
-2 8 0 27501.45 25571.71 876.00 o
-1 8 0 1053.92 1289.97 141.39 o
0 8 0 3681.14 3102.60 180.99 o
1 8 0 5491.04 5891.39 249.16 o
2 8 0 645.07 1332.95 139.08 o
3 8 0 52265.55 50179.66 1194.69 o
4 8 0 1446.80 1360.55 121.84 o
5 8 0 13343.42 12922.44 431.25 o
6 8 0 7547.30 7837.54 309.18 o
7 8 0 338.03 404.01 134.67 o
8 8 0 1149.13 1124.36 172.64 o
9 8 0 6192.74 5500.41 328.37 o
10 8 0 5429.15 5555.45 354.20 o
11 8 0 38.83 -28.14 206.85 <
-9 9 0 1042.35 648.13 480.43 <
-8 9 0 8.83 1095.25 457.22 <
-7 9 0 40.73 153.19 381.66 <
-6 9 0 6178.48 6651.05 501.91 o
-5 9 0 15.80 94.05 186.01 <
-4 9 0 53.29 74.77 125.57 <
-3 9 0 1435.35 1434.00 241.34 o
-2 9 0 12921.35 14667.03 694.36 o
-1 9 0 14488.71 14596.42 557.71 o
0 9 0 8132.96 9092.60 353.94 o
1 9 0 6214.65 5857.94 299.73 o
2 9 0 24965.55 25849.69 738.75 o
3 9 0 644.58 1242.32 139.34 o
4 9 0 978.20 1054.12 125.52 o
5 9 0 7202.71 7747.32 321.43 o
6 9 0 2194.08 2331.93 191.81 o
7 9 0 3526.21 3772.27 288.45 o
8 9 0 2537.79 2629.82 260.22 o
9 9 0 8184.48 7712.54 425.65 o
10 9 0 4725.44 4508.82 333.25 o
11 9 0 2.92 -113.33 266.00 <
-8 10 0 1.97 -60.44 405.38 <
-7 10 0 4297.23 5626.06 782.63 o
-6 10 0 2781.55 2576.44 359.85 o
-5 10 0 297.93 -78.15 189.90 <
-4 10 0 290.78 375.63 214.65 <
-3 10 0 10947.02 13120.57 676.74 o
-2 10 0 3213.29 4238.04 381.87 o
-1 10 0 1599.09 1155.33 221.54 o
0 10 0 3365.75 3377.47 261.41 o
1 10 0 9063.47 10476.40 443.29 o
2 10 0 7346.02 7995.09 365.53 o
3 10 0 11241.71 9940.57 341.01 o
4 10 0 13884.87 13538.65 412.80 o
5 10 0 2777.88 2710.38 224.54 o
6 10 0 250.02 209.70 130.25 <
7 10 0 2.53 122.45 163.35 <
8 10 0 887.11 531.52 183.86 <
9 10 0 8016.41 6473.86 431.38 o
10 10 0 2250.02 2523.38 299.81 o
11 10 0 1.17 -221.97 262.87 <
-7 11 0 4865.15 4152.44 680.25 o
-6 11 0 3057.45 2241.27 370.73 o
-5 11 0 1366.85 1761.88 307.49 o
-4 11 0 6.99 -207.90 192.01 <
-3 11 0 3.09 -38.56 180.54 <
-2 11 0 25992.34 28195.51 1183.53 o
-1 11 0 33.29 115.15 177.42 <
0 11 0 5420.31 5663.65 424.87 o
1 11 0 4483.61 5039.35 322.89 o
2 11 0 947.87 1497.10 192.96 o
3 11 0 737.42 801.10 144.28 o
4 11 0 204.97 387.89 129.21 o
5 11 0 14353.35 15437.33 622.91 o
6 11 0 341.86 628.03 175.83 o
7 11 0 29.11 12.24 208.68 <
8 11 0 514.08 305.79 230.77 <
9 11 0 4814.20 3820.59 467.11 o
10 11 0 2672.82 3328.91 716.83 o
-6 12 0 6296.88 6055.29 550.69 o
-5 12 0 479.44 977.54 295.89 o
-4 12 0 656.93 452.14 246.64 <
-3 12 0 1747.03 2595.11 344.66 o
-2 12 0 37.20 -237.60 168.30 <
-1 12 0 8902.81 9887.13 569.23 o
0 12 0 6238.29 6793.52 489.93 o
1 12 0 6398.42 6282.84 454.56 o
2 12 0 7342.89 7119.22 382.44 o
3 12 0 815.26 1065.93 166.93 o
4 12 0 3648.96 4121.87 323.55 o
5 12 0 5229.40 5422.55 379.97 o
6 12 0 903.90 1059.90 218.75 o
7 12 0 206.07 453.53 246.96 <
8 12 0 1329.30 1183.10 312.18 o
9 12 0 1265.03 648.06 280.16 <
10 12 0 1196.30 1291.98 610.06 <
-5 13 0 1437.45 1676.67 351.74 o
-4 13 0 4918.51 5992.54 538.85 o
-3 13 0 1980.35 2381.39 355.30 o
-2 13 0 5836.96 5871.85 499.13 o
-1 13 0 3730.45 5897.05 481.93 o
0 13 0 351.12 392.29 212.82 <
1 13 0 3298.09 4373.84 400.34 o
2 13 0 312.01 172.18 191.20 <
3 13 0 936.36 1039.31 176.04 o
4 13 0 3970.41 4509.03 398.14 o
5 13 0 5565.24 6255.88 409.80 o
6 13 0 1023.13 1124.95 229.94 o
7 13 0 706.61 912.07 306.02 <
8 13 0 10.56 -64.61 254.79 <
9 13 0 3229.88 3973.88 823.81 o
-5 14 0 80.74 92.48 399.89 <
-4 14 0 265.14 240.18 279.77 <
-3 14 0 2590.45 3039.04 405.41 o
-2 14 0 2575.40 3162.17 391.63 o
-1 14 0 731.60 445.09 236.48 <
0 14 0 13026.49 15029.47 778.44 o
1 14 0 792.99 1155.28 260.17 o
2 14 0 5.09 26.31 198.00 <
3 14 0 3.87 301.17 261.83 <
4 14 0 2126.62 2440.57 297.75 o
5 14 0 4275.20 3744.70 394.44 o
6 14 0 32.68 24.75 251.93 <
7 14 0 35.40 190.96 285.53 <
8 14 0 128.00 -235.24 267.02 <
9 14 0 424.08 487.87 539.18 <
-3 15 0 1245.45 1840.33 357.75 o
-2 15 0 290.53 199.54 256.58 <
-1 15 0 3.55 -245.42 216.76 <
0 15 0 1757.57 1765.46 322.53 o
1 15 0 3695.30 3557.67 389.60 o
2 15 0 144.66 87.01 207.63 <
3 15 0 1.72 217.80 260.27 <
4 15 0 277.86 550.68 290.45 <
5 15 0 3866.64 2855.16 416.87 o
6 15 0 15.73 48.20 266.26 <
7 15 0 3080.70 2484.36 433.14 o
8 15 0 68.14 -281.62 465.29 <
-1 16 0 495.16 548.80 283.65 <
0 16 0 1600.61 1838.46 333.75 o
1 16 0 1428.56 1319.21 303.57 o
2 16 0 210.93 200.33 290.72 <
3 16 0 185.92 -93.26 264.93 <
4 16 0 1104.15 1055.89 349.97 o
5 16 0 108.87 -36.99 289.95 <
6 16 0 38.14 -462.95 410.84 <
7 16 0 1043.24 833.52 348.41 <
0 17 0 1332.45 1556.18 491.82 o
2 17 0 58.80 -100.82 449.92 <
3 17 0 1007.13 1323.62 623.40 <
4 17 0 41.92 358.22 514.27 <
5 17 0 1555.37 2271.90 751.83 o
2 18 0 587.44 1564.27 600.86 <
-5 -17 1 358.27 650.16 578.27 <
-4 -17 1 110.76 737.77 557.76 <
-3 -17 1 1054.02 859.30 578.60 <
-2 -17 1 575.46 769.64 552.16 <
0 -17 1 730.90 1922.53 562.54 o
-6 -16 1 28.29 -555.44 399.38 <
-5 -16 1 108.97 402.23 312.36 <
-4 -16 1 23.66 168.82 291.01 <
-3 -16 1 3571.95 4189.77 529.80 o
-2 -16 1 49.21 136.25 301.68 <
-1 -16 1 31.95 -395.21 231.34 <
0 -16 1 263.95 37.51 242.00 <
1 -16 1 601.48 1371.02 473.24 <
-7 -15 1 3401.83 1799.89 405.24 o
-6 -15 1 148.49 324.33 280.31 <
-5 -15 1 2.06 -28.92 254.27 <
-4 -15 1 7.25 67.48 260.27 <
-3 -15 1 1351.57 2074.06 404.08 o
-2 -15 1 4664.00 6606.74 619.50 o
-1 -15 1 2709.77 3089.10 384.32 o
0 -15 1 451.38 1441.71 303.19 o
1 -15 1 2203.26 2133.87 350.57 o
2 -15 1 596.86 972.02 305.51 o
3 -15 1 0.25 294.40 286.58 <
-8 -14 1 1457.51 1229.35 356.41 o
-7 -14 1 3936.51 4098.79 494.08 o
-6 -14 1 729.21 887.05 310.70 <
-5 -14 1 1187.21 879.84 222.37 o
-4 -14 1 1251.14 1439.88 256.73 o
-3 -14 1 1623.61 1937.65 357.44 o
-2 -14 1 1.42 -100.04 168.56 <
-1 -14 1 567.42 912.91 261.76 o
0 -14 1 5412.86 6406.00 511.96 o
1 -14 1 108.72 153.18 228.47 <
2 -14 1 3001.27 4071.08 445.66 o
3 -14 1 3077.91 3082.05 409.22 o
4 -14 1 2214.43 2195.26 374.25 o
5 -14 1 520.88 1053.83 497.74 <
-9 -13 1 157.92 716.13 515.02 <
-8 -13 1 2295.41 2219.36 403.12 o
-7 -13 1 2923.95 3108.28 426.16 o
-6 -13 1 1184.50 1405.56 322.10 o
-5 -13 1 104.33 106.03 176.37 <
-4 -13 1 2477.30 2506.28 272.98 o
-3 -13 1 6142.38 7362.21 465.29 o
-2 -13 1 717.90 558.65 225.28 <
-1 -13 1 9699.16 10977.48 601.46 o
0 -13 1 3.20 -186.54 177.16 <
1 -13 1 899.66 835.95 259.64 o
2 -13 1 71.27 218.57 223.00 <
3 -13 1 10.38 54.45 235.52 <
4 -13 1 6792.35 6999.91 573.18 o
5 -13 1 574.94 695.42 305.26 <
6 -13 1 2.74 162.05 401.99 <
-9 -12 1 118.68 277.71 269.37 <
-8 -12 1 1110.72 1797.22 350.23 o
-7 -12 1 7388.68 7683.20 604.70 o
-6 -12 1 228.06 535.33 187.04 <
-5 -12 1 532.33 285.47 168.52 <
-4 -12 1 205.41 179.75 153.44 <
-3 -12 1 2199.63 2144.56 209.77 o
-2 -12 1 3093.58 3058.10 266.40 o
-1 -12 1 2244.41 2173.39 300.33 o
0 -12 1 18789.52 22148.45 980.56 o
1 -12 1 475.55 573.55 231.82 <
2 -12 1 17.25 96.92 207.64 <
3 -12 1 1326.58 1802.27 314.79 o
4 -12 1 5204.13 6047.95 530.20 o
5 -12 1 1030.45 1021.04 298.68 o
6 -12 1 1660.45 960.60 314.47 o
-10 -11 1 3.45 118.54 424.66 <
-9 -11 1 33.35 354.57 255.57 <
-8 -11 1 415.51 398.79 253.96 <
-7 -11 1 2276.89 1810.07 316.73 o
-6 -11 1 2356.11 2759.11 269.61 o
-5 -11 1 10074.50 10947.11 501.77 o
-4 -11 1 1477.25 1333.76 204.37 o
-3 -11 1 4405.82 4229.25 287.55 o
-2 -11 1 4569.98 5613.21 339.78 o
-1 -11 1 2439.57 2731.61 248.52 o
0 -11 1 4693.01 5795.36 450.50 o
1 -11 1 2963.49 3739.88 369.43 o
2 -11 1 742.98 797.98 242.21 o
3 -11 1 928.65 1302.34 279.95 o
4 -11 1 1851.17 2498.93 356.36 o
5 -11 1 3253.62 3605.76 416.74 o
6 -11 1 2063.84 1690.51 340.18 o
7 -11 1 3581.13 3117.17 617.45 o
-10 -10 1 16.56 131.30 184.19 <
-9 -10 1 2590.84 2233.41 275.05 o
-8 -10 1 2262.28 2349.85 274.31 o
-7 -10 1 1588.53 1739.05 237.17 o
-6 -10 1 1752.09 2360.03 213.20 o
-5 -10 1 390.18 806.18 147.17 o
-4 -10 1 12388.39 13076.77 405.86 o
-3 -10 1 199.35 123.22 101.60 <
-2 -10 1 4657.97 3551.39 256.83 o
-1 -10 1 17505.71 18683.66 673.21 o
0 -10 1 10273.66 10714.75 459.38 o
1 -10 1 114.14 188.61 166.73 <
2 -10 1 2206.13 1944.11 272.49 o
3 -10 1 363.41 723.62 214.90 o
4 -10 1 5404.11 4553.26 434.77 o
5 -10 1 1514.67 1087.20 272.58 o
6 -10 1 29.23 59.14 214.67 <
7 -10 1 2776.62 2494.72 558.11 o
8 -10 1 1300.98 799.07 489.49 <
-11 -9 1 2053.88 2915.78 710.27 o
-10 -9 1 48.27 -38.82 164.65 <
-9 -9 1 1402.15 1154.17 222.35 o
-8 -9 1 1877.71 1882.25 247.03 o
-7 -9 1 6997.61 7604.64 412.64 o
-6 -9 1 855.63 962.52 153.91 o
-5 -9 1 26745.78 27210.68 807.39 o
-4 -9 1 403.76 966.63 120.34 o
-3 -9 1 2364.20 2326.97 167.33 o
-2 -9 1 136.56 300.89 117.49 <
-1 -9 1 4547.48 3279.23 246.69 o
0 -9 1 12007.85 12214.89 483.28 o
1 -9 1 13.82 272.25 130.00 <
2 -9 1 273.66 251.90 168.28 <
3 -9 1 6302.23 5597.29 436.63 o
4 -9 1 3510.55 3841.92 272.32 o
5 -9 1 1854.87 1871.06 309.24 o
6 -9 1 19125.57 20412.55 946.14 o
7 -9 1 480.20 61.99 329.49 <
8 -9 1 86.52 66.95 377.75 <
9 -9 1 686.74 893.05 493.54 <
-11 -8 1 3417.53 2776.56 659.35 o
-10 -8 1 3150.19 3204.45 290.84 o
-9 -8 1 3572.23 3699.64 296.77 o
-8 -8 1 16.87 162.57 142.51 <
-7 -8 1 2010.21 2093.47 214.47 o
-6 -8 1 2.66 288.14 107.08 <
-5 -8 1 18646.11 18381.76 492.89 o
-4 -8 1 22523.53 22656.36 595.44 o
-3 -8 1 2265.47 2847.76 173.32 o
-2 -8 1 94.24 228.73 98.74 <
-1 -8 1 11792.19 12167.14 411.79 o
0 -8 1 21803.30 20936.38 560.69 o
1 -8 1 2235.28 1709.76 165.77 o
2 -8 1 14679.68 13991.05 479.78 o
3 -8 1 3468.66 3424.09 275.96 o
4 -8 1 5714.06 6742.84 315.68 o
5 -8 1 3.27 50.02 146.68 <
6 -8 1 1578.43 1941.33 245.24 o
7 -8 1 19692.39 16945.07 1196.83 o
8 -8 1 269.52 -430.08 336.56 <
9 -8 1 24.72 -443.93 390.53 <
-11 -7 1 418.68 1467.52 547.00 <
-10 -7 1 531.74 1376.28 473.26 <
-9 -7 1 16849.22 16552.92 1305.69 o
-8 -7 1 1104.91 1112.93 172.12 o
-7 -7 1 1713.74 1814.94 176.50 o
-6 -7 1 13672.27 13509.87 367.02 o
-5 -7 1 14758.90 15441.51 408.94 o
-4 -7 1 13802.25 12957.35 365.35 o
-3 -7 1 115.82 89.88 73.20 <
-2 -7 1 1276.15 1252.58 127.05 o
-1 -7 1 4453.47 4443.31 225.88 o
0 -7 1 2266.57 2003.74 158.22 o
1 -7 1 1842.01 1340.72 130.66 o
2 -7 1 34016.12 33835.38 834.42 o
3 -7 1 20313.53 19527.05 598.34 o
4 -7 1 16515.61 18824.84 548.67 o
5 -7 1 11232.81 11670.08 482.78 o
6 -7 1 12474.03 11002.82 482.80 o
7 -7 1 2478.98 1614.73 288.33 o
8 -7 1 2433.16 1748.00 321.13 o
9 -7 1 1023.36 820.79 315.35 <
-10 -6 1 7059.90 9311.43 1044.67 o
-9 -6 1 3858.34 2698.44 549.00 o
-8 -6 1 7915.88 8690.49 807.01 o
-7 -6 1 5.67 28.92 89.88 <
-6 -6 1 666.98 1181.63 91.16 o
-5 -6 1 29325.89 29634.09 692.42 o
-4 -6 1 8323.10 8056.03 279.41 o
-3 -6 1 1872.43 1860.46 117.91 o
-2 -6 1 18301.36 16061.87 424.22 o
-1 -6 1 8649.06 7286.95 234.97 o
0 -6 1 5496.44 4661.49 218.47 o
1 -6 1 46637.76 41510.82 987.51 o
2 -6 1 2058.61 2231.67 146.26 o
3 -6 1 18394.70 17893.67 541.25 o
4 -6 1 10899.10 11393.68 291.00 o
5 -6 1 4849.12 4744.60 295.53 o
6 -6 1 26563.45 25478.46 862.06 o
7 -6 1 10164.93 9240.96 562.68 o
8 -6 1 727.31 543.02 226.84 <
9 -6 1 187.28 27.61 231.85 <
10 -6 1 30.08 103.95 378.54 <
-10 -5 1 8169.02 9803.74 968.62 o
-9 -5 1 18572.06 17544.62 1331.25 o
-8 -5 1 85.50 740.65 308.71 <
-7 -5 1 91.90 275.36 224.30 <
-6 -5 1 1710.40 1597.27 203.04 o
-5 -5 1 11629.74 12198.14 282.07 o
-4 -5 1 790.32 1125.28 73.96 o
-3 -5 1 6458.10 8039.61 189.29 o
-2 -5 1 1171.76 2439.37 126.28 o
-1 -5 1 9402.96 9044.81 258.19 o
0 -5 1 2132.10 2133.38 144.43 o
1 -5 1 150.82 383.99 66.43 o
2 -5 1 141649.80 142435.20 3135.47 o
3 -5 1 519.41 486.54 77.36 o
4 -5 1 135.53 169.59 88.31 <
5 -5 1 11274.35 11350.17 384.50 o
6 -5 1 3062.44 3179.02 239.34 o
7 -5 1 10980.62 10750.84 567.63 o
8 -5 1 912.63 1208.86 247.14 o
9 -5 1 3317.66 3685.50 383.43 o
10 -5 1 12.92 -20.06 316.28 <
11 -5 1 3.36 -426.48 391.05 <
-9 -4 1 14969.90 13718.26 1119.26 o
-8 -4 1 3487.82 3743.42 594.60 o
-7 -4 1 3499.69 4423.15 573.77 o
-6 -4 1 698.98 1100.87 284.40 o
-5 -4 1 5012.23 4852.32 167.88 o
-4 -4 1 11562.04 10490.38 236.70 o
-3 -4 1 56318.52 51640.39 1167.12 o
-2 -4 1 31808.23 30397.22 590.94 o
-1 -4 1 13464.28 11434.68 250.09 o
0 -4 1 45388.61 39651.71 907.61 o
1 -4 1 4416.84 5655.62 170.50 o
2 -4 1 1278.40 2359.30 140.85 o
3 -4 1 72796.31 71807.91 1429.68 o
4 -4 1 7908.95 7466.85 269.86 o
5 -4 1 40.97 50.80 78.42 <
6 -4 1 13552.99 12996.30 422.15 o
7 -4 1 1629.18 1382.86 182.75 o
8 -4 1 1051.16 1335.60 221.08 o
9 -4 1 11984.94 12793.00 646.94 o
10 -4 1 100.00 -261.56 289.69 <
11 -4 1 12.85 109.42 357.96 <
-11 -3 1 77.95 70.34 203.99 <
-10 -3 1 9938.21 9700.08 578.83 o
-8 -3 1 933.20 846.34 328.90 <
-7 -3 1 7214.18 6825.64 667.77 o
-6 -3 1 18.89 -212.33 139.12 <
-5 -3 1 4282.32 4426.38 446.10 o
-4 -3 1 8021.80 7457.31 332.60 o
-3 -3 1 653.53 2849.70 108.08 o
-2 -3 1 75594.45 69437.97 1291.72 o
-1 -3 1 20677.10 19756.06 416.74 o
0 -3 1 41092.40 32371.72 670.27 o
1 -3 1 97619.08 87359.27 1756.57 o
2 -3 1 22283.82 22027.20 586.58 o
3 -3 1 752.73 1026.59 71.62 o
4 -3 1 579.69 633.15 85.69 o
5 -3 1 3664.16 3373.64 179.96 o
6 -3 1 3435.67 4336.02 208.60 o
7 -3 1 94.69 291.78 117.75 <
8 -3 1 3143.21 3233.12 252.60 o
9 -3 1 7747.95 6420.39 645.10 o
10 -3 1 6644.37 5935.73 644.89 o
11 -3 1 411.67 230.26 350.08 <
-11 -2 1 234.45 -371.99 221.94 <
-10 -2 1 2767.43 2512.96 200.61 o
-9 -2 1 10444.29 10086.97 421.58 o
-8 -2 1 50.97 155.79 85.97 <
-7 -2 1 9731.61 11659.93 922.63 o
-6 -2 1 16085.31 16621.83 1139.00 o
-5 -2 1 7356.02 7019.57 578.02 o
-4 -2 1 448.00 804.58 188.58 o
-3 -2 1 137085.20 138694.39 4679.94 o
-2 -2 1 826.34 579.15 48.18 o
-1 -2 1 22521.64 19192.23 368.15 o
0 -2 1 41417.84 35239.76 709.68 o
1 -2 1 18456.02 11609.87 236.46 o
2 -2 1 63560.26 64203.69 1164.71 o
3 -2 1 3938.54 3912.45 148.45 o
4 -2 1 11568.53 11646.93 291.33 o
5 -2 1 3189.79 3181.91 131.88 o
6 -2 1 48.26 -49.24 57.31 <
7 -2 1 1070.67 1099.13 113.53 o
8 -2 1 17065.62 17829.18 622.10 o
9 -2 1 10869.49 10979.39 780.26 o
10 -2 1 1051.54 760.37 314.56 <
11 -2 1 1503.98 1550.34 430.35 o
-11 -1 1 60.26 327.47 169.86 <
-10 -1 1 552.06 515.71 152.63 o
-9 -1 1 5720.70 5433.52 299.34 o
-8 -1 1 1772.16 1690.72 165.56 o
-7 -1 1 26892.35 27138.07 801.78 o
-6 -1 1 389.52 889.27 71.37 o
-5 -1 1 22671.38 21295.41 548.98 o
-4 -1 1 1580.92 1289.84 125.47 o
-3 -1 1 34579.32 42069.36 1460.33 o
-2 -1 1 211355.86 221318.53 5778.73 o
-1 -1 1 32744.43 23759.78 407.39 o
0 -1 1 81.57 84.15 14.59 o
1 -1 1 38833.20 31317.90 533.36 o
2 -1 1 1759.74 2991.36 75.74 o
3 -1 1 401.40 242.76 34.12 o
4 -1 1 31093.26 33752.82 625.49 o
5 -1 1 6877.68 8400.68 226.91 o
6 -1 1 1099.50 1230.06 94.78 o
7 -1 1 1838.99 2386.68 172.06 o
8 -1 1 1046.44 1682.70 158.58 o
9 -1 1 30660.46 31629.70 1239.43 o
10 -1 1 2089.38 2368.25 383.91 o
11 -1 1 603.21 755.31 333.12 <
-11 0 1 2306.03 1758.74 253.22 o
-10 0 1 143.41 251.65 163.86 <
-9 0 1 246.18 195.11 140.67 <
-8 0 1 41.23 -77.64 117.23 <
-7 0 1 45971.25 45933.74 1347.18 o
-6 0 1 21513.01 21553.23 486.37 o
-5 0 1 13042.68 10388.41 250.25 o
-4 0 1 44945.33 43054.08 864.29 o
-3 0 1 25232.07 28886.82 711.26 o
-2 0 1 16751.27 23880.65 584.38 o
-1 0 1 69221.17 54706.73 1011.28 o
1 0 1 23.28 120.10 11.98 o
2 0 1 12527.47 13520.09 279.43 o
3 0 1 124.77 250.61 31.78 o
4 0 1 53576.77 61752.58 1224.69 o
5 0 1 51984.85 52146.34 1289.47 o
6 0 1 2384.91 2755.73 153.79 o
7 0 1 3705.03 4713.93 211.43 o
8 0 1 17497.64 17406.06 567.42 o
9 0 1 4080.82 4524.13 292.80 o
10 0 1 7489.97 7518.56 413.59 o
11 0 1 844.81 678.14 297.66 <
-11 1 1 5962.84 5566.63 664.56 o
-10 1 1 36.93 64.09 174.55 <
-9 1 1 153.07 66.43 157.61 <
-8 1 1 10448.51 10597.90 514.11 o
-7 1 1 7659.71 9451.88 368.08 o
-6 1 1 30231.14 32292.84 973.10 o
-5 1 1 8344.03 6641.23 218.95 o
-4 1 1 26035.12 23652.20 540.11 o
-3 1 1 69216.26 70760.73 1393.88 o
-2 1 1 12743.76 15269.70 317.17 o
-1 1 1 13092.89 8614.92 164.49 o
1 1 1 271.67 1035.44 24.23 o
2 1 1 788.35 854.42 31.25 o
3 1 1 12650.01 13048.42 310.75 o
4 1 1 43732.71 52485.97 1180.04 o
5 1 1 28706.35 30595.63 763.84 o
6 1 1 22746.74 23153.53 595.25 o
7 1 1 4285.78 3783.13 173.67 o
8 1 1 12388.35 12715.20 527.87 o
9 1 1 20939.38 19159.96 764.20 o
10 1 1 343.45 320.14 207.87 <
11 1 1 394.49 286.27 258.92 <
-11 2 1 4197.62 2919.39 565.78 o
-10 2 1 3939.39 3198.13 480.32 o
-9 2 1 1128.10 833.77 214.04 o
-8 2 1 2798.72 2468.67 215.44 o
-7 2 1 54243.28 56634.86 1698.03 o
-6 2 1 161.43 705.19 92.74 o
-5 2 1 2903.39 3438.61 113.42 o
-4 2 1 2190.01 2100.06 73.12 o
-3 2 1 1047.02 866.03 51.56 o
-2 2 1 26685.34 25752.70 452.06 o
-1 2 1 3885.26 4356.04 98.79 o
0 2 1 74259.59 70884.86 1297.82 o
1 2 1 24943.59 22267.00 373.27 o
2 2 1 422.60 81.01 19.01 o
3 2 1 481.53 602.96 47.92 o
4 2 1 116253.45 126136.28 3143.34 o
5 2 1 17995.03 19482.75 463.84 o
6 2 1 840.11 757.30 71.62 o
7 2 1 8635.14 8593.10 290.58 o
8 2 1 12.24 411.89 99.52 o
9 2 1 10828.76 11082.11 680.21 o
10 2 1 475.63 505.31 197.44 <
11 2 1 9602.37 8665.87 623.49 o
-11 3 1 9076.24 8359.96 965.75 o
-10 3 1 365.38 296.17 339.15 <
-9 3 1 2101.14 3039.50 456.52 o
-8 3 1 39.99 361.87 143.29 <
-7 3 1 12098.95 11505.35 466.27 o
-6 3 1 34216.23 33453.77 896.82 o
-5 3 1 15483.06 14709.69 434.55 o
-4 3 1 1924.97 2213.59 136.38 o
-3 3 1 7200.55 7224.96 241.11 o
-2 3 1 71.84 111.50 39.86 <
-1 3 1 9100.46 9461.37 236.16 o
0 3 1 86885.79 111411.37 2213.17 o
1 3 1 44.68 604.67 37.25 o
2 3 1 10206.44 7246.42 156.48 o
3 3 1 3111.85 3566.15 85.31 o
4 3 1 6922.07 7464.07 196.25 o
5 3 1 85283.36 87735.47 2190.56 o
6 3 1 999.82 1395.74 104.42 o
7 3 1 8787.48 7535.88 306.90 o
8 3 1 8770.83 9230.45 551.61 o
9 3 1 386.47 399.32 158.11 <
10 3 1 113.06 317.04 178.19 <
11 3 1 8416.56 8078.00 397.56 o
12 3 1 4678.76 4905.29 433.06 o
-11 4 1 12169.34 12028.37 1238.81 o
-10 4 1 2451.74 2736.57 579.53 o
-9 4 1 2717.62 3298.05 530.55 o
-8 4 1 9531.35 8899.58 506.83 o
-7 4 1 4683.74 4561.17 308.05 o
-6 4 1 1078.97 1165.78 135.14 o
-5 4 1 360.91 804.62 113.05 o
-4 4 1 33154.35 35909.60 951.12 o
-3 4 1 101.01 72.42 69.82 <
-2 4 1 20.19 186.27 60.18 o
-1 4 1 563.22 734.72 72.66 o
0 4 1 58706.43 52384.30 1180.94 o
1 4 1 45483.09 45528.09 858.20 o
2 4 1 17061.24 13509.66 280.58 o
3 4 1 15385.15 12136.54 250.64 o
4 4 1 38175.33 41918.95 954.31 o
5 4 1 406.84 785.59 64.60 o
6 4 1 9323.16 10582.87 279.30 o
7 4 1 10032.77 10391.57 324.61 o
8 4 1 741.57 933.93 131.00 o
9 4 1 3770.03 3917.51 221.58 o
10 4 1 3031.60 3122.74 219.32 o
11 4 1 9111.56 9389.24 430.89 o
12 4 1 5783.46 5633.46 441.40 o
-11 5 1 3130.89 3994.32 759.84 o
-10 5 1 3521.13 2104.70 626.05 o
-9 5 1 135.97 134.68 357.94 <
-8 5 1 2451.23 3007.26 344.81 o
-7 5 1 19142.13 18024.34 828.03 o
-6 5 1 39.96 42.99 103.17 <
-5 5 1 11528.47 11437.71 395.32 o
-4 5 1 15349.19 14924.43 470.76 o
-3 5 1 1251.12 1711.61 109.35 o
-2 5 1 1178.15 946.43 117.95 o
-1 5 1 69409.97 68105.28 1411.64 o
0 5 1 37541.03 37735.88 893.02 o
1 5 1 11791.17 11807.26 316.35 o
2 5 1 14214.38 13067.60 341.03 o
3 5 1 35824.70 30382.91 592.95 o
4 5 1 33546.32 31489.09 736.24 o
5 5 1 15344.89 15797.61 394.50 o
6 5 1 17430.17 18006.97 507.83 o
7 5 1 2975.50 3395.86 167.28 o
8 5 1 1278.59 1325.55 151.80 o
9 5 1 93.98 9.90 100.30 <
10 5 1 1610.79 1137.66 145.79 o
11 5 1 12916.23 12345.43 523.07 o
12 5 1 3308.96 3704.21 351.41 o
-10 6 1 353.00 1125.29 535.03 <
-9 6 1 150.98 -20.58 268.84 <
-8 6 1 33.86 -88.32 214.93 <
-7 6 1 87.02 245.15 215.71 <
-6 6 1 2178.85 3030.47 252.97 o
-5 6 1 15870.74 16703.91 535.67 o
-4 6 1 23467.96 23863.41 706.56 o
-3 6 1 8589.28 8838.70 280.15 o
-2 6 1 76.39 98.74 78.15 <
-1 6 1 586.50 584.96 84.91 o
0 6 1 147098.70 160355.44 3527.34 o
1 6 1 224.90 906.79 94.30 o
2 6 1 7237.17 7404.73 230.21 o
3 6 1 9950.82 8369.72 245.45 o
4 6 1 3365.10 2743.62 109.50 o
5 6 1 7267.44 7385.33 255.70 o
6 6 1 2540.82 2451.68 149.10 o
7 6 1 29623.66 29605.97 1211.33 o
8 6 1 822.48 776.33 127.35 o
9 6 1 3.35 120.10 118.80 <
10 6 1 1190.79 1261.82 149.20 o
11 6 1 10636.34 10286.34 453.89 o
-10 7 1 835.54 1204.46 523.71 <
-9 7 1 7976.90 6678.69 602.69 o
-8 7 1 127.03 175.06 265.20 <
-7 7 1 45.62 9.38 225.87 <
-6 7 1 414.18 504.02 169.83 <
-5 7 1 13575.88 14297.75 575.41 o
-4 7 1 29370.51 29100.13 752.64 o
-3 7 1 626.59 661.79 121.11 o
-2 7 1 4553.69 4955.29 229.78 o
-1 7 1 7514.89 8136.40 307.80 o
0 7 1 3869.75 4275.06 200.73 o
1 7 1 50815.58 50870.48 1523.23 o
2 7 1 19723.82 19898.97 570.69 o
3 7 1 20752.04 18676.36 484.87 o
4 7 1 18527.54 17163.06 443.43 o
5 7 1 3039.99 2907.59 169.35 o
6 7 1 6344.50 5973.95 237.14 o
7 7 1 20267.48 21755.20 741.61 o
8 7 1 3128.23 3303.91 231.53 o
9 7 1 56.96 39.34 116.97 <
10 7 1 2672.30 2965.81 253.18 o
11 7 1 4898.25 4691.34 273.70 o
-9 8 1 1850.95 1217.16 488.32 <
-8 8 1 4078.52 3459.00 448.82 o
-7 8 1 89.99 119.32 250.36 <
-6 8 1 1860.36 1852.84 247.81 o
-5 8 1 3621.69 2846.63 272.05 o
-4 8 1 22308.92 21497.18 592.54 o
-3 8 1 5476.85 5450.27 346.10 o
-2 8 1 16449.54 15888.89 460.73 o
-1 8 1 16457.59 16996.63 531.22 o
0 8 1 20691.11 23090.52 602.98 o
1 8 1 10544.10 10300.50 358.13 o
2 8 1 213.58 374.08 105.50 o
3 8 1 23664.48 23816.07 614.77 o
4 8 1 636.09 524.80 90.11 o
5 8 1 914.44 1263.00 132.03 o
6 8 1 14737.28 13637.96 442.13 o
7 8 1 19708.97 19468.75 695.40 o
8 8 1 3518.10 3381.37 252.56 o
9 8 1 757.08 941.74 174.49 o
10 8 1 243.80 216.73 144.58 <
11 8 1 7614.04 7322.47 415.07 o
-9 9 1 3199.74 2950.13 620.67 o
-8 9 1 2358.09 2441.58 566.80 o
-7 9 1 30.22 -65.65 320.18 <
-6 9 1 38.69 89.88 201.38 <
-5 9 1 16979.75 11489.66 863.02 o
-4 9 1 823.66 766.95 135.16 o
-3 9 1 114.91 15.89 129.21 <
-2 9 1 1427.92 1619.10 194.22 o
-1 9 1 10273.51 12055.05 423.30 o
0 9 1 12781.64 14012.76 466.76 o
1 9 1 1985.29 1855.48 192.34 o
2 9 1 37493.09 42053.60 1142.56 o
3 9 1 2678.71 2351.83 169.38 o
4 9 1 737.46 877.66 118.50 o
5 9 1 202.98 347.51 111.49 o
6 9 1 8956.08 9018.70 352.31 o
7 9 1 15275.45 14166.43 708.53 o
8 9 1 368.80 523.31 159.94 o
9 9 1 9.07 115.41 143.29 <
10 9 1 201.60 164.12 164.12 <
11 9 1 1793.00 1924.15 344.38 o
-8 10 1 659.24 272.69 460.99 <
-7 10 1 849.75 719.29 422.93 <
-6 10 1 30.06 65.13 209.20 <
-5 10 1 1074.16 859.83 246.60 o
-4 10 1 21408.84 20964.55 937.04 o
-3 10 1 6009.42 6232.14 463.73 o
-2 10 1 6124.64 6978.95 463.95 o
-1 10 1 5787.44 5777.00 407.89 o
0 10 1 5534.97 4972.65 313.36 o
1 10 1 129.37 276.66 130.26 <
2 10 1 4034.07 5396.73 313.06 o
3 10 1 18773.25 17833.11 520.48 o
4 10 1 93.77 141.72 100.30 <
5 10 1 328.86 470.18 135.97 o
6 10 1 1852.63 1981.17 196.79 o
7 10 1 14318.01 15323.86 783.92 o
8 10 1 351.01 227.40 172.44 <
9 10 1 4077.22 4133.77 329.72 o
10 10 1 43.64 265.47 174.81 <
11 10 1 338.46 212.55 284.45 <
-7 11 1 1634.43 2545.49 593.81 o
-6 11 1 1670.32 1629.64 318.12 o
-5 11 1 1221.88 1029.02 282.51 o
-4 11 1 62.10 -50.02 186.01 <
-3 11 1 3641.96 3438.09 365.42 o
-2 11 1 14018.29 14921.20 732.45 o
-1 11 1 3177.56 3550.09 342.86 o
0 11 1 4616.88 4911.90 393.06 o
1 11 1 6595.92 7542.30 369.05 o
2 11 1 5705.61 7529.42 365.83 o
3 11 1 8892.12 8756.70 365.54 o
4 11 1 87.58 61.22 111.24 <
5 11 1 22.83 88.06 143.55 <
6 11 1 3641.17 3970.01 327.97 o
7 11 1 633.89 535.49 234.93 <
8 11 1 906.56 738.28 266.41 <
9 11 1 1989.17 1734.28 338.89 o
10 11 1 2601.90 2713.65 397.85 o
-6 12 1 4165.53 4466.12 464.14 o
-5 12 1 4742.10 4715.10 464.54 o
-4 12 1 1028.78 704.39 270.04 <
-3 12 1 9471.45 10434.21 610.34 o
-2 12 1 210.47 493.39 217.26 <
-1 12 1 3627.63 4360.12 396.63 o
0 12 1 511.30 550.88 205.25 <
1 12 1 92.68 55.75 171.42 <
2 12 1 8677.65 10274.57 454.85 o
3 12 1 3531.83 2840.81 222.12 o
4 12 1 600.00 634.47 175.81 o
5 12 1 2815.31 2924.53 281.26 o
6 12 1 1205.34 1114.18 219.76 o
7 12 1 4338.79 4633.83 475.03 o
8 12 1 1763.08 1771.69 346.48 o
9 12 1 1257.27 1086.01 322.86 o
10 12 1 1277.54 1566.36 608.73 <
-5 13 1 2007.10 1472.68 321.97 o
-4 13 1 2157.76 1543.13 319.87 o
-3 13 1 794.63 1111.00 284.39 o
-2 13 1 14530.87 16695.58 831.73 o
-1 13 1 166.89 97.95 199.81 <
0 13 1 47.21 17.98 181.06 <
1 13 1 170.69 -20.84 173.24 <
2 13 1 7608.38 7860.52 483.40 o
3 13 1 2115.67 2171.72 224.10 o
4 13 1 1329.52 1406.51 264.27 o
5 13 1 69.08 59.14 171.42 <
6 13 1 644.59 714.93 210.18 o
7 13 1 526.71 864.48 297.45 <
8 13 1 63.71 277.45 272.24 <
9 13 1 5637.19 6380.44 991.74 o
-5 14 1 759.55 828.70 432.32 <
-4 14 1 1324.86 480.64 274.43 <
-3 14 1 229.05 45.59 218.30 <
-2 14 1 3547.41 3891.64 417.20 o
-1 14 1 1594.88 1878.32 308.24 o
0 14 1 9.32 30.74 210.24 <
1 14 1 295.93 615.80 228.71 <
2 14 1 415.20 483.45 221.67 <
3 14 1 5029.82 5011.61 508.15 o
4 14 1 1464.95 1621.21 247.07 o
5 14 1 5121.24 5822.54 480.32 o
6 14 1 1072.67 1113.46 235.92 o
7 14 1 83.87 203.72 261.82 <
8 14 1 571.01 571.70 316.71 <
9 14 1 1388.80 1395.22 659.73 <
-4 15 1 341.16 508.99 400.36 <
-3 15 1 1804.32 1983.80 358.18 o
-2 15 1 1760.27 2751.26 382.40 o
-1 15 1 918.02 615.36 264.84 <
0 15 1 1284.42 1434.13 304.90 o
1 15 1 98.01 -106.29 225.61 <
2 15 1 2476.28 2451.10 305.77 o
3 15 1 404.95 1116.93 333.41 o
4 15 1 0.65 -72.43 235.26 <
5 15 1 2509.10 2653.75 393.72 o
6 15 1 1324.80 418.15 282.50 <
7 15 1 1063.10 976.22 360.91 <
8 15 1 912.35 787.74 557.28 <
-2 16 1 993.93 1049.17 479.14 <
-1 16 1 27.40 157.62 267.82 <
0 16 1 23.15 -190.44 241.25 <
1 16 1 1892.20 2143.03 343.59 o
2 16 1 716.07 894.61 327.63 <
3 16 1 1176.52 1196.98 339.02 o
4 16 1 4337.37 5693.65 577.45 o
5 16 1 597.37 704.79 321.66 <
6 16 1 109.61 -304.54 408.48 <
7 16 1 53.06 -357.69 288.66 <
0 17 1 1434.97 1217.65 491.28 <
1 17 1 293.53 182.34 387.35 <
2 17 1 359.95 431.88 495.96 <
3 17 1 37.20 671.89 541.63 <
4 17 1 8.79 171.17 511.67 <
5 17 1 3800.81 5730.91 995.20 o
6 17 1 0.96 -668.25 460.35 <
2 18 1 1320.23 1684.52 627.73 <
3 18 1 278.32 -54.70 513.95 <
-3 -17 2 29.91 -192.79 503.07 <
-2 -17 2 30.12 735.72 554.39 <
-6 -16 2 73.49 3.91 486.39 <
-5 -16 2 1230.95 971.71 355.41 <
-4 -16 2 715.67 1081.34 364.35 <
-3 -16 2 2888.29 3592.70 512.28 o
-2 -16 2 38.88 70.86 283.97 <
-1 -16 2 1345.76 1286.97 449.64 <
0 -16 2 659.76 344.57 440.93 <
1 -16 2 40.27 742.23 468.16 <
-7 -15 2 522.88 461.28 296.93 <
-6 -15 2 1144.66 797.30 311.42 <
-5 -15 2 696.46 755.02 298.47 <
-4 -15 2 143.23 115.93 277.44 <
-3 -15 2 136.20 422.29 305.32 <
-2 -15 2 3006.86 3311.62 466.47 o
-1 -15 2 184.58 24.75 239.92 <
0 -15 2 702.25 910.77 293.52 o
1 -15 2 3426.28 3816.61 450.77 o
2 -15 2 1513.92 1760.43 363.18 o
-8 -14 2 15.82 -22.41 444.46 <
-7 -14 2 425.07 367.53 287.30 <
-6 -14 2 259.31 168.80 262.32 <
-5 -14 2 4112.67 4538.82 431.65 o
-4 -14 2 238.24 -0.78 189.64 <
-3 -14 2 8628.93 8610.93 677.79 o
-2 -14 2 0.31 42.21 188.88 <
-1 -14 2 254.63 68.25 234.45 <
0 -14 2 25.37 190.70 236.82 <
1 -14 2 823.31 964.10 290.12 o
2 -14 2 3860.80 4454.60 476.95 o
3 -14 2 11.43 292.05 286.58 <
4 -14 2 10.32 -126.62 272.25 <
-8 -13 2 1040.21 1766.80 357.79 o
-7 -13 2 634.24 593.30 296.65 <
-6 -13 2 64.66 -59.40 216.75 <
-5 -13 2 268.23 934.13 221.94 o
-4 -13 2 215.38 536.11 195.12 <
-3 -13 2 6563.11 6596.63 453.51 o
-2 -13 2 7198.27 7792.78 519.07 o
-1 -13 2 1000.67 920.54 252.07 o
0 -13 2 63.41 -79.98 196.95 <
1 -13 2 1925.76 2087.32 328.23 o
2 -13 2 5334.70 6052.27 523.41 o
3 -13 2 290.69 406.11 252.94 <
4 -13 2 1505.11 1504.01 341.57 o
5 -13 2 778.72 483.62 298.98 <
6 -13 2 149.36 194.34 433.49 <
-9 -12 2 835.09 843.77 311.73 <
-8 -12 2 62.00 318.62 270.94 <
-7 -12 2 7075.32 8390.82 643.21 o
-6 -12 2 58.67 153.71 215.97 <
-5 -12 2 2064.70 1940.91 248.31 o
-4 -12 2 5268.13 4606.12 346.44 o
-3 -12 2 4467.89 3328.65 252.19 o
-2 -12 2 3573.04 4266.62 316.54 o
-1 -12 2 33.03 436.64 205.55 <
0 -12 2 3.64 122.45 194.87 <
1 -12 2 862.70 986.22 252.61 o
2 -12 2 1136.91 1047.81 274.45 o
3 -12 2 877.65 828.66 271.88 o
4 -12 2 6430.11 5660.34 518.73 o
5 -12 2 1154.68 1352.19 326.53 o
6 -12 2 3458.55 3173.53 439.06 o
-10 -11 2 1236.62 1758.54 591.56 <
-9 -11 2 166.44 764.85 304.01 <
-8 -11 2 2954.73 3602.31 432.14 o
-7 -11 2 1628.38 1362.84 293.13 o
-6 -11 2 3805.74 4968.66 459.29 o
-5 -11 2 285.05 179.74 168.02 <
-4 -11 2 4.02 -108.64 139.12 <
-3 -11 2 14097.11 9171.69 454.99 o
-2 -11 2 3182.43 3584.45 283.55 o
-1 -11 2 72.86 210.76 140.94 <
0 -11 2 2681.88 2882.75 323.95 o
1 -11 2 4280.20 4513.98 404.83 o
2 -11 2 1575.41 1871.04 294.44 o
3 -11 2 5868.21 5196.94 462.48 o
4 -11 2 150.64 -222.21 196.94 <
5 -11 2 3118.97 2432.17 365.78 o
6 -11 2 264.16 199.54 275.86 <
7 -11 2 688.20 1154.80 493.54 <
-10 -10 2 61.01 -72.68 259.22 <
-9 -10 2 1709.06 1713.16 252.77 o
-8 -10 2 4905.99 5227.86 375.35 o
-7 -10 2 14037.77 15138.37 629.76 o
-6 -10 2 23.70 431.17 144.85 <
-5 -10 2 2.91 -16.93 102.91 <
-4 -10 2 444.67 413.11 140.13 <
-3 -10 2 8002.14 6842.77 328.06 o
-2 -10 2 1848.82 1683.09 204.33 o
-1 -10 2 301.74 377.19 146.66 <
0 -10 2 407.16 459.74 150.29 o
1 -10 2 4346.23 3602.17 349.43 o
2 -10 2 6888.29 6895.87 506.38 o
3 -10 2 379.10 415.47 211.77 <
4 -10 2 25300.04 20588.72 949.26 o
5 -10 2 292.23 516.03 229.49 <
6 -10 2 15.28 120.36 238.12 <
7 -10 2 1324.61 1477.06 507.45 <
8 -10 2 406.74 649.37 478.50 <
-10 -9 2 5.97 41.16 176.12 <
-9 -9 2 345.30 848.14 198.23 o
-8 -9 2 1611.93 1977.50 233.52 o
-7 -9 2 13455.24 12929.14 550.18 o
-6 -9 2 4780.54 4944.49 281.52 o
-5 -9 2 1743.37 1864.11 154.89 o
-4 -9 2 99.67 71.90 90.92 <
-3 -9 2 4767.14 4953.48 240.69 o
-2 -9 2 11027.42 10447.15 384.03 o
-1 -9 2 14388.35 12347.64 497.48 o
0 -9 2 5023.23 4964.70 320.19 o
1 -9 2 3713.52 3110.32 257.72 o
2 -9 2 5768.22 5885.95 448.43 o
3 -9 2 163.79 2.34 165.42 <
4 -9 2 4424.29 4384.97 408.18 o
5 -9 2 14337.01 13745.20 712.73 o
6 -9 2 2602.52 2098.90 330.99 o
7 -9 2 36.05 -29.70 324.61 <
8 -9 2 2612.23 2322.36 573.24 o
-11 -8 2 6614.07 6961.37 982.68 o
-10 -8 2 28.58 187.06 216.49 <
-9 -8 2 83.71 27.61 144.33 <
-8 -8 2 9700.20 10281.70 462.19 o
-7 -8 2 10593.67 9903.82 448.76 o
-6 -8 2 1920.15 1937.36 177.78 o
-5 -8 2 3020.43 2905.91 168.32 o
-4 -8 2 31.33 38.30 82.85 <
-3 -8 2 2813.73 3350.97 185.50 o
-2 -8 2 44.14 214.15 101.60 <
-1 -8 2 306.68 446.74 114.61 o
0 -8 2 40481.52 35271.60 874.39 o
1 -8 2 2795.67 2071.20 186.02 o
2 -8 2 15914.71 14106.17 556.03 o
3 -8 2 26946.32 26754.72 913.83 o
4 -8 2 10670.33 10274.02 373.78 o
5 -8 2 269.75 412.88 160.72 <
6 -8 2 366.29 455.58 209.43 <
7 -8 2 1124.70 1021.00 401.00 <
8 -8 2 1670.50 1533.06 503.21 o
9 -8 2 439.73 864.77 486.82 <
-11 -7 2 3686.13 3903.35 739.63 o
-10 -7 2 1399.58 1353.60 497.80 <
-9 -7 2 62.80 215.45 199.56 <
-8 -7 2 2826.52 2720.27 245.62 o
-7 -7 2 12565.64 11890.74 486.40 o
-6 -7 2 1923.83 1544.04 124.42 o
-5 -7 2 4337.09 4288.93 186.41 o
-4 -7 2 12660.50 12541.01 352.63 o
-3 -7 2 7800.59 8171.01 263.92 o
-2 -7 2 407.57 436.55 97.42 o
-1 -7 2 56477.35 52429.66 1359.62 o
0 -7 2 1873.14 1780.05 158.25 o
1 -7 2 12436.82 13259.84 395.84 o
2 -7 2 403.84 439.16 108.88 o
3 -7 2 2556.88 2961.61 240.17 o
4 -7 2 36950.82 37740.71 988.34 o
5 -7 2 3383.26 3126.28 262.45 o
6 -7 2 3264.64 2841.95 261.95 o
7 -7 2 898.04 764.59 239.06 o
8 -7 2 40.68 -109.16 231.60 <
9 -7 2 1670.78 1439.85 482.64 <
-10 -6 2 20.62 593.73 378.54 <
-9 -6 2 6.02 352.49 323.31 <
-8 -6 2 1593.73 1486.78 397.53 o
-7 -6 2 7092.03 7236.51 321.72 o
-6 -6 2 174.03 158.91 65.13 <
-5 -6 2 6759.02 7560.98 235.78 o
-4 -6 2 1053.67 1599.06 110.41 o
-3 -6 2 20429.28 19686.58 559.96 o
-2 -6 2 5990.24 5899.38 205.96 o
-1 -6 2 10979.38 10141.80 331.83 o
0 -6 2 108915.82 109899.20 2722.60 o
1 -6 2 5749.87 6005.31 218.46 o
2 -6 2 201.13 323.28 83.62 o
3 -6 2 10374.13 11148.72 340.30 o
4 -6 2 3205.49 3019.98 185.20 o
5 -6 2 3661.81 4214.72 282.96 o
6 -6 2 6244.08 6686.61 353.28 o
7 -6 2 2773.52 2971.93 258.37 o
8 -6 2 173.53 280.30 222.21 <
9 -6 2 18.78 -137.56 225.09 <
10 -6 2 577.87 447.46 425.58 <
-10 -5 2 16.98 -289.96 293.35 <
-9 -5 2 1570.10 2073.60 508.96 o
-8 -5 2 175.25 235.50 258.42 <
-7 -5 2 1484.10 1686.51 376.72 o
-6 -5 2 983.45 1261.92 92.44 o
-5 -5 2 36478.55 36224.12 748.40 o
-4 -5 2 11754.71 12576.33 294.71 o
-3 -5 2 10441.97 10021.00 225.95 o
-2 -5 2 36353.45 33760.17 798.97 o
-1 -5 2 6120.65 10736.73 297.08 o
0 -5 2 17293.04 18674.50 519.89 o
1 -5 2 34127.14 32523.26 704.75 o
2 -5 2 27069.78 25806.20 639.80 o
3 -5 2 908.94 811.17 88.80 o
4 -5 2 9083.30 10178.99 296.44 o
5 -5 2 778.24 510.18 110.94 o
6 -5 2 11037.49 10408.55 424.25 o
7 -5 2 17475.92 18429.71 656.09 o
8 -5 2 932.43 1076.04 247.39 o
9 -5 2 633.41 693.84 246.91 <
10 -5 2 5864.55 3881.80 601.98 o
11 -5 2 2955.05 2623.90 580.92 o
-9 -4 2 6323.72 4736.37 689.43 o
-8 -4 2 175.53 632.51 302.97 <
-7 -4 2 316.00 520.98 255.02 <
-6 -4 2 5600.14 5596.23 557.31 o
-5 -4 2 2689.60 4245.32 157.67 o
-4 -4 2 58261.95 56031.42 1229.34 o
-3 -4 2 2965.12 3195.88 122.52 o
-2 -4 2 26005.88 22271.00 482.20 o
-1 -4 2 70734.86 60629.07 1350.43 o
0 -4 2 11749.16 11547.63 331.37 o
1 -4 2 1228.14 1220.03 77.33 o
2 -4 2 4413.67 4108.59 159.85 o
3 -4 2 3331.81 2743.31 134.72 o
4 -4 2 3016.08 2680.91 167.00 o
5 -4 2 1229.29 1125.84 125.50 o
6 -4 2 6251.56 6300.45 269.10 o
7 -4 2 15671.22 16081.55 571.02 o
8 -4 2 5397.96 5667.70 420.22 o
9 -4 2 2786.63 3157.96 339.81 o
10 -4 2 6866.19 6351.80 715.71 o
11 -4 2 8455.53 7797.24 854.42 o
-8 -3 2 7446.16 7573.48 757.58 o
-7 -3 2 4345.47 4193.10 553.26 o
-6 -3 2 3110.39 3190.77 464.33 o
-5 -3 2 65940.29 68406.16 2381.08 o
-4 -3 2 770.78 1429.72 102.35 o
-3 -3 2 10363.56 8743.24 199.51 o
-2 -3 2 1446.91 1076.18 52.85 o
-1 -3 2 98.89 409.79 38.56 o
0 -3 2 45790.36 42047.03 933.15 o
1 -3 2 196.79 219.08 39.07 o
2 -3 2 17478.34 17391.97 407.51 o
3 -3 2 14734.46 15425.76 348.73 o
4 -3 2 417.22 585.54 83.61 o
5 -3 2 103.54 221.18 76.07 <
6 -3 2 41342.48 44074.99 1148.15 o
7 -3 2 6429.92 7494.75 347.01 o
8 -3 2 101.90 208.93 150.32 <
9 -3 2 1893.87 1790.87 259.00 o
10 -3 2 39.37 167.26 288.14 <
11 -3 2 7163.91 5737.72 686.74 o
-11 -2 2 1773.63 1165.67 222.30 o
-10 -2 2 7946.15 7845.30 570.28 o
-9 -2 2 12396.53 11756.43 683.60 o
-8 -2 2 1219.94 1898.94 436.40 o
-7 -2 2 6315.48 6826.03 752.21 o
-6 -2 2 379.01 1115.89 289.13 o
-5 -2 2 33477.62 37034.89 1547.93 o
-4 -2 2 77452.47 77682.05 2076.25 o
-3 -2 2 44227.80 41457.70 875.51 o
-2 -2 2 175.33 553.83 34.13 o
-1 -2 2 18470.17 14754.08 267.93 o
0 -2 2 4230.61 6895.20 160.11 o
1 -2 2 1539.43 2191.53 66.64 o
2 -2 2 50939.39 55567.44 1186.29 o
3 -2 2 553.60 647.22 65.63 o
4 -2 2 7770.06 8113.95 220.82 o
5 -2 2 937.96 796.32 77.08 o
6 -2 2 4372.61 4468.92 166.90 o
7 -2 2 47757.65 49418.98 1222.84 o
8 -2 2 1065.64 1371.52 165.87 o
9 -2 2 2075.15 1889.36 362.83 o
10 -2 2 4815.67 4981.10 576.82 o
11 -2 2 504.62 -39.59 307.61 <
-11 -1 2 2.41 80.76 208.68 <
-10 -1 2 2950.69 2488.81 256.27 o
-8 -1 2 4353.59 4596.77 251.16 o
-7 -1 2 3316.33 3442.88 177.40 o
-6 -1 2 30252.58 29833.61 896.88 o
-5 -1 2 11402.37 12930.70 355.37 o
-4 -1 2 12932.18 16043.09 416.87 o
-3 -1 2 501.79 1816.43 68.76 o
-2 -1 2 48076.68 44358.57 796.96 o
-1 -1 2 1011.75 2164.03 44.26 o
0 -1 2 6069.69 3516.47 80.23 o
1 -1 2 1984.83 3252.51 78.85 o
2 -1 2 100195.99 105046.25 1631.66 o
3 -1 2 48444.79 52818.68 1032.13 o
4 -1 2 17858.45 16716.85 387.65 o
5 -1 2 11618.84 11454.97 285.15 o
6 -1 2 23173.37 25752.36 656.49 o
7 -1 2 780.07 1181.05 107.04 o
8 -1 2 5245.19 5455.63 264.31 o
9 -1 2 7068.70 7476.43 416.53 o
10 -1 2 0.29 158.40 257.92 <
11 -1 2 2593.94 2416.56 443.92 o
-11 0 2 60.48 246.97 219.62 <
-10 0 2 10855.04 11400.77 586.36 o
-9 0 2 6514.40 5625.84 369.10 o
-8 0 2 13710.90 15058.33 636.27 o
-7 0 2 262.76 499.63 89.09 o
-6 0 2 3263.03 3676.65 154.51 o
-5 0 2 59412.15 62075.41 1402.44 o
-4 0 2 1019.73 1536.29 67.44 o
-3 0 2 26017.20 29827.53 601.84 o
-2 0 2 18598.26 24728.41 424.45 o
-1 0 2 40.00 540.06 21.62 o
0 0 2 66.41 1094.17 31.78 o
1 0 2 57972.49 56668.31 813.59 o
2 0 2 41519.02 55538.32 917.78 o
3 0 2 29677.34 29395.78 539.58 o
4 0 2 14119.39 12852.92 275.14 o
5 0 2 13947.28 12774.07 301.35 o
6 0 2 41027.49 43495.74 1050.86 o
7 0 2 12371.93 12052.75 415.92 o
8 0 2 10541.74 11783.36 420.75 o
9 0 2 1671.32 2098.75 225.70 o
10 0 2 1282.50 1497.67 308.80 o
11 0 2 329.12 33.60 276.12 <
-11 1 2 327.40 453.25 435.53 <
-10 1 2 7472.99 6524.17 490.96 o
-9 1 2 20722.67 20144.16 882.22 o
-8 1 2 406.28 792.37 179.21 o
-7 1 2 28.92 229.78 98.48 <
-6 1 2 298.75 528.01 101.33 o
-5 1 2 338.09 955.71 87.00 o
-4 1 2 7769.58 8324.67 244.94 o
-3 1 2 47787.58 53200.17 960.20 o
-2 1 2 40107.42 43400.14 861.80 o
-1 1 2 20283.12 16890.79 233.38 o
0 1 2 4410.40 922.09 26.51 o
1 1 2 3027.27 5328.23 83.49 o
2 1 2 197429.64 222096.62 3436.09 o
3 1 2 1540.82 2879.31 78.09 o
4 1 2 4942.36 6565.67 139.80 o
5 1 2 15684.78 14645.32 338.29 o
6 1 2 661.20 793.83 87.51 o
7 1 2 12154.63 12232.06 408.71 o
8 1 2 4202.22 4500.60 260.02 o
9 1 2 20094.75 20485.78 1173.34 o
10 1 2 413.64 485.53 221.93 <
11 1 2 161.49 262.85 258.42 <
-11 2 2 652.64 515.42 440.68 <
-10 2 2 1026.72 1246.03 457.79 <
-9 2 2 9461.71 8807.94 529.42 o
-8 2 2 4559.28 5534.11 403.22 o
-7 2 2 22850.37 23427.27 940.32 o
-6 2 2 414.18 438.12 113.31 o
-5 2 2 2032.31 2418.09 110.87 o
-4 2 2 98.19 185.49 46.11 o
-3 2 2 55325.61 58295.75 1056.82 o
-2 2 2 41029.80 42383.61 732.35 o
-1 2 2 983.51 406.98 28.90 o
0 2 2 35171.43 24136.05 387.95 o
1 2 2 6952.31 8168.39 138.59 o
2 2 2 10420.50 12661.74 213.45 o
3 2 2 61312.89 55511.79 950.57 o
4 2 2 45056.16 44834.54 913.60 o
5 2 2 7124.03 7011.29 229.47 o
6 2 2 23539.02 24800.96 732.78 o
7 2 2 1736.45 1934.10 158.79 o
8 2 2 4892.86 4558.92 370.14 o
9 2 2 21646.15 22838.20 1267.40 o
10 2 2 2707.43 2770.90 350.23 o
11 2 2 10.23 -68.52 142.51 <
-11 3 2 966.81 974.70 474.20 <
-10 3 2 6382.17 4805.46 742.90 o
-9 3 2 1341.69 1825.17 449.13 o
-8 3 2 5.77 -183.15 133.91 <
-7 3 2 6087.08 6012.35 321.09 o
-6 3 2 11718.35 12042.63 381.84 o
-5 3 2 3364.72 3301.33 147.99 o
-4 3 2 2524.31 2572.76 118.39 o
-3 3 2 8293.10 9531.27 255.76 o
-2 3 2 69409.53 70617.22 1385.70 o
-1 3 2 15332.11 15180.78 287.79 o
0 3 2 58391.38 49868.46 870.36 o
1 3 2 61911.30 55461.22 960.10 o
2 3 2 25500.81 28547.00 471.91 o
3 3 2 8634.90 5929.74 122.92 o
4 3 2 1172.25 504.33 42.96 o
5 3 2 26338.89 24863.68 664.90 o
6 3 2 20.06 224.83 65.91 o
7 3 2 497.25 625.64 98.20 o
8 3 2 15345.14 15854.35 893.64 o
9 3 2 17490.37 16666.81 671.12 o
10 3 2 5462.85 5388.70 309.77 o
11 3 2 207.00 183.13 144.84 <
-11 4 2 1264.14 1916.31 547.56 o
-10 4 2 0.40 -116.98 408.51 <
-9 4 2 7172.10 4901.47 731.74 o
-8 4 2 2702.77 2244.25 315.63 o
-7 4 2 16106.65 16124.09 624.41 o
-6 4 2 9219.62 10018.34 353.27 o
-5 4 2 37.99 113.85 94.31 <
-4 4 2 6.14 1.04 75.55 <
-3 4 2 67977.64 65176.89 1644.03 o
-2 4 2 100.31 581.47 63.83 o
-1 4 2 16124.51 13145.31 348.13 o
0 4 2 1970.60 1366.31 73.39 o
1 4 2 29458.32 23389.27 539.57 o
2 4 2 51063.46 43881.90 777.44 o
3 4 2 45.32 22.40 26.05 <
4 4 2 64439.46 66486.42 1245.50 o
5 4 2 520.89 831.38 69.28 o
6 4 2 2107.50 2101.32 123.88 o
7 4 2 13.49 23.45 67.22 <
8 4 2 12277.17 10782.96 451.75 o
9 4 2 16987.46 16414.67 657.32 o
10 4 2 1216.11 1271.44 164.04 o
11 4 2 74.28 151.10 135.73 <
12 4 2 1.09 72.17 198.78 <
-10 5 2 115.28 200.59 427.50 <
-9 5 2 103.39 206.59 391.29 <
-8 5 2 392.50 605.88 249.80 <
-7 5 2 26055.86 26433.91 1149.07 o
-6 5 2 5037.03 5289.83 281.74 o
-5 5 2 4053.37 4575.97 255.33 o
-4 5 2 1237.88 1283.86 141.38 o
-3 5 2 16693.60 15950.22 461.31 o
-2 5 2 97658.48 108695.98 2320.27 o
-1 5 2 26449.03 23114.68 524.99 o
0 5 2 14765.70 13770.82 328.77 o
1 5 2 16917.68 13938.51 393.44 o
2 5 2 8153.13 6398.89 191.18 o
3 5 2 389.55 514.96 59.65 o
4 5 2 28205.05 29238.62 560.44 o
5 5 2 29444.19 29902.32 704.78 o
6 5 2 62.93 148.24 60.18 <
7 5 2 660.37 748.52 95.06 o
8 5 2 3827.64 4169.07 252.52 o
9 5 2 19428.50 19245.92 751.33 o
10 5 2 899.09 1094.02 159.38 o
11 5 2 2703.98 2572.56 227.93 o
12 5 2 218.15 437.90 218.04 <
-10 6 2 0.60 -318.10 346.24 <
-9 6 2 46.51 157.62 388.70 <
-8 6 2 1159.36 1026.97 298.93 o
-7 6 2 21191.70 20358.08 962.71 o
-6 6 2 13210.22 14148.42 568.04 o
-5 6 2 3347.73 4062.89 259.85 o
-4 6 2 5857.23 6559.34 291.99 o
-3 6 2 2544.51 3109.57 171.73 o
-2 6 2 1048.45 1263.66 110.40 o
-1 6 2 33568.57 31043.56 756.50 o
0 6 2 83671.81 83456.57 2094.98 o
1 6 2 3372.28 3804.25 177.37 o
2 6 2 20827.18 20679.55 517.94 o
3 6 2 19378.91 16913.42 433.81 o
4 6 2 27132.33 27949.10 668.77 o
5 6 2 28325.56 30308.71 701.71 o
6 6 2 263.40 318.84 77.89 o
7 6 2 4.27 102.65 70.86 <
8 6 2 7204.03 7297.64 331.84 o
9 6 2 2963.74 3141.84 238.32 o
10 6 2 1660.48 1899.87 188.48 o
11 6 2 2518.95 2671.92 230.81 o
12 6 2 2019.29 1778.17 281.35 o
-10 7 2 1152.21 766.57 444.47 <
-9 7 2 73.12 27.09 270.42 <
-8 7 2 3897.97 3658.52 436.38 o
-7 7 2 4606.03 4643.14 459.11 o
-6 7 2 13534.14 13276.96 555.56 o
-5 7 2 192.49 382.68 156.56 <
-4 7 2 17896.36 15824.83 605.36 o
-3 7 2 26157.67 27144.53 743.88 o
-2 7 2 2121.25 2633.72 173.33 o
-1 7 2 24445.70 23743.11 616.12 o
0 7 2 3335.26 2679.87 169.83 o
1 7 2 22436.05 20713.32 594.56 o
2 7 2 234.70 305.30 74.24 o
3 7 2 458.27 1080.42 98.72 o
4 7 2 38227.59 38918.71 920.58 o
5 7 2 15550.83 15317.83 322.40 o
6 7 2 3095.52 3371.96 179.24 o
7 7 2 4748.02 4896.37 224.85 o
8 7 2 3507.08 3225.04 235.40 o
9 7 2 8702.88 8529.23 389.74 o
10 7 2 2111.31 2575.65 244.14 o
11 7 2 2243.03 1798.07 200.13 o
-9 8 2 75.59 -297.51 264.95 <
-8 8 2 387.73 533.98 287.31 <
-7 8 2 14248.01 14481.56 783.44 o
-6 8 2 65.19 295.69 163.61 <
-5 8 2 48.91 -44.55 125.31 <
-4 8 2 5.74 39.86 82.59 <
-3 8 2 11085.72 11137.58 384.28 o
-2 8 2 13306.34 13661.35 416.43 o
-1 8 2 5059.16 5286.50 264.29 o
0 8 2 67051.01 64044.28 1673.79 o
1 8 2 607.74 1126.95 132.57 o
2 8 2 127.25 257.38 91.96 <
3 8 2 1277.19 900.85 101.80 o
4 8 2 32867.27 31024.05 762.97 o
5 8 2 9822.79 9299.27 284.44 o
6 8 2 557.26 683.70 111.22 o
7 8 2 155.29 261.55 98.99 <
8 8 2 667.81 1064.71 166.43 o
9 8 2 2680.15 3049.61 256.04 o
10 8 2 4.74 259.48 157.62 <
11 8 2 11810.85 12045.88 546.09 o
-9 9 2 285.62 272.73 471.23 <
-8 9 2 78.69 -430.11 350.40 <
-7 9 2 1456.42 2385.87 514.46 o
-6 9 2 9696.08 8382.88 519.25 o
-5 9 2 14101.77 14721.86 746.43 o
-4 9 2 3950.05 3957.60 299.83 o
-3 9 2 3864.42 3764.70 228.58 o
-2 9 2 9326.03 7770.90 372.69 o
-1 9 2 91.29 34.65 100.56 <
0 9 2 24609.25 25314.79 669.10 o
1 9 2 9028.41 8736.17 395.53 o
2 9 2 15.25 130.52 101.60 <
3 9 2 134.95 330.59 94.57 o
4 9 2 3627.20 3479.24 188.81 o
5 9 2 20708.17 18787.30 507.13 o
6 9 2 2084.43 1800.05 165.01 o
7 9 2 11897.30 11658.30 489.16 o
8 9 2 1768.76 2334.51 230.90 o
9 9 2 60.84 349.62 159.96 <
10 9 2 1084.55 1518.36 219.25 o
11 9 2 5509.09 5112.01 487.45 o
-8 10 2 1320.08 1093.01 479.85 <
-7 10 2 70.67 75.29 355.09 <
-6 10 2 106.21 -31.00 197.21 <
-5 10 2 440.60 411.81 206.82 <
-4 10 2 20943.24 20567.52 922.02 o
-3 10 2 356.31 253.97 133.11 <
-2 10 2 1559.10 1345.41 233.26 o
-1 10 2 10103.53 10354.17 542.90 o
0 10 2 11731.94 10724.62 457.74 o
1 10 2 6173.84 7039.98 355.08 o
2 10 2 4430.40 4480.59 301.31 o
3 10 2 438.48 480.05 118.25 o
4 10 2 5097.26 5682.12 263.02 o
5 10 2 140.49 486.37 129.47 o
6 10 2 628.31 623.00 139.08 o
7 10 2 11155.61 10001.49 466.02 o
8 10 2 2557.45 2415.37 249.29 o
9 10 2 2273.57 2621.78 267.28 o
10 10 2 2961.96 3098.54 402.73 o
11 10 2 6043.25 7228.09 1030.73 o
-7 11 2 3645.96 3402.92 627.84 o
-6 11 2 100.62 130.26 236.55 <
-5 11 2 9592.16 10751.18 614.46 o
-4 11 2 646.49 345.88 203.41 <
-3 11 2 3488.47 3796.50 281.95 o
-2 11 2 25.70 -37.52 164.39 <
-1 11 2 2423.30 3379.86 334.40 o
0 11 2 7670.06 7985.72 468.54 o
1 11 2 2564.81 2371.30 232.11 o
2 11 2 73.83 251.66 140.68 <
3 11 2 11474.47 11284.20 482.47 o
4 11 2 4488.92 5152.80 296.64 o
5 11 2 2103.17 2460.88 267.56 o
6 11 2 10539.61 10852.59 513.07 o
7 11 2 2875.03 2456.13 343.70 o
8 11 2 946.94 639.84 261.98 <
9 11 2 82.51 368.37 263.64 <
10 11 2 102.89 75.55 255.04 <
-6 12 2 1171.26 909.00 446.04 <
-5 12 2 4608.90 4427.86 448.19 o
-4 12 2 10583.24 11688.90 655.40 o
-3 12 2 15.86 226.14 200.86 <
-2 12 2 9.26 -23.19 175.07 <
-1 12 2 177.10 66.17 173.50 <
0 12 2 15100.60 15413.09 738.29 o
1 12 2 95.69 201.64 161.26 <
2 12 2 3466.63 4214.23 309.53 o
3 12 2 38.18 209.72 127.66 <
4 12 2 2503.69 2568.42 230.04 o
5 12 2 672.12 603.71 185.70 o
6 12 2 343.37 478.77 188.33 <
7 12 2 17097.61 16679.56 890.94 o
8 12 2 53.29 195.13 240.98 <
9 12 2 54.28 -115.93 260.78 <
10 12 2 516.17 -56.26 447.73 <
-5 13 2 973.65 799.46 282.54 <
-4 13 2 5259.32 4484.74 444.16 o
-3 13 2 24.40 195.65 215.45 <
-2 13 2 37.30 78.94 211.80 <
-1 13 2 69.12 391.04 208.15 <
0 13 2 263.51 -67.73 169.32 <
1 13 2 5554.22 5854.61 452.93 o
2 13 2 9085.50 10531.42 568.94 o
3 13 2 8389.20 7327.77 368.52 o
4 13 2 3653.25 3300.53 310.81 o
5 13 2 2035.04 2064.57 269.91 o
6 13 2 2126.60 2198.52 278.75 o
7 13 2 3490.24 3438.34 447.90 o
8 13 2 2017.47 1777.72 352.68 o
9 13 2 756.93 609.41 312.00 <
-5 14 2 2276.05 1487.31 488.22 o
-4 14 2 1439.91 1878.70 338.46 o
-3 14 2 270.40 301.65 239.13 <
-2 14 2 4261.68 4045.85 427.21 o
-1 14 2 970.42 1005.19 262.23 o
0 14 2 1332.48 1440.09 282.50 o
1 14 2 2966.73 3841.96 389.74 o
2 14 2 49.88 16.15 190.44 <
3 14 2 7051.79 7528.18 470.02 o
4 14 2 1100.59 1021.79 223.68 o
5 14 2 1616.83 1570.33 251.48 o
6 14 2 4821.39 4579.44 384.20 o
7 14 2 4122.50 4495.81 511.47 o
8 14 2 109.18 322.52 305.32 <
9 14 2 278.27 587.67 550.42 <
-4 15 2 298.28 70.59 337.60 <
-3 15 2 119.46 -113.32 234.72 <
-2 15 2 41.63 238.64 248.80 <
-1 15 2 3793.51 4046.43 434.32 o
0 15 2 1897.65 2499.13 346.46 o
1 15 2 144.02 -78.67 195.38 <
2 15 2 11921.66 14281.97 649.29 o
3 15 2 199.16 172.19 243.57 <
4 15 2 87.08 360.29 255.83 <
5 15 2 181.51 -340.74 226.90 <
6 15 2 256.18 15.11 205.53 <
7 15 2 4039.62 2370.39 422.54 o
8 15 2 6.46 90.92 312.37 <
-2 16 2 1809.39 1405.12 450.59 o
-1 16 2 496.46 341.73 254.74 <
0 16 2 1520.99 1527.43 312.93 o
1 16 2 50.60 35.95 232.12 <
2 16 2 627.48 1219.43 268.00 o
3 16 2 5873.29 7766.05 675.51 o
4 16 2 582.35 550.86 310.98 <
5 16 2 25.81 -48.98 258.70 <
6 16 2 452.58 9.64 437.85 <
7 16 2 1036.36 82.81 508.81 <
0 17 2 1691.63 2298.08 562.28 o
1 17 2 1741.65 2300.89 530.78 o
2 17 2 675.90 1752.00 607.35 <
3 17 2 312.92 232.36 487.89 <
4 17 2 51.55 218.84 490.82 <
5 17 2 588.36 519.08 551.64 <
6 17 2 379.68 453.23 556.12 <
2 18 2 2026.92 2594.89 693.36 o
3 18 2 126.47 645.02 556.19 <
4 18 2 55.94 770.88 622.64 <
-5 -16 3 465.54 1083.81 601.94 <
-4 -16 3 884.24 2069.79 692.97 <
-3 -16 3 67.93 356.13 474.66 <
-2 -16 3 17.42 -431.95 430.39 <
0 -16 3 344.37 1118.26 520.19 <
-6 -15 3 1345.77 218.96 284.31 <
-5 -15 3 3821.65 3741.93 503.73 o
-4 -15 3 18.17 562.21 311.59 <
-3 -15 3 165.74 -169.33 253.47 <
-2 -15 3 79.27 559.59 321.22 <
-1 -15 3 1813.19 1809.65 340.48 o
0 -15 3 595.17 751.67 303.95 <
1 -15 3 67.17 -76.59 271.46 <
2 -15 3 76.72 229.78 420.48 <
-7 -14 3 135.74 -216.48 262.07 <
-6 -14 3 187.22 335.53 275.35 <
-5 -14 3 4908.26 4468.47 445.26 o
-4 -14 3 1357.13 1788.96 371.80 o
-3 -14 3 294.64 924.74 306.86 o
-2 -14 3 88.62 -106.03 249.31 <
-1 -14 3 1999.27 1540.12 457.32 o
0 -14 3 2115.45 3198.23 404.98 o
1 -14 3 2399.82 2204.74 370.84 o
2 -14 3 637.20 1023.83 321.13 o
3 -14 3 743.07 470.09 312.26 <
4 -14 3 848.13 1.56 418.76 <
-8 -13 3 16.50 15.63 269.38 <
-7 -13 3 51.96 -104.21 233.69 <
-6 -13 3 3688.67 3384.17 435.37 o
-5 -13 3 3013.35 2922.69 309.60 o
-4 -13 3 570.85 351.36 195.08 <
-3 -13 3 166.52 314.69 192.25 <
-2 -13 3 252.23 133.11 188.08 <
-1 -13 3 660.57 740.97 250.55 <
0 -13 3 55.29 247.75 228.48 <
1 -13 3 13.75 77.38 236.30 <
2 -13 3 8266.33 8504.96 633.27 o
3 -13 3 45.18 29.18 249.06 <
4 -13 3 1463.38 1566.00 364.49 o
5 -13 3 3407.45 2445.02 575.10 o
6 -13 3 1186.27 -16.40 396.30 <
-9 -12 3 1498.07 1779.15 636.27 <
-8 -12 3 636.45 1082.16 325.56 o
-7 -12 3 115.44 421.25 258.69 <
-6 -12 3 1063.70 655.42 260.66 <
-5 -12 3 5826.23 5570.22 329.20 o
-4 -12 3 589.38 436.26 184.40 <
-3 -12 3 1047.72 771.31 194.78 o
-2 -12 3 1335.13 1767.11 234.07 o
-1 -12 3 5362.11 5939.60 480.52 o
0 -12 3 172.60 -9.38 209.19 <
1 -12 3 8040.93 9759.76 627.36 o
2 -12 3 215.18 157.08 226.11 <
3 -12 3 2581.99 3461.68 417.39 o
4 -12 3 243.52 66.43 243.30 <
5 -12 3 217.09 69.03 276.65 <
6 -12 3 7357.96 4422.66 705.39 o
-9 -11 3 4397.18 4794.34 836.62 o
-8 -11 3 42.46 -81.28 227.96 <
-7 -11 3 17.07 96.39 225.35 <
-6 -11 3 1078.37 1206.16 277.32 o
-5 -11 3 5034.13 4801.30 303.07 o
-4 -11 3 365.09 87.00 162.54 <
-3 -11 3 1109.33 849.40 158.84 o
-2 -11 3 378.59 460.27 162.28 <
-1 -11 3 1521.15 1882.27 234.83 o
0 -11 3 3221.04 3211.12 354.31 o
1 -11 3 4461.86 4069.84 399.34 o
2 -11 3 20656.84 19768.94 927.09 o
3 -11 3 1283.66 1074.56 277.82 o
4 -11 3 491.99 674.09 255.78 <
5 -11 3 1487.99 1300.44 325.70 o
6 -11 3 869.29 969.81 321.36 o
-10 -10 3 3175.53 2656.17 410.74 o
-9 -10 3 5849.71 5754.56 408.42 o
-8 -10 3 43.33 -19.28 171.42 <
-7 -10 3 1032.43 984.59 215.87 o
-6 -10 3 144.50 37.77 159.95 <
-5 -10 3 3811.98 3570.72 223.40 o
-4 -10 3 460.75 881.95 185.72 o
-3 -10 3 20300.55 18008.39 595.53 o
-2 -10 3 1011.40 1079.63 175.51 o
-1 -10 3 3207.43 2713.17 256.23 o
0 -10 3 8776.97 8913.46 432.49 o
1 -10 3 687.19 855.29 220.59 o
2 -10 3 5176.05 5163.36 443.38 o
3 -10 3 6668.48 4969.48 447.24 o
4 -10 3 3264.26 2847.70 370.43 o
5 -10 3 619.98 599.82 251.60 <
6 -10 3 2678.86 3195.84 425.18 o
7 -10 3 84.85 -452.00 354.56 <
-10 -9 3 5303.22 4661.53 472.96 o
-9 -9 3 3995.51 3639.03 425.69 o
-8 -9 3 73.27 87.01 160.74 <
-7 -9 3 3694.98 3311.13 299.88 o
-6 -9 3 1044.84 1214.25 195.04 o
-5 -9 3 825.24 752.37 121.10 o
-4 -9 3 2315.63 2062.16 192.06 o
-3 -9 3 2783.70 2753.76 182.13 o
-2 -9 3 26137.44 25822.81 749.31 o
-1 -9 3 158.76 223.51 126.35 <
0 -9 3 4905.70 3799.90 291.10 o
1 -9 3 29160.41 25674.75 1076.99 o
2 -9 3 5377.38 3568.16 354.45 o
3 -9 3 173.27 -104.72 160.21 <
4 -9 3 2.87 16.41 176.12 <
5 -9 3 252.62 416.53 216.21 <
6 -9 3 2265.20 1888.68 322.72 o
7 -9 3 441.78 571.22 426.14 <
8 -9 3 1150.64 975.67 477.29 <
-10 -8 3 2964.96 2111.22 561.17 o
-9 -8 3 3744.65 3384.62 293.89 o
-8 -8 3 550.88 410.23 168.26 <
-7 -8 3 6507.82 5231.00 327.54 o
-6 -8 3 3151.81 3720.07 229.45 o
-5 -8 3 8222.40 7940.61 272.49 o
-4 -8 3 5246.29 5074.78 193.60 o
-3 -8 3 46217.23 41396.72 1010.99 o
-2 -8 3 45.23 824.81 127.92 o
-1 -8 3 4001.94 4035.94 231.67 o
0 -8 3 61.66 131.04 117.49 <
1 -8 3 193.49 230.80 131.03 <
2 -8 3 28155.54 25840.81 1066.34 o
3 -8 3 300.27 730.67 201.36 o
4 -8 3 4641.40 4807.66 301.81 o
5 -8 3 771.15 875.58 159.91 o
6 -8 3 1566.67 926.55 248.88 o
7 -8 3 11.86 -28.14 360.31 <
8 -8 3 10750.62 9118.46 965.87 o
9 -8 3 1272.45 711.33 481.68 <
-11 -7 3 22.19 9.12 386.62 <
-10 -7 3 1095.55 1191.82 470.27 <
-9 -7 3 2583.97 2422.62 531.62 o
-8 -7 3 5436.06 5698.81 339.14 o
-7 -7 3 7723.61 7751.22 360.32 o
-6 -7 3 689.01 741.74 94.54 o
-5 -7 3 3404.70 3338.16 167.25 o
-4 -7 3 36.36 912.09 87.27 o
-3 -7 3 33190.78 33930.47 829.61 o
-2 -7 3 52886.88 48575.86 1158.07 o
-1 -7 3 15044.57 14494.17 454.53 o
0 -7 3 87.40 217.53 91.70 <
1 -7 3 8919.95 8832.71 294.12 o
2 -7 3 4183.93 3803.65 230.35 o
3 -7 3 320.18 399.07 140.40 <
4 -7 3 12599.94 12982.49 422.36 o
5 -7 3 113.31 305.06 110.20 <
6 -7 3 462.91 588.66 170.35 o
7 -7 3 175.59 20.32 205.02 <
8 -7 3 2689.92 3245.78 582.60 o
9 -7 3 12947.42 13187.11 1059.07 o
-11 -6 3 676.54 728.72 449.78 <
-10 -6 3 167.63 269.10 375.39 <
-9 -6 3 247.67 691.36 359.23 <
-8 -6 3 1774.07 2465.44 508.91 o
-7 -6 3 31075.74 29991.27 1235.61 o
-6 -6 3 1142.86 1658.92 114.83 o
-5 -6 3 2732.97 2764.70 141.28 o
-4 -6 3 31697.41 29973.52 711.79 o
-3 -6 3 7058.93 7762.89 215.73 o
-2 -6 3 15302.14 14639.40 398.08 o
-1 -6 3 3558.15 2743.04 162.01 o
0 -6 3 12240.26 11715.78 370.73 o
1 -6 3 3767.37 3531.44 175.78 o
2 -6 3 3321.72 3479.25 201.57 o
3 -6 3 2162.50 2647.25 148.34 o
4 -6 3 31586.81 31983.21 839.00 o
5 -6 3 8037.98 7955.41 370.35 o
6 -6 3 5536.43 5619.60 339.63 o
7 -6 3 6960.98 7374.44 404.34 o
8 -6 3 7441.98 7442.43 556.14 o
9 -6 3 1708.37 1569.47 329.04 o
-10 -5 3 340.35 224.80 348.01 <
-9 -5 3 174.16 425.41 342.83 <
-8 -5 3 10647.63 11415.30 971.65 o
-7 -5 3 7912.00 8439.35 773.49 o
-6 -5 3 15265.09 15696.04 445.34 o
-5 -5 3 1044.68 1170.73 105.98 o
-4 -5 3 453.57 631.63 72.67 o
-3 -5 3 59666.83 57240.29 1070.74 o
-2 -5 3 2713.63 3091.76 138.93 o
-1 -5 3 7671.05 6018.99 214.07 o
0 -5 3 9978.25 10315.92 319.04 o
1 -5 3 558.55 1010.29 90.90 o
2 -5 3 1746.33 1442.03 111.93 o
3 -5 3 21458.62 20103.02 464.11 o
4 -5 3 9264.90 9747.93 314.32 o
5 -5 3 15742.39 17099.95 602.67 o
6 -5 3 1065.00 1336.09 176.81 o
7 -5 3 2400.55 2286.71 222.24 o
8 -5 3 18293.14 18056.12 842.67 o
9 -5 3 5077.42 4658.73 446.79 o
10 -5 3 1413.06 1524.11 465.77 o
11 -5 3 203.91 -241.74 373.56 <
-9 -4 3 1461.36 2071.10 507.69 o
-8 -4 3 13993.25 13870.46 1097.98 o
-7 -4 3 30278.04 29367.57 1881.95 o
-6 -4 3 122.35 731.26 142.76 o
-5 -4 3 812.01 1182.84 72.66 o
-4 -4 3 554.10 644.36 58.08 o
-3 -4 3 218.99 681.20 50.02 o
-2 -4 3 17218.16 17938.99 430.09 o
-1 -4 3 11488.48 15336.34 377.79 o
0 -4 3 16136.96 14578.70 405.25 o
1 -4 3 7088.48 9550.99 241.38 o
2 -4 3 4693.67 4792.37 171.01 o
3 -4 3 8162.49 9086.03 259.44 o
4 -4 3 70526.06 74303.47 1608.25 o
5 -4 3 86.16 166.47 88.84 <
6 -4 3 12.68 283.19 113.33 <
7 -4 3 3346.08 3590.45 252.06 o
8 -4 3 2.64 25.27 171.17 <
9 -4 3 8029.40 8177.53 500.96 o
10 -4 3 926.41 1080.46 401.30 <
11 -4 3 4982.12 5730.81 737.08 o
-9 -3 3 2060.55 2404.47 532.01 o
-8 -3 3 1643.05 2935.46 529.77 o
-7 -3 3 23855.53 21703.88 1467.12 o
-6 -3 3 8017.23 8075.53 698.61 o
-5 -3 3 23477.64 23474.94 605.28 o
-4 -3 3 1602.62 1983.59 79.66 o
-3 -3 3 4062.51 3646.91 106.33 o
-2 -3 3 2067.03 1977.31 72.35 o
-1 -3 3 17506.95 14682.40 312.52 o
0 -3 3 29572.46 30954.25 786.19 o
1 -3 3 1772.85 2484.63 106.98 o
2 -3 3 31100.76 25901.30 586.69 o
3 -3 3 2405.71 3086.26 131.14 o
4 -3 3 9171.27 10084.47 321.55 o
5 -3 3 36909.87 40841.82 1063.82 o
6 -3 3 12445.51 13315.26 419.01 o
7 -3 3 520.23 672.00 129.97 o
8 -3 3 7623.18 7731.43 444.19 o
9 -3 3 125.56 -99.52 166.47 <
10 -3 3 531.05 857.70 355.53 <
11 -3 3 7796.68 5810.40 705.47 o
-11 -2 3 12888.61 12766.49 771.90 o
-10 -2 3 17.68 283.45 204.77 <
-9 -2 3 240.49 -16.41 149.53 <
-8 -2 3 16327.01 18122.70 1322.46 o
-7 -2 3 6233.98 8015.83 739.01 o
-6 -2 3 510.39 909.79 264.11 o
-5 -2 3 5180.19 5620.83 186.83 o
-4 -2 3 16895.79 16542.43 433.86 o
-3 -2 3 2919.29 3071.31 90.52 o
-2 -2 3 615.30 553.44 31.77 o
-1 -2 3 17302.78 21799.70 368.78 o
0 -2 3 84012.21 76446.25 1482.09 o
1 -2 3 2883.33 4097.68 129.02 o
2 -2 3 51263.58 46521.43 1004.33 o
3 -2 3 68410.42 66891.72 1317.00 o
4 -2 3 12065.75 13114.40 381.64 o
5 -2 3 20.99 124.79 58.10 <
6 -2 3 1674.85 1992.46 120.27 o
7 -2 3 13796.35 14311.00 436.90 o
8 -2 3 473.45 412.32 158.37 <
9 -2 3 796.38 794.32 195.32 o
10 -2 3 5819.31 6249.56 655.28 o
11 -2 3 5572.67 5030.98 617.37 o
-11 -1 3 3829.78 3631.16 295.42 o
-10 -1 3 1890.62 2024.87 260.30 o
-9 -1 3 983.61 548.68 184.11 <
-8 -1 3 463.09 695.20 146.38 o
-7 -1 3 19279.59 17933.18 621.06 o
-6 -1 3 1240.68 1353.92 102.06 o
-5 -1 3 22951.89 22964.19 713.79 o
-4 -1 3 15174.42 15352.90 363.16 o
-3 -1 3 945.16 1040.28 47.13 o
-2 -1 3 59.54 139.90 22.40 o
-1 -1 3 89871.39 90209.91 1356.02 o
0 -1 3 5660.49 13657.06 232.45 o
1 -1 3 28336.95 23682.21 409.05 o
2 -1 3 4244.43 3668.14 100.85 o
3 -1 3 19238.12 16224.37 313.04 o
4 -1 3 58530.87 58579.14 1257.53 o
5 -1 3 1085.19 1651.36 94.52 o
6 -1 3 22442.84 23840.48 618.63 o
7 -1 3 1388.56 1671.74 128.09 o
8 -1 3 1306.96 1501.29 164.03 o
9 -1 3 134.68 32.56 217.53 <
10 -1 3 6086.98 6257.40 578.56 o
11 -1 3 9600.30 8909.79 759.62 o
-11 0 3 5904.65 5508.27 415.16 o
-10 0 3 1714.50 1643.92 282.71 o
-9 0 3 45.47 172.47 196.43 <
-8 0 3 11.04 51.06 136.52 <
-7 0 3 422.66 428.48 105.75 o
-6 0 3 182.38 217.26 79.97 <
-5 0 3 31922.69 32863.09 771.73 o
-4 0 3 12369.00 13306.19 334.70 o
-3 0 3 14791.57 16190.60 344.03 o
-2 0 3 221.59 72.16 19.80 o
-1 0 3 43964.54 48829.93 741.34 o
0 0 3 183109.50 178207.59 2755.50 o
1 0 3 41068.58 31475.25 494.88 o
2 0 3 268.18 47.93 22.92 <
3 0 3 14828.38 13377.99 303.18 o
4 0 3 4862.01 4264.19 124.74 o
5 0 3 8315.28 7840.27 200.28 o
6 0 3 19845.91 20553.15 424.63 o
7 0 3 22045.98 22720.77 671.50 o
8 0 3 122.94 182.10 121.66 <
9 0 3 605.38 655.30 241.44 <
10 0 3 2885.54 2524.79 388.19 o
11 0 3 12913.37 11730.84 859.17 o
-11 1 3 4037.24 2683.75 510.70 o
-10 1 3 501.48 413.62 231.03 <
-9 1 3 9353.79 7256.61 497.54 o
-8 1 3 61.87 -161.26 162.82 <
-7 1 3 63.74 135.73 115.67 <
-6 1 3 3037.46 2873.53 183.66 o
-5 1 3 44628.41 45305.39 1145.22 o
-4 1 3 21306.13 22375.80 589.75 o
-3 1 3 1052.26 726.47 47.91 o
-2 1 3 34345.47 29860.68 562.65 o
-1 1 3 6136.05 8383.91 136.06 o
0 1 3 5783.04 11088.08 163.09 o
1 1 3 59186.77 48905.98 722.82 o
2 1 3 121823.74 114854.60 1750.57 o
3 1 3 25.39 18.76 28.14 <
4 1 3 12142.59 11922.45 270.52 o
5 1 3 6155.25 5366.48 144.40 o
6 1 3 18135.50 18048.73 397.36 o
7 1 3 28095.44 28942.13 1077.87 o
8 1 3 159.62 83.36 112.02 <
9 1 3 248.31 468.37 208.40 <
10 1 3 6935.50 6130.34 538.09 o
11 1 3 3998.85 3800.46 475.09 o
-11 2 3 110.78 107.85 366.28 <
-10 2 3 1465.75 1739.66 460.56 o
-9 2 3 7797.64 7980.40 581.75 o
-8 2 3 2542.02 2619.12 306.02 o
-7 2 3 126.79 52.88 125.83 <
-6 2 3 8526.55 8749.70 368.16 o
-5 2 3 7782.55 8220.14 271.19 o
-4 2 3 43549.64 46236.86 1036.01 o
-3 2 3 64.01 53.67 34.65 <
-2 2 3 14587.19 11995.39 240.90 o
-1 2 3 104020.37 102614.80 1593.32 o
0 2 3 77.79 374.62 24.23 o
1 2 3 28154.35 23112.18 378.81 o
2 2 3 398.22 238.33 21.88 o
3 2 3 46957.15 49119.14 872.62 o
4 2 3 21.17 165.17 34.39 o
5 2 3 476.37 485.51 45.84 o
6 2 3 28384.64 29040.43 1060.57 o
7 2 3 21207.79 20109.09 772.07 o
8 2 3 3152.48 3416.21 242.97 o
9 2 3 2004.99 2390.99 329.26 o
10 2 3 4042.52 4383.79 306.85 o
11 2 3 7844.33 6579.03 566.12 o
-11 3 3 929.62 859.62 433.06 <
-10 3 3 6837.06 6754.48 770.26 o
-9 3 3 9342.62 8801.66 894.43 o
-8 3 3 5516.48 5313.17 353.93 o
-7 3 3 1329.42 1413.78 203.08 o
-6 3 3 4289.36 3707.45 202.53 o
-5 3 3 41816.70 44410.41 1151.34 o
-4 3 3 457.03 997.07 85.69 o
-3 3 3 3998.58 4093.44 148.71 o
-2 3 3 75.20 39.34 37.77 <
-1 3 3 21378.89 18145.25 368.22 o
0 3 3 72709.91 63944.19 1162.51 o
1 3 3 10555.37 10965.25 210.59 o
2 3 3 61128.21 58353.12 1007.67 o
3 3 3 2766.01 2990.37 85.59 o
4 3 3 4629.05 4081.76 119.55 o
5 3 3 854.00 810.67 58.59 o
6 3 3 35306.26 36172.72 1063.26 o
7 3 3 9349.09 9633.25 338.73 o
8 3 3 0.63 107.34 79.46 <
9 3 3 42.68 75.29 116.97 <
10 3 3 125.94 426.72 148.23 <
11 3 3 3312.23 2803.60 389.92 o
-10 4 3 4833.08 5613.62 727.83 o
-9 4 3 14208.96 14615.48 1129.48 o
-8 4 3 1826.69 2076.22 315.49 o
-7 4 3 1604.09 2043.87 228.31 o
-6 4 3 135.83 125.57 102.64 <
-5 4 3 17263.29 17276.50 518.18 o
-4 4 3 28991.96 31410.08 839.62 o
-3 4 3 54207.40 52025.91 1325.65 o
-2 4 3 1343.85 2311.06 107.26 o
-1 4 3 22453.73 21152.91 486.45 o
0 4 3 34854.66 30922.75 631.53 o
1 4 3 1841.34 1458.03 85.11 o
2 4 3 50544.92 49895.63 930.83 o
3 4 3 13722.82 14977.36 326.15 o
4 4 3 67.31 258.43 40.12 o
5 4 3 484.37 651.94 54.44 o
6 4 3 6530.20 6365.13 230.87 o
7 4 3 24879.45 24682.07 750.90 o
8 4 3 2094.82 2339.33 191.82 o
9 4 3 5971.62 5409.52 304.50 o
10 4 3 1718.46 2090.12 219.45 o
11 4 3 14.10 290.49 157.88 <
-10 5 3 2873.44 2961.83 566.92 o
-9 5 3 16124.98 14255.62 1112.16 o
-8 5 3 2265.84 2281.66 342.76 o
-7 5 3 5404.04 6249.70 495.32 o
-6 5 3 11855.52 11418.97 407.25 o
-5 5 3 1251.91 1394.28 152.06 o
-4 5 3 761.28 639.35 110.68 o
-3 5 3 346.06 506.38 94.82 o
-2 5 3 78529.38 79994.12 1729.68 o
-1 5 3 103.47 137.81 46.89 <
0 5 3 13097.65 13775.56 321.84 o
1 5 3 41865.87 36971.09 939.89 o
2 5 3 26532.11 30176.33 643.67 o
3 5 3 20266.13 21988.88 468.62 o
4 5 3 5613.74 5462.68 150.67 o
5 5 3 3558.99 2842.77 109.49 o
6 5 3 11058.05 11810.42 364.85 o
7 5 3 16.12 273.55 82.07 o
8 5 3 503.39 632.41 122.94 o
9 5 3 11157.48 11023.26 489.35 o
10 5 3 1919.79 2078.99 214.48 o
11 5 3 1905.34 2107.86 232.44 o
-10 6 3 5135.83 6034.41 792.41 o
-9 6 3 3287.37 3661.85 619.11 o
-8 6 3 5507.35 4979.58 452.69 o
-7 6 3 2645.99 3129.53 358.57 o
-6 6 3 5524.59 6123.68 363.01 o
-5 6 3 24742.46 23975.59 713.31 o
-4 6 3 765.42 679.46 122.40 o
-3 6 3 40976.84 42645.50 970.40 o
-2 6 3 2074.43 2686.83 148.86 o
-1 6 3 19182.94 18323.70 420.42 o
0 6 3 3055.45 2209.13 126.67 o
1 6 3 10642.80 13091.61 382.91 o
2 6 3 36805.41 37463.12 878.09 o
3 6 3 15682.90 15324.22 393.32 o
4 6 3 105.37 68.25 46.63 <
5 6 3 14351.25 15753.22 357.23 o
6 6 3 15429.39 15446.80 458.99 o
7 6 3 2478.20 2592.34 162.90 o
8 6 3 15196.21 15236.96 565.49 o
9 6 3 2927.73 2965.49 235.46 o
10 6 3 2813.53 2633.89 232.87 o
11 6 3 55.37 -181.32 135.47 <
-10 7 3 1628.34 1105.07 454.78 <
-9 7 3 7868.82 7816.13 890.32 o
-8 7 3 1482.84 971.62 278.05 o
-7 7 3 517.16 435.76 222.96 <
-6 7 3 116.67 279.53 150.32 <
-5 7 3 3651.65 3627.04 285.04 o
-4 7 3 5690.77 5500.72 332.30 o
-3 7 3 27287.03 27723.42 751.46 o
-2 7 3 47105.01 52056.83 1176.25 o
-1 7 3 17.96 225.61 80.24 <
0 7 3 31.47 40.64 66.69 <
1 7 3 4727.37 3970.68 183.75 o
2 7 3 48719.92 47452.67 1111.72 o
3 7 3 661.62 401.34 72.66 o
4 7 3 6640.10 6559.46 219.16 o
5 7 3 484.02 674.61 73.71 o
6 7 3 1782.91 1906.74 142.65 o
7 7 3 2295.08 2402.86 160.57 o
8 7 3 3716.25 3727.47 258.52 o
9 7 3 24672.85 24697.34 1088.69 o
10 7 3 300.03 469.93 147.70 o
11 7 3 47.95 22.93 139.38 <
-9 8 3 1838.35 1432.18 341.51 o
-8 8 3 1120.25 1259.78 317.68 o
-7 8 3 20680.60 22601.46 1041.71 o
-6 8 3 33.90 146.67 151.10 <
-5 8 3 1496.09 1071.58 194.22 o
-4 8 3 7180.26 7512.85 394.39 o
-3 8 3 5909.92 6209.82 293.81 o
-2 8 3 26693.56 27365.72 678.69 o
-1 8 3 472.82 537.60 117.47 o
0 8 3 54.05 42.73 84.93 <
1 8 3 1068.35 1340.99 134.88 o
2 8 3 6266.08 6142.90 249.06 o
3 8 3 15538.87 16777.38 458.60 o
4 8 3 33989.56 33255.89 811.74 o
5 8 3 11238.77 12358.03 353.43 o
6 8 3 7952.13 8045.71 300.56 o
7 8 3 4546.34 4467.17 231.12 o
8 8 3 5340.05 5563.65 317.84 o
9 8 3 10210.84 10157.87 453.78 o
10 8 3 4234.03 4331.31 319.56 o
11 8 3 683.37 490.93 242.21 <
-9 9 3 2.63 195.92 408.51 <
-8 9 3 427.38 683.23 424.31 <
-7 9 3 1536.04 1698.22 433.47 o
-6 9 3 11858.60 12983.67 700.10 o
-5 9 3 454.29 648.84 180.25 o
-4 9 3 114.91 5.73 133.64 <
-3 9 3 11867.48 11981.16 415.00 o
-2 9 3 10766.55 9888.91 362.06 o
-1 9 3 2518.62 2455.83 202.96 o
0 9 3 18384.88 15324.19 519.68 o
1 9 3 11387.48 8996.98 356.47 o
2 9 3 1573.68 1734.29 163.48 o
3 9 3 5680.23 5445.79 227.07 o
4 9 3 282.55 572.82 99.77 o
5 9 3 20850.12 21451.72 565.39 o
6 9 3 981.92 1055.43 136.97 o
7 9 3 2295.91 2761.00 197.53 o
8 9 3 13577.50 13745.11 555.08 o
9 9 3 8802.43 7949.84 418.78 o
10 9 3 1161.85 937.39 266.89 o
-8 10 3 2370.36 3345.85 631.59 o
-7 10 3 7904.08 8531.87 873.46 o
-6 10 3 361.09 65.38 206.04 <
-5 10 3 694.79 876.91 230.75 o
-4 10 3 70.86 179.76 183.67 <
-3 10 3 8359.45 9210.08 400.42 o
-2 10 3 1340.30 1497.86 187.46 o
-1 10 3 358.62 47.93 160.20 <
0 10 3 1500.84 908.06 176.25 o
1 10 3 9788.16 11002.62 480.99 o
2 10 3 10202.21 9501.57 434.49 o
3 10 3 290.31 277.68 114.62 <
4 10 3 34898.42 33090.05 838.96 o
5 10 3 274.13 301.39 117.48 <
6 10 3 861.97 868.51 142.97 o
7 10 3 347.47 418.08 131.28 o
8 10 3 1400.93 1135.69 248.38 o
9 10 3 9373.93 9566.70 601.02 o
10 10 3 52.36 -134.17 220.66 <
-7 11 3 8399.18 7586.52 850.64 o
-6 11 3 2814.28 3276.55 564.61 o
-5 11 3 192.71 93.52 209.97 <
-4 11 3 349.89 251.89 198.49 <
-3 11 3 1003.08 1058.55 235.41 o
-2 11 3 13455.48 14730.04 721.25 o
-1 11 3 7693.52 8848.66 509.82 o
0 11 3 5330.94 5683.88 437.88 o
1 11 3 1825.26 1805.97 216.57 o
2 11 3 5962.40 6469.33 378.52 o
3 11 3 230.38 670.26 142.23 o
4 11 3 5816.77 6907.52 331.27 o
5 11 3 20840.03 21203.86 973.67 o
6 11 3 1362.27 1178.14 204.65 o
7 11 3 22.56 140.42 197.48 <
8 11 3 1751.97 1825.86 321.49 o
9 11 3 3011.91 3347.23 414.18 o
10 11 3 147.02 247.22 246.18 <
-6 12 3 2834.59 3080.56 567.98 o
-5 12 3 1005.46 1150.21 288.53 o
-4 12 3 3.36 -56.79 199.04 <
-3 12 3 73.63 413.44 205.81 <
-2 12 3 2.52 -81.28 123.23 <
-1 12 3 2547.36 2112.98 283.90 o
0 12 3 25573.24 25939.97 1087.01 o
1 12 3 1924.43 2654.73 300.90 o
2 12 3 5906.54 6126.56 383.74 o
3 12 3 8320.33 9639.80 469.73 o
4 12 3 4099.56 4495.18 295.40 o
5 12 3 2914.06 2762.04 290.10 o
6 12 3 761.56 907.36 206.27 o
7 12 3 1931.49 1310.33 300.64 o
8 12 3 1194.83 803.28 287.20 <
9 12 3 482.06 518.59 280.52 <
10 12 3 1.76 238.64 461.39 <
-5 13 3 35.56 65.39 229.26 <
-4 13 3 6198.62 5526.59 485.27 o
-3 13 3 3153.05 2897.02 363.17 o
-2 13 3 3.92 -147.98 185.76 <
-1 13 3 8241.27 8870.99 533.87 o
0 13 3 223.87 295.93 200.58 <
1 13 3 6582.77 8781.37 515.83 o
2 13 3 271.80 272.48 187.82 <
3 13 3 1369.57 1525.46 199.70 o
4 13 3 12172.20 11734.61 579.27 o
5 13 3 1809.37 2252.21 285.04 o
6 13 3 70.87 -120.62 173.24 <
7 13 3 1915.56 1857.99 353.22 o
8 13 3 8.37 59.92 260.27 <
9 13 3 1379.68 1039.86 355.38 <
-5 14 3 332.49 426.15 362.60 <
-4 14 3 218.78 208.66 248.00 <
-3 14 3 3825.98 3732.73 414.29 o
-2 14 3 2902.37 2426.17 341.09 o
-1 14 3 1279.32 1875.99 295.00 o
0 14 3 16750.21 18262.52 861.63 o
1 14 3 348.22 398.02 198.75 <
2 14 3 170.56 120.09 169.07 <
3 14 3 100.52 359.51 184.97 <
4 14 3 1236.02 339.79 238.25 <
5 14 3 2492.05 2018.85 283.65 o
6 14 3 974.17 817.16 233.85 o
7 14 3 1106.75 1018.39 329.66 o
8 14 3 428.62 518.86 309.18 <
-4 15 3 882.44 1396.10 454.95 o
-3 15 3 579.90 711.05 293.27 <
-2 15 3 3016.39 2778.27 381.14 o
-1 15 3 23.81 112.81 229.00 <
0 15 3 2233.25 2491.46 342.24 o
1 15 3 3530.41 4187.92 411.74 o
2 15 3 1807.29 2901.68 324.87 o
3 15 3 11.03 317.32 254.01 <
4 15 3 591.31 1004.06 290.15 o
5 15 3 995.17 613.78 272.39 <
6 15 3 717.64 953.21 254.45 o
7 15 3 4571.64 3338.93 470.01 o
8 15 3 50.26 425.95 429.34 <
-2 16 3 1112.20 1578.48 497.87 o
-1 16 3 3394.78 3719.60 420.86 o
0 16 3 399.20 239.64 247.71 <
1 16 3 135.39 140.68 229.51 <
2 16 3 114.24 556.98 225.86 <
3 16 3 881.47 755.22 314.59 <
4 16 3 590.39 368.28 289.89 <
5 16 3 106.47 212.84 284.74 <
6 16 3 75.45 242.02 300.64 <
0 17 3 1815.77 1797.64 496.40 o
1 17 3 21.77 -586.18 308.72 <
2 17 3 153.79 394.15 493.14 <
3 17 3 1379.49 1265.07 567.58 <
4 17 3 72.02 438.45 522.60 <
1 18 3 20.79 -326.44 440.55 <
-4 -16 4 142.49 185.48 519.19 <
-3 -16 4 1132.63 1176.94 587.17 <
-2 -16 4 3.70 118.54 447.58 <
0 -16 4 189.95 -100.03 426.70 <
-6 -15 4 4.73 -48.72 277.72 <
-5 -15 4 321.78 -228.97 400.11 <
-4 -15 4 89.05 219.88 299.33 <
-3 -15 4 1152.44 1785.72 408.02 o
-2 -15 4 424.99 362.32 299.55 <
-1 -15 4 4187.76 4519.58 668.24 o
0 -15 4 152.71 -132.86 286.04 <
1 -15 4 233.88 -334.48 381.37 <
-7 -14 4 1042.63 1219.69 373.15 o
-6 -14 4 3.63 138.86 269.91 <
-5 -14 4 729.65 240.12 210.69 <
-4 -14 4 333.53 240.43 217.25 <
-3 -14 4 38.74 -300.12 225.61 <
-2 -14 4 10.32 233.69 283.45 <
-1 -14 4 706.46 229.71 268.78 <
0 -14 4 5733.43 7064.14 574.76 o
1 -14 4 81.67 188.35 277.97 <
2 -14 4 622.75 1097.28 335.20 o
3 -14 4 4572.02 5141.61 543.59 o
-8 -13 4 1457.63 743.54 502.98 <
-7 -13 4 1122.14 820.48 321.84 <
-6 -13 4 48.93 -234.21 225.35 <
-5 -13 4 1825.32 1817.20 288.16 o
-4 -13 4 396.43 599.36 186.76 o
-3 -13 4 1897.99 3087.41 442.77 o
-2 -13 4 1074.06 1389.22 267.17 o
-1 -13 4 7201.28 7513.37 576.45 o
0 -13 4 41.45 -230.30 212.59 <
1 -13 4 1687.15 1971.18 349.62 o
2 -13 4 22.23 -399.12 251.67 <
3 -13 4 67.38 -211.02 260.26 <
4 -13 4 5274.72 4879.05 529.12 o
5 -13 4 42.79 454.09 450.18 <
-8 -12 4 1098.67 1129.84 329.13 o
-7 -12 4 939.88 960.40 302.34 o
-6 -12 4 1916.79 1631.28 335.26 o
-5 -12 4 1174.66 951.45 236.43 o
-4 -12 4 428.38 117.21 155.24 <
-3 -12 4 942.71 1250.77 244.53 o
-2 -12 4 583.95 400.32 196.38 <
-1 -12 4 8632.79 7785.49 567.51 o
0 -12 4 9041.51 9722.58 593.08 o
1 -12 4 2192.77 2443.10 356.30 o
2 -12 4 410.56 166.18 266.73 <
3 -12 4 2019.65 1307.15 326.14 o
4 -12 4 544.75 368.81 299.79 <
5 -12 4 63.93 -362.38 264.17 <
6 -12 4 2462.73 1580.07 526.69 o
-9 -11 4 297.84 518.11 448.82 <
-8 -11 4 320.50 149.78 227.41 <
-7 -11 4 514.21 479.52 269.84 <
-6 -11 4 603.42 620.14 265.40 <
-5 -11 4 13278.29 13371.57 495.86 o
-4 -11 4 48.46 555.69 151.88 o
-3 -11 4 327.38 151.86 135.97 <
-2 -11 4 5961.97 5393.33 339.83 o
-1 -11 4 1147.54 1090.51 248.93 o
0 -11 4 2585.13 2086.66 308.09 o
1 -11 4 1739.19 1567.89 290.77 o
2 -11 4 2623.56 2734.31 365.08 o
3 -11 4 1160.19 965.00 285.91 o
4 -11 4 760.50 996.95 308.10 o
5 -11 4 9.86 145.37 280.33 <
6 -11 4 4237.80 3972.19 491.94 o
-10 -10 4 1254.67 1399.74 348.89 o
-9 -10 4 1596.49 1558.86 254.08 o
-8 -10 4 840.95 907.06 229.43 o
-7 -10 4 105.66 275.36 181.32 <
-6 -10 4 3216.30 3203.39 377.47 o
-5 -10 4 3478.05 3622.02 245.54 o
-4 -10 4 8890.25 8432.42 366.60 o
-3 -10 4 371.88 681.16 144.83 o
-2 -10 4 252.52 84.66 119.57 <
-1 -10 4 21172.82 18731.06 701.03 o
0 -10 4 88.28 147.97 186.79 <
1 -10 4 1261.63 1184.96 252.56 o
2 -10 4 318.80 -34.12 193.02 <
3 -10 4 62.77 6.51 205.29 <
4 -10 4 226.96 237.32 241.48 <
5 -10 4 2070.27 2617.63 377.93 o
6 -10 4 1217.55 888.94 311.41 <
7 -10 4 3525.21 2954.70 643.74 o
-10 -9 4 2555.61 1898.99 335.41 o
-9 -9 4 3236.58 2999.33 299.93 o
-8 -9 4 336.98 396.72 175.83 <
-7 -9 4 1859.99 2497.88 265.25 o
-6 -9 4 9432.05 9191.84 451.34 o
-5 -9 4 18171.36 16931.78 485.12 o
-4 -9 4 18.51 545.54 116.45 o
-3 -9 4 815.22 830.24 130.99 o
-2 -9 4 121.22 79.98 105.51 <
-1 -9 4 1541.95 1818.18 204.88 o
0 -9 4 5699.91 5977.90 363.49 o
1 -9 4 3000.39 3942.40 373.84 o
2 -9 4 4913.10 4484.72 408.08 o
3 -9 4 783.39 859.68 238.29 o
4 -9 4 1304.74 2133.47 317.13 o
5 -9 4 1139.78 1764.14 318.20 o
6 -9 4 15162.67 15435.39 810.26 o
7 -9 4 13.56 345.98 446.02 <
8 -9 4 284.39 -232.88 380.84 <
-10 -8 4 6929.20 8061.69 1034.00 o
-9 -8 4 3679.00 3151.41 279.85 o
-8 -8 4 265.97 294.88 152.39 <
-7 -8 4 1707.57 1934.46 222.32 o
-6 -8 4 402.34 1057.80 175.56 o
-5 -8 4 20874.52 20783.88 548.69 o
-4 -8 4 7480.88 6130.47 252.59 o
-3 -8 4 10394.66 9780.26 323.51 o
-2 -8 4 503.20 693.87 113.30 o
-1 -8 4 6578.94 6398.31 285.92 o
0 -8 4 26.06 117.76 116.71 <
1 -8 4 6371.26 5841.19 334.78 o
2 -8 4 10297.44 11508.92 591.32 o
3 -8 4 19.98 369.68 181.32 <
4 -8 4 3455.99 3586.86 368.05 o
5 -8 4 6.49 81.28 141.21 <
6 -8 4 6150.15 5652.51 483.73 o
7 -8 4 9930.03 11793.46 702.28 o
8 -8 4 1970.14 1440.95 523.18 <
-10 -7 4 4936.60 4447.77 779.76 o
-9 -7 4 14183.21 15690.11 1300.54 o
-8 -7 4 13.45 536.16 151.89 o
-7 -7 4 43.26 -40.90 107.07 <
-6 -7 4 13268.84 14000.49 443.51 o
-5 -7 4 5464.85 5551.48 214.64 o
-4 -7 4 1901.70 2366.54 130.66 o
-3 -7 4 869.51 1484.11 112.76 o
-2 -7 4 5337.48 5714.69 231.52 o
-1 -7 4 1633.96 2650.02 178.58 o
0 -7 4 224.18 453.01 100.29 o
1 -7 4 7129.60 8124.25 280.64 o
2 -7 4 36421.96 35690.74 983.46 o
3 -7 4 1957.94 1858.41 165.54 o
4 -7 4 5025.71 6163.43 283.82 o
5 -7 4 16462.40 18392.53 624.84 o
6 -7 4 4681.94 4257.17 396.19 o
7 -7 4 287.24 -10.68 195.37 <
8 -7 4 597.25 820.43 405.27 <
9 -7 4 2782.61 1972.99 529.74 o
-11 -6 4 1156.23 1215.72 520.76 <
-10 -6 4 7424.05 8069.02 1042.64 o
-9 -6 4 5401.31 5738.11 782.75 o
-8 -6 4 3287.23 4259.42 264.04 o
-7 -6 4 1131.71 1375.64 158.32 o
-6 -6 4 599.88 657.12 101.58 o
-5 -6 4 18319.66 19244.73 488.31 o
-4 -6 4 256.23 950.02 100.81 o
-3 -6 4 13688.44 13138.90 322.66 o
-2 -6 4 5559.59 6373.93 220.05 o
-1 -6 4 1613.08 963.69 109.07 o
0 -6 4 2902.66 2562.17 158.95 o
1 -6 4 29466.12 32878.27 795.56 o
2 -6 4 12112.60 12292.81 403.97 o
3 -6 4 16369.81 16070.51 474.74 o
4 -6 4 66.84 120.62 93.53 <
5 -6 4 2218.60 2519.26 178.79 o
6 -6 4 28223.72 30946.05 1022.95 o
7 -6 4 214.32 515.79 173.75 <
8 -6 4 4463.85 4595.09 636.72 o
9 -6 4 295.51 80.23 364.43 <
10 -6 4 165.17 101.86 390.24 <
-10 -5 4 10659.59 10514.15 1161.10 o
-9 -5 4 10093.73 10204.06 977.36 o
-8 -5 4 990.48 961.43 361.97 <
-7 -5 4 45.57 364.47 150.84 <
-6 -5 4 100.03 259.21 76.07 o
-5 -5 4 1321.71 1336.69 115.86 o
-4 -5 4 37.08 18.76 64.09 <
-3 -5 4 20609.25 22169.00 532.11 o
-2 -5 4 12499.09 13137.14 313.22 o
-1 -5 4 4464.83 3378.56 155.96 o
0 -5 4 1403.98 1200.68 104.40 o
1 -5 4 22666.83 24065.27 591.18 o
2 -5 4 73581.01 71287.70 1810.68 o
3 -5 4 3885.07 4463.56 173.70 o
4 -5 4 432.80 685.30 107.57 o
5 -5 4 3542.47 4189.73 272.83 o
6 -5 4 40.64 199.82 133.13 <
7 -5 4 3634.01 4228.80 296.50 o
8 -5 4 6492.88 7564.41 513.00 o
9 -5 4 6057.00 5496.76 480.36 o
10 -5 4 15.08 383.49 385.06 <
-10 -4 4 2280.71 2636.34 581.92 o
-9 -4 4 10551.29 12257.87 1074.38 o
-8 -4 4 4.56 295.44 266.78 <
-7 -4 4 11919.60 11237.71 928.77 o
-6 -4 4 51.86 202.68 59.92 o
-5 -4 4 1425.23 1839.08 101.01 o
-4 -4 4 1337.17 2040.64 93.21 o
-3 -4 4 44152.66 41459.71 846.92 o
-2 -4 4 16346.67 17217.45 417.95 o
-1 -4 4 285.88 444.13 55.48 o
0 -4 4 23659.04 20309.36 547.48 o
1 -4 4 343.79 1177.63 88.30 o
2 -4 4 22488.38 24099.82 564.16 o
3 -4 4 28559.20 27049.94 636.69 o
4 -4 4 36658.82 36920.91 926.30 o
5 -4 4 304.62 468.62 101.59 o
6 -4 4 6635.64 6527.80 309.05 o
7 -4 4 3157.49 2913.37 238.03 o
8 -4 4 4319.58 4986.20 413.42 o
9 -4 4 11595.88 11065.16 618.80 o
10 -4 4 7.75 -106.29 298.82 <
11 -4 4 43.03 -245.15 350.40 <
-9 -3 4 1706.11 1901.40 478.99 o
-8 -3 4 1378.83 2162.30 472.03 o
-7 -3 4 9784.13 10266.53 864.08 o
-6 -3 4 3688.87 3425.58 160.98 o
-5 -3 4 756.16 603.16 54.17 o
-4 -3 4 8384.15 7822.09 194.31 o
-3 -3 4 12270.17 16493.80 308.06 o
-2 -3 4 79828.60 74820.42 1491.78 o
-1 -3 4 1737.67 1830.34 88.24 o
0 -3 4 13329.72 11052.78 276.01 o
1 -3 4 70863.90 64959.82 1610.87 o
2 -3 4 3018.22 3439.52 128.24 o
3 -3 4 2209.41 2265.84 117.89 o
4 -3 4 24.44 85.71 59.40 <
5 -3 4 15389.87 15223.68 459.98 o
6 -3 4 2288.48 2855.38 181.39 o
7 -3 4 838.17 774.24 139.33 o
8 -3 4 12292.00 11585.94 580.01 o
9 -3 4 9341.13 9518.90 537.75 o
10 -3 4 1690.60 2150.78 450.88 o
11 -3 4 721.42 761.00 376.33 <
-10 -2 4 724.18 224.76 120.32 <
-9 -2 4 4169.88 4724.44 238.71 o
-8 -2 4 7802.26 7546.68 482.57 o
-7 -2 4 20289.49 18308.16 808.91 o
-6 -2 4 7975.57 9084.87 286.77 o
-5 -2 4 1607.99 1788.92 81.74 o
-4 -2 4 9524.41 9575.86 224.78 o
-3 -2 4 81739.45 80772.78 1382.57 o
-2 -2 4 1290.78 4409.27 105.44 o
-1 -2 4 9103.84 7805.95 173.96 o
0 -2 4 9382.72 9937.71 275.03 o
1 -2 4 8129.66 4863.12 122.43 o
2 -2 4 100203.25 101545.94 2146.69 o
3 -2 4 7291.61 7883.28 217.75 o
4 -2 4 38104.67 39874.92 1179.55 o
5 -2 4 561.48 693.33 111.74 o
6 -2 4 136.80 77.11 77.89 <
7 -2 4 435.22 668.38 122.16 o
8 -2 4 18837.50 18229.13 783.02 o
9 -2 4 7898.76 8303.97 473.47 o
10 -2 4 89.88 188.61 293.08 <
11 -2 4 51.98 -206.07 302.46 <
-11 -1 4 623.39 710.25 187.00 o
-10 -1 4 31.75 -34.65 151.62 <
-9 -1 4 152.30 326.42 127.13 <
-8 -1 4 7472.95 7935.70 360.10 o
-7 -1 4 24770.94 26495.09 872.80 o
-6 -1 4 7183.11 6817.65 238.33 o
-5 -1 4 5762.41 5676.98 154.57 o
-4 -1 4 1286.18 1405.14 71.60 o
-3 -1 4 55369.43 58143.47 1000.90 o
-2 -1 4 102989.30 107472.27 1829.29 o
-1 -1 4 45601.74 43366.83 757.46 o
0 -1 4 186.92 677.56 46.89 o
1 -1 4 5042.63 3743.74 100.29 o
2 -1 4 8164.55 6430.07 157.71 o
3 -1 4 833.06 676.03 50.26 o
4 -1 4 49733.59 50061.22 1051.14 o
5 -1 4 13214.92 12738.76 311.86 o
6 -1 4 78.08 55.75 65.91 <
7 -1 4 1032.08 1106.18 93.22 o
8 -1 4 6692.60 5931.20 353.22 o
9 -1 4 20213.92 20094.86 849.39 o
10 -1 4 429.12 856.96 315.17 <
11 -1 4 2028.63 1512.73 402.65 o
-11 0 4 4547.59 3769.22 337.69 o
-10 0 4 18.35 217.28 197.74 <
-9 0 4 294.22 262.58 149.52 <
-8 0 4 8226.14 7738.27 385.67 o
-7 0 4 34843.43 34464.39 1768.84 o
-6 0 4 3892.03 5214.26 220.25 o
-5 0 4 2692.92 3262.11 135.81 o
-4 0 4 37127.44 35673.31 733.07 o
-3 0 4 998.72 2408.61 73.69 o
-2 0 4 27853.89 33259.71 585.08 o
-1 0 4 669.94 433.88 32.29 o
0 0 4 126136.26 125958.45 2105.29 o
1 0 4 1234.36 1413.46 51.81 o
2 0 4 15870.16 16425.66 328.04 o
3 0 4 38561.77 41745.48 810.90 o
4 0 4 44335.45 48794.80 1020.49 o
5 0 4 20032.41 20679.30 464.47 o
6 0 4 2323.46 2763.67 119.97 o
7 0 4 3747.87 4037.50 209.87 o
8 0 4 10290.11 11153.71 395.92 o
9 0 4 2199.10 2842.86 269.37 o
10 0 4 619.57 862.88 315.41 <
11 0 4 6302.10 7511.77 667.82 o
-11 1 4 6476.88 6429.17 652.42 o
-10 1 4 316.73 403.24 234.70 <
-9 1 4 374.11 464.96 177.65 <
-8 1 4 11852.36 11490.93 548.77 o
-7 1 4 9528.79 9728.48 373.73 o
-6 1 4 21719.17 20586.04 654.76 o
-5 1 4 4404.54 3539.58 174.95 o
-4 1 4 7534.71 7829.05 181.67 o
-3 1 4 62049.46 62493.89 1080.96 o
-2 1 4 951.15 567.92 35.67 o
-1 1 4 43902.42 46030.66 741.10 o
0 1 4 3213.34 7638.85 139.92 o
1 1 4 30029.63 28596.49 493.52 o
2 1 4 1493.31 1643.65 60.91 o
3 1 4 20553.84 20727.15 419.25 o
4 1 4 51010.66 53840.16 1034.42 o
5 1 4 24061.71 24839.59 541.73 o
6 1 4 32.58 57.58 49.24 <
7 1 4 6776.31 7238.27 273.97 o
8 1 4 16600.58 16932.02 704.18 o
9 1 4 5595.07 5358.76 486.97 o
10 1 4 6553.89 6009.58 542.33 o
11 1 4 2321.43 2412.71 422.89 o
-11 2 4 5368.29 4134.07 593.77 o
-10 2 4 1406.83 1157.02 389.75 <
-9 2 4 302.37 270.65 193.02 <
-8 2 4 10349.12 9989.56 525.82 o
-7 2 4 18879.96 18576.33 646.04 o
-6 2 4 2186.09 2341.50 178.79 o
-5 2 4 971.50 1495.75 89.06 o
-4 2 4 2325.48 2315.95 105.39 o
-3 2 4 4897.72 4421.30 141.88 o
-2 2 4 38517.45 35236.75 766.37 o
-1 2 4 41006.01 41466.30 686.88 o
0 2 4 82535.34 81674.59 1216.66 o
1 2 4 4885.74 5512.48 126.28 o
2 2 4 3617.06 4114.59 89.45 o
3 2 4 12103.39 14110.93 269.73 o
4 2 4 60079.87 62815.37 1197.98 o
5 2 4 978.85 1458.75 72.91 o
6 2 4 934.19 1437.71 75.26 o
7 2 4 55.77 167.25 66.69 <
8 2 4 1159.85 1470.40 144.25 o
9 2 4 5787.61 7581.67 405.34 o
10 2 4 2894.68 2709.77 388.19 o
11 2 4 16701.83 17003.38 1088.19 o
-10 3 4 44.19 -44.81 336.07 <
-9 3 4 682.71 924.84 370.61 <
-8 3 4 135.28 563.22 196.43 <
-7 3 4 11744.68 11026.02 459.37 o
-6 3 4 4351.17 4807.13 275.58 o
-5 3 4 48528.53 46092.61 1019.92 o
-4 3 4 83.19 302.72 61.74 o
-3 3 4 1702.78 1382.96 92.41 o
-2 3 4 19742.11 17372.75 373.55 o
-1 3 4 5822.22 5635.83 141.29 o
0 3 4 37523.21 37026.52 590.76 o
1 3 4 1120.66 1387.51 67.18 o
2 3 4 3728.44 3876.22 82.94 o
3 3 4 3090.41 3511.93 88.44 o
4 3 4 14526.47 12884.46 275.38 o
5 3 4 29401.23 30004.97 666.78 o
6 3 4 26680.02 26414.65 687.77 o
7 3 4 6385.64 6535.22 267.01 o
8 3 4 4845.98 4924.29 238.36 o
9 3 4 2204.39 2041.24 216.80 o
10 3 4 2549.55 2340.69 364.05 o
11 3 4 11489.11 9643.37 715.69 o
-10 4 4 48.04 642.97 397.82 <
-9 4 4 1625.25 1439.37 419.13 o
-8 4 4 7743.26 7996.15 540.74 o
-7 4 4 1.84 944.93 182.37 o
-6 4 4 106.44 89.36 116.45 <
-5 4 4 3813.71 5086.97 193.73 o
-4 4 4 49489.14 46840.08 1162.18 o
-3 4 4 1878.85 1876.08 114.78 o
-2 4 4 497.74 728.77 55.74 o
-1 4 4 48421.88 50327.81 1090.25 o
0 4 4 19283.79 21120.46 414.60 o
1 4 4 8468.30 8970.66 237.82 o
2 4 4 25418.70 24820.55 532.49 o
3 4 4 29277.58 28039.36 584.33 o
4 4 4 2884.51 3893.30 119.67 o
5 4 4 1069.74 934.79 79.42 o
6 4 4 149.66 330.58 64.87 o
7 4 4 27597.23 29139.93 889.03 o
8 4 4 479.57 375.34 97.94 o
9 4 4 1768.87 1893.27 209.29 o
10 4 4 12546.93 12596.22 582.79 o
11 4 4 7610.43 7371.70 611.86 o
-10 5 4 222.11 293.84 366.26 <
-9 5 4 3446.37 2596.70 501.50 o
-8 5 4 809.36 1091.46 269.55 o
-7 5 4 10904.54 11046.22 629.88 o
-6 5 4 8265.17 9641.91 358.65 o
-5 5 4 25185.71 23095.37 667.04 o
-4 5 4 4346.62 4757.68 235.01 o
-3 5 4 5460.53 5325.81 231.49 o
-2 5 4 240.43 263.10 64.08 o
-1 5 4 34270.92 34653.27 715.24 o
0 5 4 7864.19 8459.83 197.96 o
1 5 4 9126.52 7679.17 243.98 o
2 5 4 778.41 912.52 63.80 o
3 5 4 20904.60 19421.21 475.97 o
4 5 4 31420.27 29597.77 621.36 o
5 5 4 136.29 144.06 48.19 <
6 5 4 37644.19 38382.13 1022.67 o
7 5 4 1234.06 1497.68 131.49 o
8 5 4 4188.33 4710.80 226.48 o
9 5 4 66.40 151.36 125.57 <
10 5 4 2544.12 2710.72 255.02 o
11 5 4 11238.73 9368.63 699.95 o
-10 6 4 3596.28 4133.71 665.02 o
-9 6 4 539.30 575.88 369.33 <
-8 6 4 895.66 1000.79 275.52 o
-7 6 4 1146.52 1949.01 307.52 o
-6 6 4 87.10 161.52 144.85 <
-5 6 4 32832.03 34523.54 1116.94 o
-4 6 4 19377.71 19696.37 589.14 o
-3 6 4 1.05 13.55 67.22 <
-2 6 4 5.64 106.03 65.65 <
-1 6 4 13710.15 12277.46 300.85 o
0 6 4 43992.16 44860.52 915.42 o
1 6 4 18532.86 17018.12 477.84 o
2 6 4 4307.62 5064.32 153.89 o
3 6 4 710.68 810.47 74.74 o
4 6 4 8227.17 8010.60 238.18 o
5 6 4 3558.67 4236.84 142.78 o
6 6 4 15363.12 16007.65 477.64 o
7 6 4 30465.59 29883.41 826.54 o
8 6 4 278.69 354.53 125.30 <
9 6 4 226.23 238.10 132.33 <
10 6 4 2608.94 2743.16 255.79 o
11 6 4 5644.27 5156.88 525.38 o
-10 7 4 751.60 720.36 431.54 <
-9 7 4 11783.86 14693.80 1163.30 o
-8 7 4 8.70 234.21 233.43 <
-7 7 4 22.02 472.07 232.65 <
-6 7 4 7082.61 7436.71 400.41 o
-5 7 4 9964.64 6945.15 453.78 o
-4 7 4 12716.69 12789.94 512.43 o
-3 7 4 430.24 468.59 103.41 o
-2 7 4 3605.67 3140.73 154.48 o
-1 7 4 797.13 918.25 87.50 o
0 7 4 607.52 957.66 97.67 o
1 7 4 7861.26 7232.56 230.42 o
2 7 4 75478.59 77659.12 1611.17 o
3 7 4 3653.76 4100.98 161.23 o
4 7 4 10380.61 10880.20 310.51 o
5 7 4 16605.27 17295.83 454.04 o
6 7 4 8994.91 8661.75 304.81 o
7 7 4 11475.99 12658.92 410.20 o
8 7 4 1762.85 2055.71 205.65 o
9 7 4 1332.33 1386.46 186.68 o
10 7 4 2716.49 2209.35 237.82 o
11 7 4 1730.09 1925.27 351.42 o
-9 8 4 3550.32 3349.43 621.35 o
-8 8 4 4931.71 5248.27 498.29 o
-7 8 4 772.91 832.87 278.40 <
-6 8 4 2156.11 1727.92 228.78 o
-5 8 4 7858.36 7737.83 420.51 o
-4 8 4 9460.17 8893.38 420.68 o
-3 8 4 877.93 714.32 125.52 o
-2 8 4 11493.81 12107.61 402.84 o
-1 8 4 21771.21 20564.96 532.92 o
0 8 4 121.48 85.97 82.84 <
1 8 4 13631.51 13780.80 388.38 o
2 8 4 1642.91 1478.58 118.44 o
3 8 4 35621.79 36538.94 883.09 o
4 8 4 179.74 202.41 76.59 <
5 8 4 943.28 1286.16 114.84 o
6 8 4 30419.94 32459.87 1047.08 o
7 8 4 5433.77 4987.94 245.58 o
8 8 4 89.50 118.01 126.35 <
9 8 4 2262.79 2528.12 240.48 o
10 8 4 199.08 317.03 239.14 <
11 8 4 2834.08 2468.79 377.25 o
-8 9 4 731.09 775.06 397.43 <
-7 9 4 7.32 367.60 355.36 <
-6 9 4 184.75 145.88 220.39 <
-5 9 4 7436.57 8347.90 445.01 o
-4 9 4 90.99 224.04 154.75 <
-3 9 4 4.33 283.19 107.86 <
-2 9 4 1439.73 1403.79 158.81 o
-1 9 4 10773.01 11469.15 400.40 o
0 9 4 13712.45 12580.28 503.57 o
1 9 4 6184.01 7114.45 295.84 o
2 9 4 47393.00 45088.66 1220.83 o
3 9 4 84.07 164.65 87.01 <
4 9 4 1907.71 1963.10 148.36 o
5 9 4 423.92 281.83 88.82 o
6 9 4 5181.97 5423.26 262.50 o
7 9 4 6671.38 7007.09 297.38 o
8 9 4 802.85 681.03 216.42 o
9 9 4 1427.26 1540.00 280.66 o
10 9 4 596.06 434.18 252.90 <
-8 10 4 282.09 408.19 394.39 <
-7 10 4 189.09 -379.55 329.02 <
-6 10 4 44.27 55.49 302.73 <
-5 10 4 1750.39 2087.22 305.87 o
-4 10 4 5726.28 5712.49 459.91 o
-3 10 4 21513.36 23332.48 773.93 o
-2 10 4 1442.32 1612.08 195.52 o
-1 10 4 1455.26 1043.47 174.43 o
0 10 4 10214.65 9891.06 565.16 o
1 10 4 357.89 358.94 147.69 <
2 10 4 12168.03 11933.23 493.92 o
3 10 4 16396.86 15007.38 506.10 o
4 10 4 5732.59 5649.28 281.13 o
5 10 4 607.43 993.11 138.82 o
6 10 4 2235.50 2193.45 223.30 o
7 10 4 2888.10 2743.09 253.42 o
8 10 4 1666.02 2113.34 310.31 o
9 10 4 7309.44 6201.57 514.87 o
10 10 4 42.12 328.26 252.97 <
-7 11 4 3092.94 2503.67 541.11 o
-6 11 4 562.90 418.56 362.82 <
-5 11 4 33.36 257.40 219.10 <
-4 11 4 5.96 42.73 195.13 <
-3 11 4 11.82 -10.16 186.02 <
-2 11 4 29427.35 27075.25 880.22 o
-1 11 4 6.50 -105.25 164.39 <
0 11 4 7083.01 5933.65 482.70 o
1 11 4 16532.60 16555.06 806.21 o
2 11 4 4062.59 3786.26 299.55 o
3 11 4 2543.89 2527.99 214.16 o
4 11 4 389.60 467.30 132.06 o
5 11 4 1442.07 1415.28 202.81 o
6 11 4 2517.40 1903.03 229.26 o
7 11 4 90.75 -89.36 148.23 <
8 11 4 128.71 452.77 235.76 <
9 11 4 7664.56 7559.60 598.62 o
10 11 4 1654.98 2094.28 412.61 o
-6 12 4 3832.20 3817.43 608.02 o
-5 12 4 4391.46 5244.17 476.84 o
-4 12 4 896.49 1356.00 290.63 o
-3 12 4 10446.83 10238.17 592.70 o
-2 12 4 146.11 240.19 149.01 <
-1 12 4 7715.87 7101.46 492.97 o
0 12 4 657.65 511.78 212.26 <
1 12 4 249.17 582.47 211.00 <
2 12 4 13683.15 13630.14 711.35 o
3 12 4 147.52 48.72 127.65 <
4 12 4 1027.11 728.09 156.50 o
5 12 4 3895.35 3722.75 324.29 o
6 12 4 1183.48 1142.83 218.20 o
7 12 4 401.69 481.89 186.24 <
8 12 4 6167.25 6103.54 550.99 o
9 12 4 2259.09 1915.43 359.92 o
-5 13 4 2092.68 1516.09 318.57 o
-4 13 4 3104.37 2660.07 365.78 o
-3 13 4 7022.71 7727.97 533.91 o
-2 13 4 12924.92 12438.87 674.37 o
-1 13 4 1290.98 1460.69 268.96 o
0 13 4 41.10 295.17 193.05 <
1 13 4 368.52 969.78 242.51 o
2 13 4 2551.10 2788.00 289.37 o
3 13 4 218.11 89.61 161.25 <
4 13 4 5493.93 3829.68 350.82 o
5 13 4 457.17 359.97 189.36 <
6 13 4 953.02 1059.10 237.50 o
7 13 4 537.32 411.79 267.23 <
8 13 4 1181.85 1613.07 358.29 o
-5 14 4 199.38 454.06 368.09 <
-4 14 4 1970.07 2607.82 369.87 o
-3 14 4 33.05 -22.40 226.65 <
-2 14 4 4150.36 4053.33 417.87 o
-1 14 4 1234.71 1040.21 263.24 o
0 14 4 4130.87 3178.12 366.39 o
1 14 4 68.10 176.89 192.78 <
2 14 4 560.66 557.64 195.34 <
3 14 4 712.61 703.19 202.88 o
4 14 4 7420.90 5143.93 511.23 o
5 14 4 4740.62 4323.09 386.30 o
6 14 4 1203.65 1143.34 267.15 o
7 14 4 651.54 564.65 390.67 <
8 14 4 1083.11 634.32 410.12 <
-4 15 4 486.01 390.18 359.18 <
-3 15 4 4059.48 4746.60 475.60 o
-2 15 4 211.20 165.94 230.54 <
-1 15 4 17.41 7.29 215.45 <
0 15 4 2032.95 2447.18 344.35 o
1 15 4 66.22 -335.81 199.82 <
2 15 4 558.47 601.40 209.93 <
3 15 4 1279.95 1193.81 246.05 o
4 15 4 467.24 526.41 278.44 <
5 15 4 5308.02 4317.18 475.07 o
6 15 4 281.13 -80.49 340.72 <
7 15 4 1776.54 2520.81 580.74 o
8 15 4 2860.89 1256.08 520.07 <
-1 16 4 243.04 518.13 265.19 <
0 16 4 731.16 216.16 247.68 <
1 16 4 1772.99 1236.48 286.86 o
2 16 4 722.72 899.04 243.25 o
3 16 4 2.07 262.09 283.97 <
4 16 4 7449.24 7687.49 820.39 o
5 16 4 39.67 183.41 355.09 <
6 16 4 154.26 -111.50 338.14 <
0 17 4 1838.86 2207.59 546.11 o
1 17 4 76.26 -305.59 368.89 <
-2 -16 5 58.46 117.75 528.59 <
-1 -16 5 130.91 359.50 528.84 <
-5 -15 5 28.78 351.71 510.63 <
-4 -15 5 231.06 534.54 356.36 <
-3 -15 5 1088.75 982.72 278.36 o
-2 -15 5 1450.64 2153.60 448.06 o
0 -15 5 52.32 231.34 439.50 <
1 -15 5 3635.53 4866.28 751.36 o
-6 -14 5 41.66 59.14 269.12 <
-5 -14 5 809.24 180.74 295.58 <
-4 -14 5 2172.49 2070.90 311.53 o
-3 -14 5 3496.97 3275.46 367.26 o
-2 -14 5 20.88 -68.52 269.38 <
-1 -14 5 188.55 -292.81 265.45 <
0 -14 5 3.46 80.76 271.47 <
1 -14 5 369.54 17.19 288.09 <
2 -14 5 2295.25 3429.78 480.67 o
-7 -13 5 740.29 1099.03 356.53 o
-6 -13 5 156.02 -139.63 252.43 <
-5 -13 5 165.85 192.51 214.66 <
-4 -13 5 49.02 145.37 174.55 <
-3 -13 5 5784.22 5205.72 429.76 o
-2 -13 5 1869.32 1918.43 388.63 o
-1 -13 5 2758.96 1827.10 343.72 o
0 -13 5 238.64 540.53 276.13 <
1 -13 5 1160.97 1424.84 338.76 o
2 -13 5 226.30 343.60 303.22 <
3 -13 5 760.07 1082.37 345.60 o
4 -13 5 2124.83 1650.87 396.12 o
-8 -12 5 1873.82 1532.60 371.18 o
-7 -12 5 4864.14 4334.59 509.46 o
-6 -12 5 75.58 211.54 274.85 <
-5 -12 5 80.26 -178.98 189.14 <
-4 -12 5 4616.08 4112.00 306.51 o
-3 -12 5 917.11 789.06 184.64 o
-2 -12 5 842.08 919.04 226.31 o
-1 -12 5 101.66 -127.13 209.45 <
0 -12 5 1794.77 257.19 252.24 <
1 -12 5 577.34 387.56 258.63 <
2 -12 5 315.85 13.28 251.89 <
3 -12 5 761.00 711.51 300.02 <
4 -12 5 6902.37 6161.43 588.98 o
5 -12 5 127.28 -267.55 294.38 <
6 -12 5 486.89 548.28 483.69 <
-9 -11 5 217.82 1082.11 543.14 <
-8 -11 5 2871.13 2407.12 399.63 o
-7 -11 5 2030.90 2161.37 373.76 o
-6 -11 5 1694.05 2397.32 378.25 o
-5 -11 5 1016.00 1421.03 193.22 o
-4 -11 5 218.22 260.50 143.54 <
-3 -11 5 7732.28 6802.78 405.23 o
-2 -11 5 42.61 185.49 143.81 <
-1 -11 5 3018.35 1860.43 298.93 o
0 -11 5 983.68 662.48 236.97 <
1 -11 5 293.82 168.02 245.90 <
2 -11 5 139.12 110.72 224.04 <
3 -11 5 3679.89 4073.99 458.79 o
4 -11 5 1204.76 591.59 291.89 <
5 -11 5 3034.23 3531.16 468.03 o
6 -11 5 12.29 71.64 318.88 <
-9 -10 5 65.33 406.67 290.48 <
-8 -10 5 7142.52 7867.34 618.50 o
-7 -10 5 4338.57 3793.99 427.71 o
-6 -10 5 596.66 776.42 245.09 o
-5 -10 5 8.22 99.26 121.14 <
-4 -10 5 486.28 635.80 144.82 o
-3 -10 5 767.03 968.56 137.77 o
-2 -10 5 395.15 321.95 138.05 <
-1 -10 5 6553.89 6585.99 390.12 o
0 -10 5 4063.20 3370.04 364.31 o
1 -10 5 683.12 617.77 228.67 <
2 -10 5 1621.19 872.63 256.17 o
3 -10 5 6753.67 5984.89 515.28 o
4 -10 5 10293.61 10057.70 665.34 o
5 -10 5 847.78 575.28 270.06 <
6 -10 5 302.92 256.06 289.40 <
7 -10 5 312.66 39.85 455.33 <
-10 -9 5 0.38 125.83 248.02 <
-9 -9 5 351.26 288.36 189.89 <
-8 -9 5 1943.95 2255.69 258.47 o
-7 -9 5 6881.15 6924.69 417.86 o
-6 -9 5 14.60 2.87 146.15 <
-5 -9 5 7921.19 7682.57 306.30 o
-4 -9 5 415.80 703.03 135.19 o
-3 -9 5 2875.55 2375.41 166.77 o
-2 -9 5 231.78 428.00 125.30 o
-1 -9 5 16010.25 16156.95 608.62 o
0 -9 5 3817.24 4251.42 307.39 o
1 -9 5 95.64 656.24 213.36 o
2 -9 5 3325.55 3562.89 368.07 o
3 -9 5 214.52 283.95 205.27 <
4 -9 5 6843.69 7158.23 554.99 o
5 -9 5 3814.87 4415.47 450.96 o
6 -9 5 6170.87 6039.24 534.90 o
7 -9 5 227.38 -298.27 375.90 <
-10 -8 5 396.73 624.62 231.30 <
-9 -8 5 87.99 141.46 165.43 <
-8 -8 5 6151.07 6327.39 378.51 o
-7 -8 5 1124.91 1270.71 193.47 o
-6 -8 5 695.61 376.34 147.67 <
-5 -8 5 4203.98 4155.07 211.13 o
-4 -8 5 1304.22 1258.62 131.49 o
-3 -8 5 439.01 552.98 97.68 o
-2 -8 5 919.58 855.72 124.74 o
-1 -8 5 9295.92 9275.56 395.01 o
0 -8 5 27419.72 26969.88 894.09 o
1 -8 5 517.90 686.58 152.89 o
2 -8 5 2137.77 2786.64 309.71 o
3 -8 5 22473.14 20101.54 903.97 o
4 -8 5 410.41 974.97 233.13 o
5 -8 5 90.40 15.89 139.38 <
6 -8 5 5.87 333.21 224.31 <
7 -8 5 3101.94 3757.40 424.83 o
8 -8 5 1061.10 1512.65 530.69 <
-10 -7 5 14.77 -58.10 338.42 <
-9 -7 5 318.26 630.12 162.81 o
-8 -7 5 1599.46 1632.82 203.06 o
-7 -7 5 3411.18 3625.26 261.42 o
-6 -7 5 3731.89 4961.99 247.33 o
-5 -7 5 16473.89 15450.48 424.20 o
-4 -7 5 1393.08 1942.24 138.51 o
-3 -7 5 807.98 796.90 94.01 o
-2 -7 5 7713.58 8420.01 252.54 o
-1 -7 5 34853.47 34476.21 932.49 o
0 -7 5 654.32 1257.16 153.40 o
1 -7 5 6617.47 7002.21 332.66 o
2 -7 5 1143.38 1212.08 208.05 o
3 -7 5 31.19 170.38 159.18 <
4 -7 5 19952.01 21850.22 944.54 o
5 -7 5 2647.05 2983.27 238.09 o
6 -7 5 9533.83 10200.98 579.98 o
7 -7 5 161.09 -51.84 195.90 <
8 -7 5 44.11 100.30 380.88 <
9 -7 5 0.09 51.32 380.63 <
-10 -6 5 2134.40 2157.86 579.61 o
-9 -6 5 180.26 195.12 126.61 <
-8 -6 5 572.84 583.43 148.46 o
-7 -6 5 21.36 -83.11 139.64 <
-6 -6 5 5210.76 4912.75 276.01 o
-5 -6 5 18365.70 18924.83 546.97 o
-4 -6 5 4584.21 4917.75 168.19 o
-3 -6 5 1422.36 1693.81 109.08 o
-2 -6 5 478.52 1029.62 92.99 o
-1 -6 5 41524.04 41380.01 1080.20 o
0 -6 5 27101.32 26673.83 733.17 o
1 -6 5 15399.54 15702.15 432.01 o
2 -6 5 886.72 1414.57 143.49 o
3 -6 5 3564.62 3064.24 191.94 o
4 -6 5 594.73 411.26 110.95 o
5 -6 5 115.69 178.19 107.33 <
6 -6 5 16055.31 17579.97 798.00 o
7 -6 5 4370.48 5261.43 426.67 o
8 -6 5 0.96 269.38 346.50 <
9 -6 5 533.68 412.31 398.25 <
-10 -5 5 3064.86 3488.39 697.21 o
-9 -5 5 4630.14 5349.42 771.59 o
-8 -5 5 224.16 374.08 174.01 <
-7 -5 5 27.17 56.27 140.16 <
-6 -5 5 7732.79 8055.51 338.23 o
-5 -5 5 36703.95 36214.66 944.51 o
-4 -5 5 1610.50 1819.39 131.20 o
-3 -5 5 802.06 726.84 79.95 o
-2 -5 5 29151.47 25952.50 568.02 o
-1 -5 5 48.15 1018.64 87.01 o
0 -5 5 8684.17 9713.99 314.11 o
1 -5 5 683.62 523.48 83.60 o
2 -5 5 34590.91 37495.59 994.47 o
3 -5 5 4294.95 4480.71 217.60 o
4 -5 5 955.27 961.16 121.09 o
5 -5 5 9968.05 9690.64 331.38 o
6 -5 5 14509.09 14864.04 572.38 o
7 -5 5 7743.46 7155.27 392.51 o
8 -5 5 211.66 562.94 243.83 <
9 -5 5 1545.21 1805.46 453.77 o
10 -5 5 4276.62 4472.44 654.15 o
-10 -4 5 5211.59 6437.80 904.17 o
-9 -4 5 6087.79 7389.65 909.03 o
-8 -4 5 40.34 -44.81 94.31 <
-7 -4 5 143.65 191.21 95.61 <
-6 -4 5 10178.98 10211.34 283.64 o
-5 -4 5 15810.96 17301.76 432.00 o
-4 -4 5 23844.79 23258.57 557.36 o
-3 -4 5 8560.12 8458.65 239.43 o
-2 -4 5 996.93 1382.44 92.96 o
-1 -4 5 59877.71 58309.78 1400.88 o
0 -4 5 8104.28 8159.60 231.42 o
1 -4 5 9738.07 8617.13 254.04 o
2 -4 5 1983.67 1916.85 115.04 o
3 -4 5 8468.22 8811.10 259.94 o
4 -4 5 78.54 463.72 87.79 o
5 -4 5 7770.15 8045.48 347.81 o
6 -4 5 17069.27 15812.65 573.98 o
7 -4 5 8526.09 8752.38 389.51 o
8 -4 5 255.81 227.15 205.79 <
9 -4 5 856.33 579.70 246.36 <
10 -4 5 7205.88 8313.41 877.32 o
-9 -3 5 10527.82 9468.03 406.27 o
-8 -3 5 942.96 1331.50 154.43 o
-7 -3 5 1207.07 1583.89 160.39 o
-6 -3 5 16024.18 15401.59 392.19 o
-5 -3 5 33207.84 33065.29 764.71 o
-4 -3 5 3899.98 4384.21 154.45 o
-3 -3 5 2069.06 3037.16 111.65 o
-2 -3 5 2623.59 2536.70 104.07 o
-1 -3 5 19.38 141.99 48.20 <
0 -3 5 16657.26 16492.39 440.06 o
1 -3 5 35340.64 36429.95 750.42 o
2 -3 5 38794.72 39502.18 879.10 o
3 -3 5 98.70 26.05 53.93 <
4 -3 5 451.13 552.98 87.26 o
5 -3 5 6325.82 6910.61 303.36 o
6 -3 5 30986.77 32808.69 1026.95 o
7 -3 5 882.29 952.62 122.66 o
8 -3 5 17.77 168.82 169.34 <
9 -3 5 164.23 303.23 206.06 <
10 -3 5 2.72 635.95 356.14 <
11 -3 5 2217.90 1361.09 436.17 o
-11 -2 5 421.99 202.65 265.68 <
-10 -2 5 11588.42 11489.88 481.96 o
-9 -2 5 11478.52 11065.68 452.99 o
-8 -2 5 602.16 507.63 127.36 o
-7 -2 5 729.06 862.57 124.23 o
-6 -2 5 45.85 621.34 75.81 o
-5 -2 5 39978.11 41606.84 943.81 o
-4 -2 5 6944.15 6779.43 180.18 o
-3 -2 5 68328.14 65503.90 1213.10 o
-2 -2 5 1577.81 1559.28 79.40 o
-1 -2 5 2062.28 2438.75 90.30 o
0 -2 5 17129.46 15763.21 416.93 o
1 -2 5 6613.12 7046.10 167.20 o
2 -2 5 47156.95 45736.91 896.94 o
3 -2 5 2592.92 3210.38 119.94 o
4 -2 5 476.84 334.18 62.77 o
5 -2 5 1969.58 2335.72 146.28 o
6 -2 5 12254.51 11837.11 363.12 o
7 -2 5 12826.13 12545.18 387.15 o
8 -2 5 8008.03 8008.87 451.12 o
9 -2 5 840.16 774.77 212.25 o
10 -2 5 2395.51 2965.91 503.82 o
11 -2 5 712.52 340.39 355.50 <
-11 -1 5 1115.15 582.23 329.13 <
-10 -1 5 8489.24 7996.15 394.44 o
-9 -1 5 18427.95 18580.08 726.37 o
-8 -1 5 49.81 101.08 89.88 <
-7 -1 5 1262.26 1596.87 164.04 o
-6 -1 5 13890.85 13396.98 404.49 o
-5 -1 5 232.02 1569.76 87.53 o
-4 -1 5 788.52 797.42 64.85 o
-3 -1 5 7213.23 9929.91 214.91 o
-2 -1 5 57941.53 56468.45 1136.44 o
-1 -1 5 1776.36 1804.80 75.48 o
0 -1 5 51.22 67.74 33.35 <
1 -1 5 71709.31 76294.59 1360.23 o
2 -1 5 59088.43 63762.82 1145.73 o
3 -1 5 4304.21 3961.09 111.52 o
4 -1 5 8756.29 8532.08 231.88 o
5 -1 5 15385.29 14787.75 360.93 o
6 -1 5 5295.70 6120.33 216.47 o
7 -1 5 99.70 189.13 82.58 <
8 -1 5 69.22 341.54 158.66 <
9 -1 5 12854.63 11696.25 584.79 o
10 -1 5 61.26 -53.67 242.28 <
11 -1 5 257.15 444.93 332.91 <
-11 0 5 1204.70 1242.78 421.03 <
-10 0 5 8267.88 7744.70 422.24 o
-9 0 5 5093.77 6007.97 331.13 o
-8 0 5 2138.59 2387.72 200.67 o
-7 0 5 8011.38 7992.80 366.48 o
-6 0 5 523.38 811.86 99.24 o
-5 0 5 24501.78 24317.44 668.64 o
-4 0 5 23811.49 23722.62 557.73 o
-3 0 5 37397.92 36682.98 753.77 o
-2 0 5 7665.98 9972.69 233.01 o
-1 0 5 5169.62 4808.31 110.94 o
0 0 5 4827.67 4804.46 119.53 o
1 0 5 37512.78 39335.58 627.90 o
2 0 5 46745.60 52334.55 1091.35 o
3 0 5 11219.48 11454.25 221.19 o
4 0 5 1930.50 2477.53 104.89 o
5 0 5 5142.23 4779.66 158.00 o
6 0 5 32870.28 33554.63 734.97 o
7 0 5 559.68 655.31 97.67 o
8 0 5 20324.15 20372.96 844.91 o
9 0 5 1439.72 1383.00 224.17 o
10 0 5 2030.45 2184.81 407.34 o
11 0 5 0.66 -26.83 276.42 <
-10 1 5 7164.45 6336.13 401.17 o
-9 1 5 6376.80 7121.39 401.33 o
-8 1 5 4985.53 5550.51 327.51 o
-7 1 5 447.39 1531.32 142.22 o
-6 1 5 3339.59 3739.10 189.62 o
-5 1 5 1154.34 1201.39 108.84 o
-4 1 5 146.48 589.79 58.87 o
-3 1 5 67546.80 69410.55 1256.51 o
-2 1 5 45398.43 47252.17 864.28 o
-1 1 5 1785.25 2474.74 74.70 o
0 1 5 180.57 81.54 25.79 o
1 1 5 41167.20 39983.32 636.51 o
2 1 5 90602.48 99739.52 2034.53 o
3 1 5 12026.12 11892.65 265.62 o
4 1 5 2129.93 3112.52 110.60 o
5 1 5 29.40 150.84 49.24 o
6 1 5 3019.61 3264.84 125.91 o
7 1 5 3206.91 2640.61 154.78 o
8 1 5 17789.28 17400.74 598.39 o
9 1 5 21373.05 21477.92 889.17 o
10 1 5 113.72 140.42 256.08 <
11 1 5 615.75 552.68 304.47 <
-10 2 5 226.00 238.88 297.23 <
-9 2 5 4792.01 5572.60 396.17 o
-8 2 5 986.00 896.07 184.11 o
-7 2 5 29533.91 31400.21 980.62 o
-6 2 5 27.86 579.66 109.94 o
-5 2 5 112.22 245.66 57.83 o
-4 2 5 17044.01 17817.20 465.43 o
-3 2 5 21107.65 22356.49 510.21 o
-2 2 5 36381.73 38474.42 713.09 o
-1 2 5 1316.58 1511.04 57.28 o
0 2 5 8275.35 6783.68 134.62 o
1 2 5 134.89 86.23 27.35 o
2 2 5 18858.53 18773.06 363.40 o
3 2 5 13623.99 14180.68 306.01 o
4 2 5 73744.61 73919.50 1412.24 o
5 2 5 1300.39 1573.35 83.58 o
6 2 5 4410.34 4515.69 139.86 o
7 2 5 16703.12 16460.67 460.06 o
8 2 5 7694.53 7301.15 318.27 o
9 2 5 17822.07 17119.81 1067.39 o
10 2 5 855.73 1229.72 324.23 o
11 2 5 351.17 194.32 286.27 <
-10 3 5 2414.42 2017.84 449.16 o
-9 3 5 288.88 623.88 321.19 <
-8 3 5 2524.07 2344.36 277.40 o
-7 3 5 10022.94 9932.64 412.30 o
-6 3 5 18266.64 19644.01 660.11 o
-5 3 5 1997.85 2320.86 123.63 o
-4 3 5 9655.66 9675.71 266.01 o
-3 3 5 22866.87 23600.67 545.57 o
-2 3 5 31280.41 33544.26 744.63 o
-1 3 5 4382.90 2986.28 88.89 o
0 3 5 25562.55 25592.22 403.94 o
1 3 5 64678.51 61273.88 1036.05 o
2 3 5 4.90 199.82 34.91 o
3 3 5 11543.32 11662.63 259.74 o
4 3 5 730.42 1352.41 75.52 o
5 3 5 41334.64 42101.35 825.77 o
6 3 5 56.75 77.90 47.15 <
7 3 5 12.68 181.85 75.03 <
8 3 5 31847.17 33838.12 1046.35 o
9 3 5 8725.15 7749.66 607.96 o
10 3 5 668.24 653.20 273.73 <
11 3 5 1168.42 1166.78 340.58 o
-10 4 5 17.35 3.91 333.73 <
-9 4 5 1572.40 1223.07 424.87 <
-8 4 5 13977.93 12088.50 947.90 o
-7 4 5 16813.14 15962.56 604.87 o
-6 4 5 3755.01 3549.12 251.48 o
-5 4 5 148.11 424.89 80.24 o
-4 4 5 1228.31 1379.17 107.01 o
-3 4 5 34075.42 32381.85 738.77 o
-2 4 5 2759.36 3487.66 110.83 o
-1 4 5 4229.75 3150.35 108.14 o
0 4 5 19952.24 19619.78 422.75 o
1 4 5 24303.24 23339.33 490.93 o
2 4 5 48576.92 50205.48 919.99 o
3 4 5 19828.99 18840.44 372.59 o
4 4 5 55209.06 56777.97 1227.04 o
5 4 5 73.45 307.67 60.70 o
6 4 5 4342.39 4315.95 151.31 o
7 4 5 347.11 192.24 76.32 <
8 4 5 10298.01 10001.80 385.29 o
9 4 5 12059.99 13124.99 601.84 o
10 4 5 289.77 398.81 246.43 <
11 4 5 668.53 979.53 322.17 o
-10 5 5 929.97 622.38 423.95 <
-9 5 5 345.90 334.20 354.26 <
-8 5 5 2808.47 2941.72 368.69 o
-7 5 5 22281.58 21863.01 991.63 o
-6 5 5 4598.07 4592.82 304.16 o
-5 5 5 87.96 36.47 90.14 <
-4 5 5 20.12 38.30 81.02 <
-3 5 5 17106.49 16906.07 508.57 o
-2 5 5 27267.36 26708.08 620.62 o
-1 5 5 56859.19 56011.75 1122.80 o
0 5 5 3432.94 4315.21 127.69 o
1 5 5 59.23 87.27 42.20 <
2 5 5 12781.04 12130.22 282.35 o
3 5 5 67.10 174.29 44.81 o
4 5 5 31173.45 31400.28 745.90 o
5 5 5 30239.58 29261.79 703.66 o
6 5 5 3821.12 3848.21 164.35 o
7 5 5 1252.04 1507.04 142.16 o
8 5 5 4828.92 4905.42 245.65 o
9 5 5 7617.40 7927.06 425.25 o
10 5 5 967.55 706.75 262.75 <
11 5 5 5482.99 5442.59 583.11 o
-10 6 5 13.91 422.05 391.83 <
-9 6 5 768.26 640.15 406.80 <
-8 6 5 6298.63 6742.36 550.46 o
-7 6 5 10704.18 9410.20 612.59 o
-6 6 5 3082.50 3946.79 386.59 o
-5 6 5 4999.47 4133.62 286.16 o
-4 6 5 3347.62 3225.31 206.78 o
-3 6 5 115.85 329.55 101.34 o
-2 6 5 2352.22 2733.09 147.80 o
-1 6 5 236.28 263.62 58.35 o
0 6 5 98805.31 103862.02 2214.96 o
1 6 5 269.09 136.24 49.49 <
2 6 5 6417.54 7196.07 217.61 o
3 6 5 46869.46 46031.57 1068.66 o
4 6 5 14303.14 14148.76 374.30 o
5 6 5 9012.18 10239.90 293.88 o
6 6 5 168.16 308.70 70.60 o
7 6 5 1054.99 1213.72 126.29 o
8 6 5 6416.55 6627.65 294.56 o
9 6 5 473.38 815.27 169.83 o
10 6 5 209.82 468.64 252.43 <
11 6 5 8053.82 8868.43 701.51 o
-10 7 5 656.82 -171.89 381.81 <
-9 7 5 41.03 -268.86 326.95 <
-8 7 5 4260.96 3241.86 406.40 o
-7 7 5 4422.98 4463.12 449.80 o
-6 7 5 2789.61 2665.40 346.57 o
-5 7 5 6305.64 6323.52 373.79 o
-4 7 5 7915.83 8021.15 381.01 o
-3 7 5 20551.38 21715.85 611.25 o
-2 7 5 6246.10 6504.50 235.83 o
-1 7 5 29798.49 30891.03 808.82 o
0 7 5 4786.49 5283.74 188.43 o
1 7 5 36159.83 36212.70 759.72 o
2 7 5 726.17 910.21 86.98 o
3 7 5 1584.62 2085.96 123.39 o
4 7 5 39820.96 41295.37 975.52 o
5 7 5 2780.93 2609.59 142.84 o
6 7 5 1261.21 1136.00 120.81 o
7 7 5 6706.13 6803.97 275.04 o
8 7 5 3157.90 2589.00 244.02 o
9 7 5 1306.53 1488.80 297.86 o
10 7 5 7782.28 6816.66 579.13 o
11 7 5 3560.78 3225.83 452.29 o
-9 8 5 43.12 665.37 438.98 <
-8 8 5 1031.67 1259.83 318.73 o
-7 8 5 4964.09 5078.81 486.59 o
-6 8 5 2265.28 2092.71 334.43 o
-5 8 5 909.38 750.00 192.45 o
-4 8 5 4140.56 3729.45 289.92 o
-3 8 5 6070.21 7429.15 297.18 o
-2 8 5 9822.27 10549.14 368.44 o
-1 8 5 34773.00 30873.49 938.33 o
0 8 5 37022.97 35384.65 918.96 o
1 8 5 917.39 728.36 95.05 o
2 8 5 2484.21 2228.94 154.30 o
3 8 5 4343.63 4117.44 181.46 o
4 8 5 10645.92 10863.62 321.65 o
5 8 5 1755.17 1869.02 133.02 o
6 8 5 7497.83 7855.27 298.55 o
7 8 5 1804.45 1597.00 152.02 o
8 8 5 1404.41 1423.64 249.16 o
9 8 5 1252.27 1807.80 318.70 o
10 8 5 3415.66 3720.11 452.59 o
11 8 5 12835.06 12707.98 884.47 o
-8 9 5 8.48 75.29 361.61 <
-7 9 5 1506.77 1708.65 449.10 o
-6 9 5 239.24 451.18 251.64 <
-5 9 5 28636.34 28175.31 989.68 o
-4 9 5 46.15 357.44 162.30 <
-3 9 5 208.36 200.33 105.76 <
-2 9 5 14271.21 15237.48 489.55 o
-1 9 5 159.05 193.82 115.14 <
0 9 5 18746.36 18543.60 546.49 o
1 9 5 3748.71 3611.60 250.43 o
2 9 5 5366.92 4423.39 233.08 o
3 9 5 2522.70 2253.68 168.88 o
4 9 5 2485.12 2599.06 160.55 o
5 9 5 2598.05 2770.70 193.59 o
6 9 5 15311.54 15506.65 583.29 o
7 9 5 7794.80 7591.96 370.17 o
8 9 5 870.05 1021.12 234.64 o
9 9 5 1760.48 2091.89 316.54 o
10 9 5 2289.94 2126.99 373.97 o
-8 10 5 857.18 702.62 399.23 <
-7 10 5 157.95 478.03 365.49 <
-6 10 5 564.67 527.69 386.52 <
-5 10 5 1789.86 2046.32 315.50 o
-4 10 5 22878.76 22739.41 1023.30 o
-3 10 5 1934.26 1633.85 263.94 o
-2 10 5 291.96 428.25 140.93 o
-1 10 5 25178.99 24534.81 813.36 o
0 10 5 792.29 1044.84 160.68 o
1 10 5 339.35 365.20 135.45 <
2 10 5 3920.45 3887.07 238.46 o
3 10 5 249.50 269.09 108.89 <
4 10 5 1318.54 1363.79 154.66 o
5 10 5 2277.13 2829.70 208.46 o
6 10 5 1229.78 1361.78 187.21 o
7 10 5 15347.61 16289.78 636.10 o
8 10 5 415.76 350.08 201.87 <
9 10 5 1094.83 1338.69 290.86 o
10 10 5 6461.02 6938.37 635.03 o
-7 11 5 3488.17 3241.35 582.62 o
-6 11 5 5282.69 6886.02 788.50 o
-5 11 5 8550.60 8340.37 579.21 o
-4 11 5 71.38 45.85 203.20 <
-3 11 5 3000.21 3500.79 393.11 o
-2 11 5 541.92 716.79 176.85 o
-1 11 5 1720.91 976.71 197.32 o
0 11 5 7355.71 6849.18 401.38 o
1 11 5 540.57 765.23 214.88 o
2 11 5 3497.22 2192.63 202.36 o
3 11 5 4122.80 4136.98 264.96 o
4 11 5 4197.38 3293.91 238.96 o
5 11 5 456.61 290.69 151.33 <
6 11 5 16528.00 17588.89 685.13 o
7 11 5 526.53 899.90 195.61 o
8 11 5 1452.47 1454.85 294.20 o
9 11 5 3.83 -29.18 289.18 <
10 11 5 219.52 351.67 308.43 <
-6 12 5 397.65 531.64 382.64 <
-5 12 5 11008.19 11049.62 649.55 o
-4 12 5 4551.99 4224.44 426.37 o
-3 12 5 2926.18 3553.75 393.39 o
-2 12 5 181.21 212.31 154.74 <
-1 12 5 861.91 833.87 243.76 o
0 12 5 2040.90 2115.04 328.47 o
1 12 5 2819.47 2855.02 362.44 o
2 12 5 5708.03 5872.29 398.85 o
3 12 5 10.98 44.29 124.53 <
4 12 5 2272.66 2589.00 229.80 o
5 12 5 736.02 996.96 201.32 o
6 12 5 5622.67 6278.84 410.57 o
7 12 5 9693.74 11267.69 657.48 o
8 12 5 914.54 856.51 393.75 <
9 12 5 16.36 222.23 331.65 <
-5 13 5 359.69 683.77 278.20 <
-4 13 5 2703.29 2651.45 370.79 o
-3 13 5 191.31 205.28 219.87 <
-2 13 5 1722.40 1914.66 322.28 o
-1 13 5 478.11 362.31 230.26 <
0 13 5 155.36 -102.12 200.85 <
1 13 5 6.09 -8.86 211.03 <
2 13 5 18727.82 18433.23 758.80 o
3 13 5 1280.54 1032.38 214.55 o
4 13 5 2844.98 2098.66 222.46 o
5 13 5 4979.83 5511.57 404.45 o
6 13 5 1387.21 898.76 274.16 o
7 13 5 1515.70 1385.81 304.34 o
8 13 5 373.51 -71.63 379.00 <
9 13 5 2447.62 1678.94 467.88 o
-5 14 5 2879.27 3098.36 571.33 o
-4 14 5 5.80 47.42 249.32 <
-3 14 5 420.57 533.46 245.37 <
-2 14 5 2546.08 3018.31 382.53 o
-1 14 5 434.86 150.29 218.28 <
0 14 5 34.66 65.39 207.90 <
1 14 5 4901.35 4109.65 420.84 o
2 14 5 569.80 886.08 223.73 o
3 14 5 7690.44 7116.30 461.32 o
4 14 5 99.96 328.51 248.79 <
5 14 5 1408.47 888.34 423.86 <
6 14 5 8500.73 8059.22 638.62 o
7 14 5 339.04 -67.73 375.10 <
8 14 5 414.00 486.31 440.98 <
-4 15 5 96.14 248.27 361.86 <
-3 15 5 1204.18 1128.22 312.72 o
-2 15 5 645.11 525.85 259.41 <
-1 15 5 2087.80 1934.88 337.84 o
0 15 5 2560.20 2093.20 331.00 o
1 15 5 1803.99 1858.87 320.70 o
2 15 5 10285.59 11119.33 578.21 o
3 15 5 623.29 345.62 242.74 <
4 15 5 345.95 298.78 382.65 <
5 15 5 10.00 500.99 427.78 <
6 15 5 65.20 397.81 407.71 <
8 15 5 1293.99 911.27 505.10 <
-1 16 5 227.25 393.09 261.80 <
0 16 5 1321.95 1626.24 337.17 o
1 16 5 231.90 428.78 265.71 <
2 16 5 2352.00 2805.14 375.79 o
3 16 5 2800.30 3758.12 633.03 o
4 16 5 3459.94 3737.43 646.88 o
5 16 5 1.82 172.47 397.82 <
6 16 5 379.05 568.89 420.15 <
1 17 5 3257.13 2926.39 570.19 o
-4 -15 6 134.67 -91.44 500.18 <
-3 -15 6 6.28 565.86 562.22 <
-2 -15 6 61.91 915.46 545.01 <
-1 -15 6 401.29 786.64 592.85 <
-6 -14 6 616.92 1675.73 557.62 o
-5 -14 6 2861.08 908.77 518.00 <
-4 -14 6 10.97 -122.71 226.66 <
-3 -14 6 1833.71 1812.22 332.67 o
-2 -14 6 397.21 244.59 241.20 <
-1 -14 6 698.84 792.52 445.36 <
0 -14 6 5.86 -79.46 293.87 <
1 -14 6 2181.22 1619.59 579.34 <
2 -14 6 304.17 245.12 466.80 <
-7 -13 6 19.72 257.92 414.75 <
-6 -13 6 2468.73 1964.93 414.01 o
-5 -13 6 641.89 133.87 286.49 <
-4 -13 6 2.85 -23.97 196.96 <
-3 -13 6 663.66 375.30 229.97 <
-2 -13 6 163.41 -99.25 200.07 <
-1 -13 6 219.66 338.13 282.12 <
0 -13 6 3.90 134.69 256.88 <
1 -13 6 2015.57 2349.58 391.99 o
2 -13 6 4013.74 4739.48 526.32 o
3 -13 6 320.67 -91.43 299.30 <
-7 -12 6 291.19 263.88 309.46 <
-6 -12 6 836.20 673.98 316.68 <
-5 -12 6 2618.92 2805.59 334.37 o
-4 -12 6 652.14 312.54 174.24 <
-3 -12 6 3168.34 2794.50 272.89 o
-2 -12 6 74.94 102.64 188.35 <
-1 -12 6 299.75 41.42 238.35 <
0 -12 6 1299.37 674.88 289.53 <
1 -12 6 3895.80 3149.84 422.86 o
2 -12 6 324.88 552.76 290.44 <
3 -12 6 1411.13 1136.98 347.58 o
4 -12 6 500.73 163.57 306.57 <
5 -12 6 87.23 172.72 438.19 <
-8 -11 6 858.70 1205.74 348.96 o
-7 -11 6 49.48 185.23 257.13 <
-6 -11 6 421.80 287.04 248.75 <
-5 -11 6 260.51 182.09 147.96 <
-4 -11 6 574.93 468.82 160.18 <
-3 -11 6 3298.42 3036.52 254.41 o
-2 -11 6 1485.95 1658.16 187.45 o
-1 -11 6 97.58 33.87 206.59 <
0 -11 6 335.63 506.13 251.63 <
1 -11 6 9306.66 7818.65 598.98 o
2 -11 6 3917.80 3327.96 425.71 o
3 -11 6 2345.96 2574.35 404.94 o
4 -11 6 148.88 -58.35 260.25 <
5 -11 6 360.53 593.64 338.89 <
6 -11 6 17.54 334.25 406.94 <
-9 -10 6 1256.87 1193.01 534.54 <
-8 -10 6 1000.68 1021.83 308.06 o
-7 -10 6 2584.64 2158.74 352.59 o
-6 -10 6 400.31 570.71 245.37 <
-5 -10 6 850.95 656.79 154.43 o
-4 -10 6 2561.64 2430.46 220.41 o
-3 -10 6 9625.43 10397.57 425.36 o
-2 -10 6 199.21 144.84 114.62 <
-1 -10 6 89.46 610.39 213.88 <
0 -10 6 3780.16 3661.54 380.22 o
1 -10 6 89.51 401.72 219.62 <
2 -10 6 4466.79 4447.92 450.04 o
3 -10 6 232.51 39.60 235.49 <
4 -10 6 7841.88 7776.70 623.01 o
5 -10 6 941.91 1562.48 358.33 o
6 -10 6 397.59 522.00 316.48 <
-9 -9 6 141.82 233.68 177.93 <
-8 -9 6 2393.42 2094.90 336.22 o
-7 -9 6 2335.94 1897.72 297.20 o
-6 -9 6 93.08 172.46 186.27 <
-5 -9 6 6.68 -33.61 112.03 <
-4 -9 6 2074.54 1784.72 179.07 o
-3 -9 6 5384.77 6269.22 269.75 o
-2 -9 6 10098.88 11166.87 376.76 o
-1 -9 6 3788.74 4672.07 316.76 o
0 -9 6 361.87 434.49 190.67 <
1 -9 6 17638.20 20160.75 908.96 o
2 -9 6 112.31 676.29 229.25 <
3 -9 6 951.16 945.30 256.51 o
4 -9 6 651.35 586.27 257.32 <
5 -9 6 2047.30 2329.26 374.55 o
6 -9 6 456.45 712.39 289.38 <
7 -9 6 845.89 559.13 469.54 <
-10 -8 6 731.32 787.29 241.42 o
-9 -8 6 184.30 167.24 160.47 <
-8 -8 6 5007.62 4982.19 343.36 o
-7 -8 6 6743.10 6312.46 374.51 o
-6 -8 6 322.69 349.58 154.73 <
-5 -8 6 326.13 697.59 120.08 o
-4 -8 6 9355.88 9720.60 326.05 o
-3 -8 6 10088.30 11314.63 350.04 o
-2 -8 6 29.70 633.85 108.64 o
-1 -8 6 1775.88 2713.71 191.85 o
0 -8 6 2730.01 3113.43 250.04 o
1 -8 6 129.49 213.36 164.38 <
2 -8 6 8916.91 9260.52 528.47 o
3 -8 6 7081.77 7391.42 500.90 o
4 -8 6 9140.14 9347.34 562.43 o
5 -8 6 2.59 166.48 209.98 <
6 -8 6 20.75 -242.29 203.47 <
7 -8 6 644.30 1599.16 333.37 o
8 -8 6 6964.56 7752.94 951.95 o
-10 -7 6 185.56 101.86 208.92 <
-9 -7 6 229.09 355.06 163.07 <
-8 -7 6 6344.22 6082.38 361.07 o
-7 -7 6 6142.44 6191.86 353.06 o
-6 -7 6 1193.11 1084.76 137.74 o
-5 -7 6 977.46 1284.59 127.34 o
-4 -7 6 204.68 788.28 107.33 o
-3 -7 6 20263.12 22839.58 532.52 o
-2 -7 6 4508.31 3758.03 176.52 o
-1 -7 6 23041.90 24478.38 671.09 o
0 -7 6 721.36 1611.84 178.92 o
1 -7 6 951.96 934.08 152.34 o
2 -7 6 878.69 673.18 185.42 o
3 -7 6 1701.04 2490.99 282.71 o
4 -7 6 14259.67 15720.98 748.94 o
5 -7 6 1992.55 2125.51 212.92 o
6 -7 6 14.37 22.14 196.44 <
7 -7 6 379.82 438.91 241.47 <
8 -7 6 4129.40 5943.38 782.93 o
-10 -6 6 45.56 175.59 390.78 <
-9 -6 6 288.25 221.94 135.72 <
-8 -6 6 7739.60 8038.73 549.05 o
-7 -6 6 14282.53 13457.62 683.52 o
-6 -6 6 59.13 386.09 124.01 o
-5 -6 6 54.68 127.39 93.01 <
-4 -6 6 11678.48 11820.30 342.50 o
-3 -6 6 213.40 944.57 92.22 o
-2 -6 6 5014.46 5133.36 184.78 o
-1 -6 6 2669.32 2289.12 140.50 o
0 -6 6 25004.11 26508.41 709.15 o
1 -6 6 1440.49 2173.87 188.23 o
2 -6 6 95.16 198.25 106.55 <
3 -6 6 15683.92 15755.54 702.27 o
4 -6 6 16771.38 18175.42 607.64 o
5 -6 6 2442.40 2325.69 204.80 o
6 -6 6 865.49 1649.26 259.12 o
7 -6 6 3920.46 3806.46 375.00 o
8 -6 6 2370.90 2418.42 511.89 o
9 -6 6 258.20 154.99 393.61 <
-10 -5 6 7.84 246.46 411.37 <
-9 -5 6 1002.69 1259.84 240.88 o
-8 -5 6 6794.69 6368.68 473.46 o
-7 -5 6 4660.19 5021.52 401.13 o
-6 -5 6 4503.92 4409.26 259.98 o
-5 -5 6 5951.03 6066.68 249.92 o
-4 -5 6 116.08 233.42 69.04 o
-3 -5 6 15766.37 16807.94 432.23 o
-2 -5 6 9712.85 11224.24 317.61 o
-1 -5 6 14363.30 15870.52 405.06 o
0 -5 6 5376.37 4644.45 177.46 o
1 -5 6 4615.37 4745.29 171.81 o
2 -5 6 944.85 1311.14 115.10 o
3 -5 6 9136.04 9931.86 330.96 o
4 -5 6 10089.16 10377.07 348.98 o
5 -5 6 7743.29 8136.77 302.93 o
6 -5 6 495.61 330.79 149.51 <
7 -5 6 948.90 879.16 216.40 o
8 -5 6 10782.11 12189.26 947.49 o
9 -5 6 16.30 -131.30 325.14 <
-10 -4 6 2.22 -183.15 333.73 <
-9 -4 6 24.48 373.07 139.64 <
-8 -4 6 12061.70 11401.59 459.87 o
-7 -4 6 5919.87 5386.20 296.97 o
-6 -4 6 4039.68 3897.90 197.63 o
-5 -4 6 21.19 809.45 90.92 o
-4 -4 6 1175.20 1783.85 102.59 o
-3 -4 6 110.96 163.60 60.18 <
-2 -4 6 2566.45 2154.65 123.33 o
-1 -4 6 45960.77 44530.52 1014.98 o
0 -4 6 21311.80 21129.92 508.70 o
1 -4 6 92.96 -9.12 50.02 <
2 -4 6 281.60 161.24 59.13 <
3 -4 6 16220.38 18066.59 507.58 o
4 -4 6 20616.16 21410.36 587.80 o
5 -4 6 1361.31 1856.62 146.32 o
6 -4 6 40.08 117.23 99.00 <
7 -4 6 4.30 32.57 106.82 <
8 -4 6 199.22 35.95 199.55 <
9 -4 6 1674.44 1946.71 446.46 o
10 -4 6 6343.35 5792.73 690.91 o
-10 -3 6 15.79 207.38 104.73 <
-9 -3 6 191.94 126.34 120.35 <
-8 -3 6 634.38 1186.09 165.91 o
-7 -3 6 10407.39 10295.79 416.90 o
-6 -3 6 1205.00 1283.93 105.45 o
-5 -3 6 33784.62 32361.52 758.77 o
-4 -3 6 607.15 1184.26 94.54 o
-3 -3 6 770.31 746.90 67.19 o
-2 -3 6 9046.91 8488.41 220.43 o
-1 -3 6 19412.54 20381.62 495.48 o
0 -3 6 23278.00 21784.69 569.87 o
1 -3 6 660.84 1425.90 81.26 o
2 -3 6 1640.45 2038.76 105.43 o
3 -3 6 447.35 505.83 68.50 o
4 -3 6 9087.92 9522.20 270.00 o
5 -3 6 6537.02 6799.77 258.67 o
6 -3 6 27716.22 28074.64 755.91 o
7 -3 6 75.37 266.51 104.47 <
8 -3 6 1404.27 1154.69 242.65 o
9 -3 6 3865.63 4052.54 393.73 o
10 -3 6 2190.02 1905.35 328.71 o
-11 -2 6 3781.00 3086.29 376.29 o
-10 -2 6 1385.03 1754.29 174.70 o
-9 -2 6 278.43 311.03 111.75 <
-8 -2 6 5658.47 6077.60 329.75 o
-7 -2 6 107.76 789.36 136.25 o
-6 -2 6 1973.76 2171.03 130.14 o
-5 -2 6 16573.17 18201.42 456.91 o
-4 -2 6 19815.72 19230.41 473.88 o
-3 -2 6 1949.83 2781.78 113.48 o
-2 -2 6 2099.34 2488.23 107.74 o
-1 -2 6 46866.49 48226.68 988.74 o
0 -2 6 24705.75 24576.74 546.73 o
1 -2 6 925.39 1409.56 82.55 o
2 -2 6 9065.45 9244.93 213.94 o
3 -2 6 30261.92 29116.57 561.00 o
4 -2 6 744.61 841.97 84.12 o
5 -2 6 1569.60 1942.84 143.18 o
6 -2 6 1442.81 1461.08 139.03 o
7 -2 6 18737.11 17812.31 595.53 o
8 -2 6 588.80 1171.01 216.70 o
9 -2 6 108.71 258.95 195.39 <
10 -2 6 11868.33 12695.47 984.23 o
11 -2 6 3436.96 3283.17 596.14 o
-11 -1 6 665.13 363.84 269.04 <
-10 -1 6 201.23 578.05 143.54 o
-9 -1 6 4961.82 4940.26 277.61 o
-8 -1 6 180.42 59.92 110.98 <
-7 -1 6 2882.90 3611.53 243.79 o
-6 -1 6 21112.16 21693.32 617.43 o
-5 -1 6 33571.96 34681.04 806.14 o
-4 -1 6 2352.22 3098.74 109.03 o
-3 -1 6 151.25 211.53 48.71 o
-2 -1 6 4275.10 3830.94 125.04 o
-1 -1 6 48117.49 52262.68 1063.27 o
0 -1 6 5881.95 5837.61 157.65 o
1 -1 6 2786.32 2898.06 113.69 o
2 -1 6 12288.48 11634.69 268.97 o
3 -1 6 4779.56 4081.90 133.33 o
4 -1 6 33421.79 33762.43 622.43 o
5 -1 6 16907.57 16707.81 408.49 o
6 -1 6 33224.70 34606.27 851.92 o
7 -1 6 550.86 638.13 103.92 o
8 -1 6 2177.59 2191.44 261.83 o
9 -1 6 117.11 352.47 186.79 <
10 -1 6 7241.49 6359.26 691.96 o
11 -1 6 6035.49 5301.17 681.90 o
-11 0 6 196.35 318.07 324.33 <
-10 0 6 6129.64 5966.60 352.00 o
-9 0 6 1184.75 1746.14 190.08 o
-8 0 6 1112.15 1510.80 167.95 o
-7 0 6 365.32 320.91 109.14 <
-6 0 6 6650.12 6736.23 255.55 o
-5 0 6 44086.51 47974.45 1087.03 o
-4 0 6 11834.37 11566.28 279.19 o
-3 0 6 122.46 263.90 48.45 o
-2 0 6 1.03 -12.51 33.87 <
-1 0 6 40192.87 38852.18 679.76 o
0 0 6 21059.77 21481.27 417.87 o
1 0 6 53724.03 53071.61 907.41 o
2 0 6 22.56 447.06 49.76 o
3 0 6 5.42 -0.78 41.16 <
4 0 6 6578.20 6574.80 181.77 o
5 0 6 104.92 186.01 59.40 o
6 0 6 47161.60 47838.82 953.11 o
7 0 6 15648.55 15240.86 535.33 o
8 0 6 950.97 839.05 191.40 o
9 0 6 1256.72 1415.41 232.00 o
10 0 6 3869.33 4996.76 603.08 o
11 0 6 5424.50 5067.90 634.04 o
-10 1 6 5838.73 5664.71 372.05 o
-9 1 6 13119.36 13439.14 603.09 o
-8 1 6 188.40 685.39 151.35 o
-7 1 6 658.83 827.70 143.77 o
-6 1 6 15462.64 16085.45 529.12 o
-5 1 6 30917.77 30720.98 837.75 o
-4 1 6 5337.47 6129.80 159.80 o
-3 1 6 2507.51 2845.24 101.74 o
-2 1 6 6429.03 5886.52 145.41 o
-1 1 6 77.49 452.00 43.51 o
0 1 6 4161.05 3604.57 103.20 o
1 1 6 175.94 759.63 48.19 o
2 1 6 133445.34 137796.08 2596.81 o
3 1 6 2302.23 2132.24 94.72 o
4 1 6 260.13 478.53 59.65 o
5 1 6 31014.52 31286.85 639.25 o
6 1 6 19167.43 21295.59 459.20 o
7 1 6 11765.04 12184.58 387.59 o
8 1 6 16.89 145.63 138.34 <
9 1 6 22.45 103.69 156.31 <
10 1 6 5020.86 5062.72 593.40 o
11 1 6 612.77 927.21 362.55 <
-10 2 6 4422.58 4085.92 502.55 o
-9 2 6 10283.48 10221.16 523.76 o
-8 2 6 1719.19 1747.01 218.93 o
-7 2 6 153.18 302.19 106.55 <
-6 2 6 8206.29 8138.17 323.36 o
-5 2 6 15427.31 18093.97 588.52 o
-4 2 6 7912.69 7488.29 218.50 o
-3 2 6 9899.47 10684.76 236.15 o
-2 2 6 7736.83 6815.95 164.00 o
-1 2 6 39770.18 36697.26 644.49 o
0 2 6 27817.87 26628.12 441.76 o
1 2 6 29847.14 30655.74 502.56 o
2 2 6 4396.41 5859.63 144.26 o
3 2 6 45079.57 43905.41 863.19 o
4 2 6 1562.54 1382.31 84.34 o
5 2 6 7121.75 7785.57 203.80 o
6 2 6 45693.20 48281.69 1072.42 o
7 2 6 3947.71 3444.81 185.41 o
8 2 6 165.13 -35.95 133.90 <
9 2 6 2642.45 2609.13 273.48 o
10 2 6 2759.60 3013.05 453.52 o
11 2 6 909.52 1243.74 359.37 o
-10 3 6 11407.40 10958.73 870.64 o
-9 3 6 7981.32 8797.94 733.27 o
-8 3 6 339.79 201.36 263.61 <
-7 3 6 529.88 766.54 145.60 o
-6 3 6 6137.98 6125.48 284.19 o
-5 3 6 14850.11 14059.49 418.77 o
-4 3 6 3806.31 3615.58 158.36 o
-3 3 6 481.95 885.06 80.22 o
-2 3 6 15562.57 15576.50 340.88 o
-1 3 6 6499.69 5757.43 141.51 o
0 3 6 19843.59 17527.23 321.23 o
1 3 6 72404.18 71225.19 1116.96 o
2 3 6 55825.92 56533.50 1228.97 o
3 3 6 956.62 516.89 51.56 o
4 3 6 4773.66 4169.88 133.33 o
5 3 6 3635.27 3715.77 131.85 o
6 3 6 19894.46 21021.60 449.23 o
7 3 6 2040.54 2166.81 148.36 o
8 3 6 2824.39 3097.53 271.64 o
9 3 6 1053.82 784.59 275.50 <
10 3 6 529.63 378.45 269.58 <
11 3 6 705.77 588.33 323.21 <
-10 4 6 5540.46 3785.36 590.36 o
-9 4 6 10353.75 9392.45 805.30 o
-8 4 6 16.92 348.84 295.70 <
-7 4 6 715.39 735.49 201.84 o
-6 4 6 84.65 300.12 119.58 <
-5 4 6 11997.50 11938.46 448.64 o
-4 4 6 587.08 603.73 90.64 o
-3 4 6 58922.54 60344.25 1318.85 o
-2 4 6 1082.32 1213.39 76.81 o
-1 4 6 35.66 78.94 41.94 <
0 4 6 28013.30 27751.58 486.98 o
1 4 6 631.79 1249.60 70.84 o
2 4 6 63178.59 62784.92 1361.95 o
3 4 6 6858.71 6800.17 179.40 o
4 4 6 7831.61 7928.19 203.19 o
5 4 6 1795.64 1891.33 97.35 o
6 4 6 6718.94 6786.20 212.95 o
7 4 6 3069.49 3187.39 173.26 o
8 4 6 11117.09 10176.97 494.53 o
9 4 6 6145.45 5704.23 575.70 o
10 4 6 329.60 214.90 251.63 <
11 4 6 1342.93 1319.25 375.70 o
-10 5 6 3433.63 3266.32 600.57 o
-9 5 6 6172.69 5756.40 722.44 o
-8 5 6 331.26 -72.68 316.23 <
-7 5 6 3907.74 4119.84 385.41 o
-6 5 6 1607.48 1524.24 238.20 o
-5 5 6 1176.82 1556.56 149.46 o
-4 5 6 324.55 199.01 81.79 <
-3 5 6 6569.38 7379.63 237.09 o
-2 5 6 71175.97 75753.16 1572.99 o
-1 5 6 4470.94 4372.62 144.00 o
0 5 6 199.24 512.66 60.70 o
1 5 6 63527.28 62694.48 1250.82 o
2 5 6 8878.01 10046.78 313.81 o
3 5 6 3339.82 3691.18 127.44 o
4 5 6 4417.34 4181.40 153.63 o
5 5 6 91.91 59.14 60.44 <
6 5 6 2912.32 3306.71 151.16 o
7 5 6 1710.99 1988.31 140.31 o
8 5 6 1591.52 1639.59 203.58 o
9 5 6 17882.81 16291.75 1037.64 o
10 5 6 405.26 73.98 257.61 <
11 5 6 371.06 377.44 296.95 <
-10 6 6 2934.52 2402.03 575.99 o
-9 6 6 1210.59 1364.13 465.56 <
-8 6 6 6.26 187.58 256.62 <
-7 6 6 9291.56 8968.68 592.50 o
-6 6 6 3247.38 3249.35 345.98 o
-5 6 6 7593.10 7098.41 357.72 o
-4 6 6 23969.58 24014.10 806.80 o
-3 6 6 20821.32 20447.50 607.53 o
-2 6 6 5236.50 5900.68 203.98 o
-1 6 6 13938.08 14601.92 348.47 o
0 6 6 2040.35 1637.55 107.75 o
1 6 6 12125.06 12060.11 295.43 o
2 6 6 33815.07 32848.34 780.65 o
3 6 6 170.53 89.61 49.76 <
4 6 6 8451.64 9854.97 253.74 o
5 6 6 8773.86 9495.13 251.38 o
6 6 6 8994.22 8463.97 250.60 o
7 6 6 1430.25 1119.78 117.68 o
8 6 6 20691.34 19677.31 814.87 o
9 6 6 2894.18 2878.63 406.40 o
10 6 6 2769.61 2747.62 425.67 o
11 6 6 6.48 -248.54 262.35 <
-9 7 6 1045.06 618.71 417.42 <
-8 7 6 5411.19 5541.28 522.09 o
-7 7 6 1324.35 1932.45 327.02 o
-6 7 6 5491.89 5453.05 464.12 o
-5 7 6 3260.27 3147.85 266.89 o
-4 7 6 894.62 1484.11 186.20 o
-3 7 6 43635.00 42287.91 1093.60 o
-2 7 6 24163.88 24332.65 665.20 o
-1 7 6 2696.21 2586.71 134.77 o
0 7 6 865.07 768.48 88.80 o
1 7 6 2054.56 2765.26 133.77 o
2 7 6 13701.88 14669.39 393.30 o
3 7 6 3272.74 3469.05 144.62 o
4 7 6 10619.70 10281.14 302.72 o
5 7 6 3494.49 3227.22 162.04 o
6 7 6 3876.06 3967.10 185.16 o
7 7 6 982.59 826.80 167.70 o
8 7 6 14834.91 13037.61 597.18 o
9 7 6 17745.43 16932.34 1072.84 o
10 7 6 280.66 550.16 276.38 <
11 7 6 7.71 -243.33 240.20 <
-9 8 6 334.10 908.05 452.46 <
-8 8 6 1374.97 1247.12 326.49 o
-7 8 6 18506.20 19564.23 976.36 o
-6 8 6 35.12 83.37 208.42 <
-5 8 6 826.56 756.02 177.61 o
-4 8 6 12210.40 11772.56 497.86 o
-3 8 6 575.88 1003.54 134.66 o
-2 8 6 16888.58 15544.04 480.37 o
-1 8 6 52.15 181.84 88.84 <
0 8 6 3299.69 2996.42 163.61 o
1 8 6 1068.21 856.42 100.25 o
2 8 6 1202.28 1301.35 124.72 o
3 8 6 13.06 203.21 74.51 <
4 8 6 41235.14 42127.57 1006.91 o
5 8 6 4966.83 5027.00 203.77 o
6 8 6 954.32 1195.03 156.51 o
7 8 6 9807.74 10738.96 453.08 o
8 8 6 3939.81 3857.66 314.67 o
9 8 6 8671.89 6976.98 604.34 o
10 8 6 765.69 884.95 294.29 o
-8 9 6 1375.06 1500.18 486.61 o
-7 9 6 3301.03 3240.68 608.44 o
-6 9 6 11727.91 10176.67 1025.08 o
-5 9 6 2888.50 2486.55 277.09 o
-4 9 6 1061.51 1323.09 203.37 o
-3 9 6 13716.37 13853.43 684.13 o
-2 9 6 824.01 694.81 148.96 o
-1 9 6 1069.29 585.10 129.94 o
0 9 6 8970.39 9154.45 366.79 o
1 9 6 853.86 1007.30 125.26 o
2 9 6 378.23 614.21 112.01 o
3 9 6 7064.24 7110.64 283.01 o
4 9 6 2491.75 2285.77 168.88 o
5 9 6 27793.46 29236.04 829.94 o
6 9 6 96.41 183.40 119.84 <
7 9 6 442.21 744.69 158.63 o
8 9 6 17750.73 18472.02 884.22 o
9 9 6 2467.68 2310.05 390.08 o
10 9 6 51.60 -123.75 238.12 <
-8 10 6 6690.62 5449.38 750.51 o
-7 10 6 3348.46 3298.57 599.84 o
-6 10 6 101.61 -561.67 319.65 <
-5 10 6 855.06 1006.02 265.63 o
-4 10 6 287.74 163.59 204.75 <
-3 10 6 2189.23 2577.90 313.10 o
-2 10 6 1842.15 1755.74 201.21 o
-1 10 6 3015.86 3130.20 254.43 o
0 10 6 6353.81 5973.01 323.64 o
1 10 6 7577.35 7475.61 339.02 o
2 10 6 5969.53 6725.15 295.38 o
3 10 6 9047.17 9127.68 350.47 o
4 10 6 21508.52 23332.25 697.32 o
5 10 6 48.38 180.28 110.72 <
6 10 6 2356.41 2946.74 250.88 o
7 10 6 31.19 -74.25 128.18 <
8 10 6 817.81 894.05 334.13 <
9 10 6 5863.65 5371.41 600.43 o
10 10 6 1364.80 837.31 323.36 <
-7 11 6 7753.30 7444.98 860.99 o
-6 11 6 331.28 145.35 401.93 <
-5 11 6 2768.09 2504.90 358.03 o
-4 11 6 6.08 293.87 226.14 <
-3 11 6 694.28 509.43 214.87 <
-2 11 6 1008.54 836.68 177.08 o
-1 11 6 11840.57 10923.88 478.02 o
0 11 6 3183.38 3665.62 373.56 o
1 11 6 360.25 94.03 160.20 <
2 11 6 5319.33 5045.27 328.49 o
3 11 6 634.61 649.56 141.42 o
4 11 6 11627.15 12580.44 456.83 o
5 11 6 9950.78 9968.85 459.01 o
6 11 6 5669.79 5424.58 426.67 o
7 11 6 106.89 61.74 174.80 <
8 11 6 1067.35 1363.97 377.84 o
9 11 6 339.33 401.67 326.39 <
10 11 6 383.23 757.73 344.09 <
-6 12 6 713.20 739.39 444.31 <
-5 12 6 2131.77 1947.60 348.24 o
-4 12 6 738.96 951.90 272.94 o
-3 12 6 11.70 72.43 215.98 <
-2 12 6 8.32 231.61 214.15 <
-1 12 6 967.21 1400.23 289.58 o
0 12 6 25415.12 23935.04 1106.49 o
1 12 6 1.81 304.56 209.46 <
2 12 6 1896.56 1494.89 223.34 o
3 12 6 11953.67 12518.18 544.08 o
4 12 6 393.19 471.21 155.77 o
5 12 6 1804.06 1545.47 281.14 o
6 12 6 56.20 302.72 217.79 <
7 12 6 4218.48 4096.61 397.83 o
8 12 6 1069.88 550.74 366.12 <
9 12 6 51.89 91.44 325.91 <
-5 13 6 1686.05 2117.71 352.99 o
-4 13 6 3079.50 2828.40 385.29 o
-3 13 6 1295.90 872.24 284.33 o
-2 13 6 1086.09 1316.57 304.92 o
-1 13 6 7816.39 8064.17 618.34 o
0 13 6 143.92 125.31 233.68 <
1 13 6 10896.12 8723.73 661.78 o
2 13 6 1723.70 1794.91 264.75 o
3 13 6 176.27 162.30 213.61 <
4 13 6 12116.36 12556.51 681.88 o
5 13 6 123.72 484.03 241.76 <
6 13 6 2315.43 2206.13 335.46 o
7 13 6 1434.25 1484.53 304.87 o
8 13 6 42.20 140.68 358.22 <
9 13 6 497.10 360.48 387.83 <
-4 14 6 1176.98 589.51 287.98 <
-3 14 6 1641.17 1712.96 333.74 o
-2 14 6 2548.04 2317.78 361.19 o
-1 14 6 7843.96 7356.38 581.73 o
0 14 6 7284.61 7042.06 579.81 o
1 14 6 2152.80 2191.21 360.47 o
2 14 6 588.01 337.03 256.03 <
3 14 6 18.92 130.78 230.04 <
4 14 6 272.66 371.20 338.38 <
5 14 6 1030.21 1158.79 423.15 <
6 14 6 5228.25 4526.03 674.94 o
7 14 6 1614.79 1965.48 369.15 o
8 14 6 195.99 257.38 410.81 <
-4 15 6 260.94 -67.47 367.04 <
-3 15 6 91.16 69.04 334.50 <
-2 15 6 2639.35 3242.68 408.00 o
-1 15 6 282.97 478.26 263.10 <
0 15 6 3696.51 3243.73 405.21 o
1 15 6 704.44 153.40 244.56 <
2 15 6 5764.72 5399.58 505.63 o
3 15 6 340.83 293.83 253.45 <
4 15 6 284.11 100.81 390.48 <
5 15 6 72.95 811.51 470.50 <
6 15 6 2729.44 2445.80 601.30 o
-1 16 6 5090.46 4594.52 709.27 o
0 16 6 210.61 226.90 260.76 <
1 16 6 0.53 -347.02 227.18 <
2 16 6 568.44 436.27 254.47 <
3 16 6 1178.02 1376.38 508.27 <
4 16 6 631.13 639.14 453.96 <
5 16 6 332.96 19.54 436.31 <
1 17 6 1224.74 670.99 458.26 <
-4 -14 7 0.03 -135.21 425.96 <
-3 -14 7 75.74 -41.68 239.42 <
-2 -14 7 374.86 369.88 331.07 <
-1 -14 7 2001.10 1645.49 403.95 o
0 -14 7 1493.27 1065.32 552.19 <
1 -14 7 1003.33 528.88 528.62 <
-6 -13 7 1370.24 1032.57 366.06 <
-5 -13 7 1540.89 1847.34 426.17 o
-4 -13 7 0.35 138.86 219.36 <
-3 -13 7 259.47 -31.00 219.08 <
-2 -13 7 2635.37 1542.51 306.52 o
-1 -13 7 2520.91 2383.36 351.04 o
0 -13 7 113.18 4.95 305.06 <
1 -13 7 192.37 256.07 314.17 <
2 -13 7 257.54 -146.92 304.00 <
-7 -12 7 0.72 142.25 313.93 <
-6 -12 7 1745.49 887.14 329.55 <
-5 -12 7 1865.30 1886.65 384.98 o
-4 -12 7 384.25 228.44 188.33 <
-3 -12 7 24.63 72.17 195.39 <
-2 -12 7 169.17 750.26 236.02 o
-1 -12 7 7133.67 6419.28 433.13 o
0 -12 7 865.21 357.04 286.20 <
1 -12 7 3192.32 2240.35 396.20 o
2 -12 7 647.14 18.75 275.55 <
3 -12 7 193.64 354.28 330.32 <
4 -12 7 7.23 431.43 450.97 <
-8 -11 7 330.27 276.64 439.44 <
-7 -11 7 4.68 -61.48 258.96 <
-6 -11 7 3749.98 3836.82 453.04 o
-5 -11 7 5534.22 6045.88 361.46 o
-4 -11 7 141.47 399.62 170.37 <
-3 -11 7 196.08 60.96 152.92 <
-2 -11 7 3586.94 2960.17 310.82 o
-1 -11 7 252.23 691.88 198.50 o
0 -11 7 1890.67 1668.79 328.24 o
1 -11 7 532.35 527.18 274.27 <
2 -11 7 3768.90 3489.69 440.83 o
3 -11 7 1168.56 1129.30 342.67 o
4 -11 7 75.46 -550.73 255.05 <
5 -11 7 2568.95 2025.75 421.80 o
6 -11 7 2153.05 2661.92 652.73 o
-8 -10 7 73.43 155.01 243.06 <
-7 -10 7 101.95 491.85 255.83 <
-6 -10 7 3141.21 2620.47 375.13 o
-5 -10 7 4224.75 4231.05 282.90 o
-4 -10 7 1834.87 2893.84 244.95 o
-3 -10 7 5154.12 4905.79 312.93 o
-2 -10 7 457.15 575.64 136.75 o
-1 -10 7 9523.58 8602.42 431.61 o
0 -10 7 1206.15 1358.67 216.64 o
1 -10 7 2658.25 2840.70 375.48 o
2 -10 7 339.68 788.23 272.73 <
3 -10 7 483.41 820.74 290.42 <
4 -10 7 105.97 313.14 261.82 <
5 -10 7 2621.84 2799.86 432.73 o
6 -10 7 2490.81 3936.89 683.86 o
-9 -9 7 2409.04 2565.55 653.68 o
-8 -9 7 47.83 -196.43 209.72 <
-7 -9 7 38.76 521.83 240.20 <
-6 -9 7 8496.83 8792.61 618.14 o
-5 -9 7 4684.08 4775.58 285.18 o
-4 -9 7 804.20 1377.16 175.79 o
-3 -9 7 132.18 381.65 137.29 <
-2 -9 7 427.68 832.48 135.45 o
-1 -9 7 761.01 936.00 154.18 o
0 -9 7 2050.48 2182.96 233.73 o
1 -9 7 10806.43 11850.31 648.57 o
2 -9 7 5034.94 5894.24 485.27 o
3 -9 7 291.85 302.43 229.23 <
4 -9 7 48.68 -146.15 224.05 <
5 -9 7 4182.52 4211.62 462.06 o
6 -9 7 5193.63 5352.33 535.65 o
-9 -8 7 2374.35 2096.69 257.63 o
-8 -8 7 3.37 -90.66 153.45 <
-7 -8 7 194.90 276.65 208.14 <
-6 -8 7 895.73 1437.26 261.72 o
-5 -8 7 12117.88 12510.25 434.72 o
-4 -8 7 219.88 136.76 109.93 <
-3 -8 7 15008.36 14003.78 414.18 o
-2 -8 7 728.82 1284.74 138.55 o
-1 -8 7 1001.08 1204.63 148.17 o
0 -8 7 2621.86 2889.34 238.35 o
1 -8 7 5873.03 5886.29 442.72 o
2 -8 7 5961.35 6675.15 492.85 o
3 -8 7 74.93 315.49 193.30 <
4 -8 7 115.50 7.82 196.95 <
5 -8 7 1182.28 955.35 279.13 o
6 -8 7 5024.47 4976.22 486.06 o
7 -8 7 836.76 939.61 319.02 <
-10 -7 7 5460.01 5489.28 449.52 o
-9 -7 7 4197.41 3722.57 310.71 o
-8 -7 7 1241.52 1321.41 206.22 o
-7 -7 7 5.11 65.65 138.60 <
-6 -7 7 6134.92 6125.88 288.37 o
-5 -7 7 77.46 872.47 119.84 o
-4 -7 7 26.12 440.02 102.91 o
-3 -7 7 7849.41 7504.28 261.38 o
-2 -7 7 7045.22 6382.65 246.42 o
-1 -7 7 1268.26 1300.55 136.95 o
0 -7 7 256.09 215.17 101.07 <
1 -7 7 21137.77 22205.09 730.64 o
2 -7 7 10876.97 11887.02 600.80 o
3 -7 7 447.55 608.46 197.96 o
4 -7 7 1999.74 2175.47 293.60 o
5 -7 7 9572.73 9165.37 548.58 o
6 -7 7 282.56 187.55 219.60 <
7 -7 7 29.07 54.97 181.06 <
8 -7 7 808.84 956.55 492.99 <
-10 -6 7 4393.33 4004.41 443.26 o
-9 -6 7 1825.93 1716.44 206.68 o
-8 -6 7 22.10 350.41 202.43 <
-7 -6 7 3822.04 4237.05 390.88 o
-6 -6 7 970.83 1106.22 165.10 o
-5 -6 7 4371.99 4541.89 233.48 o
-4 -6 7 9152.10 10130.24 355.38 o
-3 -6 7 14903.17 15394.79 383.87 o
-2 -6 7 1539.36 1754.92 124.18 o
-1 -6 7 439.74 231.30 94.29 <
0 -6 7 3366.91 4088.58 215.63 o
1 -6 7 11988.82 11637.90 382.58 o
2 -6 7 6326.11 6112.48 305.46 o
3 -6 7 1092.38 1422.53 176.55 o
4 -6 7 5019.79 4346.32 376.62 o
5 -6 7 11.80 184.45 132.61 <
6 -6 7 11938.76 12889.16 521.56 o
7 -6 7 3705.56 4044.54 316.26 o
8 -6 7 6423.87 7212.13 828.85 o
-10 -5 7 5707.02 5786.62 505.34 o
-9 -5 7 728.43 819.60 239.34 o
-8 -5 7 5126.39 5074.26 429.37 o
-7 -5 7 248.17 1136.29 237.57 o
-6 -5 7 299.13 1189.66 158.38 o
-5 -5 7 9.68 75.03 83.89 <
-4 -5 7 2405.93 2687.91 174.87 o
-3 -5 7 22528.41 22188.93 554.54 o
-2 -5 7 9947.23 10103.08 301.53 o
-1 -5 7 110.83 199.81 70.34 <
0 -5 7 381.05 549.09 95.07 o
1 -5 7 20286.24 20421.08 570.81 o
2 -5 7 8114.44 8325.14 282.34 o
3 -5 7 10977.91 11685.15 438.24 o
4 -5 7 40.84 130.78 92.75 <
5 -5 7 5.39 54.45 96.39 <
6 -5 7 816.85 846.13 168.76 o
7 -5 7 275.84 500.93 160.72 o
8 -5 7 14141.63 14014.99 1042.78 o
9 -5 7 3422.97 3461.76 567.29 o
-10 -4 7 1237.72 915.73 268.97 o
-9 -4 7 1416.66 1597.28 206.46 o
-8 -4 7 6363.19 6187.32 344.45 o
-7 -4 7 12533.97 11625.86 471.42 o
-6 -4 7 683.91 1400.41 136.99 o
-5 -4 7 4.84 412.67 79.72 o
-4 -4 7 12635.41 11020.49 281.73 o
-3 -4 7 16522.33 17539.37 447.85 o
-2 -4 7 3195.08 3391.16 164.13 o
-1 -4 7 304.95 647.83 86.22 o
0 -4 7 4250.33 4312.51 174.45 o
1 -4 7 1175.45 1226.63 88.79 o
2 -4 7 6973.49 6636.81 199.92 o
3 -4 7 187.05 446.24 84.92 o
4 -4 7 45077.02 45923.69 1011.50 o
5 -4 7 1911.65 2131.80 141.08 o
6 -4 7 55.01 -61.74 102.12 <
7 -4 7 8839.00 8452.66 373.37 o
8 -4 7 4611.46 3926.38 534.25 o
9 -4 7 6195.80 6933.06 745.55 o
10 -4 7 22.20 -315.49 336.86 <
-10 -3 7 1887.29 1995.15 188.71 o
-9 -3 7 652.81 1282.19 189.87 o
-8 -3 7 5883.35 6441.77 355.96 o
-7 -3 7 10035.96 9591.45 407.91 o
-6 -3 7 2766.46 2751.78 151.43 o
-5 -3 7 259.94 513.17 81.53 o
-4 -3 7 4687.55 5481.04 172.08 o
-3 -3 7 19231.22 19438.54 440.50 o
-2 -3 7 10942.00 10993.38 278.80 o
-1 -3 7 11102.73 10167.88 289.13 o
0 -3 7 2907.42 3359.79 170.66 o
1 -3 7 23348.68 23859.01 477.07 o
2 -3 7 4955.04 4821.15 160.87 o
3 -3 7 5168.56 4673.72 177.49 o
4 -3 7 2792.51 2775.83 151.94 o
5 -3 7 18317.29 19083.30 472.10 o
6 -3 7 1045.75 1278.83 144.00 o
7 -3 7 2410.16 2474.34 188.67 o
8 -3 7 14461.92 13468.46 678.55 o
9 -3 7 1958.81 1487.30 400.59 o
10 -3 7 41.56 -287.62 293.61 <
-10 -2 7 396.42 569.14 138.57 o
-9 -2 7 14.80 -20.06 128.18 <
-8 -2 7 17305.85 18273.55 672.48 o
-7 -2 7 11593.17 10922.82 444.93 o
-6 -2 7 579.98 722.25 93.24 o
-5 -2 7 0.11 95.35 63.57 <
-4 -2 7 10643.54 9587.75 248.29 o
-3 -2 7 13546.27 14149.89 336.15 o
-2 -2 7 729.53 938.86 77.61 o
-1 -2 7 339.12 1025.00 79.45 o
0 -2 7 12530.15 11792.85 299.77 o
1 -2 7 139.28 270.67 56.79 o
2 -2 7 16502.83 15162.91 345.94 o
3 -2 7 42955.68 43644.34 819.53 o
4 -2 7 22413.29 23205.28 543.94 o
5 -2 7 13.69 -67.74 76.07 <
6 -2 7 2253.40 2230.62 169.68 o
7 -2 7 1105.46 1044.96 155.19 o
8 -2 7 8887.68 8701.56 508.29 o
9 -2 7 1637.11 1413.07 269.44 o
10 -2 7 750.66 690.15 254.97 <
-11 -1 7 826.87 938.82 296.62 o
-10 -1 7 164.71 323.29 140.15 <
-9 -1 7 875.41 940.64 150.52 o
-8 -1 7 10562.10 9265.71 414.82 o
-7 -1 7 14457.92 14184.30 539.82 o
-6 -1 7 1306.97 1465.87 117.17 o
-5 -1 7 453.08 622.52 82.83 o
-4 -1 7 195.13 447.28 67.47 o
-3 -1 7 24437.02 22766.72 549.42 o
-2 -1 7 1183.60 1319.30 85.40 o
-1 -1 7 66394.27 65926.16 1207.61 o
0 -1 7 314.04 752.28 62.00 o
1 -1 7 291.11 297.48 55.74 o
2 -1 7 8071.24 6651.56 185.00 o
3 -1 7 1890.38 2628.58 113.22 o
4 -1 7 45293.87 43911.37 950.89 o
5 -1 7 4638.06 5154.75 190.80 o
6 -1 7 2033.10 1724.34 166.58 o
7 -1 7 1620.92 1572.66 172.60 o
8 -1 7 5298.71 5201.22 402.31 o
9 -1 7 2221.70 1752.33 275.09 o
10 -1 7 4480.40 4815.07 641.89 o
11 -1 7 2818.25 2646.20 542.20 o
-10 0 7 72.36 379.31 154.23 <
-9 0 7 1508.85 1337.39 178.08 o
-8 0 7 10537.26 10251.79 468.49 o
-7 0 7 11656.13 12568.11 495.44 o
-6 0 7 64.35 13.29 79.20 <
-5 0 7 1415.06 1515.76 112.73 o
-4 0 7 4105.57 4279.93 147.42 o
-3 0 7 1437.81 1694.56 86.69 o
-2 0 7 435.26 569.65 56.00 o
-1 0 7 20325.86 22522.10 477.70 o
0 0 7 77426.13 77059.37 1400.02 o
1 0 7 5914.61 5928.73 156.36 o
2 0 7 154.06 306.36 49.76 o
3 0 7 40391.03 39353.76 790.26 o
4 0 7 11348.30 11705.39 293.78 o
5 0 7 4535.49 4466.31 157.79 o
6 0 7 1597.15 2015.74 148.13 o
7 0 7 218.06 299.32 114.62 <
8 0 7 2843.48 3133.16 303.90 o
9 0 7 62.72 94.57 174.03 <
10 0 7 1398.81 2205.48 448.07 o
11 0 7 9206.36 9656.12 863.45 o
-10 1 7 4.02 -38.82 218.58 <
-9 1 7 238.62 590.29 160.99 o
-8 1 7 6373.81 5495.82 322.89 o
-7 1 7 4641.18 4581.16 281.29 o
-6 1 7 366.22 872.62 117.22 o
-5 1 7 15427.66 15882.53 478.92 o
-4 1 7 1192.39 1434.93 84.10 o
-3 1 7 16638.64 16233.78 336.64 o
-2 1 7 41939.52 39367.38 739.73 o
-1 1 7 28597.79 29912.07 539.26 o
0 1 7 7385.31 8707.12 200.10 o
1 1 7 27871.88 26900.19 453.69 o
2 1 7 1057.16 1231.63 73.17 o
3 1 7 15339.02 15957.82 385.17 o
4 1 7 24463.49 23033.94 493.08 o
5 1 7 197.96 212.83 64.34 o
6 1 7 5173.08 5389.81 194.66 o
7 1 7 2748.84 3055.97 219.60 o
8 1 7 5890.78 6180.60 392.33 o
9 1 7 583.34 857.95 210.71 o
10 1 7 12701.11 12715.96 959.01 o
11 1 7 2795.38 2433.70 502.92 o
-10 2 7 54.27 8.60 240.98 <
-9 2 7 220.87 577.53 251.12 <
-8 2 7 5361.54 5932.65 361.76 o
-7 2 7 1645.49 1746.81 166.09 o
-6 2 7 6409.64 6095.70 271.69 o
-5 2 7 2608.52 3768.52 171.99 o
-4 2 7 8355.12 8314.80 238.45 o
-3 2 7 981.99 1073.11 72.91 o
-2 2 7 2226.45 2453.22 100.45 o
-1 2 7 94927.12 98478.29 1775.60 o
0 2 7 21327.86 22399.85 383.38 o
1 2 7 1186.36 984.71 61.19 o
2 2 7 4542.52 4266.11 115.67 o
3 2 7 5765.85 5483.99 202.10 o
4 2 7 13264.80 14141.66 326.88 o
5 2 7 1709.37 1967.17 110.11 o
6 2 7 7891.34 8683.50 234.63 o
7 2 7 2044.18 2441.94 255.33 o
8 2 7 1628.31 1157.17 210.61 o
9 2 7 428.41 730.11 200.05 o
10 2 7 13259.53 14157.74 1013.65 o
11 2 7 12130.13 12186.83 947.21 o
-10 3 7 708.74 636.25 323.73 <
-9 3 7 537.33 557.13 293.02 <
-8 3 7 59.96 317.05 250.10 <
-7 3 7 3756.26 3991.91 256.43 o
-6 3 7 4302.52 4212.58 250.38 o
-5 3 7 47891.91 49521.31 1479.45 o
-4 3 7 299.21 985.17 94.30 o
-3 3 7 188.37 339.17 67.73 o
-2 3 7 17359.01 16908.98 371.61 o
-1 3 7 5035.82 6440.07 158.77 o
0 3 7 33132.86 31600.63 550.51 o
1 3 7 176.84 211.53 40.90 o
2 3 7 6369.43 6869.61 157.89 o
3 3 7 2141.27 2093.94 114.77 o
4 3 7 2638.75 2767.87 122.81 o
5 3 7 42.76 121.66 58.36 <
6 3 7 39206.57 41313.13 937.36 o
7 3 7 2377.78 2739.27 263.88 o
8 3 7 369.75 433.70 163.06 <
9 3 7 6996.75 7395.40 438.87 o
10 3 7 4246.95 5032.53 586.33 o
11 3 7 9409.72 8433.70 755.50 o
-10 4 7 2296.49 2657.57 505.13 o
-9 4 7 2653.70 2812.81 480.08 o
-8 4 7 945.77 1086.71 344.53 o
-7 4 7 1388.30 1614.76 241.61 o
-6 4 7 2257.99 3127.99 285.24 o
-5 4 7 17091.71 15189.82 463.85 o
-4 4 7 29880.75 31432.52 737.87 o
-3 4 7 14460.62 14935.55 385.42 o
-2 4 7 2860.13 2807.59 137.36 o
-1 4 7 47135.46 45481.15 818.55 o
0 4 7 1878.29 2521.57 96.30 o
1 4 7 624.34 644.86 59.64 o
2 4 7 15900.53 15225.09 318.89 o
3 4 7 2689.62 2728.21 118.12 o
4 4 7 120.31 120.88 54.71 <
5 4 7 7245.53 8001.31 215.22 o
6 4 7 7776.33 8682.23 233.09 o
7 4 7 25558.03 24418.57 980.20 o
8 4 7 204.87 698.67 172.45 o
9 4 7 0.76 44.81 151.37 <
10 4 7 16263.16 18700.32 1219.83 o
11 4 7 2304.75 2249.00 457.50 o
-10 5 7 1236.85 1115.95 408.26 <
-9 5 7 7782.30 7167.12 783.40 o
-8 5 7 165.84 -84.14 310.26 <
-7 5 7 1733.30 1968.80 281.93 o
-6 5 7 24060.66 24464.26 1021.42 o
-5 5 7 15897.57 16605.94 588.77 o
-4 5 7 1413.86 1691.76 132.26 o
-3 5 7 1022.44 1354.59 110.93 o
-2 5 7 1293.24 1309.09 96.85 o
-1 5 7 12660.92 13077.08 286.57 o
0 5 7 6657.44 7245.84 203.31 o
1 5 7 3756.18 4208.12 146.66 o
2 5 7 17895.06 18851.09 423.41 o
3 5 7 4685.43 4625.80 190.52 o
4 5 7 12676.48 13333.91 351.85 o
5 5 7 23146.45 22527.36 543.04 o
6 5 7 34138.01 36659.75 971.84 o
7 5 7 303.08 378.75 145.87 <
8 5 7 3004.31 3092.34 279.68 o
9 5 7 62.10 -227.95 213.10 <
10 5 7 3228.57 2688.23 449.25 o
11 5 7 5560.03 5329.70 622.04 o
-9 6 7 2097.87 2003.03 505.70 o
-8 6 7 2166.79 1783.86 479.41 o
-7 6 7 420.16 663.17 241.20 <
-6 6 7 698.91 1259.50 241.95 o
-5 6 7 40437.47 39091.09 1229.73 o
-4 6 7 1977.23 2323.03 223.32 o
-3 6 7 7966.29 7365.60 338.68 o
-2 6 7 22.19 220.92 80.76 <
-1 6 7 7475.09 7874.08 225.30 o
0 6 7 1981.44 2483.24 135.34 o
1 6 7 28859.16 29402.15 630.55 o
2 6 7 14939.81 15011.93 355.81 o
3 6 7 1611.46 1616.07 125.73 o
4 6 7 2569.02 2794.57 145.45 o
5 6 7 74.04 51.06 70.86 <
6 6 7 38507.62 38315.42 1164.99 o
7 6 7 10857.05 11656.84 551.09 o
8 6 7 4515.21 4901.26 343.96 o
9 6 7 244.20 347.50 244.87 <
10 6 7 1792.59 2022.08 406.60 o
11 6 7 1052.61 885.08 354.14 <
-9 7 7 10213.75 9590.35 1025.09 o
-8 7 7 501.11 856.15 320.63 <
-7 7 7 680.95 477.92 255.50 <
-6 7 7 6229.57 6244.07 493.06 o
-5 7 7 3507.39 3984.27 297.04 o
-4 7 7 4710.91 5561.65 343.65 o
-3 7 7 4818.05 4888.74 315.55 o
-2 7 7 3074.00 3046.76 184.96 o
-1 7 7 3.29 97.18 81.81 <
0 7 7 100.26 246.71 73.73 o
1 7 7 6157.37 5499.66 175.84 o
2 7 7 76100.01 77143.77 1680.01 o
3 7 7 224.16 232.89 69.81 o
4 7 7 1179.20 1386.78 108.32 o
5 7 7 24247.39 24474.79 695.03 o
6 7 7 5098.94 5094.68 265.10 o
7 7 7 5887.40 6128.59 371.28 o
8 7 7 257.72 368.34 159.68 <
9 7 7 4682.52 4354.14 513.95 o
10 7 7 2163.00 1977.74 390.39 o
-8 8 7 1527.99 1865.60 375.15 o
-7 8 7 2471.68 2434.19 393.99 o
-6 8 7 2535.18 2757.33 376.80 o
-5 8 7 6479.86 6402.53 395.60 o
-4 8 7 125.27 -56.01 134.16 <
-3 8 7 8619.97 8343.19 335.75 o
-2 8 7 6568.85 6526.27 277.89 o
-1 8 7 2589.68 3286.36 198.79 o
0 8 7 6751.65 6367.99 284.60 o
1 8 7 18069.99 19174.93 546.67 o
2 8 7 6343.24 6048.51 212.72 o
3 8 7 25303.98 27117.66 759.65 o
4 8 7 4857.03 4719.72 223.80 o
5 8 7 578.52 894.15 116.94 o
6 8 7 29121.58 29854.07 986.78 o
7 8 7 68.77 256.35 149.54 <
8 8 7 2218.34 1852.54 239.44 o
9 8 7 3223.79 2305.61 399.57 o
10 8 7 0.44 -16.15 254.80 <
-8 9 7 52.31 206.59 422.04 <
-7 9 7 59.89 595.03 441.06 <
-6 9 7 82.68 274.85 376.19 <
-5 9 7 2485.27 2884.38 339.60 o
-4 9 7 759.43 586.50 209.39 <
-3 9 7 4772.42 5175.29 430.47 o
-2 9 7 11830.47 11109.05 443.01 o
-1 9 7 2605.90 3343.37 239.91 o
0 9 7 4349.54 4955.33 285.72 o
1 9 7 32564.03 32831.62 981.61 o
2 9 7 24426.19 25088.72 629.25 o
3 9 7 3717.67 4393.58 231.72 o
4 9 7 1447.89 1610.00 149.18 o
5 9 7 39.25 96.91 92.22 <
6 9 7 2407.71 2447.53 265.96 o
7 9 7 1923.72 2127.40 253.01 o
8 9 7 8483.26 7389.51 438.83 o
9 9 7 3859.91 3090.81 448.86 o
10 9 7 377.26 210.21 284.18 <
-7 10 7 1941.92 2102.36 563.79 o
-6 10 7 61.12 97.96 351.44 <
-5 10 7 700.59 631.31 251.59 <
-4 10 7 289.87 316.50 206.57 <
-3 10 7 18892.37 20531.77 936.38 o
-2 10 7 1080.18 1566.80 196.86 o
-1 10 7 170.60 142.76 118.79 <
0 10 7 6753.55 7153.12 337.35 o
1 10 7 220.47 81.02 146.14 <
2 10 7 22443.70 23513.80 806.00 o
3 10 7 1728.92 1874.27 170.51 o
4 10 7 14363.75 14458.40 550.68 o
5 10 7 908.11 1013.54 170.83 o
6 10 7 507.85 535.00 187.80 <
7 10 7 111.11 166.21 172.20 <
8 10 7 5473.79 5111.09 407.21 o
9 10 7 7732.98 6201.18 656.74 o
10 10 7 13.90 348.06 314.97 <
-6 11 7 148.60 176.10 433.23 <
-5 11 7 142.46 402.75 255.82 <
-4 11 7 431.62 565.23 247.97 <
-3 11 7 3117.54 3261.80 370.72 o
-2 11 7 22251.96 19654.88 937.75 o
-1 11 7 3904.00 3393.20 280.86 o
0 11 7 401.80 338.88 194.32 <
1 11 7 19058.18 18683.54 849.23 o
2 11 7 13.19 315.24 140.68 <
3 11 7 86.45 62.00 145.63 <
4 11 7 2176.49 2147.71 234.76 o
5 11 7 3770.97 3544.04 282.96 o
6 11 7 1174.33 712.68 214.04 o
7 11 7 985.92 856.22 232.28 o
8 11 7 3569.99 3636.65 546.98 o
10 11 7 395.89 182.07 308.14 <
-5 12 7 1626.72 851.80 452.19 <
-4 12 7 5698.52 6325.07 547.75 o
-3 12 7 5113.53 5205.31 489.94 o
-2 12 7 143.45 78.93 216.48 <
-1 12 7 4696.20 4497.37 460.66 o
0 12 7 5090.77 4609.33 454.59 o
1 12 7 188.62 267.02 208.92 <
2 12 7 10826.63 11117.78 614.62 o
3 12 7 4143.26 4194.79 390.56 o
4 12 7 4897.30 5699.18 455.41 o
5 12 7 2206.27 2548.75 340.68 o
6 12 7 78.36 13.81 202.42 <
7 12 7 102.26 25.27 211.28 <
8 12 7 8208.13 7752.23 822.17 o
9 12 7 1410.39 590.48 381.41 <
-4 13 7 936.41 466.66 276.04 <
-3 13 7 11368.69 12150.81 764.25 o
-2 13 7 2332.54 1498.24 320.36 o
-1 13 7 5687.95 5874.33 541.52 o
0 13 7 577.25 568.06 274.78 <
1 13 7 120.32 284.22 247.49 <
2 13 7 263.43 420.44 247.47 <
3 13 7 276.20 -19.80 199.02 <
4 13 7 8425.70 8252.90 562.63 o
5 13 7 1539.42 1346.75 365.78 o
6 13 7 430.06 385.50 321.69 <
7 13 7 58.89 177.41 251.92 <
8 13 7 3229.54 2920.19 592.31 o
9 13 7 5346.45 4385.76 674.83 o
-4 14 7 2158.10 3170.50 558.26 o
-3 14 7 219.82 172.71 268.84 <
-2 14 7 3443.01 3275.84 432.83 o
-1 14 7 454.06 531.62 282.35 <
0 14 7 6282.34 5687.99 553.84 o
1 14 7 315.72 164.11 272.73 <
2 14 7 45.33 283.19 260.26 <
3 14 7 1241.13 1016.78 295.53 o
4 14 7 6562.91 7443.82 852.72 o
5 14 7 2433.80 2297.08 501.21 o
6 14 7 558.71 404.23 366.47 <
7 14 7 1255.41 1021.70 431.18 <
-3 15 7 3211.43 3486.52 583.47 o
-2 15 7 977.92 1096.84 322.91 o
-1 15 7 384.39 284.97 271.42 <
0 15 7 1466.96 1382.46 346.79 o
1 15 7 855.44 1185.45 331.00 o
2 15 7 117.83 464.23 304.80 <
3 15 7 2198.58 1533.72 358.90 o
4 15 7 1518.22 1222.57 501.42 <
5 15 7 3401.37 3367.92 656.00 o
6 15 7 39.89 -180.28 358.74 <
0 16 7 1027.13 1814.47 555.70 o
1 16 7 765.65 571.65 298.20 <
2 16 7 238.26 442.59 288.37 <
3 16 7 689.75 2037.70 602.40 o
2 17 7 219.59 -76.33 412.89 <
-3 -14 8 921.08 678.11 590.61 <
-2 -14 8 27.03 872.23 565.60 <
-1 -14 8 20.91 589.83 538.50 <
-5 -13 8 86.58 -327.99 370.45 <
-4 -13 8 422.57 -163.06 223.75 <
-3 -13 8 3039.29 2834.62 362.91 o
-2 -13 8 27.62 91.44 248.02 <
-1 -13 8 1589.05 1994.92 336.09 o
0 -13 8 486.73 353.71 306.31 <
1 -13 8 88.65 -436.36 431.41 <
2 -13 8 280.20 -381.62 485.30 <
-6 -12 8 434.32 577.99 328.72 <
-5 -12 8 96.75 415.26 320.69 <
-4 -12 8 1903.90 1028.16 254.57 o
-3 -12 8 20.01 -124.79 200.08 <
-2 -12 8 11.99 554.66 243.59 <
-1 -12 8 867.87 958.09 264.33 o
0 -12 8 1074.17 976.23 253.37 o
1 -12 8 739.82 349.77 248.98 <
2 -12 8 259.65 239.66 243.04 <
3 -12 8 3146.28 3073.03 709.40 o
-7 -11 8 1214.46 1312.03 349.94 o
-6 -11 8 6.41 159.18 256.62 <
-5 -11 8 1196.97 1899.48 368.18 o
-4 -11 8 898.35 573.70 185.68 o
-3 -11 8 2248.54 2126.04 279.52 o
-2 -11 8 3358.93 2858.76 313.45 o
-1 -11 8 2304.65 2956.97 282.11 o
0 -11 8 94.70 -156.57 171.68 <
1 -11 8 36.12 167.78 212.07 <
2 -11 8 590.81 596.18 238.06 <
3 -11 8 2398.76 2024.64 321.91 o
4 -11 8 1303.09 1418.22 312.96 o
-8 -10 8 3964.04 3667.94 747.84 o
-7 -10 8 617.51 760.52 302.90 <
-6 -10 8 1502.52 1358.22 330.64 o
-5 -10 8 24.54 117.24 176.90 <
-4 -10 8 23.32 429.86 164.65 <
-3 -10 8 168.48 275.36 158.65 <
-2 -10 8 420.73 307.10 183.90 <
-1 -10 8 7270.35 7423.04 386.11 o
0 -10 8 2156.27 2731.26 277.97 o
1 -10 8 567.98 440.96 197.17 <
2 -10 8 275.18 413.92 203.45 <
3 -10 8 5240.00 5748.93 428.57 o
4 -10 8 1553.03 1074.16 265.29 o
5 -10 8 738.75 1040.71 279.45 o
6 -10 8 45.32 -101.86 401.46 <
-8 -9 8 1143.23 1688.08 340.06 o
-7 -9 8 1795.77 2109.02 355.32 o
-6 -9 8 2450.74 2503.69 360.94 o
-5 -9 8 5208.95 5493.29 315.78 o
-4 -9 8 649.37 707.38 155.23 o
-3 -9 8 230.60 150.05 138.06 <
-2 -9 8 6702.09 5949.98 288.81 o
-1 -9 8 4806.25 5200.55 307.78 o
0 -9 8 1303.83 840.74 187.99 o
1 -9 8 51.34 337.11 168.56 <
2 -9 8 432.83 532.15 191.19 <
3 -9 8 678.23 812.33 220.86 o
4 -9 8 3033.54 3120.14 323.12 o
5 -9 8 36.20 65.91 199.30 <
6 -9 8 4926.68 6126.42 463.45 o
7 -9 8 528.07 808.99 444.35 <
-9 -8 8 95.82 64.61 404.32 <
-8 -8 8 1594.32 1672.11 319.43 o
-7 -8 8 93.94 389.47 224.04 <
-6 -8 8 2127.32 2561.07 346.94 o
-5 -8 8 4381.96 3882.09 249.34 o
-4 -8 8 1380.81 1558.78 177.31 o
-3 -8 8 371.55 419.12 130.50 o
-2 -8 8 3166.08 3187.82 207.08 o
-1 -8 8 14115.28 13538.87 423.68 o
0 -8 8 3866.76 4973.38 319.09 o
1 -8 8 3934.33 3995.70 297.50 o
2 -8 8 41.54 430.12 163.87 <
3 -8 8 7271.11 8232.34 444.53 o
4 -8 8 303.98 331.08 182.60 <
5 -8 8 479.03 849.13 228.69 o
6 -8 8 959.70 974.46 248.43 o
7 -8 8 2451.07 2517.17 500.15 o
-9 -7 8 827.55 724.50 467.46 <
-8 -7 8 505.16 602.98 249.79 <
-7 -7 8 71.72 -180.28 171.16 <
-6 -7 8 9546.93 10082.45 444.06 o
-5 -7 8 8733.88 8313.95 332.39 o
-4 -7 8 71.18 42.99 103.17 <
-3 -7 8 46.12 111.24 93.01 <
-2 -7 8 7499.37 7145.07 275.71 o
-1 -7 8 7094.46 6978.10 273.94 o
0 -7 8 1135.88 1203.25 146.08 o
1 -7 8 17.60 131.30 126.61 <
2 -7 8 4142.46 4151.29 292.01 o
3 -7 8 142.39 341.79 148.23 <
4 -7 8 6069.02 6160.34 377.49 o
5 -7 8 11425.41 12766.31 541.38 o
6 -7 8 4534.24 4503.67 348.90 o
7 -7 8 26.13 209.20 193.57 <
-10 -6 8 3347.37 3012.75 362.32 o
-9 -6 8 501.72 897.82 268.80 o
-8 -6 8 79.38 177.93 199.56 <
-7 -6 8 657.78 863.65 231.02 o
-6 -6 8 5715.30 5466.82 329.22 o
-5 -6 8 12071.42 12793.21 432.13 o
-4 -6 8 2109.55 1883.58 196.24 o
-3 -6 8 694.05 628.45 98.19 o
-2 -6 8 1844.05 2119.10 149.67 o
-1 -6 8 14790.28 14688.61 419.60 o
0 -6 8 1422.29 1574.08 145.80 o
1 -6 8 16466.29 16851.93 580.05 o
2 -6 8 361.21 1061.47 158.11 o
3 -6 8 438.22 612.89 149.25 o
4 -6 8 768.94 710.46 161.73 o
5 -6 8 495.94 692.06 171.13 o
6 -6 8 14935.28 16237.07 618.63 o
7 -6 8 1076.28 1265.53 215.35 o
8 -6 8 500.83 -142.21 371.68 <
-10 -5 8 5622.01 5408.35 499.63 o
-9 -5 8 3869.99 4151.73 424.15 o
-8 -5 8 169.52 320.42 214.92 <
-7 -5 8 685.44 843.84 234.92 o
-6 -5 8 11623.48 11677.17 473.69 o
-5 -5 8 10929.64 11589.51 391.40 o
-4 -5 8 4.30 -70.34 86.76 <
-3 -5 8 277.94 357.14 87.00 o
-2 -5 8 3965.18 3752.29 185.66 o
-1 -5 8 24.12 603.89 96.13 o
0 -5 8 3093.33 2702.07 176.11 o
1 -5 8 5691.60 5742.98 239.55 o
2 -5 8 28628.21 29379.44 899.83 o
3 -5 8 3223.06 4244.30 268.46 o
4 -5 8 335.91 684.30 146.65 o
5 -5 8 15472.49 14446.31 444.12 o
6 -5 8 4846.96 5090.79 326.23 o
7 -5 8 2247.45 2445.64 245.16 o
8 -5 8 781.91 879.74 379.45 <
-10 -4 8 5508.56 4975.33 476.28 o
-9 -4 8 4496.60 4074.11 307.81 o
-8 -4 8 106.69 285.00 137.03 <
-7 -4 8 136.75 316.00 136.25 <
-6 -4 8 6364.65 6224.66 275.61 o
-5 -4 8 10953.96 10803.97 325.29 o
-4 -4 8 524.37 934.54 102.88 o
-3 -4 8 13003.97 13240.57 366.09 o
-2 -4 8 3.61 156.84 73.73 <
-1 -4 8 13771.71 12712.75 359.96 o
0 -4 8 11180.17 11016.69 305.23 o
1 -4 8 7022.34 8000.51 248.21 o
2 -4 8 5764.03 5897.02 231.48 o
3 -4 8 10562.05 9825.48 384.93 o
4 -4 8 1156.41 1357.39 164.04 o
5 -4 8 7998.69 8180.99 290.70 o
6 -4 8 12338.77 11835.91 466.54 o
7 -4 8 617.94 431.57 154.19 <
8 -4 8 1261.03 1757.79 424.93 o
9 -4 8 512.01 320.63 353.19 <
-10 -3 8 9285.12 8275.84 579.42 o
-9 -3 8 4602.38 5256.79 342.90 o
-8 -3 8 46.14 175.59 135.47 <
-7 -3 8 7.54 -143.55 109.68 <
-6 -3 8 9204.29 9668.68 342.69 o
-5 -3 8 4326.82 4424.66 218.66 o
-4 -3 8 2487.26 2932.67 160.03 o
-3 -3 8 1934.24 2575.77 130.92 o
-2 -3 8 9728.07 9814.88 289.37 o
-1 -3 8 7.09 80.50 65.13 <
0 -3 8 5056.06 4476.15 188.15 o
1 -3 8 47091.06 46262.04 1097.52 o
2 -3 8 11769.75 10566.08 296.33 o
3 -3 8 591.98 462.56 92.72 o
4 -3 8 935.91 862.74 104.69 o
5 -3 8 5217.43 5413.26 232.60 o
6 -3 8 6945.67 7089.53 325.65 o
7 -3 8 6.35 169.60 127.66 <
8 -3 8 2226.93 2142.72 431.25 o
9 -3 8 509.60 272.97 326.10 <
-10 -2 8 7495.90 6648.95 522.82 o
-9 -2 8 3775.25 4381.64 328.47 o
-8 -2 8 54.38 96.91 133.39 <
-7 -2 8 279.65 284.72 133.37 <
-6 -2 8 950.78 1167.95 117.19 o
-5 -2 8 10512.78 11468.10 333.38 o
-4 -2 8 4642.42 4924.99 193.66 o
-3 -2 8 39002.38 37155.80 790.88 o
-2 -2 8 688.76 1866.83 110.17 o
-1 -2 8 1171.04 1652.87 95.30 o
0 -2 8 6327.08 5228.95 168.03 o
1 -2 8 7579.74 8329.38 228.14 o
2 -2 8 27104.26 26489.93 564.42 o
3 -2 8 86.70 435.58 78.94 o
4 -2 8 3920.38 3461.89 167.72 o
5 -2 8 3380.04 3555.22 171.93 o
6 -2 8 4900.79 4645.28 238.10 o
7 -2 8 35.34 -34.65 114.89 <
8 -2 8 13703.18 12301.49 875.53 o
9 -2 8 917.77 2047.39 420.05 o
10 -2 8 165.21 67.73 309.74 <
-10 -1 8 6267.27 5749.76 345.46 o
-9 -1 8 2703.31 2818.22 247.19 o
-8 -1 8 2778.91 3080.96 260.97 o
-7 -1 8 859.88 774.50 152.09 o
-6 -1 8 1834.34 2276.11 146.81 o
-5 -1 8 554.51 1399.45 115.38 o
-4 -1 8 1086.10 1660.78 108.06 o
-3 -1 8 21203.69 21564.00 439.58 o
-2 -1 8 36337.34 36002.35 690.38 o
-1 -1 8 9376.84 9824.59 231.56 o
0 -1 8 3513.47 3793.10 133.16 o
1 -1 8 42189.23 41922.41 844.91 o
2 -1 8 6959.44 6784.32 213.15 o
3 -1 8 783.34 983.89 96.10 o
4 -1 8 5135.84 5460.38 196.47 o
5 -1 8 2570.13 2504.00 170.44 o
6 -1 8 448.77 433.95 107.84 o
7 -1 8 979.94 957.26 168.22 o
8 -1 8 4913.84 5699.93 435.92 o
9 -1 8 12025.80 12304.89 655.45 o
10 -1 8 177.22 231.85 296.19 <
-10 0 8 3334.02 2439.59 342.57 o
-9 0 8 589.60 394.07 156.53 <
-8 0 8 1540.46 1439.69 189.27 o
-7 0 8 9818.23 10051.02 437.78 o
-6 0 8 0.45 -47.94 80.24 <
-5 0 8 2252.45 3084.22 162.92 o
-4 0 8 37076.46 37343.00 793.32 o
-3 0 8 14437.70 16210.21 345.60 o
-2 0 8 7338.35 7312.81 187.16 o
-1 0 8 5811.86 5921.15 161.84 o
0 0 8 452.73 836.88 71.37 o
1 0 8 15487.67 16676.04 351.03 o
2 0 8 12889.32 11847.42 311.65 o
3 0 8 1812.39 1749.96 101.78 o
4 0 8 12734.13 12325.61 358.34 o
5 0 8 1200.78 1423.75 133.05 o
6 0 8 7313.71 7344.54 279.11 o
7 0 8 8163.83 7911.92 363.88 o
8 0 8 17217.21 16918.69 776.67 o
9 0 8 970.10 1302.83 255.98 o
10 0 8 1996.32 1656.69 436.75 o
11 0 8 101.90 266.77 355.34 <
-10 1 8 2876.06 2945.63 398.58 o
-9 1 8 44.71 241.50 220.66 <
-8 1 8 8931.93 9044.60 454.82 o
-7 1 8 2327.73 3015.75 254.52 o
-6 1 8 4016.36 4463.60 238.72 o
-5 1 8 808.97 889.88 115.37 o
-4 1 8 1616.42 2540.25 117.41 o
-3 1 8 56786.57 57249.84 1063.44 o
-2 1 8 2957.01 4012.21 132.93 o
-1 1 8 910.18 1016.63 71.87 o
0 1 8 3298.49 2956.75 107.42 o
1 1 8 15245.08 14520.41 293.16 o
2 1 8 959.14 1129.88 82.81 o
3 1 8 20042.76 21383.73 423.26 o
4 1 8 7046.81 6919.48 258.08 o
5 1 8 2349.53 2686.92 148.33 o
6 1 8 2416.49 2902.10 183.20 o
7 1 8 125.36 229.77 127.39 <
8 1 8 27680.05 26703.87 1106.44 o
9 1 8 7122.62 6622.62 475.72 o
10 1 8 1121.95 1625.87 414.02 o
11 1 8 401.20 669.68 389.67 <
-10 2 8 205.47 83.36 248.00 <
-9 2 8 24.18 129.22 228.48 <
-8 2 8 10402.26 9665.60 696.94 o
-7 2 8 19636.94 19053.76 802.89 o
-6 2 8 1029.34 1620.48 160.41 o
-5 2 8 1627.26 2054.50 169.73 o
-4 2 8 15408.70 15527.21 355.31 o
-3 2 8 5049.43 6082.33 169.70 o
-2 2 8 12515.06 12005.67 268.23 o
-1 2 8 3867.96 3887.84 124.81 o
0 2 8 1048.88 1068.64 68.22 o
1 2 8 933.52 1407.23 80.73 o
2 2 8 1836.74 1633.82 81.99 o
3 2 8 8741.96 8653.26 208.04 o
4 2 8 53906.54 55437.37 1187.41 o
5 2 8 17.62 46.63 69.30 <
6 2 8 43.24 -26.83 82.59 <
7 2 8 15086.05 14162.32 525.42 o
8 2 8 4103.21 4224.54 359.89 o
9 2 8 7855.22 7441.71 485.16 o
10 2 8 129.83 157.87 298.81 <
11 2 8 1499.31 1731.25 443.88 o
-9 3 8 2554.97 3243.84 465.27 o
-8 3 8 5092.49 5613.13 566.36 o
-7 3 8 11137.79 10335.22 511.38 o
-6 3 8 6453.06 6176.54 359.75 o
-5 3 8 5500.93 5734.44 276.74 o
-4 3 8 9549.45 10298.98 292.79 o
-3 3 8 13235.83 12543.04 301.29 o
-2 3 8 11.33 -14.85 49.76 <
-1 3 8 12818.45 12719.79 299.23 o
0 3 8 2656.24 2782.36 105.89 o
1 3 8 4113.51 3934.15 122.97 o
2 3 8 8629.14 9002.29 198.70 o
3 3 8 12821.77 12816.46 381.32 o
4 3 8 7089.34 5636.25 192.38 o
5 3 8 29194.62 30148.76 683.76 o
6 3 8 2155.91 2045.15 151.73 o
7 3 8 957.08 1081.23 204.94 o
8 3 8 21557.01 20887.13 896.32 o
9 3 8 47.65 193.31 183.15 <
10 3 8 313.73 470.44 335.51 <
11 3 8 2156.91 2157.00 486.42 o
-9 4 8 91.21 -289.43 254.78 <
-8 4 8 17694.50 17498.18 1150.35 o
-7 4 8 4931.44 5326.10 391.72 o
-6 4 8 21.13 -161.26 130.52 <
-5 4 8 11.91 499.17 155.27 o
-4 4 8 171.65 359.24 84.14 o
-3 4 8 8038.15 8615.04 260.03 o
-2 4 8 744.46 1196.94 100.27 o
-1 4 8 7109.01 7073.50 178.61 o
0 4 8 20901.81 19899.02 373.79 o
1 4 8 183.41 271.18 52.62 o
2 4 8 4048.40 4383.90 137.80 o
3 4 8 50594.29 48942.27 1209.95 o
4 4 8 18355.93 17441.87 428.09 o
5 4 8 352.60 272.47 74.76 o
6 4 8 4053.84 4213.03 207.51 o
7 4 8 40.10 4.69 138.86 <
8 4 8 3792.92 3619.17 326.13 o
9 4 8 1535.95 1782.83 265.03 o
10 4 8 5513.89 5980.80 664.19 o
11 4 8 2010.74 2571.25 502.59 o
-9 5 8 404.90 511.58 368.31 <
-8 5 8 3353.38 3415.92 538.97 o
-7 5 8 13696.04 13423.85 670.25 o
-6 5 8 274.67 390.48 169.84 <
-5 5 8 4664.06 4618.99 291.68 o
-4 5 8 163.95 292.29 99.25 <
-3 5 8 4377.61 4121.97 209.02 o
-2 5 8 2249.78 2340.09 150.42 o
-1 5 8 42324.28 43641.21 874.21 o
0 5 8 820.55 1016.16 86.46 o
1 5 8 1830.25 1376.94 93.44 o
2 5 8 4360.90 4749.32 150.52 o
3 5 8 135.49 332.41 84.67 o
4 5 8 37370.35 36512.68 809.26 o
5 5 8 2863.09 3079.66 176.40 o
6 5 8 11060.96 10842.36 421.68 o
7 5 8 1520.25 1317.34 203.59 o
8 5 8 1033.49 1112.44 209.89 o
9 5 8 3.95 -143.03 162.05 <
10 5 8 5374.05 5764.44 659.03 o
11 5 8 6503.13 6030.95 687.45 o
-9 6 8 990.50 1327.28 459.35 <
-8 6 8 3616.57 3853.99 602.62 o
-7 6 8 1565.74 1927.03 304.86 o
-6 6 8 50.04 36.47 173.25 <
-5 6 8 6614.08 5972.97 342.84 o
-4 6 8 93.27 232.38 130.26 <
-3 6 8 481.08 627.47 137.79 o
-2 6 8 398.96 422.75 93.25 o
-1 6 8 21728.95 21835.14 595.66 o
0 6 8 49457.90 49544.40 1110.16 o
1 6 8 7080.37 7108.67 231.32 o
2 6 8 8.88 49.50 73.21 <
3 6 8 29657.49 28051.60 888.33 o
4 6 8 118.04 163.60 82.84 <
5 6 8 1789.11 2546.58 200.18 o
6 6 8 3214.47 3111.49 224.50 o
7 6 8 3539.66 3812.83 316.28 o
8 6 8 2152.24 2121.98 255.32 o
9 6 8 1027.15 1315.30 337.74 o
10 6 8 4613.19 5485.45 634.05 o
11 6 8 7867.76 7589.00 774.97 o
-9 7 8 600.48 500.33 418.29 <
-8 7 8 2319.09 1790.48 513.20 o
-7 7 8 928.74 634.37 262.76 <
-6 7 8 1515.40 1855.74 294.71 o
-5 7 8 10804.32 9554.04 436.02 o
-4 7 8 1905.54 2286.18 237.91 o
-3 7 8 2328.16 2702.60 237.60 o
-2 7 8 21747.86 22909.88 636.01 o
-1 7 8 13308.56 13617.16 416.75 o
0 7 8 3376.11 3515.00 195.34 o
1 7 8 17584.86 19284.14 546.81 o
2 7 8 10179.36 10413.71 341.94 o
3 7 8 3268.64 3260.84 227.34 o
4 7 8 18502.07 17359.12 601.92 o
5 7 8 5171.63 4537.75 263.53 o
6 7 8 7613.08 7233.38 332.04 o
7 7 8 3368.97 3531.69 309.81 o
8 7 8 209.02 40.90 147.18 <
9 7 8 398.79 462.61 276.11 <
10 7 8 11659.82 10727.10 851.89 o
-7 8 8 265.40 122.17 258.93 <
-6 8 8 4729.55 3765.78 418.80 o
-5 8 8 4657.32 4969.82 352.78 o
-4 8 8 6446.61 5418.11 362.35 o
-3 8 8 531.43 300.31 147.94 <
-2 8 8 969.41 1189.80 151.30 o
-1 8 8 43270.00 44548.63 1514.21 o
0 8 8 6318.25 6616.33 295.84 o
1 8 8 7087.42 7518.94 319.36 o
2 8 8 2454.68 3289.46 193.34 o
3 8 8 264.58 338.38 119.05 <
4 8 8 794.06 988.33 151.05 o
5 8 8 475.80 358.93 121.38 <
6 8 8 16941.89 16637.76 736.41 o
7 8 8 3051.47 2439.27 270.05 o
8 8 8 647.24 847.24 200.55 o
9 8 8 0.36 208.42 258.96 <
10 8 8 7608.33 8078.02 725.54 o
-8 9 8 30.95 504.11 473.89 <
-7 9 8 147.94 1143.89 482.46 <
-6 9 8 2837.91 2834.72 534.68 o
-5 9 8 18086.93 18407.68 860.83 o
-4 9 8 149.47 286.56 198.25 <
-3 9 8 450.07 468.85 204.47 <
-2 9 8 5686.93 6582.92 332.33 o
-1 9 8 66.52 727.37 139.12 o
0 9 8 17120.90 17377.05 592.02 o
1 9 8 917.93 921.08 142.45 o
2 9 8 17198.17 17009.18 747.03 o
3 9 8 1439.08 1418.91 177.56 o
4 9 8 17.67 68.52 109.68 <
5 9 8 2913.48 2717.27 228.17 o
6 9 8 17527.46 16454.08 744.75 o
7 9 8 4411.76 4180.00 353.86 o
8 9 8 200.65 -74.24 167.76 <
9 9 8 2090.92 2350.26 441.42 o
10 9 8 2029.76 1661.07 410.19 o
-7 10 8 533.33 1005.64 486.28 <
-6 10 8 958.56 1329.40 493.74 <
-5 10 8 5080.89 5050.71 702.56 o
-4 10 8 10109.15 10371.56 596.94 o
-3 10 8 8371.18 7445.66 550.18 o
-2 10 8 102.03 3.65 183.66 <
-1 10 8 12713.47 12841.09 496.73 o
0 10 8 1529.09 1699.77 190.31 o
1 10 8 141.97 183.14 150.84 <
2 10 8 6203.75 6001.23 406.02 o
3 10 8 1733.77 2131.47 256.93 o
4 10 8 13.96 196.70 135.21 <
5 10 8 4437.14 4844.72 313.03 o
6 10 8 6929.38 6656.02 451.61 o
7 10 8 9017.13 8946.70 511.88 o
8 10 8 153.10 496.27 206.58 <
9 10 8 506.98 171.13 299.01 <
10 10 8 6026.10 4324.62 586.04 o
-5 11 8 2398.82 2359.83 590.74 o
-4 11 8 20.55 45.59 220.92 <
-3 11 8 997.68 1126.26 261.71 o
-2 11 8 6112.79 4807.74 470.75 o
-1 11 8 1069.76 1199.13 197.64 o
0 11 8 3362.11 3197.93 341.02 o
1 11 8 10228.11 11347.30 602.07 o
2 11 8 7221.21 7108.31 447.39 o
3 11 8 1184.51 954.05 215.60 o
4 11 8 799.13 1196.68 217.98 o
5 11 8 4049.80 4228.80 315.17 o
6 11 8 12085.21 12110.80 650.02 o
7 11 8 53.97 -31.26 190.70 <
8 11 8 322.82 772.35 235.74 o
9 11 8 593.02 675.62 384.43 <
-5 12 8 10230.15 9559.78 1096.22 o
-4 12 8 5.14 341.55 258.96 <
-3 12 8 5998.32 5970.63 524.55 o
-2 12 8 43.55 69.30 228.74 <
-1 12 8 146.45 220.91 235.50 <
0 12 8 24.83 55.23 198.00 <
1 12 8 4269.54 4759.57 433.96 o
2 12 8 8209.70 7985.30 558.27 o
3 12 8 644.59 742.28 229.20 o
4 12 8 199.91 335.27 200.59 <
5 12 8 86.91 -159.70 229.25 <
6 12 8 8422.92 8917.68 752.33 o
7 12 8 3037.72 2970.76 365.52 o
8 12 8 4710.68 4564.43 649.35 o
9 12 8 59.57 -115.93 314.97 <
-4 13 8 1091.44 1191.56 324.45 o
-3 13 8 2550.37 2242.31 373.67 o
-2 13 8 5347.10 5280.33 519.25 o
-1 13 8 363.41 138.58 257.62 <
0 13 8 67.93 -2.08 223.79 <
1 13 8 3292.54 3182.47 406.07 o
2 13 8 11779.90 12913.98 726.04 o
3 13 8 27.19 262.87 221.18 <
4 13 8 1190.63 1262.86 284.34 o
5 13 8 3433.43 4222.69 583.96 o
6 13 8 219.92 324.32 329.27 <
7 13 8 851.49 1060.96 385.95 <
9 13 8 4691.00 4491.57 703.89 o
-4 14 8 1883.55 2459.51 527.61 o
-3 14 8 858.47 647.67 304.43 <
-2 14 8 2713.56 2256.18 398.10 o
-1 14 8 67.73 163.61 272.50 <
0 14 8 109.70 146.15 281.09 <
1 14 8 3931.78 3840.49 484.48 o
2 14 8 1238.98 1629.45 339.27 o
3 14 8 2896.95 2463.63 383.50 o
4 14 8 2111.62 2128.25 501.81 o
5 14 8 607.00 487.05 367.50 <
6 14 8 6684.99 6770.34 770.82 o
7 14 8 615.82 1021.23 420.11 <
-2 15 8 1231.32 1050.88 421.03 <
-1 15 8 395.57 356.60 294.60 <
0 15 8 571.40 133.88 274.78 <
1 15 8 3541.97 3709.77 510.83 o
2 15 8 3725.93 4492.02 536.80 o
3 15 8 1899.72 2324.71 415.95 o
4 15 8 96.94 -37.51 362.90 <
5 15 8 950.80 1001.02 478.37 <
0 16 8 536.42 260.98 463.10 <
1 16 8 223.29 -215.69 435.82 <
2 16 8 2342.25 3134.31 648.51 o
-4 -13 9 276.78 203.44 456.38 <
-3 -13 9 1099.00 -437.71 414.54 <
-2 -13 9 347.75 857.51 566.29 <
-1 -13 9 151.52 366.01 531.44 <
1 -13 9 2492.17 1986.22 640.65 o
-6 -12 9 602.69 676.65 471.15 <
-5 -12 9 48.50 89.36 424.91 <
-4 -12 9 2883.38 3004.18 348.63 o
-3 -12 9 1881.58 1983.45 316.78 o
-2 -12 9 26.59 39.60 217.80 <
-1 -12 9 42.35 -14.07 233.95 <
0 -12 9 925.22 1094.78 274.74 o
1 -12 9 1509.49 750.04 512.61 <
2 -12 9 524.52 91.16 500.09 <
-6 -11 9 64.97 262.34 293.87 <
-5 -11 9 82.16 297.51 283.44 <
-4 -11 9 1485.01 1286.89 251.75 o
-3 -11 9 4497.19 3195.17 337.20 o
-2 -11 9 704.37 401.86 217.73 <
-1 -11 9 383.97 165.93 224.27 <
0 -11 9 518.87 567.29 225.04 <
1 -11 9 4024.54 4600.63 405.92 o
2 -11 9 114.32 180.54 238.63 <
3 -11 9 1692.43 1442.95 302.75 o
-7 -10 9 1810.44 2045.18 384.46 o
-6 -10 9 627.56 490.17 272.95 <
-5 -10 9 119.99 -15.11 189.13 <
-4 -10 9 4943.92 4992.74 333.23 o
-3 -10 9 3298.46 2931.41 296.55 o
-2 -10 9 83.65 82.32 185.23 <
-1 -10 9 35.33 -142.25 141.46 <
0 -10 9 376.77 376.14 197.45 <
1 -10 9 380.41 405.83 203.70 <
2 -10 9 897.66 1408.61 257.03 o
3 -10 9 1395.73 1063.30 264.00 o
4 -10 9 4030.79 4954.97 434.26 o
5 -10 9 880.62 1346.62 527.35 <
-8 -9 9 3197.33 2698.26 686.47 o
-7 -9 9 2041.81 1378.16 331.07 o
-6 -9 9 10.07 105.77 245.42 <
-5 -9 9 15.66 340.77 187.06 <
-4 -9 9 2893.98 2866.40 247.69 o
-3 -9 9 6704.37 7036.95 371.92 o
-2 -9 9 128.21 -26.83 152.92 <
-1 -9 9 4044.42 3405.00 265.24 o
0 -9 9 223.16 516.05 174.27 <
1 -9 9 4929.47 4986.11 358.19 o
2 -9 9 3003.63 3323.12 310.64 o
3 -9 9 1453.87 1577.22 259.57 o
4 -9 9 1326.23 1350.52 264.01 o
5 -9 9 1073.46 937.17 263.26 o
6 -9 9 457.33 87.00 270.37 <
-8 -8 9 6903.70 7227.28 599.57 o
-7 -8 9 3307.06 2954.22 395.91 o
-6 -8 9 319.45 133.11 217.25 <
-5 -8 9 157.35 161.78 138.33 <
-4 -8 9 5167.94 4784.13 290.06 o
-3 -8 9 2904.02 2989.20 238.06 o
-2 -8 9 182.72 389.98 119.83 o
-1 -8 9 669.31 566.99 147.41 o
0 -8 9 2920.94 3082.31 262.00 o
1 -8 9 1104.17 834.82 180.97 o
2 -8 9 469.05 497.76 178.16 <
3 -8 9 15918.04 15968.20 808.69 o
4 -8 9 2733.18 3167.93 314.32 o
5 -8 9 107.52 210.23 202.16 <
6 -8 9 133.19 59.66 218.57 <
7 -8 9 1023.47 1693.12 441.90 o
-9 -7 9 1638.72 1542.39 556.04 <
-8 -7 9 5469.72 5405.18 496.06 o
-7 -7 9 4215.65 3730.19 403.80 o
-6 -7 9 4.80 -84.93 187.84 <
-5 -7 9 141.42 126.35 118.01 <
-4 -7 9 1105.83 1620.17 170.82 o
-3 -7 9 7216.49 7356.13 323.02 o
-2 -7 9 1749.18 1831.06 159.57 o
-1 -7 9 13279.59 12121.77 390.45 o
0 -7 9 744.11 1298.28 179.18 o
1 -7 9 208.71 383.20 145.36 <
2 -7 9 2803.70 2618.29 248.74 o
3 -7 9 3220.68 3480.42 290.84 o
4 -7 9 10251.78 10643.39 480.48 o
5 -7 9 56.99 403.02 186.01 <
6 -7 9 522.07 820.98 211.50 o
7 -7 9 1336.41 997.19 244.74 o
-9 -6 9 1656.46 1521.31 540.16 <
-8 -6 9 7555.83 8129.18 998.43 o
-7 -6 9 2961.27 2283.25 551.56 o
-6 -6 9 1591.95 1549.52 249.92 o
-5 -6 9 65.05 96.91 126.35 <
-4 -6 9 1366.72 1710.32 197.09 o
-3 -6 9 58.28 427.77 118.02 o
-2 -6 9 356.08 792.91 116.44 o
-1 -6 9 11326.76 11418.39 359.95 o
0 -6 9 12493.21 10488.46 413.62 o
1 -6 9 5266.13 4940.69 300.43 o
2 -6 9 4412.39 3916.00 276.63 o
3 -6 9 16516.88 15680.06 579.62 o
4 -6 9 3153.64 3232.09 274.20 o
5 -6 9 0.56 -125.83 147.46 <
6 -6 9 532.53 512.59 182.32 <
7 -6 9 1057.45 746.82 209.88 o
-9 -5 9 794.93 829.46 468.51 <
-8 -5 9 4162.36 3929.18 692.96 o
-7 -5 9 2693.27 3053.49 601.59 o
-6 -5 9 1076.76 1488.17 255.19 o
-5 -5 9 7505.81 7709.31 381.39 o
-4 -5 9 338.89 410.79 126.08 o
-3 -5 9 2658.08 2553.38 180.32 o
-2 -5 9 23114.01 22913.99 655.53 o
-1 -5 9 8812.61 8476.98 287.98 o
0 -5 9 3261.08 4434.10 231.25 o
1 -5 9 1964.82 2067.97 189.75 o
2 -5 9 202.47 430.61 125.56 o
3 -5 9 8705.48 8880.84 381.16 o
4 -5 9 8256.05 7103.36 356.08 o
5 -5 9 196.46 300.10 144.32 <
6 -5 9 3206.98 3457.56 281.99 o
7 -5 9 12.23 40.90 161.27 <
8 -5 9 2412.59 3126.42 569.65 o
-9 -4 9 82.99 47.15 207.37 <
-8 -4 9 4729.90 4957.85 338.98 o
-7 -4 9 131.44 233.16 140.94 <
-6 -4 9 5830.82 6517.79 297.76 o
-5 -4 9 2648.83 3248.70 184.23 o
-4 -4 9 3107.42 4092.41 229.97 o
-3 -4 9 35.05 262.35 86.49 o
-2 -4 9 1372.62 2222.93 162.98 o
-1 -4 9 41949.48 42744.76 1115.94 o
0 -4 9 3255.78 3410.46 185.73 o
1 -4 9 1693.11 1337.25 153.59 o
2 -4 9 2786.92 2562.28 207.89 o
3 -4 9 7266.49 6394.34 304.81 o
4 -4 9 1834.29 2016.84 200.17 o
5 -4 9 2383.70 2488.68 225.63 o
6 -4 9 1812.27 1555.09 200.18 o
7 -4 9 571.21 558.68 163.57 o
8 -4 9 178.10 55.49 317.82 <
-9 -3 9 255.97 115.66 201.88 <
-8 -3 9 769.79 734.16 180.74 o
-7 -3 9 1094.68 1514.46 191.39 o
-6 -3 9 11127.35 11395.03 397.86 o
-5 -3 9 18786.40 18819.26 502.81 o
-4 -3 9 538.91 1378.62 123.20 o
-3 -3 9 579.85 954.31 94.81 o
-2 -3 9 15799.75 14794.24 446.00 o
-1 -3 9 7653.37 8162.32 254.63 o
0 -3 9 10301.84 11090.88 315.74 o
1 -3 9 2178.91 2310.27 152.25 o
2 -3 9 763.26 652.12 123.44 o
3 -3 9 2213.08 2277.74 192.33 o
4 -3 9 4016.68 3643.37 247.29 o
5 -3 9 3716.04 4004.68 213.00 o
6 -3 9 17902.74 17236.26 606.14 o
7 -3 9 38.02 60.44 134.17 <
8 -3 9 0.48 328.00 314.72 <
9 -3 9 5497.10 5431.12 670.15 o
-9 -2 9 545.02 552.18 223.21 <
-8 -2 9 409.09 314.14 145.35 <
-7 -2 9 1636.08 2136.28 184.57 o
-6 -2 9 5539.39 6438.59 279.87 o
-5 -2 9 16041.79 15941.22 440.10 o
-4 -2 9 7798.52 8120.37 268.65 o
-3 -2 9 5280.97 6131.39 198.54 o
-2 -2 9 10924.75 11559.24 273.92 o
-1 -2 9 26595.59 25767.77 523.79 o
0 -2 9 1121.79 804.59 91.92 o
1 -2 9 8248.64 7410.29 258.44 o
2 -2 9 1353.61 1597.55 132.26 o
3 -2 9 2122.18 2541.99 162.66 o
4 -2 9 728.71 675.57 105.74 o
5 -2 9 4835.26 5011.12 231.35 o
6 -2 9 6779.08 7379.70 335.29 o
7 -2 9 9758.16 9217.29 510.16 o
8 -2 9 1874.36 2126.92 413.10 o
9 -2 9 1694.17 2011.75 429.01 o
-9 -1 9 5200.36 5440.01 485.21 o
-8 -1 9 38.46 -11.46 176.37 <
-7 -1 9 77.26 186.53 131.82 <
-6 -1 9 26139.90 26258.67 661.68 o
-5 -1 9 9347.06 11007.22 334.09 o
-4 -1 9 601.07 679.00 86.73 o
-3 -1 9 355.76 401.40 67.73 o
-2 -1 9 736.95 1145.13 91.41 o
-1 -1 9 13456.40 13766.07 308.76 o
0 -1 9 1831.49 2470.70 124.16 o
1 -1 9 6863.11 7378.26 252.90 o
2 -1 9 18772.32 18984.49 509.82 o
3 -1 9 0.74 77.64 70.86 <
4 -1 9 6428.54 6936.13 231.42 o
5 -1 9 31104.64 31602.39 968.02 o
6 -1 9 12765.62 12929.28 424.48 o
7 -1 9 32.30 167.78 164.65 <
8 -1 9 1142.92 1559.21 362.46 o
9 -1 9 0.90 91.18 281.89 <
10 -1 9 4700.34 4101.60 580.19 o
-9 0 9 2480.71 3211.68 410.11 o
-8 0 9 1711.51 1629.87 301.45 o
-7 0 9 932.26 829.94 167.45 o
-6 0 9 6582.80 7190.24 299.21 o
-5 0 9 25724.60 25057.03 631.35 o
-4 0 9 179.26 434.00 76.85 o
-3 0 9 3221.80 3720.55 144.63 o
-2 0 9 965.47 1196.56 86.71 o
-1 0 9 7533.61 7553.81 199.60 o
0 0 9 259.34 452.22 64.34 o
1 0 9 28093.53 28160.69 600.62 o
2 0 9 2598.45 2825.21 163.92 o
3 0 9 5109.96 5522.00 216.74 o
4 0 9 1314.14 1025.05 105.45 o
5 0 9 985.24 1453.33 146.61 o
6 0 9 35553.61 35467.16 937.14 o
7 0 9 1223.01 1174.58 182.27 o
8 0 9 4253.00 4534.18 399.65 o
9 0 9 1415.52 852.40 343.41 <
10 0 9 1215.78 1635.42 420.25 o
-9 1 9 7270.02 8410.89 646.75 o
-8 1 9 450.83 832.47 250.84 o
-7 1 9 2826.32 2597.46 342.41 o
-6 1 9 9956.77 8990.89 367.99 o
-5 1 9 4211.24 5386.21 225.69 o
-4 1 9 150.60 286.30 72.42 o
-3 1 9 3852.09 4370.57 149.53 o
-2 1 9 313.50 792.40 73.72 o
-1 1 9 3.02 220.14 57.32 o
0 1 9 228.30 537.93 63.56 o
1 1 9 28319.85 29736.67 584.86 o
2 1 9 51024.46 52242.43 1007.20 o
3 1 9 2536.98 3146.16 142.33 o
4 1 9 857.31 781.52 98.70 o
5 1 9 26378.61 27188.68 737.83 o
6 1 9 2378.90 2560.75 184.77 o
7 1 9 3527.98 3745.49 271.81 o
8 1 9 3039.74 3505.96 349.14 o
9 1 9 901.38 801.83 243.75 o
10 1 9 2009.70 2325.85 495.31 o
-9 2 9 5888.27 5956.78 590.27 o
-8 2 9 214.24 362.10 240.96 <
-7 2 9 901.36 1363.03 280.21 o
-6 2 9 6914.09 6868.69 385.39 o
-5 2 9 5515.29 5283.41 264.79 o
-4 2 9 1228.52 1021.45 102.85 o
-3 2 9 18817.65 18174.57 386.73 o
-2 2 9 2709.40 3328.53 133.21 o
-1 2 9 1933.21 2048.40 108.54 o
0 2 9 14988.10 14321.61 312.12 o
1 2 9 12870.22 12056.49 268.96 o
2 2 9 10910.39 11279.89 257.83 o
3 2 9 23417.46 24057.36 505.56 o
4 2 9 8193.47 9328.34 322.30 o
5 2 9 8273.73 8371.73 300.51 o
6 2 9 20397.69 19797.95 569.50 o
7 2 9 1248.63 1038.64 220.80 o
8 2 9 4052.84 4549.69 390.58 o
9 2 9 2581.95 2471.53 322.41 o
10 2 9 270.48 468.11 349.58 <
11 2 9 19.33 -318.36 331.65 <
-9 3 9 1475.23 1808.88 374.12 o
-8 3 9 212.39 265.97 250.86 <
-7 3 9 180.85 550.45 253.73 <
-6 3 9 1272.57 1581.77 213.25 o
-5 3 9 783.11 1113.35 187.25 o
-4 3 9 3979.75 4027.21 201.01 o
-3 3 9 8383.94 9063.38 244.69 o
-2 3 9 21297.38 21593.95 473.61 o
-1 3 9 2.81 103.69 62.01 <
0 3 9 646.98 999.84 77.35 o
1 3 9 61833.29 60314.81 1078.83 o
2 3 9 9529.11 9739.36 247.90 o
3 3 9 2795.49 2549.18 143.10 o
4 3 9 3803.31 3875.30 205.96 o
5 3 9 5.50 156.84 91.18 <
6 3 9 3444.73 3700.31 213.29 o
7 3 9 14.45 -26.57 151.89 <
8 3 9 11645.78 10974.67 586.15 o
9 3 9 2699.72 3255.38 348.93 o
10 3 9 570.73 635.77 362.30 <
11 3 9 7.93 150.06 354.32 <
-9 4 9 2669.24 2587.39 465.49 o
-8 4 9 2454.96 1922.58 402.32 o
-7 4 9 2497.62 2342.83 275.84 o
-6 4 9 82.46 71.90 144.07 <
-5 4 9 2429.12 2590.88 266.48 o
-4 4 9 9595.51 7884.52 284.51 o
-3 4 9 31886.59 30524.24 794.99 o
-2 4 9 416.01 1052.58 98.46 o
-1 4 9 1989.81 2319.57 134.56 o
0 4 9 5646.71 4790.56 153.81 o
1 4 9 1287.56 1913.67 102.06 o
2 4 9 32539.82 31129.10 705.21 o
3 4 9 1005.56 1392.10 110.41 o
4 4 9 15366.05 16143.79 473.77 o
5 4 9 3947.16 3880.35 208.03 o
6 4 9 578.02 599.05 112.00 o
7 4 9 1544.34 1433.96 236.91 o
8 4 9 16207.06 16032.22 752.21 o
9 4 9 4437.61 4223.30 386.09 o
10 4 9 4.10 -264.17 286.58 <
11 4 9 1237.50 800.12 376.76 <
-9 5 9 212.66 -127.65 304.79 <
-8 5 9 2866.01 2741.76 488.88 o
-7 5 9 4389.09 4209.40 379.86 o
-6 5 9 17.77 153.45 174.55 <
-5 5 9 1028.46 1089.27 212.75 o
-4 5 9 1650.73 2037.83 164.27 o
-3 5 9 23387.11 23382.72 642.26 o
-2 5 9 27590.41 29413.43 774.76 o
-1 5 9 16679.23 17783.37 436.72 o
0 5 9 1216.06 1396.64 97.12 o
1 5 9 31778.33 30343.87 639.08 o
2 5 9 512.58 637.61 87.25 o
3 5 9 7.07 337.12 78.68 o
4 5 9 10376.07 10068.80 334.42 o
5 5 9 1175.96 1037.63 120.56 o
6 5 9 753.00 1038.36 152.35 o
7 5 9 3003.10 2868.08 299.19 o
8 5 9 9404.91 10487.24 563.93 o
9 5 9 10685.34 10662.30 587.94 o
10 5 9 19.15 -172.21 278.50 <
-9 6 9 71.04 287.87 385.57 <
-8 6 9 3650.88 3254.90 554.49 o
-7 6 9 9552.66 9601.82 565.44 o
-6 6 9 237.11 96.12 185.21 <
-5 6 9 431.46 899.16 219.06 o
-4 6 9 22553.68 21341.34 752.72 o
-3 6 9 7343.31 8274.82 371.01 o
-2 6 9 2412.39 3376.20 239.93 o
-1 6 9 3859.80 4466.27 210.64 o
0 6 9 8261.02 9774.89 323.84 o
1 6 9 7443.68 7234.75 300.34 o
2 6 9 6859.08 6594.21 252.14 o
3 6 9 18670.56 17888.17 515.86 o
4 6 9 11320.18 11591.57 452.96 o
5 6 9 2063.07 2352.37 205.88 o
6 6 9 1561.15 1570.10 176.77 o
7 6 9 5686.06 4778.30 373.40 o
8 6 9 15089.89 14171.80 686.88 o
9 6 9 900.07 1139.59 238.28 o
10 6 9 669.26 1032.66 392.49 <
-9 7 9 165.65 95.08 431.40 <
-8 7 9 7322.40 6483.30 807.95 o
-7 7 9 3162.30 3831.67 423.52 o
-6 7 9 3617.86 3498.00 372.97 o
-5 7 9 18.39 226.40 193.57 <
-4 7 9 154.31 661.95 171.41 o
-3 7 9 36669.30 39856.18 1260.14 o
-2 7 9 115.71 292.30 103.16 <
-1 7 9 11379.99 11651.89 423.39 o
0 7 9 2384.65 2804.24 204.28 o
1 7 9 3.77 396.78 109.42 o
2 7 9 123.84 189.91 100.04 <
3 7 9 10495.07 10865.00 432.39 o
4 7 9 16657.51 16394.49 589.07 o
5 7 9 3185.35 3086.83 234.39 o
6 7 9 221.84 393.62 128.69 o
7 7 9 16.23 -37.52 146.15 <
8 7 9 16523.46 16612.09 768.89 o
9 7 9 3716.36 3317.53 501.43 o
10 7 9 3012.50 2678.02 495.85 o
-7 8 9 9813.37 9803.70 888.98 o
-6 8 9 688.89 633.92 348.73 <
-5 8 9 735.15 1151.14 358.36 o
-4 8 9 3853.66 4237.49 399.72 o
-3 8 9 25.60 970.97 219.10 o
-2 8 9 5921.74 6437.73 424.26 o
-1 8 9 8603.04 8234.32 348.21 o
0 8 9 8350.30 8796.96 358.63 o
1 8 9 2050.75 2478.07 197.29 o
2 8 9 404.49 374.05 154.46 <
3 8 9 10752.72 10457.44 428.99 o
4 8 9 26547.15 26060.06 863.41 o
5 8 9 281.54 244.86 124.78 <
6 8 9 262.79 287.07 165.41 <
7 8 9 5543.72 4697.28 376.02 o
8 8 9 1484.23 1438.43 247.59 o
9 8 9 2398.51 2522.45 451.77 o
10 8 9 815.33 529.18 331.52 <
-7 9 9 4574.82 5058.90 752.86 o
-6 9 9 1753.53 1545.23 455.81 o
-5 9 9 7131.03 6718.47 736.95 o
-4 9 9 2110.71 2246.43 315.19 o
-3 9 9 6609.48 6879.27 524.40 o
-2 9 9 5002.49 4991.30 415.36 o
-1 9 9 4423.06 4262.27 275.33 o
0 9 9 4917.03 4920.68 292.94 o
1 9 9 94.53 69.30 111.76 <
2 9 9 1144.50 1433.69 218.73 o
3 9 9 8215.26 8159.54 454.69 o
4 9 9 7589.87 7173.77 350.47 o
5 9 9 8094.55 7755.96 370.12 o
6 9 9 3454.26 2709.34 298.61 o
7 9 9 0.18 -75.55 165.43 <
8 9 9 9430.12 9208.24 536.93 o
9 9 9 578.84 1035.83 360.99 <
10 9 9 1861.01 1509.70 418.29 o
-6 10 9 175.65 300.88 441.82 <
-5 10 9 6.01 -169.60 339.47 <
-4 10 9 2592.56 3284.97 378.88 o
-3 10 9 1877.81 1520.69 300.65 o
-2 10 9 41.13 -21.10 186.01 <
-1 10 9 13989.56 14004.08 530.61 o
0 10 9 5075.92 4929.26 310.08 o
1 10 9 205.20 478.80 184.44 <
2 10 9 839.55 800.55 203.13 o
3 10 9 14989.15 14694.90 689.47 o
4 10 9 7466.62 7701.10 454.87 o
5 10 9 859.09 1069.04 212.25 o
6 10 9 160.28 246.70 180.79 <
7 10 9 907.70 758.60 227.08 o
8 10 9 251.19 144.58 199.80 <
9 10 9 597.23 480.54 332.34 <
10 10 9 7354.44 5530.85 690.51 o
-5 11 9 4520.62 4592.77 703.50 o
-4 11 9 168.56 192.25 233.15 <
-3 11 9 7.36 187.32 240.73 <
-2 11 9 899.11 863.55 261.98 o
-1 11 9 10881.10 11556.55 647.01 o
0 11 9 2495.99 2557.25 315.66 o
1 11 9 67.53 157.87 180.54 <
2 11 9 201.27 274.31 188.86 <
3 11 9 23.03 98.22 162.83 <
4 11 9 11677.67 12194.43 621.12 o
5 11 9 27.17 376.72 191.22 <
6 11 9 11122.01 12182.20 884.62 o
7 11 9 469.86 552.72 292.77 <
8 11 9 1.21 -243.85 201.65 <
9 11 9 379.04 189.11 336.54 <
-5 12 9 4765.99 3203.51 685.72 o
-4 12 9 1437.69 1557.95 340.80 o
-3 12 9 370.18 -31.52 238.86 <
-2 12 9 700.75 523.75 259.66 <
-1 12 9 5989.37 6177.23 535.21 o
0 12 9 9913.58 9756.82 858.15 o
1 12 9 2587.34 2550.39 332.82 o
2 12 9 648.70 663.89 224.25 <
3 12 9 5759.03 5576.63 461.21 o
4 12 9 157.00 292.03 205.54 <
5 12 9 76.03 -11.46 254.79 <
6 12 9 3166.87 2848.33 482.83 o
7 12 9 4391.75 4664.26 593.56 o
8 12 9 1063.88 1363.17 405.44 o
-4 13 9 1498.99 930.99 419.15 <
-3 13 9 237.90 369.91 279.25 <
-2 13 9 1437.49 1702.19 355.38 o
-1 13 9 3673.79 2795.14 425.50 o
0 13 9 368.68 436.57 260.48 <
1 13 9 1789.37 1640.49 313.68 o
2 13 9 6912.66 6917.83 548.22 o
3 13 9 10.46 44.29 213.63 <
4 13 9 5918.76 6456.67 525.87 o
5 13 9 5792.16 7139.80 771.69 o
6 13 9 3046.29 2897.10 504.44 o
7 13 9 972.07 828.62 365.87 <
-3 14 9 34.07 2.61 313.41 <
-2 14 9 590.64 408.91 309.42 <
-1 14 9 7120.02 6742.94 637.47 o
0 14 9 678.98 246.38 290.40 <
1 14 9 4703.52 4785.08 524.34 o
2 14 9 124.45 575.99 275.36 <
3 14 9 1481.14 1763.08 338.19 o
4 14 9 85.09 106.29 319.13 <
5 14 9 8.39 110.20 327.22 <
6 14 9 9600.96 10082.71 891.88 o
-1 15 9 307.98 98.20 369.11 <
0 15 9 3017.38 2592.21 458.92 o
1 15 9 862.48 777.10 353.39 <
2 15 9 7576.03 6914.51 658.35 o
3 15 9 558.79 790.75 332.35 <
4 15 9 125.37 699.47 456.68 <
1 16 9 28.36 495.25 496.56 <
2 16 9 1639.43 1847.52 594.58 o
-1 -13 10 508.30 830.61 675.64 <
0 -13 10 2.24 -247.24 501.25 <
-4 -12 10 0.96 -228.74 442.63 <
-3 -12 10 95.43 -600.23 391.81 <
-2 -12 10 727.27 392.74 498.48 <
-1 -12 10 1484.41 1432.67 651.64 <
0 -12 10 364.38 52.88 470.17 <
1 -12 10 1663.13 1376.57 550.32 <
-6 -11 10 2653.82 3166.76 622.89 o
-5 -11 10 721.78 343.26 459.15 <
-4 -11 10 243.28 169.84 214.65 <
-3 -11 10 11.68 208.94 222.49 <
-2 -11 10 450.52 188.84 221.66 <
-1 -11 10 26.11 -48.46 218.32 <
0 -11 10 4.19 191.23 205.29 <
1 -11 10 2377.53 1565.32 292.24 o
2 -11 10 2206.89 2916.68 652.46 o
-6 -10 10 1879.91 1596.37 373.78 o
-5 -10 10 1054.14 1036.12 315.08 o
-4 -10 10 354.28 71.89 197.71 <
-3 -10 10 2301.17 2426.29 303.97 o
-2 -10 10 649.33 430.26 207.58 <
-1 -10 10 762.40 742.76 238.56 o
0 -10 10 4188.49 4391.50 361.95 o
1 -10 10 1334.57 1774.91 276.51 o
2 -10 10 1017.18 653.09 236.45 <
3 -10 10 441.86 561.06 248.49 <
-7 -9 10 202.53 230.28 278.48 <
-6 -9 10 2546.84 2515.22 395.78 o
-5 -9 10 16.64 67.48 189.40 <
-4 -9 10 1484.48 1567.29 215.57 o
-3 -9 10 783.85 1079.23 231.26 o
-2 -9 10 745.89 1156.86 225.80 o
-1 -9 10 324.87 181.30 148.22 <
0 -9 10 325.27 84.66 166.97 <
1 -9 10 11107.25 11834.95 536.27 o
2 -9 10 924.42 978.64 230.47 o
3 -9 10 358.04 624.64 227.14 <
4 -9 10 347.78 254.75 230.53 <
5 -9 10 1633.48 1340.42 337.38 o
-8 -8 10 276.95 13.81 428.51 <
-7 -8 10 21.39 43.51 247.24 <
-6 -8 10 874.84 458.86 263.28 <
-5 -8 10 617.70 1096.50 225.55 o
-4 -8 10 4984.27 5519.84 325.69 o
-3 -8 10 6404.97 6528.79 360.81 o
-2 -8 10 368.49 790.04 196.92 o
-1 -8 10 372.35 660.84 158.63 o
0 -8 10 3375.40 3311.10 274.69 o
1 -8 10 2461.71 2680.65 269.60 o
2 -8 10 4025.16 4041.62 332.60 o
3 -8 10 135.88 249.57 190.43 <
4 -8 10 329.41 516.55 211.78 <
5 -8 10 1246.17 1142.53 255.95 o
6 -8 10 772.88 541.70 288.04 <
-8 -7 10 1604.91 1916.52 597.19 o
-7 -7 10 10.47 301.95 235.25 <
-6 -7 10 436.12 396.18 230.78 <
-5 -7 10 1380.83 1653.81 193.45 o
-4 -7 10 1836.04 2579.38 215.79 o
-3 -7 10 8277.18 8396.21 356.86 o
-2 -7 10 2889.18 2853.14 206.58 o
-1 -7 10 1398.30 1638.18 185.12 o
0 -7 10 3839.69 3342.37 267.09 o
1 -7 10 10367.29 10392.27 453.74 o
2 -7 10 313.45 368.33 162.55 <
3 -7 10 877.79 673.71 191.67 o
4 -7 10 101.27 400.93 184.44 <
5 -7 10 803.96 1076.88 227.09 o
6 -7 10 38.70 -172.99 194.61 <
-8 -6 10 2518.80 1825.93 553.48 o
-7 -6 10 2610.17 3064.23 620.34 o
-6 -6 10 571.47 471.69 212.01 <
-5 -6 10 238.10 214.39 142.49 <
-4 -6 10 16001.64 16220.19 613.67 o
-3 -6 10 5625.57 6932.58 308.18 o
-2 -6 10 400.18 442.81 111.75 o
-1 -6 10 928.65 591.92 125.26 o
0 -6 10 657.19 759.21 147.93 o
1 -6 10 4322.95 4473.93 300.57 o
2 -6 10 1262.96 1171.17 178.88 o
3 -6 10 2165.75 2043.62 230.08 o
4 -6 10 3487.22 3712.54 298.87 o
5 -6 10 157.48 615.32 182.62 o
6 -6 10 761.87 822.19 213.82 o
7 -6 10 7224.91 8829.29 935.74 o
-9 -5 10 933.37 622.90 465.61 <
-8 -5 10 5266.39 5454.85 826.41 o
-7 -5 10 1504.91 1536.30 481.90 o
-6 -5 10 476.30 1001.51 235.99 o
-5 -5 10 527.08 1212.20 183.63 o
-4 -5 10 4581.27 4902.65 317.43 o
-3 -5 10 20945.66 21149.81 734.24 o
-2 -5 10 297.53 379.54 109.41 o
-1 -5 10 2038.62 2050.48 161.89 o
0 -5 10 1921.46 1479.51 159.30 o
1 -5 10 4514.80 4067.90 268.82 o
2 -5 10 454.23 416.76 141.18 <
3 -5 10 6194.11 6205.92 341.61 o
4 -5 10 1189.05 1291.77 193.99 o
5 -5 10 1138.86 1285.55 209.35 o
6 -5 10 568.39 633.44 188.57 o
7 -5 10 641.96 439.64 249.51 <
-9 -4 10 700.25 624.01 458.11 <
-8 -4 10 9614.92 8490.03 1039.99 o
-7 -4 10 6454.75 6557.87 504.95 o
-6 -4 10 1121.11 1537.36 208.31 o
-5 -4 10 1842.49 2680.89 293.89 o
-4 -4 10 9275.07 9227.96 403.90 o
-3 -4 10 4789.21 4991.50 249.55 o
-2 -4 10 277.65 184.69 98.21 <
-1 -4 10 1281.20 1282.06 138.00 o
0 -4 10 262.01 238.09 101.59 <
1 -4 10 693.80 881.86 141.16 o
2 -4 10 13.28 83.37 112.29 <
3 -4 10 12279.67 12020.40 465.23 o
4 -4 10 14701.13 13888.87 523.72 o
5 -4 10 960.95 1405.18 193.23 o
6 -4 10 1139.57 1045.21 191.91 o
7 -4 10 8001.64 8312.92 551.05 o
8 -4 10 1710.14 1019.66 422.75 <
-9 -3 10 3233.09 3762.43 432.07 o
-8 -3 10 6572.86 7983.96 586.20 o
-7 -3 10 6469.59 6748.01 507.81 o
-6 -3 10 188.73 344.91 136.50 <
-5 -3 10 1024.86 1318.17 152.60 o
-4 -3 10 7459.62 8075.65 365.55 o
-3 -3 10 12051.17 11786.57 347.91 o
-2 -3 10 1894.50 1949.35 133.53 o
-1 -3 10 13127.58 12093.47 395.09 o
0 -3 10 68.45 165.95 91.18 <
1 -3 10 1473.26 1392.85 158.81 o
2 -3 10 9436.22 9412.99 381.01 o
3 -3 10 7309.38 6816.49 320.13 o
4 -3 10 7208.85 7060.55 330.54 o
5 -3 10 5893.71 5495.18 325.03 o
6 -3 10 2269.33 2401.90 230.85 o
7 -3 10 5072.07 4499.94 583.77 o
8 -3 10 7382.80 8112.04 824.32 o
-9 -2 10 1944.10 2121.32 346.96 o
-8 -2 10 14456.78 14368.71 773.71 o
-7 -2 10 2759.83 3428.08 370.26 o
-6 -2 10 370.99 518.88 148.21 o
-5 -2 10 34.80 164.91 104.99 <
-4 -2 10 1752.61 1454.90 151.50 o
-3 -2 10 3332.01 3647.14 207.84 o
-2 -2 10 2162.62 2846.47 144.70 o
-1 -2 10 8929.84 9392.75 325.05 o
0 -2 10 13295.25 13539.39 424.55 o
1 -2 10 1428.68 1444.68 158.29 o
2 -2 10 76.87 635.66 122.96 o
3 -2 10 43057.84 42402.87 1242.74 o
4 -2 10 6220.07 5385.32 308.35 o
5 -2 10 683.39 406.55 106.26 o
6 -2 10 1353.44 1482.00 225.74 o
7 -2 10 69.46 128.18 186.53 <
8 -2 10 3872.07 3440.05 528.96 o
9 -2 10 6.58 181.33 307.68 <
-9 -1 10 1538.94 2213.90 361.61 o
-8 -1 10 6489.96 5851.66 494.80 o
-7 -1 10 6213.93 7176.71 525.28 o
-6 -1 10 1876.98 2275.82 189.76 o
-5 -1 10 3365.27 4058.94 235.15 o
-4 -1 10 418.67 359.46 103.67 o
-3 -1 10 5166.90 5288.30 186.34 o
-2 -1 10 14567.25 15001.41 363.50 o
-1 -1 10 26608.11 25248.74 603.10 o
0 -1 10 210.21 889.61 97.17 o
1 -1 10 2175.89 2744.65 174.63 o
2 -1 10 3780.14 3985.64 249.13 o
3 -1 10 4218.34 4723.29 277.43 o
4 -1 10 29650.80 29656.67 1087.38 o
5 -1 10 722.49 693.55 143.76 o
6 -1 10 4827.97 5179.20 313.76 o
7 -1 10 2544.22 2277.73 295.09 o
8 -1 10 792.84 1051.10 349.24 o
9 -1 10 357.44 327.95 338.63 <
-9 0 10 1892.61 1626.31 334.22 o
-8 0 10 5221.60 5624.36 516.15 o
-7 0 10 820.60 1071.40 269.80 o
-6 0 10 2956.96 3416.33 224.53 o
-5 0 10 3677.38 4378.77 246.04 o
-4 0 10 438.04 821.01 119.04 o
-3 0 10 499.57 835.57 88.56 o
-2 0 10 4423.16 5404.15 186.66 o
-1 0 10 32424.57 31586.02 673.89 o
0 0 10 22476.51 22495.99 501.46 o
1 0 10 9454.11 10612.40 300.83 o
2 0 10 6435.72 6777.99 304.14 o
3 0 10 27102.32 26712.65 829.56 o
4 0 10 315.58 411.31 99.51 o
5 0 10 2.00 272.25 120.10 <
6 0 10 5281.93 5718.93 313.43 o
7 0 10 174.90 385.55 190.43 <
8 0 10 933.89 943.22 341.92 <
9 0 10 2089.45 1676.15 409.67 o
-9 1 10 4.15 -179.50 205.03 <
-8 1 10 3316.92 3926.84 458.86 o
-7 1 10 241.88 305.04 230.80 <
-6 1 10 6244.48 6087.13 364.99 o
-5 1 10 16415.84 16744.21 518.64 o
-4 1 10 23.64 86.75 78.16 <
-3 1 10 74.39 319.66 71.64 o
-2 1 10 36472.61 37742.25 787.77 o
-1 1 10 11658.94 11565.01 294.55 o
0 1 10 6317.73 6445.75 196.36 o
1 1 10 5431.20 5890.65 185.79 o
2 1 10 4402.18 4826.71 193.16 o
3 1 10 11267.70 11183.83 303.69 o
4 1 10 11406.82 11958.79 364.59 o
5 1 10 11698.82 11615.88 437.63 o
6 1 10 6843.09 6644.51 312.42 o
7 1 10 1196.75 1220.94 225.75 o
8 1 10 544.01 396.94 278.17 <
9 1 10 3994.40 4355.67 583.27 o
10 1 10 10510.15 9053.18 789.04 o
-9 2 10 279.57 309.99 257.11 <
-8 2 10 946.23 949.72 292.70 o
-7 2 10 305.71 278.99 207.09 <
-6 2 10 9005.18 9272.38 477.64 o
-5 2 10 8742.21 8480.61 444.74 o
-4 2 10 8797.62 8660.36 302.27 o
-3 2 10 35.57 82.33 64.35 <
-2 2 10 3525.63 5483.97 188.82 o
-1 2 10 51874.98 51662.72 1046.86 o
0 2 10 673.85 876.13 82.82 o
1 2 10 7587.77 7199.45 231.54 o
2 2 10 4106.93 4063.99 177.59 o
3 2 10 6.84 478.59 80.76 o
4 2 10 1481.73 2153.57 167.14 o
5 2 10 7099.77 7303.29 289.52 o
6 2 10 12355.42 12084.31 407.98 o
7 2 10 3124.09 2734.99 316.09 o
8 2 10 348.86 245.38 276.64 <
9 2 10 564.32 871.49 334.17 <
-9 3 10 1345.13 1395.52 370.49 o
-8 3 10 21.20 328.78 270.16 <
-7 3 10 2.13 -35.43 230.04 <
-6 3 10 16109.18 16520.15 733.37 o
-5 3 10 16997.47 16814.83 735.36 o
-4 3 10 137.10 455.89 122.70 o
-3 3 10 2108.83 2690.91 149.91 o
-2 3 10 10172.64 10596.29 298.67 o
-1 3 10 1157.29 2045.82 131.23 o
0 3 10 14210.98 14361.82 374.39 o
1 3 10 8695.76 8852.07 253.21 o
2 3 10 10785.41 10096.87 278.87 o
3 3 10 2296.46 2110.04 150.16 o
4 3 10 39.64 155.27 89.36 <
5 3 10 12072.99 12237.80 402.31 o
6 3 10 20729.46 19479.17 574.35 o
7 3 10 646.04 931.11 221.90 o
8 3 10 57.53 297.51 206.33 <
9 3 10 4935.73 4966.43 440.84 o
-9 4 10 2426.42 2280.85 451.49 o
-8 4 10 0.40 -101.34 272.77 <
-7 4 10 2482.45 3234.64 473.62 o
-6 4 10 4353.82 4832.73 378.31 o
-5 4 10 15651.35 14923.09 688.24 o
-4 4 10 4216.04 4043.78 262.10 o
-3 4 10 11143.66 11009.40 358.16 o
-2 4 10 8291.10 8841.70 267.80 o
-1 4 10 15959.50 14687.33 384.69 o
0 4 10 4165.81 4098.98 179.92 o
1 4 10 4808.22 4794.04 205.08 o
2 4 10 9433.69 9107.48 297.99 o
3 4 10 153.38 236.80 85.19 <
4 4 10 439.27 533.19 105.23 o
5 4 10 10153.87 10699.15 366.64 o
6 4 10 11779.34 11556.67 477.79 o
7 4 10 8970.08 8948.48 510.34 o
8 4 10 1915.85 1569.07 266.28 o
9 4 10 465.98 595.96 229.73 <
-9 5 10 5109.95 4095.97 595.65 o
-8 5 10 0.16 -147.20 271.99 <
-7 5 10 290.30 238.09 202.14 <
-6 5 10 17465.22 17573.85 803.45 o
-5 5 10 2433.62 3546.49 327.90 o
-4 5 10 20.67 163.87 126.09 <
-3 5 10 71.45 615.08 137.03 o
-2 5 10 4330.54 5094.33 280.53 o
-1 5 10 5882.15 5768.54 233.30 o
0 5 10 360.31 510.28 93.51 o
1 5 10 23709.24 21672.40 574.34 o
2 5 10 13425.67 12702.69 379.74 o
3 5 10 787.26 1452.68 157.04 o
4 5 10 1161.88 1543.82 142.69 o
5 5 10 24151.36 22656.13 640.35 o
6 5 10 8455.61 7436.24 362.53 o
7 5 10 35.55 205.29 167.52 <
8 5 10 269.04 394.39 201.62 <
9 5 10 604.32 985.82 249.25 o
10 5 10 1424.91 1251.76 429.58 <
-8 6 10 1203.00 2028.61 481.70 o
-7 6 10 79.81 -154.75 203.20 <
-6 6 10 2006.69 2124.72 304.53 o
-5 6 10 13915.37 13973.06 687.00 o
-4 6 10 2544.89 2699.79 247.73 o
-3 6 10 7185.87 7093.26 345.60 o
-2 6 10 843.14 1165.14 158.08 o
-1 6 10 163.33 694.25 124.00 o
0 6 10 1786.75 1306.22 148.63 o
1 6 10 19990.41 19782.22 636.84 o
2 6 10 8916.62 7968.20 328.95 o
3 6 10 2735.66 2273.81 245.36 o
4 6 10 267.19 681.45 138.58 o
5 6 10 794.46 792.75 152.35 o
6 6 10 19907.97 17810.48 648.16 o
7 6 10 134.31 49.76 162.56 <
8 6 10 8015.99 8174.13 497.32 o
9 6 10 247.42 207.36 208.14 <
10 6 10 36.37 13.81 316.27 <
-8 7 10 775.02 734.41 418.25 <
-7 7 10 1139.37 1578.47 321.06 o
-6 7 10 1865.93 2092.83 316.79 o
-5 7 10 3.74 297.52 208.94 <
-4 7 10 35.65 625.78 178.20 o
-3 7 10 11129.04 10361.07 543.25 o
-2 7 10 4525.01 4069.17 346.55 o
-1 7 10 248.76 165.94 108.63 <
0 7 10 1597.40 1771.55 173.12 o
1 7 10 19249.55 16991.13 569.48 o
2 7 10 22859.15 23365.63 956.60 o
3 7 10 1363.44 1424.43 206.99 o
4 7 10 146.76 -76.07 127.91 <
5 7 10 9865.05 10233.17 438.54 o
6 7 10 91.15 233.42 138.33 <
7 7 10 899.25 960.43 224.48 o
8 7 10 4888.94 5113.49 424.74 o
9 7 10 4842.25 4668.68 414.34 o
10 7 10 1084.82 892.88 389.54 <
-7 8 10 2390.17 3371.32 597.49 o
-6 8 10 2061.71 1506.49 403.95 o
-5 8 10 574.24 593.06 319.06 <
-4 8 10 7820.70 7304.33 526.45 o
-3 8 10 6190.35 5931.89 458.78 o
-2 8 10 3942.79 3804.55 351.85 o
-1 8 10 109.74 -54.97 106.55 <
0 8 10 5751.73 5776.98 307.89 o
1 8 10 7743.55 7539.81 334.86 o
2 8 10 5428.11 4795.56 367.19 o
3 8 10 5015.28 5431.77 396.64 o
4 8 10 7873.63 7104.32 421.03 o
5 8 10 1156.14 1074.10 207.53 o
6 8 10 7741.87 7028.91 462.87 o
7 8 10 5031.28 4677.58 397.94 o
8 8 10 4276.74 3263.90 347.89 o
9 8 10 2951.14 2407.04 468.30 o
10 8 10 205.73 237.58 343.34 <
-7 9 10 303.17 253.46 439.71 <
-6 9 10 614.08 882.15 425.06 <
-5 9 10 366.82 608.75 343.06 <
-4 9 10 3135.55 2857.50 370.72 o
-3 9 10 10915.65 10928.08 611.75 o
-2 9 10 5368.38 5011.31 419.19 o
-1 9 10 21.80 328.78 178.46 <
0 9 10 3.85 34.65 116.19 <
1 9 10 20756.18 19400.48 854.25 o
2 9 10 1276.19 1225.31 222.36 o
3 9 10 3752.58 3740.91 337.84 o
4 9 10 685.86 796.18 202.37 o
5 9 10 1957.41 1773.11 251.18 o
6 9 10 149.57 99.77 224.04 <
7 9 10 18.38 -136.78 232.39 <
8 9 10 15032.66 14229.27 990.54 o
9 9 10 1866.49 2426.74 479.20 o
-6 10 10 30.24 380.36 384.79 <
-5 10 10 105.62 500.71 401.45 <
-4 10 10 3064.32 3416.14 396.74 o
-3 10 10 10739.97 10342.59 668.06 o
-2 10 10 229.11 -21.10 184.69 <
-1 10 10 274.30 351.41 192.24 <
0 10 10 559.85 607.91 202.64 <
1 10 10 1.66 225.62 168.56 <
2 10 10 9998.38 10387.70 561.95 o
3 10 10 2972.63 3200.87 329.90 o
4 10 10 12283.81 11632.98 596.60 o
5 10 10 1395.33 1622.82 253.33 o
6 10 10 470.62 920.50 306.83 <
7 10 10 1734.39 1875.59 377.20 o
8 10 10 6236.26 5287.23 603.69 o
-5 11 10 5.62 -432.99 383.49 <
-4 11 10 1583.02 1382.90 326.72 o
-3 11 10 6247.65 5675.07 525.01 o
-2 11 10 4613.07 4275.54 443.52 o
-1 11 10 6965.91 6434.66 515.75 o
0 11 10 196.60 264.67 200.33 <
1 11 10 4984.04 4919.95 428.62 o
2 11 10 2554.76 2879.08 338.81 o
3 11 10 129.48 468.92 203.98 <
4 11 10 5476.32 5669.35 444.12 o
5 11 10 3298.94 3490.96 349.36 o
6 11 10 1142.34 1313.66 360.12 o
7 11 10 2557.16 1931.06 406.98 o
8 11 10 4746.06 5931.33 663.37 o
-4 12 10 3771.64 4099.42 469.42 o
-3 12 10 1620.68 1717.40 349.88 o
-2 12 10 25.73 169.34 251.67 <
-1 12 10 184.85 568.42 246.44 <
0 12 10 7187.27 6969.16 550.75 o
1 12 10 1086.61 1123.87 261.96 o
2 12 10 2227.00 2378.26 332.35 o
3 12 10 14029.32 14061.06 721.65 o
4 12 10 2697.87 3280.38 361.42 o
5 12 10 692.71 1155.59 362.28 o
6 12 10 1.11 -278.24 259.22 <
7 12 10 265.81 370.94 303.48 <
8 12 10 5507.43 4807.79 627.77 o
-3 13 10 7583.66 8433.80 680.92 o
-2 13 10 585.42 948.84 330.00 <
-1 13 10 5058.81 4148.78 485.00 o
0 13 10 382.16 454.28 268.03 <
1 13 10 1405.71 1613.18 313.99 o
2 13 10 16.39 233.17 229.78 <
3 13 10 1537.60 1678.68 319.18 o
4 13 10 9882.12 10061.06 608.91 o
5 13 10 57.46 336.59 310.54 <
6 13 10 49.66 731.54 336.59 <
7 13 10 17.72 41.42 331.39 <
-3 14 10 118.41 81.80 367.84 <
-2 14 10 986.22 1044.49 477.58 <
-1 14 10 4415.30 3568.59 490.86 o
0 14 10 4645.34 4985.56 535.26 o
1 14 10 1444.57 1234.59 342.10 o
2 14 10 561.52 984.53 310.47 o
3 14 10 2974.45 2910.99 407.42 o
4 14 10 3497.46 3801.11 624.50 o
5 14 10 306.62 495.45 368.33 <
0 15 10 1893.78 1648.96 596.07 <
1 15 10 500.08 526.40 468.84 <
2 15 10 397.84 556.38 488.40 <
3 15 10 2738.44 2417.94 626.80 o
-2 -12 11 256.82 523.85 579.86 <
-1 -12 11 1991.95 2118.12 760.78 <
0 -12 11 416.35 835.60 626.44 <
-4 -11 11 645.40 672.73 514.64 <
-3 -11 11 33.75 -274.33 412.93 <
-2 -11 11 3268.72 2654.53 738.74 o
-1 -11 11 1101.42 193.47 502.55 <
0 -11 11 181.49 -696.59 403.00 <
1 -11 11 32.95 830.03 493.43 <
-5 -10 11 784.56 914.10 512.78 <
-4 -10 11 24.85 68.26 214.67 <
-3 -10 11 59.63 363.69 227.43 <
-2 -10 11 1261.72 856.63 255.69 o
-1 -10 11 5545.04 5883.27 446.68 o
0 -10 11 24.11 320.18 201.65 <
1 -10 11 802.98 1005.78 254.18 o
2 -10 11 563.65 956.40 472.99 <
-6 -9 11 4081.75 4144.11 507.03 o
-5 -9 11 2558.66 3258.88 342.44 o
-4 -9 11 539.17 666.00 221.39 o
-3 -9 11 223.33 416.28 206.06 <
-2 -9 11 3035.54 3423.19 328.84 o
-1 -9 11 1353.98 398.10 212.46 <
0 -9 11 371.37 524.35 190.41 <
1 -9 11 763.73 552.90 217.98 <
2 -9 11 173.47 484.80 224.82 <
3 -9 11 1081.43 823.11 247.11 o
-7 -8 11 902.77 478.90 460.15 <
-6 -8 11 2627.87 2461.51 387.70 o
-5 -8 11 3507.62 2729.48 309.52 o
-4 -8 11 163.68 421.50 163.86 <
-3 -8 11 496.67 771.50 202.12 o
-2 -8 11 3072.07 2878.13 296.32 o
-1 -8 11 4693.60 5859.06 409.44 o
0 -8 11 452.03 189.36 158.89 <
1 -8 11 2658.29 2965.33 295.60 o
2 -8 11 23.36 336.86 199.30 <
3 -8 11 712.34 405.77 208.87 <
4 -8 11 687.63 898.27 249.24 o
5 -8 11 1723.55 1939.08 356.89 o
-7 -7 11 879.61 895.05 288.54 o
-6 -7 11 8044.55 7832.68 596.68 o
-5 -7 11 1658.60 2411.66 268.40 o
-4 -7 11 95.13 135.73 136.51 <
-3 -7 11 246.06 317.03 146.92 <
-2 -7 11 781.41 781.82 187.77 o
-1 -7 11 1113.42 992.88 172.64 o
0 -7 11 44.25 144.59 138.34 <
1 -7 11 3661.74 2821.18 272.05 o
2 -7 11 3348.65 3370.71 296.80 o
3 -7 11 780.38 740.15 201.58 o
4 -7 11 8.45 -21.62 176.90 <
5 -7 11 10401.49 12022.28 562.07 o
6 -7 11 1590.84 1881.67 331.40 o
-8 -6 11 63.75 -27.88 393.90 <
-7 -6 11 858.53 1071.89 459.38 <
-6 -6 11 4138.18 4422.23 728.85 o
-5 -6 11 4981.63 5077.94 353.50 o
-4 -6 11 471.66 458.95 159.67 <
-3 -6 11 1212.24 1656.29 190.08 o
-2 -6 11 1554.15 1321.23 151.52 o
-1 -6 11 1233.29 1329.50 174.45 o
0 -6 11 4107.53 4407.07 279.02 o
1 -6 11 8009.09 7275.91 375.33 o
2 -6 11 446.52 734.01 173.48 o
3 -6 11 817.40 1253.45 207.82 o
4 -6 11 447.61 469.63 183.37 <
5 -6 11 1767.13 1510.60 237.93 o
6 -6 11 8589.06 9109.93 496.90 o
-8 -5 11 353.08 -26.57 380.04 <
-7 -5 11 1299.51 1518.99 509.28 <
-6 -5 11 5363.13 5634.69 473.24 o
-5 -5 11 453.89 415.71 157.33 <
-4 -5 11 778.20 791.20 169.80 o
-3 -5 11 995.43 937.47 175.51 o
-2 -5 11 150.64 159.43 113.06 <
-1 -5 11 2.85 35.17 105.51 <
0 -5 11 760.91 807.61 140.64 o
1 -5 11 15320.09 14216.79 535.98 o
2 -5 11 8910.62 8599.17 392.82 o
3 -5 11 2011.36 2080.73 231.39 o
4 -5 11 2832.41 2793.12 264.09 o
5 -5 11 6868.41 7133.99 421.50 o
6 -5 11 407.38 326.38 183.90 <
-9 -4 11 887.03 45.31 435.15 <
-8 -4 11 102.10 -429.85 327.21 <
-7 -4 11 26.23 492.65 379.58 <
-6 -4 11 3801.02 3577.52 381.26 o
-5 -4 11 703.04 680.54 171.11 o
-4 -4 11 4740.01 4679.27 313.77 o
-3 -4 11 8019.02 8241.91 383.63 o
-2 -4 11 235.34 182.87 104.20 <
-1 -4 11 3.75 86.49 97.70 <
0 -4 11 13626.23 13600.02 455.88 o
1 -4 11 5502.41 5685.01 326.65 o
2 -4 11 4660.95 4433.19 291.42 o
3 -4 11 1855.10 1883.30 209.02 o
4 -4 11 1120.59 1201.71 192.17 o
5 -4 11 5448.69 5456.57 351.09 o
6 -4 11 2929.71 3205.61 285.67 o
7 -4 11 1904.87 2216.41 490.40 o
-9 -3 11 70.85 -412.40 378.79 <
-8 -3 11 964.02 1356.72 300.25 o
-7 -3 11 15.89 29.96 194.09 <
-6 -3 11 1706.63 1637.69 215.03 o
-5 -3 11 202.18 229.24 121.13 <
-4 -3 11 5541.65 5508.04 291.57 o
-3 -3 11 7446.53 7512.38 358.29 o
-2 -3 11 5049.59 5792.23 267.71 o
-1 -3 11 811.04 1158.39 137.25 o
0 -3 11 1948.94 2054.21 171.27 o
1 -3 11 33845.61 33890.00 930.14 o
2 -3 11 438.38 1063.51 161.49 o
3 -3 11 1984.75 1672.09 196.00 o
4 -3 11 1599.27 1527.39 194.73 o
5 -3 11 97.98 175.59 144.85 <
6 -3 11 684.31 815.97 215.13 o
7 -3 11 1814.50 1060.75 275.93 o
-8 -2 11 2318.61 2402.55 357.57 o
-7 -2 11 1657.10 2000.61 318.64 o
-6 -2 11 476.28 651.96 163.31 o
-5 -2 11 6.79 229.52 116.19 <
-4 -2 11 16890.45 16014.53 510.78 o
-3 -2 11 13247.43 12599.17 375.44 o
-2 -2 11 53.20 667.71 115.41 o
-1 -2 11 1566.07 1886.92 159.33 o
0 -2 11 3329.25 3372.72 205.76 o
1 -2 11 4112.48 4909.53 251.18 o
2 -2 11 10680.26 10315.35 414.76 o
3 -2 11 4226.25 4365.66 282.64 o
4 -2 11 4101.28 3818.33 268.35 o
5 -2 11 1933.92 1569.58 230.10 o
6 -2 11 1.18 98.48 137.04 <
7 -2 11 4139.85 4792.83 425.15 o
8 -2 11 9125.66 9069.95 882.25 o
-8 -1 11 4227.88 4010.88 491.67 o
-7 -1 11 1899.45 2142.25 327.45 o
-6 -1 11 44.93 82.85 137.82 <
-5 -1 11 2556.80 3179.64 216.50 o
-4 -1 11 5545.79 5855.67 282.47 o
-3 -1 11 21308.58 21971.76 570.29 o
-2 -1 11 4079.92 3904.86 195.02 o
-1 -1 11 7382.59 7674.16 264.29 o
0 -1 11 6580.83 6888.51 309.32 o
1 -1 11 13926.33 13565.95 491.75 o
2 -1 11 2110.21 1984.03 223.31 o
3 -1 11 1881.80 2201.08 244.94 o
4 -1 11 3565.40 3718.34 268.16 o
5 -1 11 78.48 26.05 124.79 <
6 -1 11 59.73 167.51 140.16 <
7 -1 11 5202.62 5811.65 461.58 o
8 -1 11 7960.59 8104.92 812.93 o
-8 0 11 6577.90 6214.30 578.91 o
-7 0 11 7245.73 8423.63 669.12 o
-6 0 11 107.98 221.96 121.14 <
-5 0 11 1185.94 1306.87 156.49 o
-4 0 11 23867.92 22823.15 668.05 o
-3 0 11 6055.84 7409.26 235.11 o
-2 0 11 466.08 682.69 99.76 o
-1 0 11 334.61 398.54 88.83 o
0 0 11 3462.39 3968.35 191.43 o
1 0 11 8438.19 7930.42 340.19 o
2 0 11 235.49 200.06 109.67 <
3 0 11 19824.92 19404.86 652.99 o
4 0 11 8161.36 7820.67 355.83 o
5 0 11 195.97 448.85 140.15 o
6 0 11 125.02 322.25 147.71 <
7 0 11 12663.76 11567.64 612.80 o
8 0 11 8382.43 8330.50 734.15 o
9 0 11 273.90 55.22 343.85 <
-8 1 11 7960.19 7281.90 623.18 o
-7 1 11 4590.15 4832.64 525.41 o
-6 1 11 1641.40 2208.90 253.04 o
-5 1 11 20.05 284.75 115.93 <
-4 1 11 4687.93 4934.08 261.26 o
-3 1 11 27223.33 28195.25 620.36 o
-2 1 11 1636.47 2301.29 149.17 o
-1 1 11 6353.65 6088.40 250.65 o
0 1 11 852.74 559.91 108.07 o
1 1 11 2.74 332.69 112.81 <
2 1 11 2316.12 2697.15 210.80 o
3 1 11 14556.27 14711.83 528.09 o
4 1 11 9891.32 10006.86 409.73 o
5 1 11 2981.67 3336.66 248.20 o
6 1 11 218.52 175.06 130.77 <
7 1 11 1783.28 1629.82 400.10 o
8 1 11 17289.06 18121.00 1189.80 o
9 1 11 254.39 -16.93 283.68 <
-8 2 11 11527.28 10809.95 806.60 o
-7 2 11 6582.13 7056.13 603.88 o
-6 2 11 1021.90 1404.10 228.37 o
-5 2 11 1394.24 1878.24 236.67 o
-4 2 11 4318.06 4507.22 278.73 o
-3 2 11 997.24 1601.24 134.37 o
-2 2 11 481.60 955.92 123.98 o
-1 2 11 14620.65 14773.71 453.02 o
0 2 11 6488.63 6785.04 267.52 o
1 2 11 705.88 846.17 136.73 o
2 2 11 2656.54 2593.67 209.20 o
3 2 11 25122.24 23600.34 755.56 o
4 2 11 19394.28 20143.06 671.74 o
5 2 11 275.98 456.38 133.63 o
6 2 11 721.79 574.01 152.10 o
7 2 11 6657.15 7115.27 706.72 o
8 2 11 1664.05 3021.34 507.38 o
9 2 11 1066.14 904.35 368.72 <
-8 3 11 4387.95 4381.54 545.19 o
-7 3 11 6696.79 6987.67 623.84 o
-6 3 11 13.29 -16.41 160.48 <
-5 3 11 6248.53 7050.90 425.52 o
-4 3 11 5061.27 5047.34 371.42 o
-3 3 11 4423.98 5284.05 254.01 o
-2 3 11 11012.66 10222.26 345.74 o
-1 3 11 9994.24 10273.55 348.23 o
0 3 11 6943.63 6711.67 303.55 o
1 3 11 67.54 25.53 96.39 <
2 3 11 8400.50 8550.51 296.08 o
3 3 11 10884.70 10436.39 410.56 o
4 3 11 14027.55 13976.74 505.99 o
5 3 11 3094.32 2919.19 230.24 o
6 3 11 5617.37 6893.66 339.11 o
7 3 11 2426.19 2414.21 430.95 o
8 3 11 7466.05 7908.70 696.57 o
9 3 11 2492.38 3437.26 526.95 o
-8 4 11 8433.67 8773.32 748.34 o
-7 4 11 399.03 858.80 330.81 <
-6 4 11 1025.93 1469.98 243.22 o
-5 4 11 1109.08 1984.72 260.91 o
-4 4 11 1280.83 1602.34 235.64 o
-3 4 11 2725.72 3249.61 239.90 o
-2 4 11 4988.29 4617.46 233.93 o
-1 4 11 22050.68 20874.12 595.79 o
0 4 11 13315.07 13738.92 486.70 o
1 4 11 762.78 1066.21 119.54 o
2 4 11 364.69 486.58 100.81 o
3 4 11 34544.94 33651.68 1014.81 o
4 4 11 4218.47 5301.97 298.76 o
5 4 11 1222.88 1296.17 167.16 o
6 4 11 20.29 401.99 178.46 <
7 4 11 1153.18 1874.28 391.36 o
8 4 11 1486.36 2413.94 446.50 o
9 4 11 162.87 138.07 273.79 <
-8 5 11 2177.71 2073.20 475.23 o
-7 5 11 2932.73 3420.45 527.10 o
-6 5 11 6485.92 6066.12 460.53 o
-5 5 11 7288.42 8150.79 488.93 o
-4 5 11 26.65 -87.54 118.80 <
-3 5 11 98.45 223.00 124.79 <
-2 5 11 7870.25 7435.65 346.53 o
-1 5 11 21512.50 20802.27 677.98 o
0 5 11 2940.06 3029.12 182.38 o
1 5 11 1065.21 913.73 116.40 o
2 5 11 59.26 235.25 89.88 <
3 5 11 2338.29 2273.22 201.17 o
4 5 11 20682.56 21151.47 692.24 o
5 5 11 4275.28 4809.72 288.09 o
6 5 11 12780.36 12590.93 621.58 o
7 5 11 984.38 654.41 286.97 <
8 5 11 37.63 165.43 263.13 <
9 5 11 1642.20 2072.71 445.68 o
-8 6 11 559.07 940.25 398.50 <
-7 6 11 78.60 6.25 228.73 <
-6 6 11 2205.40 2625.51 336.00 o
-5 6 11 10180.90 10044.71 577.73 o
-4 6 11 1864.93 1690.67 213.97 o
-3 6 11 20.32 269.90 165.43 <
-2 6 11 5127.77 5045.05 384.14 o
-1 6 11 21783.79 20838.28 669.93 o
0 6 11 11497.91 12468.65 454.24 o
1 6 11 9888.94 10980.01 419.58 o
2 6 11 1229.20 930.85 187.73 o
3 6 11 7941.88 8324.41 354.30 o
4 6 11 187.23 210.23 158.39 <
5 6 11 312.23 435.80 181.30 <
6 6 11 10623.22 11006.32 576.32 o
7 6 11 4053.85 3982.78 512.54 o
8 6 11 1594.27 2488.27 439.18 o
9 6 11 4099.06 4440.39 586.09 o
-7 7 11 169.12 546.80 377.99 <
-6 7 11 8791.03 8323.22 817.56 o
-5 7 11 7217.41 7662.04 766.52 o
-4 7 11 1465.26 1434.80 276.75 o
-3 7 11 25.21 441.33 179.50 <
-2 7 11 11376.06 11424.30 583.87 o
-1 7 11 4418.98 3856.73 340.33 o
0 7 11 3576.38 3356.24 238.51 o
1 7 11 14.51 315.50 121.14 <
2 7 11 11547.22 10679.51 544.68 o
3 7 11 3942.18 3726.78 328.70 o
4 7 11 4632.31 4952.16 385.53 o
5 7 11 20499.12 20211.62 872.49 o
6 7 11 6588.44 6876.04 459.74 o
7 7 11 2370.07 2939.18 453.34 o
8 7 11 3.16 -257.40 244.11 <
9 7 11 1061.59 929.61 343.98 <
-7 8 11 84.32 -48.46 381.40 <
-6 8 11 6243.04 5665.98 685.78 o
-5 8 11 7176.72 6670.44 722.12 o
-4 8 11 2434.31 1894.51 315.14 o
-3 8 11 51.82 121.14 180.80 <
-2 8 11 331.74 353.22 187.29 <
-1 8 11 20418.10 20687.46 900.36 o
0 8 11 450.99 397.48 135.45 <
1 8 11 7682.20 8291.83 475.06 o
2 8 11 49.30 9.64 151.36 <
3 8 11 3552.64 3440.85 330.33 o
4 8 11 153.13 -38.03 149.79 <
5 8 11 3544.28 3782.67 348.02 o
6 8 11 19266.37 17883.59 1134.83 o
7 8 11 1083.42 842.12 311.69 <
8 8 11 10.93 130.26 275.90 <
9 8 11 365.30 377.18 326.64 <
-6 9 11 4728.05 5411.26 715.11 o
-5 9 11 6439.79 6397.01 740.79 o
-4 9 11 224.47 205.53 245.65 <
-3 9 11 537.01 628.76 240.67 <
-2 9 11 271.06 393.61 196.93 <
-1 9 11 5.85 316.02 191.75 <
0 9 11 4357.75 4442.16 291.98 o
1 9 11 13983.64 13094.27 649.69 o
2 9 11 10773.19 10678.21 564.34 o
3 9 11 1504.34 1348.07 236.65 o
4 9 11 1999.95 1798.59 259.25 o
5 9 11 7222.94 6335.22 464.53 o
6 9 11 8650.72 7062.21 699.84 o
7 9 11 1734.10 2290.27 425.62 o
8 9 11 543.58 311.25 310.21 <
-5 10 11 3709.00 4261.04 648.10 o
-4 10 11 390.24 77.36 355.55 <
-3 10 11 8187.83 6996.75 565.28 o
-2 10 11 1326.89 1800.45 297.34 o
-1 10 11 1846.92 1852.08 294.93 o
0 10 11 5195.99 5215.24 444.44 o
1 10 11 1891.83 2511.12 310.80 o
2 10 11 8102.37 8346.52 506.13 o
3 10 11 2053.83 1824.83 269.91 o
4 10 11 281.65 533.49 199.80 <
5 10 11 6527.58 6132.29 461.56 o
6 10 11 5474.28 5974.61 644.47 o
7 10 11 1523.27 1892.94 401.45 o
8 10 11 1636.89 1386.23 381.38 o
-4 11 11 173.93 173.76 405.87 <
-3 11 11 155.19 349.34 258.68 <
-2 11 11 6502.75 6088.94 529.88 o
-1 11 11 1831.72 1926.80 314.97 o
0 11 11 1.72 84.15 201.65 <
1 11 11 18993.83 19303.20 899.72 o
2 11 11 2018.90 1549.22 275.64 o
3 11 11 298.40 374.07 204.49 <
4 11 11 2.40 -59.92 179.50 <
5 11 11 2616.03 2450.42 320.84 o
6 11 11 3870.05 3819.47 538.84 o
7 11 11 132.27 -15.89 281.35 <
-3 12 11 3695.08 3445.49 455.91 o
-2 12 11 59.65 380.36 285.01 <
-1 12 11 1208.05 1571.66 319.75 o
0 12 11 196.76 252.17 234.71 <
1 12 11 4204.55 3816.87 418.90 o
2 12 11 6874.99 8027.88 578.61 o
3 12 11 22.71 292.05 213.37 <
4 12 11 20.71 66.95 206.34 <
5 12 11 101.36 346.22 310.01 <
6 12 11 3497.03 3359.96 549.59 o
7 12 11 29.15 295.17 332.17 <
-3 13 11 6356.03 5197.91 752.73 o
-2 13 11 2312.53 2465.03 422.38 o
-1 13 11 1055.50 604.65 289.56 <
0 13 11 1660.02 2166.95 374.09 o
1 13 11 4125.94 4122.49 453.49 o
2 13 11 2447.33 2092.00 342.72 o
3 13 11 222.35 379.29 246.43 <
4 13 11 602.41 780.84 268.79 <
5 13 11 932.40 894.52 397.65 <
-1 14 11 74.32 -102.90 421.00 <
0 14 11 0.01 109.94 281.11 <
1 14 11 2906.11 3283.63 452.96 o
2 14 11 504.94 547.50 294.33 <
3 14 11 10.54 53.15 260.00 <
2 15 11 263.21 571.26 449.61 <
3 15 11 2262.81 1952.62 595.44 o
-3 -11 12 1610.77 2550.63 753.11 o
-2 -11 12 180.57 370.70 527.00 <
-1 -11 12 373.82 -11.98 525.65 <
0 -11 12 983.49 856.46 629.13 <
1 -11 12 557.09 787.36 640.46 <
-4 -10 12 2541.26 2531.02 674.19 o
-3 -10 12 305.45 12.24 441.27 <
-2 -10 12 97.89 -20.84 453.56 <
-1 -10 12 629.97 -114.08 421.93 <
0 -10 12 23.72 -49.24 453.57 <
1 -10 12 473.54 858.24 382.11 <
-5 -9 12 12.94 -268.08 404.86 <
-4 -9 12 2492.61 1907.13 292.48 o
-3 -9 12 1052.59 1072.06 252.06 o
-2 -9 12 1521.27 1443.33 277.78 o
-1 -9 12 2134.12 1522.56 281.61 o
0 -9 12 171.93 254.77 199.29 <
1 -9 12 188.29 112.02 199.55 <
2 -9 12 2156.93 2577.37 605.11 o
-6 -8 12 375.80 234.69 296.17 <
-5 -8 12 98.24 287.87 202.42 <
-4 -8 12 930.55 878.63 231.77 o
-3 -8 12 117.88 80.50 185.48 <
-2 -8 12 1120.57 868.14 231.23 o
-1 -8 12 2973.89 2074.57 275.52 o
0 -8 12 883.62 993.24 203.65 o
1 -8 12 772.94 1073.77 234.39 o
2 -8 12 717.72 459.68 217.47 <
3 -8 12 8183.59 9147.96 649.85 o
-7 -7 12 390.82 639.73 506.11 <
-6 -7 12 1057.70 689.01 285.13 <
-5 -7 12 565.49 568.06 208.11 <
-4 -7 12 1083.82 1263.18 195.30 o
-3 -7 12 125.93 -80.76 161.26 <
-2 -7 12 5607.60 5260.96 378.34 o
-1 -7 12 4577.00 4922.66 321.07 o
0 -7 12 3.52 411.63 168.82 <
1 -7 12 545.84 721.22 202.64 o
2 -7 12 747.76 854.49 216.68 o
3 -7 12 2027.35 1829.78 267.31 o
4 -7 12 3177.80 3408.34 336.36 o
5 -7 12 1310.21 1546.05 324.15 o
-7 -6 12 47.13 122.44 399.38 <
-6 -6 12 1799.39 1403.83 494.32 <
-5 -6 12 743.36 794.59 259.92 o
-4 -6 12 1.12 -21.36 155.27 <
-3 -6 12 206.07 371.22 163.86 <
-2 -6 12 2180.01 2206.53 252.72 o
-1 -6 12 10818.57 10509.13 416.06 o
0 -6 12 1629.67 1410.22 197.33 o
1 -6 12 1939.05 2229.94 228.54 o
2 -6 12 3427.11 3382.03 297.05 o
3 -6 12 4326.60 4309.87 336.97 o
4 -6 12 21.36 -163.09 163.87 <
5 -6 12 389.11 533.98 216.72 <
6 -6 12 1412.97 881.81 280.92 o
-8 -5 12 1293.67 1070.87 503.54 <
-7 -5 12 55.96 4.17 353.53 <
-6 -5 12 5203.22 5611.55 512.24 o
-5 -5 12 3950.02 4262.47 430.12 o
-4 -5 12 386.91 419.11 161.50 <
-3 -5 12 386.97 255.53 153.68 <
-2 -5 12 10571.21 10852.33 477.81 o
-1 -5 12 2893.07 3503.59 242.49 o
0 -5 12 965.10 1010.14 161.46 o
1 -5 12 295.62 220.90 138.84 <
2 -5 12 449.59 604.82 170.35 o
3 -5 12 4222.23 3708.94 301.36 o
4 -5 12 432.95 935.63 196.66 o
5 -5 12 5399.13 5600.77 384.35 o
6 -5 12 2358.80 1554.66 293.81 o
-8 -4 12 545.65 61.99 402.41 <
-7 -4 12 1281.24 1003.98 452.26 <
-6 -4 12 5640.01 5457.70 474.47 o
-5 -4 12 3834.34 4087.71 310.52 o
-4 -4 12 759.38 1315.98 242.73 o
-3 -4 12 93.78 328.51 146.15 <
-2 -4 12 3980.87 3936.12 246.79 o
-1 -4 12 15917.29 14963.06 497.31 o
0 -4 12 644.32 1058.21 154.97 o
1 -4 12 2301.20 2557.49 217.83 o
2 -4 12 1026.41 1262.70 192.18 o
3 -4 12 149.82 158.91 146.41 <
4 -4 12 115.62 271.72 160.74 <
5 -4 12 4494.17 4176.93 325.76 o
6 -4 12 4261.00 3889.99 329.17 o
-8 -3 12 283.30 330.82 443.36 <
-7 -3 12 819.49 471.37 246.10 <
-6 -3 12 12538.85 13133.90 557.38 o
-5 -3 12 4723.92 4466.62 277.64 o
-4 -3 12 544.53 779.30 172.43 o
-3 -3 12 945.47 1271.60 230.73 o
-2 -3 12 3506.19 3746.05 232.27 o
-1 -3 12 1511.58 1347.81 156.47 o
0 -3 12 842.89 960.97 140.89 o
1 -3 12 7601.37 7895.85 325.81 o
2 -3 12 2332.19 2260.51 223.55 o
3 -3 12 1811.07 1610.80 206.43 o
4 -3 12 393.18 500.64 162.28 o
5 -3 12 10580.11 11301.19 482.47 o
6 -3 12 7407.89 6746.50 482.91 o
7 -3 12 10.26 -317.06 307.42 <
-8 -2 12 5.58 -61.22 226.14 <
-7 -2 12 2194.55 2339.20 354.99 o
-6 -2 12 5967.30 6596.22 407.90 o
-5 -2 12 6965.24 6823.38 331.63 o
-4 -2 12 15.21 -61.48 115.15 <
-3 -2 12 3527.43 3544.96 236.17 o
-2 -2 12 5442.41 5674.57 282.74 o
-1 -2 12 4797.05 4852.98 291.92 o
0 -2 12 6653.41 5828.98 319.46 o
1 -2 12 4784.92 5201.60 316.36 o
2 -2 12 2531.90 3079.21 246.95 o
3 -2 12 4.38 314.98 139.12 <
4 -2 12 1480.90 1787.82 254.10 o
5 -2 12 6170.34 6448.70 381.89 o
6 -2 12 7430.19 7727.42 416.97 o
7 -2 12 1075.12 1065.02 406.48 <
-8 -1 12 113.71 469.18 290.21 <
-7 -1 12 1856.44 1542.54 307.94 o
-6 -1 12 12955.68 13889.16 572.31 o
-5 -1 12 459.31 1070.80 158.11 o
-4 -1 12 324.58 800.74 139.62 o
-3 -1 12 35.73 -22.14 102.39 <
-2 -1 12 504.63 712.11 115.13 o
-1 -1 12 2291.09 2005.49 195.97 o
0 -1 12 2968.81 3701.93 260.69 o
1 -1 12 19205.03 18325.23 634.90 o
2 -1 12 5235.11 5307.57 318.37 o
3 -1 12 686.10 514.38 149.76 o
4 -1 12 365.65 292.78 145.09 <
5 -1 12 18617.77 19421.81 682.92 o
6 -1 12 2406.73 1848.47 227.97 o
7 -1 12 138.94 143.02 291.51 <
-8 0 12 86.32 134.95 271.72 <
-7 0 12 217.54 656.46 281.34 <
-6 0 12 5334.56 6341.96 395.02 o
-5 0 12 4277.62 4470.95 272.76 o
-4 0 12 5675.11 6230.09 305.32 o
-3 0 12 5132.93 5321.14 264.85 o
-2 0 12 915.47 975.78 134.11 o
-1 0 12 114.81 237.85 116.45 <
0 0 12 8740.65 7669.00 346.64 o
1 0 12 17981.50 18590.64 637.57 o
2 0 12 3437.00 3616.32 262.71 o
3 0 12 1203.44 1272.23 177.58 o
4 0 12 43.43 -61.74 127.92 <
5 0 12 3208.09 3417.50 270.81 o
6 0 12 11836.41 11395.44 471.31 o
7 0 12 1964.01 2496.44 473.47 o
8 0 12 3618.49 3754.30 581.81 o
-8 1 12 979.34 1331.19 354.93 o
-7 1 12 874.33 1349.76 339.07 o
-6 1 12 2285.03 3343.72 325.84 o
-5 1 12 133.47 11.98 128.43 <
-4 1 12 1762.30 2371.74 223.87 o
-3 1 12 9180.86 8797.24 329.21 o
-2 1 12 1842.79 1578.75 153.58 o
-1 1 12 10.42 75.03 108.64 <
0 1 12 7213.19 7533.20 340.14 o
1 1 12 27358.86 26094.21 830.94 o
2 1 12 6589.35 6447.73 328.30 o
3 1 12 2988.92 3147.75 247.42 o
4 1 12 2727.09 2991.51 244.33 o
5 1 12 4872.83 4716.41 311.15 o
6 1 12 0.16 35.17 138.08 <
7 1 12 59.76 363.69 303.24 <
8 1 12 5684.82 4957.84 638.41 o
-8 2 12 1182.05 1343.56 360.63 o
-7 2 12 1343.87 1065.40 325.97 o
-6 2 12 3334.62 3514.55 340.50 o
-5 2 12 142.93 308.18 174.28 <
-4 2 12 14008.24 12722.45 489.22 o
-3 2 12 10097.76 10314.87 364.07 o
-2 2 12 536.94 625.37 120.07 o
-1 2 12 318.89 475.91 128.42 o
0 2 12 14008.10 13990.40 510.13 o
1 2 12 7717.72 7245.60 337.98 o
2 2 12 5039.84 4072.87 272.65 o
3 2 12 42.34 88.32 115.67 <
4 2 12 4998.79 5478.71 326.73 o
5 2 12 4287.43 4240.56 295.38 o
6 2 12 1466.95 1566.01 203.07 o
7 2 12 11545.86 12523.70 946.88 o
8 2 12 3509.39 3216.12 533.20 o
-8 3 12 2113.38 1631.06 405.49 o
-7 3 12 998.80 579.14 309.88 <
-6 3 12 6.34 233.69 183.67 <
-5 3 12 241.18 481.40 195.63 <
-4 3 12 9106.00 9096.05 500.71 o
-3 3 12 15732.63 14879.52 472.26 o
-2 3 12 2773.61 2358.38 182.13 o
-1 3 12 1145.34 960.83 152.33 o
0 3 12 3585.89 3697.19 253.33 o
1 3 12 29514.24 29224.92 911.77 o
2 3 12 571.36 1010.05 161.48 o
3 3 12 4093.92 4239.30 282.65 o
4 3 12 62.13 190.70 130.78 <
5 3 12 1941.79 2253.63 221.25 o
6 3 12 94.96 -148.49 167.77 <
7 3 12 4194.26 5193.16 633.93 o
8 3 12 14262.01 14958.00 1069.81 o
-8 4 12 6341.98 5905.17 681.53 o
-7 4 12 2856.18 3275.62 520.35 o
-6 4 12 141.08 505.65 217.27 <
-5 4 12 986.84 699.20 214.58 o
-4 4 12 12943.33 12124.63 607.03 o
-3 4 12 12341.36 12182.50 486.74 o
-2 4 12 77.63 353.52 131.30 <
-1 4 12 336.00 624.12 138.32 o
0 4 12 159.50 197.20 114.62 <
1 4 12 2291.72 2974.90 231.10 o
2 4 12 4627.72 5055.04 302.60 o
3 4 12 14165.73 13208.17 499.76 o
4 4 12 9259.10 8221.29 369.66 o
5 4 12 1729.49 1536.67 191.86 o
6 4 12 2404.65 2930.29 326.08 o
7 4 12 7192.25 8573.22 753.54 o
8 4 12 9508.65 9990.54 840.87 o
9 4 12 1743.73 1498.08 428.99 o
-8 5 12 4271.63 4373.99 632.02 o
-7 5 12 4721.26 3384.21 537.82 o
-6 5 12 111.31 492.63 217.79 <
-5 5 12 724.63 690.69 227.10 o
-4 5 12 5319.63 4936.87 402.83 o
-3 5 12 15346.55 12936.92 628.85 o
-2 5 12 184.06 488.71 174.80 <
-1 5 12 12432.42 11765.31 455.10 o
0 5 12 3300.40 3831.16 262.99 o
1 5 12 3287.28 3333.03 202.38 o
2 5 12 6686.94 6060.51 314.52 o
3 5 12 2488.47 2612.68 229.52 o
4 5 12 11503.90 11003.70 445.47 o
5 5 12 1557.64 1467.02 187.18 o
6 5 12 238.78 220.38 187.56 <
7 5 12 9629.11 11626.84 898.70 o
8 5 12 7437.09 7833.48 798.07 o
-6 6 12 1.14 -140.68 305.34 <
-5 6 12 242.31 16.15 280.04 <
-4 6 12 9433.88 9409.05 779.48 o
-3 6 12 1503.83 2376.97 290.03 o
-2 6 12 2.73 108.12 155.01 <
-1 6 12 1141.42 1314.71 225.50 o
0 6 12 9553.68 9293.31 384.39 o
1 6 12 4346.71 4769.74 290.68 o
2 6 12 280.47 191.46 122.69 <
3 6 12 30013.92 28187.29 889.86 o
4 6 12 4448.19 4738.64 299.51 o
5 6 12 478.45 711.60 207.33 o
6 6 12 40.52 167.52 189.92 <
7 6 12 5309.75 5481.00 649.72 o
8 6 12 7026.37 7391.95 770.69 o
-6 7 12 200.38 243.31 346.99 <
-5 7 12 308.30 265.18 305.29 <
-4 7 12 1038.76 1106.19 349.20 o
-3 7 12 10690.05 10324.17 578.12 o
-2 7 12 8596.62 8538.71 509.13 o
-1 7 12 7041.37 6563.70 443.02 o
0 7 12 6.61 -55.23 159.96 <
1 7 12 2839.79 3510.16 251.08 o
2 7 12 1053.28 1034.31 216.65 o
3 7 12 9041.11 8692.80 503.05 o
4 7 12 16490.69 15727.26 741.51 o
5 7 12 6.06 52.11 173.51 <
6 7 12 20.67 388.96 204.25 <
7 7 12 980.10 1536.41 388.27 o
8 7 12 7072.58 8208.06 814.03 o
-6 8 12 1414.36 1732.64 494.67 o
-5 8 12 128.75 643.72 390.51 <
-4 8 12 3.33 209.20 332.43 <
-3 8 12 1.80 386.10 213.37 <
-2 8 12 6.91 605.46 209.46 <
-1 8 12 18420.20 17215.16 798.70 o
0 8 12 6646.86 6632.97 478.16 o
1 8 12 935.14 1289.83 234.37 o
2 8 12 5888.68 5973.27 447.41 o
3 8 12 10671.70 9614.40 537.42 o
4 8 12 7156.24 6781.27 486.36 o
5 8 12 146.63 273.27 189.91 <
6 8 12 308.42 580.37 281.85 <
7 8 12 1352.01 1392.42 370.76 o
8 8 12 230.36 659.84 346.72 <
-5 9 12 5814.83 5603.14 736.83 o
-4 9 12 1334.92 1229.71 406.69 o
-3 9 12 35.06 -27.62 207.64 <
-2 9 12 10054.81 9102.67 556.50 o
-1 9 12 3188.08 3810.87 374.61 o
0 9 12 6061.91 5705.49 452.31 o
1 9 12 683.09 603.97 207.05 <
2 9 12 261.82 495.98 194.85 <
3 9 12 7688.85 7486.77 493.51 o
4 9 12 4791.35 5435.36 436.46 o
5 9 12 10.06 387.40 199.82 <
6 9 12 5146.80 5115.20 618.32 o
7 9 12 61.86 -77.63 271.46 <
8 9 12 1649.91 1840.22 430.31 o
-4 10 12 3251.09 2862.47 554.34 o
-3 10 12 1166.03 1026.18 293.46 o
-2 10 12 2378.80 2610.74 352.11 o
-1 10 12 15894.55 15420.21 782.31 o
0 10 12 1161.18 1348.81 267.42 o
1 10 12 65.50 272.76 201.38 <
2 10 12 130.92 389.72 202.42 <
3 10 12 5100.98 4798.56 425.74 o
4 10 12 1303.63 1352.89 267.14 o
5 10 12 2754.86 2852.78 342.16 o
6 10 12 660.08 792.28 350.30 <
7 10 12 2335.53 1878.67 408.06 o
-3 11 12 985.41 1051.78 319.26 o
-2 11 12 1180.08 881.92 295.02 <
-1 11 12 4873.93 4394.80 438.52 o
0 11 12 2493.21 2209.85 343.24 o
1 11 12 571.20 633.43 240.66 <
2 11 12 94.79 233.42 211.54 <
3 11 12 75.77 176.37 205.03 <
4 11 12 4075.48 4416.70 417.36 o
5 11 12 4447.98 4895.57 618.77 o
6 11 12 8097.59 7912.18 799.11 o
-3 12 12 421.01 1497.21 525.12 <
-2 12 12 2369.95 2323.14 388.27 o
-1 12 12 3651.62 4630.01 485.58 o
0 12 12 675.23 889.68 276.07 o
1 12 12 3200.70 3514.50 412.84 o
2 12 12 161.54 182.09 240.19 <
3 12 12 809.29 822.43 261.47 o
4 12 12 592.30 754.02 263.32 <
5 12 12 493.70 150.29 324.02 <
-3 13 12 24.25 458.26 422.31 <
-2 13 12 278.24 412.36 479.05 <
-1 13 12 1679.68 1818.86 554.74 o
0 13 12 5.03 -197.22 239.68 <
1 13 12 541.64 1317.41 315.94 o
2 13 12 5805.60 6299.05 553.67 o
3 13 12 305.01 172.97 240.95 <
4 13 12 691.77 646.16 402.90 <
2 14 12 24.90 656.26 446.80 <
3 14 12 2236.77 2324.55 571.25 o
-3 -10 13 814.25 636.99 569.28 <
-2 -10 13 270.07 241.48 521.51 <
-1 -10 13 16.44 -271.99 493.69 <
0 -10 13 2695.01 911.17 646.82 <
1 -10 13 815.32 797.42 659.13 <
-4 -9 13 1693.01 548.22 459.19 <
-3 -9 13 1232.69 1100.33 548.86 <
-2 -9 13 98.87 -436.10 409.01 <
-1 -9 13 177.49 294.37 482.98 <
0 -9 13 2160.32 1324.45 610.57 <
1 -9 13 4347.11 3242.26 515.03 o
-5 -8 13 273.86 149.52 429.55 <
-4 -8 13 4867.52 5028.11 535.43 o
-3 -8 13 1506.07 875.00 248.63 o
-2 -8 13 170.38 69.29 207.36 <
-1 -8 13 345.14 820.27 246.68 o
0 -8 13 1504.85 1284.01 235.35 o
1 -8 13 1464.55 699.55 349.91 <
2 -8 13 349.86 323.26 439.70 <
-6 -7 13 0.14 155.01 276.68 <
-5 -7 13 833.34 151.31 246.88 <
-4 -7 13 2997.85 2776.91 311.41 o
-3 -7 13 4274.66 4109.88 353.35 o
-2 -7 13 0.72 -92.49 185.23 <
-1 -7 13 847.29 621.89 208.34 <
0 -7 13 3527.43 3334.73 292.09 o
1 -7 13 2418.69 2860.48 305.25 o
2 -7 13 1013.34 975.73 238.01 o
3 -7 13 1125.84 988.96 296.32 o
-6 -6 13 80.88 175.59 404.06 <
-5 -6 13 1212.73 1385.73 312.45 o
-4 -6 13 7396.72 8324.52 470.69 o
-3 -6 13 818.11 1012.28 212.25 o
-2 -6 13 1.47 68.26 167.00 <
-1 -6 13 2.24 -135.99 162.31 <
0 -6 13 1.50 -177.68 147.20 <
1 -6 13 1803.08 1628.76 232.46 o
2 -6 13 195.32 283.95 183.92 <
3 -6 13 6106.41 5937.10 409.94 o
4 -6 13 998.86 990.06 245.82 o
-7 -5 13 960.17 707.26 470.55 <
-6 -5 13 110.37 544.73 430.11 <
-5 -5 13 128.47 651.54 249.05 <
-4 -5 13 4568.38 3925.06 410.76 o
-3 -5 13 4419.00 3939.17 319.79 o
-2 -5 13 2391.98 2537.07 263.36 o
-1 -5 13 1859.58 2067.33 233.75 o
0 -5 13 1329.79 1239.61 206.21 o
1 -5 13 3.80 81.81 158.92 <
2 -5 13 2017.52 1886.28 241.28 o
3 -5 13 4808.12 4301.08 341.31 o
4 -5 13 1842.51 2184.20 266.03 o
5 -5 13 244.71 342.81 237.05 <
6 -5 13 86.75 37.25 316.53 <
-7 -4 13 800.86 501.58 439.08 <
-6 -4 13 413.18 613.68 250.58 <
-5 -4 13 845.60 1373.48 282.82 o
-4 -4 13 2744.21 3016.45 285.17 o
-3 -4 13 231.18 257.37 239.66 <
-2 -4 13 523.85 527.44 196.91 <
-1 -4 13 5395.94 4625.09 315.24 o
0 -4 13 716.81 747.99 178.14 o
1 -4 13 590.27 654.01 169.82 o
2 -4 13 2120.53 1709.21 224.36 o
3 -4 13 11287.85 11013.36 487.76 o
4 -4 13 2597.77 2184.75 256.83 o
5 -4 13 475.74 516.77 200.82 <
6 -4 13 831.62 1052.63 338.29 o
-6 -3 13 341.18 92.99 261.27 <
-5 -3 13 969.31 1565.58 248.17 o
-4 -3 13 4293.82 4101.66 358.29 o
-3 -3 13 328.75 442.57 187.03 <
-2 -3 13 8445.02 8029.65 617.13 o
-1 -3 13 5174.19 5353.05 334.50 o
0 -3 13 345.23 367.28 140.66 <
1 -3 13 152.73 329.28 148.75 <
2 -3 13 3433.83 3263.67 277.28 o
3 -3 13 4851.00 4561.52 324.67 o
4 -3 13 4181.72 3979.15 375.74 o
5 -3 13 0.54 -31.52 190.97 <
6 -3 13 1445.16 1664.68 243.95 o
-7 -2 13 44.33 240.20 294.65 <
-6 -2 13 892.37 955.21 234.90 o
-5 -2 13 350.37 146.39 152.90 <
-4 -2 13 4.67 -17.72 141.47 <
-3 -2 13 52.99 89.10 136.77 <
-2 -2 13 4813.34 4449.57 299.20 o
-1 -2 13 12351.87 11728.74 473.53 o
0 -2 13 2136.33 1972.85 250.38 o
1 -2 13 672.11 384.16 176.84 <
2 -2 13 1967.17 1762.69 247.28 o
3 -2 13 15030.52 14789.60 677.33 o
4 -2 13 9.00 160.48 159.18 <
5 -2 13 981.84 953.10 198.69 o
6 -2 13 2.57 16.67 169.60 <
-7 -1 13 19.78 -178.72 279.54 <
-6 -1 13 5243.79 5641.37 428.55 o
-5 -1 13 2399.26 3219.66 271.69 o
-4 -1 13 413.96 320.91 153.94 <
-3 -1 13 664.58 647.21 160.96 o
-2 -1 13 11497.65 10792.96 444.70 o
-1 -1 13 8177.98 8239.27 372.71 o
0 -1 13 524.20 861.35 163.31 o
1 -1 13 676.01 846.97 172.15 o
2 -1 13 16.25 84.93 137.82 <
3 -1 13 3682.41 3104.91 267.11 o
4 -1 13 4486.52 4846.73 330.71 o
5 -1 13 7281.67 7653.75 428.68 o
6 -1 13 3531.84 3973.28 319.40 o
7 -1 13 853.65 1248.20 440.11 <
-7 0 13 961.55 1941.60 414.83 o
-6 0 13 4033.87 3571.07 345.07 o
-5 0 13 4906.54 5356.76 340.52 o
-4 0 13 566.87 655.05 163.83 o
-3 0 13 235.07 370.17 150.31 <
-2 0 13 6216.73 6065.90 334.34 o
-1 0 13 16699.49 15311.35 563.05 o
0 0 13 803.68 1224.54 174.75 o
1 0 13 3434.45 3720.68 275.98 o
2 0 13 2596.24 2172.80 228.99 o
3 0 13 2490.28 1944.17 227.44 o
4 0 13 1129.45 1027.25 190.09 o
5 0 13 1506.11 2014.56 238.48 o
6 0 13 7242.62 7369.45 408.17 o
7 0 13 504.74 967.63 385.75 <
-7 1 13 1577.33 1430.26 380.34 o
-6 1 13 10283.26 9393.22 766.41 o
-5 1 13 5049.32 5458.82 344.65 o
-4 1 13 15.21 -71.64 123.75 <
-3 1 13 1447.27 1065.37 176.26 o
-2 1 13 8899.97 7768.97 372.84 o
-1 1 13 2363.50 3332.93 261.02 o
0 1 13 1149.37 1126.18 168.21 o
1 1 13 329.06 565.00 149.00 o
2 1 13 5279.79 5068.17 320.45 o
3 1 13 4427.62 4485.97 307.58 o
4 1 13 20.63 -50.28 131.83 <
5 1 13 18231.95 18085.96 656.68 o
6 1 13 3268.87 3337.77 373.81 o
7 1 13 865.54 965.12 391.67 <
-7 2 13 1755.00 1686.28 393.07 o
-6 2 13 8605.69 7485.16 678.28 o
-5 2 13 6345.32 6124.94 456.92 o
-4 2 13 561.84 702.98 165.91 o
-3 2 13 432.43 420.93 186.24 <
-2 2 13 4123.44 3670.10 265.75 o
-1 2 13 11429.86 11331.37 454.03 o
0 2 13 5257.52 5949.50 344.36 o
1 2 13 4086.14 4104.66 292.02 o
2 2 13 1.36 57.32 131.04 <
3 2 13 1695.69 1503.37 199.67 o
4 2 13 337.81 474.35 160.98 <
5 2 13 8492.36 8004.02 419.88 o
6 2 13 12631.62 12892.70 676.78 o
7 2 13 208.03 76.33 282.38 <
-7 3 13 1618.93 1813.69 424.33 o
-6 3 13 10446.24 10598.18 588.76 o
-5 3 13 3314.88 3556.46 359.76 o
-4 3 13 558.63 624.58 209.41 <
-3 3 13 214.39 628.07 149.53 o
-2 3 13 112.69 163.34 129.48 <
-1 3 13 611.17 801.42 163.83 o
0 3 13 175.79 457.45 147.45 o
1 3 13 21136.46 21631.41 732.64 o
2 3 13 6164.21 6124.45 355.13 o
3 3 13 1718.80 1796.47 210.34 o
4 3 13 5054.03 5410.27 341.54 o
5 3 13 10600.47 10505.80 458.36 o
6 3 13 7521.80 8096.30 543.65 o
7 3 13 84.12 41.68 282.92 <
-7 4 13 1026.70 898.64 368.20 <
-6 4 13 4189.86 4213.53 405.10 o
-5 4 13 4628.56 4373.70 565.69 o
-4 4 13 850.63 436.21 309.12 <
-3 4 13 7210.19 6772.27 448.70 o
-2 4 13 3138.17 2971.19 248.44 o
-1 4 13 130.23 365.76 138.85 <
0 4 13 11277.18 9940.94 417.00 o
1 4 13 4364.80 4622.32 306.28 o
2 4 13 8118.65 8228.54 378.68 o
3 4 13 344.20 192.24 136.23 <
4 4 13 142.13 2.87 130.52 <
5 4 13 9928.77 9675.82 429.46 o
6 4 13 5744.18 5550.35 458.61 o
7 4 13 104.35 82.06 299.07 <
8 4 13 2793.53 3284.28 556.79 o
-6 5 13 5638.73 5631.13 654.78 o
-5 5 13 32.33 666.42 350.92 <
-4 5 13 708.47 346.39 298.21 <
-3 5 13 2836.00 3062.67 327.58 o
-2 5 13 3610.82 3432.47 336.56 o
-1 5 13 2333.08 2673.52 236.56 o
0 5 13 4635.32 4611.36 305.99 o
1 5 13 29238.64 26348.42 853.46 o
2 5 13 1667.16 1918.87 209.82 o
3 5 13 180.98 749.73 159.17 o
4 5 13 355.84 503.26 154.99 o
5 5 13 7509.84 7365.60 403.98 o
6 5 13 1705.54 1558.81 292.34 o
7 5 13 1006.48 992.40 379.15 <
8 5 13 839.16 1207.58 418.50 <
-6 6 13 1458.32 1280.13 428.27 <
-5 6 13 1183.48 1286.81 397.34 o
-4 6 13 10793.07 10856.11 869.18 o
-3 6 13 4973.54 5357.43 430.71 o
-2 6 13 28.64 21.10 176.63 <
-1 6 13 2276.20 2532.54 296.43 o
0 6 13 3373.14 3575.65 345.96 o
1 6 13 11305.23 11104.60 450.18 o
2 6 13 6362.75 6587.87 354.32 o
3 6 13 561.65 771.48 167.74 o
4 6 13 166.56 239.15 142.24 <
5 6 13 1159.43 989.21 245.55 o
6 6 13 4882.14 4697.35 430.72 o
7 6 13 4430.78 4213.61 596.93 o
-6 7 13 0.66 29.70 375.42 <
-5 7 13 343.14 112.79 331.60 <
-4 7 13 1908.84 1981.64 443.28 o
-3 7 13 14500.77 13561.42 694.83 o
-2 7 13 1157.58 920.21 229.14 o
-1 7 13 547.64 344.33 201.08 <
0 7 13 6872.91 6449.73 474.74 o
1 7 13 12201.33 12262.46 630.56 o
2 7 13 1161.05 1190.75 243.20 o
3 7 13 2803.11 2624.55 313.79 o
4 7 13 15.29 -140.42 174.81 <
5 7 13 672.68 773.00 246.64 o
6 7 13 273.28 1018.79 360.52 <
7 7 13 706.91 563.59 334.67 <
-5 8 13 882.34 1356.52 440.11 o
-4 8 13 9382.10 9162.01 912.52 o
-3 8 13 3756.49 4208.52 411.18 o
-2 8 13 1196.80 1058.20 251.79 o
-1 8 13 196.95 169.33 201.11 <
0 8 13 1048.83 925.99 230.46 o
1 8 13 5548.03 5227.65 431.37 o
2 8 13 739.17 1188.12 241.17 o
3 8 13 1709.29 1954.50 283.75 o
4 8 13 7542.09 6904.64 509.90 o
5 8 13 863.87 638.04 240.11 <
6 8 13 87.01 -119.84 257.91 <
7 8 13 10729.21 9540.89 831.28 o
-4 9 13 5135.11 4349.91 655.72 o
-3 9 13 9903.39 9330.78 593.85 o
-2 9 13 18.92 -166.21 194.35 <
-1 9 13 517.12 817.86 239.63 o
0 9 13 390.04 557.17 218.80 <
1 9 13 5452.57 6296.73 486.74 o
2 9 13 754.68 805.27 237.78 o
3 9 13 5401.21 5089.47 440.23 o
4 9 13 638.83 942.31 245.34 o
5 9 13 3485.36 3930.46 390.68 o
6 9 13 33.80 76.85 298.82 <
-3 10 13 3764.80 3335.10 427.03 o
-2 10 13 19.34 14.85 221.97 <
-1 10 13 744.50 735.73 246.63 <
0 10 13 301.98 452.99 234.18 <
1 10 13 126.60 478.82 228.47 <
2 10 13 801.31 770.61 252.10 o
3 10 13 12728.12 11692.94 645.92 o
4 10 13 6543.63 5457.05 476.88 o
5 10 13 609.51 615.71 246.65 <
6 10 13 2110.21 3156.27 513.51 o
-3 11 13 2256.07 2471.32 598.83 o
-2 11 13 228.58 556.43 280.30 <
-1 11 13 5425.22 5555.19 509.34 o
0 11 13 4.29 -210.51 214.67 <
1 11 13 148.43 35.43 219.09 <
2 11 13 3427.88 3908.71 422.42 o
3 11 13 1069.77 974.41 268.73 o
4 11 13 8511.64 9420.54 615.51 o
5 11 13 526.55 500.09 349.54 <
-2 12 13 568.29 621.19 448.25 <
-1 12 13 1469.42 1435.81 465.50 o
0 12 13 6003.68 5985.37 538.55 o
1 12 13 1340.43 1214.86 313.74 o
2 12 13 202.59 211.53 231.59 <
3 12 13 12290.41 14653.90 776.55 o
4 12 13 789.81 66.67 389.08 <
1 13 13 1891.08 2566.23 555.73 o
2 13 13 33.46 125.05 378.80 <
3 13 13 2233.76 1112.83 459.86 <
4 13 13 5936.23 5755.85 757.02 o
1 -8 14 843.56 411.73 473.71 <
1 -7 14 4347.46 4654.33 670.25 o
2 -7 14 256.10 464.20 447.01 <
-3 -6 14 731.83 715.42 257.83 <
-2 -6 14 462.18 776.20 250.31 o
-1 -6 14 297.69 266.22 221.16 <
0 -6 14 4407.44 4249.26 342.67 o
1 -6 14 3098.96 3054.92 311.14 o
2 -6 14 387.73 348.78 254.23 <
-5 -5 14 191.00 486.36 325.37 <
-4 -5 14 2337.96 1988.22 312.81 o
-3 -5 14 2596.18 2046.81 412.17 o
-2 -5 14 148.12 142.24 202.42 <
-1 -5 14 2.88 -257.66 176.38 <
0 -5 14 4849.59 4497.47 340.00 o
1 -5 14 8683.32 9733.10 597.31 o
2 -5 14 178.34 197.20 190.69 <
3 -5 14 895.58 1064.33 231.77 o
4 -5 14 1982.79 1918.80 428.68 o
-5 -4 14 356.36 -191.45 269.60 <
-4 -4 14 8107.57 8943.00 550.73 o
-3 -4 14 3085.81 2561.20 324.67 o
-2 -4 14 0.20 68.26 261.05 <
-1 -4 14 610.22 810.01 189.09 o
0 -4 14 5495.46 4593.89 331.33 o
1 -4 14 3506.56 3627.68 301.20 o
2 -4 14 779.66 310.44 180.22 <
3 -4 14 547.25 565.98 204.20 <
4 -4 14 514.47 714.97 266.72 <
5 -4 14 2697.23 2373.22 437.64 o
-6 -3 14 39.33 45.07 276.15 <
-5 -3 14 679.61 990.99 333.37 <
-4 -3 14 6528.89 5549.95 436.35 o
-3 -3 14 6293.46 5958.51 454.59 o
-2 -3 14 172.69 379.30 206.58 <
-1 -3 14 464.13 565.74 180.51 o
0 -3 14 5427.24 5488.82 420.74 o
1 -3 14 9202.23 7759.26 517.02 o
2 -3 14 1609.60 1373.78 256.17 o
3 -3 14 1788.61 1904.96 299.10 o
4 -3 14 20.00 180.28 181.32 <
5 -3 14 106.40 133.12 219.87 <
6 -3 14 2.96 427.52 248.28 <
-6 -2 14 118.57 -100.30 200.33 <
-5 -2 14 1507.74 1409.49 219.47 o
-4 -2 14 10876.84 10477.36 561.70 o
-3 -2 14 2817.58 2477.77 307.80 o
-2 -2 14 59.38 176.63 191.74 <
-1 -2 14 82.47 177.67 149.02 <
0 -2 14 691.47 896.45 188.30 o
1 -2 14 2905.18 3174.96 275.79 o
2 -2 14 129.43 218.57 160.47 <
3 -2 14 11572.63 10891.86 485.36 o
4 -2 14 1468.73 1611.82 235.10 o
5 -2 14 1070.37 1356.14 233.84 o
6 -2 14 1266.38 1285.71 282.50 o
-7 -1 14 1577.54 1099.62 384.24 <
-6 -1 14 147.45 -98.47 203.20 <
-5 -1 14 758.44 772.71 199.49 o
-4 -1 14 7077.51 7131.85 492.60 o
-3 -1 14 6486.01 6153.40 457.15 o
-2 -1 14 671.66 419.58 195.86 <
-1 -1 14 3531.36 3720.27 286.11 o
0 -1 14 3828.98 3532.25 284.25 o
1 -1 14 950.47 1091.39 192.18 o
2 -1 14 4738.74 4474.94 326.25 o
3 -1 14 3390.18 3185.69 283.53 o
4 -1 14 4562.21 4712.61 344.21 o
5 -1 14 69.60 222.22 173.24 <
6 -1 14 15.98 -380.37 308.98 <
-7 0 14 1514.57 1714.05 416.28 o
-6 0 14 14.05 -62.79 188.10 <
-5 0 14 1370.34 1336.95 211.67 o
-4 0 14 7279.39 8215.77 517.22 o
-3 0 14 268.81 807.27 217.77 o
-2 0 14 194.50 418.37 156.56 <
-1 0 14 1873.56 1727.11 209.28 o
0 0 14 1608.09 1433.14 201.24 o
1 0 14 2995.33 3246.12 274.48 o
2 0 14 2889.27 3205.17 276.31 o
3 0 14 19895.49 19654.74 706.25 o
4 0 14 1359.06 1212.25 213.50 o
5 0 14 9.18 137.82 164.91 <
6 0 14 307.28 780.43 272.99 <
-7 1 14 1472.41 2113.97 460.54 o
-6 1 14 1.58 -106.56 306.12 <
-5 1 14 41.30 229.26 162.57 <
-4 1 14 4422.97 5204.81 424.31 o
-3 1 14 2121.43 2447.08 303.74 o
-2 1 14 10016.64 9640.94 425.29 o
-1 1 14 4026.03 4464.45 311.01 o
0 1 14 35.12 150.58 138.08 <
1 1 14 1756.48 1853.98 219.97 o
2 1 14 2321.00 2197.02 237.87 o
3 1 14 9922.04 9507.03 440.87 o
4 1 14 6273.87 6783.21 404.73 o
5 1 14 18.15 171.69 162.83 <
6 1 14 0.66 -41.94 224.05 <
-7 2 14 283.35 -30.74 279.77 <
-6 2 14 1102.32 584.06 314.29 <
-5 2 14 138.08 298.80 304.28 <
-4 2 14 323.04 1373.03 253.98 o
-3 2 14 39.93 26.31 171.68 <
-2 2 14 2037.11 2463.06 244.41 o
-1 2 14 18008.72 18139.40 650.82 o
0 2 14 1406.51 1384.85 198.65 o
1 2 14 447.99 443.07 158.89 <
2 2 14 7534.13 7050.87 387.36 o
3 2 14 13094.59 12507.80 517.13 o
4 2 14 1797.42 1580.61 225.17 o
5 2 14 625.94 443.03 169.29 <
6 2 14 26.15 170.12 219.62 <
-5 3 14 2892.02 3408.02 535.70 o
-4 3 14 2678.78 3192.18 502.19 o
-3 3 14 711.95 422.96 205.49 <
-2 3 14 12747.10 11791.86 480.18 o
-1 3 14 5419.75 5996.16 361.75 o
0 3 14 3229.30 3828.23 289.28 o
1 3 14 340.06 478.77 157.85 o
2 3 14 1238.43 1249.56 199.19 o
3 3 14 7654.64 7745.45 429.91 o
4 3 14 2482.78 2763.64 264.13 o
5 3 14 1098.27 1450.14 214.04 o
6 3 14 3627.67 3771.51 407.56 o
-6 4 14 2210.17 2092.43 475.74 o
-5 4 14 2127.21 2074.33 463.54 o
-4 4 14 708.38 521.14 340.92 <
-3 4 14 40.54 11.46 263.39 <
-2 4 14 8318.15 7816.24 407.46 o
-1 4 14 17079.09 15816.09 591.13 o
0 4 14 127.37 95.09 133.38 <
1 4 14 438.68 577.47 163.58 o
2 4 14 1681.69 1718.67 218.15 o
3 4 14 6969.73 7337.33 414.47 o
4 4 14 196.17 539.50 170.89 o
5 4 14 2878.65 3115.66 286.98 o
6 4 14 1076.77 1219.18 292.69 o
-6 5 14 9648.60 8217.81 826.97 o
-5 5 14 2113.39 2497.53 507.52 o
-4 5 14 48.69 110.20 326.95 <
-3 5 14 2286.20 2948.65 504.11 o
-2 5 14 5206.36 4287.87 388.55 o
-1 5 14 6979.49 6609.38 381.75 o
0 5 14 652.50 1098.31 183.10 o
1 5 14 554.14 394.60 152.63 <
2 5 14 263.24 225.07 149.52 <
3 5 14 1860.51 1689.63 215.27 o
4 5 14 740.38 830.54 185.69 o
5 5 14 13133.41 13982.78 565.78 o
6 5 14 5482.78 7058.06 547.01 o
-5 6 14 6074.00 4027.33 602.68 o
-4 6 14 108.29 -15.63 308.97 <
-3 6 14 5.02 -131.04 278.24 <
-2 6 14 5778.97 6267.16 480.17 o
-1 6 14 6810.25 7163.59 491.89 o
0 6 14 158.14 262.85 195.38 <
1 6 14 4685.48 4883.20 418.29 o
2 6 14 204.15 309.74 151.87 <
3 6 14 134.34 277.18 157.09 <
4 6 14 2334.49 2372.67 250.88 o
5 6 14 2311.03 2087.97 249.84 o
6 6 14 10969.25 11342.08 648.49 o
-4 7 14 103.40 -11.72 330.85 <
-3 7 14 151.74 219.09 343.35 <
-2 7 14 1364.34 800.62 240.31 o
-1 7 14 1341.45 1939.73 300.20 o
0 7 14 73.65 101.08 186.27 <
1 7 14 3676.72 3765.01 378.43 o
2 7 14 5763.35 6057.03 484.85 o
3 7 14 2095.89 1900.01 307.39 o
4 7 14 1229.56 1219.88 269.75 o
5 7 14 15797.48 14915.27 766.00 o
6 7 14 2009.11 1589.54 434.67 o
-4 8 14 256.84 -319.11 354.01 <
-3 8 14 483.10 255.52 332.10 <
-2 8 14 630.35 516.99 238.83 <
-1 8 14 2376.25 2518.09 334.41 o
0 8 14 6455.66 5954.53 481.06 o
1 8 14 5181.13 4603.17 425.98 o
2 8 14 412.42 801.75 236.77 o
3 8 14 2847.51 3400.35 374.41 o
4 8 14 28.52 122.45 208.16 <
5 8 14 5942.03 5148.81 464.53 o
6 8 14 9646.39 10075.63 876.05 o
-3 9 14 545.40 872.28 431.84 <
-2 9 14 193.04 517.62 244.87 <
-1 9 14 1.88 -96.92 206.08 <
0 9 14 103.45 450.17 227.17 <
1 9 14 18265.09 18755.44 899.46 o
2 9 14 2050.39 1722.79 302.97 o
3 9 14 840.65 1101.86 269.54 o
4 9 14 4351.90 4280.62 423.02 o
5 9 14 2964.27 2473.39 358.51 o
-2 10 14 433.94 1312.27 426.92 o
-1 10 14 129.25 534.31 271.19 <
0 10 14 5830.24 5496.73 500.67 o
1 10 14 2141.13 2203.95 336.01 o
2 10 14 5460.00 4937.95 458.92 o
3 10 14 7.71 -75.03 201.91 <
4 10 14 201.71 496.78 258.42 <
-2 11 14 2405.18 2194.77 536.85 o
-1 11 14 1480.46 1528.74 469.92 o
0 11 14 2565.52 2233.15 369.50 o
1 11 14 11940.30 12155.85 703.88 o
2 11 14 2.06 117.24 232.91 <
3 11 14 103.63 222.48 256.61 <
4 11 14 1.82 90.40 367.34 <
2 12 14 1750.75 2097.84 514.11 o
4 12 14 445.32 1025.74 417.28 <
1 -6 15 319.10 585.31 401.93 <
1 -5 15 490.39 687.89 405.81 <
2 -5 15 256.54 184.17 388.66 <
-4 -4 15 41.15 -47.15 309.76 <
-3 -4 15 4.30 -83.37 331.65 <
-2 -4 15 3631.08 2839.57 359.95 o
-1 -4 15 1866.42 1237.72 292.58 o
0 -4 15 3957.36 4234.81 406.19 o
1 -4 15 1118.14 1196.49 278.88 o
2 -4 15 4.18 240.73 234.21 <
3 -4 15 407.86 97.16 364.15 <
-4 -3 15 434.52 604.04 370.39 <
-3 -3 15 113.64 200.59 214.66 <
-2 -3 15 461.01 822.31 254.22 o
-1 -3 15 185.60 -77.63 189.65 <
0 -3 15 1014.27 859.07 205.98 o
1 -3 15 8329.24 8579.55 462.97 o
2 -3 15 378.97 310.75 192.76 <
3 -3 15 216.64 292.54 197.46 <
4 -3 15 4077.85 4061.30 551.25 o
-4 -2 15 1917.78 976.09 261.59 o
-3 -2 15 1521.14 1536.53 285.59 o
-2 -2 15 2104.23 2196.69 306.86 o
-1 -2 15 73.33 261.04 168.82 <
0 -2 15 8184.47 8097.31 437.58 o
1 -2 15 2881.39 2260.69 262.00 o
2 -2 15 1839.78 2139.44 259.52 o
3 -2 15 43.77 401.98 186.53 <
4 -2 15 1056.09 778.33 218.21 o
5 -2 15 5542.88 5238.34 460.69 o
-5 -1 15 256.70 270.39 322.49 <
-4 -1 15 1507.83 1533.93 282.21 o
-3 -1 15 1770.23 1597.53 288.95 o
-2 -1 15 755.50 1002.68 243.51 o
-1 -1 15 253.79 460.04 173.75 <
0 -1 15 6994.93 6873.05 407.96 o
1 -1 15 12531.73 12892.43 538.49 o
2 -1 15 126.21 122.44 171.94 <
3 -1 15 78.34 56.79 170.38 <
4 -1 15 1678.41 1941.74 257.72 o
5 -1 15 4536.67 4118.40 417.77 o
6 -1 15 120.34 388.42 375.66 <
-5 0 15 50.48 289.44 218.84 <
-4 0 15 9397.42 9670.26 583.85 o
-3 0 15 2286.58 3645.84 377.62 o
-2 0 15 2.88 226.14 203.99 <
-1 0 15 2237.82 1769.49 225.64 o
0 0 15 5601.88 5074.41 349.76 o
1 0 15 6529.81 6305.74 394.29 o
2 0 15 1275.55 1726.02 233.82 o
3 0 15 172.60 185.22 177.67 <
4 0 15 0.88 -33.61 165.43 <
5 0 15 2468.89 2261.61 267.77 o
6 0 15 782.24 519.30 403.41 <
-5 1 15 936.24 611.44 240.62 <
-4 1 15 4979.27 4594.05 414.83 o
-3 1 15 9389.87 9340.28 543.94 o
-2 1 15 421.40 705.11 235.99 <
-1 1 15 1.05 34.39 156.58 <
0 1 15 8943.84 8367.32 445.74 o
1 1 15 8515.72 8244.16 429.48 o
2 1 15 31.79 37.52 150.58 <
3 1 15 1701.31 1896.71 250.17 o
4 1 15 287.39 367.03 184.95 <
5 1 15 248.58 120.61 182.35 <
6 1 15 222.75 459.78 367.04 <
-5 2 15 2312.89 2045.49 459.32 o
-4 2 15 11063.71 11303.79 609.57 o
-3 2 15 3608.35 4126.06 398.46 o
-2 2 15 513.36 542.29 225.04 <
-1 2 15 457.43 590.49 177.64 o
0 2 15 2602.51 2408.03 259.95 o
1 2 15 3706.87 4431.54 334.99 o
2 2 15 140.25 75.03 162.82 <
3 2 15 4085.76 4752.92 353.13 o
4 2 15 3031.63 3265.53 303.09 o
5 2 15 1430.23 1567.32 242.39 o
6 2 15 518.39 521.19 392.00 <
-5 3 15 408.66 752.26 383.68 <
-4 3 15 8658.61 7808.12 801.49 o
-3 3 15 7363.90 8336.84 529.39 o
-2 3 15 93.66 195.65 156.31 <
-1 3 15 592.89 594.36 177.11 o
0 3 15 3148.22 3372.31 289.81 o
1 3 15 3119.27 3173.86 286.43 o
2 3 15 3476.82 3502.63 301.99 o
3 3 15 4242.98 4238.26 337.76 o
4 3 15 1312.77 1226.07 226.26 o
5 3 15 1479.04 1880.48 250.71 o
6 3 15 5.72 -128.96 310.03 <
-5 4 15 1757.17 2178.78 488.08 o
-4 4 15 5603.27 5738.82 705.20 o
-3 4 15 1968.83 1927.95 434.94 o
-2 4 15 164.15 135.20 157.61 <
-1 4 15 846.75 1017.22 191.15 o
0 4 15 43.74 81.28 155.01 <
1 4 15 887.23 1219.29 206.51 o
2 4 15 180.62 403.26 171.93 <
3 4 15 19408.62 19401.01 716.97 o
4 4 15 3080.44 3308.91 305.94 o
5 4 15 392.79 657.97 203.43 o
6 4 15 2973.67 2646.87 520.84 o
-4 5 15 4269.43 4101.26 624.52 o
-3 5 15 1900.10 1442.04 440.68 o
-2 5 15 2662.54 2844.30 339.57 o
-1 5 15 4986.88 4738.20 337.38 o
0 5 15 663.10 862.34 191.95 o
1 5 15 165.36 343.87 166.98 <
2 5 15 4729.51 4535.23 337.95 o
3 5 15 4463.08 4694.10 357.48 o
4 5 15 9294.11 9881.86 468.74 o
5 5 15 3.86 388.18 238.12 <
6 5 15 97.38 680.20 360.29 <
-3 6 15 0.45 -187.32 301.43 <
-2 6 15 1338.14 1100.04 268.70 o
-1 6 15 5553.89 5604.06 470.08 o
0 6 15 3129.39 2931.37 349.38 o
1 6 15 1483.51 1649.31 293.93 o
2 6 15 4132.78 3641.19 302.41 o
3 6 15 16337.27 16507.03 638.61 o
4 6 15 581.11 652.18 194.04 o
5 6 15 26.69 50.80 232.91 <
-3 7 15 24.99 107.08 341.03 <
-2 7 15 10223.85 10001.98 610.60 o
-1 7 15 3621.10 3459.96 391.95 o
0 7 15 258.06 302.17 220.64 <
1 7 15 2780.54 2844.15 353.34 o
2 7 15 244.73 36.73 227.94 <
3 7 15 7588.73 7202.55 555.56 o
4 7 15 4424.28 3746.17 419.10 o
5 7 15 1799.23 2038.98 480.53 o
-2 8 15 2166.85 1791.38 327.93 o
-1 8 15 15586.68 15232.42 787.51 o
0 8 15 228.66 398.30 240.96 <
1 8 15 228.97 349.33 232.89 <
2 8 15 4590.35 3671.04 396.71 o
3 8 15 3090.17 2947.77 380.86 o
4 8 15 333.82 456.37 243.29 <
5 8 15 887.35 691.41 385.94 <
-2 9 15 5989.38 5564.11 709.74 o
-1 9 15 1963.14 1653.60 322.76 o
0 9 15 2365.85 2648.44 372.14 o
1 9 15 46.78 -193.57 210.24 <
2 9 15 3.18 30.48 229.78 <
3 9 15 3771.89 3370.71 409.86 o
4 9 15 28.44 -21.62 337.64 <
5 9 15 2925.54 2469.73 532.29 o
-2 10 15 4667.90 4721.10 675.07 o
-1 10 15 6569.92 7702.57 845.63 o
0 10 15 538.66 620.42 374.80 <
1 10 15 161.67 428.79 246.96 <
2 10 15 33.04 356.13 244.89 <
3 10 15 361.29 959.36 426.67 <
4 10 15 133.77 106.55 348.82 <
1 -4 16 1.67 472.07 393.66 <
0 -3 16 171.72 271.19 339.70 <
1 -3 16 160.16 105.77 348.04 <
0 -2 16 175.57 342.04 191.99 <
1 -2 16 216.35 259.20 357.67 <
2 -2 16 2000.55 2024.46 479.18 o
-2 -1 16 5542.48 4429.84 655.07 o
-1 -1 16 1933.58 701.74 256.39 <
0 -1 16 9.37 185.23 174.03 <
1 -1 16 419.18 552.21 200.57 <
2 -1 16 4.30 -105.77 169.08 <
3 -1 16 1562.39 1960.84 316.05 o
-3 0 16 325.56 -213.08 298.52 <
-2 0 16 6254.67 6760.25 525.23 o
-1 0 16 2672.46 2796.90 362.46 o
0 0 16 2374.62 2284.63 269.09 o
1 0 16 1743.22 1666.80 247.56 o
2 0 16 309.89 329.00 188.59 <
3 0 16 9.49 -20.06 173.51 <
4 0 16 2715.15 2575.89 472.51 o
-3 1 16 486.02 80.74 347.46 <
-2 1 16 1970.52 1613.51 304.53 o
-1 1 16 465.76 813.97 207.59 o
0 1 16 1120.76 1284.77 233.05 o
1 1 16 5384.85 5114.04 374.74 o
2 1 16 1389.04 1498.62 240.83 o
3 1 16 867.90 1084.39 223.96 o
4 1 16 4421.91 5164.02 462.77 o
5 1 16 10574.78 9438.22 720.59 o
-3 2 16 334.66 42.72 325.35 <
-2 2 16 2298.75 2517.36 347.43 o
-1 2 16 122.93 222.74 178.45 <
0 2 16 8594.43 8762.49 477.71 o
1 2 16 4002.95 4015.30 337.53 o
2 2 16 648.60 449.53 197.94 <
3 2 16 1673.07 1791.80 261.62 o
4 2 16 1051.28 1718.10 316.64 o
5 2 16 7794.17 8138.68 586.86 o
-3 3 16 620.29 438.60 384.69 <
-2 3 16 25.34 144.33 216.50 <
-1 3 16 4.51 67.22 176.12 <
0 3 16 3869.66 3619.22 320.13 o
1 3 16 17232.24 17570.72 683.55 o
2 3 16 403.61 256.05 185.72 <
3 3 16 173.14 191.99 186.26 <
4 3 16 6467.58 7393.03 457.91 o
5 3 16 4066.33 4505.41 440.22 o
-2 4 16 402.66 459.74 228.44 <
-1 4 16 1286.00 1237.28 224.96 o
0 4 16 8051.36 8134.00 469.00 o
1 4 16 4299.84 4221.97 345.55 o
2 4 16 3679.69 3902.50 334.98 o
3 4 16 154.25 604.12 201.11 o
4 4 16 206.37 260.76 239.92 <
5 4 16 5965.31 5651.92 744.03 o
-2 5 16 947.66 1322.37 423.43 o
-1 5 16 217.93 486.61 247.48 <
0 5 16 8331.96 7888.93 456.48 o
1 5 16 11139.48 11178.05 512.64 o
2 5 16 131.19 -48.98 170.90 <
3 5 16 188.93 230.81 191.99 <
4 5 16 232.35 69.03 219.60 <
5 5 16 1147.86 -24.48 372.09 <
-1 6 16 1717.52 1944.57 324.61 o
0 6 16 1161.50 1629.75 310.64 o
1 6 16 5297.67 5353.29 487.80 o
2 6 16 451.04 -88.56 225.83 <
3 6 16 3617.39 3506.19 318.60 o
4 6 16 166.91 222.73 230.03 <
5 6 16 737.41 769.33 441.44 <
-1 7 16 59.74 -104.99 296.99 <
0 7 16 4625.98 4187.70 436.99 o
1 7 16 1454.92 1297.32 306.43 o
2 7 16 456.58 500.36 259.17 <
3 7 16 2931.72 3229.71 585.64 o
4 7 16 806.04 782.32 403.92 <
5 7 16 1.34 141.99 386.62 <
-1 8 16 194.17 -112.80 312.86 <
0 8 16 59.80 -180.80 310.28 <
1 8 16 1592.42 1749.42 449.85 o
2 8 16 623.35 695.14 392.76 <
3 8 16 6545.01 6051.15 769.80 o
-1 9 16 445.36 683.74 402.17 <
1 -1 17 696.00 673.24 397.95 <
0 0 17 347.13 638.97 380.31 <
1 0 17 15.37 417.88 361.61 <
0 1 17 174.35 -54.19 339.44 <
1 1 17 1663.89 2014.88 485.24 o
0 2 17 22.58 -170.12 319.92 <
1 2 17 3.42 -149.54 301.95 <
0 3 17 343.10 666.58 355.82 <
1 3 17 195.13 -3.91 321.20 <
0 4 17 1734.10 2258.73 489.65 o
1 4 17 489.94 640.49 390.18 <
0 5 17 604.98 1085.56 399.53 <
1 5 17 4016.31 3659.14 594.43 o
-1 6 17 83.33 13.55 312.62 <
0 6 17 3473.43 3464.20 574.55 o
