#------------------------------------------------------------------------------
#$Date: 2016-02-16 03:10:39 +0200 (Tue, 16 Feb 2016) $
#$Revision: 176453 $
#$URL: svn://www.crystallography.net/cod/cif/7/02/12/7021205.cif $
#------------------------------------------------------------------------------
#
# This file is available in the Crystallography Open Database (COD),
# http://www.crystallography.net/
#
# All data on this site have been placed in the public domain by the
# contributors.
#
data_7021205
loop_
_publ_author_name
'van der Westhuizen, Belinda'
'Swarts, Pieter J'
'Strydom, Ian'
'Liles, David C'
'Fern\'andez, Israel'
'Swarts, Jannie C'
'Bezuidenhout, Daniela I'
_publ_section_title
;
 Electrochemical illumination of thienyl and ferrocenyl chromium(0)
 Fischer carbene complexes.
;
_journal_issue                   15
_journal_name_full
'Dalton transactions (Cambridge, England : 2003)'
_journal_page_first              5367
_journal_page_last               5378
_journal_paper_doi               10.1039/c3dt32913e
_journal_volume                  42
_journal_year                    2013
_chemical_formula_moiety         'C12 H8 Cr1 O6 S1'
_chemical_formula_sum            'C12 H8 Cr O6 S'
_chemical_formula_weight         332.25
_chemical_name_systematic
;
Pentacarbonyl(ethoxy-thiophenyl-methylidene)chromium
;
_space_group_IT_number           11
_symmetry_cell_setting           monoclinic
_symmetry_space_group_name_Hall  '-P 2yb'
_symmetry_space_group_name_H-M   'P 1 21/m 1'
_atom_sites_solution_hydrogens   geom
_atom_sites_solution_primary     direct
_atom_sites_solution_secondary   difmap
_audit_creation_method           SHELXL-97
_cell_angle_alpha                90.00
_cell_angle_beta                 98.737(3)
_cell_angle_gamma                90.00
_cell_formula_units_Z            2
_cell_length_a                   9.5803(6)
_cell_length_b                   7.6532(5)
_cell_length_c                   9.6551(6)
_cell_measurement_reflns_used    9987
_cell_measurement_temperature    296(2)
_cell_measurement_theta_max      26.046
_cell_measurement_theta_min      2.790
_cell_volume                     699.70(8)
_computing_cell_refinement       'Bruker SAINT'
_computing_data_collection       'Bruker APEX2'
_computing_data_reduction        'Bruker SAINT'
_computing_molecular_graphics
; <i>ORTEP-3 for Windows</i> (Farrugia, 1997), <i>POV-RAY</i> (Cason, 2004),
<i>Mercury</i> (Macrae <i>et al</i>., 2008)
;
_computing_publication_material
'<i>SHELXL-97</i>, <i>PLATON</i> (Spek, 2009)'
_computing_structure_refinement  'SHELXL-97 (Sheldrick, 2008)'
_computing_structure_solution    'SHELXS-97 (Sheldrick, 2008)'
_diffrn_ambient_temperature      296(2)
_diffrn_measured_fraction_theta_full 0.998
_diffrn_measured_fraction_theta_max 0.998
_diffrn_measurement_device_type  'Bruker kappa Proton CMOS'
_diffrn_radiation_monochromator  'Quazar multi-layer optics'
_diffrn_radiation_source         'I\ms micro focus'
_diffrn_radiation_type           MoK\a
_diffrn_radiation_wavelength     0.71073
_diffrn_reflns_av_R_equivalents  0.0433
_diffrn_reflns_av_sigmaI/netI    0.0183
_diffrn_reflns_limit_h_max       11
_diffrn_reflns_limit_h_min       -11
_diffrn_reflns_limit_k_max       9
_diffrn_reflns_limit_k_min       -9
_diffrn_reflns_limit_l_max       11
_diffrn_reflns_limit_l_min       -11
_diffrn_reflns_number            20399
_diffrn_reflns_theta_full        26.13
_diffrn_reflns_theta_max         26.13
_diffrn_reflns_theta_min         2.13
_diffrn_standards_number         0
_exptl_absorpt_coefficient_mu    0.986
_exptl_absorpt_correction_T_max  0.7453
_exptl_absorpt_correction_T_min  0.6769
_exptl_absorpt_correction_type   multi-scan
_exptl_absorpt_process_details   SADABS
_exptl_crystal_colour            dark-orange
_exptl_crystal_density_diffrn    1.577
_exptl_crystal_density_method    'not measured'
_exptl_crystal_description       hexagonal-prism
_exptl_crystal_F_000             336
_exptl_crystal_size_max          0.179
_exptl_crystal_size_mid          0.177
_exptl_crystal_size_min          0.118
_refine_diff_density_max         0.850
_refine_diff_density_min         -0.570
_refine_diff_density_rms         0.122
_refine_ls_extinction_method     none
_refine_ls_goodness_of_fit_ref   1.199
_refine_ls_hydrogen_treatment    constr
_refine_ls_matrix_type           full
_refine_ls_number_parameters     122
_refine_ls_number_reflns         1497
_refine_ls_number_restraints     0
_refine_ls_restrained_S_all      1.199
_refine_ls_R_factor_all          0.0861
_refine_ls_R_factor_gt           0.0787
_refine_ls_shift/su_max          0.000
_refine_ls_shift/su_mean         0.000
_refine_ls_structure_factor_coef Fsqd
_refine_ls_weighting_details
'calc w=1/[\s^2^(Fo^2^)+(0.0878P)^2^+3.5878P] where P=(Fo^2^+2Fc^2^)/3'
_refine_ls_weighting_scheme      calc
_refine_ls_wR_factor_gt          0.2325
_refine_ls_wR_factor_ref         0.2371
_reflns_number_gt                1330
_reflns_number_total             1497
_reflns_threshold_expression     >2\s(I)
_iucr_refine_instructions_details
;
TITL mo_BvdWCrThOEt_0m in P2(1)/m
CELL 0.71073 9.5803 7.6532 9.6551 90.000 98.737 90.000
ZERR 2.00 0.0006 0.0005 0.0006 0.000 0.003 0.000
LATT 1
SYMM -x, y+1/2, -z
SFAC C H O S Cr
UNIT 24 16 12 2 2
L.S. 16
ACTA
BOND $H
FMAP 2
PLAN 5
HTAB
CONF
TEMP 23.000
WGHT 0.087800 3.587800
FVAR 0.89647 0.52591
PART 1
CR1 5 0.289351 0.250000 0.292758 10.50000 0.03834 0.03485 =
0.03777 0.00000 0.00565 0.00000
C1 1 0.442393 0.250000 0.445472 10.50000 0.03649 0.06147 =
0.04500 0.00000 -0.00539 0.00000
O1 3 0.526883 0.250000 0.528986 10.50000 0.06677 0.12886 =
0.06903 0.00000 -0.01952 0.00000
C2 1 0.204578 0.426065 0.388432 11.00000 0.04688 0.04577 =
0.05691 -0.00325 0.01116 -0.00310
O2 3 0.162478 0.534508 0.454008 11.00000 0.07300 0.06515 =
0.10697 -0.02750 0.03054 0.00046
C3 1 0.384126 0.429827 0.206863 11.00000 0.06001 0.04582 =
0.04281 -0.00369 0.01144 -0.01163
O3 3 0.445787 0.535873 0.161883 11.00000 0.11164 0.06854 =
0.07965 0.00078 0.03433 -0.03176
C4 1 0.121715 0.250000 0.128727 10.50000 0.04455 0.03910 =
0.04514 0.00000 0.01079 0.00000
O4 3 -0.016866 0.250000 0.132122 10.50000 0.04481 0.06057 =
0.05750 0.00000 0.00575 0.00000
S1 4 -0.008497 0.250000 -0.145393 20.50000 0.03950 0.06196 =
0.02808 0.00000 0.00315 0.00000
C5 1 0.136015 0.250000 -0.016323 10.50000 0.03812 0.02979 =
0.02955 0.00000 0.00415 0.00000
C6 1 0.261569 0.250000 -0.078373 10.50000 0.04862 0.06451 =
0.03639 0.00000 0.01164 0.00000
AFIX 43
H6 2 0.352837 0.250000 -0.029037 10.50000 -1.20000
AFIX 0
C7 1 0.226804 0.250000 -0.227671 10.50000 0.09921 0.06771 =
0.04657 0.00000 0.03742 0.00000
AFIX 43
H7 2 0.294532 0.250000 -0.287218 10.50000 -1.20000
AFIX 0
C8 1 0.097317 0.250000 -0.270752 20.50000 0.05286 0.06252 =
0.02093 0.00000 0.00479 0.00000
AFIX 43
H8 2 0.061167 0.250000 -0.365760 10.50000 -1.20000
AFIX 0
C9 1 -0.079017 0.250000 0.256053 10.50000 0.04223 0.06134 =
0.05502 0.00000 0.01246 0.00000
AFIX 23
H9A 2 -0.049791 0.352852 0.311694 10.50000 -1.20000
H9B 2 -0.049791 0.147148 0.311693 10.50000 -1.20000
AFIX 0
C10 1 -0.235760 0.250000 0.213610 10.50000 0.04467 0.06605 =
0.09739 0.00000 0.02661 0.00000
AFIX 33
H10A 2 -0.280918 0.250000 0.295824 10.50000 -1.50000
H10B 2 -0.263496 0.147580 0.158878 10.50000 -1.50000
H10C 2 -0.263496 0.352420 0.158878 10.50000 -1.50000
PART 2
AFIX 0
S1A 4 -0.146188 0.250000 -0.009502 -20.50000 0.05892 0.08654 =
0.08380 0.00000 -0.00685 0.00000
C8A 1 -0.275321 0.250000 0.089829 -20.50000 0.08670 0.06949 =
0.08215 0.00000 -0.02801 0.00000
PART
HKLF 4 1 1 0 0 0 1 0 0 0 1
REM mo_BvdWCrThOEt_0m in P2(1)/m
REM R1 = 0.0787 for 1330 Fo > 4sig(Fo) and 0.0861 for all 1497 data
REM 122 parameters refined using 0 restraints
END
;
_cod_data_source_file            c3dt32913e.txt
_cod_data_source_block           mo_bvdwcrthoet_0m
_cod_depositor_comments          'Adding full bibliography for 7021205.cif.'
_cod_original_sg_symbol_H-M      'P 21/m'
_cod_original_formula_sum        'C12 H8 Cr1 O6 S1'
_cod_database_code               7021205
#BEGIN Tags that were not found in dictionaries:
_iucr_refine_reflections_details
;
-1 0 0 43.8684 2.15487 11
-2 0 0 645.393 30.7456 2
2 0 0 672.555 30.5001 3
2 0 0 710.386 30.5457 3
2 0 0 786.161 38.7620 4
2 0 0 661.230 32.8337 6
2 0 0 668.521 31.7394 7
2 0 0 774.175 33.9252 9
-2 0 0 600.916 32.8100 6
-2 0 0 651.732 31.7235 7
-2 0 0 767.394 33.9202 9
-2 0 0 738.336 30.3638 11
-2 0 0 717.446 29.9773 13
2 0 0 659.210 30.7634 2
2 0 0 732.187 30.3703 11
2 0 0 723.401 29.9766 13
-2 0 0 679.792 30.4999 3
-2 0 0 737.876 30.5635 3
-3 0 0 577.012 26.3380 7
4 0 0 455.631 19.3054 13
4 0 0 436.991 19.6362 3
4 0 0 436.827 19.5383 11
-4 0 0 441.587 19.5509 11
-4 0 0 450.419 19.2707 13
4 0 0 456.776 19.5239 2
4 0 0 443.512 19.5786 3
4 0 0 427.384 20.9420 6
-4 0 0 481.095 19.5170 2
-4 0 0 439.233 19.5400 3
-4 0 0 395.084 19.5611 3
-4 0 0 381.701 24.7465 4
-4 0 0 443.352 20.9482 6
-4 0 0 466.208 20.4245 7
4 0 0 418.029 21.5601 9
-4 0 0 424.572 21.5579 9
4 0 0 440.865 20.3433 7
-5 0 0 58.5206 4.19530 7
-5 0 0 77.6923 4.26897 9
5 0 0 54.4293 5.01391 4
5 0 0 63.9585 4.04136 7
-5 0 0 62.8882 3.92628 3
6 0 0 30.8753 3.24955 7
-6 0 0 24.0638 2.95059 6
6 0 0 27.8782 3.52657 3
-6 0 0 29.2740 3.25729 3
-6 0 0 33.8500 4.23361 4
6 0 0 24.5365 3.76305 13
-6 0 0 35.2285 3.46450 9
-6 0 0 29.3757 3.70609 11
6 0 0 29.8429 2.77881 2
-7 0 0 734.747 42.1873 4
7 0 0 748.807 33.5621 8
7 0 0 758.748 32.9532 13
7 0 0 725.577 34.5667 7
-7 0 0 759.276 33.3169 3
7 0 0 768.228 33.0429 2
-7 0 0 719.644 36.6398 9
-7 0 0 768.438 35.5767 6
-7 0 0 705.120 33.2457 11
7 0 0 702.555 33.2933 3
8 0 0 14.2137 3.07953 2
8 0 0 11.6706 3.91048 8
8 0 0 10.7011 3.80109 13
-8 0 0 8.66292 3.60148 11
8 0 0 11.6833 3.63942 7
-8 0 0 8.30361 3.71866 3
-8 0 0 11.5725 4.10620 4
-8 0 0 9.21751 2.68145 6
-8 0 0 6.29426 3.81419 12
8 0 0 7.81965 3.83407 3
-9 0 0 2.64357 4.16494 11
9 0 0 8.11298 5.37641 8
9 0 0 7.50430 4.07038 3
-9 0 0 3.37056 4.68872 12
-9 0 0 5.71991 3.24908 6
-9 0 0 0.73857 5.32286 4
-9 0 0 4.09035 4.06903 3
9 0 0 11.6410 5.46124 7
10 0 0 19.5112 5.98484 3
-10 0 0 18.8753 6.59614 12
-10 0 0 33.9116 6.26337 3
-10 0 0 21.1844 6.06662 11
10 0 0 32.3386 7.49273 7
-11 0 0 28.8251 8.13682 11
11 0 0 26.9257 7.30755 3
-11 0 0 14.9294 8.79904 4
11 0 0 35.8306 8.88680 8
-11 0 0 16.1770 8.59965 12
11 0 0 23.1208 8.57195 13
-11 0 0 17.6712 7.52485 3
0 -1 0 -13.890 0.30097 1
0 -1 0 -14.526 0.23534 5
0 -1 0 -14.537 0.23796 3
0 -1 0 -14.222 0.22012 11
0 -1 0 -14.009 0.30994 7
0 -1 0 -14.186 0.26608 6
0 1 0 -14.329 0.25355 3
0 1 0 -14.301 0.26826 2
0 1 0 -14.295 0.23115 5
0 1 0 -14.244 0.33355 9
0 1 0 -14.292 0.30468 7
0 1 0 -14.335 0.22154 3
0 1 0 -14.375 0.24631 6
0 1 0 -14.312 0.21579 11
-1 -1 0 3473.70 134.251 5
1 -1 0 3290.24 163.698 9
1 -1 0 3277.47 132.594 10
1 -1 0 3462.96 145.597 11
1 -1 0 3359.69 146.735 3
-1 -1 0 3564.03 149.223 2
1 -1 0 3610.90 153.352 7
-1 -1 0 3387.94 147.036 3
-1 -1 0 3100.19 186.189 4
1 -1 0 3325.73 143.901 13
-1 -1 0 3455.88 146.080 11
-1 -1 0 3537.48 158.949 6
-1 -1 0 3419.14 144.061 13
1 1 0 3569.47 149.346 2
1 1 0 3421.53 134.112 5
-1 1 0 3208.92 163.703 9
-1 1 0 3319.10 146.727 3
-1 1 0 3437.64 153.226 7
1 1 0 3414.23 158.663 6
1 1 0 3519.40 146.047 11
1 1 0 3037.94 186.093 4
1 1 0 3587.69 144.251 13
1 1 0 3486.32 147.117 3
2 -1 0 453.144 21.4273 9
2 -1 0 429.463 18.8847 13
2 -1 0 464.317 19.2950 3
-2 -1 0 412.442 19.2954 3
-2 -1 0 383.123 19.5012 2
-2 -1 0 444.206 18.9293 13
-2 -1 0 443.239 19.9584 7
-2 -1 0 440.186 19.2791 11
-2 -1 0 408.130 20.8504 6
2 -1 0 416.267 19.2102 3
2 -1 0 452.834 24.5446 4
2 -1 0 460.051 19.1356 11
-2 -1 0 465.422 19.3866 3
-2 -1 0 499.356 24.5849 4
2 -1 0 374.476 20.1100 7
2 1 0 450.171 19.3614 3
-2 1 0 419.465 20.1759 7
2 1 0 470.166 24.4873 4
2 1 0 428.507 20.8913 6
-2 1 0 448.318 24.5011 4
-2 1 0 471.545 21.4313 9
-2 1 0 456.907 19.2643 3
-2 1 0 445.312 17.3983 10
2 1 0 418.375 19.3110 3
2 1 0 439.012 18.9321 13
-2 1 0 426.588 18.8716 13
-2 1 0 419.304 19.2105 3
2 1 0 412.253 19.5512 2
2 1 0 450.568 19.2645 11
-2 1 0 432.400 19.1051 11
-3 -1 0 870.173 38.7299 3
-3 -1 0 874.585 40.0673 7
-3 -1 0 888.805 49.0323 4
3 -1 0 898.334 37.9180 13
3 -1 0 845.898 42.8733 9
-3 -1 0 899.469 37.2653 12
3 -1 0 920.771 38.6759 3
3 -1 0 829.791 49.0138 4
3 -1 0 902.548 40.3196 7
3 -1 0 886.484 38.5616 3
3 -1 0 916.431 38.3840 11
-3 -1 0 905.796 41.7520 6
-3 -1 0 884.853 39.0858 2
-3 -1 0 900.415 38.5383 11
-3 -1 0 877.564 38.6631 3
-3 -1 0 911.863 37.9450 13
-3 1 0 916.460 34.8568 10
3 1 0 863.458 38.4439 11
-3 1 0 864.666 42.8732 9
-3 1 0 852.065 49.0034 4
3 1 0 911.801 39.1398 2
3 1 0 881.830 38.6997 3
3 1 0 915.217 37.9701 13
3 1 0 860.937 38.6946 3
3 1 0 848.646 42.9261 9
-3 1 0 920.388 37.9230 13
-3 1 0 911.419 38.3828 11
3 1 0 849.301 48.9761 4
-3 1 0 862.693 38.6083 3
-3 1 0 914.317 38.6030 3
3 1 0 860.242 41.7245 6
-3 1 0 909.043 40.3518 7
-4 -1 0 253.954 12.1491 2
4 -1 0 263.152 12.6996 7
4 -1 0 244.387 15.3641 4
-4 -1 0 253.617 12.1288 3
4 -1 0 269.139 12.1414 11
4 -1 0 262.488 13.3188 9
-4 -1 0 272.867 12.3560 3
4 -1 0 256.516 12.0760 3
-4 -1 0 253.892 12.4411 7
-4 -1 0 264.006 12.2579 11
4 -1 0 259.521 12.0506 8
-4 -1 0 278.692 15.5618 4
-4 -1 0 237.596 13.0530 6
4 -1 0 264.097 11.9732 13
-4 -1 0 262.172 11.9539 13
4 -1 0 271.847 12.2108 3
-4 -1 0 279.848 11.8046 12
4 1 0 278.887 12.5398 7
4 1 0 252.283 13.3274 9
-4 1 0 273.336 13.3245 9
4 1 0 259.610 12.2197 11
4 1 0 256.984 12.2360 3
4 1 0 279.529 15.5669 4
-4 1 0 264.768 12.1085 11
4 1 0 248.142 13.0999 6
-4 1 0 268.393 15.4614 4
4 1 0 259.275 12.2227 2
-4 1 0 268.877 12.7692 7
4 1 0 276.956 12.0524 13
-4 1 0 267.372 12.1342 3
4 1 0 269.098 12.2543 3
-4 1 0 278.483 11.9872 13
-4 1 0 265.743 12.1586 3
5 -1 0 18.4229 2.68501 9
5 -1 0 11.0474 2.29956 11
-5 -1 0 15.5414 2.43864 3
5 -1 0 15.1032 2.13296 13
-5 -1 0 15.6643 2.29153 11
-5 -1 0 18.7004 2.34524 7
-5 -1 0 14.5846 2.36615 6
-5 -1 0 11.3821 2.34990 3
-5 -1 0 15.1423 3.05172 4
-5 -1 0 16.0937 2.32341 12
5 -1 0 15.9272 2.29008 7
5 -1 0 17.1443 2.20506 8
5 -1 0 15.5277 2.40564 3
-5 -1 0 14.5470 2.36199 2
5 -1 0 17.0986 2.63628 3
-5 1 0 17.9676 2.49223 3
-5 1 0 9.43935 2.52185 7
-5 1 0 14.4311 2.22651 11
5 1 0 17.2235 2.54038 13
5 1 0 17.3813 2.67181 3
5 1 0 15.3549 2.08452 2
-5 1 0 17.9378 2.36408 9
5 1 0 16.2430 2.65527 6
5 1 0 12.9269 2.00593 9
5 1 0 22.1081 2.36057 7
5 1 0 15.8513 2.31378 3
-6 -1 0 354.227 16.7987 12
-6 -1 0 347.563 17.3347 11
-6 -1 0 385.461 17.2481 3
-6 -1 0 352.247 17.7115 7
6 -1 0 380.798 17.1128 13
-6 -1 0 356.084 21.8498 4
6 -1 0 382.077 17.2957 3
6 -1 0 387.518 17.1637 8
6 -1 0 344.308 18.0756 6
-6 -1 0 368.423 17.0616 2
6 -1 0 367.969 17.9848 7
-6 -1 0 373.269 18.4453 6
6 -1 0 359.499 17.1128 3
6 -1 0 346.768 18.7937 9
6 1 0 388.305 17.6130 8
-6 1 0 378.500 17.2792 11
-6 1 0 375.696 18.7134 9
6 1 0 363.344 17.3422 3
6 1 0 324.893 18.7880 9
6 1 0 381.637 17.1325 2
-6 1 0 357.003 21.5888 4
6 1 0 396.280 17.7599 7
-6 1 0 389.084 17.1841 3
6 1 0 402.485 17.2488 13
-6 1 0 373.422 17.9905 6
7 -1 0 55.2089 5.15556 3
-7 -1 0 54.0862 4.82363 2
-7 -1 0 41.7880 6.38501 4
7 -1 0 69.4205 6.05395 8
-7 -1 0 49.6570 5.33936 12
-7 -1 0 60.0984 4.54235 6
7 -1 0 56.4864 5.33758 13
7 -1 0 56.8684 5.30720 7
-7 -1 0 57.6912 4.84040 3
-7 -1 0 46.7688 5.04697 11
7 1 0 58.9463 5.39561 13
-7 1 0 46.1831 5.05388 9
-7 1 0 51.6671 5.16507 11
7 1 0 55.9856 5.32435 7
-7 1 0 56.0483 5.33098 3
7 1 0 56.2425 5.13258 3
7 1 0 58.2745 5.60866 8
7 1 0 59.0089 4.73493 2
-7 1 0 59.0697 4.56282 6
-8 -1 0 54.6336 7.13352 4
8 -1 0 60.9159 6.90074 8
8 -1 0 45.4702 5.73792 3
-8 -1 0 55.9609 4.99723 6
-8 -1 0 53.5274 5.54928 3
8 -1 0 49.5180 6.01877 7
8 -1 0 55.5670 6.23593 13
-8 -1 0 48.1509 5.79489 11
-8 -1 0 53.7484 6.52786 12
-8 1 0 44.5058 6.07737 4
8 1 0 52.3996 6.31581 13
-8 1 0 50.7402 6.06692 11
-8 1 0 41.2112 6.69009 9
-8 1 0 59.4869 5.46356 6
-8 1 0 45.7626 6.03629 3
8 1 0 56.4620 5.69032 3
8 1 0 54.2935 5.12405 2
8 1 0 48.6040 6.59101 8
-9 -1 0 106.796 9.49508 12
-9 -1 0 98.7932 7.42611 6
-9 -1 0 91.0918 7.73501 3
-9 -1 0 101.480 10.0799 4
-9 -1 0 87.0661 8.20892 11
9 -1 0 83.2795 7.80166 3
9 -1 0 90.7767 9.28355 8
9 -1 0 106.864 8.39032 7
9 1 0 82.2267 9.25867 8
-9 1 0 90.8701 8.11323 3
9 1 0 88.4297 7.66967 3
-9 1 0 100.509 9.25614 9
-9 1 0 94.5080 8.09033 11
9 1 0 92.6972 6.69154 2
10 -1 0 14.2468 6.39061 13
10 -1 0 6.29951 5.50456 3
-10 -1 0 14.7704 6.20716 11
10 -1 0 20.3942 6.59104 7
-10 -1 0 18.3759 5.69127 3
10 -1 0 21.4077 6.91384 8
-10 1 0 20.7127 5.82759 3
-10 1 0 6.71131 6.07502 11
-10 1 0 11.4366 6.22286 12
10 1 0 5.71870 4.42421 2
10 1 0 22.4812 6.21338 3
-10 1 0 11.0713 6.63841 4
-11 -1 0 26.6194 9.43178 12
11 -1 0 41.8672 8.79372 13
-11 -1 0 15.7281 8.45649 11
11 -1 0 13.2813 7.19883 3
-11 -1 0 24.0812 7.78792 3
-11 -1 0 32.7386 8.82649 4
11 -1 0 42.6779 9.87932 7
11 1 0 25.7082 7.00910 3
11 1 0 18.3254 5.83575 2
11 1 0 31.1029 8.40630 13
-11 1 0 26.2927 8.13606 4
11 1 0 29.4417 9.46522 8
-11 1 0 25.4231 7.48210 3
-11 1 0 30.3368 8.48693 11
-11 1 0 19.6161 8.12875 12
0 -2 0 9712.64 445.558 6
0 -2 0 9706.13 412.722 3
0 -2 0 9488.16 412.669 3
0 -2 0 9839.99 430.243 7
0 -2 0 9298.45 418.521 2
0 -2 0 9807.54 388.036 1
0 -2 0 9406.34 377.821 5
0 -2 0 9999.99 409.851 11
0 2 0 9597.36 409.640 11
0 2 0 9544.83 418.773 2
0 2 0 9281.38 412.607 3
0 2 0 9636.29 429.989 7
0 2 0 9222.70 377.500 5
0 2 0 9428.05 460.924 9
0 2 0 9332.28 445.371 6
0 2 0 9608.55 412.533 3
1 -2 0 1429.07 63.1973 7
-1 -2 0 1378.57 60.6243 3
-1 -2 0 1421.54 65.4537 6
-1 -2 0 1446.36 60.2372 11
1 -2 0 1396.39 67.6425 9
1 -2 0 1432.09 61.2844 2
-1 -2 0 1382.45 60.5785 3
-1 -2 0 1411.32 55.4576 5
1 -2 0 1470.35 60.0549 11
-1 -2 0 1354.37 77.0052 4
-1 -2 0 1393.55 61.4809 2
-1 -2 0 1376.88 62.9696 7
-1 2 0 1443.77 61.3026 2
-1 2 0 1389.59 60.0116 11
1 2 0 1330.37 76.9447 4
-1 2 0 1410.50 67.6615 9
1 2 0 1397.33 55.4353 5
1 2 0 1398.36 60.6007 3
-1 2 0 1447.55 55.4890 5
1 2 0 1353.62 60.5898 3
-1 2 0 1316.65 58.3598 12
1 2 0 1422.21 60.1946 11
1 2 0 1428.31 61.5270 2
-1 2 0 1441.56 63.2039 7
1 2 0 1411.14 65.4439 6
1 2 0 1330.58 56.8585 1
2 -2 0 445.299 18.5328 3
2 -2 0 406.732 18.4308 3
-2 -2 0 360.729 18.8530 2
-2 -2 0 375.886 20.1287 6
2 -2 0 392.686 19.4828 7
-2 -2 0 403.698 18.1278 13
-2 -2 0 442.978 18.6367 11
-2 -2 0 381.022 18.5777 3
2 -2 0 451.826 20.8478 9
-2 -2 0 470.907 18.7689 3
-2 -2 0 471.046 23.8056 4
2 -2 0 423.719 18.0815 13
2 -2 0 415.189 16.8067 10
-2 2 0 425.929 23.6842 4
-2 2 0 421.623 17.1126 5
2 2 0 398.185 18.6374 3
-2 2 0 381.788 19.4651 7
-2 2 0 429.278 18.3316 11
2 2 0 456.690 18.7067 3
-2 2 0 430.437 18.4912 3
2 2 0 386.422 20.1613 6
2 2 0 417.815 18.1556 13
2 2 0 388.678 18.9321 2
-2 2 0 447.350 20.7820 9
2 2 0 428.508 18.5946 11
-2 2 0 413.169 18.0527 13
2 2 0 473.097 23.7987 4
-3 -2 0 1270.49 58.9367 6
-3 -2 0 1253.25 55.2553 2
3 -2 0 1270.61 54.3213 3
3 -2 0 1286.64 53.9972 11
-3 -2 0 1269.22 54.3234 11
-3 -2 0 1297.32 49.8161 5
3 -2 0 1251.08 53.3360 13
-3 -2 0 1216.11 54.6129 3
-3 -2 0 1166.65 69.1570 4
-3 -2 0 1221.94 53.3888 13
3 -2 0 1280.03 56.9350 7
3 -2 0 1208.51 60.6384 9
3 -2 0 1209.16 49.1219 10
3 -2 0 1266.55 54.4125 3
-3 -2 0 1276.05 54.5246 3
3 2 0 1215.53 54.5339 3
-3 2 0 1209.03 54.3399 3
-3 2 0 1171.42 69.1311 4
-3 2 0 1318.81 56.9613 7
3 2 0 1288.67 54.5955 3
3 2 0 1344.14 59.0432 6
-3 2 0 1281.47 53.9776 11
3 2 0 1102.61 69.0166 4
3 2 0 1305.65 53.4509 13
3 2 0 1326.74 55.3606 2
-3 2 0 1165.91 60.5495 9
-3 2 0 1267.18 54.3762 3
3 2 0 1262.13 54.2460 11
-3 2 0 1330.75 53.3590 13
-3 2 0 1248.28 49.1723 10
4 -2 0 1182.38 48.8522 3
-4 -2 0 1145.82 52.8398 6
-4 -2 0 1108.08 49.4392 2
-4 -2 0 1041.43 61.9672 4
4 -2 0 1059.23 54.2329 9
4 -2 0 1146.31 48.6696 3
-4 -2 0 1179.19 44.6062 5
-4 -2 0 1038.93 47.8314 13
4 -2 0 1174.56 51.0376 7
-4 -2 0 1147.50 48.8816 3
-4 -2 0 1127.20 50.5252 7
-4 -2 0 1103.08 48.7308 11
4 -2 0 990.252 61.9029 4
-4 -2 0 1068.73 48.9885 3
4 -2 0 1115.77 47.8372 13
4 -2 0 1207.20 48.4815 11
4 2 0 1186.13 47.9908 13
4 2 0 1072.30 48.5897 11
4 2 0 1165.36 49.5865 2
-4 2 0 1169.02 47.8440 13
-4 2 0 1131.43 44.0555 10
-4 2 0 1023.83 61.8828 4
-4 2 0 1164.62 48.7473 3
-4 2 0 1179.01 48.4387 11
-4 2 0 1030.02 54.1323 9
4 2 0 1125.03 48.9741 3
4 2 0 1106.94 52.8059 6
-4 2 0 1158.50 51.1146 7
-4 2 0 1085.83 48.7147 3
4 2 0 1072.14 48.8906 3
-5 -2 0 694.792 38.9391 6
-5 -2 0 822.867 46.0394 4
-5 -2 0 802.138 36.3902 3
-5 -2 0 828.481 36.1818 3
5 -2 0 794.565 35.9900 3
5 -2 0 868.808 35.9808 11
-5 -2 0 803.352 37.2850 7
5 -2 0 777.209 40.0115 9
-5 -2 0 806.385 36.2567 11
5 -2 0 878.164 36.2727 3
-5 -2 0 804.063 36.5773 2
5 -2 0 831.651 35.4673 13
-5 -2 0 851.176 34.8839 12
5 -2 0 816.605 37.8699 7
-5 2 0 843.845 45.9934 4
-5 2 0 840.264 35.8746 11
5 2 0 822.880 35.6144 13
5 2 0 837.376 36.6858 2
-5 2 0 793.797 35.3998 13
-5 2 0 830.659 39.9899 9
-5 2 0 838.811 36.0728 3
5 2 0 761.989 40.0441 9
-5 2 0 820.653 32.6363 10
5 2 0 838.495 36.3018 3
-6 -2 0 8.23717 2.29133 3
-6 -2 0 4.24146 2.96910 4
-6 -2 0 2.94194 3.03342 12
6 -2 0 7.21085 2.31099 9
6 -2 0 8.13301 2.39391 3
6 -2 0 4.23158 2.60808 3
-6 -2 0 8.49776 2.73369 11
-6 -2 0 9.17705 2.33038 7
-6 -2 0 4.47361 1.87579 6
6 -2 0 6.15001 2.70076 7
6 -2 0 5.04535 2.62864 13
6 2 0 6.59047 2.60471 3
-6 2 0 7.53052 1.95475 9
-6 2 0 5.23443 2.46706 11
6 2 0 5.08188 2.54485 2
-6 2 0 7.44742 2.46528 3
6 2 0 7.45610 2.98893 13
7 -2 0 519.941 25.7504 3
7 -2 0 578.425 26.0710 3
-7 -2 0 576.400 25.9609 3
-7 -2 0 567.221 33.0197 4
7 -2 0 556.992 27.1363 7
-7 -2 0 572.465 27.7700 6
-7 -2 0 556.614 25.2586 12
7 -2 0 577.486 25.5889 13
-7 -2 0 526.579 26.0841 11
7 2 0 537.865 26.3040 8
-7 2 0 563.420 25.7751 11
-7 2 0 570.811 28.5305 9
7 2 0 587.974 25.7986 13
7 2 0 568.604 26.1265 3
-7 2 0 600.681 32.9269 4
-7 2 0 565.456 25.8124 3
7 2 0 561.752 25.9353 2
8 -2 0 38.9408 5.38284 3
-8 -2 0 37.8116 5.97630 11
-8 -2 0 36.1514 7.67460 4
-8 -2 0 32.9984 5.12385 12
8 -2 0 43.8829 6.18245 13
-8 -2 0 49.3556 5.02738 6
-8 -2 0 49.6400 5.35180 3
8 -2 0 46.5735 6.61294 7
-8 2 0 38.2750 6.67661 9
8 2 0 39.4433 5.81960 3
8 2 0 46.9489 6.75266 8
8 2 0 46.2677 4.99490 2
-8 2 0 40.8213 6.18127 11
8 2 0 47.2643 6.53321 13
-8 2 0 45.1963 5.81686 3
-9 -2 0 1.30119 4.14009 3
9 -2 0 1.68211 4.77784 13
-9 -2 0 -6.5820 4.90203 4
-9 -2 0 -3.5014 5.37989 12
-9 -2 0 2.40477 3.24462 6
9 -2 0 2.59888 4.87779 7
9 -2 0 -2.9603 4.50550 3
-9 2 0 -4.0573 4.84014 9
9 2 0 7.08662 3.78928 2
-9 2 0 5.27369 4.45934 3
-9 2 0 2.24987 5.06221 11
9 2 0 5.37062 4.82662 13
9 2 0 8.35616 4.14264 3
10 -2 0 13.0270 6.68752 7
10 -2 0 18.4600 5.46620 3
-10 -2 0 12.5399 5.76403 3
-10 -2 0 8.70153 6.65022 11
10 -2 0 22.0683 6.90215 13
-10 2 0 15.4833 6.85731 9
-10 2 0 19.6021 6.62324 11
10 2 0 21.9185 5.84131 3
10 2 0 21.4273 7.52197 8
10 2 0 12.2673 5.29314 2
10 2 0 18.7108 6.94908 13
-10 2 0 8.98328 5.86273 4
-10 2 0 25.4138 5.94831 3
-11 -2 0 -1.4477 8.38581 4
-11 -2 0 12.8741 6.74634 5
-11 -2 0 12.2300 7.38449 3
11 -2 0 6.31919 8.34097 13
11 -2 0 8.10246 8.37749 8
11 -2 0 17.4352 7.21282 3
11 -2 0 14.0462 8.51050 7
-11 -2 0 10.3111 8.47781 11
-11 -2 0 2.74531 8.00722 12
11 2 0 13.8574 8.61672 13
-11 2 0 12.1939 8.06679 9
11 2 0 24.1431 9.10753 8
-11 2 0 4.46586 8.10932 12
11 2 0 -0.3091 5.91059 2
-11 2 0 10.0892 7.46001 3
11 2 0 13.5555 7.66164 3
-11 2 0 5.03736 7.89814 4
-11 2 0 1.84830 9.25506 11
0 -3 0 -2.9878 0.78856 11
0 -3 0 -2.8620 0.95082 1
0 -3 0 -3.7436 0.79033 3
0 -3 0 -2.4785 0.77441 7
0 -3 0 -3.0327 0.87401 2
0 -3 0 -3.1799 0.70027 5
0 -3 0 -3.3424 0.70671 3
0 3 0 -3.2287 0.86784 2
0 3 0 -3.3188 0.91556 9
0 3 0 -3.2655 0.73249 6
0 3 0 -1.9627 0.88500 3
0 3 0 -3.5891 0.59960 11
0 3 0 -4.6362 0.92358 7
0 3 0 -3.5301 0.70876 5
-1 -3 0 956.354 43.8335 6
1 -3 0 968.735 42.3710 7
-1 -3 0 920.140 40.5158 3
-1 -3 0 973.157 42.1586 7
1 -3 0 937.865 37.2684 5
-1 -3 0 864.258 40.5719 3
-1 -3 0 911.499 37.2275 5
-1 -3 0 924.768 40.3244 11
-1 -3 0 938.443 41.1994 2
1 -3 0 937.993 45.4525 9
1 -3 0 962.933 41.0023 2
-1 -3 0 900.706 38.0780 1
-1 3 0 951.177 37.3006 5
1 3 0 894.656 51.6730 4
1 3 0 909.369 45.4806 9
1 3 0 915.766 42.1444 7
-1 3 0 956.380 40.1080 11
-1 3 0 952.593 41.0347 2
1 3 0 949.731 43.8508 6
1 3 0 961.490 41.2791 2
-1 3 0 917.473 45.4281 9
1 3 0 904.335 37.1963 5
1 3 0 882.312 40.5224 3
1 3 0 924.833 40.2631 11
1 3 0 910.870 38.1315 1
-1 3 0 947.024 42.3706 7
1 3 0 914.027 40.5697 3
-2 -3 0 36.4015 2.54062 3
-2 -3 0 37.3608 2.80046 2
2 -3 0 40.4576 2.59669 10
-2 -3 0 40.7950 2.96172 3
-2 -3 0 40.8301 2.29404 13
2 -3 0 39.1921 3.01478 7
-2 -3 0 42.3703 3.82854 4
2 -3 0 38.8827 2.42998 2
-2 -3 0 40.2030 3.04002 6
2 -3 0 41.9021 2.48926 11
-2 -3 0 40.8555 2.50335 5
-2 -3 0 43.8828 2.81877 11
2 -3 0 41.0814 3.35763 9
2 3 0 40.9795 2.94455 3
-2 3 0 41.8389 2.73276 5
-2 3 0 41.1429 2.41509 11
-2 3 0 36.0274 2.59858 12
2 3 0 39.9318 2.34943 13
2 3 0 40.4317 3.21512 6
2 3 0 42.7779 2.75786 3
-2 3 0 39.1486 2.61600 3
-2 3 0 37.6480 3.00205 7
-2 3 0 42.5615 3.13178 9
2 3 0 40.7562 2.53025 5
2 3 0 44.5624 4.05886 4
2 3 0 39.1002 2.70082 11
2 3 0 40.4314 2.96363 2
2 3 0 44.3603 2.79861 1
-2 3 0 40.2533 2.39634 2
-3 -3 0 163.987 7.85401 13
-3 -3 0 155.945 8.36785 2
-3 -3 0 169.256 7.53978 5
3 -3 0 166.494 7.92932 3
3 -3 0 177.539 7.76850 13
-3 -3 0 167.774 9.01958 6
3 -3 0 174.510 7.46405 10
3 -3 0 175.028 7.97517 11
3 -3 0 172.867 9.31306 9
-3 -3 0 169.829 8.22195 3
3 -3 0 164.917 8.65547 7
-3 -3 0 170.120 8.44699 3
3 -3 0 176.720 8.08871 3
-3 -3 0 177.082 8.36927 11
-3 -3 0 169.816 10.6921 4
-3 3 0 163.930 10.4934 4
3 3 0 178.123 7.93885 13
3 3 0 159.820 10.6139 4
-3 3 0 168.800 9.12874 9
-3 3 0 163.184 8.75911 7
-3 3 0 175.862 7.73483 13
3 3 0 166.873 8.47978 2
-3 3 0 165.735 8.03214 3
3 3 0 173.606 9.31687 6
3 3 0 166.294 8.27818 11
3 3 0 159.919 8.31881 3
-3 3 0 163.961 8.00994 3
3 3 0 174.683 8.34299 3
-3 3 0 173.452 7.84941 11
-3 3 0 169.534 7.63668 5
-4 -3 0 128.359 7.26902 6
-4 -3 0 130.711 7.05698 3
4 -3 0 122.834 6.51310 11
-4 -3 0 131.139 7.03544 11
4 -3 0 125.280 6.69115 3
4 -3 0 126.154 6.46205 3
4 -3 0 133.783 6.36557 13
-4 -3 0 122.189 6.74747 3
4 -3 0 133.551 6.03229 10
-4 -3 0 122.946 6.42481 13
4 -3 0 109.955 7.16613 7
-4 -3 0 130.266 6.11567 5
4 -3 0 125.203 7.63330 9
-4 -3 0 145.516 9.25961 4
-4 3 0 127.468 6.26246 13
-4 3 0 137.107 7.39355 9
-4 3 0 126.406 9.00525 4
-4 3 0 128.552 6.39005 11
-4 3 0 126.307 6.56162 3
4 3 0 137.674 6.57400 13
4 3 0 133.006 6.94632 3
-4 3 0 126.026 6.55841 3
5 -3 0 -0.5967 2.22100 7
5 -3 0 0.47853 1.78752 3
-5 -3 0 0.18289 1.34407 6
-5 -3 0 1.59923 1.81109 3
-5 -3 0 3.89680 1.90460 7
5 -3 0 -0.9130 2.42100 9
5 -3 0 2.42255 2.13932 11
-5 -3 0 1.73007 2.48850 4
5 -3 0 -1.5186 1.88221 3
5 -3 0 0.12181 1.59857 13
-5 -3 0 1.48899 2.55837 11
-5 -3 0 -1.3615 1.09991 5
-5 -3 0 3.32703 2.41725 3
-5 3 0 -1.3961 1.52074 11
5 3 0 -0.1651 1.78173 2
-5 3 0 -0.6814 2.74727 4
-5 3 0 0.56428 1.85588 9
5 3 0 1.13447 2.01168 3
-5 3 0 1.57723 1.97285 3
-5 3 0 -1.3468 1.82594 13
5 3 0 1.30529 2.30402 13
6 -3 0 970.312 41.9420 3
-6 -3 0 943.639 41.9019 3
6 -3 0 968.521 41.1489 13
6 -3 0 898.358 41.6133 3
-6 -3 0 985.089 45.3536 6
-6 -3 0 931.716 53.3664 4
-6 -3 0 939.615 42.1434 11
-6 -3 0 873.350 43.0247 7
6 -3 0 941.508 43.9221 7
6 3 0 969.430 41.3193 13
-6 3 0 979.896 41.5131 11
6 3 0 960.980 42.5330 2
-6 3 0 940.578 41.7831 3
-6 3 0 938.736 53.3553 4
-6 3 0 897.239 46.3442 9
6 3 0 944.493 42.0979 3
-7 -3 0 8.13463 4.20392 4
7 -3 0 11.8676 3.64190 7
-7 -3 0 4.64451 2.94244 3
7 -3 0 4.66095 2.92206 3
-7 -3 0 6.35965 3.14240 5
7 -3 0 3.16027 3.00996 3
-7 -3 0 3.22951 2.43731 6
-7 -3 0 8.61965 4.01304 11
7 -3 0 6.09881 3.31437 13
7 3 0 6.47776 3.55022 3
7 3 0 7.31394 3.55625 13
7 3 0 5.39374 3.36062 8
-7 3 0 5.44189 3.06629 3
-7 3 0 9.90668 3.59881 9
7 3 0 11.2663 2.83331 2
-7 3 0 11.3177 3.64423 11
8 -3 0 114.745 8.45877 7
-8 -3 0 103.374 7.59570 3
8 -3 0 102.725 7.73313 3
-8 -3 0 102.238 7.49763 6
-8 -3 0 100.893 7.11260 5
8 -3 0 102.862 8.35973 13
-8 -3 0 80.7640 8.70878 12
-8 3 0 109.603 9.91856 4
8 3 0 94.9119 7.39023 2
-8 3 0 95.6933 8.18502 3
8 3 0 97.9749 8.20658 3
-8 3 0 91.9392 8.96792 9
8 3 0 97.0941 8.40132 13
-8 3 0 95.6058 8.04036 11
-9 -3 0 31.3509 5.50263 3
9 -3 0 25.4497 5.20381 3
9 -3 0 31.5976 6.61928 7
-9 -3 0 17.4640 6.07824 12
-9 -3 0 20.8054 4.27426 6
-9 -3 0 26.3123 5.05265 5
-9 3 0 29.1027 6.17021 11
9 3 0 24.9071 5.85625 3
9 3 0 19.6157 5.87001 8
-9 3 0 31.3863 5.87910 3
9 3 0 30.2271 4.99907 2
-9 3 0 34.8236 6.39138 9
9 3 0 39.1835 6.56622 13
-10 -3 0 -5.3981 7.29145 11
10 -3 0 13.6141 7.71613 7
-10 -3 0 11.8745 6.28592 5
-10 -3 0 14.1258 6.11925 3
10 -3 0 0.45067 5.75880 3
10 -3 0 5.21152 7.38417 13
10 3 0 15.0924 5.67241 2
-10 3 0 -1.8088 6.06373 4
10 3 0 11.0141 7.46757 13
10 3 0 21.1731 6.41624 3
-10 3 0 7.02683 6.62109 3
10 3 0 7.30097 7.38526 8
-10 3 0 16.5314 7.06124 9
-10 3 0 10.1550 7.24170 11
-11 -3 0 -12.562 7.15763 3
11 -3 0 -4.5690 8.92933 7
-11 -3 0 -5.8317 8.24927 11
-11 -3 0 -5.6362 9.08047 12
-11 -3 0 -0.6092 7.49937 5
11 -3 0 -10.475 7.04974 3
11 -3 0 7.83735 8.59009 13
-11 3 0 2.49269 8.12013 3
11 3 0 15.9590 9.37125 8
11 3 0 -3.7370 8.40811 13
11 3 0 19.8047 7.61128 3
-11 3 0 5.01486 7.61574 4
-11 3 0 -3.3465 9.05824 11
-11 3 0 -1.3445 8.54364 9
0 -4 0 9259.85 392.794 7
0 -4 0 8802.29 376.733 3
0 -4 0 8748.41 345.292 5
0 -4 0 8781.55 376.278 3
0 -4 0 8573.13 381.062 2
0 -4 0 8858.09 354.026 1
0 -4 0 9301.75 374.065 11
0 4 0 8402.73 375.586 3
0 4 0 8866.79 382.363 2
0 4 0 8828.36 376.433 3
0 4 0 8598.13 391.894 7
0 4 0 8538.67 405.350 6
0 4 0 8928.42 373.909 11
0 4 0 7993.83 476.932 4
0 4 0 8369.56 419.782 9
0 4 0 8779.02 373.242 11
-1 -4 0 131.537 6.81853 2
-1 -4 0 135.151 6.79716 7
-1 -4 0 121.606 6.62654 3
1 -4 0 131.576 7.86575 9
-1 -4 0 130.269 6.60125 11
1 -4 0 127.444 6.21128 5
1 -4 0 135.920 6.62950 2
-1 -4 0 131.891 6.48107 3
-1 -4 0 126.675 6.22261 5
1 -4 0 132.895 6.95253 7
1 4 0 127.219 6.41916 11
1 4 0 125.490 6.82284 7
1 4 0 123.401 6.63357 3
-1 4 0 129.391 6.83635 6
1 4 0 134.792 7.27850 6
-1 4 0 127.762 6.25410 11
1 4 0 124.706 7.74348 9
-1 4 0 128.128 6.60344 2
-1 4 0 136.257 6.30297 11
-1 4 0 132.857 7.07727 7
-1 4 0 127.008 7.60800 9
1 4 0 138.463 6.89018 2
1 4 0 124.107 6.53967 3
-2 -4 0 93.6251 5.14400 3
2 -4 0 80.8954 5.20247 7
-2 -4 0 90.2506 7.07594 4
2 -4 0 81.9875 4.72386 2
-2 -4 0 92.9702 5.07704 11
-2 -4 0 79.0588 5.48324 6
2 -4 0 88.2040 6.68557 9
-2 -4 0 78.2648 4.49795 5
2 4 0 89.4084 4.92179 1
-2 4 0 89.5501 5.54736 7
-2 4 0 88.8340 4.57694 11
-2 4 0 90.5010 5.69689 9
2 4 0 94.4453 5.59299 3
-2 4 0 81.3671 4.68746 2
2 4 0 95.2937 5.04918 3
2 4 0 86.7680 4.92703 11
-3 -4 0 43.8879 4.14117 3
-3 -4 0 45.3062 3.32063 5
-3 -4 0 40.2805 2.88299 13
3 -4 0 47.2096 4.00905 7
-3 -4 0 44.1673 3.78831 6
-3 -4 0 46.8401 3.70524 11
-3 -4 0 48.4211 5.10208 4
3 -4 0 54.8702 3.38075 11
-3 -4 0 48.0255 3.54798 3
3 -4 0 51.3705 3.42391 10
-3 4 0 51.7252 5.31029 4
-3 4 0 50.6766 3.41858 3
-3 4 0 51.0584 4.15562 9
3 4 0 53.7740 3.91913 1
3 4 0 52.0720 3.81011 3
3 4 0 44.4374 3.56731 2
3 4 0 44.3119 3.10382 13
-3 4 0 48.9762 3.04594 2
4 -4 0 253.191 12.5093 7
-4 -4 0 227.128 15.0364 4
4 -4 0 250.456 11.3919 11
-4 -4 0 216.381 12.0186 3
4 -4 0 249.570 11.3413 3
-4 -4 0 249.306 10.8942 5
-4 -4 0 253.940 11.6953 3
-4 -4 0 257.479 12.7497 6
-4 -4 0 241.714 12.1072 11
-4 -4 0 209.433 11.0092 13
4 -4 0 238.586 10.8258 10
4 -4 0 252.938 11.6436 3
-4 4 0 230.369 13.1584 9
4 4 0 242.281 12.0597 2
-4 4 0 231.585 15.1756 4
4 4 0 252.074 11.2846 13
-4 4 0 250.128 11.1844 11
-4 4 0 235.829 11.4829 3
-4 4 0 231.094 10.8851 13
4 4 0 236.483 11.8061 3
-5 -4 0 234.725 11.7958 3
5 -4 0 221.739 11.4357 3
5 -4 0 260.502 11.8591 3
5 -4 0 200.897 12.4540 7
-5 -4 0 238.387 12.7940 6
-5 -4 0 241.120 12.4849 11
-5 -4 0 250.875 15.4517 4
-5 -4 0 242.579 10.9894 5
-5 -4 0 239.835 12.6436 3
5 -4 0 215.514 11.5469 11
5 -4 0 240.304 10.8647 10
5 4 0 247.757 12.2301 2
-5 4 0 238.250 11.6196 3
5 4 0 241.753 12.1814 3
5 4 0 249.935 11.7613 13
-5 4 0 252.192 15.7119 4
-5 4 0 215.246 11.0603 13
-5 4 0 253.790 13.4751 9
-5 4 0 255.828 11.3460 11
-6 -4 0 18.9329 4.60500 4
-6 -4 0 14.0058 3.26552 5
6 -4 0 19.6697 3.41557 13
6 -4 0 18.1149 3.47859 3
6 -4 0 9.01502 2.68430 3
-6 -4 0 11.2442 2.64431 6
-6 -4 0 14.9175 3.27312 3
6 -4 0 14.9980 4.05345 7
-6 -4 0 10.6705 3.75098 11
-6 4 0 14.1018 2.93728 3
-6 4 0 14.6974 2.69703 11
6 4 0 14.5117 3.83131 3
6 4 0 10.9846 3.47511 13
6 4 0 13.8830 2.92584 2
-6 4 0 13.4721 4.23422 9
7 -4 0 459.574 21.0522 13
7 -4 0 481.072 21.4682 3
7 -4 0 404.831 20.9844 3
-7 -4 0 453.923 21.4126 3
-7 -4 0 430.139 19.5363 5
-7 -4 0 457.005 27.7253 4
-7 -4 0 429.179 21.9466 11
-7 -4 0 480.870 23.2103 6
7 4 0 448.417 22.1222 8
7 4 0 447.652 21.6069 2
-7 4 0 463.633 21.2226 11
-7 4 0 423.581 21.2098 3
7 4 0 449.134 21.7394 3
-7 4 0 446.521 23.7367 9
7 4 0 463.994 21.3793 13
-7 4 0 453.972 27.8435 4
8 -4 0 3.67580 4.86069 3
8 -4 0 10.0608 5.12586 13
-8 -4 0 5.63141 4.53921 3
-8 -4 0 1.64528 4.93994 4
-8 -4 0 -0.2251 4.02844 5
-8 -4 0 3.20669 2.94986 6
-8 4 0 9.79077 4.80148 3
8 4 0 11.9479 5.40782 13
8 4 0 8.87117 4.62358 3
-8 4 0 14.1004 5.23787 9
8 4 0 7.08874 3.79991 2
-8 4 0 8.08036 4.91715 11
-9 -4 0 -1.0073 4.83673 3
9 -4 0 1.09908 5.17223 3
-9 -4 0 -4.1374 6.31486 11
-9 -4 0 -2.4710 7.60174 4
9 -4 0 6.07457 5.93451 7
-9 -4 0 -4.7131 5.16000 5
-9 4 0 -2.8864 6.02567 11
-9 4 0 1.70231 6.24569 3
9 4 0 -11.165 5.67499 3
-9 4 0 0.45086 6.11555 9
9 4 0 3.45965 6.04278 13
-10 -4 0 -0.6907 7.59935 11
-10 -4 0 -7.0082 8.62686 4
-10 -4 0 12.6186 6.27300 3
-10 -4 0 -6.7037 6.21366 5
10 -4 0 -0.6476 8.10236 7
10 -4 0 7.58427 6.34922 3
-10 4 0 -3.1532 7.98048 11
-10 4 0 3.12157 7.47252 3
10 4 0 -0.9587 8.18666 13
10 4 0 9.52479 7.61151 3
10 4 0 -5.2587 7.88353 8
10 4 0 11.1717 6.56931 2
-10 4 0 4.00160 7.82244 9
0 -5 0 2.52159 1.58859 5
0 -5 0 5.43711 2.12450 7
0 -5 0 4.06507 2.10465 1
0 5 0 2.47076 2.47193 9
0 5 0 -0.8252 1.96734 7
0 5 0 2.90491 1.67372 2
0 5 0 3.05666 1.83484 3
0 5 0 0.05779 1.99507 6
0 5 0 2.37332 1.42390 11
0 5 0 2.32150 1.39299 11
1 -5 0 415.233 18.8878 7
-1 -5 0 386.737 16.8546 5
-1 -5 0 406.380 18.5690 7
1 -5 0 384.040 16.8166 5
-1 -5 0 401.148 17.9225 11
1 -5 0 410.387 18.3211 2
-1 -5 0 386.345 16.9355 1
-1 -5 0 362.875 17.9201 3
1 -5 0 394.934 17.1700 1
-1 -5 0 402.870 17.8175 3
1 5 0 382.735 17.7147 11
-1 5 0 402.104 17.5397 11
1 5 0 380.647 17.8303 3
-1 5 0 381.447 17.5021 11
1 5 0 379.719 20.6179 9
-1 5 0 385.790 18.0909 2
-1 5 0 405.699 19.1567 6
1 5 0 374.485 18.6078 7
1 5 0 391.245 18.3624 2
-1 5 0 376.735 20.5036 9
-2 -5 0 143.488 7.17665 11
2 -5 0 126.048 7.01680 2
-2 -5 0 131.858 7.02640 7
-2 -5 0 119.124 6.80709 3
-2 -5 0 142.355 7.43767 3
-2 -5 0 122.772 6.80476 5
2 -5 0 123.831 7.88909 7
2 5 0 121.240 8.48319 9
-2 5 0 129.618 6.97765 2
2 5 0 129.221 7.36777 11
2 5 0 148.630 7.16912 3
-2 5 0 133.412 8.61435 9
2 5 0 123.189 7.28950 2
-3 -5 0 270.126 12.3463 5
-3 -5 0 268.471 13.5663 11
3 -5 0 276.202 12.3373 10
-3 -5 0 270.479 17.3381 4
-3 -5 0 241.118 13.3158 3
-3 -5 0 282.735 14.4273 6
3 -5 0 275.830 12.8709 2
3 -5 0 282.761 14.1022 7
-3 -5 0 281.083 13.1413 3
-3 5 0 272.715 15.2118 9
3 5 0 278.935 13.6332 2
-3 5 0 286.411 12.9594 2
3 5 0 274.068 13.2415 3
-4 -5 0 187.238 9.12477 5
-4 -5 0 172.127 10.0334 3
-4 -5 0 180.512 12.7623 4
-4 -5 0 188.846 9.51120 3
4 -5 0 178.991 9.10074 10
4 -5 0 180.273 10.3227 7
-4 -5 0 196.326 10.3055 11
-4 -5 0 152.910 8.73873 13
-4 -5 0 176.664 10.2488 6
4 5 0 188.654 9.78730 3
-4 5 0 183.501 12.8137 4
-4 5 0 196.613 11.2549 9
4 5 0 189.468 9.03157 13
4 5 0 189.456 9.93498 2
5 -5 0 -0.4401 2.39364 3
5 -5 0 -1.6772 2.89493 7
5 -5 0 0.96112 3.25567 11
-5 -5 0 1.85875 3.71797 11
-5 -5 0 0.38137 2.78146 5
5 -5 0 3.20793 2.80844 10
5 -5 0 6.55541 3.04023 3
-5 -5 0 0.18374 1.79633 6
-5 -5 0 -1.2026 3.53452 4
-5 -5 0 0.68466 2.53069 3
5 5 0 0.52285 3.16929 13
-5 5 0 -3.6695 4.11148 4
-5 5 0 4.53537 3.67803 9
5 5 0 0.90193 3.37982 3
-5 5 0 3.17269 2.85088 3
-5 5 0 0.69514 2.13999 11
5 5 0 1.07873 2.44104 2
-6 -5 0 88.0201 6.50957 6
6 -5 0 96.2042 6.76573 3
-6 -5 0 78.6546 7.93269 11
-6 -5 0 74.1157 8.90308 4
-6 -5 0 96.0710 6.55448 3
6 -5 0 84.4857 6.15972 3
-6 -5 0 75.5764 6.48925 5
-6 5 0 65.9119 8.48088 9
6 5 0 92.9807 7.21594 13
6 5 0 86.3718 7.99058 8
-6 5 0 89.8705 6.05555 11
6 5 0 91.9776 6.46990 2
-6 5 0 79.3677 6.65893 3
6 5 0 81.5098 7.49052 3
7 -5 0 29.7201 4.96295 3
-7 -5 0 28.1793 4.68714 5
-7 -5 0 28.2280 4.82149 6
-7 -5 0 36.5556 5.06986 3
7 5 0 31.2393 5.39975 3
7 5 0 32.5525 5.71300 13
-7 5 0 25.1978 4.86400 3
-7 5 0 39.0970 5.58875 11
7 5 0 25.8702 5.58282 8
-7 5 0 35.2947 6.35260 9
8 -5 0 12.4438 5.24155 3
-8 -5 0 5.04788 6.29383 11
-8 -5 0 10.0535 4.94864 5
-8 -5 0 5.53532 4.92331 3
8 5 0 3.26531 5.98068 3
-8 5 0 7.60132 5.19875 3
-8 5 0 15.2044 6.43903 9
8 5 0 10.0089 6.01090 13
8 5 0 4.01824 5.55821 8
-8 5 0 12.3102 5.60197 11
8 5 0 8.12852 5.12266 2
9 -5 0 41.2699 8.21552 7
-9 -5 0 42.8456 9.59224 4
-9 -5 0 28.8427 7.66134 11
-9 -5 0 28.3431 6.28065 5
-9 -5 0 19.8749 6.42984 3
9 -5 0 35.7148 7.04085 3
-9 5 0 26.1063 8.04878 3
9 5 0 16.8150 7.75600 3
-9 5 0 42.5624 8.25830 9
9 5 0 36.5380 6.69222 2
-9 5 0 32.7477 7.77874 11
9 5 0 16.1791 6.97229 8
9 5 0 34.3639 8.04778 13
0 -6 0 2008.20 81.2100 1
0 -6 0 1983.20 79.4070 5
0 -6 0 2057.26 90.0284 7
0 6 0 1917.71 85.4670 11
0 6 0 1945.78 96.9126 9
0 6 0 1938.50 87.6224 2
0 6 0 2018.73 85.6185 11
1 -6 0 25.1333 3.56261 1
-1 -6 0 35.9355 3.73988 11
-1 -6 0 28.0521 3.78674 7
-1 -6 0 22.2525 3.47496 3
-1 -6 0 32.5752 3.39143 3
-1 -6 0 33.3288 3.96846 5
1 -6 0 29.0754 4.55338 7
-1 6 0 28.4100 3.37427 6
-1 6 0 29.4926 5.17313 9
1 6 0 33.6266 3.54425 2
1 6 0 30.5197 3.94664 3
-1 6 0 27.9837 3.03828 11
-1 6 0 23.8382 3.38271 2
-1 6 0 29.3656 3.40909 11
1 6 0 29.0015 4.57991 9
2 -6 0 154.145 9.44166 7
-2 -6 0 153.245 8.30348 3
-2 -6 0 161.546 8.90392 3
-2 -6 0 167.724 9.11495 11
2 -6 0 162.390 8.46491 1
-2 -6 0 146.718 8.42652 7
-2 -6 0 157.740 8.47832 5
2 6 0 149.948 10.7344 9
2 6 0 172.555 8.76382 3
-2 6 0 155.762 8.38086 2
2 6 0 151.626 8.72953 2
-2 6 0 155.222 10.5017 9
-3 -6 0 84.7289 5.91953 5
-3 -6 0 81.9328 6.54326 11
-3 -6 0 88.7419 5.84187 3
3 -6 0 76.9181 5.63153 2
3 -6 0 85.4087 6.37638 10
3 -6 0 92.6150 6.77424 7
-3 -6 0 73.9037 6.68475 3
3 6 0 88.2591 5.96147 2
3 6 0 79.3346 6.17675 3
-3 6 0 83.2485 5.65966 2
-3 6 0 79.1842 7.89230 9
3 6 0 76.1689 7.65100 9
-4 -6 0 34.2628 5.90254 3
-4 -6 0 49.9041 4.98561 5
-4 -6 0 63.7411 5.12080 3
4 -6 0 53.2801 5.77034 10
-4 -6 0 49.5482 8.34061 4
4 -6 0 59.4128 5.95253 7
-4 -6 0 47.2138 6.22259 11
4 6 0 48.8909 6.92789 9
-4 6 0 59.8434 7.45577 9
4 6 0 50.0820 5.79289 3
-5 -6 0 9.60042 5.60006 4
-5 -6 0 14.4946 3.76034 3
-5 -6 0 13.7353 3.62840 5
-5 -6 0 15.1705 4.88740 11
5 -6 0 10.2644 4.19549 7
5 -6 0 14.0839 3.92454 10
-5 6 0 12.3089 4.89390 9
5 6 0 15.3374 4.06629 13
5 6 0 7.41071 4.21534 8
5 6 0 14.4415 4.62776 3
-6 -6 0 1.51078 4.79959 11
-6 -6 0 6.22285 3.97309 5
6 -6 0 -0.7953 3.65339 10
-6 -6 0 2.55783 3.78796 3
6 6 0 -1.5625 4.60080 13
-6 6 0 -0.9989 5.25578 9
6 6 0 -4.1157 4.89900 3
6 6 0 -0.3742 4.99088 8
-7 -6 0 115.519 13.3496 4
-7 -6 0 115.288 10.6470 11
7 -6 0 108.614 10.5646 7
-7 -6 0 100.136 8.61799 3
-7 -6 0 129.413 9.12483 5
7 6 0 112.454 10.2460 3
7 6 0 107.781 11.1147 8
-7 6 0 94.6888 12.9962 9
7 6 0 111.295 8.96982 2
-7 6 0 106.530 9.70095 3
7 6 0 110.273 9.84712 13
-8 -6 0 9.27181 6.18241 5
-8 -6 0 3.40872 8.39638 4
-8 -6 0 9.66588 7.54439 11
8 -6 0 2.55287 5.83851 3
8 -6 0 7.63984 6.65324 7
-8 -6 0 -10.025 5.40840 3
8 6 0 1.54394 6.95803 8
-8 6 0 3.94561 6.47107 11
-8 6 0 32.0692 12.0387 4
8 6 0 6.22863 7.11563 13
8 6 0 6.09700 5.64263 2
8 6 0 -4.9121 6.99350 3
-8 6 0 7.06951 7.60082 9
-9 -6 0 -6.2034 7.57175 5
-9 -6 0 -7.4521 9.30543 4
9 -6 0 -0.3068 7.73446 7
-9 -6 0 4.36494 6.78374 3
-9 -6 0 9.93639 9.02498 11
9 -6 0 11.6343 7.03868 3
9 6 0 -1.6998 6.33836 2
9 6 0 -5.9814 8.55069 3
-9 6 0 -5.3726 8.54385 11
-9 6 0 14.8499 8.99601 9
9 6 0 7.26016 8.57951 8
9 6 0 10.8775 8.69595 13
0 -7 0 10.2773 2.92500 1
0 -7 0 9.69302 3.37638 5
0 -7 0 5.08758 3.53446 7
0 7 0 14.2604 4.11429 9
0 7 0 7.64652 2.92712 2
0 7 0 8.15011 2.53645 11
1 -7 0 246.880 12.2901 1
-1 -7 0 261.892 13.4786 7
-1 -7 0 259.917 12.6206 3
1 -7 0 271.859 14.1511 7
-1 -7 0 252.027 12.4750 5
-1 7 0 249.072 12.9298 2
-1 7 0 246.409 15.7430 9
1 7 0 252.143 13.2761 2
1 7 0 251.486 15.8482 9
1 7 0 241.537 12.8822 11
1 7 0 263.719 13.0283 3
2 -7 0 18.5798 3.65779 1
2 -7 0 17.6960 4.36365 7
-2 -7 0 20.9767 4.15160 5
-2 -7 0 22.6365 3.63249 3
-2 -7 0 14.2025 3.79694 3
-2 -7 0 24.3454 4.45513 11
-2 -7 0 17.0473 4.06552 7
-2 7 0 21.7683 3.45372 2
-2 7 0 20.6380 4.82270 9
2 7 0 26.2628 4.17846 3
2 7 0 15.2789 3.17443 2
-3 -7 0 27.6190 4.78270 5
3 -7 0 26.5390 4.63273 10
-3 -7 0 26.8316 5.13033 11
-3 -7 0 29.1860 4.34595 3
3 -7 0 25.4104 4.88541 7
3 -7 0 22.4181 3.91077 1
3 7 0 23.1054 5.26252 8
3 7 0 27.2472 4.41281 2
3 7 0 25.7514 4.64440 3
-3 7 0 23.7700 6.18737 9
-3 7 0 23.2661 3.70478 2
4 -7 0 2.88038 4.04852 7
-4 -7 0 3.70322 4.16821 5
4 -7 0 5.38824 4.26723 10
-4 -7 0 3.15466 4.91499 11
-4 -7 0 -0.1114 3.77623 3
-4 7 0 3.16631 5.64580 9
-4 7 0 9.54494 3.59494 2
4 7 0 6.08668 4.61363 3
4 7 0 3.12267 3.40647 2
4 7 0 -0.9669 4.71545 8
5 -7 0 2.04514 5.08570 10
-5 -7 0 -3.1825 4.97285 11
-5 -7 0 3.40828 4.11842 3
-5 -7 0 1.05580 4.54492 5
-5 7 0 3.91301 5.79091 9
5 7 0 -4.0785 5.42253 8
5 7 0 0.23081 5.42446 3
5 7 0 -4.0585 5.10617 9
-6 -7 0 147.272 10.0039 5
6 -7 0 129.684 10.4998 10
-6 -7 0 149.899 15.3734 4
-6 -7 0 136.827 9.94524 3
6 -7 0 139.876 11.4211 7
6 7 0 131.348 10.3814 13
-6 7 0 175.477 16.9012 4
6 7 0 151.563 13.5412 9
6 7 0 138.055 12.6391 8
6 7 0 134.876 10.3448 2
6 7 0 118.610 11.5270 3
-6 7 0 120.613 13.4813 9
-7 -7 0 0.73374 5.79350 5
-7 -7 0 1.68685 5.67226 3
7 -7 0 1.31692 6.36174 7
-7 -7 0 -0.7013 7.21520 11
-7 -7 0 2.08853 9.06083 4
7 7 0 2.41556 7.34641 3
7 7 0 5.57703 7.80154 9
7 7 0 2.09221 6.51161 13
-7 7 0 -15.411 8.23360 9
7 7 0 2.28755 5.57887 2
-7 7 0 5.87087 11.5338 4
7 7 0 -1.4223 7.56670 8
0 -8 0 217.673 11.2082 1
0 -8 0 216.422 12.7477 7
0 8 0 211.989 15.0982 9
0 8 0 214.285 11.9911 2
0 8 0 194.978 11.8209 11
-1 -8 0 16.3751 4.48787 5
1 -8 0 30.8251 5.52277 7
1 -8 0 23.9555 3.85610 1
-1 -8 0 24.1149 5.05982 7
1 8 0 22.4191 5.28119 11
1 8 0 21.0107 6.41262 9
-1 8 0 21.5282 6.53568 9
-1 8 0 22.6430 4.04733 2
1 8 0 20.4289 4.37117 2
-2 -8 0 17.2389 4.56401 7
-2 -8 0 25.5451 5.20550 5
-2 -8 0 29.1262 4.85239 3
2 -8 0 24.1857 5.47638 7
-2 -8 0 18.9958 5.59625 11
2 -8 0 21.2615 4.11878 1
2 8 0 28.5410 5.01342 2
2 8 0 25.0190 5.13104 3
-2 8 0 15.6534 7.03106 9
-2 8 0 16.2067 4.16949 2
2 8 0 20.2747 5.37520 11
-3 -8 0 28.5398 5.96731 11
3 -8 0 22.7812 5.66123 10
-3 -8 0 22.2069 5.25561 5
-3 -8 0 32.4178 5.23866 3
3 8 0 21.4326 4.59173 2
3 8 0 14.1042 7.45199 9
-3 8 0 24.5834 4.50628 2
3 8 0 23.2198 5.44704 3
-3 8 0 25.1281 8.08081 9
4 -8 0 43.1717 6.55815 10
4 -8 0 44.6511 7.28720 7
-4 -8 0 39.6191 6.67627 5
-4 -8 0 39.7327 7.54296 11
-4 -8 0 51.0110 6.22673 3
-4 8 0 37.5626 5.22926 2
4 8 0 49.0417 7.26504 3
4 8 0 29.6185 5.63265 2
4 8 0 37.8308 8.36505 9
4 8 0 41.5922 8.12788 8
-4 8 0 40.9303 8.63326 9
-4 8 0 50.7288 10.4710 4
5 -8 0 89.1580 10.5587 7
-5 -8 0 93.9494 8.97024 3
5 -8 0 72.7208 10.8280 10
-5 -8 0 89.8120 9.85149 5
5 8 0 80.1838 14.7177 9
5 8 0 83.9264 10.9055 3
5 8 0 80.6208 8.79169 2
-5 8 0 121.840 13.7555 9
5 8 0 84.8922 12.9911 8
-5 8 0 105.385 16.5115 4
6 -8 0 -8.9020 6.65774 7
-6 -8 0 0.27803 6.17770 3
-6 -8 0 -1.5802 7.00138 5
6 -8 0 2.90321 6.69596 10
-6 -8 0 -2.5694 7.32479 11
-6 8 0 -3.2027 8.59496 9
6 8 0 -0.4777 8.50865 8
6 8 0 0.41889 5.90555 2
6 8 0 -9.9422 9.02502 9
-6 8 0 5.81462 11.5580 4
0 -9 0 6.36927 5.23138 7
0 9 0 -11.703 7.70392 9
0 9 0 4.71233 4.77203 2
-1 -9 0 16.6750 5.64227 7
-1 9 0 10.4412 4.97855 2
1 9 0 17.3222 7.93778 9
-1 9 0 19.4896 8.22758 9
1 9 0 16.6491 5.67667 11
1 9 0 23.5923 5.31017 2
2 -9 0 10.3144 6.09051 7
-2 -9 0 -4.0363 5.29139 5
-2 9 0 -1.0482 4.85926 2
-2 9 0 -9.3303 7.92992 9
2 9 0 2.98271 5.36402 11
2 9 0 14.0214 8.07248 9
2 9 0 8.19930 4.82276 2
3 -9 0 29.3465 7.02972 7
-3 -9 0 18.6700 6.03731 3
3 -9 0 22.0317 7.75052 10
-3 -9 0 18.1794 7.48332 11
-3 -9 0 22.4450 6.53365 5
3 -9 0 20.9466 5.30361 1
-3 9 0 17.3306 5.28231 2
-3 9 0 28.9853 9.61055 9
3 9 0 36.2528 9.05906 9
3 9 0 27.4610 6.20192 2
3 9 0 22.2525 7.19696 11
11 0 -1 62.7512 9.08850 13
-11 0 1 28.5643 8.38985 12
11 0 -1 81.2209 13.0898 8
-11 0 1 50.7252 7.92394 3
11 0 -1 54.9202 9.68364 7
-11 0 1 29.6145 8.57442 11
10 0 -1 25.7421 6.14905 3
-10 0 1 30.3222 5.99455 11
9 0 -1 4.59035 4.28635 3
-9 0 1 5.39162 4.32138 11
9 0 -1 3.15292 4.79352 8
-9 0 1 5.66204 4.09447 3
-9 0 1 8.00498 5.06343 4
9 0 -1 -1.0270 3.56312 2
9 0 -1 12.3169 4.65771 7
-8 0 1 820.570 40.1157 9
8 0 -1 812.365 36.4008 8
-8 0 1 769.730 45.6748 4
8 0 -1 812.848 35.7858 2
8 0 -1 777.448 36.3339 3
-8 0 1 793.054 36.1972 3
8 0 -1 810.870 37.4831 7
8 0 -1 838.989 35.7767 13
-8 0 1 752.156 36.1192 11
7 0 -1 285.992 14.0326 13
-7 0 1 276.535 14.1802 11
-7 0 1 302.182 15.6418 9
7 0 -1 293.276 14.5884 7
7 0 -1 279.938 14.1806 3
-7 0 1 271.908 13.9952 3
-7 0 1 302.534 17.7245 4
7 0 -1 278.875 13.5088 2
-6 0 1 527.722 29.3133 4
6 0 -1 516.473 23.2510 3
6 0 -1 511.424 22.7699 13
-6 0 1 559.480 25.6045 9
6 0 -1 500.476 23.8308 7
6 0 -1 508.260 22.8787 2
6 0 -1 436.117 24.4948 6
-6 0 1 501.273 23.1382 3
-6 0 1 517.561 23.2015 11
-5 0 1 41.5729 3.94033 4
-5 0 1 39.5116 3.22316 3
5 0 -1 38.0915 3.06500 13
5 0 -1 37.5208 2.93309 7
-5 0 1 46.0524 3.40064 9
4 0 -1 200.559 11.3449 6
4 0 -1 232.346 11.0714 7
-4 0 1 232.917 10.8231 11
-4 0 1 235.375 10.8075 3
-4 0 1 207.548 10.5273 13
-4 0 1 258.680 11.9486 9
4 0 -1 216.396 10.5550 2
4 0 -1 222.426 10.7306 3
4 0 -1 225.038 13.4707 4
-4 0 1 263.574 13.6582 4
4 0 -1 236.879 10.8573 11
4 0 -1 207.078 10.5388 13
-4 0 1 242.685 10.8469 3
-4 0 1 223.918 11.1433 7
4 0 -1 260.292 12.0089 9
4 0 -1 245.356 10.8847 3
-3 0 1 1229.40 53.4637 3
3 0 -1 1246.96 53.1432 11
-3 0 1 1310.01 53.4656 3
3 0 -1 1267.35 53.9323 2
-3 0 1 1274.15 53.1743 11
3 0 -1 1255.46 53.4961 3
3 0 -1 1251.80 53.3987 3
-3 0 1 1312.49 55.6075 7
3 0 -1 1241.31 59.4898 9
3 0 -1 1104.05 67.5536 4
3 0 -1 1196.23 55.5280 7
-3 0 1 1208.94 52.4226 13
-3 0 1 1154.54 67.5840 4
3 0 -1 1200.28 52.4140 13
3 0 -1 1226.38 57.4884 6
-3 0 1 1203.42 59.4462 9
2 0 -1 762.217 33.8625 11
-2 0 1 763.639 33.4095 13
2 0 -1 887.811 37.9937 9
-2 0 1 870.094 43.0981 4
-2 0 1 788.358 34.0808 3
2 0 -1 759.594 34.0321 3
-2 0 1 795.501 33.8936 11
2 0 -1 660.889 35.3515 7
2 0 -1 790.848 43.0465 4
-2 0 1 855.296 37.9581 9
-2 0 1 750.095 34.0368 3
-2 0 1 739.398 35.3840 7
2 0 -1 788.839 34.0990 3
2 0 -1 747.165 33.4150 13
-1 0 1 3999.24 184.344 7
-1 0 1 4139.99 170.726 12
1 0 -1 4181.37 173.939 13
-1 0 1 4169.32 176.071 11
1 0 -1 3937.71 175.942 11
-1 0 1 4154.99 173.796 13
1 0 -1 4091.62 177.270 3
-1 0 1 3459.45 177.182 3
-1 0 1 4581.51 198.175 9
1 0 -1 4707.43 198.120 9
-1 0 1 4181.93 177.287 3
1 0 -1 4043.83 177.228 8
-1 0 1 3812.91 177.347 8
0 0 1 141.725 5.72578 3
0 0 1 117.346 5.72880 8
0 0 -1 118.227 6.14862 6
-1 0 -1 419.499 18.4521 8
-1 0 -1 446.391 23.3457 4
1 0 1 431.638 18.5940 2
1 0 1 433.892 17.7787 12
-1 0 -1 420.364 18.2803 11
-1 0 -1 424.581 18.4059 3
1 0 1 424.941 18.3940 3
1 0 1 403.837 18.3841 3
1 0 1 424.316 23.3014 4
-1 0 -1 425.731 19.8811 6
1 0 1 417.898 18.4571 8
-1 0 -1 415.736 17.7634 12
1 0 1 425.929 18.2681 11
1 0 1 426.911 19.8826 6
-1 0 -1 363.426 18.5517 2
2 0 1 4155.05 176.004 11
2 0 1 4182.53 178.139 8
2 0 1 4266.92 177.714 3
-2 0 -1 4232.95 226.074 4
2 0 1 3967.47 173.953 13
-2 0 -1 4091.06 174.305 13
2 0 1 4216.88 191.755 6
2 0 1 3793.46 177.229 3
-2 0 -1 4140.59 191.692 6
2 0 1 4219.64 185.063 7
2 0 1 4184.82 179.896 2
2 0 1 3940.14 224.844 4
-2 0 -1 4315.62 177.908 8
-2 0 -1 4065.96 176.454 11
-2 0 -1 4062.58 171.339 12
-2 0 -1 4179.21 179.786 2
-2 0 -1 4170.49 177.699 3
-2 0 -1 4053.74 184.585 7
-2 0 -1 4000.81 177.281 3
-3 0 -1 460.426 22.6921 3
-3 0 -1 515.687 22.3293 13
3 0 1 501.906 24.9619 9
-3 0 -1 540.599 22.7093 3
3 0 1 463.263 28.7829 4
3 0 1 518.711 22.5808 11
3 0 1 525.492 22.3993 13
-3 0 -1 526.129 23.6665 7
3 0 1 543.649 22.7632 3
3 0 1 529.193 22.8211 2
-3 0 -1 486.390 21.9805 12
3 0 1 554.848 22.8575 8
-3 0 -1 495.255 22.6157 11
-3 0 -1 490.457 28.8788 4
3 0 1 526.978 24.4896 6
-3 0 -1 550.604 22.8045 2
3 0 1 480.172 22.7007 3
-3 0 -1 529.044 24.4684 6
3 0 1 535.448 23.7427 7
4 0 1 71.9214 4.15482 7
-4 0 -1 65.9446 4.05668 3
-4 0 -1 70.8402 4.13600 7
4 0 1 77.3483 3.81474 2
4 0 1 69.2817 4.04277 13
-4 0 -1 70.6652 3.76977 2
4 0 1 72.0834 4.13510 8
4 0 1 70.0354 4.33892 6
-4 0 -1 73.3760 3.97073 12
4 0 1 64.1583 3.94004 11
-4 0 -1 66.7444 3.99694 11
4 0 1 58.4964 5.02779 4
-4 0 -1 73.3310 4.27646 6
4 0 1 76.9436 4.14580 3
-4 0 -1 65.6695 3.87066 13
4 0 1 67.9275 4.00359 3
4 0 1 77.1237 4.07279 9
-4 0 -1 75.3451 4.00272 3
-4 0 -1 78.3964 5.45416 4
5 0 1 40.4034 3.69985 11
-5 0 -1 50.8393 3.83951 7
-5 0 -1 55.9864 3.64180 3
5 0 1 51.0633 4.02617 6
-5 0 -1 53.1795 3.17648 2
-5 0 -1 50.2104 3.60570 12
-5 0 -1 50.8971 3.62737 6
5 0 1 41.8252 3.77351 13
5 0 1 48.0038 3.70346 3
-5 0 -1 52.0577 3.54924 11
5 0 1 56.3199 3.74608 8
5 0 1 53.0092 3.60799 7
5 0 1 52.3430 3.81598 3
5 0 1 47.0684 3.54879 9
5 0 1 52.2829 3.26715 2
-6 0 -1 332.263 15.3548 3
6 0 1 311.910 16.5073 9
-6 0 -1 299.873 14.9183 2
6 0 1 323.445 16.1222 7
-6 0 -1 317.178 15.5247 11
-6 0 -1 360.817 19.7585 4
6 0 1 294.283 16.7880 6
-6 0 -1 306.495 16.2798 6
6 0 1 361.730 15.1272 2
-6 0 -1 340.979 15.2585 12
6 0 1 320.692 15.4966 3
6 0 1 337.805 15.5147 3
6 0 1 310.712 15.6959 8
6 0 1 348.800 15.5375 13
7 0 1 -2.1597 2.85214 7
-7 0 -1 -1.4613 2.63258 12
-7 0 -1 1.40466 2.59088 3
-7 0 -1 1.45878 2.54091 11
7 0 1 2.69080 3.12833 8
7 0 1 -1.1812 2.11383 2
7 0 1 -0.5638 2.40308 9
-7 0 -1 -1.7709 1.71342 6
7 0 1 1.06048 3.04581 13
-7 0 -1 4.12961 2.31355 2
7 0 1 -0.9854 2.54997 3
-7 0 -1 0.51783 2.77925 4
-8 0 -1 6.31412 3.14878 2
-8 0 -1 1.13754 2.47363 6
8 0 1 6.66736 3.08443 3
-8 0 -1 2.68216 3.80224 12
-8 0 -1 5.71913 4.27937 4
8 0 1 4.35682 2.92929 2
-8 0 -1 9.24611 3.57522 3
-8 0 -1 5.53222 3.34073 11
8 0 1 1.68943 3.64547 13
8 0 1 5.48957 4.38871 8
8 0 1 1.03691 3.98444 7
-9 0 -1 58.0622 7.03615 3
9 0 1 71.4655 9.02263 8
-9 0 -1 58.5557 7.63069 11
-9 0 -1 70.5853 6.35979 6
9 0 1 68.2875 6.65299 3
-10 0 -1 1.40576 6.65635 12
-10 0 -1 11.2910 5.85802 3
-10 0 -1 -4.9253 6.15218 11
10 0 1 9.57369 7.47191 13
-10 0 -1 2.43340 6.98142 4
10 0 1 11.7556 5.66129 3
-10 0 -1 4.86813 4.46677 6
-11 0 -1 110.011 14.3108 4
11 0 1 119.436 11.1736 3
11 0 1 132.028 12.3702 13
-11 0 -1 86.4980 11.5510 3
-11 0 -1 120.019 13.0678 11
-11 0 -1 123.358 10.5461 6
-11 0 -1 113.834 13.8772 12
11 0 1 126.385 14.2008 8
-11 -1 1 10.8726 7.16623 11
11 -1 -1 4.99028 7.17282 13
11 -1 -1 11.2303 6.66628 3
11 -1 -1 8.40332 7.77806 7
-11 -1 1 -0.7184 8.41191 12
-11 -1 1 5.21922 7.08052 3
-11 -1 1 5.32805 7.82967 4
11 1 -1 1.57538 5.45826 2
11 1 -1 8.93550 8.83486 8
-11 1 1 8.30291 7.98523 4
-11 1 1 1.13183 7.68899 12
-11 1 1 17.6074 6.49303 3
11 1 -1 14.8896 7.69119 13
-11 1 1 11.2017 7.83795 11
11 1 -1 2.95919 7.27870 3
-10 -1 1 34.7066 6.69924 11
10 -1 -1 44.2763 7.63473 8
10 -1 -1 32.2284 6.41795 3
10 -1 -1 48.3870 7.37989 7
10 -1 -1 66.2040 8.96857 13
-10 -1 1 42.6973 6.55752 3
10 1 -1 32.7657 6.66250 3
-10 1 1 52.9774 8.46756 11
-10 1 1 56.6770 10.0760 9
-10 1 1 59.8908 7.89472 3
10 1 -1 45.8689 6.16156 2
9 -1 -1 134.822 9.60830 7
-9 -1 1 118.022 9.07207 11
-9 -1 1 128.360 9.01293 3
9 -1 -1 128.080 9.25140 3
-9 -1 1 109.484 9.40819 12
-9 -1 1 116.212 11.1467 4
9 -1 -1 139.349 10.1570 8
-9 1 1 130.731 9.07444 3
9 1 -1 143.857 10.2219 8
-9 1 1 114.162 9.27150 11
9 1 -1 129.837 9.08008 3
9 1 -1 132.955 7.64254 2
-9 1 1 114.775 11.0017 4
9 1 -1 118.508 9.51373 7
-9 1 1 118.674 10.1675 9
8 -1 -1 3.62538 4.05842 7
-8 -1 1 0.40440 3.23882 11
-8 -1 1 2.39264 3.41606 3
-8 -1 1 2.46985 3.66542 12
8 -1 -1 0.33649 3.70760 8
-8 -1 1 -1.0430 4.02402 4
8 -1 -1 -7.6212 3.49061 3
8 -1 -1 5.29190 3.65648 13
-8 1 1 -3.3542 2.92478 4
8 1 -1 2.69897 3.78701 7
8 1 -1 -2.6380 3.50270 13
-8 1 1 -6.8386 3.76643 9
-8 1 1 1.13674 3.61578 3
-8 1 1 1.70265 3.45468 11
8 1 -1 -3.0941 3.32775 3
8 1 -1 -1.1494 2.70967 2
7 -1 -1 222.202 11.1123 13
-7 -1 1 205.764 11.3296 11
-7 -1 1 230.965 14.1637 4
7 -1 -1 211.316 11.6015 7
7 -1 -1 218.303 11.4064 3
-7 -1 1 205.652 11.0354 3
-7 1 1 219.600 12.3220 9
7 1 -1 197.736 11.1030 3
7 1 -1 220.896 11.1932 7
-7 1 1 218.678 11.3287 11
7 1 -1 219.805 10.9451 2
7 1 -1 225.164 11.3002 13
-7 1 1 223.172 11.2499 3
-7 1 1 205.190 13.8177 4
-6 -1 1 13.7855 2.46952 3
-6 -1 1 15.6123 2.55752 7
6 -1 -1 15.3416 2.82550 7
-6 -1 1 14.9488 3.26083 4
-6 -1 1 12.0590 2.71849 11
6 -1 -1 12.0557 2.40575 3
6 -1 -1 12.0662 2.78719 3
6 -1 -1 10.9247 2.64460 13
6 1 -1 13.2405 2.26097 2
6 1 -1 12.4312 2.02886 7
-6 1 1 18.7446 3.20991 9
6 1 -1 12.7150 2.65054 3
-6 1 1 15.7989 2.54167 3
-6 1 1 9.60573 2.38754 11
6 1 -1 13.3127 2.59414 13
5 -1 -1 194.407 9.68179 11
5 -1 -1 205.906 9.35102 13
-5 -1 1 179.256 10.1847 6
-5 -1 1 204.267 9.68572 7
5 -1 -1 184.106 11.9776 4
5 -1 -1 202.452 9.83308 3
-5 -1 1 206.838 9.71870 11
-5 -1 1 220.432 12.3055 4
-5 -1 1 193.408 9.68417 3
5 -1 -1 187.508 9.48676 3
-5 -1 1 195.195 9.54716 3
5 -1 -1 204.698 10.5798 9
5 -1 -1 202.698 9.92150 7
5 1 -1 202.860 9.64533 3
-5 1 1 185.193 10.0606 7
-5 1 1 209.602 12.0719 4
5 1 -1 177.473 11.9542 4
5 1 -1 212.971 9.53329 13
5 1 -1 183.438 10.4729 9
-5 1 1 210.442 9.63009 3
-5 1 1 208.026 10.4916 9
5 1 -1 182.451 9.53461 3
5 1 -1 199.633 9.60446 7
5 1 -1 192.177 10.3207 6
-5 1 1 172.932 9.26959 13
5 1 -1 201.209 9.50262 2
-5 1 1 196.295 9.52914 11
-4 -1 1 132.863 6.79671 13
-4 -1 1 137.160 7.06381 3
4 -1 -1 148.870 7.78469 9
4 -1 -1 139.664 7.24066 7
-4 -1 1 136.425 8.78257 4
-4 -1 1 145.614 6.98274 3
4 -1 -1 135.783 8.76141 4
4 -1 -1 156.021 7.17791 3
-4 -1 1 150.241 7.10485 11
4 -1 -1 152.677 7.13848 11
4 -1 -1 146.687 6.84088 13
4 -1 -1 143.872 6.97211 3
-4 -1 1 147.921 6.99008 7
4 1 -1 141.538 6.86440 13
-4 1 1 143.016 7.64620 9
-4 1 1 143.613 7.38530 7
-4 1 1 144.951 7.03099 3
4 1 -1 139.605 7.03982 3
4 1 -1 135.758 7.64727 9
4 1 -1 136.435 6.93802 3
4 1 -1 130.823 7.42584 6
-4 1 1 138.448 8.70359 4
-4 1 1 145.790 7.01964 3
4 1 -1 132.724 8.79256 4
4 1 -1 146.281 6.97429 2
4 1 -1 140.325 7.01853 11
4 1 -1 149.182 6.96547 7
-4 1 1 133.601 6.79258 13
-4 1 1 146.027 6.98466 11
3 -1 -1 301.754 13.1629 11
3 -1 -1 284.584 13.7591 7
-3 -1 1 286.528 12.9020 13
3 -1 -1 289.592 16.6241 4
-3 -1 1 324.422 13.2745 3
3 -1 -1 326.834 14.6771 9
3 -1 -1 266.312 12.8201 13
3 -1 -1 268.098 13.0808 3
-3 -1 1 269.430 13.0907 3
-3 -1 1 320.795 13.2324 11
3 1 -1 309.823 14.6286 9
3 1 -1 298.842 13.1733 11
3 1 -1 271.070 13.1050 3
3 1 -1 314.148 13.2452 3
-3 1 1 331.811 14.6628 9
3 1 -1 276.289 12.8917 13
-3 1 1 266.573 13.0615 11
-3 1 1 295.092 16.5973 4
-3 1 1 296.147 13.1944 3
-3 1 1 323.302 11.7319 10
3 1 -1 264.947 13.2305 2
-3 1 1 252.567 13.7072 7
-3 1 1 264.892 12.8125 13
2 -1 -1 1909.74 82.1602 3
2 -1 -1 1946.61 82.1000 3
2 -1 -1 1927.16 80.4804 13
2 -1 -1 1856.60 91.4847 9
-2 -1 1 1916.03 82.0566 3
-2 -1 1 1879.01 82.0885 3
-2 -1 1 1846.96 80.5295 13
2 -1 -1 1932.88 82.9810 2
2 -1 -1 1926.22 85.5788 7
-2 -1 1 2008.98 81.6089 11
2 -1 -1 1936.57 81.5620 11
-2 -1 1 1815.45 103.986 4
-2 1 1 1859.94 91.4765 9
-2 1 1 1973.04 85.6106 7
2 1 -1 1987.40 81.5890 11
-2 1 1 1713.84 104.040 4
2 1 -1 1847.75 88.5990 6
2 1 -1 1936.12 82.0521 3
2 1 -1 1907.41 83.2175 2
-2 1 1 1859.39 82.1072 3
2 1 -1 1928.62 80.5586 13
2 1 -1 1940.53 82.1109 3
-2 1 1 1950.76 81.5647 11
2 1 -1 1855.83 91.4695 9
-2 1 1 1893.01 80.4684 13
-2 1 1 1866.50 82.1100 3
-1 -1 1 114.982 5.51612 11
1 -1 -1 118.482 6.28690 9
-1 -1 1 109.645 5.46835 3
1 -1 -1 100.976 5.86403 7
1 -1 -1 105.518 5.39771 12
1 -1 -1 113.252 5.65512 3
1 -1 -1 118.654 5.58414 2
1 -1 -1 108.456 5.61282 3
-1 -1 1 110.568 5.46425 13
-1 -1 1 111.176 5.49099 3
1 -1 -1 118.079 5.62352 11
1 -1 -1 100.463 5.33928 13
1 1 -1 107.524 5.49003 11
1 1 -1 112.186 5.46336 3
1 1 -1 100.921 5.61235 2
1 1 -1 107.983 5.43629 13
-1 1 1 105.342 5.35761 13
-1 1 1 109.811 5.43391 12
-1 1 1 107.659 5.63700 3
-1 1 1 115.800 5.63366 3
1 1 -1 112.365 5.31225 1
-1 1 1 118.577 6.26063 9
-1 1 1 107.897 5.91153 7
-1 1 1 113.672 5.59259 11
1 1 -1 104.162 5.47336 3
-1 1 1 120.748 5.58125 2
0 -1 1 2953.91 115.153 1
0 -1 -1 2982.62 127.497 7
0 -1 1 2822.11 112.003 5
0 -1 -1 2789.20 123.844 2
0 -1 -1 2838.19 136.234 9
0 -1 -1 2874.44 155.153 4
0 -1 -1 2674.50 122.231 8
0 -1 1 2654.17 127.167 7
0 -1 -1 2824.22 117.830 12
0 -1 -1 2985.86 121.652 11
0 -1 -1 2875.01 122.439 3
0 -1 -1 2736.78 131.901 6
0 -1 -1 2847.68 122.097 3
0 -1 1 2768.55 122.406 8
0 1 -1 2676.72 122.286 8
0 1 1 2579.93 131.755 6
0 1 -1 2931.77 119.838 13
0 1 -1 2903.58 111.815 5
0 1 1 2748.40 123.978 2
0 1 1 2977.91 122.523 3
0 1 1 2901.34 117.924 12
0 1 1 2883.67 127.120 7
0 1 1 2797.96 154.783 4
0 1 1 2852.20 121.554 11
0 1 1 2826.35 122.436 3
0 1 1 2971.69 121.625 11
0 1 1 2829.07 136.527 9
-1 -1 -1 121.736 5.57190 11
-1 -1 -1 119.902 5.60446 2
-1 -1 -1 119.569 5.60461 3
1 -1 1 126.278 5.86937 6
1 -1 1 118.050 6.93291 4
-1 -1 -1 115.994 5.30829 12
-1 -1 -1 118.821 5.57249 3
-1 -1 -1 118.017 7.02080 4
-1 -1 -1 115.053 5.96026 6
-1 -1 -1 119.523 5.53978 8
-1 -1 -1 118.383 4.89565 5
1 -1 1 117.079 4.97173 5
1 -1 1 118.803 5.69836 7
1 -1 1 122.423 5.95789 9
1 -1 1 121.772 4.99350 10
-1 -1 -1 116.834 5.31803 13
1 1 1 117.886 6.07829 9
1 1 1 117.298 5.97894 6
-1 1 -1 116.429 5.69821 7
-1 1 -1 117.523 4.97891 10
1 1 1 119.065 5.60599 2
1 1 1 116.195 5.29649 12
1 1 1 120.104 5.59757 3
-1 1 -1 115.249 5.93763 9
1 1 1 122.585 5.59803 3
1 1 1 121.104 5.55643 11
1 1 1 119.382 7.00092 4
1 1 1 118.577 5.53768 8
-1 1 -1 118.584 4.96769 5
1 1 1 120.019 4.89650 5
-1 1 -1 118.369 5.83913 6
-1 1 -1 115.656 6.91922 4
-2 -1 -1 555.535 26.1338 6
-2 -1 -1 557.759 23.6979 13
-2 -1 -1 542.965 30.7130 4
-2 -1 -1 546.621 24.2837 3
2 -1 1 542.502 24.0165 3
2 -1 1 535.026 30.6411 4
2 -1 1 561.641 25.9139 6
2 -1 1 565.004 24.0102 3
2 -1 1 542.121 26.6562 9
2 -1 1 590.223 23.8658 11
-2 -1 -1 557.443 21.8675 5
-2 -1 -1 565.036 24.1517 11
-2 -1 -1 558.798 24.4759 2
2 -1 1 553.509 25.2071 7
-2 -1 -1 525.844 23.3076 12
-2 -1 -1 526.498 24.2070 3
-2 1 -1 529.522 30.6425 4
-2 1 -1 570.859 23.8531 11
-2 1 -1 525.406 26.6112 9
-2 1 -1 566.855 23.9952 3
2 1 1 554.643 24.2570 3
-2 1 -1 558.097 23.6990 13
2 1 1 515.299 24.2310 3
-2 1 -1 575.656 25.9466 6
2 1 1 554.145 24.4941 2
-2 1 -1 540.247 21.8153 10
-2 1 -1 560.863 25.2064 7
-2 1 -1 546.468 24.0199 3
2 1 1 506.462 30.6110 4
-2 1 -1 569.286 21.9631 5
2 1 1 565.262 24.1297 11
2 1 1 562.461 24.2935 8
2 1 1 536.411 23.3061 12
2 1 1 564.323 23.7400 13
2 1 1 553.089 26.1603 6
3 -1 1 808.355 44.6517 4
3 -1 1 780.525 35.1401 8
-3 -1 -1 814.306 36.5930 7
3 -1 1 827.113 35.1183 3
3 -1 1 766.584 36.6889 7
-3 -1 -1 766.602 34.4906 13
3 -1 1 797.272 38.8507 9
-3 -1 -1 906.735 44.8153 4
-3 -1 -1 829.424 35.3584 3
-3 -1 -1 850.358 35.1538 11
-3 -1 -1 746.939 35.1830 3
-3 -1 -1 769.476 37.9780 6
-3 -1 -1 770.548 35.5623 2
3 -1 1 815.738 34.5721 13
3 -1 1 863.003 34.8761 11
3 -1 1 792.071 37.7548 6
-3 -1 -1 860.901 34.0090 12
3 -1 1 778.438 35.0440 3
3 1 1 761.525 35.3466 8
3 1 1 869.427 44.7280 4
3 1 1 791.652 35.5966 2
3 1 1 745.381 37.9923 6
3 1 1 825.018 34.6131 13
3 1 1 783.220 35.2801 3
-3 1 -1 743.031 36.6282 7
-3 1 -1 776.212 35.0100 3
3 1 1 805.789 35.0507 11
-3 1 -1 814.677 35.1027 3
-3 1 -1 741.689 37.7075 6
3 1 1 827.242 33.9679 12
-3 1 -1 846.719 31.8178 10
-3 1 -1 758.999 34.4778 13
-3 1 -1 825.311 34.8663 11
-3 1 -1 838.935 44.6894 4
-3 1 -1 771.637 35.1071 8
-3 1 -1 856.871 38.8536 9
3 1 1 816.997 35.2966 3
4 -1 1 30.3384 2.13830 9
-4 -1 -1 25.6538 2.31534 11
-4 -1 -1 23.5283 2.27785 3
-4 -1 -1 28.2036 3.46334 4
-4 -1 -1 21.0952 2.07200 13
4 -1 1 28.4120 2.57718 6
-4 -1 -1 25.7639 2.34171 12
-4 -1 -1 20.9438 2.33725 6
4 -1 1 26.1169 3.18030 4
4 -1 1 26.7580 2.36777 8
4 -1 1 25.4316 2.30798 3
4 -1 1 27.9790 2.34929 11
-4 -1 -1 28.9853 2.64827 3
4 -1 1 19.1887 2.25157 7
-4 -1 -1 22.9731 2.34869 2
-4 -1 -1 26.2403 2.27837 7
4 -1 1 22.5767 2.15904 13
4 -1 1 27.2042 2.29644 3
4 1 1 22.9121 2.78498 6
4 1 1 23.6794 2.45582 11
4 1 1 25.1865 2.31638 2
4 1 1 25.3568 2.57057 3
-4 1 -1 26.6573 3.04449 4
-4 1 -1 21.2682 2.13035 6
-4 1 -1 21.8750 2.05156 11
-4 1 -1 19.8355 2.08947 13
-4 1 -1 22.2596 2.66850 7
4 1 1 27.7239 2.49007 3
4 1 1 27.6320 2.26344 9
4 1 1 21.2953 2.33507 8
-4 1 -1 23.1988 2.48018 3
4 1 1 23.2095 2.19331 13
-4 1 -1 24.4873 2.22849 3
4 1 1 30.0260 3.74309 4
5 -1 1 611.457 32.3770 9
-5 -1 -1 705.343 29.7686 2
-5 -1 -1 666.357 31.8837 6
-5 -1 -1 686.005 28.6921 12
-5 -1 -1 668.153 30.6538 7
-5 -1 -1 608.924 37.5570 4
-5 -1 -1 607.288 29.5640 11
5 -1 1 683.596 31.6624 6
5 -1 1 667.433 29.4633 3
5 -1 1 705.947 29.5739 8
5 -1 1 670.957 29.3144 11
-5 -1 -1 692.969 29.6128 3
5 -1 1 664.932 29.1488 13
5 -1 1 686.351 29.5700 3
5 -1 1 566.069 30.7493 7
-5 1 -1 683.772 29.3870 11
-5 1 -1 721.860 29.5028 3
5 1 1 681.059 29.2459 13
5 1 1 658.781 29.6672 3
5 1 1 710.367 29.8270 2
5 1 1 704.106 29.8178 3
-5 1 -1 714.393 31.5730 6
5 1 1 560.895 32.1498 6
-5 1 -1 666.049 32.4091 9
5 1 1 624.043 32.4605 9
-5 1 -1 629.491 37.5195 4
6 -1 1 95.5769 6.28732 7
-6 -1 -1 104.410 6.07504 3
6 -1 1 102.381 6.41842 6
6 -1 1 101.459 5.92635 3
-6 -1 -1 78.0781 7.54870 4
-6 -1 -1 100.714 5.73441 2
-6 -1 -1 94.2845 6.39118 11
-6 -1 -1 103.965 6.11973 6
6 -1 1 101.795 6.04510 8
-6 -1 -1 86.1578 6.54972 12
6 -1 1 84.7136 5.95133 9
6 -1 1 99.4545 6.05503 3
6 -1 1 96.0324 6.25030 13
6 1 1 111.220 6.80027 8
-6 1 -1 109.497 5.91004 3
-6 1 -1 98.4788 5.81020 6
-6 1 -1 93.2204 6.03872 11
6 1 1 95.5168 6.06229 3
-6 1 -1 101.334 5.94667 9
6 1 1 106.182 5.93810 2
6 1 1 97.9495 6.33129 13
6 1 1 91.2247 6.12415 9
-7 -1 -1 20.7510 3.71828 6
-7 -1 -1 20.9721 4.20350 11
7 -1 1 17.7173 2.87063 9
7 -1 1 27.5211 4.25372 3
7 -1 1 18.5173 3.68236 6
7 -1 1 26.1188 4.16749 7
7 -1 1 19.9428 3.67111 13
-7 -1 -1 21.3612 3.65073 3
-7 -1 -1 27.9580 5.36145 4
-7 -1 -1 22.2860 4.01885 12
7 -1 1 21.3533 3.85156 8
-7 1 -1 17.3110 3.51656 11
-7 1 -1 26.1493 4.36120 4
-7 1 -1 25.0775 3.77144 6
-7 1 -1 21.3654 3.40704 3
7 1 1 21.4765 3.96496 13
7 1 1 21.6326 4.15363 8
7 1 1 27.1737 4.06049 3
-7 1 -1 32.0488 3.94796 9
-7 1 -1 17.8434 3.45088 12
-8 -1 -1 144.680 9.65955 12
8 -1 1 139.279 9.61483 8
8 -1 1 145.229 8.82958 3
-8 -1 -1 150.992 11.1133 4
-8 -1 -1 139.675 8.53144 6
-8 -1 -1 135.482 8.71437 3
8 -1 1 135.516 9.08826 7
-8 -1 -1 132.784 9.31781 11
8 -1 1 144.897 9.41817 13
-8 1 -1 140.708 10.9718 4
8 1 1 138.455 8.08431 2
-8 1 -1 138.703 8.94677 3
-8 1 -1 133.132 8.35976 6
-8 1 -1 141.641 9.31479 9
8 1 1 148.285 9.41402 13
8 1 1 132.936 8.83506 3
-8 1 -1 132.198 9.03917 11
8 1 1 135.831 9.78574 8
-9 -1 -1 21.7938 6.11641 11
-9 -1 -1 26.8205 5.16534 3
9 -1 1 31.2695 5.92878 8
9 -1 1 20.3452 5.34070 7
-9 -1 -1 26.8650 4.21123 6
9 -1 1 20.0009 4.79508 3
-9 1 -1 16.7896 5.11846 11
-9 1 -1 30.8317 5.18966 6
-9 1 -1 20.2966 5.07121 3
9 1 1 26.8491 4.85033 3
9 1 1 25.7076 4.40179 2
-10 -1 -1 20.2624 5.87869 3
10 -1 1 18.9636 5.81953 3
-10 -1 -1 20.7003 6.78216 4
10 -1 1 13.1377 7.01611 8
-10 -1 -1 12.0132 6.99588 11
-10 -1 -1 9.01461 6.98334 12
10 -1 1 19.1812 7.20716 13
-10 -1 -1 15.0770 4.96353 6
10 -1 1 11.5606 7.22910 7
-10 1 -1 21.9686 6.70726 12
10 1 1 17.8202 4.69867 2
10 1 1 17.4909 5.47263 3
-10 1 -1 13.5134 4.38091 6
-10 1 -1 18.9150 6.70287 11
10 1 1 18.8807 7.37308 13
10 1 1 19.1785 7.36667 8
-10 1 -1 10.8603 6.53124 4
-10 1 -1 17.9125 6.22591 3
11 -1 1 -0.1077 8.04405 8
-11 -1 -1 0.37759 8.35293 12
11 -1 1 0.17018 8.93256 7
11 -1 1 0.32418 6.40390 3
-11 -1 -1 -4.9963 7.39632 3
-11 -1 -1 7.05771 8.11858 4
-11 -1 -1 -8.7661 5.82937 6
-11 -1 -1 -11.804 7.90200 11
11 -1 1 12.8651 8.52149 13
11 1 1 11.1057 8.90361 8
-11 1 -1 -0.9478 9.30089 11
11 1 1 0.29587 8.81230 13
-11 1 -1 8.58679 7.49308 3
11 1 1 -0.8815 7.14219 3
11 1 1 -8.9264 5.33210 2
-11 1 -1 -8.0192 8.56285 12
-11 1 -1 -4.8157 8.09248 4
11 -2 -1 17.1835 8.26243 13
-11 -2 1 7.94769 8.57788 4
11 -2 -1 15.6440 7.05651 3
-11 -2 1 9.30767 6.95889 11
-11 -2 1 6.47583 8.45546 12
-11 -2 1 7.05519 7.51288 3
11 -2 -1 -5.2076 8.59541 7
-11 2 1 10.6738 8.42311 11
-11 2 1 7.03659 8.58065 4
-11 2 1 4.97352 8.47176 9
11 2 -1 20.3960 6.05687 2
11 2 -1 6.33210 7.54839 3
11 2 -1 5.47909 8.06432 8
-11 2 1 -1.9934 7.10502 3
11 2 -1 24.2213 8.68604 13
10 -2 -1 7.43577 6.00164 13
-10 -2 1 -1.6114 6.63657 12
-10 -2 1 19.7957 5.75537 3
10 -2 -1 3.76719 6.87093 7
10 -2 -1 -0.5414 5.38160 3
-10 -2 1 15.8456 6.25026 11
10 2 -1 7.58352 6.46885 8
-10 2 1 10.7085 5.87074 4
-10 2 1 13.0196 6.59335 9
10 2 -1 9.64337 6.31324 13
10 2 -1 9.20988 4.85579 2
-10 2 1 9.64880 6.60669 11
10 2 -1 16.1868 5.90391 3
-10 2 1 0.38958 5.89020 3
9 -2 -1 11.7241 4.75268 13
-9 -2 1 13.4417 3.97293 3
9 -2 -1 2.95929 4.48358 3
-9 -2 1 11.6642 5.39551 12
9 -2 -1 26.7242 5.46868 7
-9 -2 1 9.27327 5.63412 4
-9 2 1 22.2481 5.52947 11
-9 2 1 16.2026 5.28448 9
-9 2 1 5.68082 4.64802 4
9 2 -1 9.40138 4.20454 3
-9 2 1 7.01134 4.77323 3
9 2 -1 23.7797 5.50272 13
8 -2 -1 556.234 25.6891 13
8 -2 -1 560.615 27.1825 7
-8 -2 1 547.577 32.9713 4
-8 -2 1 529.008 25.3139 12
8 -2 -1 548.011 26.1664 3
-8 -2 1 536.460 25.9444 3
8 2 -1 581.490 26.0480 2
-8 2 1 562.509 28.6835 9
-8 2 1 539.418 26.1462 3
8 2 -1 575.649 25.8488 13
-8 2 1 634.608 33.1168 4
-8 2 1 556.259 25.9725 11
8 2 -1 522.360 26.0764 3
-7 -2 1 127.832 8.11172 12
-7 -2 1 129.573 9.88620 4
7 -2 -1 126.957 8.14434 7
-7 -2 1 114.030 7.74417 11
7 -2 -1 116.256 7.79134 3
-7 -2 1 127.845 7.52419 3
7 -2 -1 127.174 7.76368 13
-7 -2 1 106.218 7.40619 7
7 2 -1 129.165 7.97850 13
7 2 -1 129.380 7.82592 3
-7 2 1 121.600 7.74310 11
7 2 -1 123.189 7.43439 2
-7 2 1 139.199 8.70440 9
-7 2 1 122.691 7.92936 3
-7 2 1 152.021 9.81836 4
-6 -2 1 66.2780 4.78809 3
6 -2 -1 73.1205 5.19172 3
6 -2 -1 61.2878 4.90482 3
-6 -2 1 63.7099 5.14114 11
6 -2 -1 66.4800 5.39605 7
-6 -2 1 79.1089 6.68204 4
6 -2 -1 71.7019 5.19326 13
-6 2 1 78.9139 5.08383 3
6 2 -1 68.7441 5.37512 3
-6 2 1 73.7114 4.87028 10
6 2 -1 70.7325 4.77567 2
6 2 -1 68.0283 5.06349 13
-6 2 1 71.6961 5.57053 9
-6 2 1 66.3592 5.18146 11
5 -2 -1 82.6585 5.47349 9
5 -2 -1 89.0003 4.79090 13
5 -2 -1 82.5238 4.95007 3
5 -2 -1 83.2849 5.34552 7
-5 -2 1 97.1898 5.08754 3
-5 -2 1 76.5393 5.26226 11
5 -2 -1 94.6769 5.25487 3
5 -2 -1 79.3157 5.24221 11
-5 -2 1 74.9466 5.14884 3
-5 -2 1 81.3619 5.10514 2
-5 -2 1 84.1854 6.62448 4
5 2 -1 73.7222 4.99837 13
-5 2 1 85.2708 4.98950 3
-5 2 1 87.4780 4.49600 10
-5 2 1 79.1875 4.75201 13
-5 2 1 67.5650 6.25588 4
5 2 -1 86.9364 5.03670 2
5 2 -1 89.0202 5.07641 3
5 2 -1 69.9367 6.66253 4
-5 2 1 81.7453 5.25688 9
-5 2 1 80.2189 4.76745 11
4 -2 -1 280.949 13.4371 7
-4 -2 1 257.035 12.7988 3
4 -2 -1 289.562 12.7704 11
-4 -2 1 300.643 13.0201 2
4 -2 -1 284.780 12.8410 3
-4 -2 1 258.236 12.4392 13
-4 -2 1 279.990 12.8581 11
-4 -2 1 294.015 12.8005 3
4 -2 -1 289.788 12.7002 3
4 -2 -1 277.342 12.3738 13
-4 -2 1 268.591 16.1843 4
4 -2 -1 260.259 14.1187 9
4 2 -1 289.382 12.8504 3
-4 2 1 270.599 12.7070 3
-4 2 1 262.678 14.0894 9
4 2 -1 261.578 14.1294 9
4 2 -1 262.514 12.7690 11
-4 2 1 283.950 12.7719 3
-4 2 1 286.004 13.5714 7
4 2 -1 271.345 12.7734 3
4 2 -1 288.753 12.5881 13
-4 2 1 276.349 11.3744 10
4 2 -1 246.265 16.0558 4
4 2 -1 293.408 13.0228 2
-4 2 1 278.962 12.6677 11
-4 2 1 262.333 16.0766 4
-4 2 1 273.895 12.4218 13
4 2 -1 262.744 13.8049 6
3 -2 -1 1351.97 58.0828 3
-3 -2 1 1403.10 73.6708 4
-3 -2 1 1294.93 57.9841 3
-3 -2 1 1408.87 53.1864 5
3 -2 -1 1339.42 60.6914 7
3 -2 -1 1361.94 64.7615 9
-3 -2 1 1316.33 56.9129 13
-3 -2 1 1385.47 58.1261 3
-3 -2 1 1326.20 58.8877 2
3 -2 -1 1302.17 57.9625 3
-3 -2 1 1402.25 57.8195 11
3 -2 -1 1333.43 52.2397 10
3 -2 -1 1381.43 57.6969 11
3 -2 -1 1385.18 56.8198 13
3 2 -1 1328.48 73.5420 4
-3 2 1 1342.27 58.0580 3
-3 2 1 1337.29 60.6730 7
3 2 -1 1134.32 62.6380 6
-3 2 1 1285.88 73.6535 4
-3 2 1 1327.36 57.6429 11
-3 2 1 1363.71 56.8010 13
3 2 -1 1294.28 58.0309 3
3 2 -1 1327.13 57.7467 11
-3 2 1 1384.74 64.7134 9
3 2 -1 1362.47 58.0733 3
3 2 -1 1291.60 58.8906 2
3 2 -1 1332.57 56.9263 13
-3 2 1 1293.97 58.0148 3
-2 -2 1 1795.27 79.3513 3
2 -2 -1 1853.88 78.9146 11
2 -2 -1 1774.20 71.6134 10
-2 -2 1 1892.42 79.4225 3
-2 -2 1 1878.84 77.8956 13
2 -2 -1 1782.42 77.7187 13
2 -2 -1 1822.49 82.9099 7
-2 -2 1 1864.13 100.807 4
-2 -2 1 1929.16 78.9521 11
2 -2 -1 1871.92 79.5027 3
-2 -2 1 1849.26 72.7254 5
2 -2 -1 1822.36 79.4259 3
2 -2 -1 1819.30 80.2712 2
-2 -2 1 1771.20 80.5847 2
2 -2 -1 1920.96 88.6864 9
2 2 -1 1782.39 80.5902 2
-2 2 1 1939.04 79.5369 3
-2 2 1 1809.85 76.6767 12
2 2 -1 1574.24 85.7188 6
-2 2 1 1896.01 80.2923 2
-2 2 1 1795.00 79.4401 3
-2 2 1 1819.34 78.8878 11
2 2 -1 1873.28 79.3997 3
2 2 -1 1913.58 77.9081 13
-2 2 1 1841.69 82.9401 7
2 2 -1 1858.19 78.9106 11
2 2 -1 1887.54 100.754 4
-2 2 1 1862.83 88.6125 9
2 2 -1 1747.86 79.3537 3
1 -2 -1 3136.18 138.184 7
1 -2 -1 3142.11 134.266 2
1 -2 -1 3091.56 132.598 3
-1 -2 1 2966.26 121.128 5
1 -2 -1 3086.48 132.602 3
-1 -2 1 2994.26 129.889 13
-1 -2 1 3049.79 124.531 1
-1 -2 1 3045.33 134.375 2
1 -2 -1 3178.61 131.658 11
1 -2 -1 3115.54 147.877 9
1 -2 -1 2938.67 127.821 12
-1 -2 1 3325.57 132.093 11
1 2 -1 3125.17 134.404 2
-1 2 1 3014.35 127.858 12
1 2 -1 3029.20 168.125 4
-1 2 1 3148.24 132.651 3
-1 2 1 3003.87 132.557 3
-1 2 1 3021.44 147.826 9
1 2 -1 3097.20 121.153 5
1 2 -1 2967.07 124.513 1
-1 2 1 3118.62 131.640 11
1 2 -1 3064.57 131.460 11
1 2 -1 3035.47 129.877 13
-1 2 1 2953.68 138.127 7
-1 2 1 3220.81 134.708 2
0 -2 -1 1208.18 56.0002 2
0 -2 1 1264.67 50.6019 5
0 -2 -1 1292.71 61.7614 9
0 -2 -1 1220.71 59.5529 6
0 -2 1 1257.15 57.4267 7
0 -2 -1 1294.52 53.3292 12
0 -2 1 1336.59 52.0846 1
0 -2 -1 1309.58 55.0169 11
0 -2 -1 1259.90 55.3458 3
0 -2 -1 1296.71 57.6392 7
0 -2 -1 1300.08 55.3889 3
0 2 -1 1253.21 57.4230 7
0 2 1 1312.05 55.4182 3
0 2 1 1232.96 59.5738 6
0 2 1 1269.37 55.3528 3
0 2 1 1270.46 50.5543 5
0 2 1 1366.48 55.0274 11
0 2 1 1273.06 55.0053 11
0 2 -1 1219.56 50.5549 5
0 2 1 1246.46 61.7412 9
0 2 -1 1289.96 56.0071 2
0 2 1 1301.47 57.6570 7
0 2 1 1279.62 53.3301 12
0 2 1 1295.04 70.2862 4
0 2 1 1253.44 56.0537 2
-1 -2 -1 6538.32 256.413 5
-1 -2 -1 6729.00 270.936 12
-1 -2 -1 6911.95 292.654 7
1 -2 1 6494.29 256.527 5
-1 -2 -1 6573.84 280.738 3
-1 -2 -1 6525.15 284.616 2
-1 -2 -1 6407.94 274.750 13
-1 -2 -1 6557.11 356.650 4
1 -2 1 6612.11 292.656 7
-1 -2 -1 6582.90 280.393 3
1 -2 1 6546.35 253.863 10
-1 -2 -1 6621.92 303.254 6
-1 -2 -1 6429.63 278.537 11
1 2 1 6145.33 269.979 12
1 2 1 6445.98 281.127 8
-1 2 -1 6636.23 292.351 7
1 2 1 6436.83 255.922 5
-1 2 -1 6494.04 312.751 9
1 2 1 6286.64 302.935 6
-1 2 -1 6787.09 284.358 2
1 2 1 6606.76 284.934 2
-1 2 -1 6458.20 256.219 5
1 2 1 6451.92 280.244 3
1 2 1 6408.50 280.551 3
1 2 1 6360.43 312.794 9
1 2 1 6203.43 278.129 11
1 2 1 6291.13 355.891 4
-2 -2 -1 120.129 5.82090 3
-2 -2 -1 117.729 5.74091 11
-2 -2 -1 101.996 6.04160 6
2 -2 1 116.564 6.15726 9
-2 -2 -1 106.379 4.95935 5
2 -2 1 116.825 5.11331 10
-2 -2 -1 126.483 5.45160 12
-2 -2 -1 107.489 5.64251 3
-2 -2 -1 104.668 5.71915 2
-2 -2 -1 114.102 5.28120 13
-2 -2 -1 119.834 7.31783 4
2 -2 1 107.858 5.83986 7
2 2 1 107.675 5.64793 8
-2 2 -1 112.165 5.13727 5
2 2 1 118.554 5.72026 3
2 2 1 119.701 5.35058 12
-2 2 -1 110.609 5.13273 10
-2 2 -1 111.419 5.30121 13
2 2 1 112.170 5.71216 3
2 2 1 110.367 5.73636 2
-2 2 -1 123.196 7.16924 4
2 2 1 100.863 6.07036 6
2 2 1 114.085 5.35475 13
-2 2 -1 117.331 6.06179 9
2 2 1 124.007 7.35206 4
-2 2 -1 108.295 5.85067 7
2 2 1 113.880 5.00547 5
2 2 1 117.407 5.69504 11
3 -2 1 138.811 6.16526 10
3 -2 1 146.871 6.54097 3
3 -2 1 139.589 7.40334 9
-3 -2 -1 125.477 6.99982 3
3 -2 1 148.273 6.65275 3
3 -2 1 129.408 8.65911 4
-3 -2 -1 141.560 6.01608 5
3 -2 1 150.825 6.52529 11
-3 -2 -1 144.685 6.90718 3
3 -2 1 143.248 7.18209 7
-3 -2 -1 125.833 6.54406 12
-3 -2 -1 151.828 7.04785 2
-3 -2 -1 136.198 6.52841 13
-3 -2 -1 140.220 7.01173 11
-3 -2 -1 140.981 7.43761 6
-3 -2 -1 133.549 8.88056 4
3 2 1 159.196 7.10081 8
3 2 1 129.691 6.46694 12
-3 2 -1 136.872 6.57038 3
-3 2 -1 136.057 6.52415 13
3 2 1 117.185 8.67620 4
-3 2 -1 142.781 6.27957 10
3 2 1 136.710 6.64159 13
-3 2 -1 144.103 6.55601 3
-3 2 -1 145.624 6.17620 5
3 2 1 129.659 6.91984 3
3 2 1 145.171 7.04155 2
-3 2 -1 145.090 6.46914 11
3 2 1 132.257 6.91460 11
3 2 1 137.823 7.49423 6
-3 2 -1 125.921 8.56945 4
-3 2 -1 135.213 7.28727 9
3 2 1 140.495 7.01388 3
-3 2 -1 144.207 7.24221 7
4 -2 1 1540.13 63.9542 11
-4 -2 -1 1524.98 64.4405 11
-4 -2 -1 1634.94 82.2562 4
-4 -2 -1 1342.23 69.7215 6
-4 -2 -1 1622.64 62.3903 12
4 -2 1 1514.56 63.3833 13
-4 -2 -1 1488.66 67.0971 7
4 -2 1 1568.62 64.5066 3
4 -2 1 1407.32 64.3317 3
4 -2 1 1533.32 71.6912 9
-4 -2 -1 1393.00 63.2954 13
-4 -2 -1 1411.67 65.4195 2
4 -2 1 1418.37 67.3747 7
-4 -2 -1 1493.87 64.8352 3
-4 -2 -1 1375.21 64.5913 3
-4 -2 -1 1450.20 58.7780 5
4 2 1 1373.88 64.6930 3
-4 2 -1 1462.17 64.3977 3
4 2 1 1542.52 63.4669 13
4 2 1 1424.81 65.5050 2
4 2 1 1539.73 64.7739 3
4 2 1 1387.43 64.8713 8
-4 2 -1 1592.85 82.0886 4
-4 2 -1 1444.80 64.3435 3
-4 2 -1 1598.42 71.6171 9
-4 2 -1 1467.35 58.3414 10
-4 2 -1 1568.40 63.9611 11
-4 2 -1 1359.49 63.2112 13
4 2 1 1515.91 62.2621 12
-5 -2 -1 294.425 14.1053 7
5 -2 1 282.946 14.5349 7
5 -2 1 306.054 13.8119 3
-5 -2 -1 298.482 13.8847 3
-5 -2 -1 298.832 17.7815 4
-5 -2 -1 288.391 14.1485 11
5 -2 1 310.271 13.6292 13
5 -2 1 292.924 13.6156 11
5 -2 1 275.366 14.9136 9
5 -2 1 295.130 13.6194 3
-5 -2 -1 305.237 12.3243 5
-5 -2 -1 294.948 14.8556 6
-5 -2 -1 299.686 13.3769 12
-5 2 -1 300.364 13.5345 11
5 2 1 295.945 13.8160 13
5 2 1 261.638 14.9654 9
5 2 1 280.722 14.2105 8
-5 2 -1 297.483 13.6327 3
5 2 1 285.650 13.9611 2
5 2 1 295.665 14.0032 3
-5 2 -1 285.348 14.7775 9
-5 2 -1 284.916 17.5071 4
6 -2 1 1178.85 50.1044 3
6 -2 1 1143.15 49.2874 13
-6 -2 -1 1198.11 45.4544 5
-6 -2 -1 1127.77 48.4617 12
-6 -2 -1 1119.81 50.1192 3
6 -2 1 1140.89 49.9339 3
6 -2 1 1034.85 55.2153 9
6 -2 1 1128.24 52.3850 7
-6 -2 -1 1133.15 50.1963 11
-6 -2 -1 1128.16 63.7482 4
-6 -2 -1 1183.74 54.1256 6
6 2 1 1040.41 50.4284 8
-6 2 -1 1092.32 63.5081 4
-6 2 -1 1151.80 55.1997 9
-6 2 -1 1183.47 49.6845 11
-6 2 -1 1155.25 49.9096 3
6 2 1 1101.04 50.2131 3
6 2 1 1152.14 49.3761 13
6 2 1 1164.07 50.6826 2
-7 -2 -1 5.88839 2.01499 5
7 -2 1 -0.6655 2.90834 3
-7 -2 -1 1.96845 3.44971 11
7 -2 1 -0.9734 3.05648 3
-7 -2 -1 8.41699 3.62424 12
-7 -2 -1 6.90333 3.74028 4
-7 -2 -1 3.17866 2.00215 6
7 -2 1 1.65748 2.77393 9
7 -2 1 5.11042 3.20309 7
7 -2 1 -1.0030 3.41342 13
-7 -2 -1 1.06391 2.61966 3
7 2 1 6.34729 2.42292 2
-7 2 -1 2.94218 2.79266 11
7 2 1 7.25699 3.59689 8
7 2 1 3.06213 2.90843 3
-7 2 -1 7.17044 2.61547 9
-7 2 -1 3.65819 2.99002 3
7 2 1 1.80942 3.44886 13
-8 -2 -1 6.51025 4.55364 12
-8 -2 -1 8.60462 2.91409 6
-8 -2 -1 7.24361 3.90803 3
8 -2 1 7.73522 4.02979 7
-8 -2 -1 6.61272 2.80534 5
-8 -2 -1 7.61856 4.92800 4
-8 -2 -1 1.71700 4.37091 11
8 -2 1 7.91286 4.58515 13
8 -2 1 5.86136 3.93841 3
-8 2 -1 13.2137 4.20215 3
8 2 1 10.2242 3.94842 3
8 2 1 12.3636 4.73460 8
-8 2 -1 4.69207 4.04691 11
-8 2 -1 3.29808 3.43847 4
8 2 1 3.11678 3.30948 2
-8 2 -1 12.1152 4.27659 9
8 2 1 10.4313 4.41231 13
9 -2 1 27.9164 5.74631 7
-9 -2 -1 13.0348 5.79076 12
-9 -2 -1 26.0254 5.16301 3
-9 -2 -1 20.1788 4.21253 6
-9 -2 -1 24.2747 6.10186 11
9 -2 1 23.7067 5.15940 3
-9 -2 -1 28.5283 4.56792 5
9 -2 1 30.5022 6.14536 8
9 2 1 23.6510 4.45330 2
-9 2 -1 24.1832 6.02216 11
-9 2 -1 23.6274 5.91874 9
9 2 1 16.3560 5.16465 3
-9 2 -1 37.3703 5.80825 3
9 2 1 35.4509 6.21713 13
10 -2 1 12.0283 6.97817 7
10 -2 1 3.14296 6.15735 3
-10 -2 -1 1.05635 7.00711 11
-10 -2 -1 6.03969 6.98244 12
-10 -2 -1 19.3187 6.19884 5
10 -2 1 20.4825 6.91426 13
-10 -2 -1 -1.8773 4.57830 6
-10 -2 -1 -0.4450 6.91423 4
10 -2 1 -1.3755 6.48544 8
-10 -2 -1 11.1597 5.96033 3
-10 2 -1 13.4047 6.70899 4
-10 2 -1 10.6709 7.13925 11
10 2 1 4.59057 5.27074 2
10 2 1 4.36854 7.18275 8
-10 2 -1 5.59488 6.29807 3
-10 2 -1 5.56738 6.58013 9
10 2 1 14.7498 6.02008 3
-10 2 -1 2.57152 6.83902 12
10 2 1 12.2791 7.16772 13
11 -2 1 31.9836 7.95705 3
-11 -2 -1 38.5482 9.71889 11
-11 -2 -1 42.4689 7.74255 6
-11 -2 -1 51.1521 7.91087 5
-11 -2 -1 41.8259 9.98026 12
-11 -2 -1 51.4666 8.95488 3
11 -2 1 62.6263 11.2277 7
-11 -2 -1 33.8465 9.54024 4
-11 2 -1 41.1093 10.2061 11
11 2 1 42.2810 7.12501 2
11 2 1 60.9716 10.5031 8
-11 2 -1 42.5372 9.53823 12
11 2 1 59.5381 10.3426 13
11 2 1 74.5335 10.8195 3
-11 2 -1 34.8320 9.43173 4
-11 2 -1 54.1392 8.38266 3
11 -3 -1 0.40175 8.30397 13
11 -3 -1 -8.7886 8.98029 7
-11 -3 1 5.78797 7.72824 3
-11 -3 1 -4.6237 8.43100 12
-11 -3 1 8.81305 8.91272 11
-11 -3 1 13.4660 8.37553 5
11 -3 -1 -11.248 7.17573 3
-11 -3 1 -13.742 9.39550 4
-11 3 1 -1.8779 8.52126 9
-11 3 1 -1.3846 8.11073 3
11 3 -1 9.19369 8.17862 3
11 3 -1 4.56204 8.89330 13
-11 3 1 -6.1949 8.44535 11
11 3 -1 -5.6367 8.79249 8
10 -3 -1 1.23318 6.61576 13
-10 -3 1 0.52328 5.25110 3
-10 -3 1 0.26481 6.36631 11
-10 -3 1 -0.7982 6.23023 5
10 -3 -1 6.46060 7.58729 7
10 3 -1 -6.4256 6.46612 8
-10 3 1 3.77842 6.74614 3
-10 3 1 -1.0584 7.26735 11
10 3 -1 -1.4581 5.30640 2
10 3 -1 7.39609 5.93945 3
-10 3 1 -6.6035 6.52234 9
10 3 -1 -6.6741 7.11035 13
9 -3 -1 25.5792 5.68307 3
-9 -3 1 31.4426 5.47453 3
-9 -3 1 33.5789 5.49182 5
9 -3 -1 37.7804 6.44393 7
9 3 -1 33.2238 5.86046 3
-9 3 1 31.4769 6.20778 3
9 3 -1 28.7688 6.25833 13
-9 3 1 30.5483 6.35952 9
-9 3 1 36.4139 6.59146 11
9 3 -1 44.2378 6.03348 2
-8 -3 1 3.89541 5.25980 4
8 -3 -1 6.96402 4.30569 13
8 -3 -1 -2.2342 3.60422 3
-8 -3 1 6.74487 3.53134 3
-8 -3 1 2.79661 3.65218 5
8 -3 -1 11.5967 4.32598 7
-8 3 1 7.65174 4.65036 11
8 3 -1 3.20910 4.02204 13
-8 3 1 -1.2053 4.08614 9
8 3 -1 10.0022 4.23607 3
-8 3 1 1.11331 4.23484 3
8 3 -1 0.39855 3.56196 2
7 -3 -1 385.235 19.6309 7
-7 -3 1 389.419 23.6678 4
7 -3 -1 348.341 18.3075 3
7 -3 -1 390.577 18.8197 3
7 -3 -1 386.966 18.3099 13
-7 -3 1 385.218 18.4931 3
-7 -3 1 399.803 17.1728 5
-7 -3 1 359.301 18.8851 11
7 3 -1 402.049 18.7220 2
-7 3 1 382.292 18.5855 3
-7 3 1 425.523 23.8668 4
7 3 -1 408.405 18.5390 13
7 3 -1 378.159 18.8040 3
-7 3 1 386.142 20.5258 9
-7 3 1 392.762 18.5686 11
-6 -3 1 29.4446 3.90162 5
-6 -3 1 27.5115 3.80684 3
6 -3 -1 23.3526 3.99432 7
6 -3 -1 30.6631 3.94203 3
-6 -3 1 27.5972 4.46726 11
6 -3 -1 24.6079 3.79909 13
6 -3 -1 24.5181 3.30068 3
-6 -3 1 29.7830 5.47121 4
6 3 -1 28.2991 3.69475 2
-6 3 1 30.7341 4.29018 11
-6 3 1 37.0649 5.71349 4
6 3 -1 24.3838 3.64766 13
-6 3 1 20.8622 3.62918 9
-6 3 1 27.4594 4.15539 3
6 3 -1 32.6128 4.53652 3
-5 -3 1 899.510 39.6782 11
5 -3 -1 955.000 39.7030 3
-5 -3 1 781.735 36.2406 5
5 -3 -1 857.781 39.3848 3
-5 -3 1 936.057 39.8661 3
5 -3 -1 750.905 41.2716 7
-5 -3 1 893.223 50.3324 4
5 -3 -1 856.145 39.2985 11
-5 -3 1 898.083 39.5571 3
5 -3 -1 958.545 38.6979 13
-5 3 1 925.329 39.6045 3
5 3 -1 864.005 40.1762 2
5 3 -1 951.244 39.7341 3
5 3 -1 955.352 38.9617 13
-5 3 1 897.533 44.0709 9
-5 3 1 938.499 39.2682 11
-5 3 1 926.264 50.3459 4
-5 3 1 845.751 38.5555 13
4 -3 -1 272.374 11.2735 10
4 -3 -1 286.577 12.8258 3
4 -3 -1 287.151 12.6904 11
-4 -3 1 280.450 11.7841 5
-4 -3 1 278.353 12.8621 3
4 -3 -1 264.854 12.5035 3
4 -3 -1 275.968 14.3585 9
-4 -3 1 266.861 16.1831 4
-4 -3 1 277.097 12.6218 3
-4 -3 1 250.042 12.2490 13
-4 -3 1 283.009 12.8064 11
4 -3 -1 277.973 12.1352 13
4 -3 -1 274.446 13.6035 7
-4 3 1 280.963 12.1328 13
4 3 -1 278.656 12.7090 3
4 3 -1 254.485 16.1445 4
4 3 -1 272.097 12.3749 13
-4 3 1 267.978 12.6517 3
-4 3 1 277.317 14.1169 9
-4 3 1 275.880 12.4750 11
-4 3 1 225.411 16.1177 4
4 3 -1 226.212 12.8246 2
-3 -3 1 83.6283 4.45193 13
-3 -3 1 80.8313 4.60302 3
-3 -3 1 91.5695 4.84464 11
3 -3 -1 86.4776 5.60311 9
3 -3 -1 89.4722 4.72279 3
-3 -3 1 81.2213 4.95988 2
-3 -3 1 94.6561 6.30765 4
-3 -3 1 87.6182 4.47179 5
3 -3 -1 90.2925 4.88278 3
3 -3 -1 77.6709 5.03064 7
-3 -3 1 100.985 5.04791 3
3 -3 -1 90.6143 4.85632 11
3 -3 -1 88.4921 4.24351 10
3 3 -1 79.7202 4.90564 2
-3 3 1 87.4127 4.77897 3
3 3 -1 74.3041 4.58289 11
3 3 -1 92.5974 4.81062 3
3 3 -1 95.6883 6.33266 4
-3 3 1 83.6301 4.74872 12
-3 3 1 91.2840 5.41959 9
-3 3 1 88.3715 5.50828 7
3 3 -1 76.7775 4.82326 3
-3 3 1 81.2641 4.62579 11
3 3 -1 83.4148 4.42680 13
-3 3 1 95.9393 4.89489 3
2 -3 -1 246.909 11.0162 11
-2 -3 1 235.197 14.2495 4
2 -3 -1 237.650 10.9947 3
-2 -3 1 254.094 11.0361 11
2 -3 -1 237.726 12.5838 9
-2 -3 1 235.013 10.6394 13
-2 -3 1 226.870 11.0075 3
-2 -3 1 250.013 11.3823 2
2 -3 -1 253.784 11.8184 7
2 -3 -1 253.107 11.0269 2
-2 -3 1 242.735 10.3247 5
-2 -3 1 252.498 10.9410 3
2 -3 -1 230.689 11.0851 3
2 3 -1 215.444 14.0657 4
-2 3 1 245.178 11.0035 2
-2 3 1 230.561 11.1127 3
-2 3 1 230.409 12.4659 9
2 3 -1 234.386 10.9560 3
-2 3 1 229.719 10.7365 12
2 3 -1 244.057 12.0900 6
-2 3 1 247.410 11.8324 7
2 3 -1 246.975 10.6467 13
-2 3 1 227.777 10.9938 3
2 3 -1 240.118 10.2786 5
2 3 -1 236.991 10.9157 11
2 3 -1 238.568 10.9822 3
-2 3 1 242.974 10.3060 5
2 3 -1 223.057 10.5101 1
-2 3 1 249.981 10.9675 11
2 3 -1 241.509 11.3714 2
1 -3 -1 30.799 3.39854 12
1 -3 -1 40.043 4.78655 9
1 -3 -1 38.465 3.75226 3
1 -3 -1 41.209 3.74698 3
-1 -3 1 32.431 3.27559 5
-1 -3 1 39.584 3.84883 2
-1 -3 1 38.438 3.43767 1
1 -3 -1 44.448 3.73075 2
1 -3 -1 32.809 4.10487 7
-1 -3 1 42.731 3.51041 11
-1 3 1 33.919 3.26484 5
1 3 -1 39.454 3.51925 1
1 3 -1 37.121 3.41029 11
-1 3 1 46.467 3.65621 11
-1 3 1 35.694 3.79468 3
1 3 -1 27.296 4.17580 6
1 3 -1 39.295 3.30610 5
1 3 -1 32.995 3.84120 2
-1 3 1 38.484 4.72423 9
-1 3 1 25.836 4.07132 7
-1 3 1 38.765 3.68054 3
-1 3 1 46.196 3.75192 2
-1 3 1 37.066 3.64279 11
-1 3 1 37.040 3.48643 12
1 3 -1 35.491 4.71210 4
0 -3 -1 707.276 32.1090 2
0 -3 -1 725.961 29.0835 5
0 -3 -1 753.837 31.7966 3
0 -3 -1 681.933 34.0192 6
0 -3 -1 775.324 31.6129 11
0 -3 -1 707.505 31.7315 3
0 -3 1 718.055 32.8401 7
0 -3 -1 724.081 35.5390 9
0 -3 1 758.041 29.9665 1
0 -3 1 686.204 29.0913 5
0 -3 1 705.120 32.0510 2
0 -3 -1 746.020 33.1052 7
0 3 1 705.284 31.5339 11
0 3 1 669.508 34.0359 6
0 3 1 698.931 29.0558 5
0 3 -1 686.558 32.0492 2
0 3 1 732.721 40.4739 4
0 3 1 778.109 31.8642 3
0 3 -1 747.818 32.8867 7
0 3 -1 711.320 35.4597 9
0 3 1 726.580 32.1704 2
0 3 1 729.055 31.7395 3
0 3 -1 675.345 29.0623 5
0 3 1 747.775 31.5358 11
0 3 1 711.975 35.5372 9
0 3 1 753.562 33.1039 7
0 3 -1 714.696 34.1059 6
-1 -3 -1 69.3950 3.60804 5
-1 -3 -1 72.0612 4.29683 6
-1 -3 -1 69.0628 4.17345 2
-1 -3 -1 73.1245 4.04196 3
-1 -3 -1 77.8848 4.23447 3
1 -3 1 67.1472 3.63881 5
1 -3 1 75.5492 4.01975 7
-1 -3 -1 69.2976 4.07571 7
-1 -3 -1 72.7061 4.03869 11
-1 -3 -1 72.4845 5.43534 4
1 3 1 72.8524 3.86111 8
1 3 1 71.3941 4.59875 9
1 3 1 73.9472 4.12407 3
1 3 1 70.1864 4.08226 3
1 3 1 69.5488 4.26248 6
-1 3 -1 72.2501 3.83047 2
-1 3 -1 71.4869 4.10920 7
1 3 1 73.7061 4.16273 2
-1 3 -1 74.0277 3.74183 5
1 3 1 71.3083 3.95789 11
1 3 1 73.6262 3.70920 5
-1 3 -1 68.2010 4.46181 9
1 3 1 66.6329 5.33201 4
-2 -3 -1 141.654 7.36209 2
-2 -3 -1 142.989 9.40791 4
-2 -3 -1 144.930 7.17353 3
-2 -3 -1 152.756 7.43049 7
2 -3 1 135.891 6.48294 10
-2 -3 -1 142.066 6.43746 5
-2 -3 -1 150.752 6.68837 13
-2 -3 -1 146.887 7.26899 11
2 -3 1 146.790 7.46417 7
-2 -3 -1 144.205 7.75067 6
2 -3 1 151.276 8.08287 9
2 3 1 141.026 7.22894 3
2 3 1 142.812 8.05712 9
2 3 1 145.747 6.70859 13
2 3 1 141.045 7.79196 6
2 3 1 134.354 9.29723 4
2 3 1 146.342 7.17713 11
-2 3 -1 129.519 8.94666 4
2 3 1 147.673 7.36966 3
2 3 1 151.232 7.21149 8
-2 3 -1 150.758 6.83253 2
2 3 1 151.990 6.52845 5
-2 3 -1 144.343 7.92717 9
-2 3 -1 143.872 6.62033 13
-2 3 -1 144.920 6.58925 5
-2 3 -1 149.774 7.56375 7
2 3 1 147.270 7.40499 2
-3 -3 -1 78.0739 4.70555 3
3 -3 1 83.5438 5.39502 9
-3 -3 -1 85.6576 4.92212 11
-3 -3 -1 88.5704 6.46825 4
-3 -3 -1 78.7623 5.19775 6
3 -3 1 84.6775 4.99226 7
-3 -3 -1 80.4814 5.13636 3
-3 -3 -1 84.7288 4.36405 13
3 -3 1 85.3698 4.41330 10
-3 -3 -1 82.7236 4.16760 5
3 3 1 85.1037 4.83214 3
-3 3 -1 83.1517 6.13437 4
3 3 1 79.7885 5.01389 3
3 3 1 86.6999 4.45898 13
-3 3 -1 83.6683 4.39463 5
-3 3 -1 82.1606 4.26689 13
-3 3 -1 80.5132 5.08983 7
-3 3 -1 86.0358 5.06210 9
3 3 1 83.4320 4.88783 11
3 3 1 87.0306 4.85138 8
3 3 1 79.5571 4.15221 5
3 3 1 84.2365 5.00684 2
4 -3 1 31.0186 2.54655 3
-4 -3 -1 20.1153 2.56150 13
-4 -3 -1 26.2297 4.11770 4
-4 -3 -1 25.6760 2.97569 3
-4 -3 -1 25.5645 2.13125 5
4 -3 1 27.1004 2.69074 11
-4 -3 -1 28.4162 3.59280 3
4 -3 1 24.0999 3.39854 9
4 -3 1 30.6507 2.73006 3
4 -3 1 26.4345 2.70665 10
-4 -3 -1 23.7022 3.72586 11
-4 -3 -1 24.8344 2.85044 6
4 -3 1 24.1049 3.55879 7
-4 3 -1 25.1369 4.45543 4
4 3 1 25.2980 2.94960 2
-4 3 -1 26.4770 2.53817 5
4 3 1 30.2951 2.74023 13
-4 3 -1 27.8197 2.28270 11
-4 3 -1 28.8323 2.53444 3
4 3 1 22.7942 3.69420 8
-4 3 -1 24.4481 2.42705 13
4 3 1 28.6892 3.16991 3
-4 3 -1 33.0374 3.05589 9
-4 3 -1 30.0372 2.85327 3
-5 -3 -1 456.227 20.5492 3
-5 -3 -1 451.580 18.4243 5
5 -3 1 447.127 20.0586 11
-5 -3 -1 433.287 20.8311 11
5 -3 1 453.427 20.1030 3
-5 -3 -1 477.171 22.2758 6
5 -3 1 468.362 20.3186 3
-5 -3 -1 443.170 20.9867 7
5 -3 1 437.015 21.5459 7
-5 -3 -1 423.574 26.1348 4
-5 -3 -1 436.633 19.7184 12
5 -3 1 432.508 22.5438 9
5 3 1 445.448 20.8176 2
-5 3 -1 456.839 19.9235 11
5 3 1 451.000 20.2061 13
-5 3 -1 406.873 26.0171 4
5 3 1 451.766 20.7132 3
-5 3 -1 428.942 22.3248 9
-5 3 -1 448.598 20.1390 3
5 3 1 445.173 20.9532 8
-6 -3 -1 41.0593 5.40482 11
-6 -3 -1 48.4629 4.50701 3
6 -3 1 51.8698 5.15548 7
-6 -3 -1 42.6515 4.09031 6
-6 -3 -1 48.8435 6.41925 4
-6 -3 -1 51.2268 3.44882 5
6 -3 1 43.1866 4.65529 3
-6 -3 -1 48.0404 5.64795 12
6 -3 1 40.4001 5.41385 9
6 -3 1 39.2357 4.48854 3
6 -3 1 37.7462 5.03278 11
6 3 1 45.7988 5.04857 3
6 3 1 38.2341 4.99954 13
-6 3 -1 49.8785 4.03307 11
6 3 1 41.7793 4.03281 2
-6 3 -1 38.2496 4.21175 3
6 3 1 38.9896 5.22118 8
-6 3 -1 56.4816 4.47483 9
-7 -3 -1 113.585 7.48731 6
7 -3 1 109.479 8.50675 7
-7 -3 -1 115.293 7.58530 3
7 -3 1 116.895 7.90130 3
-7 -3 -1 99.5250 10.0536 4
-7 -3 -1 126.680 6.45808 5
7 -3 1 119.624 7.85950 3
-7 -3 -1 120.173 8.48360 12
-7 3 -1 120.367 8.12524 9
-7 3 -1 100.535 9.72455 4
-7 3 -1 112.597 7.35941 3
7 3 1 119.000 8.14419 13
7 3 1 113.866 8.05466 3
-7 3 -1 119.027 7.73595 11
7 3 1 123.449 7.40519 2
-8 -3 -1 267.181 12.7437 5
-8 -3 -1 268.353 14.6887 12
8 -3 1 260.445 15.1297 7
-8 -3 -1 276.299 14.8742 6
8 -3 1 260.150 14.1064 3
-8 -3 -1 257.472 14.0618 3
-8 3 -1 249.733 13.9224 3
-8 3 -1 270.093 14.0969 11
-8 3 -1 273.161 15.5977 9
8 3 1 285.166 14.6322 3
8 3 1 270.364 14.5812 13
8 3 1 264.417 14.0714 2
-9 -3 -1 26.0887 5.77376 3
-9 -3 -1 21.2571 6.39233 12
-9 -3 -1 24.0036 4.57691 6
9 -3 1 19.0715 5.41201 3
-9 -3 -1 20.0681 5.19702 5
9 -3 1 24.2292 6.20218 7
-9 3 -1 26.7025 5.98918 3
9 3 1 34.6603 6.41926 3
9 3 1 33.4161 6.84132 13
-9 3 -1 22.2063 6.05696 9
9 3 1 26.1849 6.92970 8
9 3 1 13.4616 5.13384 2
-9 3 -1 22.5645 6.48177 11
-10 -3 -1 1.66943 5.07945 6
-10 -3 -1 4.50756 5.64667 5
-10 -3 -1 -7.8123 7.61972 4
10 -3 1 4.22139 7.22012 7
-10 -3 -1 11.1976 7.29166 12
10 -3 1 2.11259 6.15639 3
-10 -3 -1 0.51477 7.55256 11
-10 -3 -1 16.3398 6.56900 3
-10 3 -1 -7.5670 6.27130 4
-10 3 -1 -8.0035 6.41716 3
-10 3 -1 12.3663 7.90429 11
10 3 1 7.09606 8.00729 13
10 3 1 -2.0787 5.85902 2
10 3 1 14.1040 7.60856 8
10 3 1 1.08391 6.51501 3
-10 3 -1 3.25263 7.39077 12
-10 3 -1 1.28782 6.96364 9
-10 -4 1 14.3828 6.57216 3
-10 -4 1 8.58720 9.34703 4
-10 -4 1 7.86652 7.29901 11
10 -4 -1 10.1384 6.53342 3
10 -4 -1 19.7903 7.97954 13
-10 -4 1 11.3989 7.38018 5
10 -4 -1 23.6197 8.07216 7
10 4 -1 13.1768 6.20989 2
-10 4 1 11.3445 8.18345 9
10 4 -1 10.8580 8.16915 13
10 4 -1 5.07479 7.04830 8
-10 4 1 8.27242 7.65792 3
10 4 -1 13.3324 7.21933 3
-10 4 1 17.5560 8.11893 11
-9 -4 1 3.83991 5.37971 5
-9 -4 1 1.98758 6.06236 11
-9 -4 1 5.24379 4.81864 3
9 -4 -1 1.99074 5.78701 7
9 -4 -1 -0.9932 5.39356 3
9 -4 -1 4.66581 6.16587 13
-9 4 1 1.07185 6.22908 3
9 4 -1 12.9855 5.73125 3
9 4 -1 -5.1820 5.89671 13
-9 4 1 3.11935 6.06431 11
-8 -4 1 287.378 15.5347 3
8 -4 -1 306.763 17.0651 7
-8 -4 1 312.676 14.8660 5
-8 -4 1 285.631 20.6391 4
8 -4 -1 293.497 15.8757 3
8 -4 -1 301.632 15.6397 13
-8 4 1 339.344 17.8275 9
8 4 -1 310.099 15.8994 2
-8 4 1 308.239 15.9871 11
8 4 -1 322.118 16.0733 13
8 4 -1 280.654 16.1701 3
-8 4 1 284.271 16.0465 3
7 -4 -1 85.4232 7.28170 3
-7 -4 1 120.163 10.1732 4
-7 -4 1 106.690 8.52982 11
-7 -4 1 103.065 7.19844 3
7 -4 -1 101.419 8.35826 7
7 -4 -1 111.572 7.69224 3
7 -4 -1 93.7206 7.55196 13
-7 -4 1 97.5506 7.08943 5
7 4 -1 91.9159 7.05190 2
-7 4 1 98.7347 7.46231 3
-7 4 1 98.6706 8.98871 9
7 4 -1 100.277 7.73483 13
7 4 -1 107.282 8.10186 3
-7 4 1 101.039 7.69535 11
6 -4 -1 312.258 14.7179 3
-6 -4 1 302.851 18.6468 4
-6 -4 1 305.035 13.6086 5
-6 -4 1 298.782 15.1074 11
6 -4 -1 274.562 14.2630 3
-6 -4 1 283.065 14.4090 3
6 -4 -1 302.096 14.2404 13
6 -4 -1 253.836 15.2289 7
-6 4 1 300.430 14.5383 11
6 4 -1 292.973 14.7906 2
-6 4 1 311.995 16.5888 9
-6 4 1 289.251 14.5277 3
6 4 -1 300.655 14.8520 3
-6 4 1 301.824 19.0782 4
6 4 -1 301.295 14.4295 13
-5 -4 1 40.4837 3.95937 5
-5 -4 1 47.0750 5.93185 4
5 -4 -1 47.2551 4.47379 7
5 -4 -1 54.2137 4.32286 3
-5 -4 1 44.0359 4.02720 3
-5 -4 1 38.9572 4.94460 3
-5 -4 1 40.2307 5.01628 11
5 -4 -1 44.7942 4.25740 10
5 -4 -1 44.8694 3.62517 13
5 -4 -1 52.3982 4.70348 3
5 4 -1 48.7699 4.28774 13
5 4 -1 42.0032 4.34048 3
-5 4 1 41.5699 3.76613 13
-5 4 1 39.7881 6.53160 4
-5 4 1 38.8703 4.24944 3
-5 4 1 43.6072 4.00449 11
5 4 -1 49.7441 4.02168 2
-5 4 1 40.6686 5.40251 9
4 -4 -1 82.8765 4.58029 10
-4 -4 1 75.3117 5.61269 11
4 -4 -1 81.3436 4.91645 3
4 -4 -1 82.4533 5.35373 3
-4 -4 1 81.4513 4.89684 3
-4 -4 1 70.6543 4.64354 13
4 -4 -1 90.8062 5.34010 11
4 -4 -1 80.9676 5.86315 7
-4 -4 1 70.7819 5.50275 3
-4 -4 1 88.8584 5.06694 5
-4 -4 1 78.6892 7.07264 4
-4 4 1 73.6609 6.17940 9
-4 4 1 79.8726 5.21163 3
-4 4 1 88.3373 4.94414 11
4 4 -1 77.1208 5.09626 2
4 4 -1 81.9678 4.75769 13
4 4 -1 80.0045 5.10005 3
-4 4 1 81.1206 7.00418 4
3 -4 -1 62.4961 3.99699 3
-3 -4 1 54.2026 3.87120 3
-3 -4 1 67.2937 4.20862 11
3 -4 -1 63.6881 3.77457 10
-3 -4 1 54.4003 3.53143 13
3 -4 -1 59.3629 4.18685 11
3 -4 -1 56.7258 3.68735 2
3 -4 -1 68.0700 4.28030 3
-3 -4 1 54.7399 4.01323 5
3 -4 -1 50.0523 4.54165 7
-3 -4 1 69.2237 6.21140 4
-3 -4 1 61.8328 4.35156 3
-3 4 1 58.9218 3.83792 11
-3 4 1 69.1204 5.39581 9
3 4 -1 51.2220 4.04313 2
3 4 -1 59.0433 3.55686 13
-3 4 1 64.9213 3.77164 2
3 4 -1 63.7071 4.11895 3
-3 4 1 67.2416 4.25196 3
3 4 -1 52.9704 3.88499 11
-2 -4 1 124.690 6.11773 3
2 -4 -1 114.552 6.02015 3
2 -4 -1 120.069 6.28247 3
-2 -4 1 125.457 6.14109 11
-2 -4 1 108.484 5.86294 3
2 -4 -1 120.441 6.21011 11
2 -4 -1 112.521 6.65168 7
2 -4 -1 111.107 6.03063 2
-2 4 1 115.729 5.91668 11
-2 4 1 124.086 6.14602 12
-2 4 1 114.557 6.03391 11
2 4 -1 111.582 5.90777 11
2 4 -1 108.306 6.00712 3
2 4 -1 120.530 5.99997 3
-2 4 1 121.514 6.04957 2
-2 4 1 121.337 7.23555 9
-2 4 1 122.291 6.29864 3
-2 4 1 105.672 6.06118 3
2 4 -1 116.716 6.19544 1
2 4 -1 100.482 8.11467 4
1 -4 -1 834.393 36.1287 12
-1 -4 1 859.191 38.1757 2
1 -4 -1 860.134 37.5954 3
-1 -4 1 867.584 35.4687 1
1 -4 -1 873.577 37.6116 3
1 -4 -1 871.275 39.3215 7
1 -4 -1 876.487 38.0461 2
-1 -4 1 827.339 34.6089 5
1 -4 -1 870.115 40.2170 6
-1 -4 1 887.960 37.1769 11
-1 4 1 848.715 37.6352 3
-1 4 1 833.122 39.2675 7
1 4 -1 865.940 38.2263 2
-1 4 1 858.104 38.0416 2
-1 4 1 828.253 40.2225 6
1 4 -1 829.078 47.9038 4
-1 4 1 852.768 37.2713 11
-1 4 1 819.900 37.4913 3
1 4 -1 861.358 37.0614 11
-1 4 1 899.091 37.3678 11
1 4 -1 814.049 40.5221 6
-1 4 1 838.347 42.2072 9
0 -4 1 101.468 5.22656 1
0 -4 -1 97.0995 5.56121 6
0 -4 1 102.006 5.39708 7
0 -4 1 93.2300 5.01698 5
0 -4 -1 103.187 5.38757 3
0 -4 -1 108.023 5.41211 11
0 -4 -1 98.9965 4.94779 5
0 -4 1 82.3128 5.43826 2
0 -4 -1 98.8451 5.34686 3
0 -4 -1 98.2744 5.57496 2
0 -4 -1 106.379 5.02456 1
0 -4 -1 94.0717 5.59082 7
0 4 1 94.0117 5.55741 6
0 4 1 97.7287 5.24523 11
0 4 -1 98.2297 6.25928 9
0 4 1 96.1648 5.62377 7
0 4 1 94.4331 5.35074 3
0 4 1 96.2093 5.29152 5
0 4 1 103.674 5.47936 3
0 4 1 98.3334 6.22908 9
0 4 -1 81.3648 5.36849 2
0 4 -1 105.379 5.45655 7
0 4 1 99.1268 5.32146 11
0 4 1 100.596 5.53490 2
-1 -4 -1 24.9294 2.75478 7
1 -4 1 17.1105 2.56824 1
-1 -4 -1 17.8550 2.31238 11
1 -4 1 13.0085 2.17058 2
-1 -4 -1 15.6680 2.58969 3
1 -4 1 18.5248 2.16090 5
-1 -4 -1 18.4555 2.02102 5
1 -4 1 17.7735 2.05933 7
-1 -4 -1 20.4133 2.46633 6
-1 -4 -1 21.5683 2.52216 3
1 4 1 19.1004 2.57890 3
1 4 1 17.4122 2.25490 11
1 4 1 26.4719 2.83467 7
-1 4 -1 17.9833 2.70934 9
-1 4 -1 17.6293 2.13196 2
1 4 1 23.1580 2.56171 2
-1 4 -1 16.5109 2.71718 7
1 4 1 18.3589 3.07532 9
-1 4 -1 20.2100 2.22505 6
1 4 1 16.4863 2.72749 3
1 4 1 21.5093 2.33754 5
1 4 1 21.3826 2.64019 6
-2 -4 -1 330.615 13.9495 5
-2 -4 -1 308.405 15.3645 3
-2 -4 -1 326.747 15.2218 11
-2 -4 -1 320.961 19.6582 4
-2 -4 -1 336.902 16.4390 6
-2 -4 -1 333.496 15.1997 3
-2 -4 -1 318.928 15.5707 7
2 -4 1 345.736 15.8579 7
-2 4 -1 317.443 16.9359 9
2 4 1 325.996 17.3279 9
-2 4 -1 337.788 14.9758 2
-2 4 -1 327.671 15.8890 7
2 4 1 308.700 14.0192 1
2 4 1 332.301 13.9436 5
2 4 1 312.293 15.1957 3
2 4 1 314.414 15.0941 11
2 4 1 322.789 15.5166 2
2 4 1 364.129 15.2802 8
-3 -4 -1 96.1218 4.86468 5
-3 -4 -1 93.0157 7.40272 4
-3 -4 -1 92.9717 5.40270 3
-3 -4 -1 91.7813 5.43507 7
3 -4 1 91.1378 6.69166 9
3 -4 1 92.5798 5.90593 7
3 -4 1 96.3590 5.49957 10
-3 -4 -1 88.2638 4.75326 13
-3 -4 -1 89.6305 6.09128 11
-3 -4 -1 98.6394 5.82069 6
3 4 1 94.3230 4.92901 13
3 4 1 91.1055 5.51954 3
3 4 1 85.9312 5.22549 1
-3 4 -1 91.9572 7.28195 4
3 4 1 87.0112 5.84537 8
-3 4 -1 98.0804 6.13674 9
3 4 1 94.7082 5.64329 2
3 4 1 95.1067 6.69059 9
3 4 1 97.1400 5.09567 5
-4 -4 -1 83.1927 5.13808 13
-4 -4 -1 89.7253 5.80894 3
4 -4 1 103.286 5.58320 10
-4 -4 -1 104.048 6.53551 3
4 -4 1 88.9017 6.44818 7
-4 -4 -1 94.2929 5.07181 5
-4 -4 -1 110.795 5.92599 7
-4 -4 -1 89.1566 5.97358 6
-4 -4 -1 108.240 7.84634 4
-4 -4 -1 107.952 6.61879 11
-4 4 -1 105.907 6.32460 9
4 4 1 90.6812 5.89492 2
4 4 1 99.8998 5.52348 13
4 4 1 81.8344 6.34904 8
-4 4 -1 82.8637 5.06959 13
4 4 1 107.357 6.16296 3
-4 4 -1 98.1560 8.09178 4
-5 -4 -1 19.5447 2.90725 6
-5 -4 -1 12.9741 3.67729 4
5 -4 1 16.7545 2.92570 10
-5 -4 -1 17.3557 3.01069 5
5 -4 1 17.8243 3.02993 3
-5 -4 -1 16.0637 3.70397 11
5 -4 1 20.3071 3.06146 3
5 -4 1 15.3967 3.56554 7
-5 -4 -1 17.7603 2.97662 3
5 4 1 17.9408 3.59024 3
-5 4 -1 14.7364 3.06776 9
5 4 1 14.4953 3.26506 13
-5 4 -1 18.7600 4.18179 4
5 4 1 15.9055 2.96121 2
5 4 1 11.9305 3.27758 8
-6 -4 -1 475.202 27.4357 4
6 -4 1 465.955 20.9000 3
6 -4 1 424.752 22.2355 7
6 -4 1 403.798 20.4793 11
6 -4 1 429.851 20.6009 3
-6 -4 -1 462.336 22.8413 6
-6 -4 -1 448.720 19.1630 5
-6 -4 -1 447.111 21.7816 11
-6 -4 -1 469.657 21.2568 3
-6 4 -1 432.358 20.7023 3
-6 4 -1 426.235 27.0729 4
6 4 1 424.505 21.7235 8
-6 4 -1 467.446 23.4249 9
-6 4 -1 482.799 20.4462 11
6 4 1 460.446 21.4762 3
6 4 1 438.717 21.4676 2
6 4 1 472.895 20.9444 13
-7 -4 -1 12.2694 2.94729 6
-7 -4 -1 11.5746 5.01081 4
-7 -4 -1 16.4110 3.48788 5
7 -4 1 14.7468 4.36379 3
-7 -4 -1 14.3281 3.86428 3
-7 -4 -1 5.52977 4.44946 11
7 -4 1 13.1159 3.86592 3
7 4 1 7.38769 4.46263 3
-7 4 -1 15.8234 4.35935 11
-7 4 -1 15.8159 3.76040 3
7 4 1 18.9123 3.67826 2
7 4 1 13.8200 4.35981 8
-7 4 -1 12.4102 4.49213 9
7 4 1 11.3444 4.50897 13
-8 -4 -1 2.01847 3.18927 6
-8 -4 -1 2.61844 4.01952 5
8 -4 1 -2.1641 4.30529 3
-8 -4 -1 4.25948 4.27072 3
8 4 1 5.95867 4.92641 3
-8 4 -1 3.27926 4.91314 9
8 4 1 7.57350 4.10563 2
8 4 1 1.89111 5.48586 13
-8 4 -1 2.26698 4.51827 3
-8 4 -1 1.36800 4.74914 11
-9 -4 -1 28.0038 8.30393 4
9 -4 1 28.4080 6.28428 3
-9 -4 -1 30.9113 6.45421 3
-9 -4 -1 31.1532 5.52560 6
-9 -4 -1 20.9598 7.23005 11
-9 -4 -1 36.6857 5.62949 5
9 -4 1 32.7259 7.51339 7
-9 4 -1 27.6539 6.97490 3
9 4 1 41.6180 7.76854 13
-9 4 -1 32.1848 7.12608 11
9 4 1 34.3074 7.48192 8
9 4 1 32.4680 6.70391 3
-9 4 -1 38.7293 7.32950 9
-10 -4 -1 -0.2771 8.17023 12
-10 -4 -1 7.06701 7.06389 3
-10 -4 -1 10.7102 6.27971 5
-10 -4 -1 2.82260 8.21625 11
10 -4 1 -4.0800 7.69740 7
-10 -4 -1 4.30423 5.71349 6
-10 -4 -1 0.33902 8.38055 4
10 -4 1 1.61528 6.85119 3
10 4 1 -6.7030 8.18002 3
-10 4 -1 3.60863 8.72721 11
10 4 1 0.42654 7.82865 8
-10 4 -1 -1.4035 7.75347 12
10 4 1 4.98889 8.75441 13
10 4 1 -5.0072 6.49969 2
-10 4 -1 -8.1006 7.66922 9
10 -5 -1 42.4222 9.96529 7
-10 -5 1 22.6379 9.47443 11
-10 -5 1 39.4197 8.25079 5
-10 -5 1 33.6537 7.94325 3
10 -5 -1 26.7995 8.20931 3
-10 5 1 43.5112 9.36980 11
10 5 -1 18.5208 9.07334 8
10 5 -1 36.6866 9.30316 3
10 5 -1 22.6535 7.71286 2
10 5 -1 45.7222 9.29092 13
-10 5 1 26.4437 9.97952 9
-9 -5 1 68.0692 9.14795 5
9 -5 -1 60.4887 8.17561 3
-9 -5 1 65.4100 8.78603 3
-9 -5 1 75.0946 13.0391 4
9 -5 -1 86.4501 10.4767 7
9 -5 -1 87.0180 9.75576 13
-9 -5 1 42.8262 9.19767 11
9 5 -1 60.7108 8.71936 3
-9 5 1 90.4239 12.4238 9
9 5 -1 64.2026 9.30847 13
-9 5 1 61.7687 9.99163 11
9 5 -1 46.5996 8.19489 8
-9 5 1 49.6550 8.49430 3
9 5 -1 72.0934 8.34877 2
8 -5 -1 5.72615 5.23299 13
-8 -5 1 -2.8643 5.81845 11
-8 -5 1 1.20570 4.43659 3
8 -5 -1 1.05176 5.04472 3
-8 -5 1 2.81810 4.75187 5
8 5 -1 -2.0162 5.50105 13
8 5 -1 -5.1494 5.69090 3
-8 5 1 3.69977 5.81961 11
-8 5 1 -0.6149 6.04993 9
-8 5 1 1.51492 5.62092 3
-7 -5 1 74.5863 9.86658 4
7 -5 -1 72.1088 7.16342 13
-7 -5 1 73.8099 6.84181 5
7 -5 -1 68.8941 7.31206 3
-7 -5 1 63.7365 6.77601 3
7 5 -1 67.6568 7.46672 3
-7 5 1 96.5537 9.86027 9
-7 5 1 63.2023 7.53685 11
-7 5 1 62.4803 7.47980 3
7 5 -1 67.7695 7.36263 13
6 -5 -1 5.91923 3.38917 3
-6 -5 1 8.32128 3.30516 5
6 -5 -1 7.32572 3.23620 10
-6 -5 1 6.01110 4.38687 11
-6 -5 1 4.76210 3.10583 3
6 -5 -1 8.05979 3.71124 3
6 -5 -1 4.23093 3.40152 13
-6 -5 1 7.56178 4.75637 4
-6 5 1 1.69935 4.19537 9
6 5 -1 0.74479 3.53547 13
6 5 -1 0.87592 2.54312 2
-6 5 1 8.63555 4.25138 11
-6 5 1 3.97235 3.72731 3
6 5 -1 3.69589 3.95871 3
-6 5 1 7.72757 5.41480 4
5 -5 -1 15.3338 3.30282 3
-5 -5 1 17.5205 3.26939 3
5 -5 -1 15.7453 2.92004 10
-5 -5 1 13.6810 3.34241 5
-5 -5 1 11.4364 4.21033 3
-5 -5 1 10.3201 3.99922 11
-5 -5 1 8.97379 4.20150 4
5 -5 -1 16.1270 3.57224 3
5 -5 -1 13.3141 3.41889 7
-5 5 1 13.3776 3.07213 11
5 5 -1 19.0029 3.57002 3
5 5 -1 11.6345 3.39154 13
-5 5 1 13.7534 4.68279 4
-5 5 1 18.8353 3.71826 3
5 5 -1 12.3410 2.63068 2
-5 5 1 9.42831 4.12207 9
4 -5 -1 29.8551 3.50313 10
4 -5 -1 28.4853 3.74601 3
4 -5 -1 32.4310 4.11719 3
-4 -5 1 28.8401 4.24179 11
4 -5 -1 31.6327 4.57290 7
-4 -5 1 26.3758 3.85573 5
-4 -5 1 32.4597 4.13578 3
-4 -5 1 21.7233 3.59546 13
-4 -5 1 30.1425 3.57251 3
4 -5 -1 31.7939 4.63225 11
-4 -5 1 33.0040 5.16845 4
-4 5 1 31.9877 5.02746 4
-4 5 1 31.3810 3.46992 11
4 5 -1 31.7364 4.08208 3
-4 5 1 35.7944 5.45025 9
4 5 -1 34.5389 3.23835 13
4 5 -1 32.5934 3.89311 2
-4 5 1 33.2098 4.31330 3
3 -5 -1 111.931 6.62044 10
-3 -5 1 121.625 6.81281 3
3 -5 -1 114.197 6.45208 3
-3 -5 1 113.623 5.98158 13
3 -5 -1 116.904 6.85798 11
-3 -5 1 112.747 6.78617 11
-3 -5 1 114.573 6.44888 3
3 -5 -1 108.089 7.34337 7
-3 -5 1 113.558 6.57145 5
3 -5 -1 119.818 6.86991 3
3 -5 -1 110.126 6.34326 2
-3 5 1 104.066 6.40649 11
-3 5 1 122.682 8.05879 9
-3 5 1 120.348 6.29505 11
-3 5 1 125.415 6.84538 3
-3 5 1 123.756 6.41896 2
3 5 -1 121.583 6.69917 3
3 5 -1 101.711 6.56963 2
-2 -5 1 711.356 33.6766 3
2 -5 -1 775.036 33.8051 3
-2 -5 1 751.340 31.2934 5
2 -5 -1 759.790 34.0236 2
2 -5 -1 736.742 33.5809 3
-2 -5 1 785.676 33.5545 11
-2 -5 1 796.200 33.5225 3
2 -5 -1 788.728 35.5539 7
2 5 -1 769.708 33.5579 3
-2 5 1 762.515 33.3550 11
-2 5 1 713.095 38.0061 9
-2 5 1 761.523 33.5081 11
-2 5 1 747.342 33.7864 3
2 5 -1 740.459 34.4204 2
2 5 -1 742.212 33.3613 11
-2 5 1 797.097 34.1464 2
1 -5 -1 29.8021 3.91882 7
1 -5 -1 26.0548 2.91031 3
1 -5 -1 22.4795 3.05220 3
-1 -5 1 22.6517 2.61857 11
-1 -5 1 20.6079 2.98509 5
1 -5 -1 23.1312 3.03069 1
-1 -5 1 21.0930 2.59468 7
-1 -5 1 21.5816 3.06401 1
-1 5 1 18.9203 3.29296 9
-1 5 1 24.0079 3.03315 2
1 5 -1 17.7542 3.21787 9
1 5 -1 22.3744 2.27285 11
-1 5 1 20.9705 2.79707 11
1 5 -1 21.8728 2.68374 2
-1 5 1 17.3852 3.03656 6
-1 5 1 22.6367 3.19267 3
-1 5 1 26.7681 2.86959 11
0 -5 1 333.144 14.1846 1
0 -5 1 296.980 13.8762 5
0 -5 -1 332.301 13.8060 1
0 -5 -1 325.660 15.5015 7
0 -5 -1 325.460 14.7641 3
0 -5 -1 313.650 13.8619 5
0 -5 -1 328.631 14.8551 3
0 -5 -1 316.724 15.7969 6
0 -5 1 333.822 15.2510 7
0 5 1 291.237 15.7383 6
0 5 -1 315.214 17.0145 9
0 5 1 311.385 17.0549 9
0 5 -1 309.789 15.2451 7
0 5 -1 290.633 15.7576 6
0 5 1 299.400 14.5698 11
0 5 1 321.028 15.0668 2
0 5 1 316.507 14.5984 11
0 5 -1 309.836 14.9058 2
-1 -5 -1 11.1324 2.27566 3
-1 -5 -1 12.2715 2.37267 5
-1 -5 -1 10.0090 2.24216 3
1 -5 1 12.4638 2.28199 5
-1 -5 -1 14.5369 2.45748 11
1 -5 1 8.92994 2.24178 1
-1 -5 -1 15.0071 2.63559 7
1 -5 1 13.1764 2.45354 7
1 -5 1 10.9366 2.52079 2
-1 -5 -1 14.4877 2.71577 6
1 5 1 13.3343 2.48332 2
1 5 1 16.4562 2.75744 3
1 5 1 9.09186 3.19936 9
1 5 1 13.4552 2.67050 7
-1 5 -1 14.0590 2.41929 2
-1 5 -1 9.67239 2.18824 6
-1 5 -1 11.2489 3.00829 9
-2 -5 -1 110.963 6.93269 11
2 -5 1 109.869 6.70563 7
-2 -5 -1 103.043 6.00149 5
-2 -5 -1 107.883 6.24452 3
-2 -5 -1 109.935 6.65022 6
-2 -5 -1 113.528 6.44060 7
-2 -5 -1 107.889 6.83463 3
-2 5 -1 106.672 7.59083 9
2 5 1 108.537 6.45766 2
2 5 1 114.610 6.35650 8
-2 5 -1 108.453 5.96994 2
2 5 1 106.623 6.44209 3
2 5 1 101.995 7.76252 9
2 5 1 116.310 6.33776 1
3 -5 1 221.106 10.4241 10
-3 -5 -1 231.010 11.6107 11
-3 -5 -1 221.184 11.1873 7
3 -5 1 207.050 11.6411 7
-3 -5 -1 211.123 10.9404 3
-3 -5 -1 214.317 10.3292 5
-3 -5 -1 220.864 11.8765 6
-3 -5 -1 231.079 14.8093 4
-3 -5 -1 226.136 11.6354 3
-3 5 -1 214.148 14.4173 4
3 5 1 216.669 11.3438 2
3 5 1 212.742 11.5353 8
-3 5 -1 219.038 12.7092 9
3 5 1 252.448 11.3763 3
-3 5 -1 208.327 10.5060 2
3 5 1 213.034 12.9526 9
3 5 1 227.821 10.5350 1
-4 -5 -1 3.04597 2.30614 5
-4 -5 -1 4.06364 3.12971 4
-4 -5 -1 2.47235 1.82704 6
-4 -5 -1 3.57320 2.29633 3
-4 -5 -1 3.46997 3.23345 3
-4 -5 -1 5.20093 2.43086 7
4 -5 1 2.63319 3.16930 7
4 -5 1 1.41109 2.65796 10
-4 -5 -1 1.86378 2.89370 11
-4 -5 -1 0.47409 1.93598 13
-4 5 -1 4.06400 3.56475 4
4 5 1 2.75859 2.21173 2
4 5 1 0.40054 2.85190 8
-4 5 -1 4.33425 3.25311 9
4 5 1 3.11870 2.83116 9
4 5 1 9.33441 3.22046 3
4 5 1 4.44525 2.13414 13
-5 -5 -1 327.382 14.7231 5
5 -5 1 313.196 14.6548 10
-5 -5 -1 317.888 20.9762 4
-5 -5 -1 326.776 16.2468 7
-5 -5 -1 348.640 17.3489 6
-5 -5 -1 342.602 16.0458 3
5 -5 1 327.628 17.1036 7
-5 -5 -1 329.240 16.8413 11
5 5 1 328.420 16.4174 3
5 5 1 326.337 15.6939 13
5 5 1 324.520 16.4203 2
-5 5 -1 320.440 21.0305 4
-5 5 -1 311.455 18.0243 9
5 5 1 346.936 16.8464 8
-6 -5 -1 18.4898 3.95046 3
-6 -5 -1 14.2319 4.49816 7
-6 -5 -1 12.6603 5.04344 4
-6 -5 -1 15.7125 3.32964 6
-6 -5 -1 11.4940 4.90794 11
-6 -5 -1 20.0323 3.89666 5
6 -5 1 11.7878 4.70272 7
6 5 1 13.9550 4.53619 8
-6 5 -1 10.7225 4.66174 9
6 5 1 12.9640 4.74879 3
6 5 1 16.2192 3.79747 2
6 5 1 12.2225 4.37529 13
-7 -5 -1 -1.0243 3.27154 6
-7 -5 -1 0.63827 3.76270 3
-7 -5 -1 5.88974 4.04895 5
7 -5 1 6.72604 3.93844 3
-7 5 -1 1.27217 4.58573 11
-7 5 -1 1.52180 3.97137 3
-7 5 -1 7.04190 5.48809 9
7 5 1 -3.6215 4.66966 3
7 5 1 5.34220 5.37789 8
7 5 1 -0.4771 5.26856 13
-8 -5 -1 10.8706 4.35543 6
-8 -5 -1 18.2037 5.54139 5
-8 -5 -1 3.96373 4.80132 3
-8 -5 -1 12.4869 6.35728 11
-8 -5 -1 18.9123 7.15695 4
8 -5 1 18.0339 5.47014 3
-8 5 -1 19.1009 6.08080 11
-8 5 -1 29.1889 6.42418 9
8 5 1 6.67202 6.49908 13
8 5 1 19.1283 6.28506 3
-8 5 -1 12.7577 5.46392 3
8 5 1 19.0411 6.83732 8
8 5 1 23.8847 5.53607 2
-9 -5 -1 4.06721 4.94889 6
-9 -5 -1 1.77798 6.32714 5
9 -5 1 6.39641 6.21809 3
-9 -5 -1 9.21285 7.75196 11
9 -5 1 11.2647 7.72914 7
-9 -5 -1 9.67425 8.27721 4
-9 -5 -1 1.58003 6.12126 3
9 5 1 3.63729 6.26473 2
9 5 1 12.2429 7.21208 8
9 5 1 -3.4217 7.96103 13
-9 5 -1 4.21607 7.18753 9
-9 5 -1 6.45456 7.74712 11
9 5 1 2.27588 7.43529 3
-9 -6 1 14.1155 8.87715 11
-9 -6 1 15.8104 6.71874 3
9 -6 -1 14.3390 7.54491 3
-9 -6 1 19.9191 10.6081 4
9 -6 -1 29.4842 8.42132 7
-9 -6 1 8.90202 7.50441 5
9 6 -1 12.3781 8.39006 3
9 6 -1 15.7278 6.44674 2
-9 6 1 26.8118 9.43544 9
9 6 -1 6.25179 8.11103 8
9 6 -1 20.2901 8.52622 13
-9 6 1 19.9076 8.46789 11
8 -6 -1 204.709 14.9405 7
-8 -6 1 189.135 12.6830 3
8 -6 -1 179.926 13.3201 3
-8 -6 1 184.917 12.6687 5
-8 -6 1 186.780 14.6506 11
-8 -6 1 203.465 18.3178 4
-8 6 1 204.783 13.5622 11
-8 6 1 223.897 16.3717 9
8 6 -1 210.881 12.6596 2
8 6 -1 207.098 14.0292 13
8 6 -1 193.469 14.8512 8
8 6 -1 171.051 14.1961 3
-7 -6 1 21.8000 5.48660 3
-7 -6 1 21.6289 5.54992 5
7 -6 -1 38.1621 6.01497 3
7 -6 -1 32.1358 7.09678 7
7 6 -1 32.9345 5.50419 2
-7 6 1 26.2741 6.60541 11
-7 6 1 23.4636 9.30547 4
-7 6 1 21.4993 7.77749 9
7 6 -1 27.5313 5.94531 3
-7 6 1 28.9434 6.52930 3
7 6 -1 22.5257 6.11666 13
-6 -6 1 15.6200 5.74911 11
6 -6 -1 16.2128 4.18916 10
-6 -6 1 17.2970 5.07520 5
-6 -6 1 16.4893 4.15456 3
-6 -6 1 14.2557 6.67885 4
6 -6 -1 23.2432 4.30514 3
6 6 -1 16.6717 5.04990 3
-6 6 1 12.3633 4.52498 3
-6 6 1 26.8986 5.34263 11
-6 6 1 20.0298 5.79574 9
6 6 -1 19.3025 4.60692 13
5 -6 -1 3.99848 3.48140 3
5 -6 -1 3.21089 3.50241 7
-5 -6 1 6.43567 3.75087 5
5 -6 -1 4.66337 3.98367 10
-5 -6 1 1.10137 5.43195 4
5 -6 -1 7.62801 3.83802 3
-5 -6 1 6.42200 4.55728 3
-5 -6 1 5.86352 4.31653 11
-5 -6 1 6.88167 3.34429 3
-5 6 1 8.63653 4.07040 11
5 6 -1 7.55821 3.66739 13
-5 6 1 3.19946 4.91037 9
5 6 -1 10.2038 4.02762 3
-5 6 1 4.47078 3.59842 3
4 -6 -1 2.36049 3.35525 10
4 -6 -1 -0.4202 2.89388 3
-4 -6 1 3.93823 3.80519 11
4 -6 -1 5.52935 2.84346 2
4 -6 -1 0.82335 3.71373 7
4 -6 -1 4.80985 3.06930 3
-4 -6 1 4.51232 2.62104 3
-4 -6 1 4.82366 2.89408 5
-4 6 1 3.98989 2.74319 2
-4 6 1 2.50419 3.28800 3
-4 6 1 -0.4774 2.76031 11
4 6 -1 5.07151 3.33732 3
4 6 -1 2.78693 2.82554 2
-4 6 1 10.2157 4.00039 9
3 -6 -1 27.4930 4.27765 3
-3 -6 1 34.2144 4.54852 11
-3 -6 1 25.4966 3.57206 5
-3 -6 1 26.0924 4.01853 3
3 -6 -1 28.6344 4.20662 3
-3 -6 1 29.6534 4.50887 3
3 -6 -1 33.3858 5.15533 7
-3 6 1 39.0955 4.23994 2
3 6 -1 24.5704 3.71219 2
3 6 -1 30.7953 5.64718 9
-3 6 1 37.8753 6.29737 9
-3 6 1 28.7319 4.25150 11
-3 6 1 39.1411 3.94212 11
-3 6 1 31.3893 4.62703 3
3 6 -1 32.7350 4.59825 3
-2 -6 1 52.4725 4.77092 3
2 -6 -1 59.4941 4.71992 3
-2 -6 1 57.6125 4.63020 11
2 -6 -1 50.3082 4.51129 3
2 -6 -1 60.1720 5.56113 7
-2 -6 1 55.5242 4.86475 5
2 -6 -1 53.7523 4.59443 1
-2 -6 1 59.9406 4.39705 3
-2 6 1 51.2196 4.44534 11
-2 6 1 56.3361 5.17039 3
-2 6 1 60.6062 4.59719 2
-2 6 1 53.7994 6.21792 9
-2 6 1 59.6166 4.41004 11
2 6 -1 51.3171 6.40567 9
2 6 -1 54.9080 4.59237 2
1 -6 -1 582.094 26.7622 3
-1 -6 1 617.675 25.4876 1
-1 -6 1 625.792 26.5032 11
-1 -6 1 586.337 25.1821 5
1 -6 -1 599.766 25.2402 1
1 -6 -1 616.061 28.3471 7
1 -6 -1 607.184 26.8258 3
-1 6 1 561.114 28.6678 6
1 6 -1 567.913 27.6314 7
-1 6 1 601.275 30.7805 9
1 6 -1 580.627 27.3067 2
1 6 -1 566.994 26.2197 11
1 6 -1 571.143 30.6783 9
-1 6 1 624.234 26.6125 11
-1 6 1 560.224 26.8682 11
-1 6 1 593.330 27.2051 2
0 -6 1 25.1093 3.68464 1
0 -6 1 30.7714 4.05796 5
0 -6 -1 23.8836 3.60229 3
0 -6 -1 31.9258 4.28057 7
0 -6 -1 26.6487 3.42123 3
0 -6 -1 25.5010 3.85076 1
0 -6 1 33.7804 3.72995 7
0 6 1 27.6142 4.17271 11
0 6 -1 23.7636 3.30530 2
0 6 1 27.8499 3.99725 3
0 6 -1 32.3366 5.70412 9
0 6 1 32.5573 3.59769 2
0 6 1 28.9531 5.22986 9
-1 -6 -1 8.18989 2.26900 6
1 -6 1 4.90015 2.39490 1
1 -6 1 8.03965 2.88018 7
1 -6 1 8.18864 2.72922 5
-1 -6 -1 6.37578 2.67237 3
-1 -6 -1 5.90906 2.31963 5
-1 -6 -1 11.3576 3.43263 7
-1 -6 -1 9.91647 2.59890 3
1 6 1 17.6122 3.63500 11
1 6 1 6.67498 3.13398 9
-1 6 -1 13.5723 3.55995 9
1 6 1 14.9833 2.82457 2
1 6 1 12.0174 2.99930 3
-2 -6 -1 143.466 8.97005 3
2 -6 1 161.233 9.14230 7
-2 -6 -1 147.104 8.06446 5
-2 -6 -1 158.525 9.00929 6
2 -6 1 150.453 8.31481 1
-2 -6 -1 150.215 8.40299 3
-2 -6 -1 160.157 9.28170 11
-2 -6 -1 163.591 9.06622 7
-2 6 -1 152.293 8.15588 2
2 6 1 155.165 8.72240 3
-2 6 -1 152.583 10.2449 9
2 6 1 154.441 8.66423 2
2 6 1 137.505 10.5015 9
-3 -6 -1 33.2588 5.19115 11
3 -6 1 39.8128 5.17596 10
-3 -6 -1 27.7541 3.98571 7
-3 -6 -1 24.0934 4.43268 3
-3 -6 -1 36.6346 4.08984 3
-3 -6 -1 28.7319 4.10548 6
-3 -6 -1 35.1067 4.41549 5
3 -6 1 33.9931 5.02877 7
3 6 1 38.9898 4.94275 8
3 6 1 27.9927 5.18416 9
-3 6 -1 27.6452 3.78412 2
3 6 1 37.5160 4.84978 3
-3 6 -1 29.2504 5.02999 9
3 6 1 27.6270 3.96170 2
-3 6 -1 36.9135 5.93883 4
-4 -6 -1 122.621 7.68096 5
-4 -6 -1 126.719 8.04264 6
-4 -6 -1 129.932 7.85935 3
4 -6 1 114.760 8.59337 7
-4 -6 -1 127.245 11.2640 4
-4 -6 -1 128.605 8.80906 11
-4 -6 -1 103.322 7.88849 7
4 -6 1 115.837 7.83312 10
-4 6 -1 126.492 9.85287 9
4 6 1 116.310 8.92128 8
4 6 1 132.914 8.68341 3
-4 6 -1 126.623 11.1347 4
4 6 1 121.205 10.2861 9
-5 -6 -1 15.2324 3.30928 6
-5 -6 -1 19.9617 3.90037 3
-5 -6 -1 16.6943 4.15103 5
5 -6 1 17.6640 3.85408 10
-5 -6 -1 16.4257 5.03071 11
5 -6 1 13.7309 4.78051 7
5 6 1 25.6576 4.46081 13
5 6 1 8.95483 4.77087 9
5 6 1 11.4582 4.73045 8
5 6 1 18.2202 4.68598 3
-5 6 -1 16.9045 5.07597 9
-6 -6 -1 90.7669 7.29545 6
6 -6 1 79.1710 7.87879 10
-6 -6 -1 90.5471 7.27328 5
-6 -6 -1 89.1492 7.74360 3
6 6 1 82.6824 8.15559 13
-6 6 -1 79.7439 9.71189 9
6 6 1 97.4300 10.4307 8
6 6 1 97.7699 8.14447 2
6 6 1 93.3634 8.93164 3
-7 -6 -1 -0.6667 4.62381 5
-7 -6 -1 8.93498 4.82605 3
7 -6 1 8.47382 5.64470 7
-7 -6 -1 1.55344 3.47688 6
-7 -6 -1 3.29075 7.35795 4
-7 -6 -1 10.7137 6.40689 11
7 6 1 10.2185 6.22134 13
7 6 1 2.75526 6.08027 3
7 6 1 7.44663 6.77220 9
7 6 1 10.9329 4.91803 2
7 6 1 16.6609 6.91354 8
-7 6 -1 -1.7313 7.11710 9
-8 -6 -1 -1.6703 4.53930 6
-8 -6 -1 -1.4774 7.01002 11
-8 -6 -1 -5.3992 7.62906 4
8 -6 1 -2.7044 6.46664 7
-8 -6 -1 -8.0124 5.32301 5
-8 -6 -1 -2.3053 5.52146 3
8 6 1 5.62857 5.60301 2
8 6 1 5.67608 7.22491 13
8 6 1 -5.4469 6.83873 3
-8 6 -1 -8.4788 7.50448 9
8 6 1 12.6520 7.49062 8
-8 7 1 23.9738 15.0904 4
7 -7 -1 79.2357 9.59207 3
7 -7 -1 98.1232 10.9808 7
-7 -7 1 90.9940 11.5173 11
-7 -7 1 98.6025 15.3258 4
-7 -7 1 72.1219 9.32621 3
-7 -7 1 105.050 9.97699 5
7 7 -1 91.7650 12.2159 8
7 7 -1 90.3549 10.1681 13
7 7 -1 79.6559 10.6968 3
7 7 -1 103.971 9.07445 2
-7 7 1 80.0755 11.4315 9
-7 7 1 92.9422 16.8164 4
-7 7 1 74.2453 10.6035 11
-6 -7 1 2.81396 4.89812 3
6 -7 -1 8.15733 5.08575 10
-6 -7 1 9.06460 5.16318 5
6 -7 -1 5.18852 5.25602 7
-6 7 1 -6.0809 6.51307 9
-6 7 1 15.2167 6.47272 11
6 7 -1 0.57884 5.73600 3
6 7 -1 6.55664 4.44735 2
6 7 -1 2.73987 5.51363 13
-6 7 1 3.79176 9.49636 4
5 -7 -1 82.6957 8.42214 7
5 -7 -1 71.2161 8.31088 10
-5 -7 1 77.7922 8.70749 11
-5 -7 1 76.7665 7.45003 5
-5 -7 1 79.6546 7.05683 3
5 7 -1 84.6943 8.34891 3
-5 7 1 71.5054 11.0061 9
-5 7 1 94.0024 8.15231 11
-4 -7 1 19.5984 4.24970 5
-4 -7 1 21.8024 5.30793 11
-4 -7 1 21.9578 4.04366 3
4 -7 -1 24.2695 4.65550 10
-4 7 1 24.3150 5.99163 9
4 7 -1 20.7979 4.87479 3
-4 7 1 22.9256 5.27887 11
-4 7 1 15.5122 3.83046 2
4 7 -1 20.7776 4.55373 2
3 -7 -1 5.33682 4.16730 10
3 -7 -1 -0.5763 4.31824 7
-3 -7 1 6.18252 3.45161 5
3 -7 -1 8.03466 3.20891 3
3 -7 -1 3.17222 2.81178 1
-3 -7 1 3.60910 3.76757 11
-3 -7 1 8.27114 3.39686 3
3 7 -1 4.98297 3.30075 2
-3 7 1 6.26864 3.77467 3
3 7 -1 6.20050 3.77666 3
-3 7 1 7.57560 4.46619 11
-3 7 1 7.87197 4.51818 9
-3 7 1 6.42169 3.19580 2
2 -7 -1 39.2380 4.88118 3
2 -7 -1 39.9542 4.90232 3
2 -7 -1 35.0536 4.82928 1
-2 -7 1 39.6562 5.53600 5
2 -7 -1 41.4426 6.25247 7
-2 -7 1 45.3216 5.75614 11
2 7 -1 43.7764 7.65786 9
-2 7 1 39.5684 4.66336 3
2 7 -1 36.2171 5.00716 2
-2 7 1 37.2176 4.76004 2
-2 7 1 44.6834 6.38294 11
-2 7 1 45.4945 6.72063 9
-1 -7 1 4.29789 2.80615 1
1 -7 -1 -0.8515 2.52873 1
-1 -7 1 4.42512 2.86435 11
1 -7 -1 5.68259 2.76837 3
-1 -7 1 10.8694 3.82808 5
1 -7 -1 0.58384 2.86816 3
1 -7 -1 1.37161 3.66414 7
-1 -7 1 3.48341 3.50269 7
1 7 -1 2.41712 2.77298 2
-1 7 1 0.69329 4.24452 11
-1 7 1 1.61843 4.36769 9
-1 7 1 3.95926 3.47253 3
1 7 -1 1.37629 3.90309 9
-1 7 1 0.73483 2.89899 2
0 -7 1 216.510 11.6489 7
0 -7 1 223.602 10.8818 1
0 -7 -1 225.329 10.5826 1
0 -7 -1 201.570 11.1767 3
0 -7 -1 212.305 12.1792 7
0 -7 -1 216.285 11.2266 3
0 7 1 200.744 11.4051 11
0 7 -1 206.556 11.3041 2
0 7 1 213.929 11.5261 3
0 7 1 216.436 11.4935 2
0 7 -1 223.092 14.0306 9
-1 -7 -1 54.7583 5.84751 3
1 -7 1 70.0054 6.18300 7
-1 -7 -1 69.4354 5.42806 3
-1 -7 -1 58.5076 5.52623 5
-1 -7 -1 64.2871 6.17031 7
1 -7 1 62.5828 5.68419 1
1 7 1 65.5413 6.03586 11
-1 7 -1 68.6077 7.57998 9
1 7 1 65.6259 5.57783 2
-1 7 -1 58.3559 5.05629 2
1 7 1 66.2233 6.01988 3
-2 -7 -1 52.7752 5.45547 5
2 -7 1 50.4810 5.63544 1
2 -7 1 62.6481 6.36255 7
-2 -7 -1 51.7166 6.72051 11
-2 -7 -1 68.8661 6.04653 7
-2 -7 -1 58.3559 5.24849 3
2 7 1 62.9509 6.54706 3
2 7 1 60.8591 5.62645 2
-2 7 -1 60.9303 8.97232 9
-2 7 -1 56.8322 4.92071 2
3 -7 1 33.9791 5.58202 7
3 -7 1 33.8780 4.68758 1
-3 -7 -1 34.8413 5.62971 7
3 -7 1 35.8587 4.96276 10
-3 -7 -1 37.6062 5.55951 3
-3 -7 -1 37.9238 5.92320 11
-3 -7 -1 37.0457 4.62944 5
3 7 1 34.6198 5.47807 2
3 7 1 44.5303 5.34861 3
-3 7 -1 42.5767 7.62517 4
-3 7 -1 30.7374 6.13521 9
-3 7 -1 30.7019 4.14574 2
3 7 1 39.5757 5.97283 8
-4 -7 -1 2.66058 3.88385 3
-4 -7 -1 3.40550 4.85855 11
-4 -7 -1 7.30008 4.11056 5
4 -7 1 -3.4265 4.30852 7
4 -7 1 4.11820 4.35542 10
-4 7 -1 8.08910 6.21011 4
-4 7 -1 1.94833 5.34605 9
4 7 1 4.54342 3.64812 2
4 7 1 7.00114 4.84104 3
4 7 1 13.6128 5.90158 8
-4 7 -1 8.55673 3.41669 2
5 -7 1 69.3790 8.28231 10
-5 -7 -1 64.3333 12.1273 4
-5 -7 -1 59.2816 7.23938 3
-5 -7 -1 69.2014 7.65410 5
5 7 1 46.6017 8.81719 9
5 7 1 83.6965 10.5569 8
-5 7 -1 79.2084 11.2671 4
5 7 1 59.0465 8.79987 3
-5 7 -1 92.8160 10.6383 9
-6 -7 -1 4.66457 6.52573 11
6 -7 1 13.8044 5.94919 7
-6 -7 -1 5.49869 5.66733 5
-6 -7 -1 12.5391 5.34195 3
6 -7 1 2.57022 5.24913 10
-6 -7 -1 3.03980 7.62881 4
-6 7 -1 24.7368 10.7557 4
-6 7 -1 2.84402 7.27571 9
6 7 1 20.1555 6.76739 8
6 7 1 11.9913 5.27596 2
6 7 1 5.48996 6.99868 3
6 7 1 8.75361 7.81051 9
-7 -7 -1 14.3874 5.98649 3
7 -7 1 6.51870 6.37300 7
-7 -7 -1 8.82790 7.78773 11
-7 -7 -1 13.4751 6.75205 5
-7 -7 -1 8.63677 9.50735 4
7 7 1 11.1303 8.25210 9
-7 7 -1 -11.086 8.48127 9
7 7 1 2.28828 7.55018 3
7 7 1 21.7440 6.37115 2
7 7 1 17.1916 7.85023 8
-7 7 -1 37.1887 13.4961 4
-6 -8 1 21.8279 8.51210 11
6 -8 -1 35.1172 8.63323 7
-6 -8 1 50.0622 8.06806 5
6 -8 -1 51.1086 7.47415 10
-6 -8 1 36.5982 6.71967 3
-6 8 1 58.2961 14.2110 4
6 8 -1 23.1410 9.23422 9
6 8 -1 35.8915 8.98832 8
-6 8 1 26.6503 9.50544 9
6 8 -1 36.0878 6.94781 2
5 -8 -1 -7.5893 5.92275 10
5 -8 -1 16.7115 6.61990 7
-5 -8 1 12.0300 5.25033 3
-5 -8 1 8.97753 5.82254 5
5 8 -1 10.5028 4.72223 2
5 8 -1 8.40889 7.56033 9
5 8 -1 10.3927 7.47140 8
-5 8 1 19.6502 10.0786 4
-5 8 1 4.12623 7.83755 9
4 -8 -1 49.2802 6.74371 10
-4 -8 1 40.6317 7.17716 11
-4 -8 1 46.0268 7.34031 5
-4 -8 1 43.8558 7.02091 3
4 -8 -1 50.8983 7.50052 7
4 8 -1 40.6742 9.04738 9
4 8 -1 53.2295 6.96883 2
-4 8 1 72.6211 12.2562 9
-4 8 1 62.8835 11.3111 4
-4 8 1 46.1502 5.75422 2
-3 -8 1 71.9107 8.39543 11
-3 -8 1 59.4036 7.81760 5
3 -8 -1 68.2946 9.00261 10
3 -8 -1 70.3916 7.05135 1
-3 8 1 85.3399 11.9988 9
3 8 -1 80.6607 7.16132 2
-3 8 1 68.9460 6.85396 2
3 8 -1 80.1100 11.5345 9
-2 -8 1 15.9352 5.38708 11
-2 -8 1 16.6442 4.98590 5
2 -8 -1 10.1049 3.74719 1
2 -8 -1 -4.0799 5.37434 7
2 8 -1 11.4798 4.87063 11
-2 8 1 10.7887 5.90209 11
-2 8 1 6.52880 6.77404 9
2 8 -1 13.6362 3.65663 2
2 8 -1 9.16164 6.00869 9
-2 8 1 9.73853 4.11008 2
1 -8 -1 77.6918 8.19820 7
-1 -8 1 85.7357 6.94977 7
1 -8 -1 62.9511 6.77360 3
1 -8 -1 79.7464 6.40433 1
-1 -8 1 70.1385 7.06779 5
1 8 -1 95.0557 7.06425 2
-1 8 1 81.5363 8.63297 11
-1 8 1 74.6022 7.07083 2
-1 8 1 76.3805 7.53847 3
-1 8 1 81.5252 11.1920 9
1 8 -1 99.6403 10.9987 9
0 -8 1 17.4293 3.90424 1
0 -8 1 23.7143 4.57615 7
0 -8 -1 23.8767 4.10390 3
0 -8 -1 17.6106 5.22990 7
0 8 1 16.8442 4.64648 3
0 8 1 12.7201 6.03483 9
0 8 1 16.9372 5.02642 11
0 8 1 17.4710 4.35775 2
0 8 -1 18.6933 4.00227 2
0 8 -1 22.3269 5.93694 9
-1 -8 -1 10.5602 4.29344 7
-1 -8 -1 13.2512 4.10333 3
1 -8 1 6.27615 3.22193 1
1 -8 1 12.0652 4.91025 7
-1 8 -1 9.15785 3.61970 2
1 8 1 11.0832 4.23246 2
1 8 1 9.18577 5.11528 11
1 8 1 20.7724 4.84903 3
-1 8 -1 10.5861 6.47754 9
-2 -8 -1 4.18795 4.26932 7
2 -8 1 9.59869 5.72185 10
-2 -8 -1 9.68481 4.08893 3
-2 -8 -1 1.13090 5.31116 11
-2 -8 -1 -1.6866 3.99461 5
2 -8 1 8.60497 5.11224 7
2 8 1 6.71605 4.87967 3
-2 8 -1 7.57829 3.61330 2
2 8 1 10.3556 4.14931 2
2 8 1 5.88549 4.71160 11
-2 8 -1 10.2153 6.59901 9
-3 -8 -1 -1.3041 4.63388 5
-3 -8 -1 9.56056 4.75696 3
-3 -8 -1 -0.4264 5.33772 11
-3 -8 -1 6.54961 3.97775 7
3 -8 1 17.0022 5.53061 10
-3 8 -1 8.21240 3.53518 2
3 8 1 6.77998 4.18845 2
3 8 1 10.9451 6.40867 9
3 8 1 0.96323 5.58737 3
-3 8 -1 2.27269 6.89750 9
-3 8 -1 12.0160 8.15412 4
-4 -8 -1 47.9345 7.69136 3
-4 -8 -1 55.7420 6.89584 5
4 -8 1 51.6361 7.32410 1
4 -8 1 62.2327 7.54576 10
4 -8 1 44.5310 7.39733 7
-4 8 -1 42.1608 6.39041 2
4 8 1 47.4812 9.41434 9
4 8 1 69.2767 8.04072 2
4 8 1 60.6864 7.65681 3
-4 8 -1 87.4146 15.0054 4
4 8 1 55.1276 8.51372 8
-4 8 -1 55.2280 9.33944 9
5 -8 1 3.56581 6.54590 10
-5 -8 -1 -2.2623 5.50344 3
-5 -8 -1 4.76845 5.53378 5
-5 -8 -1 -0.2641 6.58070 11
5 -8 1 0.60610 6.53059 7
5 8 1 1.61584 6.75678 3
5 8 1 8.12729 8.38094 9
-5 8 -1 3.76324 10.9235 4
5 8 1 13.6040 5.35886 2
-5 8 -1 11.9176 8.13219 9
5 8 1 10.7689 7.57068 8
6 -8 1 106.080 11.9316 10
-6 -8 -1 129.951 11.6097 5
6 -8 1 118.131 11.6018 7
-6 -8 -1 111.951 12.9545 11
-6 -8 -1 123.654 11.1301 3
6 8 1 98.0483 13.2034 3
-6 8 -1 162.061 18.9528 4
6 8 1 142.052 16.7287 9
6 8 1 120.339 14.8825 8
6 8 1 110.625 11.4778 2
-6 8 -1 114.474 16.0655 9
3 -9 -1 20.9174 7.38814 10
-3 -9 1 19.5057 6.04066 5
3 -9 -1 24.6091 7.55387 7
-3 -9 1 26.5623 7.38274 11
3 9 -1 27.6686 10.0595 9
3 9 -1 19.3236 5.99228 2
-3 9 1 24.6132 5.90446 2
3 9 -1 11.1782 6.83926 11
-3 9 1 21.7726 9.29793 9
2 -9 -1 77.8187 9.95200 7
-2 -9 1 75.4663 8.78962 5
2 9 -1 69.5102 8.22759 2
-2 9 1 60.9337 8.38440 2
-2 9 1 90.6765 11.9364 9
2 9 -1 89.0049 14.1593 9
2 9 -1 64.7714 8.62985 11
1 -9 -1 -1.2125 4.26554 1
-1 -9 1 -4.0096 4.85248 5
-1 -9 1 7.57656 5.29314 7
1 9 -1 3.40722 4.94287 2
-1 9 1 8.05526 7.13494 11
-1 9 1 -2.6709 7.80638 9
1 9 -1 14.6734 8.94496 9
-1 9 1 4.27080 5.23734 2
0 -9 -1 -2.7020 6.06244 7
0 -9 1 22.7698 5.80496 7
0 -9 1 14.8366 4.67360 1
0 9 1 8.11461 6.97734 11
0 9 -1 14.2529 4.89700 2
0 9 1 15.3772 5.42004 2
0 9 -1 11.5084 8.05601 9
0 9 1 10.4703 8.50488 9
1 -9 1 -3.0310 4.32834 1
-1 -9 -1 1.40873 5.69249 7
1 -9 1 4.00655 5.51572 7
-1 -9 -1 -2.9184 5.15586 3
-1 9 -1 2.08108 8.39931 9
1 9 1 -1.6229 5.72800 11
1 9 1 -10.051 4.46049 2
1 9 1 1.43182 8.11892 9
-1 9 -1 4.16934 4.48574 2
-2 -9 -1 4.53276 5.53104 3
-2 -9 -1 0.49005 5.24819 7
2 -9 1 3.40334 4.47014 1
2 -9 1 4.25461 6.72844 10
-2 9 -1 -5.4766 8.49942 9
-2 9 -1 8.53510 4.64487 2
2 9 1 -6.1856 6.24228 11
2 9 1 -3.2977 5.30312 2
2 9 1 7.46926 7.57840 9
3 -9 1 20.1434 5.08973 1
3 -9 1 34.7715 7.54180 10
-3 -9 -1 6.48215 5.43571 7
-3 -9 -1 14.5947 6.13749 5
-3 -9 -1 15.1234 6.19683 3
3 -9 1 17.4856 6.87701 7
3 9 1 12.0664 7.22500 11
-3 9 -1 4.51343 4.93485 2
3 9 1 15.1369 6.32092 2
3 9 1 22.8756 10.3216 9
-3 9 -1 23.4905 11.2256 4
-3 9 -1 14.9802 10.5484 9
11 0 -2 29.6716 7.90368 13
-11 0 2 15.4617 7.72854 11
-11 0 2 14.0854 8.52582 4
11 0 -2 20.0893 7.25465 3
11 0 -2 33.9837 8.59618 7
-11 0 2 31.5743 6.83462 3
11 0 -2 23.8247 8.63866 8
-10 0 2 83.8828 8.52824 3
10 0 -2 89.4775 8.90693 7
-10 0 2 55.3388 11.2616 4
10 0 -2 78.3055 8.69331 13
10 0 -2 79.5798 6.93386 2
-10 0 2 84.6067 9.13240 11
10 0 -2 56.3286 8.80472 3
9 0 -2 51.6886 7.22037 3
-9 0 2 62.6587 9.03815 4
-9 0 2 47.5177 8.59027 9
-9 0 2 54.7825 7.29583 11
9 0 -2 70.5865 7.20669 7
-9 0 2 58.7101 6.98150 3
9 0 -2 77.4505 6.31268 2
-8 0 2 16.3310 4.08431 4
8 0 -2 23.6868 4.49999 3
8 0 -2 28.2112 4.23543 2
8 0 -2 22.9519 4.16096 13
-8 0 2 33.5316 5.24546 3
-8 0 2 17.3601 4.17871 11
-8 0 2 21.3345 4.58681 9
8 0 -2 34.8709 5.64513 7
7 0 -2 39.7069 4.78589 13
-7 0 2 34.3632 5.39722 4
-7 0 2 49.5661 4.70972 3
7 0 -2 45.1085 4.75441 7
7 0 -2 46.0387 3.82135 2
-7 0 2 36.4641 4.66363 11
-7 0 2 38.1456 5.40365 9
7 0 -2 32.7402 4.88063 3
6 0 -2 444.181 19.1760 2
6 0 -2 401.132 19.1075 13
-6 0 2 407.266 19.5175 11
-6 0 2 417.901 24.4439 4
-6 0 2 443.517 19.5704 3
-6 0 2 406.626 20.0987 7
6 0 -2 386.677 20.5707 6
-6 0 2 412.613 21.5906 9
6 0 -2 447.556 19.9677 7
6 0 -2 445.505 19.7193 3
5 0 -2 35.4287 3.35441 3
5 0 -2 35.6141 3.08835 3
5 0 -2 36.3400 2.71211 7
5 0 -2 37.5955 2.52798 2
-5 0 2 34.3282 3.60171 4
5 0 -2 31.7235 3.04997 6
-5 0 2 34.5773 3.27569 7
-5 0 2 35.9765 3.12082 3
-5 0 2 34.6124 3.02489 11
5 0 -2 33.5256 3.32735 9
-5 0 2 37.2370 3.35581 3
5 0 -2 31.4584 2.69182 13
-5 0 2 29.0595 3.25446 9
4 0 -2 699.120 30.9198 11
4 0 -2 689.612 30.9404 3
-4 0 2 799.705 34.5649 9
-4 0 2 697.862 32.1449 7
4 0 -2 756.108 31.1622 3
4 0 -2 618.923 33.1215 6
4 0 -2 621.831 32.0005 7
-4 0 2 700.755 30.9990 3
-4 0 2 699.355 30.8731 11
4 0 -2 684.161 30.3880 13
4 0 -2 672.859 38.9375 4
-4 0 2 731.997 30.4460 13
4 0 -2 737.214 34.5052 9
-4 0 2 722.238 31.0393 3
3 0 -2 58.7527 3.43046 9
3 0 -2 51.1554 3.12347 11
3 0 -2 54.4329 3.13233 3
3 0 -2 42.8533 2.82399 13
-3 0 2 48.0680 3.03717 11
3 0 -2 45.3637 2.93556 3
-3 0 2 59.5092 3.43315 9
-3 0 2 52.3814 3.08576 3
-3 0 2 56.4427 2.91945 12
3 0 -2 53.6022 3.06490 8
-3 0 2 43.8490 3.00299 7
-3 0 2 49.7984 3.08366 3
-3 0 2 47.7530 2.93778 13
2 0 -2 0.69692 0.60135 7
2 0 -2 2.19161 0.74390 13
-2 0 2 1.67565 0.83487 9
2 0 -2 1.26335 0.68111 9
-2 0 2 1.29128 0.77297 13
2 0 -2 2.15354 0.64090 12
2 0 -2 2.13710 0.84414 8
-2 0 2 2.43168 0.72838 3
2 0 -2 1.61773 0.77425 3
-2 0 2 1.24633 0.75358 7
-2 0 2 2.16991 0.82811 12
2 0 -2 2.31280 0.78792 3
2 0 -2 1.38922 0.83134 11
-2 0 2 2.73731 0.79044 3
-2 0 2 1.88054 0.71105 8
-2 0 2 2.81846 0.82368 11
-1 0 2 944.093 42.0098 13
-1 0 2 980.232 42.8217 3
1 0 -2 954.582 42.8524 8
1 0 -2 998.480 42.5342 11
-1 0 2 1004.76 47.6317 9
-1 0 2 971.400 42.7724 3
-1 0 2 974.508 41.2512 12
1 0 -2 968.168 42.7641 3
1 0 -2 1022.32 43.3881 2
-1 0 2 1044.14 42.5588 11
1 0 -2 958.112 44.5236 7
1 0 -2 972.415 42.0187 13
1 0 -2 988.963 41.2487 12
1 0 -2 994.178 46.2038 6
1 0 -2 989.848 47.6288 9
1 0 -2 985.331 42.8042 3
-1 0 2 1004.94 42.8931 8
0 0 -2 1000.78 43.0437 3
0 0 2 1026.34 43.0414 3
0 0 -2 1041.11 38.7351 10
0 0 2 1010.96 46.4910 6
0 0 -2 983.231 43.0557 3
0 0 2 961.451 40.3084 1
0 0 -2 937.250 47.7468 9
0 0 -2 1014.56 43.1473 8
0 0 2 951.868 47.7466 9
0 0 -2 998.737 41.5573 12
0 0 2 927.755 43.0349 3
0 0 2 1047.87 42.7675 11
0 0 2 1016.54 43.1588 8
0 0 2 930.690 41.4896 12
0 0 2 1003.75 43.6241 2
0 0 -2 1015.79 42.7453 11
0 0 -2 968.558 43.6020 2
0 0 -2 1030.36 46.5218 6
-1 0 -2 3489.39 145.315 3
1 0 2 3438.05 147.439 2
-1 0 -2 3214.98 145.460 8
1 0 2 3724.06 184.553 4
1 0 2 3336.43 145.257 3
-1 0 -2 3236.91 145.216 3
-1 0 -2 3391.62 147.185 2
1 0 2 3198.29 145.461 8
1 0 2 3027.95 156.718 6
1 0 2 3378.93 144.220 11
-1 0 -2 3419.54 140.137 12
-1 0 -2 3285.68 156.794 6
-1 0 -2 3811.28 184.677 4
-1 0 -2 3198.71 144.240 11
1 0 2 3346.52 145.265 3
1 0 2 3450.55 140.120 12
2 0 2 859.489 47.2853 4
2 0 2 858.364 37.7123 2
2 0 2 821.756 37.3062 3
-2 0 -2 842.584 40.3026 6
2 0 2 859.290 37.0457 11
2 0 2 869.314 36.0596 12
2 0 2 852.523 40.3236 6
-2 0 -2 815.573 37.2590 3
-2 0 -2 821.427 37.3995 8
-2 0 -2 846.762 37.3384 3
-2 0 -2 856.194 37.7106 2
-2 0 -2 860.100 37.1164 11
2 0 2 871.601 37.3339 3
-2 0 -2 849.980 36.0641 12
2 0 2 857.674 37.4827 8
-2 0 -2 867.759 38.9131 7
-2 0 -2 890.141 47.3504 4
-3 0 -2 8352.60 367.609 13
3 0 2 8624.71 374.993 3
-3 0 -2 8641.64 361.857 12
-3 0 -2 8310.70 375.051 8
-3 0 -2 8538.91 390.141 7
-3 0 -2 8082.04 374.660 3
3 0 2 9045.98 376.406 8
-3 0 -2 8931.53 372.200 11
3 0 2 8559.51 361.377 12
-3 0 -2 8458.07 404.937 6
3 0 2 9186.66 380.498 2
3 0 2 8758.87 371.987 11
-3 0 -2 9384.57 477.199 4
3 0 2 8231.25 475.199 4
3 0 2 8726.96 374.681 3
3 0 2 9037.95 405.022 6
-3 0 -2 8745.35 379.918 2
-3 0 -2 9147.71 375.484 3
-4 0 -2 248.758 12.6230 7
-4 0 -2 244.715 12.1564 8
-4 0 -2 281.294 11.9324 12
4 0 2 270.102 12.2848 3
-4 0 -2 275.138 12.1557 11
4 0 2 259.875 12.1083 3
4 0 2 256.279 13.1297 6
-4 0 -2 259.651 12.0148 2
-4 0 -2 281.798 15.6519 4
4 0 2 242.749 15.3036 4
4 0 2 270.665 12.0330 2
-4 0 -2 247.210 13.0302 6
-4 0 -2 250.565 11.9020 13
4 0 2 265.514 12.0397 11
4 0 2 257.618 12.2863 8
-4 0 -2 252.677 12.0363 3
-4 0 -2 248.006 12.1792 3
5 0 2 273.379 13.4692 3
-5 0 -2 291.498 13.5322 11
-5 0 -2 300.861 13.4314 3
5 0 2 292.437 14.7501 6
5 0 2 286.020 13.2888 2
5 0 2 310.902 13.7710 3
-5 0 -2 296.837 14.4714 6
5 0 2 284.341 13.5763 13
5 0 2 261.899 13.6834 8
-5 0 -2 256.141 17.1286 4
-5 0 -2 305.358 13.2981 2
-5 0 -2 268.707 13.4065 12
6 0 2 113.624 7.27920 3
6 0 2 115.771 6.22941 2
-6 0 -2 106.419 8.42155 4
6 0 2 116.797 7.31591 8
-6 0 -2 110.316 6.24032 2
6 0 2 111.907 6.64122 3
-6 0 -2 93.6336 6.79042 6
-6 0 -2 115.117 7.31051 12
-6 0 -2 114.252 7.11958 11
-6 0 -2 117.635 6.47020 3
6 0 2 122.445 7.21116 13
7 0 2 32.5116 4.16460 3
-7 0 -2 37.7142 5.50568 4
7 0 2 34.2580 5.33235 13
7 0 2 33.1942 3.89182 2
-7 0 -2 25.1868 3.40032 6
-7 0 -2 22.3687 4.18006 12
-7 0 -2 20.1866 3.83797 11
7 0 2 23.5962 3.81103 9
-7 0 -2 27.3230 4.49791 3
-9 0 -2 -7.8047 5.28578 11
9 0 2 1.07897 3.70719 2
9 0 2 4.00158 4.24410 3
-9 0 -2 1.98925 4.65627 3
9 0 2 2.55899 5.49082 8
-9 0 -2 -5.9877 3.46296 6
-10 0 -2 149.538 15.0823 4
10 0 2 155.767 11.0087 3
-10 0 -2 164.695 10.8000 6
-10 0 -2 141.105 12.4074 11
-10 0 -2 153.622 11.5805 3
10 0 2 124.102 13.7342 8
-10 0 -2 146.216 13.4266 12
-11 0 -2 4.36043 6.24725 6
-11 0 -2 -0.6948 7.82538 4
-11 0 -2 6.48916 7.60268 3
-11 0 -2 1.02649 9.03069 11
11 0 2 4.55424 7.19568 3
11 0 2 4.86070 8.57260 8
-11 0 -2 -1.8284 8.37900 12
-11 -1 2 2.23372 7.62180 12
-11 -1 2 10.1092 7.16670 3
-11 -1 2 11.1540 7.03740 11
11 -1 -2 4.87424 7.40774 13
-11 -1 2 10.6863 8.04664 4
11 -1 -2 4.28696 6.46888 3
11 -1 -2 2.53954 7.81722 7
-11 1 2 -4.9772 6.61918 3
11 1 -2 4.18892 7.98602 8
-11 1 2 4.54845 8.48585 4
-11 1 2 7.01507 7.79997 9
-11 1 2 13.7612 7.84842 11
11 1 -2 -7.4807 6.87626 3
11 1 -2 9.14874 7.55920 13
11 1 -2 13.8159 5.57816 2
10 -1 -2 95.5936 9.92191 7
10 -1 -2 87.0810 9.25013 3
-10 -1 2 108.122 9.16760 3
-10 -1 2 85.0619 9.25455 11
10 -1 -2 101.249 9.81776 13
10 -1 -2 97.4246 10.7102 8
-10 1 2 77.6617 9.02913 3
-10 1 2 90.8481 9.67984 11
10 1 -2 108.180 7.70625 2
10 1 -2 82.6645 9.56238 3
-10 1 2 89.3344 10.9181 9
10 1 -2 89.0776 9.95903 7
-9 -1 2 6.55190 4.19660 3
9 -1 -2 12.4875 4.94696 7
9 -1 -2 2.39188 4.25695 3
9 -1 -2 2.57812 4.38322 13
-9 -1 2 6.82152 5.19036 4
9 1 -2 2.34416 4.59656 3
-9 1 2 6.95466 4.79856 11
9 1 -2 12.7404 3.98239 2
-9 1 2 5.58881 5.21895 4
-9 1 2 7.11020 4.40350 3
9 1 -2 7.62167 4.81903 7
-9 1 2 7.20386 4.86311 9
-8 -1 2 288.669 16.6211 4
-8 -1 2 229.676 13.4862 11
-8 -1 2 238.409 13.2355 3
8 -1 -2 266.850 13.7813 7
8 -1 -2 256.183 13.1600 13
8 -1 -2 236.418 13.4029 3
8 1 -2 247.298 13.0855 13
-8 1 2 294.660 14.9213 9
-8 1 2 258.179 16.2958 4
8 1 -2 237.281 13.5371 3
8 1 -2 259.828 13.4224 7
-8 1 2 243.884 13.3336 3
-8 1 2 243.451 13.4608 11
8 1 -2 261.682 12.7714 2
7 -1 -2 35.3795 5.13892 7
-7 -1 2 44.1012 5.13099 11
-7 -1 2 48.9753 4.96074 3
7 -1 -2 46.9565 4.72629 13
-7 -1 2 45.8539 5.96886 4
7 -1 -2 49.1907 5.02108 3
7 1 -2 44.7888 5.15313 3
7 1 -2 51.3190 4.42518 2
7 1 -2 56.3009 4.06436 7
-7 1 2 44.3269 5.00734 11
7 1 -2 44.3652 4.83407 13
-7 1 2 45.3742 5.80088 9
-7 1 2 48.4699 5.02012 3
-6 -1 2 204.400 10.3553 11
-6 -1 2 211.016 11.4692 9
-6 -1 2 186.696 10.0379 7
-6 -1 2 218.359 12.7584 4
-6 -1 2 201.707 10.1457 3
6 -1 -2 202.624 10.3359 3
6 -1 -2 205.169 10.0342 13
6 -1 -2 175.171 10.3179 7
-6 1 2 204.395 10.2869 3
-6 1 2 198.921 11.1850 9
6 1 -2 178.258 9.79620 13
-6 1 2 189.240 10.1771 11
-6 1 2 185.040 12.5669 4
6 1 -2 207.898 10.3744 3
6 1 -2 203.452 9.87350 2
6 1 -2 207.386 9.92786 7
-5 -1 2 5.15272 2.08629 4
5 -1 -2 4.97675 1.79018 3
5 -1 -2 2.55702 1.28874 7
5 -1 -2 4.25170 1.95733 3
-5 -1 2 4.68016 1.67878 9
-5 -1 2 1.86543 1.72095 3
-5 -1 2 0.13951 1.66529 7
-5 -1 2 -0.6786 1.81727 3
-5 -1 2 1.60220 1.63499 11
5 -1 -2 2.04589 1.79687 4
5 -1 -2 1.83535 1.23271 13
5 1 -2 2.64735 1.32327 2
5 1 -2 1.53561 1.65742 6
-5 1 2 4.25254 1.72249 9
5 1 -2 4.32726 1.32023 7
-5 1 2 1.45830 1.61781 11
5 1 -2 3.44598 1.75312 3
-5 1 2 1.89819 1.72189 4
-5 1 2 5.29201 1.66958 3
5 1 -2 3.91287 1.43834 13
-5 1 2 -3.0279 2.01196 7
4 -1 -2 60.8944 3.70264 3
4 -1 -2 56.8256 3.75010 11
4 -1 -2 54.9796 4.09800 9
4 -1 -2 60.5175 3.54551 3
-4 -1 2 62.9473 3.71410 3
-4 -1 2 53.1698 3.45488 13
-4 -1 2 58.2062 4.03464 9
4 -1 -2 58.5864 3.63963 7
-4 -1 2 56.3506 3.56985 11
4 -1 -2 61.0282 3.25320 2
4 -1 -2 58.4419 3.31388 13
-4 -1 2 54.7193 3.65411 3
4 1 -2 59.6747 3.38596 2
-4 1 2 58.3062 3.69261 11
4 1 -2 52.0383 3.95505 9
-4 1 2 54.7182 3.39910 13
-4 1 2 55.1889 3.63635 3
-4 1 2 46.2536 4.30960 4
-4 1 2 52.7657 3.80737 9
4 1 -2 55.0018 3.67474 3
4 1 -2 59.3782 3.46220 13
-4 1 2 61.1170 4.02454 7
-4 1 2 59.7955 3.70443 3
4 1 -2 54.1044 3.78150 11
4 1 -2 60.2526 3.54485 3
4 1 -2 58.0099 3.79091 6
-3 -1 2 913.269 38.7769 13
3 -1 -2 920.740 39.7524 2
-3 -1 2 925.228 44.0206 9
3 -1 -2 892.592 39.5727 3
-3 -1 2 917.373 39.4450 3
-3 -1 2 955.031 39.3408 11
3 -1 -2 891.634 38.6520 13
3 -1 -2 861.730 43.9561 9
3 -1 -2 862.772 39.4195 3
3 -1 -2 912.568 41.1664 7
3 -1 -2 917.398 39.3202 11
-3 -1 2 925.080 39.4878 3
3 1 -2 897.984 38.7331 13
-3 1 2 872.945 43.9368 9
3 1 -2 922.159 39.5149 3
-3 1 2 896.075 39.5452 3
3 1 -2 881.029 39.2432 11
-3 1 2 854.940 39.4876 3
-3 1 2 918.382 39.3243 11
-3 1 2 898.904 38.1091 12
-3 1 2 927.964 41.2208 7
-3 1 2 938.454 38.7213 13
3 1 -2 900.985 39.3843 3
3 1 -2 862.903 43.9178 9
2 -1 -2 25.0952 1.79642 12
2 -1 -2 24.8977 1.73689 2
-2 -1 2 25.1257 1.85092 13
2 -1 -2 24.2159 1.89696 3
-2 -1 2 25.3543 1.81469 11
2 -1 -2 23.2181 1.61859 13
2 -1 -2 25.0782 1.95575 11
2 -1 -2 25.5643 1.97961 3
2 -1 -2 21.3129 1.85696 7
-2 -1 2 24.8513 1.75210 3
2 -1 -2 28.8180 2.05779 9
2 -1 -2 26.9440 1.82428 6
-2 -1 2 22.9670 1.72829 3
-2 -1 2 29.3686 2.08202 9
2 1 -2 26.0156 1.84318 3
-2 1 2 23.2509 1.96058 3
2 1 -2 27.0796 1.76323 3
2 1 -2 26.0410 2.02713 9
-2 1 2 28.9677 1.94615 12
-2 1 2 24.7159 1.92460 3
-2 1 2 23.8876 1.70539 2
-2 1 2 20.2073 1.99744 7
2 1 -2 24.5969 1.93494 8
2 1 -2 25.2217 1.82538 11
2 1 -2 23.9597 1.72011 13
-2 1 2 27.7802 1.91151 11
-2 1 2 29.2992 2.12434 9
-2 1 2 25.0417 1.75442 13
1 -1 -2 1532.91 63.8873 13
1 -1 -2 1445.52 70.2139 6
-1 -1 2 1460.31 65.2703 8
-1 -1 2 1554.48 63.9860 13
-1 -1 2 1421.78 64.9975 3
1 -1 -2 1436.46 67.9155 7
1 -1 -2 1483.79 65.1653 8
-1 -1 2 1565.10 64.6345 11
1 -1 -2 1551.77 65.2756 3
1 -1 -2 1522.81 62.9243 12
1 -1 -2 1610.95 66.0493 2
-1 -1 2 1488.63 65.0104 3
1 -1 -2 1534.49 72.6210 9
1 -1 -2 1476.60 65.2698 3
1 -1 -2 1491.92 64.8225 11
-1 1 2 1444.06 65.1588 8
1 1 -2 1554.90 63.9698 13
-1 1 2 1549.53 65.3229 3
-1 1 2 1479.93 67.9630 7
1 1 -2 1425.35 65.0132 3
-1 1 2 1468.06 64.8112 11
1 1 -2 1531.52 72.5373 9
-1 1 2 1569.69 62.9523 12
-1 1 2 1551.76 63.9025 13
-1 1 2 1595.41 66.0312 2
-1 1 2 1479.93 70.2277 6
1 1 -2 1412.58 64.5923 11
1 1 -2 1499.37 65.3144 8
-1 1 2 1579.88 72.6230 9
-1 1 2 1471.57 65.2439 3
1 1 -2 1566.61 61.2526 1
1 1 -2 1432.83 64.9660 3
0 -1 -2 643.756 29.5302 6
0 -1 -2 626.657 27.4421 3
0 -1 2 622.259 24.6218 10
0 -1 -2 614.653 30.3880 9
0 -1 -2 645.589 27.3765 8
0 -1 -2 674.957 27.3161 11
0 -1 -2 597.769 27.4326 3
0 -1 -2 601.093 26.4202 12
0 -1 -2 596.940 27.6850 2
0 -1 -2 590.234 28.5333 7
0 -1 2 668.519 24.9697 5
0 -1 2 670.495 26.9435 11
0 -1 -2 607.941 34.5736 4
0 -1 2 629.004 25.7451 1
0 -1 2 650.197 27.4064 8
0 1 2 638.441 27.2842 11
0 1 2 627.745 29.4914 6
0 1 -2 584.729 30.2087 9
0 1 2 587.042 30.3456 9
0 1 2 566.856 27.4181 3
0 1 2 623.999 27.4263 3
0 1 -2 640.226 29.5370 6
0 1 2 623.455 26.4650 12
0 1 2 629.832 27.3596 8
0 1 2 604.592 27.7038 2
0 1 2 657.858 27.2838 11
0 1 -2 649.380 28.3366 7
0 1 2 585.640 34.5369 4
0 1 -2 649.563 27.4135 8
-1 -1 -2 466.793 23.2340 6
-1 -1 -2 526.838 21.7331 3
-1 -1 -2 490.188 21.5342 11
1 -1 2 477.766 22.3343 7
-1 -1 -2 504.511 27.2620 4
1 -1 2 494.262 23.1972 6
1 -1 2 520.198 20.7057 12
-1 -1 -2 510.206 20.8566 12
1 -1 2 495.428 19.3958 10
-1 -1 -2 490.449 23.8131 9
1 -1 2 499.535 27.1334 4
-1 -1 -2 486.960 21.8045 2
1 -1 2 479.904 19.4918 5
-1 -1 -2 461.580 21.5433 8
-1 -1 -2 464.700 21.5766 3
1 -1 2 491.164 21.5338 8
1 1 2 495.731 21.4785 11
1 1 2 492.269 23.8127 9
1 1 2 512.576 21.6526 3
-1 1 -2 484.319 22.3378 7
-1 1 -2 479.545 20.6523 12
-1 1 -2 492.876 19.4066 10
1 1 2 463.095 21.7854 2
1 1 2 489.735 20.7968 12
-1 1 -2 481.696 19.4883 5
-1 1 -2 461.503 21.4824 8
-1 1 -2 483.587 23.1905 6
1 1 2 499.745 27.2145 4
1 1 2 463.531 23.2579 6
1 1 2 474.266 21.6000 8
-1 1 -2 478.271 27.1016 4
-1 1 -2 506.064 21.6568 2
-2 -1 -2 977.998 42.0789 2
2 -1 2 941.394 41.2892 3
-2 -1 -2 909.994 44.8493 6
-2 -1 -2 978.401 52.7216 4
2 -1 2 968.615 44.7430 6
-2 -1 -2 931.339 41.6201 8
2 -1 2 970.312 41.5775 8
2 -1 2 931.192 52.5672 4
-2 -1 -2 947.667 41.5984 3
2 -1 2 973.709 41.3320 3
-2 -1 -2 979.546 40.1508 12
-2 -1 -2 924.379 40.7086 13
2 -1 2 940.213 43.2757 7
2 -1 2 994.647 41.0221 11
-2 -1 -2 961.943 41.4131 11
-2 -1 -2 937.434 41.6674 3
-2 1 -2 957.318 52.6084 4
-2 1 -2 933.690 43.2257 7
-2 1 -2 961.416 40.0698 12
2 1 2 950.157 46.0305 9
2 1 2 931.338 52.6118 4
-2 1 -2 945.799 37.4805 10
-2 1 -2 969.119 41.3550 3
2 1 2 953.416 42.0890 2
-2 1 -2 967.086 41.0478 11
-2 1 -2 952.375 41.5376 8
2 1 2 949.433 40.0852 12
2 1 2 970.057 41.3632 11
2 1 2 956.958 41.6581 3
2 1 2 908.444 44.8655 6
2 1 2 950.094 41.6962 8
-2 1 -2 938.673 37.6659 5
-2 1 -2 937.056 41.2533 3
-2 1 -2 973.147 41.8354 2
2 1 2 946.315 41.6356 3
-2 1 -2 949.926 44.7360 6
3 -1 2 25.1102 1.96147 11
3 -1 2 27.5152 1.95260 3
3 -1 2 24.7339 2.20992 8
3 -1 2 29.3858 1.82132 2
-3 -1 -2 21.0126 2.03975 3
-3 -1 -2 22.3087 2.05265 13
3 -1 2 24.5991 2.15965 3
-3 -1 -2 29.0685 2.55229 3
-3 -1 -2 22.3483 2.29479 2
-3 -1 -2 20.3968 2.47715 6
3 -1 2 23.0044 2.25578 6
-3 -1 -2 21.3951 2.29789 8
3 -1 2 24.7896 2.10053 7
3 -1 2 20.5387 2.89316 4
-3 -1 -2 30.2990 2.28755 12
-3 -1 -2 25.5003 2.31181 11
-3 1 -2 25.9577 2.33744 6
3 1 2 27.8566 2.29720 12
3 1 2 26.2839 2.31350 11
-3 1 -2 17.8706 2.91063 4
3 1 2 23.5583 2.09538 3
-3 1 -2 28.7076 1.89570 2
-3 1 -2 24.1366 2.10958 13
3 1 2 20.0117 2.29209 8
-3 1 -2 27.3836 2.03693 10
-3 1 -2 26.1608 1.92059 11
-3 1 -2 25.4943 2.18938 12
-3 1 -2 27.8012 2.21491 3
-3 1 -2 21.9904 2.18742 8
3 1 2 19.0693 2.60702 6
3 1 2 23.5180 2.43784 3
-3 1 -2 24.7397 1.88430 3
3 1 2 24.7101 2.24853 2
-3 1 -2 23.6456 1.55320 5
-3 1 -2 18.9193 2.23964 7
-4 -1 -2 598.008 35.8772 4
-4 -1 -2 660.877 28.3238 11
4 -1 2 624.468 30.2683 6
-4 -1 -2 569.892 28.3412 3
-4 -1 -2 658.427 28.2973 3
-4 -1 -2 635.308 29.3750 7
4 -1 2 641.952 29.5413 7
4 -1 2 636.155 28.0862 2
4 -1 2 621.439 28.0605 3
4 -1 2 654.251 27.8909 11
-4 -1 -2 654.218 28.4763 2
4 -1 2 686.308 28.2088 3
-4 -1 -2 603.303 27.6590 13
-4 -1 -2 651.195 30.5243 6
4 -1 2 686.968 28.3635 8
-4 -1 -2 619.516 27.3349 12
4 1 2 586.658 27.2454 12
4 1 2 629.633 28.3869 3
-4 1 -2 635.997 30.2799 6
-4 1 -2 606.414 35.8287 4
-4 1 -2 650.636 28.0102 3
-4 1 -2 658.299 25.3866 5
-4 1 -2 639.757 25.6708 10
-4 1 -2 600.219 27.3243 12
-4 1 -2 619.495 27.7089 13
4 1 2 610.368 28.3122 3
-4 1 -2 671.690 27.9995 11
4 1 2 657.159 28.4801 8
4 1 2 642.740 28.5045 2
4 1 2 622.029 30.5460 6
-4 1 -2 672.497 28.2759 8
4 1 2 615.784 30.9169 9
4 1 2 651.677 28.1966 11
-4 1 -2 603.734 28.1528 3
-5 -1 -2 60.0939 4.61706 2
5 -1 2 69.0582 4.64313 11
5 -1 2 73.2135 4.99006 3
-5 -1 -2 89.1798 5.60568 12
-5 -1 -2 67.5555 5.14288 6
-5 -1 -2 72.7841 5.24826 11
-5 -1 -2 70.3336 4.76060 3
5 -1 2 78.1536 4.80541 8
5 -1 2 64.2946 4.96968 7
5 -1 2 75.5684 4.65289 3
-5 1 -2 83.2429 6.04039 4
-5 1 -2 69.9648 4.50001 11
5 1 2 79.5615 4.69056 2
5 1 2 68.1857 5.13492 3
-5 1 -2 64.8247 4.73900 6
5 1 2 77.8027 4.58451 9
5 1 2 77.2232 5.00501 3
5 1 2 81.1286 5.29480 13
-5 1 -2 72.9833 5.10207 12
-5 1 -2 72.5442 4.57748 3
-6 -1 -2 230.430 13.3624 6
6 -1 2 255.696 13.0711 8
6 -1 2 265.504 12.9098 3
6 -1 2 247.033 13.3333 7
-6 -1 -2 285.848 12.8421 12
-6 -1 -2 261.276 12.7044 3
6 -1 2 235.506 13.5557 6
6 -1 2 260.186 12.5982 3
-6 -1 -2 287.934 16.3472 4
-6 -1 -2 267.119 13.0724 11
-6 -1 -2 249.470 12.6115 2
6 1 2 246.598 13.1213 8
6 1 2 267.705 12.7997 3
-6 1 -2 253.701 12.7947 11
-6 1 -2 257.362 12.4314 3
6 1 2 268.819 12.6232 2
6 1 2 271.935 13.0125 13
-6 1 -2 256.149 12.6259 12
-6 1 -2 258.512 13.2934 6
6 1 2 252.566 13.3789 9
-6 1 -2 240.872 15.8703 4
-7 -1 -2 156.032 8.95371 6
7 -1 2 162.520 9.43246 8
7 -1 2 155.819 9.77806 3
-7 -1 -2 157.841 9.32010 12
7 -1 2 160.226 8.66402 3
7 -1 2 149.859 9.44977 7
-7 -1 -2 155.507 8.77277 3
-7 -1 -2 152.643 11.3371 4
-7 -1 -2 159.920 9.42258 11
7 1 2 154.657 8.88612 3
7 1 2 143.932 8.55199 2
-7 1 -2 143.518 11.0284 4
-7 1 -2 147.111 9.09637 12
7 1 2 155.881 9.51667 13
-7 1 -2 154.218 8.96313 6
-7 1 -2 156.850 8.69119 3
7 1 2 163.609 9.62642 8
-7 1 -2 143.935 9.02693 11
-8 -1 -2 29.2686 4.86435 3
8 -1 2 39.3630 5.10127 3
-8 -1 -2 29.8065 5.14264 12
8 -1 2 33.0914 5.42995 9
-8 -1 -2 23.8763 4.97580 11
-8 -1 -2 38.5484 4.73862 6
8 -1 2 29.8113 5.50746 8
8 -1 2 30.9101 5.89894 7
8 1 2 28.9582 5.46380 8
-8 1 -2 33.4325 4.55664 6
8 1 2 35.6457 5.31025 3
-8 1 -2 27.9632 5.21858 11
-8 1 -2 30.8257 4.81949 3
8 1 2 24.2704 3.96269 2
9 -1 2 18.2731 5.06331 3
9 -1 2 19.0319 6.00197 7
-9 -1 -2 14.1503 6.13906 11
9 -1 2 12.2337 5.70384 8
-9 -1 -2 13.2817 4.18747 6
-9 -1 -2 16.3017 4.86115 3
-9 1 -2 11.8084 3.77864 6
-9 1 -2 19.3610 5.13203 3
9 1 2 12.3706 5.01733 3
-9 1 -2 11.0519 5.71442 11
9 1 2 13.0213 4.00447 2
-10 -1 -2 3.36385 7.21046 4
-10 -1 -2 9.44340 4.68757 6
-10 -1 -2 -11.716 7.16741 12
10 -1 2 12.6012 5.52156 3
-10 -1 -2 -2.0817 7.09136 11
-10 -1 -2 10.0193 6.05496 3
-10 1 -2 -10.151 6.90244 11
-10 1 -2 -2.0208 6.16727 3
-10 1 -2 1.61732 4.54890 6
10 1 2 0.69083 4.65212 2
-10 1 -2 4.19492 6.61450 4
10 1 2 11.5287 6.04819 3
-10 1 -2 2.69939 7.38743 12
10 1 2 7.67194 7.41295 8
-11 -1 -2 62.4965 10.1536 12
-11 -1 -2 72.0262 11.6637 3
-11 -1 -2 67.3423 13.5508 4
-11 -1 -2 38.5034 10.6863 11
11 -1 2 71.4601 10.2471 3
-11 -1 -2 69.4324 10.1718 6
11 -1 2 53.9022 10.2067 8
-11 1 -2 70.2813 9.26981 6
11 1 2 66.7159 10.8746 8
-11 1 -2 51.7480 9.20776 3
-11 1 -2 45.8591 10.3996 12
-11 1 -2 67.9542 13.7108 4
-11 1 -2 43.9923 10.1318 11
11 1 2 93.8075 11.0889 3
-11 -2 2 6.25562 8.46870 12
-11 -2 2 -4.9573 8.61339 4
-11 -2 2 10.4306 7.22663 3
-11 -2 2 14.4198 7.36352 11
11 -2 -2 15.0701 7.20143 3
11 -2 -2 21.3255 8.11382 13
11 -2 -2 20.1006 9.05876 7
-11 2 2 18.2716 8.42329 4
-11 2 2 7.80705 7.25495 3
11 2 -2 -1.9498 7.67059 3
11 2 -2 22.1276 5.85523 2
11 2 -2 8.52941 7.64953 8
-11 2 2 14.8508 8.10330 9
11 2 -2 8.51490 8.13897 13
-11 2 2 -1.1155 8.20451 11
10 -2 -2 18.5998 6.50184 13
10 -2 -2 41.6390 6.99235 7
-10 -2 2 21.0350 7.28062 12
10 -2 -2 13.7359 5.89781 3
-10 -2 2 15.2553 5.87652 3
-10 2 2 20.0942 6.59015 3
10 2 -2 24.8546 6.60048 3
-10 2 2 19.6007 6.77850 11
-10 2 2 27.0601 6.98193 9
10 2 -2 27.1707 5.58748 2
10 2 -2 23.5961 6.70130 13
9 -2 -2 28.4284 5.48376 3
-9 -2 2 28.8259 5.07694 3
-9 -2 2 18.9190 6.03465 4
9 -2 -2 32.8400 5.82902 7
-9 -2 2 26.7655 5.77421 12
9 -2 -2 12.0177 5.05782 13
9 2 -2 27.4960 5.51424 3
-9 2 2 22.3940 6.08293 11
9 2 -2 24.2997 5.78523 13
9 2 -2 36.7718 5.56704 2
-9 2 2 24.5078 5.51884 3
-9 2 2 21.8140 5.63005 9
-8 -2 2 39.5087 7.25110 4
-7 -2 2 25.5094 3.73042 3
7 -2 -2 20.6493 3.72387 3
-7 -2 2 14.8224 4.17528 4
7 -2 -2 19.3592 3.51158 7
7 -2 -2 19.8602 3.72717 13
-7 -2 2 14.8531 3.68902 11
7 2 -2 21.1687 3.74005 13
7 2 -2 25.4462 4.24841 3
-7 2 2 22.1452 3.84772 3
7 2 -2 23.7631 3.62233 2
-7 2 2 22.8636 3.97812 9
-7 2 2 16.6902 3.59988 11
-6 -2 2 200.468 10.5292 3
6 -2 -2 207.581 10.8968 3
6 -2 -2 203.225 10.6565 3
6 -2 -2 196.148 11.0912 7
-6 -2 2 205.971 10.9525 11
6 -2 -2 216.312 10.4896 13
-6 -2 2 222.917 13.6700 4
-6 2 2 220.649 10.9077 11
6 2 -2 199.466 10.4616 13
-6 2 2 208.412 11.8737 9
6 2 -2 207.664 10.5929 2
-6 2 2 242.556 13.6961 4
-6 2 2 209.668 10.8499 3
-6 2 2 206.249 9.32262 10
6 2 -2 228.254 11.0954 3
5 -2 -2 124.639 6.73890 13
-5 -2 2 132.788 7.46964 11
-5 -2 2 124.742 6.93669 3
5 -2 -2 124.202 7.21036 3
5 -2 -2 135.079 7.68503 7
-5 -2 2 138.797 7.17499 3
5 -2 -2 130.526 7.08163 3
5 2 -2 132.964 7.01137 13
-5 2 2 136.621 8.81136 4
5 2 -2 133.366 7.15113 2
-5 2 2 130.182 6.79427 13
-5 2 2 141.421 7.32762 3
-5 2 2 130.167 7.84932 9
5 2 -2 129.045 7.06798 3
-5 2 2 132.533 7.08256 11
-5 2 2 138.409 6.11886 10
5 2 -2 152.017 9.16732 4
-4 -2 2 556.550 24.7636 3
-4 -2 2 600.689 31.3193 4
4 -2 -2 588.553 24.9727 3
4 -2 -2 537.298 24.7338 3
-4 -2 2 566.505 24.8309 3
-4 -2 2 567.360 24.3859 13
4 -2 -2 541.329 24.7443 11
4 -2 -2 541.868 27.6412 9
-4 -2 2 599.322 24.8275 11
4 -2 -2 544.648 24.1466 13
4 -2 -2 552.857 25.9865 7
4 2 -2 574.071 24.3668 13
4 2 -2 467.284 26.6716 6
-4 2 2 541.687 24.8172 3
4 2 -2 516.882 24.6853 11
-4 2 2 572.923 24.2132 13
4 2 -2 568.789 31.2068 4
-4 2 2 552.849 24.3179 12
4 2 -2 491.655 24.6295 3
4 2 -2 552.246 25.1398 2
-4 2 2 582.236 31.3810 4
-4 2 2 583.505 26.1575 7
-4 2 2 569.947 24.9066 3
-4 2 2 575.950 27.6168 9
-4 2 2 565.459 24.7430 11
4 2 -2 570.492 24.8279 3
4 2 -2 517.065 27.5559 9
3 -2 -2 354.816 15.8269 13
-3 -2 2 391.906 16.3142 3
-3 -2 2 336.959 16.1766 3
3 -2 -2 355.226 16.3399 3
-3 -2 2 382.693 16.0450 13
-3 -2 2 391.788 16.3111 11
3 -2 -2 381.626 18.3100 9
3 -2 -2 332.660 17.1052 7
3 -2 -2 386.616 16.2539 2
3 -2 -2 381.305 16.5116 3
3 -2 -2 334.984 16.2694 11
3 2 -2 314.842 17.6382 6
-3 2 2 362.105 20.5986 4
-3 2 2 410.302 18.3509 9
-3 2 2 373.672 16.2070 2
-3 2 2 362.237 15.8358 13
3 2 -2 340.240 16.2103 11
-3 2 2 345.209 16.2603 11
-3 2 2 346.069 16.3472 3
3 2 -2 326.237 16.5203 2
-3 2 2 372.659 15.8927 12
3 2 -2 374.576 16.2835 3
3 2 -2 366.535 15.9801 13
3 2 -2 357.112 18.1764 9
3 2 -2 317.712 16.1213 3
-3 2 2 384.934 16.5087 3
-3 2 2 374.883 17.2867 7
-2 -2 2 7712.32 322.590 3
-2 -2 2 7246.57 316.112 13
2 -2 -2 7715.17 322.757 3
2 -2 -2 7740.00 326.843 2
-2 -2 2 7639.30 322.691 3
2 -2 -2 6930.00 336.086 7
2 -2 -2 7385.60 320.066 11
-2 -2 2 8114.76 295.829 5
2 -2 -2 7449.81 311.331 12
2 -2 -2 7506.68 316.220 13
-2 -2 2 8206.73 320.593 11
2 -2 -2 7265.58 322.298 3
2 -2 -2 7242.18 359.205 9
-2 2 2 7960.19 327.314 2
2 2 -2 7195.78 319.858 11
-2 2 2 7804.74 323.146 3
2 2 -2 7561.43 327.501 2
-2 2 2 6828.33 322.246 3
2 2 -2 7447.22 302.703 1
2 2 -2 7531.99 322.404 3
2 2 -2 7198.71 322.635 8
-2 2 2 7298.08 315.943 13
2 2 -2 7508.29 322.536 3
-2 2 2 7378.34 310.886 12
-2 2 2 7860.56 360.661 9
-2 2 2 7586.69 320.499 11
2 2 -2 7599.64 316.448 13
-2 2 2 6812.11 335.679 7
1 -2 -2 2311.64 100.855 2
1 -2 -2 2350.77 99.7277 3
1 -2 -2 2304.14 96.0878 12
1 -2 -2 2394.56 99.0113 11
1 -2 -2 2351.78 107.243 6
-1 -2 2 2504.42 98.6570 11
1 -2 -2 2226.62 111.027 9
1 -2 -2 2341.57 103.838 7
-1 -2 2 2284.46 93.6091 1
1 -2 -2 2298.89 99.7056 3
-1 -2 2 2209.60 97.5939 13
-1 -2 2 2455.81 91.1099 5
1 2 -2 2241.78 99.6417 8
-1 2 2 2226.54 96.0922 12
1 2 -2 2202.92 93.5743 1
-1 2 2 2252.56 99.6410 3
1 2 -2 2301.62 97.5765 13
-1 2 2 2400.85 99.0161 11
-1 2 2 2232.56 111.008 9
-1 2 2 2331.60 99.7710 3
-1 2 2 2225.55 100.841 2
1 2 -2 2272.06 98.5995 11
-1 2 2 2363.81 107.260 6
-1 2 2 2192.53 103.794 7
0 -2 -2 643.789 28.4104 12
0 -2 2 704.035 26.9353 5
0 -2 -2 658.111 32.8032 9
0 -2 2 662.403 27.7669 1
0 -2 -2 694.272 29.3094 8
0 -2 2 692.286 29.3745 8
0 -2 -2 689.872 31.6771 6
0 -2 -2 652.177 37.3194 4
0 -2 -2 649.871 30.7112 7
0 -2 2 703.454 30.3918 7
0 -2 -2 692.517 29.8351 2
0 -2 -2 610.355 29.5001 3
0 -2 -2 657.377 29.5292 3
0 2 2 663.416 29.5232 3
0 2 2 649.708 32.7923 9
0 2 2 640.028 28.4277 12
0 2 2 687.100 29.3493 11
0 2 2 623.182 30.7088 7
0 2 -2 641.649 28.7433 13
0 2 -2 702.685 30.3778 7
0 2 -2 674.068 29.3671 8
0 2 2 611.549 29.5306 3
0 2 2 670.499 29.8364 2
0 2 2 716.731 29.3838 8
0 2 2 699.393 26.8317 5
0 2 2 639.482 37.3160 4
0 2 2 696.234 31.7138 6
0 2 -2 718.435 26.9577 5
0 2 2 680.013 29.3922 11
-1 -2 -2 163.980 8.21469 6
-1 -2 -2 149.567 7.66351 11
-1 -2 -2 154.566 7.65994 3
-1 -2 -2 153.983 7.34956 12
-1 -2 -2 154.123 7.78983 3
1 -2 2 157.610 6.85907 10
1 -2 2 169.504 7.76614 7
-1 -2 -2 157.015 7.69032 2
-1 -2 -2 162.783 8.43725 9
1 -2 2 167.625 7.46933 8
-1 -2 -2 149.018 9.63259 4
-1 -2 -2 164.029 7.54732 8
1 -2 2 167.603 6.88140 5
1 2 2 156.335 7.72067 3
-1 2 -2 163.161 8.19514 9
-1 2 -2 158.900 6.83925 5
-1 2 -2 167.582 8.10602 6
-1 2 -2 150.761 9.39295 4
-1 2 -2 168.921 7.76011 7
1 2 2 158.973 8.19961 6
1 2 2 168.158 6.78384 5
1 2 2 140.678 7.26782 12
1 2 2 166.615 7.60292 8
1 2 2 146.553 9.60525 4
-1 2 -2 158.461 7.43450 8
1 2 2 156.008 7.66188 11
1 2 2 152.758 7.69014 2
1 2 2 159.308 8.40802 9
2 -2 2 1.05188 0.66996 5
-2 -2 -2 0.44938 0.80599 13
-2 -2 -2 -1.2880 0.97860 12
2 -2 2 -1.7171 0.72131 10
-2 -2 -2 0.74069 1.26074 3
-2 -2 -2 0.96918 1.53716 4
-2 -2 -2 0.33091 1.13179 6
-2 -2 -2 0.36143 1.36096 2
-2 -2 -2 -0.6877 0.63726 5
2 -2 2 -0.2816 1.29821 4
-2 -2 -2 0.10862 1.08178 11
-2 -2 -2 0.03731 1.00341 8
2 -2 2 -0.6327 1.08677 6
2 -2 2 -0.3608 0.94187 7
-2 -2 -2 0.17240 1.07921 3
-2 2 -2 0.45964 0.81504 9
-2 2 -2 0.82633 1.02513 6
2 2 2 0.31572 1.64215 4
2 2 2 -0.3361 1.07693 11
2 2 2 0.20576 1.19881 6
2 2 2 0.97684 1.25759 3
2 2 2 0.41325 1.00863 8
-2 2 -2 -1.5350 0.71151 5
2 2 2 0.73081 1.16607 3
2 2 2 0.72674 0.60931 5
-2 2 -2 -0.9102 1.07572 10
-2 2 -2 0.52963 0.79392 12
-2 2 -2 2.54163 1.20774 7
-2 2 -2 -0.2036 1.17392 4
2 2 2 -0.5777 0.90941 2
2 2 2 0.10522 0.97084 12
2 2 2 1.19893 1.05798 9
3 -2 2 561.371 26.7180 7
-3 -2 -2 560.741 27.7234 6
-3 -2 -2 616.983 25.9724 3
-3 -2 -2 612.254 25.8319 11
-3 -2 -2 553.590 25.0062 13
-3 -2 -2 556.992 23.0019 5
3 -2 2 598.393 32.5564 4
-3 -2 -2 642.985 24.8884 12
3 -2 2 586.313 27.3989 6
-3 -2 -2 642.381 32.7984 4
-3 -2 -2 537.133 25.6765 3
-3 -2 -2 532.139 25.9051 2
-3 2 -2 565.136 23.1860 10
-3 2 -2 579.561 27.3887 6
3 2 2 573.130 25.6269 11
-3 2 -2 610.607 32.5401 4
3 2 2 598.322 24.7225 12
3 2 2 591.013 25.8471 3
3 2 2 558.744 32.4437 4
3 2 2 539.269 27.7677 6
3 2 2 562.179 25.7978 3
-3 2 -2 575.750 25.0606 13
-3 2 -2 573.586 23.2199 5
-3 2 -2 539.587 26.6719 7
3 2 2 529.596 25.7360 8
3 2 2 567.580 26.0242 2
-4 -2 -2 103.315 5.88186 3
4 -2 2 95.8747 6.21207 7
4 -2 2 102.418 5.90221 6
-4 -2 -2 103.375 6.02911 2
4 -2 2 107.281 5.52551 3
-4 -2 -2 106.262 7.79308 4
4 -2 2 101.651 5.48996 3
-4 -2 -2 97.9117 5.73198 13
-4 -2 -2 105.261 6.47173 6
-4 -2 -2 105.373 6.24855 3
-4 -2 -2 109.473 5.75094 12
4 -2 2 110.944 5.38627 11
-4 -2 -2 101.131 6.35961 11
-4 2 -2 99.7050 5.58217 3
-4 2 -2 108.812 5.35728 11
-4 2 -2 111.247 5.71550 12
-4 2 -2 108.284 5.07108 5
4 2 2 107.905 5.73101 12
4 2 2 104.692 5.76214 13
-4 2 -2 102.274 5.61079 13
4 2 2 107.558 6.16714 3
-4 2 -2 90.6531 7.27333 4
4 2 2 112.379 5.96252 2
4 2 2 101.611 6.36519 8
4 2 2 105.879 6.02574 3
-4 2 -2 106.620 5.42324 3
-4 2 -2 107.374 5.95801 6
-5 -2 -2 775.871 34.7413 11
5 -2 2 812.415 34.3087 3
-5 -2 -2 772.529 44.0341 4
5 -2 2 746.013 36.8044 6
5 -2 2 735.762 36.0689 7
-5 -2 -2 777.205 33.5356 12
-5 -2 -2 784.310 34.5869 3
5 -2 2 796.674 34.3157 3
5 -2 2 780.888 34.0068 11
-5 -2 -2 749.427 37.3054 6
-5 2 -2 769.898 33.5398 12
5 2 2 782.985 34.9647 8
5 2 2 811.050 34.1327 13
5 2 2 798.792 34.7324 3
-5 2 -2 777.776 36.7825 6
5 2 2 668.471 34.8235 2
-5 2 -2 765.916 31.1898 5
-5 2 -2 751.486 43.7781 4
-5 2 -2 811.260 34.0861 11
-5 2 -2 818.340 34.2327 3
6 -2 2 83.1889 5.85082 3
-6 -2 -2 76.0382 5.37167 6
6 -2 2 68.7989 5.67475 6
-6 -2 -2 81.8840 6.67573 12
6 -2 2 73.6851 5.79827 7
-6 -2 -2 76.3447 6.47004 11
6 -2 2 85.8273 5.88566 8
-6 -2 -2 78.9755 7.62255 4
6 -2 2 78.2883 5.69455 3
-6 -2 -2 85.5139 5.68694 3
6 2 2 80.8008 6.50709 8
6 2 2 78.9902 5.34427 2
6 2 2 80.1140 5.85824 3
-6 2 -2 83.3792 5.33789 3
-6 2 -2 80.1508 6.14362 12
-6 2 -2 78.5428 4.51345 5
6 2 2 77.0026 6.30953 13
-6 2 -2 82.8142 5.26347 11
6 2 2 75.3771 5.67843 9
-7 -2 -2 35.6776 4.16524 6
-7 -2 -2 26.6600 4.04152 3
-7 -2 -2 24.8227 4.46511 12
7 -2 2 18.7455 3.77341 6
-7 -2 -2 24.8181 5.06921 4
7 -2 2 32.9336 4.81699 7
-7 -2 -2 24.1157 4.88962 11
7 -2 2 26.5309 4.35836 3
7 -2 2 25.6945 4.61261 8
-7 2 -2 22.3369 4.29321 12
7 2 2 40.1985 6.24582 8
7 2 2 33.4417 4.26046 2
-7 2 -2 29.6810 3.78452 5
7 2 2 28.0311 4.99925 13
7 2 2 31.3036 4.87764 3
-7 2 -2 34.4997 5.27428 11
-7 2 -2 39.8698 4.84711 3
-8 -2 -2 105.699 8.05558 3
-8 -2 -2 125.738 9.91340 12
8 -2 2 124.415 8.18658 3
-8 -2 -2 112.149 8.13603 6
8 -2 2 94.2934 9.56045 8
8 -2 2 112.526 8.73572 7
-8 -2 -2 111.882 9.32053 11
-8 2 -2 100.439 8.43488 3
8 2 2 113.434 7.72185 2
8 2 2 126.988 9.23894 13
-8 2 -2 126.922 8.92537 11
8 2 2 122.882 8.31758 3
9 -2 2 15.6412 6.00473 7
9 -2 2 13.0727 4.84593 3
-9 -2 -2 12.7948 4.09702 6
-9 -2 -2 8.68560 6.57439 11
-9 -2 -2 9.87678 5.26997 3
9 -2 2 2.54570 6.34053 8
9 2 2 16.8124 5.06899 3
-9 2 -2 17.7245 6.52802 11
9 2 2 9.93663 5.98315 8
-9 2 -2 15.1984 5.73952 3
9 2 2 19.3405 6.43011 13
9 2 2 13.2091 4.59211 2
-10 -2 -2 138.565 11.4650 3
-10 -2 -2 139.595 14.8765 4
-10 -2 -2 157.954 10.7913 6
-10 -2 -2 119.159 12.8845 11
-10 -2 -2 137.091 13.9746 12
10 -2 2 137.120 13.1614 7
10 -2 2 125.370 11.0138 3
10 2 2 161.218 13.9446 8
10 2 2 125.428 10.3639 2
10 2 2 116.122 11.8006 3
-10 2 -2 137.845 11.4412 3
-10 2 -2 142.416 13.6504 12
-10 2 -2 137.732 12.5011 11
-10 2 -2 142.108 13.8880 4
-11 -2 -2 5.98195 9.14420 4
-11 2 -2 2.86024 8.67719 4
11 -3 -2 0.59379 7.55723 3
11 -3 -2 5.61249 9.22420 7
-11 -3 2 -8.9301 7.28718 3
11 -3 -2 -2.8079 8.06560 13
-11 -3 2 -0.7414 9.31236 4
-11 -3 2 6.54497 7.69211 11
-11 -3 2 3.28411 7.59494 5
11 3 -2 -1.8828 8.31402 8
11 3 -2 -1.7074 8.66366 3
-11 3 2 -13.000 8.19136 4
11 3 -2 0.14778 8.45452 13
-11 3 2 18.2862 8.69214 9
-11 3 2 11.0667 8.82277 11
-11 3 2 -1.8571 8.04817 3
10 -3 -2 13.2654 6.29044 3
-10 -3 2 15.0358 6.50174 11
-10 -3 2 9.68810 6.20069 3
-10 -3 2 14.9243 6.48205 5
10 -3 -2 18.6820 7.51538 7
10 -3 -2 16.4781 7.23763 13
-10 3 2 18.1375 7.42485 11
10 3 -2 15.8496 6.62102 13
10 3 -2 15.9364 6.72130 3
-10 3 2 16.4640 6.78864 3
10 3 -2 1.38234 5.57234 2
-10 3 2 17.6654 7.80975 9
-9 -3 2 -0.1132 5.04085 5
-9 -3 2 -4.2113 6.18776 4
-9 -3 2 4.28316 4.57340 3
9 -3 -2 -4.0818 5.00312 13
9 -3 -2 0.72796 5.53224 7
9 -3 -2 5.38384 4.60946 3
-9 3 2 2.41231 5.64657 9
-9 3 2 2.08902 5.49544 3
9 3 -2 5.05005 4.18039 2
9 3 -2 0.35155 4.94016 13
9 3 -2 7.78177 5.29205 3
-9 3 2 3.41964 5.06698 11
8 -3 -2 30.3100 5.16113 3
8 -3 -2 24.4175 4.92023 7
8 -3 -2 24.4214 5.03802 13
-8 -3 2 17.2013 3.88494 3
-8 -3 2 13.6938 4.54381 11
-8 3 2 16.8302 4.40339 9
8 3 -2 24.2813 5.00821 3
8 3 -2 23.3213 4.45067 13
-8 3 2 20.1118 4.99074 3
-8 3 2 21.4098 4.70125 11
7 -3 -2 35.0293 5.00100 7
7 -3 -2 37.4774 4.64618 13
-7 -3 2 40.8864 6.61249 4
-7 -3 2 30.4339 5.04488 11
-7 -3 2 41.6840 4.69929 3
7 -3 -2 43.8278 5.37952 3
-7 -3 2 42.1075 5.17831 5
7 3 -2 40.0684 4.41527 2
-7 3 2 41.3376 6.05830 9
-7 3 2 36.6759 5.81129 3
7 3 -2 42.7801 5.34275 3
7 3 -2 34.7297 5.30828 13
-7 3 2 39.3635 5.38301 11
6 -3 -2 414.160 18.8191 3
6 -3 -2 363.759 19.3971 7
6 -3 -2 402.169 18.1474 13
-6 -3 2 384.395 18.7149 11
6 -3 -2 381.646 18.4809 3
-6 -3 2 400.960 17.3019 5
-6 -3 2 403.391 18.5076 3
-6 -3 2 405.209 23.5992 4
-6 3 2 402.094 18.6512 11
-6 3 2 418.372 23.8315 4
6 3 -2 380.663 18.2305 13
-6 3 2 391.319 20.7084 9
6 3 -2 388.363 18.6761 3
6 3 -2 393.875 18.7604 2
-6 3 2 392.501 18.6866 3
5 -3 -2 249.258 11.9654 3
-5 -3 2 238.691 11.9096 11
-5 -3 2 213.809 11.6932 3
-5 -3 2 233.582 14.9735 4
5 -3 -2 234.326 11.6380 3
5 -3 -2 252.190 11.1958 13
-5 -3 2 261.491 11.1354 5
5 -3 -2 257.017 12.7086 7
-5 -3 2 254.927 11.6305 3
5 3 -2 241.761 11.6706 3
-5 3 2 233.363 13.3109 9
5 3 -2 247.467 11.8881 2
-5 3 2 206.066 11.5846 11
-5 3 2 238.630 15.1083 4
-5 3 2 227.003 11.7884 3
-5 3 2 234.097 11.2038 13
5 3 -2 248.527 11.5000 13
-4 -3 2 166.319 7.93630 3
4 -3 -2 150.158 7.81996 3
-4 -3 2 140.448 7.56638 13
-4 -3 2 158.201 7.80954 11
4 -3 -2 125.094 7.88254 11
4 3 -2 156.228 9.95932 4
-4 3 2 163.056 8.04964 3
-4 3 2 163.493 9.04590 9
4 3 -2 130.662 7.86706 2
4 3 -2 157.567 7.57142 13
-4 3 2 155.301 7.77136 11
-4 3 2 153.660 7.40936 13
-4 3 2 169.288 10.1122 4
3 -3 -2 1277.80 56.4937 2
-3 -3 2 1251.21 54.9425 13
3 -3 -2 1351.61 58.7655 7
-3 -3 2 1302.18 71.1268 4
-3 -3 2 1238.28 55.9524 3
-3 -3 2 1310.93 55.9081 3
3 -3 -2 1270.60 50.3926 10
3 -3 -2 1282.65 56.0959 3
-3 -3 2 1318.91 51.5809 5
3 -3 -2 1270.22 63.1143 9
3 -3 -2 1319.38 55.8526 11
3 -3 -2 1297.64 56.2756 3
-3 -3 2 1344.77 55.7534 11
-3 3 2 1309.41 56.3142 3
-3 3 2 1307.44 55.7586 11
3 3 -2 1310.54 55.9869 3
3 3 -2 1199.42 70.9271 4
3 3 -2 1305.73 56.9679 2
-3 3 2 1306.64 56.5313 2
3 3 -2 1336.77 54.9516 13
3 3 -2 1246.87 55.6639 11
-3 3 2 1242.82 54.2693 12
-3 3 2 1258.66 62.6277 9
3 3 -2 1223.52 52.8568 1
3 3 -2 1236.44 55.9045 3
-3 3 2 1289.25 56.1639 3
2 -3 -2 3.87985 1.60778 9
-2 -3 2 5.72892 1.19868 11
2 -3 -2 5.80631 1.44290 2
2 -3 -2 6.31797 1.45473 3
2 -3 -2 2.87498 1.44544 7
-2 -3 2 6.21829 1.32039 5
2 -3 -2 6.57151 1.69754 11
-2 -3 2 5.01797 1.21174 13
2 -3 -2 5.48686 1.53812 3
2 -3 -2 6.81482 1.36666 12
-2 3 2 5.47450 1.56088 3
-2 3 2 4.64863 1.39582 11
2 3 -2 6.70147 1.27729 3
-2 3 2 4.58839 1.52297 3
2 3 -2 3.35781 1.51583 8
2 3 -2 5.32125 1.70241 6
-2 3 2 3.19156 1.55691 7
2 3 -2 3.82721 1.67142 4
2 3 -2 4.83513 1.08833 13
2 3 -2 4.53185 1.06541 11
2 3 -2 5.07995 1.70285 1
-2 3 2 4.85792 1.52464 9
-2 3 2 5.65752 1.52739 12
2 3 -2 4.36843 1.39748 2
-2 3 2 5.57324 1.31048 2
1 -3 -2 189.564 8.89415 3
1 -3 -2 174.059 9.07132 6
-1 -3 2 191.592 8.38828 1
1 -3 -2 186.826 8.45762 12
1 -3 -2 187.166 9.26339 7
-1 -3 2 176.903 8.06063 5
-1 -3 2 195.245 8.37236 13
1 -3 -2 185.457 8.81180 2
1 -3 -2 179.077 9.87740 9
1 -3 -2 185.008 8.87450 3
1 -3 -2 183.527 8.82999 11
-1 3 2 181.996 11.3464 4
1 3 -2 166.904 8.65018 8
-1 3 2 196.604 8.87879 11
1 3 -2 193.676 8.57806 1
1 3 -2 179.247 10.9607 4
-1 3 2 176.329 9.15523 6
1 3 -2 169.601 8.76890 2
1 3 -2 172.802 8.08473 5
-1 3 2 180.315 8.71201 11
1 3 -2 171.031 8.20794 11
-1 3 2 171.878 8.74790 3
-1 3 2 195.324 8.94856 3
-1 3 2 176.319 8.74588 2
1 3 -2 190.430 8.28328 13
-1 3 2 182.847 9.84116 9
-1 3 2 176.759 9.19753 7
-1 3 2 180.461 8.00611 5
-1 3 2 186.532 8.53516 12
0 -3 2 59.2859 3.52731 1
0 -3 -2 56.2575 3.54381 3
0 -3 -2 58.3819 4.13337 9
0 -3 -2 59.5252 3.65725 6
0 -3 2 59.7371 3.25591 7
0 -3 -2 57.7040 3.61965 2
0 -3 -2 53.0648 3.68183 7
0 -3 -2 57.0960 3.64436 3
0 -3 2 57.6197 3.23738 5
0 -3 -2 51.8404 3.52664 12
0 3 -2 59.9465 3.40442 2
0 3 2 54.1700 3.45085 11
0 3 2 59.2527 3.71786 6
0 3 2 62.5644 3.29316 5
0 3 -2 61.9641 3.31276 7
0 3 2 57.9476 3.55671 2
0 3 -2 61.3933 3.27528 5
0 3 2 54.4931 3.67985 3
0 3 2 54.1233 4.92854 4
0 3 -2 56.4016 3.09030 13
0 3 2 52.6026 3.44135 12
0 3 2 58.3205 3.93505 7
0 3 2 55.3452 3.98645 9
0 3 2 53.1321 3.50402 11
0 3 2 57.1349 3.58074 3
1 -3 2 128.249 6.01456 5
-1 -3 -2 132.131 8.58027 4
-1 -3 -2 126.222 6.62884 3
-1 -3 -2 126.581 7.03802 6
-1 -3 -2 135.369 6.89187 3
-1 -3 -2 133.308 6.39797 12
1 -3 2 133.691 6.04231 10
-1 -3 -2 139.127 6.76454 11
-1 -3 -2 124.146 6.71625 2
1 -3 2 129.755 6.64773 7
-1 -3 -2 138.578 6.94986 7
-1 3 -2 134.562 7.24476 9
1 3 2 124.428 7.20495 6
1 3 2 129.809 8.65336 4
-1 3 -2 124.879 5.96802 5
1 3 2 133.259 6.78408 3
1 3 2 125.623 6.59916 11
1 3 2 133.577 6.44227 12
1 3 2 127.202 7.36036 9
1 3 2 126.484 6.69314 3
1 3 2 126.909 6.47194 8
1 3 2 129.419 6.74518 2
-1 3 -2 129.332 6.35884 2
1 3 2 132.406 5.91466 5
-1 3 -2 131.033 6.70920 7
-2 -3 -2 415.312 16.9437 5
-2 -3 -2 414.432 19.0928 2
2 -3 2 418.407 17.0207 10
-2 -3 -2 428.121 18.9328 11
-2 -3 -2 413.119 18.8855 3
2 -3 2 409.059 17.0897 5
2 -3 2 422.610 19.4808 7
-2 -3 -2 410.366 20.2703 6
-2 -3 -2 397.253 18.0043 13
-2 -3 -2 422.694 19.5605 7
-2 -3 -2 405.837 23.9668 4
-2 -3 -2 429.904 19.1190 3
-2 -3 -2 437.978 18.1886 12
2 3 2 409.531 20.9486 9
2 3 2 408.239 16.9271 5
-2 3 -2 423.580 17.1979 5
-2 3 -2 431.310 18.5752 2
2 3 2 379.644 17.9552 12
2 3 2 420.863 19.0043 3
2 3 2 389.099 20.3030 6
-2 3 -2 408.257 23.7002 4
2 3 2 423.164 18.9588 3
-2 3 -2 422.685 20.6670 9
2 3 2 409.208 18.7740 11
2 3 2 401.410 18.7671 8
2 3 2 418.475 19.1486 2
-2 3 -2 411.054 19.4659 7
2 3 2 390.100 23.8862 4
-2 3 -2 417.663 19.9453 6
-3 -3 -2 17.3544 2.74222 6
-3 -3 -2 26.9361 4.20661 4
-3 -3 -2 23.7299 2.73284 3
3 -3 2 20.6140 2.57915 7
-3 -3 -2 22.0334 2.13812 13
3 -3 2 21.3920 2.86873 9
-3 -3 -2 26.5855 2.83269 12
-3 -3 -2 23.6518 1.92184 5
3 -3 2 19.3369 2.51410 10
3 3 2 24.3822 2.82911 9
-3 3 -2 24.8284 3.65089 4
-3 3 -2 21.7098 2.37112 13
3 3 2 28.2029 2.73588 12
3 3 2 24.5430 2.03652 5
3 3 2 19.6392 2.76938 8
-3 3 -2 25.0558 2.22044 5
-3 3 -2 27.8618 2.67164 9
3 3 2 28.3556 2.82761 3
-4 -3 -2 254.160 11.7068 3
-4 -3 -2 240.798 12.3865 6
4 -3 2 231.174 10.5743 10
4 -3 2 241.281 12.4436 9
-4 -3 -2 203.000 11.0384 12
-4 -3 -2 235.941 12.0029 11
4 -3 2 254.561 12.2934 7
-4 -3 -2 214.049 14.8162 4
-4 -3 -2 246.457 10.1034 5
4 3 2 235.440 11.7413 2
-4 3 -2 219.922 14.6968 4
4 3 2 247.926 12.0474 8
-4 3 -2 234.843 11.0380 13
-4 3 -2 255.412 10.5310 5
-4 3 -2 229.723 12.2076 9
4 3 2 239.196 11.8675 3
5 -3 2 31.4541 3.29841 3
-5 -3 -2 36.4573 5.44530 4
-5 -3 -2 25.6259 3.66625 3
-5 -3 -2 24.6336 3.19381 6
5 -3 2 29.2386 3.50266 11
5 -3 2 29.4128 3.93829 9
-5 -3 -2 27.4168 2.56960 5
5 -3 2 28.6948 4.35155 7
-5 -3 -2 34.1521 4.93918 12
-5 -3 -2 32.7900 4.57620 11
5 -3 2 25.6067 3.83779 3
5 3 2 29.8459 4.77333 8
5 3 2 28.2341 4.19859 13
5 3 2 26.5401 3.43596 2
-5 3 -2 28.0268 3.60327 9
-5 3 -2 27.6823 2.85977 11
5 3 2 31.6686 4.23006 3
-6 -3 -2 219.009 12.2622 6
-6 -3 -2 234.078 11.8824 12
-6 -3 -2 230.189 9.81487 5
-6 -3 -2 218.976 12.3513 11
6 -3 2 212.651 12.2521 7
6 -3 2 219.003 12.3744 9
-6 -3 -2 215.353 11.6037 3
-6 -3 -2 239.484 15.4047 4
6 -3 2 224.116 11.4369 3
6 -3 2 208.596 11.2135 3
6 -3 2 216.219 11.1827 11
-6 3 -2 211.930 11.0706 3
-6 3 -2 236.155 11.8909 9
6 3 2 226.957 11.8328 13
6 3 2 196.557 12.1645 8
-6 3 -2 236.393 10.9930 11
6 3 2 215.203 11.5848 2
-6 3 -2 252.207 14.7727 4
6 3 2 238.654 11.9998 3
-7 -3 -2 245.979 12.6565 3
-7 -3 -2 217.841 16.3992 4
-7 -3 -2 238.277 13.2812 6
-7 -3 -2 250.289 10.5617 5
7 -3 2 216.292 12.5257 3
-7 -3 -2 254.258 13.3735 12
7 -3 2 237.281 12.4700 3
7 -3 2 203.623 13.3807 9
-7 3 -2 247.426 12.4712 11
-7 3 -2 225.319 12.1517 3
-7 3 -2 242.171 13.0466 12
7 3 2 248.237 12.9340 3
7 3 2 235.179 12.9809 13
7 3 2 253.108 12.6771 2
-7 3 -2 249.334 13.0112 9
8 -3 2 24.1394 5.27363 3
-8 -3 -2 37.4739 6.49809 12
-8 -3 -2 37.1275 5.98717 3
-8 -3 -2 33.4065 4.12677 5
8 3 2 31.3845 5.58901 3
-8 3 -2 34.4811 4.98427 3
8 3 2 36.5788 5.87999 2
-8 3 -2 29.8139 5.59507 11
-8 3 -2 27.4790 5.60564 12
8 3 2 40.9457 6.35118 13
-9 -3 -2 74.2345 8.44652 3
9 -3 2 76.9267 8.39881 3
9 -3 2 71.8981 9.17083 7
-9 -3 -2 57.2396 11.5447 4
-9 -3 -2 90.1801 7.86700 6
-9 -3 -2 61.7260 10.2341 11
-9 3 -2 78.6182 9.63935 11
9 3 2 91.8312 10.0705 13
9 3 2 73.2852 8.04144 2
9 3 2 73.6647 9.05174 3
-9 3 -2 85.6533 8.62370 3
-9 3 -2 56.6521 8.22979 12
9 3 2 91.8213 10.9032 8
-10 -3 -2 9.73938 7.20052 3
-10 -3 -2 3.61162 5.59809 6
10 -3 2 13.6092 6.14893 3
-10 -3 -2 -1.0730 8.13534 12
10 -3 2 5.54823 7.67719 7
-10 -3 -2 -8.1082 7.99328 11
-10 3 -2 11.9509 7.08909 3
-10 3 -2 8.72686 7.81202 11
10 3 2 6.49278 7.78958 8
10 3 2 13.2612 7.52534 3
-10 3 -2 1.06628 6.30960 4
-10 3 -2 0.15136 7.42545 12
-10 -4 2 13.0348 6.86915 5
-10 -4 2 15.4168 8.06766 11
10 -4 -2 29.1995 8.34150 7
-10 -4 2 22.1569 9.67407 4
10 -4 -2 14.9824 8.09225 13
-10 -4 2 21.8505 6.79236 3
10 -4 -2 11.7573 6.86074 3
-10 4 2 23.5999 7.81252 3
10 4 -2 16.4148 7.81761 13
10 4 -2 17.6829 7.70163 3
10 4 -2 20.1794 6.47104 2
-10 4 2 18.8955 7.99650 11
-10 4 2 19.5529 8.13260 9
9 -4 -2 7.34928 6.85630 7
9 -4 -2 16.6340 5.72548 3
-9 -4 2 11.5560 5.49521 5
-9 -4 2 8.42473 4.92259 3
9 -4 -2 19.9761 6.28762 13
-9 -4 2 -0.0720 6.99851 4
-9 -4 2 11.9188 6.41405 11
-9 4 2 6.06341 6.48770 11
9 4 -2 12.7478 6.02926 3
9 4 -2 10.2109 5.94256 13
-9 4 2 8.79044 6.19947 9
-9 4 2 6.59086 6.17061 3
-8 -4 2 14.9006 6.25551 4
8 -4 -2 14.0114 5.14736 13
-8 -4 2 14.3212 4.27785 3
8 -4 -2 15.1658 5.52458 7
-8 -4 2 15.2465 4.87666 5
8 -4 -2 17.2772 4.96140 3
-8 4 2 12.9139 5.26933 11
-8 4 2 10.8528 5.21756 3
-8 4 2 16.1673 4.84753 9
8 4 -2 11.0725 4.08811 2
8 4 -2 9.56646 5.20620 13
8 4 -2 18.4155 4.94959 3
-7 -4 2 9.24750 3.38344 3
7 -4 -2 2.16653 3.75920 13
-7 -4 2 14.9179 4.73476 4
7 -4 -2 5.57220 4.09265 3
-7 -4 2 6.87576 3.74401 11
7 -4 -2 5.96482 3.44259 7
-7 -4 2 8.30525 3.46996 5
-7 4 2 2.87272 4.19101 9
-7 4 2 11.0574 4.47897 11
7 4 -2 7.09292 3.88549 13
-7 4 2 10.9832 5.81085 4
7 4 -2 6.93498 3.10444 2
7 4 -2 13.6962 4.14105 3
-7 4 2 9.01879 4.40625 3
6 -4 -2 128.061 8.45063 7
-6 -4 2 134.889 10.3706 4
-6 -4 2 135.930 7.63087 5
-6 -4 2 135.457 8.45240 11
-6 -4 2 142.275 7.78905 3
6 -4 -2 126.078 8.18378 3
6 -4 -2 141.384 8.42318 3
6 -4 -2 133.479 7.83829 13
6 4 -2 136.858 7.93033 2
-6 4 2 119.077 8.17841 3
6 4 -2 132.269 8.29726 3
-6 4 2 123.683 9.73014 9
-6 4 2 135.897 8.42853 11
-6 4 2 134.598 11.1815 4
6 4 -2 131.638 8.11167 13
-5 -4 2 59.9920 4.45909 3
5 -4 -2 57.7482 3.79511 10
5 -4 -2 57.8498 5.79785 7
-5 -4 2 62.7613 5.25273 11
-5 -4 2 65.7124 6.83364 4
5 -4 -2 62.4999 5.19737 3
-5 -4 2 59.9350 5.29664 3
5 -4 -2 52.2552 3.91943 13
-5 -4 2 56.3240 4.53677 5
5 -4 -2 58.9836 4.90026 3
-5 4 2 53.5468 4.99686 3
-5 4 2 54.6698 5.30377 11
5 4 -2 59.3690 4.48250 2
5 4 -2 59.5002 4.81992 3
-5 4 2 53.5339 7.02786 4
-5 4 2 51.9739 6.04918 9
-5 4 2 54.0153 4.39523 13
5 4 -2 59.3469 4.59412 13
-4 -4 2 688.178 29.4849 5
4 -4 -2 749.011 32.1290 3
-4 -4 2 679.079 31.7979 11
4 -4 -2 678.932 33.5256 7
-4 -4 2 737.997 31.9388 3
-4 -4 2 722.607 31.6827 3
-4 -4 2 701.203 40.5710 4
4 -4 -2 701.185 31.7955 3
4 -4 -2 737.210 28.5671 10
4 -4 -2 704.844 31.7071 2
-4 4 2 744.130 31.7344 2
-4 4 2 709.597 31.6114 11
-4 4 2 727.233 35.7915 9
4 4 -2 712.790 31.7423 3
-4 4 2 772.206 32.2142 3
4 4 -2 719.685 31.0542 13
4 4 -2 657.418 32.3543 2
-4 4 2 684.470 40.5503 4
-3 -4 2 106.444 6.03970 3
-3 -4 2 116.304 6.05482 11
3 -4 -2 101.675 6.36466 11
3 -4 -2 113.306 6.23770 3
-3 -4 2 106.822 6.01938 5
3 -4 -2 105.448 5.96759 2
-3 -4 2 110.544 5.76128 13
3 -4 -2 111.682 6.44148 3
3 -4 -2 100.103 6.90034 7
-3 -4 2 102.096 5.82624 3
3 4 -2 116.728 8.17721 4
3 4 -2 118.052 5.74491 13
-3 4 2 123.948 6.59435 3
-3 4 2 111.207 7.25956 9
-3 4 2 120.295 5.97591 2
3 4 -2 106.350 6.23391 2
-3 4 2 108.660 6.08665 11
3 4 -2 107.803 5.88960 3
3 4 -2 99.0141 5.80882 11
-2 -4 2 437.208 19.3413 13
2 -4 -2 443.255 20.0631 3
-2 -4 2 461.880 19.6592 11
2 -4 -2 460.907 20.2393 3
2 -4 -2 442.427 21.1853 7
2 -4 -2 445.568 19.3507 12
2 -4 -2 438.050 20.0244 11
-2 -4 2 430.456 18.6046 5
2 -4 -2 440.296 20.1082 2
2 4 -2 425.933 19.5581 11
-2 4 2 461.788 20.1874 2
2 4 -2 419.853 25.4144 4
2 4 -2 438.278 20.3783 2
-2 4 2 453.989 20.2457 3
2 4 -2 429.832 20.0337 8
2 4 -2 443.960 19.2432 13
-2 4 2 431.738 19.9619 11
-2 4 2 442.497 19.8809 11
-2 4 2 422.730 22.5745 9
1 -4 -2 154.370 8.02682 3
1 -4 -2 153.962 7.58454 12
1 -4 -2 156.495 8.09133 3
1 -4 -2 164.568 8.10755 2
1 -4 -2 166.654 8.43471 7
-1 -4 2 164.131 7.70136 5
-1 -4 2 153.010 7.64716 1
1 -4 -2 169.868 8.24970 6
-1 4 2 143.226 7.81837 12
1 4 -2 154.344 7.88498 8
-1 4 2 157.752 7.99700 2
-1 4 2 149.264 9.22760 9
1 4 -2 146.726 10.2747 4
-1 4 2 149.528 8.01366 11
-1 4 2 145.507 8.07716 3
-1 4 2 155.398 8.24984 6
1 4 -2 165.721 8.65053 6
1 4 -2 160.775 8.08296 2
-1 4 2 161.045 7.91440 11
0 -4 2 137.811 6.46587 7
0 -4 -2 124.371 6.37562 12
0 -4 2 119.079 6.36309 1
0 -4 -2 108.576 6.62914 3
0 -4 -2 144.415 7.30330 2
0 -4 -2 127.641 6.98643 7
0 -4 -2 121.830 6.68384 3
0 -4 -2 130.311 6.94074 6
0 4 2 129.933 6.74378 2
0 4 2 111.256 6.37104 12
0 4 -2 130.775 6.58428 2
0 4 2 125.069 7.15894 6
0 4 -2 124.905 7.40172 9
0 4 2 121.122 6.68516 11
0 4 2 120.038 6.50859 11
0 4 2 120.669 7.10553 7
0 4 2 116.905 6.68312 3
0 4 -2 127.338 6.54170 7
-1 -4 -2 274.792 11.7299 12
-1 -4 -2 259.777 12.2310 3
-1 -4 -2 262.286 12.6455 7
-1 -4 -2 247.645 12.9359 6
-1 -4 -2 269.849 12.4469 3
1 -4 2 250.064 12.3525 7
-1 -4 -2 270.005 12.2869 11
1 -4 2 222.233 11.5759 1
1 4 2 280.236 12.4164 3
1 4 2 264.970 11.7372 12
1 4 2 235.317 13.0985 6
-1 4 -2 257.707 13.5168 9
1 4 2 254.337 13.8695 9
-1 4 -2 246.406 12.4021 7
1 4 2 241.118 12.0785 11
1 4 2 241.644 10.9993 5
1 4 2 254.210 12.3752 2
-1 4 -2 245.625 11.9547 2
-2 -4 -2 39.9372 2.80307 5
-2 -4 -2 38.4005 4.82237 4
-2 -4 -2 39.1074 3.60870 3
-2 -4 -2 45.6821 3.70751 7
2 -4 2 43.3540 3.47620 7
2 -4 2 42.6883 3.58612 10
-2 -4 -2 46.0857 3.46640 12
-2 -4 -2 42.3657 4.11251 11
2 -4 2 41.1663 3.35308 5
-2 -4 -2 43.5172 4.11070 3
-2 -4 -2 42.3119 3.66651 6
2 4 2 39.7616 3.44931 2
-2 4 -2 42.9908 5.06676 4
-2 4 -2 43.5972 3.02984 2
2 4 2 33.9978 4.57578 9
2 4 2 41.8256 3.83525 3
-2 4 -2 38.0389 3.65964 9
-2 4 -2 42.5587 3.47141 6
2 4 2 38.4884 2.88949 5
2 4 2 41.0169 3.54545 8
-3 -4 -2 1017.57 46.9118 13
-3 -4 -2 1172.26 50.3917 7
-3 -4 -2 1116.99 44.0368 5
-3 -4 -2 1056.84 48.6894 3
-3 -4 -2 1159.42 46.6777 12
-3 -4 -2 1145.63 52.2701 6
3 -4 2 1094.40 50.3833 7
3 -4 2 1069.07 43.7529 10
-3 -4 -2 1063.76 61.5943 4
-3 -4 -2 1103.83 48.4744 3
-3 -4 -2 1068.46 48.3598 11
-3 4 -2 1124.24 53.6024 9
3 4 2 1075.17 54.1008 9
-3 4 -2 1072.36 61.3432 4
3 4 2 1113.18 44.0572 5
3 4 2 1097.25 49.1722 2
-3 4 -2 1033.79 46.9167 13
3 4 2 1097.54 48.5558 8
3 4 2 1131.93 48.5811 3
-3 4 -2 1105.59 48.3084 2
-4 -4 -2 87.4479 5.74627 3
-4 -4 -2 92.9621 6.62066 11
4 -4 2 99.1839 6.64594 9
-4 -4 -2 94.2403 6.14460 6
-4 -4 -2 97.1312 7.85891 4
-4 -4 -2 93.9869 5.00285 5
4 -4 2 88.8720 6.31454 7
4 -4 2 90.6622 5.52497 10
4 4 2 95.7792 5.98298 2
4 4 2 85.5615 6.55730 8
4 4 2 95.3803 7.09378 9
-4 4 -2 96.1711 8.15848 4
4 4 2 99.1436 6.21164 3
-4 4 -2 91.7195 6.07093 9
-4 4 -2 85.1238 5.24656 13
-5 -4 -2 218.656 12.0069 11
5 -4 2 214.201 11.8843 7
-5 -4 -2 212.356 11.2241 3
5 -4 2 210.920 12.6374 9
-5 -4 -2 206.103 14.6989 4
-5 -4 -2 225.335 9.74740 5
-5 -4 -2 227.315 12.0022 6
-5 4 -2 213.458 11.7683 9
-5 4 -2 219.501 14.5831 4
5 4 2 214.517 11.6030 3
5 4 2 219.660 12.0370 8
5 4 2 213.911 11.3956 2
-6 -4 -2 -2.6631 3.78854 11
-6 -4 -2 4.13509 3.93612 12
-6 -4 -2 3.87070 1.93975 5
-6 -4 -2 -2.8848 4.38260 4
6 -4 2 -1.2409 3.55978 7
-6 -4 -2 -0.7922 2.49667 6
-6 -4 -2 2.17592 3.09773 3
-6 4 -2 2.89638 2.80632 3
6 4 2 -0.7366 3.71331 13
6 4 2 1.05880 3.60717 3
-6 4 -2 0.16740 2.99738 9
6 4 2 -0.4630 3.74797 8
6 4 2 -1.8001 2.71992 2
-7 -4 -2 9.10177 3.87772 3
7 -4 2 7.58942 3.65932 3
-7 -4 -2 0.70920 4.83758 4
-7 -4 -2 7.62644 2.76866 6
-7 -4 -2 11.2709 3.48571 5
-7 -4 -2 4.53906 4.94404 12
7 4 2 7.68526 4.62636 13
7 4 2 7.53874 4.51472 3
-7 4 -2 6.34946 4.05165 11
-7 4 -2 6.57582 3.61315 3
-7 4 -2 11.2981 4.34177 9
7 4 2 2.34933 3.43263 2
7 4 2 6.11456 4.57985 8
-8 -4 -2 115.476 12.1677 4
8 -4 2 108.082 8.11566 3
-8 -4 -2 105.379 7.54782 5
-8 -4 -2 93.2626 8.66719 3
-8 -4 -2 100.446 8.08427 6
-8 -4 -2 103.182 10.6633 12
-8 4 -2 87.4461 8.53794 3
8 4 2 99.1221 9.28346 3
-8 4 -2 94.9626 9.76176 9
-8 4 -2 105.936 10.2218 12
-8 4 -2 109.681 9.33449 11
9 -4 2 -2.7542 5.96162 7
-9 -4 -2 7.11434 5.21202 5
-9 -4 -2 -5.8690 5.57087 3
-9 -4 -2 -4.1112 4.45476 6
-9 -4 -2 -0.6193 7.45715 4
9 -4 2 0.48564 5.21861 3
-9 -4 -2 2.53545 7.16377 11
9 4 2 6.23700 6.43561 3
-9 4 -2 0.49030 6.77524 11
-9 4 -2 -0.4418 6.29483 3
-9 4 -2 1.38942 6.84097 9
9 4 2 -8.4320 5.57509 2
-9 4 -2 1.84650 6.93331 12
9 4 2 1.63512 7.31339 8
-10 -4 -2 94.3345 15.7538 4
-10 -4 -2 87.1356 12.7395 11
-10 -4 -2 89.2370 10.2313 6
-10 -4 -2 82.5251 11.4603 3
10 -4 2 77.5308 10.6591 3
10 -4 2 101.326 12.5150 7
-10 -4 -2 104.440 14.7225 12
10 4 2 99.8441 13.9779 8
10 4 2 88.4260 12.0873 3
-10 4 -2 77.1387 12.1554 11
-10 4 -2 113.960 12.4467 4
-10 4 -2 60.7187 10.5941 12
10 4 2 83.1974 10.4748 2
-10 -5 2 52.5046 11.2776 4
10 -5 -2 43.9264 8.89942 3
-10 -5 2 27.2316 9.39598 11
10 -5 -2 57.8416 9.67898 13
10 -5 -2 78.6928 12.0065 7
-10 -5 2 42.5136 9.00205 5
-10 -5 2 52.9130 8.48301 3
10 5 -2 47.8411 10.0719 3
-10 5 2 41.0117 10.4215 9
10 5 -2 49.0146 9.54844 13
-10 5 2 55.0232 10.7528 11
-10 5 2 50.9398 9.86965 3
-9 -5 2 6.50596 6.74341 5
9 -5 -2 8.10018 6.61000 13
9 -5 -2 4.97224 7.63534 7
-9 -5 2 7.26282 5.75318 3
9 -5 -2 1.38694 6.49641 3
-9 -5 2 -2.7512 6.71454 11
9 5 -2 3.47846 6.82198 13
-9 5 2 0.24411 7.51460 11
9 5 -2 13.5509 6.84323 3
-9 5 2 14.8479 7.73124 9
-9 5 2 13.9015 7.29781 3
9 5 -2 1.78375 5.83481 2
8 -5 -2 171.306 11.0993 13
-8 -5 2 156.070 10.8739 5
-8 -5 2 177.100 15.1964 4
8 -5 -2 164.459 11.5695 3
-8 -5 2 160.132 10.7667 3
-8 -5 2 126.457 12.6563 11
8 -5 -2 161.379 11.9108 7
8 5 -2 159.682 10.6425 2
8 5 -2 162.081 11.7438 3
-8 5 2 164.467 12.1309 3
-8 5 2 198.865 13.8374 9
-8 5 2 188.625 11.9218 11
8 5 -2 172.150 11.4501 13
-7 -5 2 17.3177 4.55792 5
-7 -5 2 22.9556 6.41904 4
7 -5 -2 24.2906 5.09937 3
-7 -5 2 25.0719 4.29926 3
-7 -5 2 14.3621 5.47886 11
7 -5 -2 23.0339 4.97941 13
7 5 -2 21.7848 5.17055 3
-7 5 2 21.2568 5.16094 3
-7 5 2 31.0014 5.95526 9
7 5 -2 20.8707 4.86904 13
-7 5 2 27.2146 5.87964 11
6 -5 -2 27.7551 4.18297 10
-6 -5 2 25.7849 5.25835 11
-6 -5 2 17.5171 3.91519 5
6 -5 -2 23.8118 4.51920 3
6 -5 -2 29.7627 4.59552 13
6 -5 -2 35.6143 5.77620 3
-6 -5 2 32.4342 4.57433 3
-6 -5 2 25.0536 5.72282 4
6 5 -2 31.2182 4.43473 13
6 5 -2 35.6336 4.59200 2
-6 5 2 20.2378 5.46673 9
-6 5 2 27.1252 4.58513 3
-6 5 2 28.8176 6.37395 4
-6 5 2 44.4187 6.43752 11
6 5 -2 25.6869 4.76809 3
-5 -5 2 3.91814 2.75371 3
-5 -5 2 5.97757 2.84683 5
-5 -5 2 3.28039 3.84434 3
-5 -5 2 0.37853 3.50341 11
5 -5 -2 5.89706 3.70929 7
5 -5 -2 9.48912 2.91123 10
5 -5 -2 6.75632 3.47093 3
-5 -5 2 4.75143 4.52646 4
5 -5 -2 3.78134 3.17272 3
-5 5 2 1.68630 3.75187 11
-5 5 2 4.36651 4.12381 4
-5 5 2 2.15837 3.68124 9
5 5 -2 7.04171 2.35977 2
5 5 -2 6.41595 3.37646 13
5 5 -2 2.75604 3.09379 3
-5 5 2 9.78234 3.80473 3
-4 -5 2 21.9923 3.10930 3
4 -5 -2 18.9127 3.22059 10
-4 -5 2 19.1503 3.59413 11
-4 -5 2 14.5290 3.43175 3
4 -5 -2 20.8107 3.51884 3
4 -5 -2 18.6441 2.92251 2
-4 -5 2 20.9280 3.27803 5
4 -5 -2 21.4684 3.99336 7
4 -5 -2 17.9720 3.32201 3
-4 5 2 13.8214 3.63454 9
-4 5 2 20.7748 2.74800 2
4 5 -2 18.0855 2.90658 2
4 5 -2 21.2964 2.76542 13
-4 5 2 23.4586 4.03830 11
-4 5 2 15.6627 3.32653 3
4 5 -2 20.2517 3.06103 3
-3 -5 2 225.154 11.8154 3
3 -5 -2 260.148 13.1503 7
-3 -5 2 253.358 11.5399 3
-3 -5 2 225.838 11.3436 13
3 -5 -2 246.419 11.9355 2
3 -5 -2 242.500 12.2297 3
-3 -5 2 251.356 11.8446 11
3 -5 -2 229.315 11.8916 3
-3 -5 2 240.863 11.4224 5
3 5 -2 235.760 11.6188 3
-3 5 2 246.350 11.9155 11
3 5 -2 253.146 11.2384 13
-3 5 2 238.282 13.8920 9
-3 5 2 241.457 12.2299 3
3 5 -2 239.382 12.2073 2
-3 5 2 251.822 11.8679 2
2 -5 -2 1.72466 2.12757 3
-2 -5 2 0.07240 1.58005 11
-2 -5 2 1.46519 2.14760 5
2 -5 -2 1.16333 2.32182 7
2 -5 -2 0.44496 2.05739 3
-2 5 2 -0.1349 1.97615 2
-2 5 2 0.26714 2.72235 9
2 5 -2 -1.4679 1.57674 11
2 5 -2 1.60353 1.81288 2
-2 5 2 -0.3122 1.88464 11
-2 5 2 -1.7591 2.15237 3
-1 -5 2 701.461 28.7439 1
1 -5 -2 693.216 30.4186 3
-1 -5 2 655.728 28.0461 5
1 -5 -2 679.605 30.4345 3
1 -5 -2 688.876 29.3131 12
1 -5 -2 663.238 31.8192 7
1 -5 -2 693.647 32.3036 6
-1 5 2 684.817 30.7018 2
-1 5 2 655.500 34.1628 9
-1 5 2 723.516 30.6405 3
-1 5 2 642.024 32.3554 6
1 5 -2 643.729 30.6601 2
1 5 -2 659.441 34.1583 9
-1 5 2 674.120 30.1446 11
0 -5 2 187.892 8.72581 7
0 -5 -2 151.937 8.82403 3
0 -5 2 156.836 8.48028 1
0 -5 -2 167.676 8.51429 12
0 -5 -2 173.149 9.56097 7
0 -5 -2 187.079 9.39667 6
0 -5 -2 169.854 8.87712 3
0 -5 2 171.861 8.42673 5
0 5 2 164.495 9.04816 3
0 5 2 179.205 10.0402 6
0 5 2 144.870 8.93390 11
0 5 -2 171.532 8.83135 7
0 5 -2 170.798 10.3491 9
0 5 2 161.422 10.4173 9
0 5 -2 176.308 8.75142 2
0 5 2 169.739 8.85581 2
-1 -5 -2 110.306 6.59055 6
1 -5 2 96.2104 5.83402 5
-1 -5 -2 107.943 6.77102 11
1 -5 2 114.615 6.14595 7
-1 -5 -2 94.6396 6.36592 3
-1 -5 -2 110.592 6.32661 3
1 -5 2 103.900 6.14179 1
-1 -5 -2 103.004 6.94436 7
-1 5 -2 85.5592 6.63391 7
1 5 2 102.341 6.50429 11
1 5 2 100.732 6.23894 2
-1 5 -2 105.204 6.43414 6
-1 5 -2 103.167 7.48223 9
-1 5 -2 102.118 5.94030 2
1 5 2 103.856 7.53537 9
1 5 2 103.401 6.44063 3
2 -5 2 107.538 6.95570 7
-2 -5 -2 103.377 6.91214 11
-2 -5 -2 116.717 7.19994 7
-2 -5 -2 98.3383 7.10168 3
-2 -5 -2 114.315 7.01331 6
-2 -5 -2 115.236 9.11305 4
2 -5 2 112.056 6.17323 5
-2 -5 -2 112.810 6.60465 3
-2 -5 -2 110.689 6.06028 5
2 -5 2 102.269 6.41079 10
2 5 2 109.823 7.99114 9
-2 5 -2 109.434 6.70389 6
-2 5 -2 109.212 7.63426 9
2 5 2 117.694 7.10562 8
2 5 2 104.702 6.60659 2
-2 5 -2 109.856 6.04896 2
2 5 2 110.080 6.84304 3
3 -5 2 21.0507 3.31778 10
3 -5 2 24.1240 3.60863 7
-3 -5 -2 20.2093 3.60719 11
-3 -5 -2 21.3613 3.00056 5
-3 -5 -2 18.9345 3.15117 6
-3 -5 -2 22.3961 4.13574 4
-3 -5 -2 24.3596 3.99943 7
-3 -5 -2 16.3613 2.84870 3
3 5 2 23.4538 3.69157 3
-3 5 -2 18.6458 2.54755 2
3 5 2 16.4260 2.86606 2
3 5 2 18.1337 3.56027 9
-3 5 -2 18.0794 3.90049 4
-3 5 -2 21.3670 3.68447 9
3 5 2 17.0847 3.36882 8
-4 -5 -2 315.313 16.3603 11
4 -5 2 339.694 16.8088 7
-4 -5 -2 324.849 20.6458 4
-4 -5 -2 330.676 15.9154 3
-4 -5 -2 360.247 17.3435 6
-4 -5 -2 327.522 14.5565 5
4 -5 2 319.073 14.5932 10
-4 -5 -2 314.809 16.6152 7
-4 5 -2 318.351 17.6960 9
4 5 2 317.989 18.3503 9
-4 5 -2 296.927 14.7788 13
4 5 2 333.757 16.2050 3
4 5 2 325.165 16.2428 2
-4 5 -2 321.689 20.5080 4
4 5 2 353.036 16.5640 8
-5 -5 -2 43.2922 6.10300 7
-5 -5 -2 36.4315 4.61525 6
-5 -5 -2 39.9955 4.93894 5
-5 -5 -2 39.8494 4.92263 3
5 -5 2 42.7449 5.61834 7
-5 -5 -2 42.8599 6.36356 11
5 -5 2 34.8075 5.11424 10
5 5 2 37.5320 6.66542 9
5 5 2 42.4229 6.03148 3
-5 5 -2 46.0526 8.43970 4
5 5 2 32.3144 4.87073 2
-5 5 -2 41.4412 6.64669 9
-6 -5 -2 80.4139 6.51938 5
-6 -5 -2 89.2893 7.91602 7
-6 -5 -2 87.4519 6.89156 3
-6 -5 -2 80.2075 6.53954 6
6 5 2 79.1880 9.10941 9
-6 5 -2 68.6528 8.62819 9
6 5 2 89.5625 7.83792 3
6 5 2 77.1533 8.66437 8
-7 -5 -2 51.0191 6.98822 3
-7 -5 -2 43.4743 6.05278 6
-7 -5 -2 42.2161 7.50479 11
-7 -5 -2 41.6532 5.95145 5
-7 -5 -2 55.9892 9.81420 4
7 -5 2 42.0089 6.98641 7
7 5 2 38.1533 7.33318 9
7 5 2 49.1240 6.58684 3
-7 5 -2 55.4598 8.80886 9
7 5 2 44.6126 7.14505 8
-8 -5 -2 21.7013 7.90573 4
-8 -5 -2 4.44309 7.54431 11
-8 -5 -2 7.81828 4.38058 6
-8 -5 -2 6.25998 4.41025 5
-8 -5 -2 13.7905 5.35334 3
-8 -5 -2 23.8258 6.62645 12
8 -5 2 12.4572 6.26709 7
8 5 2 6.97483 6.25511 3
8 5 2 3.52729 5.36088 2
-8 5 -2 17.2919 6.12685 9
8 5 2 8.38676 6.65089 8
-9 -5 -2 7.64735 8.25053 11
9 -5 2 1.45972 7.39197 7
-9 -5 -2 0.33779 5.36081 5
-9 -5 -2 0.01188 5.03792 6
-9 -5 -2 9.72558 6.42934 3
-9 -5 -2 3.14787 8.75318 4
9 -5 2 3.84679 6.10626 3
9 5 2 3.15458 7.03029 2
9 5 2 6.80330 7.70497 8
-9 5 -2 5.93339 8.45107 12
-9 5 -2 5.12491 7.38381 11
-9 5 -2 1.34715 7.34972 9
9 5 2 6.20170 7.98862 3
-9 -6 2 40.4633 7.93091 3
-9 -6 2 25.8939 10.9409 4
-9 -6 2 46.5907 8.21515 5
-9 -6 2 21.8692 9.47722 11
9 -6 -2 37.2391 8.01572 3
9 -6 -2 38.6544 9.39231 7
9 6 -2 36.2753 8.67431 3
-9 6 2 57.4859 10.2973 9
-9 6 2 31.3642 10.1302 11
9 6 -2 52.3721 7.76490 2
9 6 -2 39.5202 9.04159 13
-8 -6 2 10.4119 6.14835 5
8 -6 -2 4.17587 6.58546 7
-8 -6 2 0.90783 8.68638 4
-8 -6 2 1.10730 7.32115 11
-8 -6 2 10.4669 5.53643 3
8 -6 -2 7.95734 6.17993 3
-8 6 2 30.0471 12.3826 4
8 6 -2 -4.5828 5.79830 2
-8 6 2 9.96707 7.64054 9
-8 6 2 3.30991 7.46379 11
8 6 -2 15.0160 6.76985 3
8 6 -2 -0.0631 6.47035 13
-8 6 2 -9.2339 7.58707 3
-7 -6 2 43.6602 6.61447 5
7 -6 -2 48.5510 7.90803 3
-7 -6 2 48.1456 6.86949 3
-7 6 2 50.1590 7.28732 11
7 6 -2 42.2675 6.37471 13
7 6 -2 34.5882 5.67648 2
7 6 -2 39.5834 7.10324 3
-7 6 2 54.1003 10.6171 4
-7 6 2 28.4802 7.00940 3
-7 6 2 40.8118 8.62654 9
-6 -6 2 51.7423 6.56708 5
-6 -6 2 51.7558 6.04766 3
6 -6 -2 43.2631 5.11931 10
6 -6 -2 52.2267 6.74082 3
-6 -6 2 55.2119 8.30203 4
-6 -6 2 44.3165 6.60872 11
-6 6 2 47.0093 6.42583 3
-6 6 2 49.4246 7.14155 9
-6 6 2 62.0390 7.70579 11
6 6 -2 47.4803 5.72018 13
6 6 -2 34.8543 6.34022 3
5 -6 -2 -1.1632 3.71298 10
-5 -6 2 -0.3065 3.47216 5
5 -6 -2 2.50743 3.76550 3
-5 -6 2 3.51272 3.37893 3
-5 -6 2 8.68273 4.58744 11
5 -6 -2 -2.8646 4.03276 7
-5 6 2 3.94966 5.47739 4
-5 6 2 8.10761 4.09551 3
5 6 -2 9.00816 3.56789 13
5 6 -2 1.96480 3.64799 3
-5 6 2 -2.1676 4.74176 11
-5 6 2 3.91529 4.57324 9
-4 -6 2 38.2408 4.62733 3
4 -6 -2 41.2395 5.65819 3
-4 -6 2 40.4339 5.92011 11
-4 -6 2 43.8406 5.51492 5
-4 -6 2 40.7203 5.41327 3
4 -6 -2 44.6911 5.43621 3
4 -6 -2 35.4694 5.98798 7
4 -6 -2 54.9972 5.50516 10
-4 6 2 45.3829 5.05129 2
-4 6 2 44.7641 5.89991 3
-4 6 2 61.7380 7.43660 9
4 6 -2 40.4080 5.02676 13
-4 6 2 60.1074 6.66643 11
4 6 -2 45.3448 4.62350 2
4 6 -2 46.4546 5.18313 3
3 -6 -2 9.49695 3.24410 3
3 -6 -2 9.53153 3.65546 7
3 -6 -2 9.05507 3.21608 3
-3 -6 2 12.0451 3.62563 11
-3 -6 2 10.2939 3.00424 5
-3 -6 2 8.57123 2.55437 3
-3 6 2 11.6618 4.09959 11
-3 6 2 9.39844 2.84755 2
-3 6 2 9.55941 3.32400 3
3 6 -2 8.00708 2.50893 2
-3 6 2 11.7553 4.11699 9
-2 -6 2 165.685 9.06068 5
-2 -6 2 179.837 8.94729 11
2 -6 -2 163.130 8.90301 1
2 -6 -2 172.667 9.41177 3
2 -6 -2 180.085 10.4899 7
2 -6 -2 179.212 9.49481 3
-2 6 2 176.030 9.86749 11
2 6 -2 167.782 11.1970 9
-2 6 2 180.314 9.75612 3
-2 6 2 173.929 9.25508 2
2 6 -2 171.841 9.45679 2
2 6 -2 152.550 8.56717 11
-2 6 2 178.610 11.4950 9
1 -6 -2 78.9791 5.93514 3
1 -6 -2 73.3100 5.48718 3
-1 -6 2 77.4748 5.70621 5
1 -6 -2 83.7726 6.17663 7
-1 -6 2 73.3298 5.34843 1
1 -6 -2 83.1506 5.69017 6
-1 6 2 75.9169 5.88391 3
1 6 -2 76.5302 5.38288 2
-1 6 2 76.5453 5.39325 2
-1 6 2 69.4541 7.03099 9
-1 6 2 71.0480 6.08345 11
1 6 -2 72.1721 7.37363 9
0 -6 2 207.178 10.0423 7
0 -6 -2 195.573 10.8791 7
0 -6 -2 168.246 10.1964 3
0 -6 -2 194.888 10.0926 3
0 -6 2 187.160 9.66860 1
0 -6 2 196.742 9.87688 5
0 -6 -2 207.145 10.4852 6
0 6 2 194.551 10.2503 2
0 6 -2 190.326 10.0406 2
0 6 2 194.584 10.5654 11
0 6 -2 188.250 12.0389 9
0 6 2 185.725 12.0292 9
0 6 2 186.137 10.2782 3
1 -6 2 120.519 7.71681 7
-1 -6 -2 121.546 7.54107 3
-1 -6 -2 118.177 7.83129 3
-1 -6 -2 129.078 7.64022 6
-1 -6 -2 125.709 8.29324 11
1 -6 2 130.411 7.34639 1
1 -6 2 125.285 7.23618 5
-1 -6 -2 126.990 8.18790 7
1 6 2 127.437 9.23851 9
1 6 2 120.864 8.00612 11
-1 6 -2 128.587 7.15745 2
1 6 2 128.096 7.85784 3
1 6 2 123.787 7.64097 2
-1 6 -2 131.029 9.25246 9
-2 -6 -2 51.2692 4.67784 3
-2 -6 -2 38.3477 5.40073 3
2 -6 2 43.8589 4.52691 1
2 -6 2 37.5064 5.22830 7
2 -6 2 40.4188 5.24123 10
-2 -6 -2 38.6176 4.46423 5
2 -6 2 39.2402 4.43504 5
-2 -6 -2 49.0564 5.47098 11
-2 -6 -2 31.9683 5.20561 7
-2 -6 -2 43.3992 4.49091 6
2 6 2 40.3207 4.69854 2
2 6 2 45.1539 6.53752 9
-2 6 -2 52.3539 3.93442 2
-2 6 -2 34.2256 4.71987 6
-2 6 -2 40.1408 6.03231 9
2 6 2 54.7831 5.43985 3
-3 -6 -2 499.477 23.9485 11
-3 -6 -2 495.095 21.4858 5
-3 -6 -2 497.680 23.4118 3
3 -6 2 486.540 21.5922 10
3 -6 2 489.148 24.3927 7
-3 -6 -2 505.452 24.3255 7
-3 -6 -2 528.971 25.2423 6
3 6 2 501.436 23.9833 2
-3 6 -2 502.931 30.1201 4
3 6 2 468.018 26.7316 9
-3 6 -2 501.788 22.9957 2
-3 6 -2 506.781 26.4162 9
3 6 2 516.271 23.8141 3
3 6 2 502.436 23.8162 8
-4 -6 -2 19.6544 4.30024 7
-4 -6 -2 13.5863 4.16600 11
4 -6 2 16.3518 4.30708 7
-4 -6 -2 12.2811 3.01791 6
-4 -6 -2 18.4233 3.70972 5
-4 -6 -2 14.1530 4.04212 3
4 -6 2 12.6641 4.20879 10
-4 6 -2 3.17971 5.44431 4
-4 6 -2 12.8715 4.61832 9
4 6 2 10.8111 4.40307 3
4 6 2 9.07207 4.60024 9
4 6 2 17.7396 4.68692 8
-5 -6 -2 113.790 8.06888 5
-5 -6 -2 121.629 8.48760 3
-5 -6 -2 123.343 8.43146 6
5 -6 2 113.422 8.11070 10
-5 -6 -2 103.766 8.93516 7
5 6 2 128.402 10.2180 8
-5 6 -2 130.990 10.3045 9
5 6 2 114.860 9.26569 3
-5 6 -2 123.779 13.0030 4
-6 -6 -2 -0.3562 5.53714 4
-6 -6 -2 -0.2931 4.01148 3
-6 -6 -2 1.06649 3.15971 6
-6 -6 -2 -2.1326 4.97540 7
6 -6 2 5.74249 4.65131 10
6 -6 2 0.69104 4.77203 7
-6 -6 -2 -1.0768 4.21670 5
-6 6 -2 13.0294 7.76133 4
6 6 2 3.76929 5.72332 8
6 6 2 -3.8372 4.02728 2
6 6 2 5.28563 5.45048 3
-6 6 -2 -6.2551 5.30130 9
-7 -6 -2 8.88927 5.58230 5
-7 -6 -2 0.67189 7.26073 4
-7 -6 -2 -0.3824 3.94811 6
-7 -6 -2 -4.6144 5.55434 7
-7 -6 -2 4.34958 5.19694 3
-7 -6 -2 2.25070 6.65305 11
7 -6 2 -0.3452 6.11534 7
-7 6 -2 -8.1953 6.90953 9
7 6 2 3.51339 6.51339 8
7 6 2 4.12874 7.45400 9
7 6 2 -3.9487 6.01474 3
7 6 2 -9.7410 4.96485 2
-8 -6 -2 1.05166 4.82286 6
-8 -6 -2 0.04434 7.69046 7
-8 -6 -2 7.41170 8.37616 4
-8 -6 -2 8.05710 6.04593 5
-8 -6 -2 17.4641 7.60889 11
8 -6 2 3.32441 7.00788 7
-8 -6 -2 11.5360 6.35055 3
8 6 2 6.20996 7.71971 3
8 6 2 2.36930 8.43389 9
-8 6 -2 -3.4772 7.64457 9
8 6 2 11.9572 7.80631 8
8 6 2 1.03156 6.19606 2
7 -7 -2 1.46405 5.92662 3
-7 -7 2 5.69090 7.20615 11
-7 -7 2 0.08989 6.72061 5
-7 -7 2 15.5642 5.42596 3
7 -7 -2 12.5710 7.03320 7
-7 7 2 16.9043 8.19407 11
-7 7 2 -11.120 9.15197 9
7 7 -2 0.39793 5.60545 2
-7 7 2 12.0864 11.7479 4
7 7 -2 8.01841 6.41389 13
7 7 -2 13.9254 7.50708 3
6 -7 -2 53.9893 8.46910 3
6 -7 -2 73.8589 8.38531 10
-6 -7 2 72.5493 8.64720 5
-6 -7 2 67.7184 7.68563 3
6 -7 -2 77.9376 9.07596 7
6 7 -2 47.3145 6.47211 2
-6 7 2 52.2241 7.37981 3
-6 7 2 74.3167 9.27140 11
6 7 -2 54.2958 7.95793 13
-6 7 2 87.2447 12.7976 4
-6 7 2 60.4781 9.00186 9
6 7 -2 51.9374 7.99238 3
-5 -7 2 35.4505 6.07288 5
5 -7 -2 32.6901 6.66844 7
-5 -7 2 38.7142 5.32528 3
5 -7 -2 24.6541 5.17681 3
-5 -7 2 22.4405 5.88991 11
5 -7 -2 21.1961 5.26416 10
5 7 -2 28.1552 5.03239 13
-5 7 2 22.3967 5.93288 3
-5 7 2 30.3019 7.24392 9
-5 7 2 32.8425 6.69962 11
5 7 -2 31.9274 5.86846 3
-5 7 2 44.1159 9.05224 4
4 -7 -2 21.1196 4.77437 10
-4 -7 2 10.9575 3.80828 3
-4 -7 2 10.8749 4.76084 11
4 -7 -2 12.0652 4.18043 3
-4 -7 2 11.1706 4.24223 5
-4 7 2 12.6751 4.46650 3
-4 7 2 16.1905 3.94157 2
4 7 -2 13.2317 3.70074 2
-4 7 2 15.8918 5.58301 9
4 7 -2 14.5875 4.40181 3
-4 7 2 18.3412 5.57966 11
-3 -7 2 99.8620 7.67339 11
-3 -7 2 106.750 7.41138 5
3 -7 -2 101.196 7.51461 3
3 7 -2 105.061 9.73584 9
-3 7 2 99.6986 10.3980 9
-3 7 2 91.0224 7.17682 2
-3 7 2 103.541 8.61219 11
3 7 -2 110.703 7.61014 2
-3 7 2 95.9263 8.17040 3
2 -7 -2 2.62735 2.96560 3
2 -7 -2 -0.3893 3.70899 7
-2 -7 2 -1.4349 3.11152 11
-2 -7 2 1.54316 3.12137 5
-2 7 2 4.45578 3.86663 3
-2 7 2 2.29238 4.46762 11
-2 7 2 -0.9500 2.95966 2
2 7 -2 4.53860 4.74436 9
-2 7 2 -4.1148 4.28004 9
2 7 -2 -0.7658 2.76904 2
-1 -7 2 28.3726 4.06792 1
1 -7 -2 34.3626 5.49003 7
1 -7 -2 27.8056 4.39877 3
1 -7 -2 35.3485 4.69540 3
-1 7 2 34.3137 5.52155 11
-1 7 2 29.5775 4.81047 2
1 7 -2 28.4833 4.59745 2
1 7 -2 31.4417 5.46327 9
0 -7 -2 34.2823 4.88061 7
0 -7 2 29.6185 4.14843 1
0 -7 2 28.0175 4.19081 7
0 -7 -2 30.5617 4.32155 3
0 7 2 31.5806 4.23134 2
0 7 -2 31.9281 5.44043 9
0 7 2 28.0765 4.63820 3
0 7 -2 30.5995 4.66511 2
0 7 2 36.0710 4.93940 11
-1 -7 -2 41.1230 6.13730 3
1 -7 2 34.5544 5.53308 7
-1 -7 -2 48.0829 4.99478 6
-1 -7 -2 49.1510 6.14189 7
1 -7 2 52.1752 5.56150 1
-1 -7 -2 49.4512 5.49182 3
1 7 2 51.5464 6.25147 11
-1 7 -2 62.3354 8.03718 9
1 7 2 59.4714 6.32731 3
1 7 2 43.9669 5.23084 2
-1 7 -2 44.7074 4.59749 2
2 -7 2 157.252 10.1965 7
-2 -7 -2 176.597 11.0654 11
2 -7 2 164.625 10.1761 10
-2 -7 -2 168.809 9.64641 3
-2 -7 -2 171.655 10.4054 7
2 -7 2 169.001 9.61632 1
-2 -7 -2 169.106 9.95678 6
2 7 2 148.405 10.3483 3
2 7 2 159.231 10.0662 2
-2 7 -2 156.679 9.12975 2
-2 7 -2 163.934 12.4141 9
2 7 2 174.279 10.9238 11
-3 -7 -2 -0.5177 3.24502 3
-3 -7 -2 -3.5275 4.07559 7
3 -7 2 -4.3218 4.12707 10
-3 -7 -2 5.40888 4.56972 11
-3 -7 -2 -1.3251 3.63799 5
3 -7 2 5.36432 4.11712 7
-3 -7 -2 -2.3888 2.85417 6
3 -7 2 -5.4332 2.99138 1
-3 7 -2 -2.5470 4.99307 9
3 7 2 10.1178 5.06579 8
3 7 2 -2.0169 3.40691 2
3 7 2 2.79219 4.59267 3
-3 7 -2 6.09129 2.56368 2
-3 7 -2 5.46571 5.92685 4
-4 -7 -2 82.4335 8.17044 7
-4 -7 -2 91.3058 7.48191 6
-4 -7 -2 93.1445 7.47629 5
-4 -7 -2 101.401 8.08684 3
4 -7 2 75.6404 8.53433 10
4 7 2 78.8919 8.18021 2
4 7 2 108.921 10.3655 8
-4 7 -2 95.1311 10.7253 9
4 7 2 90.4367 8.96642 3
-4 7 -2 84.1561 6.56608 2
-4 7 -2 78.3945 13.1252 4
-5 -7 -2 1.31558 3.75141 6
-5 -7 -2 8.03786 5.06477 7
-5 -7 -2 2.46437 7.45530 4
5 -7 2 5.33309 5.08400 7
-5 -7 -2 0.52712 4.90653 3
-5 -7 -2 1.86621 4.44535 5
-5 -7 -2 0.69767 5.98670 11
5 -7 2 13.3888 4.90994 10
5 7 2 3.01161 6.74862 9
-5 7 -2 9.60887 8.31868 4
-5 7 -2 14.8008 6.26647 9
5 7 2 12.3414 6.21395 8
5 7 2 1.85931 5.99800 3
5 7 2 -1.5174 4.99616 2
-6 -7 -2 28.6780 7.50960 11
-6 -7 -2 26.7394 5.16948 6
-6 -7 -2 51.5514 8.12666 7
-6 -7 -2 36.9314 9.27732 4
-6 -7 -2 20.2103 6.02529 3
6 -7 2 23.6828 6.10294 10
6 -7 2 33.6307 6.84334 7
-6 -7 -2 32.9677 5.88318 5
6 7 2 27.9071 8.21439 9
6 7 2 23.5465 5.87124 2
-6 7 -2 39.0686 11.0666 4
-6 7 -2 23.4868 7.48985 9
6 7 2 29.4542 8.11803 8
6 7 2 36.2348 7.39897 3
-7 -7 -2 7.29062 9.55013 4
-7 -7 -2 23.9055 6.80259 5
-7 -7 -2 19.0921 7.79568 11
-7 -7 -2 18.5651 6.66053 3
7 -7 2 11.7151 7.40610 7
-7 -7 -2 9.50855 5.13844 6
7 7 2 8.19887 9.28997 9
7 7 2 20.4242 8.54385 8
7 7 2 18.4344 6.59741 2
-7 7 -2 47.2277 15.1478 4
-7 7 -2 -10.462 9.35996 9
7 7 2 10.6447 8.11139 3
6 -8 -2 22.1473 7.38348 7
6 -8 -2 20.5711 6.65697 10
-6 -8 2 9.74811 7.60296 11
-6 -8 2 4.79183 6.45979 5
-6 -8 2 20.3075 6.15606 3
6 -8 -2 5.54941 6.39492 3
6 8 -2 12.6307 5.95156 2
-6 8 2 27.8090 8.70371 11
-6 8 2 -0.1385 8.87479 9
6 8 -2 6.82439 7.04253 13
6 8 -2 12.7201 8.83050 9
-6 8 2 27.1933 12.9042 4
5 -8 -2 13.6452 5.54980 3
5 -8 -2 3.82462 6.00535 10
-5 -8 2 9.32710 5.51539 5
5 -8 -2 13.2708 6.37352 7
-5 -8 2 3.39942 6.47078 11
-5 -8 2 13.2448 5.29259 3
-5 8 2 3.61108 4.72213 2
-5 8 2 8.51182 7.34025 11
5 8 -2 4.96806 5.56859 2
5 8 -2 11.5118 7.42998 9
-5 8 2 -4.2290 7.77029 9
-5 8 2 18.7770 10.5816 4
-4 -8 2 101.985 10.0010 11
4 -8 -2 117.324 9.27414 3
-4 -8 2 100.627 9.78959 5
4 -8 -2 101.908 8.43937 1
4 -8 -2 104.376 10.8804 7
4 -8 -2 121.674 10.3662 10
4 8 -2 97.0767 9.33128 2
-4 8 2 142.161 13.7053 9
4 8 -2 113.254 13.4663 9
-4 8 2 110.073 8.72062 2
-4 8 2 126.317 11.1474 11
-3 -8 2 19.7186 5.56222 11
3 -8 -2 14.6471 5.88863 7
3 -8 -2 6.84765 4.60558 3
3 -8 -2 8.89659 3.91234 1
-3 -8 2 9.32983 4.80630 5
-3 8 2 4.56376 6.50861 11
3 8 -2 6.82944 7.11576 9
-3 8 2 17.5548 7.40227 9
3 8 -2 5.36401 4.28533 2
-3 8 2 8.76490 4.61437 2
-2 -8 2 167.593 10.6211 5
2 -8 -2 146.333 8.98072 1
2 -8 -2 175.648 10.4008 3
-2 8 2 160.859 10.3854 2
2 8 -2 153.936 10.2313 2
-2 8 2 166.787 14.5695 9
2 8 -2 165.721 14.1421 9
-2 8 2 149.570 11.5678 11
1 -8 -2 15.6304 5.08243 7
1 -8 -2 18.2427 4.30008 3
1 8 -2 16.2903 4.24954 2
-1 8 2 18.2193 6.34418 11
1 8 -2 18.9544 7.84933 9
-1 8 2 12.2112 6.46628 9
-1 8 2 20.3729 4.63135 2
-1 8 2 13.9939 4.94600 3
0 -8 -2 24.1983 5.56024 7
0 -8 2 22.3440 4.86724 7
0 -8 -2 22.7720 5.02509 3
0 8 2 26.6860 5.08295 2
0 8 -2 29.5197 6.89257 9
0 8 2 32.2266 5.44261 3
0 8 -2 25.4275 4.35277 2
0 8 2 25.6507 5.76530 11
-1 -8 -2 10.6836 4.94028 7
1 -8 2 3.19281 4.44992 7
-1 -8 -2 9.03899 4.01383 3
1 -8 2 2.03671 3.89721 5
-1 8 -2 6.97917 3.47309 2
-1 8 -2 1.17028 5.35757 9
1 8 2 7.81112 4.24086 2
1 8 2 7.06283 4.76012 3
1 8 2 3.33769 5.28680 11
2 -8 2 -1.3644 4.80675 10
-2 -8 -2 8.55122 4.60282 7
2 -8 2 -1.5121 4.94437 7
-2 -8 -2 -0.5823 4.09938 3
-2 8 -2 5.13378 3.25618 2
-2 8 -2 0.28750 6.95036 9
2 8 2 -6.6712 3.72572 2
2 8 2 4.71983 4.89872 11
2 8 2 -8.0560 5.41027 3
2 8 2 -0.1916 5.41018 9
-3 -8 -2 48.2678 6.72252 7
3 -8 2 51.8601 7.34118 10
3 -8 2 51.7633 6.38927 1
-3 -8 -2 52.3136 6.71673 3
3 8 2 44.5011 7.36813 2
3 8 2 68.7595 10.8878 8
3 8 2 54.1400 8.34834 11
-3 8 -2 41.4320 8.97602 9
3 8 2 53.9228 9.05595 9
-3 8 -2 35.6998 5.80751 2
-3 8 -2 73.3458 14.1134 4
3 8 2 62.8849 7.80896 3
4 -8 2 6.88476 4.67080 1
-4 -8 -2 9.67887 5.46016 3
-4 -8 -2 14.4212 5.30996 7
-4 -8 -2 10.4949 6.29871 11
-4 -8 -2 1.56596 5.25851 5
4 -8 2 6.89742 5.64147 7
4 -8 2 1.47069 5.93248 10
-4 -8 -2 1.09513 4.53249 6
-4 8 -2 3.01557 9.87562 4
-4 8 -2 13.4338 3.77560 2
4 8 2 -0.0557 4.98479 2
-4 8 -2 12.6635 8.23717 9
4 8 2 7.09605 7.45375 9
4 8 2 22.6912 7.42227 8
4 8 2 3.03899 6.46362 3
-5 -8 -2 56.1648 9.04874 3
-5 -8 -2 58.0112 7.94360 5
5 -8 2 64.2651 7.97301 10
5 -8 2 68.0532 9.41025 7
-5 -8 -2 58.4134 9.19438 11
-5 -8 -2 43.8637 7.13043 7
-5 -8 -2 40.9043 6.77611 6
5 8 2 64.7756 9.56076 8
5 8 2 67.2381 8.54052 2
5 8 2 56.4742 9.08113 3
5 8 2 56.9242 10.5455 9
-5 8 -2 88.6869 17.4927 4
3 -9 -2 71.1555 9.79062 7
-3 -9 2 72.4279 9.73433 5
3 -9 -2 86.6880 9.38968 3
3 -9 -2 80.2839 9.36303 10
-3 9 2 78.4296 11.5051 11
3 9 -2 78.4609 11.4944 9
-3 9 2 87.0411 15.4064 9
3 9 -2 70.7650 8.75361 2
3 9 -2 69.4399 9.83036 11
-3 9 2 59.3954 9.18049 2
2 -9 -2 0.70116 4.78634 3
-2 -9 2 6.50970 5.00303 5
2 -9 -2 2.19158 6.82545 7
-2 9 2 4.31111 8.09949 9
-2 9 2 -11.907 7.79285 11
2 9 -2 8.23292 8.90304 9
-2 9 2 1.73978 5.67125 2
2 9 -2 2.42904 4.58105 2
-1 -9 2 65.5754 8.31799 5
1 -9 -2 56.4653 9.85029 7
1 -9 -2 56.8409 8.40624 3
-1 9 2 79.8293 11.0596 11
-1 9 2 63.6950 8.64590 2
1 9 -2 70.1954 10.5959 9
1 9 -2 79.6611 7.94035 2
-1 9 2 73.6605 10.9065 9
0 -9 2 8.78649 5.23870 7
0 -9 -2 12.5087 5.38933 3
0 -9 2 0.11687 4.96853 5
0 -9 2 12.9441 5.08530 1
0 9 2 9.36770 5.41172 2
0 9 -2 9.63650 7.91342 9
0 9 2 2.54344 7.16737 11
0 9 -2 9.95378 4.23009 2
0 9 2 0.65618 7.69342 9
1 -9 2 8.56056 5.25299 7
-1 -9 -2 0.72214 5.12315 3
1 -9 2 0.97764 4.33200 1
-1 9 -2 2.97533 4.27870 2
1 9 2 2.44052 8.64133 9
-1 9 -2 -7.6273 8.50718 9
1 9 2 3.38511 6.50888 11
1 9 2 -3.0859 5.23652 2
-2 -9 -2 -0.0900 5.55155 3
2 -9 2 6.55260 6.97543 10
2 -9 2 3.46760 4.50358 1
-2 -9 -2 -1.5945 5.19238 7
-2 9 -2 -8.0658 8.69762 9
2 9 2 -4.3636 5.52203 2
2 9 2 4.59045 9.03264 9
-2 9 -2 -6.7065 4.17989 2
2 9 2 -4.8696 7.24273 11
-11 0 3 33.5917 7.93687 3
11 0 -3 43.7036 8.58176 13
11 0 -3 37.8737 7.96975 3
-11 0 3 28.4663 7.97830 11
11 0 -3 52.7596 9.00859 7
11 0 -3 47.0925 7.30681 2
-10 0 3 56.3568 8.68805 11
-10 0 3 53.4545 10.6769 4
-10 0 3 53.0555 8.14001 3
10 0 -3 63.3983 8.72929 7
-10 0 3 59.6591 8.29144 9
10 0 -3 64.7203 8.80475 13
10 0 -3 68.5865 8.94279 3
9 0 -3 98.2621 6.67476 2
9 0 -3 84.6218 8.19244 3
-9 0 3 93.8384 9.55818 9
9 0 -3 102.641 8.18010 7
-9 0 3 74.8126 8.17976 11
-9 0 3 86.0069 7.88719 3
8 0 -3 485.833 23.2198 7
8 0 -3 514.731 22.2832 2
8 0 -3 488.878 22.4833 13
8 0 -3 487.319 23.0163 3
-8 0 3 425.000 22.5967 11
-8 0 3 493.570 22.8044 3
-8 0 3 475.412 25.2267 9
-8 0 3 458.976 28.2179 4
7 0 -3 70.8173 5.37330 13
7 0 -3 72.0070 5.82399 7
7 0 -3 74.2356 5.11704 2
-7 0 3 78.7724 5.86040 3
6 0 -3 78.3243 4.50996 2
6 0 -3 65.4033 5.23541 6
5 0 -3 1085.51 47.7317 8
-5 0 3 1134.68 49.5640 7
-5 0 3 1038.80 45.8441 12
-5 0 3 1079.77 53.1002 9
5 0 -3 1114.87 49.4049 7
-5 0 3 1038.41 47.6689 3
5 0 -3 1120.81 46.9094 13
-5 0 3 1057.21 47.5316 11
5 0 -3 1103.53 47.8478 3
-5 0 3 1071.94 47.7754 3
-4 0 3 2125.56 92.3427 9
4 0 -3 1941.67 81.2570 13
-4 0 3 1853.07 86.0666 7
-4 0 3 1859.89 82.3420 11
4 0 -3 1962.99 92.3026 9
-4 0 3 1883.16 82.8324 3
4 0 -3 1994.89 82.9202 8
4 0 -3 1828.59 85.9868 7
4 0 -3 1869.33 82.9019 3
-4 0 3 1892.28 81.2921 13
4 0 -3 1828.24 82.7063 3
-4 0 3 1834.26 82.8329 3
-4 0 3 2069.11 79.8368 12
4 0 -3 1757.66 82.2880 11
-3 0 3 730.080 32.5807 13
3 0 -3 773.923 33.2615 3
-3 0 3 736.265 34.3951 7
-3 0 3 751.351 33.2284 3
3 0 -3 698.511 34.3649 7
3 0 -3 731.932 33.0216 11
3 0 -3 745.553 32.5436 13
-3 0 3 745.336 33.1822 3
3 0 -3 755.920 33.2130 8
3 0 -3 755.759 36.9549 9
-3 0 3 800.097 36.9614 9
3 0 -3 723.277 33.0753 3
-3 0 3 803.317 31.9772 12
-3 0 3 788.500 33.1154 11
-2 0 3 75.5902 4.62770 9
-2 0 3 79.2026 4.19063 13
2 0 -3 76.3228 4.23935 7
2 0 -3 82.6394 4.37647 2
-2 0 3 81.4354 4.12854 12
2 0 -3 80.3660 4.15018 13
2 0 -3 75.0087 4.64564 9
2 0 -3 83.7617 4.31580 3
-2 0 3 82.9740 4.29587 8
-2 0 3 84.8445 4.31538 11
-2 0 3 78.9558 4.37379 7
-2 0 3 74.4061 4.23411 3
2 0 -3 78.5448 3.97643 12
2 0 -3 82.6176 4.34532 11
2 0 -3 81.1328 4.17972 3
2 0 -3 84.3529 4.38954 8
2 0 -3 84.5795 4.66104 6
-2 0 3 84.8109 4.28913 3
1 0 -3 931.690 37.3662 13
-1 0 3 881.268 36.6488 12
1 0 -3 884.770 37.9807 3
-1 0 3 832.200 38.0718 8
-1 0 3 842.039 37.7492 11
1 0 -3 825.415 37.7377 11
-1 0 3 875.939 37.9857 3
-1 0 3 889.482 37.3669 13
1 0 -3 936.992 42.2043 9
-1 0 3 935.753 38.0939 3
1 0 -3 828.395 39.5128 7
-1 0 3 948.110 42.2155 9
1 0 -3 871.226 38.0070 3
1 0 -3 815.959 38.0636 8
1 0 -3 790.796 40.9975 6
-1 0 3 829.598 40.9929 6
0 0 -3 1121.70 55.0400 9
0 0 -3 1084.66 50.2756 2
0 0 3 1183.50 49.6611 3
0 0 3 1122.16 55.0258 9
0 0 3 1212.30 53.7068 6
0 0 3 1022.30 49.6272 3
0 0 3 1246.17 49.3841 11
0 0 -3 1189.80 53.6942 6
0 0 -3 1154.42 49.6622 3
0 0 -3 1069.20 49.6425 3
0 0 -3 1103.72 47.9345 12
0 0 3 1212.67 49.8446 8
0 0 -3 1180.45 49.8034 8
0 0 3 1009.13 47.8149 12
0 0 -3 1163.15 44.6296 10
0 0 3 1118.65 46.4673 1
0 0 3 1154.51 49.3549 11
0 0 -3 1208.55 49.3471 11
0 0 3 1146.06 50.3140 2
-1 0 -3 292.347 15.5264 6
1 0 3 315.618 14.2531 11
1 0 3 284.264 14.3867 8
1 0 3 352.329 14.5430 2
1 0 3 325.058 13.8677 12
-1 0 -3 339.430 13.9113 12
1 0 3 314.328 14.3211 3
2 0 3 8499.87 364.030 8
2 0 3 8301.75 349.433 12
2 0 3 8811.54 362.731 3
-2 0 -3 8520.88 362.824 3
-2 0 -3 7956.26 362.707 8
-2 0 -3 9316.60 460.809 4
2 0 3 8529.95 459.832 4
-2 0 -3 8130.63 367.088 2
-2 0 -3 8396.89 349.948 12
2 0 3 8470.31 362.929 3
2 0 3 8530.96 368.051 2
-2 0 -3 8237.11 391.022 6
-2 0 -3 8375.10 360.215 11
-2 0 -3 8303.32 362.319 3
2 0 3 8115.59 391.376 6
2 0 3 8226.57 359.673 11
-3 0 -3 138.446 6.91248 2
-3 0 -3 142.399 6.97490 11
-3 0 -3 140.483 7.12904 3
3 0 3 145.172 6.88665 12
3 0 3 141.280 6.90200 11
3 0 3 142.984 6.92006 2
-3 0 -3 138.924 7.28052 7
3 0 3 139.119 7.14923 8
-3 0 -3 141.549 6.84977 12
-3 0 -3 130.122 7.01582 8
3 0 3 143.596 7.07721 3
3 0 3 133.611 7.55171 6
3 0 3 125.619 8.68831 4
3 0 3 124.828 6.77178 3
-3 0 -3 138.720 6.84329 3
-3 0 -3 130.353 6.75228 13
-3 0 -3 135.963 7.64859 6
-3 0 -3 144.811 8.94513 4
-4 0 -3 450.096 20.0140 11
-4 0 -3 436.758 20.0486 2
-4 0 -3 441.541 19.9339 3
4 0 3 436.104 20.0329 3
-4 0 -3 436.568 25.5170 4
4 0 3 464.906 20.3497 8
4 0 3 449.872 20.0705 2
-4 0 -3 444.710 19.6240 12
4 0 3 446.453 20.1302 3
-4 0 -3 414.553 21.5894 6
4 0 3 415.882 21.6807 6
4 0 3 449.299 19.9413 11
-5 0 -3 530.355 25.0338 12
-5 0 -3 583.081 25.8131 11
5 0 3 568.970 25.6209 3
-5 0 -3 605.129 25.5725 3
5 0 3 583.769 25.8048 3
-5 0 -3 527.359 32.5225 4
5 0 3 584.635 26.0535 8
-5 0 -3 599.304 25.6821 2
5 0 3 574.808 25.6357 2
-5 0 -3 505.822 27.4825 6
-6 0 -3 163.336 8.82036 2
-6 0 -3 175.967 9.42347 6
-6 0 -3 157.586 9.45371 12
-6 0 -3 170.403 9.55620 11
6 0 3 178.083 9.84448 8
6 0 3 167.953 8.69588 2
6 0 3 151.240 9.49277 3
-6 0 -3 183.750 8.99237 3
6 0 3 162.883 8.91996 3
-6 0 -3 154.418 11.6305 4
7 0 3 11.5185 3.09987 3
-7 0 -3 1.65864 3.33554 2
-7 0 -3 15.8654 3.92613 12
-7 0 -3 8.42769 2.57508 6
7 0 3 10.4483 3.72000 8
-7 0 -3 13.0878 4.54308 4
7 0 3 13.3785 3.07347 2
-7 0 -3 15.5272 4.35532 11
-7 0 -3 8.06725 3.27241 3
8 0 3 53.7723 5.78350 3
-8 0 -3 41.8060 6.37442 3
-8 0 -3 38.0709 5.10412 6
8 0 3 28.7336 5.87719 8
-8 0 -3 32.8017 6.05376 11
8 0 3 43.5712 5.51615 2
-9 0 -3 85.1927 7.78131 6
9 0 3 66.9454 6.72179 2
-9 0 -3 83.6962 10.0598 12
9 0 3 82.6734 8.20786 3
-9 0 -3 75.7060 10.0022 11
-9 0 -3 92.5404 8.46186 3
-10 0 -3 0.49114 5.04738 6
-10 0 -3 1.19202 7.23209 4
10 0 3 2.77433 7.73530 8
10 0 3 22.0256 6.23114 3
-10 0 -3 9.25416 6.66914 3
-10 0 -3 -2.0782 7.32514 12
-10 0 -3 12.3427 7.59163 11
-11 -1 3 56.0795 9.16574 12
11 -1 -3 80.3954 10.6213 13
11 -1 -3 72.1158 10.3226 3
-11 -1 3 61.7562 10.1066 11
-11 -1 3 76.5237 9.89927 3
11 -1 -3 73.9962 10.1838 7
11 1 -3 54.6848 7.08398 2
11 1 -3 46.9234 8.95974 3
-11 1 3 53.8407 8.69473 3
-11 1 3 43.8748 9.93635 4
11 1 -3 67.7362 9.94310 7
11 1 -3 60.8338 9.05417 13
-11 1 3 81.4675 13.0005 9
-11 1 3 58.0865 9.32062 11
-10 -1 3 9.27074 5.14259 3
10 -1 -3 -1.2081 5.10794 3
10 -1 -3 4.91109 6.42021 7
10 -1 -3 -0.2901 5.98086 13
-10 -1 3 0.09434 6.36501 11
-10 -1 3 -4.0801 6.15022 4
-10 1 3 -5.3850 6.54788 4
10 1 -3 -5.3669 5.73167 3
-10 1 3 6.81097 5.30583 3
10 1 -3 11.4414 4.68875 2
-10 1 3 2.37209 6.16264 9
10 1 -3 9.44927 5.96930 7
-10 1 3 -1.2933 6.38694 11
9 -1 -3 112.889 9.09879 3
-9 -1 3 109.321 8.61372 3
9 -1 -3 125.185 9.19089 7
-9 -1 3 111.716 10.6596 4
9 1 -3 113.514 8.78897 7
-9 1 3 129.076 10.9858 4
9 1 -3 133.330 7.86404 2
-9 1 3 111.862 9.16967 11
-9 1 3 114.837 9.16196 3
-9 1 3 124.143 10.2057 9
9 1 -3 98.8513 9.48822 3
-8 -1 3 79.0609 6.65346 3
8 -1 -3 78.6493 6.75931 3
8 -1 -3 68.3616 6.88304 7
8 -1 -3 84.9337 5.32224 2
8 -1 -3 79.0326 6.55007 13
-8 -1 3 60.9539 7.83135 4
8 1 -3 65.5341 7.14165 3
-8 1 3 74.4468 6.80468 3
-8 1 3 60.7640 7.44292 9
-8 1 3 63.0206 6.76885 11
8 1 -3 75.3655 6.59149 7
7 -1 -3 257.847 11.8029 2
-7 -1 3 258.503 14.3006 9
-7 -1 3 250.006 13.0462 7
-7 -1 3 223.074 12.7259 11
7 -1 -3 234.767 12.2953 13
7 -1 -3 239.129 12.8888 7
-7 -1 3 252.961 12.6802 3
7 -1 -3 222.208 12.0122 2
7 -1 -3 236.747 12.9454 6
7 -1 -3 246.869 12.8793 3
-7 1 3 241.478 12.7952 3
-7 1 3 281.063 15.3843 4
7 1 -3 244.948 12.3470 13
-7 1 3 252.270 14.2227 9
7 1 -3 267.602 12.3780 7
7 1 -3 261.079 12.2955 2
7 1 -3 249.655 13.0406 3
-7 1 3 241.151 12.8095 11
6 -1 -3 136.347 8.05762 3
-6 -1 3 140.208 8.98905 9
-6 -1 3 135.322 7.98805 11
-6 -1 3 153.639 7.91742 7
6 -1 -3 140.339 7.48996 13
6 -1 -3 139.560 7.78407 6
6 -1 -3 137.098 7.90833 7
6 -1 -3 133.372 7.32961 2
-6 -1 3 146.810 7.87156 3
-6 1 3 141.117 8.16797 11
6 1 -3 143.918 7.62899 13
-6 1 3 137.475 8.77983 9
6 1 -3 147.518 7.54888 2
6 1 -3 146.790 8.27209 3
-6 1 3 134.836 8.04361 3
-6 1 3 125.902 9.36854 4
-5 -1 3 5.66531 1.97876 3
-5 -1 3 5.26052 2.39153 11
5 -1 -3 5.38356 2.02462 3
5 -1 -3 5.44185 1.77004 2
-5 -1 3 6.63718 2.45407 9
5 -1 -3 7.17658 1.80325 13
5 -1 -3 6.67454 2.17475 8
5 -1 -3 6.23295 1.83417 7
5 -1 -3 9.65923 2.12961 3
-5 -1 3 7.86840 2.20470 3
5 1 -3 5.46224 1.99879 3
5 1 -3 5.00183 1.56237 2
-5 1 3 4.53651 2.14108 4
-5 1 3 4.15946 1.95452 9
5 1 -3 6.99851 2.32806 13
-5 1 3 5.31761 2.51368 11
-5 1 3 4.97359 2.03077 3
-5 1 3 8.83131 2.54892 7
4 -1 -3 442.637 20.7238 11
-4 -1 3 468.575 20.6614 11
4 -1 -3 458.509 20.2084 13
-4 -1 3 479.962 23.1065 9
4 -1 -3 462.291 20.8253 3
4 -1 -3 476.820 21.5764 7
4 -1 -3 474.015 20.7169 2
-4 -1 3 453.854 20.6433 3
-4 -1 3 460.891 20.6633 3
4 -1 -3 448.088 20.6411 3
4 -1 -3 469.523 20.5803 8
4 -1 -3 450.774 23.1254 9
-4 -1 3 453.962 20.3781 13
-4 1 3 441.692 23.0039 9
-4 1 3 439.087 20.7301 3
-4 1 3 456.550 20.8190 3
4 1 -3 434.579 23.0046 9
4 1 -3 476.020 20.3308 13
-4 1 3 474.078 20.3197 13
4 1 -3 431.484 20.5253 3
-4 1 3 456.799 20.0232 12
4 1 -3 452.795 20.6731 11
-4 1 3 455.008 20.7136 11
4 1 -3 466.908 20.7646 3
-4 1 3 492.337 21.7078 7
4 1 -3 453.515 20.8067 8
3 -1 -3 19.1413 2.08872 7
3 -1 -3 21.4962 1.95921 13
3 -1 -3 26.1387 2.39842 6
-3 -1 3 24.5195 2.22916 3
-3 -1 3 31.8384 2.62887 9
-3 -1 3 25.4781 2.21837 3
3 -1 -3 25.9984 2.28609 2
-3 -1 3 27.9862 2.30018 11
3 -1 -3 23.7004 2.55736 8
3 -1 -3 27.3685 2.59250 9
3 -1 -3 25.7742 2.47149 3
3 -1 -3 26.6602 2.48736 3
3 -1 -3 21.1121 2.54875 11
-3 -1 3 27.3730 2.36723 13
3 -1 -3 26.8770 2.17661 12
-3 1 3 22.4540 2.36238 11
-3 1 3 24.2561 2.04670 8
-3 1 3 25.6161 2.48354 3
-3 1 3 26.6964 2.26055 13
3 1 -3 23.5577 2.73097 8
-3 1 3 24.4165 2.27929 9
3 1 -3 23.4596 2.17249 13
3 1 -3 24.1623 2.46266 11
3 1 -3 27.5074 2.32248 3
-3 1 3 32.4126 2.57403 12
3 1 -3 25.8263 2.26812 3
3 1 -3 28.1338 2.57004 9
-3 1 3 25.2148 2.51245 3
-3 1 3 19.7975 2.50904 7
2 -1 -3 691.554 34.1755 6
-2 -1 3 744.679 31.3022 13
2 -1 -3 748.784 35.4271 9
-2 -1 3 695.529 31.8665 8
-2 -1 3 776.461 31.6024 11
2 -1 -3 689.031 33.1595 7
-2 -1 3 701.217 31.6793 3
2 -1 -3 706.427 31.7111 11
2 -1 -3 744.643 30.7386 12
2 -1 -3 761.093 31.1832 13
2 -1 -3 696.390 31.7592 8
-2 -1 3 728.861 31.6771 3
2 -1 -3 726.616 31.9552 3
-2 -1 3 802.437 35.4479 9
2 -1 -3 717.195 31.8380 3
2 -1 -3 756.741 32.1694 2
2 1 -3 677.798 31.5778 3
2 1 -3 748.466 35.3638 9
2 1 -3 704.906 31.6770 3
-2 1 3 649.928 31.7160 8
2 1 -3 765.832 29.9563 1
2 1 -3 728.016 31.2409 13
-2 1 3 746.046 35.3790 9
-2 1 3 703.695 31.1572 13
2 1 -3 729.991 31.9786 8
2 1 -3 661.638 31.4934 11
-2 1 3 758.210 32.0230 3
-2 1 3 700.993 34.1628 6
-2 1 3 727.175 31.7351 11
-2 1 3 708.787 31.8522 3
-2 1 3 728.784 32.1435 2
-2 1 3 706.023 33.2004 7
-2 1 3 755.435 30.7935 12
-1 -1 3 424.241 19.6626 13
1 -1 -3 441.643 19.3569 12
1 -1 -3 466.999 20.0435 8
1 -1 -3 433.186 19.5712 13
-1 -1 3 435.433 19.8287 3
-1 -1 3 433.340 19.7876 3
1 -1 -3 448.349 21.5453 6
-1 -1 3 453.000 22.1247 9
1 -1 -3 444.575 20.2665 2
-1 -1 3 443.065 18.8039 1
-1 -1 3 473.006 17.9205 10
1 -1 -3 477.384 20.0488 11
-1 -1 3 469.364 20.1479 8
1 -1 -3 446.726 20.1368 3
1 -1 -3 424.470 22.1740 9
1 -1 -3 442.180 20.9170 7
-1 -1 3 480.490 19.7740 11
1 -1 -3 461.113 20.1614 3
1 1 -3 457.492 19.8328 3
1 1 -3 465.961 21.7180 6
-1 1 3 466.910 21.5669 6
1 1 -3 450.972 19.7618 3
1 1 -3 423.619 18.7832 1
-1 1 3 459.751 20.1328 3
-1 1 3 481.714 20.0707 8
1 1 -3 446.282 20.0897 8
-1 1 3 441.128 19.3832 12
-1 1 3 443.663 22.1969 9
-1 1 3 437.214 20.2313 2
1 1 -3 428.897 22.0701 9
1 1 -3 464.524 19.7590 11
1 1 -3 437.960 19.6536 13
-1 1 3 486.734 20.0745 11
-1 1 3 412.797 20.1386 3
0 -1 -3 808.842 45.9352 4
0 -1 -3 831.817 39.3504 6
0 -1 3 876.333 35.9781 11
0 -1 -3 854.722 36.3411 11
0 -1 -3 830.078 35.2281 12
0 -1 3 813.440 34.2094 1
0 -1 3 836.510 36.5233 8
0 -1 -3 835.667 36.9276 2
0 -1 3 832.758 39.3571 6
0 -1 3 835.159 32.7517 10
0 -1 -3 827.452 40.4067 9
0 -1 -3 839.539 36.5099 8
0 -1 -3 821.963 36.5219 3
0 -1 -3 846.124 36.5979 3
0 1 3 833.695 36.5266 3
0 1 3 798.577 36.5479 3
0 1 3 880.863 36.3736 11
0 1 -3 814.930 32.7648 10
0 1 3 855.695 36.3382 11
0 1 3 817.616 36.4812 8
0 1 3 840.153 40.3752 9
0 1 3 838.351 36.9249 2
0 1 -3 820.045 40.2169 9
0 1 3 883.463 35.2959 12
0 1 -3 825.445 39.3808 6
0 1 -3 801.927 36.4944 8
0 1 -3 842.898 35.9770 11
0 1 3 768.635 39.2615 6
-1 -1 -3 1034.78 45.3237 2
1 -1 3 1058.35 44.8347 8
-1 -1 -3 1011.54 56.5523 4
-1 -1 -3 1032.64 44.8199 3
1 -1 3 1075.70 44.1731 11
1 -1 3 977.153 56.3505 4
1 -1 3 1056.70 40.3200 10
1 -1 3 1067.24 48.3003 6
-1 -1 -3 978.709 44.8367 3
1 -1 3 1009.89 43.0182 12
-1 -1 -3 1022.61 43.2695 12
-1 -1 -3 1074.12 48.3821 6
-1 -1 -3 970.785 44.5300 11
1 -1 3 1104.49 44.1902 11
-1 -1 -3 1052.63 44.8354 8
1 -1 3 1069.68 40.6026 5
-1 -1 -3 1024.84 49.5209 9
-1 1 -3 1008.40 56.4087 4
1 1 3 996.969 45.3005 2
1 1 3 1080.44 44.9078 8
1 1 3 1037.91 44.8221 3
-1 1 -3 968.845 43.0132 12
1 1 3 942.784 43.1189 12
1 1 3 1003.53 48.2910 6
1 1 3 1006.00 49.4810 9
-1 1 -3 1017.21 44.7632 8
-1 1 -3 1023.64 45.1676 2
1 1 3 988.377 44.8298 3
-1 1 -3 1038.98 40.2977 10
-1 1 -3 1063.98 46.5098 7
1 1 3 1021.78 44.5086 11
-1 1 -3 1049.36 48.3036 6
1 1 3 926.027 56.4116 4
-2 -1 -3 35.0271 2.81858 12
2 -1 3 44.2223 2.55945 3
-2 -1 -3 40.3605 3.87255 4
2 -1 3 39.7649 2.98285 12
-2 -1 -3 42.1752 3.04658 2
-2 -1 -3 41.5165 2.98907 8
2 -1 3 45.1319 2.60161 11
2 -1 3 44.5702 2.96232 8
-2 -1 -3 39.5725 2.81347 11
2 -1 3 43.8477 3.17028 6
-2 -1 -3 45.8090 3.42013 6
-2 -1 -3 39.7297 3.15112 3
2 -1 3 43.4629 2.71901 3
-2 -1 -3 46.5338 3.02552 3
2 1 3 41.5472 2.96185 2
-2 1 -3 45.8855 3.02847 8
2 1 3 39.0795 2.86660 11
2 1 3 40.8327 3.03272 3
2 1 3 47.9763 3.09033 8
2 1 3 47.1401 3.38898 6
-2 1 -3 44.0914 3.03265 7
-2 1 -3 41.0376 2.50210 11
-2 1 -3 38.3102 2.53890 10
-2 1 -3 44.9245 2.58781 3
2 1 3 39.2044 3.84613 4
-2 1 -3 41.8731 2.80857 2
2 1 3 44.1910 3.17869 3
2 1 3 34.8019 2.87425 12
2 1 3 43.9965 2.74741 9
-2 1 -3 42.2521 3.19305 6
-2 1 -3 38.5856 2.76555 12
3 -1 3 647.347 28.0611 8
-3 -1 -3 620.890 28.1355 3
3 -1 3 630.734 30.1236 6
3 -1 3 662.033 27.8076 3
-3 -1 -3 593.388 28.0192 8
-3 -1 -3 606.480 27.3973 13
-3 -1 -3 599.355 30.2018 6
3 -1 3 658.185 27.5541 11
3 -1 3 661.383 28.0066 2
-3 -1 -3 637.923 27.1085 12
-3 -1 -3 632.635 28.2544 2
3 -1 3 604.504 35.3156 4
-3 -1 -3 624.073 27.9982 3
-3 -1 -3 645.520 27.9939 11
3 -1 3 624.118 27.6914 3
-3 -1 -3 656.367 35.5631 4
3 1 3 633.253 27.8475 11
-3 1 -3 614.363 25.2328 10
-3 1 -3 649.864 27.6236 11
-3 1 -3 619.787 26.9716 12
-3 1 -3 606.113 27.9505 8
-3 1 -3 638.532 30.1505 6
-3 1 -3 600.924 27.3973 13
3 1 3 636.899 28.1382 3
-3 1 -3 638.717 27.6492 3
3 1 3 630.556 28.2656 2
-3 1 -3 621.896 35.3244 4
-3 1 -3 633.756 28.0011 2
3 1 3 607.882 28.0349 3
3 1 3 628.586 30.3550 6
-3 1 -3 624.862 27.7915 3
-3 1 -3 619.259 29.0932 7
3 1 3 602.649 35.3787 4
3 1 3 635.520 28.1950 8
3 1 3 637.341 27.0566 12
-4 -1 -3 34.8911 4.07221 12
-4 -1 -3 37.7313 4.43591 4
4 -1 3 32.3278 2.87600 11
-4 -1 -3 32.0393 3.46239 2
-4 -1 -3 31.4377 3.00010 3
4 -1 3 33.7907 3.15761 8
-4 -1 -3 35.5423 3.48007 11
4 -1 3 34.5590 3.00593 3
4 -1 3 27.1124 3.33913 6
4 -1 3 30.1351 3.13410 3
-4 -1 -3 29.8494 3.50725 6
4 -1 3 34.8143 2.68524 2
4 1 3 35.4887 3.68352 3
4 1 3 36.0303 3.36653 3
-4 1 -3 32.3986 3.45074 6
-4 1 -3 33.7607 2.86076 11
-4 1 -3 29.1682 2.77245 2
-4 1 -3 33.8646 3.87204 12
4 1 3 28.5217 3.98694 8
-4 1 -3 30.0499 3.31588 8
4 1 3 31.5713 3.13714 2
-4 1 -3 27.9966 3.85240 4
-4 1 -3 26.0791 2.67815 3
5 -1 3 761.569 32.8235 2
-5 -1 -3 764.071 33.2036 11
-5 -1 -3 734.650 32.9762 3
5 -1 3 728.266 32.5233 11
5 -1 3 752.104 32.9625 3
5 -1 3 745.789 32.8155 3
-5 -1 -3 723.092 35.5559 6
-5 -1 -3 753.738 41.9955 4
-5 -1 -3 740.919 32.1296 12
5 -1 3 737.433 33.2544 8
-5 1 -3 801.484 32.7983 11
-5 1 -3 728.582 32.6469 3
-5 1 -3 694.045 32.7761 2
-5 1 -3 687.524 41.7488 4
5 1 3 724.425 33.2294 3
5 1 3 766.738 33.1408 3
-5 1 -3 742.822 32.1395 12
-5 1 -3 697.479 35.3540 6
5 1 3 753.682 33.2752 2
5 1 3 700.138 33.3346 8
-6 -1 -3 62.8754 6.07826 11
-6 -1 -3 65.4770 5.02680 6
6 -1 3 64.2134 4.98133 3
-6 -1 -3 60.8184 6.36956 12
6 -1 3 70.3305 4.37736 2
-6 -1 -3 64.7978 5.36155 3
-6 -1 -3 65.9007 6.80596 4
6 -1 3 59.7395 6.39946 8
6 -1 3 63.7121 5.89028 3
6 1 3 68.5014 4.95109 2
-6 1 -3 62.7446 6.47855 4
-6 1 -3 73.0217 5.08389 6
-6 1 -3 70.1366 4.98859 3
-6 1 -3 67.4561 5.74266 11
6 1 3 72.2911 6.14514 8
6 1 3 65.0085 5.24024 3
-6 1 -3 67.5355 6.22528 12
-6 1 -3 58.5302 4.52150 2
7 -1 3 -2.6334 3.99041 8
7 -1 3 -1.2029 3.14360 3
-7 -1 -3 1.87492 3.13578 3
-7 -1 -3 -4.1035 3.90270 12
-7 -1 -3 0.57519 2.47713 6
-7 -1 -3 -1.4130 3.50613 4
-7 -1 -3 2.70636 4.06238 11
7 -1 3 6.96006 4.65612 3
-7 1 -3 0.81078 3.23915 4
-7 1 -3 0.62854 3.16450 3
-7 1 -3 -1.5688 3.49472 11
7 1 3 4.73291 2.71175 2
7 1 3 -1.9073 2.87563 3
-7 1 -3 -1.1043 2.42718 6
7 1 3 4.17086 3.55686 8
-7 1 -3 1.84049 3.71182 12
-8 -1 -3 37.0874 5.85712 3
8 -1 3 25.2456 6.12407 8
-8 -1 -3 22.2981 5.56565 11
-8 -1 -3 37.1878 4.73233 6
8 -1 3 45.4250 5.86526 3
-8 1 -3 40.9095 6.12779 3
-8 1 -3 41.4043 5.46154 6
8 1 3 35.4375 5.79494 3
-8 1 -3 24.7039 5.80306 11
8 1 3 34.1810 5.27499 2
-9 -1 -3 33.5210 6.28617 3
-9 -1 -3 17.9337 6.89750 12
9 -1 3 46.6602 7.02155 3
-9 -1 -3 22.2531 7.30853 11
-9 -1 -3 25.3595 4.82021 6
-9 1 -3 37.6201 6.21832 6
9 1 3 32.9135 7.17369 8
9 1 3 27.1704 4.76355 2
-9 1 -3 41.4736 6.28784 3
-9 1 -3 20.2248 6.80363 11
9 1 3 37.6336 5.80804 3
-10 -1 -3 14.9634 7.70280 4
-10 -1 -3 16.4084 8.86316 12
-10 -1 -3 15.8039 5.74149 6
-10 -1 -3 19.5000 8.71427 11
10 -1 3 0.99559 7.89166 8
-10 -1 -3 16.6159 6.66597 3
10 -1 3 21.3880 6.32495 3
10 1 3 3.78983 6.63255 3
10 1 3 16.6243 5.23773 2
-10 1 -3 11.8200 8.50236 11
-10 1 -3 22.7321 5.24948 6
-10 1 -3 21.3267 7.20778 3
10 1 3 15.6324 8.17830 8
-10 1 -3 15.7542 7.78514 4
-10 1 -3 18.1456 8.26011 12
11 -2 -3 29.1592 8.09435 13
-11 -2 3 19.1291 7.49004 3
11 -2 -3 7.72399 7.33071 3
-11 -2 3 17.0121 7.52500 11
11 -2 -3 24.8598 8.82398 7
-11 2 3 22.4732 9.25034 4
11 2 -3 6.20039 6.46512 2
-11 2 3 9.15049 8.52773 11
11 2 -3 14.8740 7.50783 13
-11 2 3 13.8126 7.40257 3
11 2 -3 2.56647 8.17624 3
-11 2 3 20.0179 8.26684 9
10 -2 -3 14.8786 6.83964 7
10 -2 -3 6.46590 6.20127 3
-10 -2 3 -0.9356 6.67610 4
-10 -2 3 7.86146 5.68559 3
10 -2 -3 9.01204 6.14275 13
-10 2 3 6.65534 6.87221 11
10 2 -3 4.06616 6.18680 13
-10 2 3 7.50258 6.11128 3
-10 2 3 10.4535 6.46139 9
10 2 -3 5.37437 6.14241 3
9 -2 -3 60.6428 8.26524 7
-9 -2 3 84.2844 7.43531 3
9 -2 -3 64.9894 8.09187 3
-9 -2 3 49.2531 9.34744 4
-9 -2 3 67.5420 8.33097 12
-9 2 3 70.5616 8.13277 11
9 2 -3 60.0131 8.06624 3
9 2 -3 79.6969 7.74454 13
-9 2 3 65.4968 9.22584 9
-9 2 3 73.0574 8.04663 3
9 2 -3 79.1693 6.67681 2
8 -2 -3 409.857 21.0669 7
8 -2 -3 429.455 20.6988 3
-8 -2 3 429.775 20.2985 3
8 -2 -3 416.801 19.8598 13
-8 -2 3 372.205 25.1308 4
-8 2 3 409.306 20.4781 11
8 2 -3 428.857 20.1160 2
8 2 -3 436.855 20.2855 13
-8 2 3 400.946 22.5585 9
-8 2 3 405.223 20.5288 3
-8 2 3 472.026 25.5724 4
8 2 -3 416.008 20.6145 3
7 -2 -3 36.6793 4.90829 13
7 -2 -3 32.9471 4.63236 7
-7 -2 3 35.1324 4.75082 3
-7 -2 3 41.1916 5.22227 11
7 2 -3 39.1730 4.42021 13
-7 2 3 44.2721 5.63261 3
7 2 -3 24.5506 4.56308 3
7 2 -3 35.4007 4.37359 2
-7 2 3 41.5901 5.48065 11
6 -2 -3 103.154 7.08003 7
-6 2 3 124.162 7.22585 3
6 2 -3 102.049 6.40475 2
-5 -2 3 282.402 13.9227 11
5 -2 -3 273.619 13.7125 3
-5 -2 3 289.139 13.7855 3
5 -2 -3 299.347 13.3205 13
5 -2 -3 274.086 13.3759 2
5 -2 -3 304.673 14.0961 3
-5 -2 3 295.021 13.7551 3
5 -2 -3 283.880 14.5011 7
-5 2 3 289.613 13.9513 3
5 2 -3 306.307 13.9106 3
5 2 -3 276.672 13.7720 2
-5 2 3 296.954 17.0976 4
5 2 -3 304.174 13.7221 13
-5 2 3 285.911 13.9449 11
-5 2 3 277.082 15.2910 9
-4 -2 3 809.470 34.7936 3
4 -2 -3 770.465 34.9516 2
4 -2 -3 800.716 36.4922 7
4 -2 -3 812.737 34.0686 13
4 -2 -3 787.954 35.0969 3
-4 -2 3 821.231 34.7807 11
4 -2 -3 756.311 34.8670 3
-4 -2 3 809.817 34.8176 3
4 2 -3 710.604 34.5546 11
-4 2 3 818.572 38.8695 9
4 2 -3 809.950 34.2119 13
-4 2 3 794.581 35.0618 3
4 2 -3 816.597 34.8681 3
-4 2 3 800.257 43.9751 4
-4 2 3 750.860 34.7251 11
4 2 -3 736.847 35.2502 2
-4 2 3 783.202 34.0942 13
3 -2 -3 320.270 14.7826 3
3 -2 -3 324.495 14.2166 12
-3 -2 3 311.797 14.4187 13
-3 -2 3 353.991 14.6637 11
3 -2 -3 325.652 14.9310 3
-3 -2 3 325.913 14.5429 3
3 -2 -3 322.411 14.1831 13
-3 -2 3 328.438 14.5327 3
3 -2 -3 301.267 16.3959 9
3 -2 -3 276.696 15.3552 7
3 -2 -3 317.184 14.7839 11
3 -2 -3 330.411 14.7289 2
3 2 -3 338.161 14.6495 3
3 2 -3 296.560 16.2182 9
-3 2 3 309.388 15.5029 7
-3 2 3 318.535 14.8551 3
-3 2 3 325.117 14.6500 2
-3 2 3 313.344 14.2556 13
3 2 -3 309.319 14.4478 3
-3 2 3 331.345 16.4618 9
3 2 -3 314.192 14.8489 8
-3 2 3 322.549 14.9122 3
-3 2 3 326.656 14.7470 11
3 2 -3 317.940 14.5796 11
-3 2 3 326.533 14.3704 12
3 2 -3 322.996 14.3647 13
-2 -2 3 560.979 23.6611 3
-2 -2 3 554.643 23.6629 3
2 -2 -3 520.946 23.9971 3
-2 -2 3 591.942 23.6480 11
-2 -2 3 516.267 23.4464 13
2 -2 -3 538.048 24.1159 3
2 -2 -3 515.581 26.6757 9
2 -2 -3 528.404 24.1208 2
2 -2 -3 565.303 23.9812 11
2 -2 -3 536.088 23.1350 12
2 -2 -3 569.350 25.5923 6
2 -2 -3 559.705 25.1251 7
2 -2 -3 557.250 23.2591 13
-2 2 3 528.358 24.0836 2
-2 2 3 572.855 23.9802 11
2 2 -3 494.939 26.4697 9
2 2 -3 540.668 23.6048 11
-2 2 3 516.523 24.1163 3
2 2 -3 522.761 23.9814 8
2 2 -3 543.537 23.6721 3
-2 2 3 521.923 23.2801 13
2 2 -3 497.559 22.5352 1
-2 2 3 507.571 26.5976 9
2 2 -3 549.502 23.4327 13
-2 2 3 511.807 23.1729 12
-2 2 3 577.997 25.5948 6
-2 2 3 497.169 25.0263 7
-2 2 3 537.164 24.0307 3
2 2 -3 552.574 23.5844 3
1 -2 -3 1578.37 71.1114 6
1 -2 -3 1510.86 73.5628 9
1 -2 -3 1535.74 64.5427 13
1 -2 -3 1485.05 68.8273 7
1 -2 -3 1493.27 66.1722 3
-1 -2 3 1537.90 66.0816 8
1 -2 -3 1495.71 65.6661 11
-1 -2 3 1495.04 62.0727 1
-1 -2 3 1634.75 60.4414 5
-1 -2 3 1657.29 65.2555 11
1 -2 -3 1527.17 66.1870 3
1 -2 -3 1534.21 63.7523 12
1 -2 -3 1528.02 66.8504 2
-1 -2 3 1455.52 64.7177 13
1 2 -3 1556.90 64.7320 13
-1 2 3 1549.15 66.2533 3
1 2 -3 1540.97 65.2230 11
1 2 -3 1423.91 73.2694 9
-1 2 3 1468.97 71.0264 6
-1 2 3 1483.12 73.4940 9
-1 2 3 1554.05 65.7374 11
-1 2 3 1541.95 83.6243 4
1 2 -3 1505.37 62.0963 1
-1 2 3 1526.57 66.8589 2
-1 2 3 1473.50 63.7484 12
1 2 -3 1467.99 66.0681 8
-1 2 3 1475.01 66.1020 3
-1 2 3 1480.75 68.9140 7
0 -2 3 911.336 37.6049 10
0 -2 3 960.629 41.7785 8
0 -2 -3 895.944 41.6341 8
0 -2 -3 924.129 44.9437 6
0 -2 -3 957.162 42.2825 2
0 -2 3 929.756 38.0854 5
0 -2 -3 977.300 41.9600 3
0 -2 -3 992.388 46.5033 9
0 -2 -3 1030.31 43.6933 7
0 -2 -3 1020.70 40.3877 12
0 -2 3 958.708 39.3109 1
0 -2 -3 970.025 41.8970 3
0 -2 -3 960.857 52.8682 4
0 2 3 1031.40 40.4714 12
0 2 3 955.242 41.6375 11
0 2 -3 903.923 44.9877 6
0 2 3 976.431 41.6581 11
0 2 3 864.003 44.9150 6
0 2 3 944.904 46.3894 9
0 2 3 954.992 42.3138 2
0 2 3 893.472 41.8218 3
0 2 -3 1036.89 40.9552 13
0 2 -3 909.192 43.1154 7
0 2 3 990.006 52.8445 4
0 2 3 867.701 41.6359 8
0 2 -3 902.274 41.7171 8
0 2 3 1007.80 42.0119 3
-1 -2 -3 85.7671 4.87970 2
-1 -2 -3 94.2809 5.24496 9
1 -2 3 91.2605 4.28006 10
-1 -2 -3 95.1758 5.11854 3
-1 -2 -3 74.1390 4.66633 8
-1 -2 -3 98.2740 6.12336 4
1 -2 3 78.8864 4.10672 5
-1 -2 -3 85.3327 4.84144 3
-1 -2 -3 79.9745 5.09677 6
1 -2 3 90.1289 4.68866 7
-1 -2 -3 75.8507 4.67641 11
-1 -2 -3 87.4446 4.65662 12
1 -2 3 87.2159 4.69570 8
1 2 3 92.6046 5.03895 3
-1 2 -3 95.8342 5.64432 4
-1 2 -3 74.2500 4.03010 5
1 2 3 87.5028 3.93662 5
1 2 3 84.9200 4.58575 12
1 2 3 92.2637 5.13181 9
1 2 3 74.8939 4.69223 8
1 2 3 86.6891 4.89570 11
-1 2 -3 83.7853 5.07608 6
-1 2 -3 79.5091 4.63866 8
1 2 3 93.2419 5.08010 3
-1 2 -3 80.3328 4.66624 7
1 2 3 100.016 6.22119 4
-2 -2 -3 731.111 41.7059 4
-2 -2 -3 764.595 33.0175 3
2 -2 3 800.048 29.8408 5
-2 -2 -3 752.912 32.9184 8
2 -2 3 706.825 41.4252 4
-2 -2 -3 741.794 35.5304 6
2 -2 3 757.541 34.1741 7
2 -2 3 790.943 32.8648 8
2 -2 3 769.992 35.3415 6
2 -2 3 750.035 29.6572 10
-2 -2 -3 730.746 32.9183 11
-2 -2 -3 704.000 32.0353 13
-2 -2 -3 727.949 33.1624 3
-2 -2 -3 737.490 33.2928 2
-2 -2 -3 755.635 31.8810 12
-2 2 -3 763.788 35.3526 6
-2 2 -3 782.689 32.8582 8
2 2 3 776.997 33.1174 3
-2 2 -3 728.983 29.6668 10
2 2 3 755.925 33.3750 2
2 2 3 749.328 36.4066 9
2 2 3 776.097 33.0583 8
-2 2 -3 759.846 34.1286 7
2 2 3 722.082 33.0214 3
-2 2 -3 774.261 29.7991 5
-2 2 -3 719.228 31.5311 12
-2 2 -3 756.044 32.9555 2
-2 2 -3 700.631 41.3913 4
2 2 3 667.032 41.4894 4
2 2 3 686.150 32.7221 11
2 2 3 757.570 35.6417 6
2 2 3 671.329 31.6582 12
-3 -2 -3 927.560 44.6720 6
3 -2 3 958.515 44.4163 6
-3 -2 -3 928.473 41.6243 3
-3 -2 -3 925.182 41.4156 3
-3 -2 -3 969.700 52.5677 4
3 -2 3 955.358 41.2616 8
-3 -2 -3 904.932 40.3963 13
3 -2 3 948.034 52.3563 4
-3 -2 -3 938.122 41.3420 11
3 -2 3 924.162 43.0573 7
-3 -2 -3 923.101 39.9395 12
3 2 3 949.798 45.7471 9
-3 2 -3 924.195 41.3643 2
-3 2 -3 953.270 44.4020 6
3 2 3 952.420 41.5872 3
3 2 3 951.699 41.9428 2
-3 2 -3 919.442 41.1935 8
-3 2 -3 977.907 39.8864 12
-3 2 -3 918.638 37.3706 5
-3 2 -3 928.405 52.2235 4
3 2 3 913.065 41.5177 8
3 2 3 923.742 41.4945 3
-4 -2 -3 75.2098 4.88735 3
4 -2 3 78.5078 4.86385 8
4 -2 3 79.8688 4.39450 11
-4 -2 -3 62.7095 6.21691 4
-4 -2 -3 69.3838 5.53012 12
-4 -2 -3 71.7646 5.36978 11
-4 -2 -3 78.9729 5.13404 6
4 -2 3 80.3637 4.68132 3
4 -2 3 75.4839 5.13136 6
4 -2 3 71.0135 5.13634 7
4 -2 3 75.6491 4.44912 3
-4 2 -3 72.1307 3.87906 5
-4 2 -3 79.4540 5.18285 6
4 2 3 79.8757 5.58996 8
4 2 3 67.1779 4.86539 3
-4 2 -3 82.8515 6.11558 4
-4 2 -3 64.5185 5.37040 12
4 2 3 78.5725 5.00549 9
-4 2 -3 71.3391 4.25536 2
4 2 3 77.0364 4.90667 2
-4 2 -3 84.6918 4.36284 3
-4 2 -3 72.5368 4.24703 11
-4 2 -3 73.7451 4.81124 8
5 -2 3 341.123 18.2919 7
-5 -2 -3 363.153 17.2907 12
5 -2 3 379.659 16.9755 11
-5 -2 -3 379.010 18.8051 6
-5 -2 -3 372.643 17.9575 11
5 -2 3 341.516 18.4961 6
-5 -2 -3 370.869 17.5586 3
-5 -2 -3 365.928 22.4065 4
5 -2 3 390.626 17.3033 3
5 -2 3 381.446 17.4780 8
5 -2 3 371.068 17.1174 3
-5 2 -3 374.292 16.9801 3
5 2 3 371.615 17.6347 3
-5 2 -3 392.755 17.0470 11
-5 2 -3 363.550 15.3606 5
-5 2 -3 372.031 17.3175 12
-5 2 -3 388.414 22.1975 4
5 2 3 364.433 17.9787 8
-5 2 -3 367.277 18.5145 6
5 2 3 367.144 17.5780 2
-6 -2 -3 103.189 6.82587 3
-6 -2 -3 95.1478 7.68235 12
6 -2 3 105.381 7.15183 3
-6 -2 -3 96.7512 8.92310 4
-6 -2 -3 102.367 6.77651 6
6 -2 3 113.303 6.41667 3
6 -2 3 101.430 7.60326 8
6 -2 3 97.5266 7.21354 7
-6 -2 -3 102.552 7.43819 11
-6 2 -3 98.4130 6.44102 11
6 2 3 99.7853 6.43057 2
6 2 3 104.803 7.66068 8
6 2 3 100.761 6.88634 3
-6 2 -3 96.6093 6.24808 3
-6 2 -3 111.623 7.72925 4
-6 2 -3 102.253 6.94221 6
-6 2 -3 97.0348 5.45521 5
-6 2 -3 99.5952 7.45955 12
6 2 3 88.1550 6.61925 9
7 -2 3 170.820 11.0019 8
-7 -2 -3 192.506 11.0816 12
7 -2 3 165.018 10.8814 7
-7 -2 -3 166.849 10.2422 6
7 -2 3 196.152 9.96553 3
-7 -2 -3 192.144 10.3763 3
-7 -2 -3 189.168 11.3690 11
7 -2 3 164.716 10.8717 3
7 2 3 180.162 10.1263 2
-7 2 -3 179.651 10.0570 6
-7 2 -3 163.878 12.3752 4
-7 2 -3 164.629 8.65523 5
-7 2 -3 186.374 11.0373 12
7 2 3 193.994 10.4551 3
-7 2 -3 176.846 10.3791 11
-7 2 -3 178.820 9.88404 3
-8 -2 -3 24.2046 6.27855 11
8 -2 3 25.1652 5.86555 7
-8 -2 -3 30.6763 5.06233 3
-8 -2 -3 20.3621 3.73285 6
8 -2 3 38.3594 5.95311 3
8 -2 3 24.6311 5.79989 8
-8 2 -3 30.8806 5.17836 3
-8 2 -3 32.3791 5.14194 6
-8 2 -3 25.2985 5.46880 11
8 2 3 22.7369 4.45582 2
8 2 3 29.0630 5.23444 3
-9 -2 -3 177.605 13.9206 12
-9 -2 -3 171.758 13.8976 11
-9 -2 -3 204.247 12.1249 6
9 -2 3 203.575 13.6851 7
-9 -2 -3 204.129 12.3063 3
9 -2 3 182.216 14.1545 8
9 -2 3 216.994 12.0820 3
-9 2 -3 212.868 11.6867 6
9 2 3 188.805 12.6216 3
-9 2 -3 174.800 13.9176 12
9 2 3 206.772 14.4890 8
9 2 3 186.189 11.7903 2
-9 2 -3 157.980 12.9684 11
-9 2 -3 177.654 12.1890 3
-10 -2 -3 6.41793 8.24173 11
-10 -2 -3 11.6421 8.26134 12
10 -2 3 9.61062 6.47086 3
-10 -2 -3 4.50047 5.70168 6
-10 -2 -3 -11.540 7.74731 4
-10 -2 -3 3.36055 7.15423 3
10 2 3 1.42960 5.94053 2
-10 2 -3 10.7850 8.16526 12
-10 2 -3 6.85497 7.04230 3
10 2 3 20.0887 7.41158 3
-10 2 -3 1.42870 8.51695 11
-10 2 -3 2.12318 7.28346 4
-10 2 -3 2.68473 5.03614 6
10 2 3 3.18802 7.44495 8
11 -3 -3 62.0889 10.3263 13
-11 -3 3 47.7628 10.9103 4
-11 -3 3 55.9435 8.77791 3
11 -3 -3 54.1580 8.88194 3
-11 -3 3 43.5429 9.18841 5
-11 -3 3 39.6799 9.07218 11
11 -3 -3 66.3292 10.7234 7
-11 3 3 45.5115 9.37521 3
-11 3 3 58.1317 9.99490 11
11 3 -3 48.1091 8.20492 2
11 3 -3 49.5667 9.64811 13
11 3 -3 29.7073 9.54204 3
-11 3 3 46.5687 9.76784 9
-11 3 3 29.2630 9.44753 4
10 -3 -3 4.10415 7.27079 7
-10 -3 3 0.80538 7.89585 4
-10 -3 3 4.19891 6.41945 3
10 -3 -3 5.47453 6.10367 3
10 -3 -3 6.23786 6.71160 13
-10 -3 3 -3.6029 6.49770 11
10 3 -3 5.98634 6.70282 13
-10 3 3 3.16995 7.14977 9
-10 3 3 1.77743 6.74876 11
10 3 -3 -6.7223 6.53352 3
-10 3 3 1.55797 6.82155 3
9 -3 -3 9.41677 5.57854 7
9 -3 -3 9.52797 5.49053 3
9 -3 -3 3.28244 5.19885 13
-9 -3 3 4.11467 4.93377 3
-9 -3 3 8.96845 4.99318 11
-9 -3 3 11.1728 6.42831 4
-9 3 3 17.9716 6.24395 9
-9 3 3 3.40483 5.55738 11
-9 3 3 9.02168 5.36310 3
9 3 -3 11.7235 5.15463 13
9 3 -3 11.2029 6.16905 3
9 3 -3 13.5215 4.68755 2
-8 -3 3 9.16558 4.45091 11
8 -3 -3 19.6612 4.42678 7
-8 -3 3 25.3184 4.79465 3
8 -3 -3 24.1117 5.06910 13
-8 -3 3 22.7914 5.79310 4
8 -3 -3 27.4538 4.95327 3
-8 3 3 16.3056 4.67168 9
8 3 -3 23.0103 4.15028 2
-8 3 3 23.5950 5.14666 11
8 3 -3 29.4348 5.57829 3
-8 3 3 25.5779 5.18083 3
8 3 -3 20.4445 4.73936 13
-7 -3 3 14.7413 3.89764 11
7 -3 -3 15.4407 3.77944 7
7 -3 -3 19.3696 3.71036 13
-7 -3 3 14.5738 4.52323 4
7 -3 -3 23.8905 4.34699 3
-7 -3 3 19.8552 3.70164 3
-7 3 3 14.0918 3.68017 9
7 3 -3 26.2665 4.52498 3
-7 3 3 18.8935 4.28480 11
7 3 -3 19.1842 3.72694 2
-7 3 3 14.4740 4.45075 3
7 3 -3 11.3708 3.40548 13
6 -3 -3 58.3047 5.98827 7
-6 -3 3 57.1259 5.46331 11
6 -3 -3 56.4402 4.75507 13
6 -3 -3 57.6534 5.36144 3
-6 -3 3 44.3963 5.15968 3
-6 -3 3 61.1001 4.96006 3
-6 3 3 59.6552 5.81119 3
6 3 -3 57.5954 4.80977 2
-6 3 3 52.0903 5.89735 9
-6 3 3 68.6255 5.92179 11
6 3 -3 51.9977 5.31358 3
-6 3 3 53.6160 7.62598 4
6 3 -3 56.5301 4.85643 13
5 -3 -3 51.8525 4.67081 3
-5 -3 3 59.2619 5.00214 11
5 -3 -3 49.2238 3.77157 13
5 -3 -3 57.1560 5.04052 3
5 -3 -3 60.2505 4.12873 2
-5 -3 3 56.5268 4.65300 5
-5 -3 3 59.0349 4.64604 3
5 -3 -3 56.5192 5.04848 7
-5 -3 3 53.8184 4.36459 3
-5 3 3 58.2226 5.00185 3
5 3 -3 64.3976 4.49978 2
-5 3 3 62.2020 6.82691 4
5 3 -3 62.6363 4.78052 13
-5 3 3 52.0844 5.04987 11
5 3 -3 50.2438 4.56950 3
-5 3 3 69.2252 5.90855 9
-4 -3 3 1698.89 78.5184 3
4 -3 -3 1861.06 76.9041 13
4 -3 -3 1881.21 82.3410 7
4 -3 -3 1806.29 78.7419 3
-4 -3 3 1901.52 78.5680 3
4 -3 -3 1808.27 78.9756 3
4 -3 -3 1778.23 79.3285 2
-4 -3 3 1861.34 72.2705 5
-4 -3 3 1903.74 78.2453 11
4 3 -3 1837.04 78.5804 3
-4 3 3 1808.54 78.9593 3
-4 3 3 1666.37 78.2037 11
-4 3 3 1802.37 87.8546 9
-4 3 3 1810.58 79.3178 2
4 3 -3 1704.93 77.0866 13
-4 3 3 1753.05 99.6550 4
4 3 -3 1813.59 79.8614 2
-4 3 3 1818.16 76.9674 13
-3 -3 3 -0.1956 1.46275 11
3 -3 -3 4.51311 1.83981 2
3 -3 -3 1.97491 2.44195 11
-3 -3 3 1.99718 1.60182 3
3 -3 -3 2.93874 2.01160 7
3 -3 -3 1.59777 2.33173 12
3 -3 -3 4.76153 2.10021 3
3 -3 -3 1.12416 1.76226 3
-3 -3 3 1.72658 1.65564 13
3 -3 -3 1.59400 1.00630 13
-3 -3 3 1.24822 1.85153 5
-3 -3 3 0.27849 1.42822 3
-3 3 3 0.50557 1.51976 13
3 3 -3 -0.6876 1.40594 3
3 3 -3 -1.0451 1.20610 2
3 3 -3 0.49910 1.27375 13
-3 3 3 0.41348 2.06929 9
-3 3 3 2.98479 1.88246 11
-3 3 3 3.88628 1.98890 3
-3 3 3 2.10106 1.35890 2
3 3 -3 2.34514 1.63515 3
2 -3 -3 1112.22 49.8627 3
2 -3 -3 1128.07 53.2684 6
2 -3 -3 1128.84 52.0382 7
2 -3 -3 1102.50 48.0166 12
-2 -3 3 1231.77 49.1565 11
-2 -3 3 1119.63 45.7049 5
2 -3 -3 1168.90 50.3036 2
2 -3 -3 1127.66 49.6073 11
-2 -3 3 1140.34 48.7336 13
2 -3 -3 1198.80 50.0383 3
2 3 -3 1160.68 48.6402 13
-2 3 3 1182.80 50.3033 2
2 3 -3 1082.80 50.3960 2
2 3 -3 1063.45 49.0481 11
-2 3 3 1218.91 50.1360 3
2 3 -3 1083.20 49.8051 8
-2 3 3 1078.32 49.8128 3
-2 3 3 1153.26 55.5369 9
-2 3 3 1152.94 49.5581 11
-2 3 3 1073.30 48.3043 12
1 -3 -3 129.912 7.74134 9
1 -3 -3 143.031 7.15344 11
1 -3 -3 129.784 7.24846 7
1 -3 -3 143.520 7.19987 6
1 -3 -3 139.172 6.95921 2
1 -3 -3 129.522 6.62879 12
-1 -3 3 129.865 6.54583 1
1 -3 -3 131.006 6.99744 3
1 -3 -3 125.231 6.97358 3
-1 -3 3 135.105 6.26786 5
-1 3 3 125.602 8.84280 4
-1 3 3 130.446 6.82995 2
-1 3 3 125.601 6.89823 3
-1 3 3 124.654 6.79351 12
-1 3 3 134.465 7.06818 11
-1 3 3 125.203 7.01602 3
1 3 -3 130.123 6.41706 13
1 3 -3 132.990 6.73277 2
1 3 -3 131.036 6.90115 8
-1 3 3 131.550 7.37681 7
-1 3 3 143.898 6.97493 11
1 3 -3 136.049 6.96830 1
-1 3 3 138.299 7.19106 6
-1 3 3 124.415 7.53294 9
0 -3 -3 179.265 8.32378 12
0 -3 3 172.028 8.13502 1
0 -3 3 175.779 8.41088 8
0 -3 -3 167.455 9.59503 9
0 -3 -3 176.543 8.93926 7
0 -3 -3 178.087 9.06086 6
0 -3 3 175.873 8.36480 7
0 -3 -3 169.224 8.58064 3
0 -3 3 176.681 7.73507 5
0 -3 -3 161.464 8.60765 2
0 -3 -3 161.723 8.28187 8
0 -3 -3 173.615 8.72876 3
0 3 -3 168.671 8.40226 7
0 3 3 183.673 8.66256 11
0 3 3 162.445 8.60649 3
0 3 3 170.567 9.12003 6
0 3 -3 182.464 8.14394 13
0 3 3 179.567 8.68538 11
0 3 3 174.297 8.74961 3
0 3 3 174.058 8.36566 12
0 3 3 160.367 10.7802 4
0 3 3 172.289 8.62000 2
0 3 -3 160.959 8.32960 8
0 3 3 170.221 7.59911 5
0 3 -3 165.913 7.73684 5
0 3 3 171.520 9.44102 9
0 3 3 173.509 8.32781 8
-1 -3 -3 116.980 6.63664 6
1 -3 3 111.729 5.54810 10
-1 -3 -3 117.307 6.96821 9
-1 -3 -3 111.409 6.24647 11
-1 -3 -3 110.400 5.97783 12
-1 -3 -3 118.221 6.17072 8
-1 -3 -3 114.569 7.99128 4
1 -3 3 120.807 6.07322 7
-1 -3 -3 110.643 6.27981 3
1 -3 3 111.289 6.00113 1
-1 -3 -3 115.668 6.54139 7
-1 -3 -3 112.581 6.48273 3
1 -3 3 121.810 5.53993 5
-1 3 -3 107.978 7.41253 4
1 3 3 116.926 6.25015 11
-1 3 -3 121.184 6.60097 6
1 3 3 123.904 6.18763 8
-1 3 -3 112.247 6.02580 8
1 3 3 111.819 6.30327 11
1 3 3 113.954 6.73509 6
-1 3 -3 122.724 5.62349 5
1 3 3 94.8445 6.00341 12
1 3 3 104.151 7.97502 4
-1 3 -3 118.643 6.53759 9
1 3 3 113.840 6.82565 9
1 3 3 116.540 6.52272 3
-1 3 -3 124.700 6.29479 7
1 3 3 112.511 6.30290 2
1 3 3 123.924 5.49974 5
-2 -3 -3 45.5429 3.51916 8
-2 -3 -3 33.9791 2.99070 12
-2 -3 -3 40.4801 3.71307 6
-2 -3 -3 34.7535 2.67312 13
-2 -3 -3 32.5967 3.37283 3
-2 -3 -3 36.8155 4.33359 4
2 -3 3 35.8770 2.65192 5
2 -3 3 30.9265 3.39287 10
-2 -3 -3 30.5661 3.81651 3
2 -3 3 39.1941 2.90569 7
-2 3 -3 32.8388 2.98782 9
2 3 3 34.2197 3.44465 3
-2 3 -3 35.0314 3.75186 4
2 3 3 43.1122 2.66915 5
2 3 3 30.0324 3.06283 12
2 3 3 35.1824 3.17387 2
-2 3 -3 35.2162 3.33541 6
-2 3 -3 38.9738 3.43964 7
-2 3 -3 35.1518 2.63248 5
2 3 3 33.4541 3.44881 9
2 3 3 38.9150 3.39824 8
-3 -3 -3 214.400 10.9236 6
3 -3 3 201.563 10.6154 7
-3 -3 -3 202.644 13.1345 4
-3 -3 -3 203.536 10.5886 11
-3 -3 -3 209.999 10.3226 3
-3 -3 -3 197.279 9.63099 13
-3 -3 -3 172.115 10.0234 12
3 -3 3 200.000 9.28482 10
-3 3 -3 206.182 12.9673 4
3 3 3 219.292 8.83373 5
-3 3 -3 198.501 10.5967 6
-3 3 -3 211.827 9.69436 12
-3 3 -3 216.831 10.6302 9
-3 3 -3 188.058 9.67937 13
3 3 3 210.313 10.4669 3
-3 3 -3 208.901 9.67521 2
3 3 3 208.521 10.6169 8
-3 3 -3 196.109 8.96564 5
3 3 3 200.453 10.2517 2
3 3 3 209.182 11.2495 9
-4 -3 -3 9.94259 2.88181 11
-4 -3 -3 8.25393 3.30902 4
4 -3 3 10.6803 2.53892 6
-4 -3 -3 6.42711 2.04738 3
4 -3 3 8.22538 2.50570 7
-4 -3 -3 12.6577 2.91071 12
-4 -3 -3 8.87605 2.12957 6
4 3 3 9.23669 2.54817 3
4 3 3 7.77255 2.74526 8
4 3 3 10.6564 2.22804 2
4 3 3 10.6562 2.49224 9
-4 3 -3 7.81574 2.71277 12
-4 3 -3 9.59481 2.17094 6
-4 3 -3 8.03909 1.89082 5
-5 -3 -3 288.295 14.2590 3
5 -3 3 273.464 14.8843 6
-5 -3 -3 303.239 18.4410 4
-5 -3 -3 303.924 14.2058 12
-5 -3 -3 285.953 14.7620 11
-5 -3 -3 260.923 15.0953 6
5 -3 3 273.260 14.8430 7
5 3 3 303.798 15.6736 9
5 3 3 291.129 14.3612 2
5 3 3 312.124 14.6136 3
5 3 3 282.963 14.8112 8
-5 3 -3 297.722 14.0717 12
-5 3 -3 283.913 14.7648 6
-5 3 -3 311.657 18.0335 4
-5 3 -3 268.230 12.5774 5
-6 -3 -3 15.6365 4.53419 11
-6 -3 -3 20.2712 3.18526 6
6 -3 3 17.2169 3.88782 7
-6 -3 -3 16.7653 4.54814 12
6 -3 3 22.2829 3.79174 3
6 -3 3 19.3304 3.63060 3
-6 -3 -3 12.3666 4.68646 4
-6 -3 -3 19.6797 3.65467 3
6 -3 3 14.4571 3.64776 11
-6 3 -3 26.5102 3.65444 11
-6 3 -3 24.1652 3.43300 3
6 3 3 22.8219 3.76343 2
6 3 3 21.4536 4.54893 8
-6 3 -3 17.2848 4.12925 12
6 3 3 17.7122 4.12684 9
6 3 3 18.8119 3.95695 3
-7 -3 -3 6.25603 2.77069 6
7 -3 3 6.96565 3.98893 3
-7 -3 -3 4.95976 4.02518 3
-7 -3 -3 9.11590 5.02308 12
-7 -3 -3 7.10270 4.67221 11
7 -3 3 8.69161 4.36711 3
-7 3 -3 9.06919 3.48004 3
7 3 3 0.20930 4.05623 3
-7 3 -3 2.71722 3.85745 12
-7 3 -3 2.48360 4.09212 11
7 3 3 1.62050 3.30027 2
-8 -3 -3 91.0951 9.79389 11
-8 -3 -3 104.751 7.89074 6
8 -3 3 100.250 8.15100 3
-8 -3 -3 106.103 8.29690 3
-8 3 -3 77.0813 8.64088 11
-8 3 -3 89.5161 9.97988 12
-8 3 -3 88.3666 7.88959 3
8 3 3 99.5755 8.80330 3
8 3 3 98.0477 8.02487 2
-9 -3 -3 7.12200 4.98975 6
9 -3 3 12.0684 7.01205 7
-9 -3 -3 1.12860 7.53850 4
-9 -3 -3 5.41729 7.44233 12
9 -3 3 10.3261 5.86313 3
-9 -3 -3 20.4372 6.14126 3
-9 -3 -3 10.2647 7.13906 11
9 3 3 14.5003 5.91680 3
9 3 3 14.2528 7.07527 8
9 3 3 1.61180 5.84203 2
-9 3 -3 4.29310 5.43274 4
-9 3 -3 10.5400 6.27452 3
-9 3 -3 1.42777 6.97369 12
-9 3 -3 -1.0870 6.76634 11
-10 -3 -3 14.8845 10.3461 4
10 -3 3 24.2428 7.62331 3
-10 -3 -3 21.9598 9.79439 12
-10 -3 -3 34.5318 6.66465 6
10 -3 3 28.7067 9.50850 7
-10 -3 -3 24.9001 8.29812 3
-10 -3 -3 34.4055 9.25851 11
-10 3 -3 19.1023 9.26299 11
10 3 3 41.3070 9.59628 8
10 3 3 26.5749 7.35188 2
-10 3 -3 28.4463 8.77509 4
10 3 3 34.4093 8.61314 3
-10 3 -3 29.1463 9.48821 12
10 -4 -3 27.7572 8.49477 13
-10 -4 3 26.4155 7.65661 3
-10 -4 3 39.8165 7.85872 5
10 -4 -3 29.5020 7.29560 3
10 -4 -3 30.4359 9.39103 7
-10 -4 3 25.4391 7.48002 11
10 4 -3 34.3662 6.91700 2
10 4 -3 25.6892 7.92736 13
10 4 -3 28.6424 8.36536 3
-10 4 3 44.6898 9.04711 9
-10 4 3 19.8155 8.60937 11
-10 4 3 30.3713 8.48567 3
9 -4 -3 39.3516 6.89194 13
9 -4 -3 26.1354 6.48706 3
-9 -4 3 36.9015 6.50954 3
-9 -4 3 28.8619 7.98191 4
-9 -4 3 41.6432 6.75070 5
-9 -4 3 33.6077 7.52205 11
9 -4 -3 48.7876 8.14944 7
-9 4 3 30.8217 7.05125 9
9 4 -3 45.6760 7.01280 13
-9 4 3 33.2024 7.29868 3
9 4 -3 37.1804 7.27951 3
-9 4 3 32.1650 7.41636 11
-8 -4 3 138.330 9.56116 3
8 -4 -3 132.267 10.3122 3
-8 -4 3 148.406 12.5988 4
8 -4 -3 138.296 10.2957 7
8 -4 -3 124.921 9.44825 13
-8 -4 3 145.009 9.70456 5
-8 4 3 151.147 11.4914 9
-8 4 3 150.405 10.4929 11
8 4 -3 136.539 9.92593 13
-8 4 3 120.354 10.4883 3
-8 4 3 149.534 15.2678 4
8 4 -3 142.393 10.3468 3
-7 -4 3 9.42791 4.33967 11
7 -4 -3 12.7549 4.43384 3
-7 -4 3 14.9601 3.70208 3
7 -4 -3 15.0369 4.18514 7
7 -4 -3 7.16062 4.11682 13
-7 -4 3 13.1566 3.72358 5
7 4 -3 11.3407 3.74159 13
-7 4 3 18.6175 4.89131 11
-7 4 3 26.4447 6.72607 4
-7 4 3 20.5017 4.83694 3
7 4 -3 12.0807 3.15106 2
-7 4 3 8.84720 4.41680 9
7 4 -3 12.0400 4.38107 3
-6 -4 3 14.0763 3.79280 11
-6 -4 3 28.0857 4.27621 3
-6 -4 3 16.8145 3.87425 3
-6 -4 3 11.5556 3.30140 5
6 -4 -3 15.5559 3.25458 13
6 -4 -3 15.0907 4.31644 7
-6 4 3 16.9854 4.00198 3
-6 4 3 22.7730 4.20716 11
6 4 -3 12.8005 3.77636 3
-5 -4 3 326.810 17.6022 3
-5 -4 3 366.723 16.6883 5
5 -4 -3 381.653 18.1760 3
-5 -4 3 410.469 17.6657 3
5 -4 -3 358.582 17.7814 3
5 -4 -3 389.645 16.9140 13
5 -4 -3 384.123 18.9912 7
-5 -4 3 385.762 17.9597 11
-5 4 3 377.424 22.7609 4
5 4 -3 383.875 18.1038 2
5 4 -3 389.915 17.4007 13
5 4 -3 374.321 17.6944 3
-5 4 3 377.523 18.2652 3
-5 4 3 376.473 17.9506 11
-5 4 3 368.206 20.2972 9
-5 4 3 352.126 17.0393 13
4 -4 -3 529.013 24.7057 3
-4 -4 3 496.263 22.9207 5
4 -4 -3 509.280 24.5280 2
-4 -4 3 519.316 24.3077 3
-4 -4 3 524.250 24.5677 11
4 -4 -3 539.766 26.1980 7
4 -4 -3 556.886 25.0593 3
-4 -4 3 555.138 24.5277 3
-4 4 3 585.101 25.1630 3
-4 4 3 538.275 23.7296 13
-4 4 3 573.916 24.5474 2
4 4 -3 552.632 24.4900 3
-4 4 3 543.224 24.8153 11
4 4 -3 569.769 24.2135 13
-4 4 3 555.436 27.7731 9
4 4 -3 528.710 25.0811 2
-3 -4 3 685.272 29.9799 3
3 -4 -3 625.868 31.7899 7
-3 -4 3 661.624 28.0694 5
-3 -4 3 714.503 29.9049 3
-3 -4 3 735.219 29.9881 11
3 -4 -3 651.100 30.3810 2
3 -4 -3 698.273 30.6138 3
3 -4 -3 643.270 30.2621 3
-3 -4 3 647.660 29.5640 13
-3 4 3 709.457 30.6925 3
3 4 -3 701.549 30.8335 2
-3 4 3 692.300 30.3681 11
3 4 -3 695.872 29.4453 13
-3 4 3 662.280 34.0034 9
3 4 -3 645.320 38.1543 4
-3 4 3 704.534 30.4597 2
3 4 -3 613.219 29.7467 11
-2 -4 3 155.559 7.16274 11
2 -4 -3 140.644 7.83965 3
-2 -4 3 139.460 7.30252 13
2 -4 -3 150.519 7.81983 2
2 -4 -3 146.712 8.44714 7
-2 -4 3 150.513 7.34760 5
2 -4 -3 144.076 7.81363 12
2 -4 -3 142.062 7.99342 3
2 4 -3 136.240 7.07246 11
-2 4 3 153.833 7.86813 11
2 4 -3 148.454 7.08659 13
2 4 -3 138.786 9.81967 4
-2 4 3 142.265 8.02522 3
-2 4 3 140.939 7.68612 2
2 4 -3 154.888 7.77365 2
-2 4 3 132.939 8.85103 9
-1 -4 3 90.8615 5.45268 1
1 -4 -3 104.717 5.81895 6
1 -4 -3 90.3691 5.88245 3
-1 -4 3 104.150 5.50458 5
1 -4 -3 91.4162 6.36439 7
1 -4 -3 99.9778 6.05630 3
1 4 -3 98.9464 5.98735 8
-1 4 3 104.324 5.87392 11
-1 4 3 101.463 5.84169 2
-1 4 3 92.5426 6.77869 9
1 4 -3 108.697 5.76615 2
1 4 -3 102.417 5.15209 13
-1 4 3 82.6747 5.99017 3
1 4 -3 91.7951 7.60595 4
-1 4 3 102.806 6.23089 6
0 -4 3 58.6930 4.11176 5
0 -4 3 56.5136 4.17060 1
0 -4 -3 64.8929 5.14929 7
0 -4 -3 63.6960 4.48173 6
0 -4 -3 68.8216 4.55318 12
0 -4 3 62.2437 3.73098 7
0 -4 -3 52.2628 4.36153 3
0 -4 -3 57.9477 4.30028 3
0 4 3 58.7226 4.22747 2
0 4 3 60.7646 4.74551 6
0 4 -3 58.2737 3.90813 7
0 4 3 55.9240 5.14234 9
0 4 -3 56.5930 4.07256 8
0 4 3 53.7698 4.29516 3
0 4 -3 72.6946 4.26603 2
0 4 -3 61.0892 3.71673 13
1 -4 3 57.8490 4.12965 1
-1 -4 -3 71.0178 4.85346 12
-1 -4 -3 52.1540 4.24379 3
-1 -4 -3 67.0128 5.19969 7
1 -4 3 62.5531 3.98270 7
-1 -4 -3 63.7090 4.91903 6
1 -4 3 56.9695 4.35516 10
-1 -4 -3 57.3524 4.79676 11
-1 -4 -3 66.1080 6.15570 4
-1 -4 -3 61.0905 4.83672 3
1 -4 3 56.3700 4.17521 5
-1 4 -3 58.8625 3.95605 2
1 4 3 56.1617 4.13365 2
-1 4 -3 65.8009 4.83998 9
-1 4 -3 62.3190 4.68917 6
1 4 3 61.4640 3.80335 5
1 4 3 59.6605 4.28125 8
-1 4 -3 68.3214 5.29477 4
-1 4 -3 69.7679 4.00933 13
-1 4 -3 51.9447 4.39171 7
1 4 3 53.0717 4.70409 11
1 4 3 62.6478 5.51605 9
2 -4 3 1136.51 45.5053 10
-2 -4 -3 1090.76 50.5865 3
-2 -4 -3 1138.62 50.3437 11
-2 -4 -3 1077.78 48.7122 13
-2 -4 -3 1166.65 54.2164 6
-2 -4 -3 1157.96 50.4638 3
-2 -4 -3 1162.91 52.5338 7
-2 -4 -3 1168.31 48.6215 12
2 -4 3 1130.71 45.9383 5
-2 -4 -3 1127.39 64.0047 4
2 -4 3 1207.83 52.2392 7
2 4 3 1144.16 45.6834 5
-2 4 -3 1134.21 55.6707 9
-2 4 -3 1104.07 63.5713 4
2 4 3 1180.19 50.5875 3
2 4 3 1102.95 51.0231 2
-2 4 -3 1162.37 50.4586 2
2 4 3 1121.21 56.1455 9
-2 4 -3 1137.48 53.9200 6
-3 -4 -3 103.084 6.90039 11
-3 -4 -3 98.7691 6.72006 12
3 -4 3 106.347 6.79014 7
-3 -4 -3 105.837 6.64123 6
3 -4 3 105.065 6.15850 10
-3 -4 -3 105.913 6.50144 3
-3 -4 -3 98.3790 5.60281 13
-3 -4 -3 107.343 7.11495 7
-3 -4 -3 104.049 8.27875 4
-3 4 -3 93.9078 5.85819 13
3 4 3 118.737 6.95809 3
3 4 3 112.365 7.14822 8
-3 4 -3 107.084 8.40892 4
-3 4 -3 115.559 6.73009 9
-3 4 -3 111.647 5.70428 2
-3 4 -3 111.375 6.62143 6
3 4 3 103.909 6.47107 2
3 4 3 109.404 5.45569 5
3 4 3 106.319 7.66448 9
-4 -4 -3 34.8217 5.41387 4
-4 -4 -3 26.7121 4.11406 11
-4 -4 -3 33.8969 5.29705 12
-4 -4 -3 23.4589 3.71577 3
4 -4 3 25.5015 4.35081 7
-4 -4 -3 28.2690 3.28163 6
4 -4 3 27.0968 3.31276 10
-4 -4 -3 30.1351 2.70043 5
4 4 3 27.4971 3.70441 2
4 4 3 34.5493 5.17088 8
-4 4 -3 29.0319 3.93277 12
-4 4 -3 32.6993 5.81383 4
4 4 3 28.7980 5.14793 9
4 4 3 26.9491 3.95380 3
-4 4 -3 22.0639 3.77615 9
4 4 3 23.1934 3.12540 5
-5 -4 -3 146.815 9.87623 11
-5 -4 -3 157.230 9.67064 12
5 -4 3 158.708 9.67202 7
-5 -4 -3 166.052 9.21732 3
-5 -4 -3 158.950 9.35927 6
-5 -4 -3 156.620 7.38908 5
-5 -4 -3 153.654 12.0007 4
-5 4 -3 148.990 8.98125 9
5 4 3 159.554 9.56095 3
5 4 3 165.335 10.1274 8
-5 4 -3 162.802 9.68356 12
5 4 3 154.445 9.07326 2
5 4 3 159.257 10.8561 9
6 -4 3 84.2870 7.39831 7
-6 -4 -3 86.2865 8.42192 12
-6 -4 -3 91.5092 5.36150 5
-6 -4 -3 89.1809 6.72438 6
-6 -4 -3 84.5869 6.85995 3
6 4 3 98.3195 8.49092 8
6 4 3 85.5169 8.85900 9
-6 4 -3 82.1738 8.10663 12
6 4 3 83.0327 6.82223 2
6 4 3 94.1248 7.48171 3
-7 -4 -3 44.9593 6.70184 3
-7 -4 -3 47.0323 6.74176 12
-7 -4 -3 50.9722 5.68268 6
7 4 3 59.4008 7.35330 3
7 4 3 54.9204 8.62554 9
7 4 3 35.8079 6.37101 8
-7 4 -3 42.4950 6.66655 12
-8 -4 -3 15.4999 7.48542 4
-8 -4 -3 21.6670 5.37567 3
8 -4 3 10.2398 4.95431 3
8 4 3 18.3847 6.11014 3
8 4 3 11.0827 6.36150 9
-8 4 -3 3.49415 6.55697 12
-8 4 -3 21.8465 5.38123 3
8 4 3 17.7007 6.62631 8
-8 4 -3 2.90935 5.61024 11
9 -4 3 94.2219 9.82813 3
-9 -4 -3 105.041 10.4723 3
-9 -4 -3 103.717 12.6323 11
9 -4 3 102.342 11.6612 7
-9 -4 -3 93.8832 13.2768 12
-9 -4 -3 86.3189 14.4534 4
-9 -4 -3 111.674 9.75279 6
9 4 3 113.218 13.4411 9
9 4 3 85.6031 11.4672 3
9 4 3 113.491 10.2581 2
9 4 3 111.779 12.8466 8
-9 4 -3 104.772 13.1531 12
-9 4 -3 67.3720 10.8463 11
-9 -5 3 66.4415 9.27824 3
-9 -5 3 74.5979 11.4779 11
9 -5 -3 89.0752 11.5231 7
9 -5 -3 68.1577 10.1168 3
9 -5 -3 78.3126 10.2608 13
-9 -5 3 72.6370 10.0882 5
-9 5 3 101.605 12.9255 9
-9 5 3 81.2572 11.6919 3
9 5 -3 84.4953 11.1130 3
-9 5 3 72.9102 11.3087 11
9 5 -3 100.681 9.61152 2
9 5 -3 73.2139 10.2074 13
8 -5 -3 55.8585 8.28825 7
8 -5 -3 44.9133 6.78822 13
-8 -5 3 38.5450 8.47443 4
-8 -5 3 45.6208 6.50709 3
8 -5 -3 42.4324 6.84922 3
-8 -5 3 34.9070 6.32779 5
8 5 -3 49.8146 7.54998 3
8 5 -3 42.2691 6.47207 13
-8 5 3 36.6787 7.11342 3
-8 5 3 58.2605 9.14874 11
-8 5 3 46.2126 8.03578 9
-7 -5 3 179.173 14.3879 4
-7 -5 3 142.872 11.2826 11
-7 -5 3 179.148 10.3339 3
-7 -5 3 168.347 10.4196 5
7 -5 -3 168.091 11.3539 3
7 -5 -3 160.790 10.1735 13
-7 5 3 146.007 11.8414 3
-7 5 3 194.101 13.2097 9
7 5 -3 164.767 10.6595 13
-7 5 3 188.267 11.7463 11
7 5 -3 176.878 11.4268 3
-6 -5 3 45.6632 5.22484 3
-6 -5 3 46.0026 5.55198 5
-6 -5 3 44.8461 7.27796 3
6 -5 -3 43.6873 5.36408 13
6 -5 -3 49.6751 6.62487 3
-6 -5 3 45.2573 6.74283 11
-6 -5 3 42.4190 7.08214 4
-6 5 3 48.2307 8.04778 4
-6 5 3 46.4195 6.93863 9
-6 5 3 45.2219 6.46900 3
6 5 -3 46.4802 5.59696 13
6 5 -3 39.2625 5.62777 3
6 5 -3 32.7734 4.84343 2
-6 5 3 49.7017 7.03393 11
-5 -5 3 -0.1915 2.78622 5
-5 -5 3 1.38147 3.53375 11
5 -5 -3 3.93328 3.86248 3
-5 -5 3 1.81396 3.46929 3
5 -5 -3 1.48995 2.98871 10
-5 -5 3 1.72437 2.67885 3
5 -5 -3 3.27494 3.32278 3
5 -5 -3 2.80423 3.19145 2
-5 5 3 -2.0936 3.49783 3
5 5 -3 -2.5984 2.86443 3
-5 5 3 -0.1852 3.93940 11
-5 5 3 0.35960 2.46279 2
-5 5 3 2.30362 4.47645 4
5 5 -3 8.30126 2.93807 13
-5 5 3 2.08893 3.76666 9
4 -5 -3 35.3422 4.86673 3
-4 -5 3 29.8028 4.51786 3
-4 -5 3 34.9413 4.30192 5
4 -5 -3 32.4763 4.74921 2
4 -5 -3 33.8872 4.46620 3
-4 -5 3 37.4463 3.87987 3
4 -5 -3 24.6360 3.74693 10
-4 -5 3 34.1926 4.86869 11
4 -5 -3 39.3161 5.39851 7
4 5 -3 41.5346 4.18519 2
-4 5 3 37.7946 5.05143 3
4 5 -3 40.1978 4.52038 13
-4 5 3 41.2025 4.99844 11
-4 5 3 31.5563 4.05562 2
-4 5 3 37.3012 6.12383 9
4 5 -3 29.4490 4.01117 3
3 -5 -3 8.12756 2.92128 7
-3 -5 3 10.2087 2.34034 11
3 -5 -3 7.49209 2.79131 3
3 -5 -3 5.41776 2.59966 3
-3 -5 3 10.3193 3.01992 5
3 5 -3 3.68901 2.30397 11
-3 5 3 10.0979 2.98757 3
-3 5 3 13.9785 3.56038 9
-3 5 3 10.7893 2.86921 2
3 5 -3 11.5848 2.56108 2
3 5 -3 5.08295 1.93040 13
-3 5 3 11.7217 3.68870 11
-2 -5 3 192.442 9.63173 13
2 -5 -3 197.573 10.9881 7
2 -5 -3 190.560 10.2833 3
-2 -5 3 193.542 9.63127 5
2 -5 -3 188.700 10.3451 3
2 -5 -3 201.264 10.2483 12
-2 5 3 204.065 10.0318 2
-2 5 3 204.671 10.5288 3
2 5 -3 180.276 9.24654 11
2 5 -3 198.200 9.23174 13
2 5 -3 188.378 10.1339 2
-2 5 3 196.312 10.4743 11
-2 5 3 198.591 11.7746 9
-1 -5 3 143.527 7.75288 1
1 -5 -3 151.272 8.24602 3
1 -5 -3 157.841 8.32621 6
1 -5 -3 145.980 8.38122 12
-1 -5 3 155.835 7.84758 5
1 -5 -3 135.596 8.33586 3
1 -5 -3 151.319 8.89737 7
-1 5 3 140.365 8.45851 3
-1 5 3 144.497 8.17412 2
-1 5 3 141.121 8.71974 6
1 5 -3 151.425 7.99445 2
1 5 -3 153.707 7.23285 13
-1 5 3 149.993 8.54933 11
-1 5 3 137.710 9.51006 9
0 -5 -3 251.489 13.4424 7
0 -5 -3 255.451 13.3100 6
0 -5 3 265.969 12.2067 1
0 -5 3 254.499 11.7914 5
0 -5 3 263.472 12.5084 7
0 -5 -3 239.666 12.8327 3
0 -5 -3 263.886 12.8329 3
0 -5 -3 255.134 12.6284 12
0 5 3 261.026 12.7446 2
0 5 3 263.787 13.0332 3
0 5 -3 241.453 12.5851 7
0 5 3 252.163 14.4745 9
0 5 -3 256.902 14.2859 9
0 5 -3 251.017 12.4950 2
0 5 3 260.501 12.9742 11
1 -5 3 283.528 13.4038 1
-1 -5 -3 241.218 14.0067 3
-1 -5 -3 293.553 14.0271 3
1 -5 3 301.574 14.0789 7
-1 -5 -3 282.349 14.7404 7
-1 -5 -3 305.933 14.7518 6
1 -5 3 282.554 13.0014 10
-1 -5 -3 277.150 13.8882 12
-1 -5 -3 280.670 14.3194 11
1 -5 3 297.124 13.0883 5
1 5 3 286.325 14.3036 11
1 5 3 279.365 14.2029 3
1 5 3 273.843 14.0538 2
-1 5 -3 280.772 15.6313 9
1 5 3 283.084 15.9753 9
-1 5 -3 302.213 13.6980 2
-2 -5 -3 29.5331 3.61250 6
2 -5 3 30.7344 4.49546 10
-2 -5 -3 30.9432 4.86485 7
-2 -5 -3 30.7394 6.15895 4
2 -5 3 28.6943 3.72992 1
-2 -5 -3 33.8502 4.61063 11
-2 -5 -3 26.7502 4.01194 3
2 -5 3 29.3365 3.72298 5
-2 -5 -3 34.5964 4.57305 12
2 -5 3 34.9850 4.49888 7
-2 5 -3 37.9984 5.30486 9
2 5 3 37.0230 4.98811 8
-2 5 -3 31.8666 3.39564 2
2 5 3 27.9169 3.67467 2
2 5 3 31.0911 4.91248 3
-2 5 -3 35.5206 4.19950 6
2 5 3 32.0169 5.16445 9
-2 5 -3 32.0529 5.69474 4
-3 -5 -3 168.264 9.11236 3
-3 -5 -3 166.074 9.54471 6
-3 -5 -3 141.664 7.92336 13
3 -5 3 169.030 9.62183 7
-3 -5 -3 160.626 9.61622 11
-3 -5 -3 161.440 9.96667 7
3 -5 3 157.479 8.66934 10
-3 -5 -3 171.736 9.50558 12
-3 -5 -3 156.279 11.9265 4
3 5 3 169.902 9.54416 3
-3 5 -3 157.521 12.0755 4
3 5 3 167.364 10.7004 9
3 5 3 175.118 9.97203 8
-3 5 -3 156.474 9.21332 6
-3 5 -3 166.480 8.32183 2
-3 5 -3 148.607 8.20817 13
-3 5 -3 169.626 10.5250 9
3 5 3 163.136 9.20973 2
-4 -5 -3 5.54733 3.82309 4
-4 -5 -3 10.3268 3.40622 11
-4 -5 -3 8.65608 2.76698 6
-4 -5 -3 9.77255 3.92696 12
4 -5 3 8.16245 3.72479 7
-4 -5 -3 10.1455 2.80462 5
4 -5 3 12.7785 3.19808 10
-4 -5 -3 8.97824 4.52165 7
-4 -5 -3 9.12589 2.83304 3
4 5 3 12.2763 3.75581 3
-4 5 -3 9.79366 4.64484 4
-4 5 -3 12.2345 3.93421 9
4 5 3 13.3496 4.12122 8
4 5 3 8.84548 4.16679 9
5 -5 3 214.150 11.4000 10
5 -5 3 213.961 12.7884 7
-5 -5 -3 223.362 12.6094 12
-5 -5 -3 223.460 12.2587 3
-5 -5 -3 229.402 13.0306 7
-5 -5 -3 218.982 12.6697 6
-5 -5 -3 217.238 10.5937 5
-5 -5 -3 208.568 12.9010 11
5 5 3 221.028 13.2179 8
-5 5 -3 234.042 12.7023 12
5 5 3 233.273 12.8058 3
-5 5 -3 225.513 13.4496 9
5 5 3 206.166 12.2101 2
-5 5 -3 256.210 16.7079 4
5 5 3 226.408 14.4730 9
-6 -5 -3 32.7917 5.05430 6
-6 -5 -3 30.3556 6.06689 12
-6 -5 -3 33.9019 5.19378 3
-6 -5 -3 43.6542 5.12984 5
-6 5 -3 26.2328 5.99513 9
6 5 3 32.9489 6.71091 9
6 5 3 45.0175 6.24231 3
6 5 3 38.5264 6.26088 8
-6 5 -3 39.5896 6.33400 12
-7 -5 -3 9.11801 4.38633 5
-7 -5 -3 -2.9550 3.33213 6
7 -5 3 -4.7927 4.85055 7
-7 -5 -3 -0.5679 4.89283 3
-7 -5 -3 -6.3977 5.46838 11
-7 -5 -3 1.26240 5.89887 12
7 5 3 2.37903 4.51839 2
7 5 3 -2.9898 6.45600 9
-7 5 -3 -4.3743 6.13430 12
7 5 3 3.07570 5.46332 3
7 5 3 6.68289 6.35424 8
-8 -5 -3 24.5930 8.23796 4
-8 -5 -3 15.0914 7.45430 11
8 -5 3 22.1373 6.87888 7
-8 -5 -3 29.5993 6.70416 3
-8 -5 -3 20.9667 4.94554 6
8 5 3 21.8218 7.32650 3
8 5 3 1.02849 8.93432 9
-8 5 -3 10.4781 7.90425 12
8 5 3 24.3573 6.41014 2
8 5 3 26.3864 8.03411 8
-9 -5 -3 18.6152 8.65685 12
-9 -5 -3 15.7514 5.82194 6
-9 -5 -3 9.95513 9.53999 4
-9 -5 -3 6.46575 7.59832 3
9 -5 3 16.4723 8.13114 7
-9 -5 -3 11.0846 9.14181 11
9 5 3 6.32486 6.92638 2
-9 5 -3 10.8558 9.47670 12
9 5 3 16.2932 8.27808 8
9 5 3 -1.9296 8.58503 3
-9 -6 3 7.88405 11.1085 4
-9 -6 3 16.9893 7.20713 3
-9 -6 3 6.04273 8.14030 11
-9 -6 3 25.3235 7.66274 5
9 -6 -3 17.3210 8.95629 7
9 -6 -3 19.2064 7.81426 3
-9 6 3 39.7168 9.74487 9
-9 6 3 -3.1330 9.74692 3
9 6 -3 4.01551 6.27555 2
-9 6 3 12.4963 9.64823 11
9 6 -3 29.7444 8.97891 3
-8 -6 3 133.372 12.8137 11
8 -6 -3 147.493 11.4716 13
8 -6 -3 163.675 13.2269 7
-8 -6 3 163.297 11.5340 3
8 -6 -3 162.311 12.7854 3
-8 -6 3 168.115 11.9025 5
8 6 -3 142.047 11.9791 13
8 6 -3 175.170 11.8732 2
-8 6 3 131.738 14.2524 3
-8 6 3 158.462 15.5115 9
-8 6 3 177.737 13.4477 11
-8 6 3 199.928 20.1187 4
8 6 -3 156.436 13.2635 3
-7 -6 3 13.6909 8.11826 4
7 -6 -3 21.1362 5.67676 3
-7 -6 3 15.0032 4.92043 3
-7 -6 3 26.1848 5.86379 5
7 6 -3 16.8922 5.39882 13
-7 6 3 24.6945 7.06699 3
-7 6 3 20.1976 10.3939 4
7 6 -3 23.4955 4.69879 2
-7 6 3 5.48266 7.61861 9
-7 6 3 28.0078 7.59993 11
7 6 -3 12.5752 6.02700 3
-6 -6 3 73.0829 7.45227 5
6 -6 -3 61.8793 7.64067 3
6 -6 -3 61.2526 6.91309 10
-6 -6 3 64.1253 7.95764 11
-6 -6 3 75.1147 6.76581 3
6 6 -3 46.6181 7.17520 3
-6 6 3 63.7371 8.49483 11
-6 6 3 66.9550 8.79782 3
-6 6 3 75.9181 10.3277 9
6 6 -3 67.7339 7.33848 13
-5 -6 3 139.941 8.08654 3
5 -6 -3 127.819 8.90722 3
-5 -6 3 116.806 9.03277 11
5 -6 -3 109.680 7.91376 10
-5 -6 3 126.211 8.33243 5
-5 6 3 120.316 7.77728 2
5 6 -3 126.780 8.05603 13
5 6 -3 113.267 8.27266 3
-5 6 3 124.368 10.7619 9
-5 6 3 122.090 9.69957 3
-5 6 3 145.125 9.94342 11
4 -6 -3 72.7861 7.04279 3
-4 -6 3 78.5287 6.52112 5
-4 -6 3 78.2712 6.93986 11
4 -6 -3 82.3516 7.63440 7
-4 -6 3 69.9826 6.68439 3
4 -6 -3 90.9017 6.67932 10
4 -6 -3 78.9815 7.33905 3
-4 6 3 88.9018 5.95809 2
4 6 -3 83.5778 6.25037 2
4 6 -3 66.4503 6.07506 3
-4 6 3 86.6071 7.48452 3
-4 6 3 80.5092 7.65576 11
4 6 -3 100.266 6.30136 13
-4 6 3 76.3867 8.72587 9
3 -6 -3 5.75601 3.23761 3
-3 -6 3 11.3163 2.98256 11
3 -6 -3 11.0783 4.69977 7
-3 -6 3 5.69840 3.07414 5
3 -6 -3 5.67738 3.65892 3
3 6 -3 6.76587 2.63840 13
-3 6 3 8.01659 4.27451 11
3 6 -3 9.19015 2.95202 2
-3 6 3 12.3333 3.09936 2
-3 6 3 10.8636 3.99397 3
-3 6 3 13.9763 4.35132 9
2 -6 -3 24.8038 4.22253 7
2 -6 -3 24.4421 4.39377 12
2 -6 -3 22.0834 3.97321 3
2 -6 -3 15.0746 3.71291 3
-2 6 3 26.4739 3.72309 2
-2 6 3 31.7844 4.85030 11
-2 6 3 25.1514 4.75143 9
-2 6 3 21.3079 3.99406 3
2 6 -3 17.9083 3.63004 2
1 -6 -3 43.4421 4.89197 6
-1 -6 3 34.0058 4.41240 1
1 -6 -3 43.4676 4.49797 3
1 -6 -3 44.3856 5.32259 7
1 -6 -3 45.1313 5.70617 12
-1 -6 3 35.0186 4.36037 5
1 -6 -3 41.0340 5.50335 3
-1 6 3 33.7667 5.33344 11
1 6 -3 35.2462 5.85961 9
-1 6 3 42.4111 5.38824 3
1 6 -3 35.9509 4.24721 2
-1 6 3 40.4611 4.39739 2
0 -6 -3 56.5500 5.04659 3
0 -6 3 53.7780 4.32827 7
0 -6 3 54.2461 5.27434 5
0 -6 -3 50.9150 5.10068 6
0 -6 -3 68.7304 6.35852 12
0 -6 3 63.1915 5.06150 1
0 -6 -3 59.7699 5.88042 7
0 -6 -3 50.4356 5.69863 3
0 6 -3 57.5827 7.09807 9
0 6 -3 44.7568 5.46301 7
0 6 3 65.9055 7.09551 9
0 6 3 63.9251 5.01944 2
0 6 -3 46.5748 4.59659 2
0 6 3 55.8106 5.81014 11
1 -6 3 18.4549 3.42667 7
-1 -6 -3 15.6622 3.10893 6
1 -6 3 15.1537 3.16839 5
-1 -6 -3 14.4401 3.55350 3
-1 -6 -3 13.5992 3.99776 7
1 -6 3 13.1517 3.66635 10
1 -6 3 18.5327 3.05355 1
-1 6 -3 17.3792 4.17950 9
1 6 3 17.2107 4.24531 9
1 6 3 16.9691 3.25912 2
-1 6 -3 14.1585 2.91317 2
1 6 3 25.2033 4.33593 3
1 6 3 18.9559 3.79015 11
2 -6 3 509.784 22.3858 10
2 -6 3 530.356 25.1901 7
-2 -6 -3 527.305 23.8999 12
-2 -6 -3 530.319 24.5665 3
2 -6 3 519.849 22.5533 5
2 -6 3 500.468 23.3119 1
-2 -6 -3 528.777 25.6212 7
-2 -6 -3 520.303 24.9452 11
-2 -6 -3 559.833 26.2890 6
-2 6 -3 518.748 25.6889 6
2 6 3 514.153 24.9218 2
-2 6 -3 510.939 31.1280 4
2 6 3 517.592 24.8496 11
2 6 3 533.387 24.8177 3
-2 6 -3 521.461 24.0888 2
-2 6 -3 517.893 27.3414 9
2 6 3 517.865 27.7813 9
3 -6 3 100.966 7.77857 7
-3 -6 -3 103.932 8.06435 7
-3 -6 -3 102.729 7.28270 3
3 -6 3 98.7150 7.49852 10
-3 -6 -3 104.303 8.39100 11
-3 -6 -3 92.9827 7.57989 6
3 -6 3 107.380 7.12453 1
-3 6 -3 92.6402 6.20843 2
3 6 3 107.759 8.84940 8
-3 6 -3 88.1763 10.5637 4
3 6 3 94.1278 7.21053 2
-3 6 -3 103.613 9.20433 9
3 6 3 107.635 7.98893 3
3 6 3 107.392 9.75826 9
-4 -6 -3 67.3940 6.31617 3
4 -6 3 74.6266 7.13966 10
4 -6 3 60.3788 7.28872 7
-4 -6 -3 66.9090 6.79258 6
-4 -6 -3 49.9220 7.48423 11
-4 -6 -3 66.4608 7.56829 7
4 6 3 80.0153 7.57262 3
-4 6 -3 72.2918 8.46598 9
-4 6 -3 63.3731 5.19416 2
4 6 3 75.6423 9.26951 9
-4 6 -3 85.8019 10.8985 4
4 6 3 73.0954 8.59442 8
-5 -6 -3 113.060 8.51108 3
-5 -6 -3 102.748 7.46449 5
-5 -6 -3 98.9935 9.45827 7
-5 -6 -3 114.311 8.36205 6
5 -6 3 101.747 8.48702 10
-5 6 -3 110.713 13.6116 4
-5 6 -3 115.782 10.1864 9
5 6 3 107.667 9.61380 3
-5 6 -3 114.683 10.3967 12
5 6 3 123.681 10.8733 8
6 -6 3 32.3752 6.35477 7
-6 -6 -3 23.0571 6.91080 7
-6 -6 -3 34.2744 5.95716 6
-6 -6 -3 26.7899 7.39622 11
-6 -6 -3 21.6949 8.09681 4
-6 -6 -3 25.4516 5.91589 3
-6 -6 -3 24.2725 4.76046 5
-6 6 -3 25.7503 6.42237 9
6 6 3 23.7952 5.51231 2
6 6 3 31.3304 6.49442 3
-6 6 -3 31.3624 7.24728 12
6 6 3 36.2637 7.43339 8
7 -6 3 8.91955 6.56531 7
-7 -6 -3 20.1212 5.05965 6
-7 -6 -3 13.5924 6.61597 11
-7 -6 -3 8.07328 6.50726 3
-7 -6 -3 2.17868 7.18877 7
-7 -6 -3 6.18339 5.01553 5
-7 -6 -3 6.68184 8.03787 4
7 6 3 10.8021 7.85732 9
7 6 3 13.6823 7.16238 3
-7 6 -3 10.2646 7.56908 9
-7 6 -3 12.6738 8.04965 12
7 6 3 17.2867 7.57527 8
7 6 3 2.03330 6.04591 2
-8 -6 -3 6.96253 8.70399 11
8 -6 3 10.7088 7.42860 7
-8 -6 -3 1.83362 5.53085 5
-8 -6 -3 11.0340 8.91449 4
-8 -6 -3 -5.7432 8.29251 7
-8 -6 -3 14.6431 7.21279 3
-8 -6 -3 1.47061 5.33057 6
8 6 3 6.59205 6.71532 2
8 6 3 14.6313 9.74707 9
8 6 3 13.5210 8.56817 3
8 6 3 10.1828 8.12177 8
-8 6 -3 -0.9721 9.17624 12
7 -7 -3 15.1818 7.24943 7
-7 -7 3 10.2916 8.13303 11
-7 -7 3 4.32479 6.17906 5
7 -7 -3 13.5744 6.30120 3
-7 -7 3 10.2353 5.67449 3
7 7 -3 12.6008 5.35965 2
-7 7 3 -1.6226 9.55858 9
7 7 -3 3.69634 6.52159 13
-7 7 3 10.9671 12.5103 4
-7 7 3 29.2884 8.77399 11
-6 -7 3 5.89853 5.90828 5
6 -7 -3 22.9536 6.94064 7
6 -7 -3 20.2846 5.36970 10
6 -7 -3 5.76163 5.49106 3
-6 -7 3 17.5780 5.38004 3
-6 -7 3 0.48513 6.31557 11
6 7 -3 14.5877 5.21853 13
-6 7 3 19.8516 8.12267 9
6 7 -3 15.9298 4.90986 2
-6 7 3 13.9179 7.27765 11
-6 7 3 11.4525 9.84358 4
-6 7 3 13.1412 6.85987 3
-5 -7 3 16.2401 4.56319 3
5 -7 -3 6.41785 4.78167 10
-5 -7 3 13.5341 5.42742 11
5 -7 -3 17.4423 6.27592 7
5 -7 -3 11.8407 4.97082 3
-5 -7 3 9.86276 5.56099 5
-5 7 3 19.4988 8.71628 4
5 7 -3 4.49292 4.98770 3
-5 7 3 10.3626 6.65622 9
5 7 -3 15.8666 4.99704 13
5 7 -3 15.8680 4.27024 2
-5 7 3 9.80733 4.01821 2
-5 7 3 14.1879 6.30525 3
-5 7 3 11.6324 6.74967 11
-4 -7 3 214.662 12.0199 5
4 -7 -3 219.233 11.7216 10
-4 -7 3 207.597 12.3405 11
4 -7 -3 195.583 12.3712 3
-4 7 3 204.307 11.5124 2
-4 7 3 212.192 13.1243 11
-4 7 3 197.404 12.8072 3
-4 7 3 227.824 15.2247 9
4 7 -3 210.146 12.0674 2
3 -7 -3 0.03183 3.70708 3
-3 -7 3 1.13404 3.97960 11
-3 7 3 2.86274 4.43031 3
-3 7 3 -1.8861 5.06550 11
3 7 -3 0.07901 3.23567 2
-3 7 3 4.02554 5.06529 9
-3 7 3 1.19770 3.56060 2
2 -7 -3 74.7960 8.37046 7
2 -7 -3 98.7588 7.28797 3
-2 7 3 99.4878 8.47295 3
-2 7 3 89.5483 7.14396 2
2 7 -3 90.0815 9.37804 9
-2 7 3 93.8234 8.58088 11
2 7 -3 88.5221 6.67214 2
1 -7 -3 8.28477 3.49066 3
-1 -7 3 7.85333 3.29273 1
1 -7 -3 9.25885 4.34526 12
1 -7 -3 4.27445 2.52455 6
1 -7 -3 12.1315 3.98611 7
-1 7 3 6.44731 4.78766 11
-1 7 3 12.1728 3.78266 2
1 7 -3 7.71755 3.13529 2
1 7 -3 6.30866 4.94211 9
0 -7 -3 22.6952 4.71352 12
0 -7 3 24.0503 3.97770 7
0 -7 3 22.1528 3.89908 1
0 -7 -3 21.8352 5.01031 7
0 -7 -3 22.6642 3.35434 6
0 -7 -3 22.8516 4.16441 3
0 7 3 20.5268 4.59546 11
0 7 -3 21.2300 3.64195 2
0 7 3 23.2633 4.44132 2
0 7 3 21.2285 5.03147 3
0 7 -3 13.7036 5.19452 9
-1 -7 -3 45.8451 6.58619 7
1 -7 3 46.0306 5.58073 7
-1 -7 -3 37.8296 5.12097 3
-1 -7 -3 41.4697 5.21198 6
-1 7 -3 39.5140 6.48462 9
-1 7 -3 45.4101 4.81636 2
1 7 3 41.7174 6.26298 11
1 7 3 40.6772 5.68007 3
1 7 3 41.8876 5.49065 2
-2 -7 -3 1.67578 3.70925 3
-2 -7 -3 -1.9352 4.51912 7
2 -7 3 5.32924 4.00514 7
2 -7 3 9.11146 4.01961 10
-2 -7 -3 2.72488 5.11975 11
-2 -7 -3 9.46727 3.05833 6
2 7 3 7.76533 4.82224 3
-2 7 -3 3.69979 6.30116 4
2 7 3 -1.3897 3.37943 2
2 7 3 2.76169 4.77141 11
-2 7 -3 3.99309 2.96805 6
-2 7 -3 0.83794 4.67027 9
-2 7 -3 8.10337 2.98796 2
-3 -7 -3 147.712 10.5409 7
-3 -7 -3 151.849 9.64490 6
3 -7 3 133.623 10.0253 7
-3 -7 -3 143.888 9.64902 3
3 -7 3 147.926 10.2060 10
-3 7 -3 141.230 8.41272 2
3 7 3 158.964 11.8157 8
3 7 3 137.491 9.78371 2
-3 7 -3 144.512 14.8956 4
-3 7 -3 145.895 12.6918 9
3 7 3 149.308 10.9708 11
3 7 3 138.719 10.6334 3
-4 -7 -3 19.2904 5.06570 3
-4 -7 -3 20.8146 4.37381 6
-4 -7 -3 19.8230 5.80548 7
4 -7 3 22.4372 5.97629 10
4 -7 3 19.6353 4.73815 1
4 7 3 20.3552 7.13511 9
4 7 3 20.5342 7.17072 8
-4 7 -3 30.6493 9.08834 4
4 7 3 17.2035 4.75481 2
4 7 3 22.3483 5.96665 3
-4 7 -3 17.8954 3.40820 2
-4 7 -3 20.0774 6.55996 9
5 -7 3 63.6458 8.96531 10
-5 -7 -3 67.3908 10.6017 4
5 -7 3 54.2755 9.00332 7
-5 -7 -3 61.4185 7.59484 6
-5 -7 -3 46.5496 8.29197 11
-5 -7 -3 71.4414 9.08212 7
-5 -7 -3 72.8769 8.50336 3
-5 7 -3 95.1646 11.1448 9
-5 7 -3 73.9359 14.9318 4
5 7 3 81.6180 12.5755 9
5 7 3 52.8434 8.19149 2
5 7 3 64.2876 8.30988 3
5 7 3 64.0274 9.01937 8
-6 -7 -3 -10.914 5.22700 5
6 -7 3 6.35370 6.44881 10
-6 -7 -3 2.84531 5.83789 3
-6 -7 -3 -3.0350 8.75372 4
-6 -7 -3 15.2673 6.50133 7
6 -7 3 3.94214 6.13751 7
-6 -7 -3 0.22955 6.63591 11
-6 -7 -3 -5.9133 4.28121 6
6 7 3 -2.7370 6.04534 2
6 7 3 3.79454 8.07949 9
-6 7 -3 28.7246 12.1899 4
6 7 3 6.95650 7.64713 8
-6 7 -3 2.49056 9.00632 12
6 7 3 1.03748 7.10064 3
6 -8 -3 7.30557 6.36613 10
-6 8 3 2.80314 12.0330 4
5 -8 -3 37.7456 7.00700 10
5 -8 -3 32.9301 8.25293 7
-5 -8 3 36.3926 6.98662 11
-5 -8 3 24.4191 6.92000 5
5 -8 -3 37.1382 7.14029 3
-5 8 3 46.3047 12.0889 4
-5 8 3 41.8495 8.68915 11
5 8 -3 35.6511 6.36708 2
-5 8 3 37.6622 5.76018 2
-5 8 3 43.5369 9.10100 9
5 8 -3 34.7773 8.54240 9
-4 -8 3 27.1023 5.77869 5
-4 -8 3 30.8209 6.15393 11
4 -8 -3 38.4456 6.83370 10
4 -8 -3 35.9678 7.90721 7
4 -8 -3 33.8295 6.09389 3
-4 8 3 39.1502 8.27471 9
-4 8 3 42.5255 8.65179 11
4 8 -3 30.7236 7.62390 9
4 8 -3 28.1053 5.79399 2
-4 8 3 41.2075 5.71131 2
-3 -8 3 98.8537 9.26062 5
3 -8 -3 103.251 8.99871 3
3 -8 -3 86.7919 10.2778 7
-3 8 3 90.4360 10.7734 11
-3 8 3 108.305 8.81356 2
-3 8 3 128.347 13.3735 9
3 8 -3 97.7290 8.55732 2
-3 8 3 88.3500 10.4620 3
3 8 -3 96.3259 13.1983 9
2 -8 -3 17.4036 6.16849 7
2 -8 -3 15.0683 4.94140 3
-2 -8 3 18.4259 5.57575 5
-2 8 3 23.0374 6.79402 11
-2 8 3 13.8135 7.07361 9
2 8 -3 13.9590 7.43885 9
-2 8 3 23.7034 5.34202 2
-2 8 3 14.9075 5.89643 3
2 8 -3 23.8291 4.68419 2
1 -8 -3 94.9572 8.08458 3
-1 -8 3 75.4596 8.33659 5
1 8 -3 77.5431 12.4178 9
-1 8 3 82.9411 13.1261 9
-1 8 3 63.0619 9.82621 11
-1 8 3 69.4061 9.44547 3
-1 8 3 82.9812 8.31931 2
1 8 -3 87.5142 7.39794 2
0 -8 3 20.5665 4.73367 1
0 -8 -3 8.87942 4.55743 3
0 -8 3 22.3209 4.57107 7
0 -8 3 19.6692 4.62617 5
0 8 3 12.1417 5.82222 11
0 8 3 18.4110 4.98711 2
0 8 -3 28.5241 7.03229 9
0 8 -3 19.2705 4.39761 2
0 8 3 19.3253 7.01358 9
0 8 3 13.6610 5.65818 3
-1 -8 -3 8.06096 5.27775 7
1 -8 3 4.68874 4.30986 7
-1 -8 -3 3.19193 4.29674 3
-1 -8 -3 1.03206 3.35329 6
1 -8 3 0.45074 3.95034 5
1 -8 3 -1.9550 5.53340 10
1 -8 3 2.12459 3.59037 1
-1 8 -3 3.84071 6.21135 9
1 8 3 10.2337 7.01839 9
-1 8 -3 4.09629 3.48472 2
1 8 3 -2.5924 5.27961 3
1 8 3 2.19896 4.26467 2
1 8 3 -0.2929 5.90370 11
2 -8 3 52.7173 7.18285 1
-2 -8 -3 55.5084 7.64522 3
2 -8 3 54.9851 7.75938 7
2 -8 3 73.5487 9.26482 10
-2 -8 -3 43.2794 6.41417 6
-2 -8 -3 53.2299 8.52039 7
2 8 3 61.7384 7.59766 2
-2 8 -3 46.9980 6.67908 6
-2 8 -3 62.6143 9.40703 9
2 8 3 61.6914 8.94394 3
2 8 3 64.3263 8.05883 11
-2 8 -3 76.0955 11.2917 4
2 8 3 48.1475 9.00626 9
-2 8 -3 36.5356 6.05368 2
3 -8 3 11.3986 5.99349 10
-3 -8 -3 15.4032 5.51144 7
-3 -8 -3 16.7438 7.37804 11
-3 -8 -3 10.6314 4.54814 6
3 -8 3 9.69594 4.85984 1
-3 -8 -3 14.7789 5.56311 3
3 8 3 13.2812 7.32265 11
3 8 3 14.3322 8.11906 9
-3 8 -3 20.9271 3.87218 2
-3 8 -3 22.8704 9.69905 4
-3 8 -3 15.6711 8.20185 9
3 8 3 12.7028 6.56762 3
3 8 3 15.9709 5.58506 2
4 -8 3 4.56893 6.83067 10
-4 -8 -3 -5.7599 4.38761 6
4 -8 3 0.78962 4.74490 1
-4 -8 -3 0.97362 7.19331 11
-4 -8 -3 2.68999 6.16153 3
-4 -8 -3 -9.4483 5.68914 7
4 -8 3 -9.1450 6.14521 7
4 8 3 3.15286 8.25003 9
4 8 3 -4.8145 5.50202 2
-4 8 -3 3.75136 3.73300 2
4 8 3 5.61262 7.75628 11
4 8 3 0.57825 7.92207 8
-4 8 -3 8.23825 8.06238 9
4 8 3 -9.7408 6.70421 3
-4 8 -3 3.02132 9.91976 4
-5 -8 -3 14.9693 6.89568 3
5 -8 3 15.1585 6.99644 10
-5 -8 -3 -0.1235 6.39418 7
-5 -8 -3 14.5861 5.56989 6
5 -8 3 13.2173 5.91612 1
5 -8 3 16.7825 7.04493 7
-5 -8 -3 18.8525 7.93225 11
5 8 3 18.7706 10.2042 9
5 8 3 11.5479 6.77161 2
5 8 3 15.1206 8.52548 8
-5 8 -3 33.6638 9.39447 9
5 8 3 11.6762 8.20103 3
-5 8 -3 44.5607 14.0165 4
2 -9 -3 73.8451 8.91494 3
2 -9 -3 67.5323 10.6458 7
-2 -9 3 66.8264 8.26349 5
-2 9 3 68.2398 10.5228 11
2 9 -3 58.0902 11.4947 9
-2 9 3 72.6073 11.3117 9
2 9 -3 47.2311 6.92982 2
-2 9 3 57.2735 9.61582 2
1 -9 -3 17.8883 6.00834 3
-1 -9 3 22.9668 5.66374 5
1 -9 -3 23.2899 7.45917 7
-1 9 3 35.0253 9.44773 9
1 9 -3 36.6138 9.91054 9
-1 9 3 27.8545 7.25930 2
-1 9 3 42.4471 9.14029 11
1 9 -3 16.9149 5.61919 2
0 -9 -3 23.2100 6.30797 3
0 -9 3 25.3746 5.48657 1
0 -9 3 22.4602 5.66001 5
0 -9 -3 12.6460 6.71645 7
0 9 3 20.1952 9.74889 9
0 9 -3 35.9077 10.3798 9
0 9 -3 17.4416 5.52835 2
0 9 3 29.3953 6.91392 2
0 9 3 18.2513 8.58396 11
-1 -9 -3 27.1326 6.06894 3
-1 -9 -3 24.0019 7.09686 7
1 -9 3 19.3301 5.40969 1
1 -9 3 24.7887 6.32632 5
1 -9 3 21.1600 7.70726 10
1 -9 3 21.5276 6.81909 7
1 9 3 11.0990 8.82011 9
-1 9 -3 21.6635 5.34900 2
1 9 3 26.6679 7.98831 11
-1 9 -3 21.3420 9.50310 9
1 9 3 26.0510 6.80507 2
-11 0 4 3.08088 7.33291 3
11 0 -4 3.47076 7.94258 7
-11 0 4 14.3334 8.35640 9
11 0 -4 5.23818 7.19264 3
-11 0 4 0.62410 7.51781 11
11 0 -4 2.84955 7.49184 13
-10 0 4 13.9962 6.06804 3
10 0 -4 20.6812 6.41344 13
10 0 -4 16.0012 4.73723 2
10 0 -4 25.8640 6.51933 7
-10 0 4 14.7182 6.86623 9
10 0 -4 17.1415 6.20276 3
-10 0 4 10.4416 6.17485 11
-10 0 4 4.49055 7.13025 4
9 0 -4 257.103 14.1710 7
-9 0 4 245.818 14.2649 3
9 0 -4 264.605 13.1043 2
9 0 -4 244.878 14.3685 3
-9 0 4 262.918 16.1017 9
8 0 -4 8.19302 3.78764 3
8 0 -4 11.6232 3.73576 13
-8 0 4 4.64101 3.82361 11
8 0 -4 3.51563 4.18114 7
-8 0 4 8.90096 3.93860 3
-8 0 4 7.20037 4.13502 9
8 0 -4 4.71487 2.84887 2
7 0 -4 61.9279 5.50930 7
7 0 -4 58.1987 4.52759 2
-7 0 4 54.4900 5.44339 3
7 0 -4 57.3676 5.28181 13
-7 0 4 45.6357 5.58306 11
-7 0 4 66.3720 6.53181 9
7 0 -4 57.8312 5.97961 3
6 0 -4 219.617 11.2705 3
-6 0 4 205.545 10.9641 3
6 0 -4 227.697 10.8541 7
-6 0 4 216.223 11.2025 11
-6 0 4 191.995 11.3009 7
6 0 -4 209.876 10.7845 13
-6 0 4 210.164 12.2321 9
-5 0 4 392.353 17.8228 3
-5 0 4 392.335 19.7288 9
-5 0 4 365.383 17.6167 3
5 0 -4 389.829 17.3733 13
-5 0 4 370.430 17.7668 11
-5 0 4 382.215 18.2127 7
5 0 -4 368.845 17.9371 7
5 0 -4 371.753 17.8107 3
-4 0 4 256.273 11.0917 12
-4 0 4 234.078 11.7440 7
-4 0 4 249.258 12.8034 9
4 0 -4 225.146 11.5762 7
4 0 -4 234.719 11.5440 3
-4 0 4 224.817 11.4095 3
4 0 -4 230.305 11.1526 13
-4 0 4 249.724 11.6384 3
-4 0 4 242.490 11.5306 11
4 0 -4 241.053 11.6895 8
-3 0 4 2533.15 105.150 11
3 0 -4 2496.98 107.155 2
-3 0 4 2480.60 105.862 8
-3 0 4 2467.29 105.741 3
3 0 -4 2423.80 101.828 12
-3 0 4 2417.18 105.802 3
3 0 -4 2403.95 105.773 3
-3 0 4 2468.18 101.943 12
3 0 -4 2413.97 105.660 3
-3 0 4 2462.84 117.738 9
-3 0 4 2434.22 110.021 7
3 0 -4 2473.45 109.963 7
3 0 -4 2441.91 103.754 13
3 0 -4 2304.16 117.723 9
3 0 -4 2387.35 105.089 11
3 0 -4 2373.16 105.876 8
-3 0 4 2429.24 103.853 13
3 0 -4 2525.81 114.116 6
-2 0 4 961.746 41.2444 3
2 0 -4 948.095 40.5376 13
-2 0 4 904.902 41.3276 3
2 0 -4 940.067 39.7311 12
2 0 -4 947.961 41.0780 11
2 0 -4 957.889 41.3355 3
2 0 -4 895.054 45.8100 9
-2 0 4 896.968 40.5603 13
2 0 -4 930.508 41.8117 2
2 0 -4 931.619 41.3860 8
2 0 -4 928.294 42.8736 7
2 0 -4 967.282 44.6276 6
-2 0 4 914.272 39.7787 12
-2 0 4 1018.75 41.4726 8
-2 0 4 1005.06 41.1133 11
-2 0 4 938.640 45.8334 9
2 0 -4 913.475 41.1783 3
1 0 -4 319.669 14.7693 13
-1 0 4 340.599 14.9954 3
1 0 -4 304.582 16.4178 9
-1 0 4 324.556 14.5389 12
1 0 -4 332.237 15.1714 8
1 0 -4 333.401 14.4698 12
1 0 -4 320.549 15.1946 2
1 0 -4 330.084 15.0088 3
1 0 -4 331.429 13.9398 1
-1 0 4 340.058 16.2986 6
1 0 -4 335.752 14.9480 11
1 0 -4 322.455 14.9685 3
-1 0 4 325.810 16.4139 9
-1 0 4 359.180 14.9865 11
1 0 -4 333.970 16.2814 6
-1 0 4 304.285 15.0230 3
-1 0 4 343.247 15.1389 8
0 0 4 259.484 13.0573 11
0 0 4 298.218 13.2280 11
0 0 4 278.011 13.3346 8
0 0 4 298.028 14.2473 9
0 0 4 294.803 12.1692 1
0 0 4 290.693 13.3507 2
-1 0 -4 56.4224 3.84531 3
1 0 4 62.5077 3.78484 11
-1 0 -4 58.4408 4.18639 6
1 0 4 56.6632 4.14981 6
1 0 4 65.1605 3.80038 3
1 0 4 64.5943 3.68837 2
-1 0 -4 61.2423 3.71316 3
1 0 4 61.8113 3.92624 8
-1 0 -4 57.8695 3.52826 12
1 0 4 57.1878 3.62558 12
1 0 4 59.3890 3.51985 11
-1 0 -4 55.6655 3.84411 8
-1 0 -4 58.2582 3.78861 2
1 0 4 59.8843 3.74658 3
-2 0 -4 323.367 15.6485 6
-2 0 -4 310.810 17.9464 4
2 0 4 323.703 14.3268 3
2 0 4 308.701 14.4118 8
-2 0 -4 295.489 13.8078 12
2 0 4 282.321 17.7745 4
-2 0 -4 300.292 14.3585 2
2 0 4 311.738 14.3561 2
2 0 4 284.764 13.7300 12
2 0 4 313.689 14.2683 3
-2 0 -4 316.016 14.4575 8
2 0 4 300.964 15.4981 6
2 0 4 310.937 14.1268 11
-2 0 -4 301.005 14.1839 11
-2 0 -4 329.878 14.2613 3
-2 0 -4 312.814 14.3901 3
3 0 4 435.819 19.1514 3
-3 0 -4 416.086 19.1887 2
-3 0 -4 451.391 24.2861 4
-3 0 -4 403.990 18.9401 11
-3 0 -4 420.883 20.6837 6
3 0 4 367.076 23.8364 4
3 0 4 421.252 19.1200 2
-3 0 -4 418.665 18.9496 3
3 0 4 414.814 18.8555 11
3 0 4 409.762 19.2945 8
3 0 4 419.327 19.0245 3
4 0 4 1659.81 71.2821 3
4 0 4 1666.60 71.1619 3
-4 0 -4 1641.93 70.8168 11
-4 0 -4 1610.85 71.0080 3
-4 0 -4 1715.71 90.4188 4
-4 0 -4 1660.60 76.8841 6
-4 0 -4 1569.05 68.8517 12
-4 0 -4 1556.95 71.8569 2
4 0 4 1607.84 71.8524 2
4 0 4 1595.82 71.5319 8
5 0 4 451.386 21.0222 3
-5 0 -4 431.333 26.4992 4
5 0 4 474.160 21.3935 8
5 0 4 433.582 20.6885 3
-5 0 -4 402.027 20.4130 12
-5 0 -4 472.046 22.4572 6
5 0 4 447.156 20.7298 2
-5 0 -4 477.106 20.6737 3
-5 0 -4 441.700 20.9746 11
-6 0 -4 16.1378 3.28259 3
6 0 4 16.9838 3.16260 2
-6 0 -4 12.7663 4.08507 12
6 0 4 8.41334 3.80740 8
-6 0 -4 16.0546 4.30232 4
-6 0 -4 14.6609 2.75408 6
6 0 4 13.9464 3.02934 3
-6 0 -4 14.6456 4.06332 11
6 0 4 17.3128 4.45363 3
-7 0 -4 15.4275 4.59197 11
-7 0 -4 6.41885 3.14887 6
7 0 4 0.97117 4.19210 8
7 0 4 10.9416 3.04631 2
-7 0 -4 10.7901 4.96122 4
7 0 4 14.3614 3.78990 3
-7 0 -4 8.14666 3.76016 3
8 0 4 84.4794 6.63642 2
-8 0 -4 95.9823 9.33934 11
-8 0 -4 90.2364 7.98082 3
-8 0 -4 96.7714 7.59428 6
8 0 4 94.7988 7.97411 3
-9 0 -4 10.2268 5.98906 3
9 0 4 0.97147 7.35813 8
9 0 4 6.88506 3.79812 2
-9 0 -4 5.43438 6.60834 4
-9 0 -4 9.85811 4.42090 6
9 0 4 18.5999 5.62367 3
-9 0 -4 0.91992 6.85121 12
-9 0 -4 13.2919 6.86792 11
-10 0 -4 3.13875 5.55259 6
10 0 4 7.49499 7.17442 3
-10 0 -4 8.90828 7.58539 4
-10 0 -4 2.79171 8.72540 11
-10 0 -4 2.87513 7.14975 3
10 0 4 -15.762 8.04111 8
-10 0 -4 -3.1842 8.75418 12
-11 -1 4 -10.660 6.95403 11
11 -1 -4 5.27636 7.58784 13
-11 -1 4 -1.0528 6.95141 3
11 -1 -4 -4.6196 7.47766 3
11 -1 -4 16.3491 8.65036 7
-11 1 4 5.26779 8.46491 9
11 1 -4 21.1770 6.30573 2
11 1 -4 -2.4730 7.83121 3
-11 1 4 0.88977 7.82581 3
-11 1 4 1.91945 7.73975 11
11 1 -4 3.21389 7.41405 7
11 1 -4 -8.7494 7.21735 13
-10 -1 4 36.0005 7.77798 4
-10 -1 4 30.8918 6.76725 3
10 -1 -4 45.2930 6.55586 2
10 -1 -4 51.5250 8.72615 7
10 -1 -4 55.7261 8.44526 13
10 -1 -4 31.5461 7.01497 3
-10 1 4 36.0596 6.99791 11
-10 1 4 36.3354 7.24754 3
10 1 -4 51.0619 7.09365 2
10 1 -4 42.1119 7.04664 7
-10 1 4 56.8474 9.94924 9
-10 1 4 40.5270 7.79628 4
10 1 -4 40.5952 6.99345 3
9 -1 -4 31.4605 6.19722 3
9 -1 -4 42.5465 6.35253 7
-9 -1 4 31.0462 5.52450 3
9 -1 -4 36.5044 5.80737 2
-9 1 4 33.9281 6.04084 9
-9 1 4 30.3823 5.70304 3
9 1 -4 42.6942 5.89637 2
9 1 -4 42.2595 6.99830 7
-9 1 4 28.5989 5.93023 11
-9 1 4 26.3157 6.54800 4
9 1 -4 27.1667 5.95726 3
-8 -1 4 225.995 12.5913 3
8 -1 -4 228.753 12.1455 13
-8 -1 4 242.777 14.4357 9
8 -1 -4 232.750 11.6099 2
8 -1 -4 231.790 12.9922 3
8 -1 -4 235.390 12.9378 7
8 1 -4 231.951 11.9826 2
8 1 -4 225.967 13.0514 3
-8 1 4 232.044 14.1425 9
-8 1 4 225.787 12.7982 3
-8 1 4 219.544 12.8023 11
8 1 -4 227.355 12.1688 7
7 -1 -4 69.2566 5.84664 2
7 -1 -4 79.2747 5.68040 13
7 -1 -4 78.6622 6.44753 3
-7 -1 4 72.6366 7.30076 9
7 -1 -4 79.4757 6.08341 7
-7 -1 4 68.8381 6.35734 11
7 -1 -4 76.3650 6.25237 6
-7 -1 4 67.3355 6.04378 3
-7 -1 4 66.9838 6.41626 7
-7 1 4 75.9667 6.64573 11
7 1 -4 79.1560 5.11989 7
-7 1 4 75.3149 6.46286 3
-7 1 4 69.9526 7.27558 9
7 1 -4 70.4256 5.17053 2
7 1 -4 74.3804 6.06504 13
7 1 -4 75.8467 6.68767 3
6 -1 -4 64.7073 5.31060 7
-6 -1 4 57.7133 5.32661 11
-6 -1 4 57.1591 4.96484 3
6 -1 -4 58.1769 4.99089 2
-6 -1 4 69.3364 6.29132 9
6 -1 -4 61.8798 5.06706 13
6 -1 -4 68.6877 5.72817 3
-6 1 4 59.8403 5.58216 3
-6 1 4 59.3963 5.62086 11
-6 1 4 67.4968 6.09641 9
6 1 -4 61.3184 5.21636 13
6 1 -4 62.4115 4.26265 2
6 1 -4 63.9589 5.45696 3
5 -1 -4 360.289 17.5912 2
5 -1 -4 390.206 17.9973 3
5 -1 -4 385.728 18.3239 7
5 -1 -4 379.443 18.7222 6
-5 -1 4 395.341 19.8482 9
-5 -1 4 371.685 17.6812 3
5 -1 -4 389.530 17.8144 8
-5 -1 4 377.838 17.7798 11
5 -1 -4 386.464 17.3303 13
-5 -1 4 385.285 17.6685 3
-5 1 4 351.828 17.7565 11
5 1 -4 363.507 17.3368 13
5 1 -4 371.069 17.6995 3
-5 1 4 391.424 17.9116 3
-5 1 4 393.097 19.7821 9
4 -1 -4 13.5588 2.35351 3
4 -1 -4 10.2609 2.01491 6
4 -1 -4 6.94959 1.53574 13
-4 -1 4 13.1437 2.72336 9
4 -1 -4 12.0986 2.19053 2
4 -1 -4 9.32373 2.40078 8
-4 -1 4 10.1840 2.08533 3
-4 -1 4 10.8740 2.10388 11
-4 -1 4 9.51914 2.10362 3
-4 1 4 9.16618 2.01680 9
-4 1 4 4.59352 2.16514 7
-4 1 4 10.5273 2.81287 11
-4 1 4 5.83680 2.19825 3
4 1 -4 9.93970 2.18908 13
-4 1 4 10.6127 2.17597 3
3 -1 -4 426.390 19.6539 3
3 -1 -4 446.283 19.0718 13
3 -1 -4 421.874 19.4973 3
3 -1 -4 434.353 20.3313 7
-3 -1 4 440.119 19.4052 3
-3 -1 4 458.600 21.6946 9
3 -1 -4 410.097 21.6433 9
-3 -1 4 433.671 19.4397 3
3 -1 -4 430.307 20.9107 6
3 -1 -4 432.736 19.6614 2
3 -1 -4 423.268 18.7470 12
3 -1 -4 410.526 19.4455 8
3 -1 -4 408.928 19.5131 11
-3 -1 4 460.230 19.4118 11
-3 -1 4 431.669 19.5746 8
-3 -1 4 438.856 19.2835 13
-3 1 4 453.088 18.9606 12
3 1 -4 419.959 19.3693 11
3 1 -4 388.498 19.1973 3
-3 1 4 426.035 19.4183 8
-3 1 4 412.186 21.5607 9
-3 1 4 445.616 19.6580 3
-3 1 4 422.533 20.3650 7
3 1 -4 428.611 19.4154 3
3 1 -4 419.412 21.6244 9
3 1 -4 423.134 19.1136 13
-3 1 4 428.692 19.1550 13
-3 1 4 448.934 19.5841 11
3 1 -4 449.496 19.8208 8
-3 1 4 439.541 19.7146 3
2 -1 -4 32.5125 2.66438 7
-2 -1 4 33.1506 2.59301 11
2 -1 -4 35.9699 2.88178 3
2 -1 -4 28.7894 2.91211 2
2 -1 -4 36.1973 2.60652 13
2 -1 -4 27.5267 3.05196 8
-2 -1 4 40.5593 2.91538 9
-2 -1 4 33.3558 2.84138 13
-2 -1 4 34.1920 2.59690 3
-2 -1 4 32.7597 2.90997 8
2 -1 -4 36.8888 2.97831 9
2 -1 -4 28.9362 2.91483 11
-2 -1 4 32.5027 2.56534 3
2 -1 -4 34.5533 2.62672 12
2 -1 -4 35.3008 3.03660 6
2 -1 -4 32.1376 3.02453 3
2 1 -4 30.8336 2.64409 3
2 1 -4 33.4665 2.49131 3
2 1 -4 26.5339 2.56583 11
-2 1 4 38.0816 3.15077 7
-2 1 4 35.2337 3.14248 12
2 1 -4 24.2817 3.05377 6
2 1 -4 39.3265 2.71378 13
-2 1 4 33.2132 2.70155 2
-2 1 4 31.2217 2.98416 6
-2 1 4 32.4343 2.85197 3
2 1 -4 36.6375 2.92375 1
2 1 -4 34.6328 2.94040 9
-2 1 4 30.3968 2.82393 11
2 1 -4 31.4032 2.37183 7
-2 1 4 37.7739 2.80436 9
-2 1 4 34.0175 2.82951 13
-2 1 4 40.5131 3.06661 3
-1 -1 4 133.648 5.65851 10
1 -1 -4 122.334 7.07603 6
1 -1 -4 127.520 7.09661 9
1 -1 -4 130.078 6.77419 3
1 -1 -4 125.131 6.69107 11
-1 -1 4 138.426 7.03528 9
1 -1 -4 128.016 6.70616 2
-1 -1 4 129.534 6.30082 3
-1 -1 4 136.220 6.74120 8
1 -1 -4 132.623 6.93714 7
-1 -1 4 127.650 6.14246 1
1 -1 -4 136.183 6.43916 13
1 -1 -4 134.864 6.46171 12
-1 -1 4 137.891 6.40018 11
1 -1 -4 131.341 6.77298 3
1 -1 -4 117.572 6.59666 8
-1 -1 4 131.476 6.40778 3
-1 1 4 123.277 6.65541 3
1 1 -4 133.144 6.49213 13
-1 1 4 128.968 6.60841 11
1 1 -4 129.786 6.73461 8
1 1 -4 128.456 6.38927 3
1 1 -4 124.097 6.22989 3
1 1 -4 133.436 6.28967 1
1 1 -4 119.864 7.15736 6
-1 1 4 129.028 7.05421 9
-1 1 4 130.955 7.15888 6
-1 1 4 128.623 6.60253 2
1 1 -4 128.287 6.35964 11
1 1 -4 131.953 7.02387 9
-1 1 4 128.457 6.53027 12
-1 1 4 140.043 6.90892 3
-1 1 4 129.256 6.59650 8
0 -1 4 298.919 14.7923 6
0 -1 -4 291.163 13.7218 8
0 -1 4 280.475 13.3547 3
0 -1 -4 295.076 14.8631 9
0 -1 4 312.713 13.3262 11
0 -1 -4 290.932 13.2210 12
0 -1 4 302.481 12.0867 10
0 -1 -4 291.952 13.7747 3
0 -1 4 303.019 12.7831 1
0 -1 -4 296.860 13.7218 3
0 -1 -4 285.843 13.7976 2
0 -1 -4 309.715 14.8278 6
0 -1 4 305.608 13.7463 8
0 -1 4 300.978 13.3555 3
0 1 -4 301.168 13.3937 3
0 1 -4 278.530 13.3757 13
0 1 4 295.405 13.6750 8
0 1 -4 293.191 12.1112 10
0 1 4 299.714 13.7902 2
0 1 4 295.197 13.6169 11
0 1 4 306.328 13.7165 11
0 1 4 283.176 14.7220 6
0 1 -4 283.055 13.7059 2
0 1 -4 302.113 14.8328 6
0 1 4 282.531 13.2001 12
0 1 -4 291.968 13.7172 8
0 1 4 300.781 14.8386 9
0 1 -4 301.782 14.6975 9
0 1 -4 293.143 13.3579 3
0 1 -4 291.765 13.2675 11
0 1 4 289.634 13.7031 3
0 1 4 290.079 13.7968 3
-1 -1 -4 33.0293 2.77993 11
-1 -1 -4 34.8276 3.12081 2
1 -1 4 34.5210 2.76675 12
-1 -1 -4 39.3179 3.64002 4
-1 -1 -4 30.6569 3.09690 3
1 -1 4 38.5467 2.66019 3
1 -1 4 40.4204 2.11937 5
-1 -1 -4 38.3437 3.36180 6
-1 -1 -4 41.6147 3.26416 8
-1 -1 -4 33.4111 2.88593 3
1 -1 4 37.2831 2.70344 11
1 -1 4 27.8449 3.41283 6
1 -1 4 38.5785 2.49797 11
-1 -1 -4 35.3337 2.81742 12
-1 -1 -4 36.9110 2.81831 9
1 -1 4 39.3949 3.14495 8
1 1 4 25.8922 2.81853 12
1 1 4 34.7672 3.04532 11
-1 1 -4 32.2552 2.83115 7
-1 1 -4 38.1500 2.53712 10
1 1 4 33.8644 2.97133 3
1 1 4 34.8091 3.18447 3
1 1 4 37.7278 2.92300 2
-1 1 -4 35.3850 2.63799 3
1 1 4 32.3978 3.12076 6
1 1 4 34.4236 3.68312 4
1 1 4 37.5301 2.55894 9
-1 1 -4 26.0644 2.94412 8
-1 1 -4 33.9530 3.12047 6
-1 1 -4 31.8219 2.86916 2
-1 1 -4 31.3436 2.61923 3
1 1 4 39.7839 2.79292 11
-1 1 -4 33.6011 2.62097 12
1 1 4 37.2649 2.98515 8
-2 -1 -4 496.372 21.3199 3
-2 -1 -4 465.584 21.2686 2
2 -1 4 479.704 20.7676 3
2 -1 4 474.623 26.3078 4
-2 -1 -4 473.647 21.0619 3
-2 -1 -4 449.883 22.7622 6
2 -1 4 433.093 21.0462 8
2 -1 4 479.686 20.7160 3
-2 -1 -4 486.772 20.4461 12
2 -1 4 492.905 20.2655 12
-2 -1 -4 507.066 26.6075 4
2 -1 4 434.461 22.6329 6
2 -1 4 478.133 20.6006 11
-2 -1 -4 454.480 21.0354 11
-2 1 -4 445.658 21.7640 7
-2 1 -4 424.332 22.5847 6
2 1 4 496.906 21.1965 3
2 1 4 429.915 21.1132 8
-2 1 -4 469.704 21.0919 2
2 1 4 489.631 26.4642 4
-2 1 -4 399.763 20.9800 8
-2 1 -4 441.495 20.5884 11
-2 1 -4 456.127 20.6357 3
-2 1 -4 500.830 20.2967 12
-2 1 -4 489.840 20.8655 3
2 1 4 415.491 20.8484 11
2 1 4 453.607 21.1204 3
-2 1 -4 494.555 26.3650 4
-2 1 -4 424.265 18.7863 10
2 1 4 465.027 21.2693 2
-3 -1 -4 52.4856 5.30776 4
3 -1 4 56.5583 3.72786 11
-3 -1 -4 46.3368 3.74461 11
3 -1 4 56.7657 4.22705 8
3 -1 4 58.7296 3.89120 3
3 -1 4 55.1795 3.71495 2
3 -1 4 50.1566 3.68277 3
-3 -1 -4 58.3823 4.35144 6
-3 -1 -4 47.7774 4.71594 12
-3 -1 -4 54.7459 3.92763 3
3 1 4 53.9016 4.36819 3
-3 1 -4 53.2531 3.48786 11
3 1 4 49.2629 3.83523 3
-3 1 -4 49.9574 3.85135 2
-3 1 -4 57.5667 4.46707 6
-3 1 -4 49.1090 4.71282 4
-3 1 -4 47.8150 3.99061 3
-3 1 -4 51.8033 4.14874 12
3 1 4 59.7136 4.83492 8
3 1 4 56.1746 4.00210 2
-3 1 -4 59.4546 3.57474 3
4 -1 4 740.137 32.4074 3
-4 -1 -4 729.780 31.7363 12
4 -1 4 733.753 32.2530 3
-4 -1 -4 738.259 41.3302 4
4 -1 4 738.171 32.8501 8
-4 -1 -4 706.509 32.6081 11
-4 -1 -4 706.206 35.1296 6
4 -1 4 763.529 32.5718 2
-4 -1 -4 731.937 32.5450 3
4 -1 4 761.548 32.1125 11
-4 1 -4 728.670 32.1368 3
4 1 4 738.072 33.0067 8
-4 1 -4 739.972 35.0811 6
-4 1 -4 764.313 32.2241 11
4 1 4 625.430 32.7255 2
-4 1 -4 717.517 31.6213 12
-4 1 -4 716.562 32.5650 2
-4 1 -4 721.193 41.2009 4
4 1 4 738.597 32.8233 3
4 1 4 686.177 32.5556 3
5 -1 4 79.3531 6.68117 8
-5 -1 -4 82.6208 6.37857 11
5 -1 4 90.1370 6.00147 3
-5 -1 -4 93.2475 6.92001 12
5 -1 4 85.6736 5.23520 2
-5 -1 -4 86.9077 7.62818 4
5 -1 4 77.8043 5.42162 3
-5 -1 -4 88.2431 5.90204 3
-5 -1 -4 78.3527 5.82367 6
-5 1 -4 84.8528 6.58189 12
5 1 4 77.3686 6.76742 8
5 1 4 84.1907 5.63143 2
-5 1 -4 79.7050 5.32298 3
-5 1 -4 83.1799 7.10870 4
-5 1 -4 86.4711 5.79021 11
-5 1 -4 80.4959 5.58294 2
5 1 4 88.4186 5.80623 3
-5 1 -4 85.5330 5.75798 6
6 -1 4 9.62575 2.70017 2
6 -1 4 13.2217 3.79153 3
6 -1 4 8.20228 2.91530 3
-6 -1 -4 7.69924 3.73940 12
-6 -1 -4 6.69956 2.54823 6
-6 -1 -4 10.6745 3.17094 3
-6 -1 -4 7.92766 3.80371 11
6 -1 4 10.0482 3.75347 8
-6 -1 -4 8.73019 3.84283 4
-6 1 -4 10.0519 3.76956 11
-6 1 -4 7.23595 3.48025 4
6 1 4 10.1907 2.73304 2
-6 1 -4 11.3930 2.98113 3
-6 1 -4 6.05347 3.11942 2
-6 1 -4 8.51884 3.92084 12
6 1 4 9.06533 3.70595 8
6 1 4 13.6619 3.36545 3
-6 1 -4 7.53484 2.89078 6
7 -1 4 126.576 10.1065 8
-7 -1 -4 116.863 9.44661 12
-7 -1 -4 129.180 9.80463 11
-7 -1 -4 139.730 8.62674 3
7 -1 4 127.569 7.53416 2
7 -1 4 121.366 9.78138 3
7 -1 4 125.272 8.15775 3
-7 -1 -4 140.383 8.63563 6
-7 -1 -4 115.919 10.9304 4
-7 1 -4 115.043 7.94911 2
-7 1 -4 132.148 9.13593 11
-7 1 -4 150.221 8.45160 6
7 1 4 121.098 7.91080 2
7 1 4 121.717 9.76596 8
-7 1 -4 113.282 10.5083 4
-7 1 -4 132.478 8.32766 3
7 1 4 135.964 8.46326 3
-8 -1 -4 25.7210 4.62127 6
8 -1 4 24.8198 5.20126 3
-8 -1 -4 30.6401 5.26377 3
-8 -1 -4 25.7189 6.73972 11
8 -1 4 30.7880 7.02174 8
8 1 4 24.9230 4.41245 2
-8 1 -4 14.2730 5.48190 4
-8 1 -4 26.0900 6.08781 11
-8 1 -4 27.3622 4.26597 6
-8 1 -4 25.5501 5.51182 3
8 1 4 26.9492 5.55066 3
-9 -1 -4 31.0425 6.59474 3
-9 -1 -4 52.1536 10.7528 4
-9 -1 -4 52.7731 6.93243 6
-9 -1 -4 46.3272 8.20701 12
9 -1 4 64.5586 7.98163 3
-9 -1 -4 38.8913 8.48811 11
-9 1 -4 44.8972 8.08417 11
-9 1 -4 44.1276 8.06482 4
9 1 4 30.4914 7.70361 8
9 1 4 31.9325 5.41176 2
-9 1 -4 36.6099 7.93194 12
9 1 4 43.3579 6.68140 3
-9 1 -4 39.5178 6.84218 3
-9 1 -4 43.5796 7.37491 6
10 -1 4 34.4362 10.0679 8
-10 -1 -4 32.9291 9.56116 11
-10 -1 -4 33.7924 6.65442 6
10 -1 4 59.1488 9.09550 3
-10 -1 -4 12.2130 9.51550 12
-10 -1 -4 36.7625 7.99902 3
-10 -1 -4 22.4000 8.50323 4
10 1 4 32.4464 8.21627 3
10 1 4 27.3834 5.98297 2
10 1 4 27.4556 9.20625 8
-10 1 -4 19.6354 8.64443 4
-10 1 -4 27.9759 9.13228 12
-10 1 -4 34.6643 9.40388 11
-10 1 -4 39.9993 8.10025 3
-10 1 -4 33.1966 6.57242 6
11 -2 -4 10.1041 8.67913 7
-11 -2 4 13.0740 7.55414 3
11 -2 -4 9.57242 7.70505 3
11 -2 -4 6.86757 7.42551 13
-11 -2 4 10.2214 7.64151 11
-11 2 4 8.43332 8.56769 3
-11 2 4 7.32348 8.34075 9
-11 2 4 11.5632 8.76930 11
11 2 -4 10.8825 7.90171 13
-11 2 4 13.3358 9.15533 4
11 2 -4 12.9281 8.54292 3
10 -2 -4 23.0431 7.01784 3
10 -2 -4 16.2187 7.66312 7
-10 -2 4 11.1850 6.49831 11
-10 -2 4 24.5262 6.06087 3
10 -2 -4 12.9584 6.10665 13
10 2 -4 26.2069 6.98711 13
10 2 -4 31.7151 5.86659 2
-10 2 4 6.56387 6.50398 3
-10 2 4 14.7642 7.05146 9
-10 2 4 -1.2223 6.78354 4
10 2 -4 21.6936 6.98921 3
-10 2 4 16.5214 7.20510 11
-9 -2 4 56.4563 6.86782 3
9 -2 -4 51.1717 7.81465 7
9 -2 -4 47.2676 6.95754 3
9 2 -4 50.8567 8.15507 3
-9 2 4 43.0309 7.26211 9
-9 2 4 30.7290 6.53363 11
-9 2 4 37.1023 6.55646 3
9 2 -4 45.9067 6.91895 13
8 -2 -4 2.15176 3.79825 7
8 -2 -4 3.19737 4.44962 3
8 -2 -4 2.03580 3.80382 13
-8 -2 4 4.34796 3.59186 3
-8 -2 4 3.00925 4.83788 11
8 2 -4 -2.5874 3.35738 2
-8 2 4 -1.4404 4.01419 11
8 2 -4 -0.1216 4.49219 3
-8 2 4 1.85987 4.32399 3
-8 2 4 -6.3567 4.03090 9
8 2 -4 2.76207 3.45154 13
7 -2 -4 38.9794 5.88802 7
-7 -2 4 36.1009 5.90536 11
7 -2 -4 48.1944 4.96199 13
-7 2 4 42.8808 5.76898 3
7 2 -4 41.9711 5.07362 13
-6 -2 4 347.091 16.1830 3
6 -2 -4 356.668 16.6877 3
6 -2 -4 343.222 17.0861 7
6 -2 -4 295.892 15.8448 2
6 -2 -4 351.294 15.9201 13
-6 -2 4 319.855 16.3204 11
-6 2 4 333.433 16.6147 3
6 2 -4 366.233 16.6299 3
6 2 -4 335.559 16.0833 13
-6 2 4 348.251 16.5747 11
6 2 -4 349.015 16.1664 2
-6 2 4 310.397 20.3765 4
5 -2 -4 325.859 14.6780 13
5 -2 -4 287.777 14.7665 2
-5 -2 4 321.522 14.9119 3
-5 -2 4 305.774 14.8764 3
-5 -2 4 320.598 15.1011 11
5 -2 -4 320.204 15.8724 7
5 -2 -4 313.949 15.3440 3
-5 2 4 321.382 15.3570 3
5 2 -4 309.399 14.9132 2
-5 2 4 297.909 16.5829 9
5 2 -4 321.896 14.7769 13
5 2 -4 328.214 15.0689 3
-5 2 4 305.970 15.2719 11
4 -2 -4 2.08362 2.09383 7
4 -2 -4 1.93960 1.51412 13
-4 -2 4 3.36404 1.97768 3
-4 -2 4 2.15776 1.80758 3
4 -2 -4 -0.7162 1.94139 2
-4 -2 4 0.87487 1.55349 11
4 -2 -4 1.85805 2.23137 3
-4 2 4 3.68576 2.53282 11
4 2 -4 3.84166 1.91611 13
-4 2 4 0.11854 2.15352 3
-4 2 4 4.32714 2.06036 13
4 2 -4 3.84785 1.95348 3
-4 2 4 -1.3002 1.87802 9
3 -2 -4 935.214 39.0182 3
-3 -2 4 926.638 38.3627 11
3 -2 -4 884.391 37.7395 13
3 -2 -4 875.495 37.3480 12
-3 -2 4 864.056 38.4239 3
-3 -2 4 900.564 38.4300 3
3 -2 -4 834.462 38.6934 3
3 -2 -4 865.304 40.4140 7
3 -2 -4 863.465 39.0350 2
3 -2 -4 852.195 41.3714 6
-3 2 4 817.492 38.6807 3
-3 2 4 924.148 38.6906 11
-3 2 4 836.299 37.7899 13
3 2 -4 852.346 38.3147 3
3 2 -4 872.294 38.4690 3
3 2 -4 885.404 37.9112 13
-3 2 4 931.546 39.0921 3
-3 2 4 886.685 38.9858 2
-3 2 4 885.110 43.0732 9
3 2 -4 817.001 38.2538 11
2 -2 -4 677.282 28.3612 12
2 -2 -4 685.858 28.5636 13
-2 -2 4 706.156 28.9342 11
2 -2 -4 633.579 32.6262 9
2 -2 -4 646.712 29.6071 2
-2 -2 4 665.944 28.9130 3
-2 -2 4 671.934 29.3969 8
2 -2 -4 675.271 31.4505 6
2 -2 -4 662.418 29.3597 11
2 -2 -4 653.977 29.1691 8
-2 -2 4 670.724 28.9760 3
2 -2 -4 650.752 29.4173 3
-2 -2 4 635.534 28.7699 13
2 -2 -4 676.688 30.6928 7
2 -2 -4 658.673 29.5164 3
-2 2 4 672.808 29.3064 11
2 2 -4 649.966 28.8455 3
-2 2 4 672.020 29.6482 3
2 2 -4 621.899 27.5822 1
-2 2 4 670.238 29.1448 8
-2 2 4 630.422 28.4479 12
-2 2 4 676.913 31.4639 6
2 2 -4 647.050 29.4500 8
-2 2 4 637.656 30.7544 7
-2 2 4 660.821 29.5842 2
2 2 -4 661.854 28.8816 11
2 2 -4 602.341 32.3176 9
2 2 -4 692.351 28.7727 13
-2 2 4 671.752 32.6216 9
-2 2 4 648.203 29.4279 3
-2 2 4 636.189 28.6134 13
2 2 -4 645.557 28.9404 3
-1 -2 4 197.303 9.34576 8
1 -2 -4 198.617 10.3091 9
1 -2 -4 207.640 8.98014 13
-1 -2 4 196.274 8.87233 1
-1 -2 4 212.802 8.89162 11
-1 -2 4 194.383 8.46213 5
1 -2 -4 174.976 9.21764 8
1 -2 -4 184.467 9.98646 6
-1 -2 4 179.540 8.20631 10
1 -2 -4 185.765 9.51114 3
1 -2 -4 196.258 9.61141 3
1 -2 -4 204.405 9.09811 12
1 -2 -4 192.018 9.43482 2
1 -2 -4 209.904 9.91055 7
-1 2 4 203.387 11.5830 4
-1 2 4 165.392 9.28735 3
1 2 -4 185.882 9.92914 9
1 2 -4 158.522 8.72544 11
-1 2 4 198.132 9.37810 2
-1 2 4 178.104 9.39069 11
-1 2 4 206.694 10.1834 9
1 2 -4 208.647 9.14349 13
1 2 -4 196.832 9.18150 7
-1 2 4 186.175 9.18721 8
-1 2 4 178.230 9.27747 11
1 2 -4 178.984 10.1035 6
-1 2 4 171.518 9.85117 6
-1 2 4 208.990 9.71469 3
-1 2 4 194.448 9.17013 12
1 2 -4 164.298 9.22164 8
0 -2 4 712.080 28.6059 10
0 -2 -4 730.015 32.1136 3
0 -2 -4 743.277 40.2195 4
0 -2 4 655.962 28.9430 5
0 -2 -4 736.501 32.3139 2
0 -2 -4 749.432 35.3839 9
0 2 4 774.457 35.2876 9
0 2 4 671.768 31.9261 3
0 2 4 690.810 31.7910 8
0 2 4 712.851 31.8569 11
0 2 4 776.233 40.1669 4
0 2 -4 726.311 34.9327 9
0 2 -4 713.514 32.7919 7
0 2 4 647.500 31.7226 11
-1 -2 -4 1985.00 86.9992 11
1 -2 4 2105.83 79.5621 5
-1 -2 -4 1819.01 87.4855 3
-1 -2 -4 2029.31 97.0918 9
-1 -2 -4 2036.48 84.4496 12
1 -2 4 2058.05 82.2589 1
-1 -2 -4 2059.50 87.4710 8
-1 -2 -4 2038.97 87.5495 3
1 -2 4 2008.57 78.7311 10
-1 -2 -4 1900.14 110.557 4
1 -2 4 2165.88 87.5155 8
-1 -2 -4 2100.57 94.3278 6
1 2 4 1924.18 87.5392 3
-1 2 -4 2063.10 94.2661 6
-1 2 -4 2065.10 90.7492 7
-1 2 -4 1994.45 88.3008 2
1 2 4 1788.70 110.418 4
-1 2 -4 1951.61 87.3652 8
1 2 4 1941.66 96.9846 9
1 2 4 1984.91 87.5410 3
1 2 4 1982.78 94.3088 6
1 2 4 2120.32 87.5717 8
1 2 4 2124.58 87.0811 11
1 2 4 1980.49 88.5546 2
2 -2 4 125.418 6.42738 8
2 -2 4 121.687 5.23573 5
2 -2 4 113.852 7.65280 4
2 -2 4 115.727 6.91889 6
-2 -2 -4 103.341 6.81698 6
-2 -2 -4 118.636 8.11069 4
-2 -2 -4 113.609 6.33125 3
-2 -2 -4 94.7390 6.40235 12
-2 2 -4 122.522 6.54721 7
-2 2 -4 114.677 6.72817 6
-2 2 -4 109.096 7.56553 4
-2 2 -4 113.299 5.93787 12
2 2 4 121.692 6.52857 9
2 2 4 100.216 8.00012 4
2 2 4 123.752 6.57882 8
-2 2 -4 110.843 5.21723 5
2 2 4 116.818 6.61967 3
-2 2 -4 110.417 6.03300 2
2 2 4 102.963 6.33958 2
-2 2 -4 112.958 6.43958 8
2 2 4 116.860 6.51316 3
-3 -2 -4 36.8723 3.71119 6
-3 -2 -4 40.2748 4.07500 11
3 -2 4 42.0074 2.57920 5
-3 -2 -4 32.4757 3.70491 3
3 -2 4 38.7158 3.67621 8
-3 -2 -4 55.2552 4.51433 12
-3 -2 -4 50.9422 5.28466 4
3 -2 4 32.3560 4.39652 6
-3 2 -4 37.6530 2.58806 5
3 2 4 52.4173 4.10892 3
-3 2 -4 50.7248 3.91455 12
3 2 4 42.0367 4.63157 3
3 2 4 45.1383 3.59148 9
3 2 4 45.0332 3.65009 2
-3 2 -4 37.3322 4.03588 6
-3 2 -4 45.6573 3.54893 2
-3 2 -4 49.0218 4.68351 4
-4 -2 -4 53.5386 4.53626 3
-4 -2 -4 48.5007 5.86287 4
-4 -2 -4 54.9660 4.34805 6
-4 -2 -4 55.4692 5.05489 12
4 -2 4 50.8442 3.78545 11
4 -2 4 58.6362 5.50363 8
4 -2 4 47.9031 3.93877 3
-4 -2 -4 53.2805 4.90616 11
4 2 4 44.9205 4.40534 3
-4 2 -4 54.5214 3.66983 11
4 2 4 47.7998 5.46921 8
4 2 4 49.8344 4.13812 2
-4 2 -4 53.1207 3.05999 5
-4 2 -4 56.5958 4.99785 6
-4 2 -4 52.8844 4.16894 2
4 2 4 48.3799 4.15214 9
-4 2 -4 51.2011 5.13330 12
-5 -2 -4 142.646 11.1859 4
5 -2 4 149.992 8.19698 11
-5 -2 -4 158.871 9.14188 6
-5 -2 -4 144.267 9.27174 12
-5 -2 -4 164.990 8.85785 3
5 -2 4 161.005 9.34945 8
-5 -2 -4 151.937 9.46013 11
5 -2 4 147.617 8.13291 3
5 -2 4 157.537 8.48376 3
-5 2 -4 150.132 8.12280 2
-5 2 -4 162.668 9.07295 6
-5 2 -4 144.113 10.3118 4
5 2 4 157.908 9.48258 8
-5 2 -4 148.237 9.15847 12
5 2 4 157.032 8.91971 3
-5 2 -4 161.232 8.19799 11
-5 2 -4 161.139 8.04678 3
5 2 4 162.165 8.92274 9
5 2 4 147.985 8.55641 2
6 -2 4 61.2643 6.08884 3
6 -2 4 60.1370 6.95990 8
-6 -2 -4 60.1288 6.68691 11
-6 -2 -4 52.7740 5.67128 3
-6 -2 -4 63.0104 7.55100 4
6 -2 4 57.9337 5.32908 3
-6 -2 -4 61.7598 5.37561 6
-6 -2 -4 67.8486 7.30146 12
6 2 4 65.0837 5.72628 3
-6 2 -4 58.1874 5.06991 3
-6 2 -4 62.5443 7.15579 12
6 2 4 57.8325 5.31099 2
-6 2 -4 64.0342 6.21900 11
6 2 4 49.9359 5.14014 9
-6 2 -4 55.1154 6.44644 4
-6 2 -4 66.5139 5.38136 6
-7 -2 -4 7.41969 3.12638 6
-7 -2 -4 9.14876 5.17036 11
7 -2 4 10.6901 3.66282 3
-7 -2 -4 5.52512 5.06941 12
-7 -2 -4 1.16641 4.03831 3
7 -2 4 5.99463 4.69213 3
7 -2 4 7.70369 4.97076 8
-7 2 -4 4.73477 3.56839 3
7 2 4 7.35556 3.56700 2
-7 2 -4 1.69062 3.18108 4
-7 2 -4 7.02190 4.56180 11
-7 2 -4 4.94334 2.94056 6
7 2 4 1.72185 4.09468 3
-7 2 -4 1.04361 4.77919 12
8 -2 4 189.073 13.2580 8
-8 -2 -4 187.740 11.3613 6
-8 -2 -4 188.011 13.2176 11
-8 -2 -4 206.233 11.6350 3
8 -2 4 196.553 11.2124 3
-8 2 -4 180.467 13.1946 12
-8 2 -4 166.248 14.2229 4
8 2 4 173.337 11.1561 2
8 2 4 184.462 11.7826 3
-8 2 -4 169.644 11.2904 3
-8 2 -4 189.486 11.2248 6
-8 2 -4 183.806 12.2740 11
8 2 4 186.411 13.2368 8
9 -2 4 -3.6119 5.45924 3
-9 -2 -4 -0.2510 6.78702 4
-9 -2 -4 -0.2102 5.56068 3
-9 -2 -4 -2.0942 4.59052 6
-9 -2 -4 10.6467 7.44623 11
-9 -2 -4 7.47174 7.71139 12
9 2 4 -0.5014 6.21465 3
-9 2 -4 -0.3143 6.46462 4
-9 2 -4 -0.4670 4.68371 6
9 2 4 1.05787 6.93386 8
-9 2 -4 0.14804 7.08059 12
-9 2 -4 -0.6544 5.82471 3
9 2 4 -2.5785 5.00521 2
-9 2 -4 3.39091 7.12020 11
-10 -2 -4 -13.698 8.59679 4
10 -2 4 13.9422 6.78600 3
10 -2 4 11.8695 9.14392 8
-10 -2 -4 10.3553 9.14079 12
-10 -2 -4 8.69754 5.94517 6
-10 -2 -4 3.83810 9.01179 11
-10 -2 -4 -2.4278 8.12321 3
10 2 4 2.78021 8.32061 8
10 2 4 6.75539 7.84299 3
-10 2 -4 10.1148 9.06887 11
-10 2 -4 4.79035 6.14910 6
-10 2 -4 9.76275 8.58662 12
-10 2 -4 4.35666 7.74866 4
-11 -3 4 13.9739 8.24594 11
-11 -3 4 26.4623 8.05119 3
-11 3 4 11.4658 9.30898 11
-11 3 4 -0.0126 9.46951 4
-11 3 4 10.6569 8.97937 3
-11 3 4 -4.8899 8.04734 9
-10 -3 4 45.9376 8.00592 11
10 -3 -4 64.2429 10.0288 3
10 -3 -4 66.5550 9.67788 7
10 -3 -4 55.5840 7.95773 13
-10 -3 4 57.1879 9.12589 3
-10 3 4 51.6744 8.48002 3
10 3 -4 36.9875 8.71150 3
-10 3 4 78.8619 11.6986 9
10 3 -4 83.7315 9.61372 13
-10 3 4 72.2006 10.6287 11
-9 -3 4 10.9612 5.39768 3
9 -3 -4 12.9955 5.70859 3
-9 -3 4 10.1660 5.81773 11
9 -3 -4 14.9089 5.67143 7
-9 3 4 8.81196 6.00070 3
-9 3 4 24.0733 6.68132 9
-9 3 4 25.7654 6.60976 11
9 3 -4 10.8084 6.68448 3
9 3 -4 14.8905 5.09206 13
8 -3 -4 29.6792 5.47540 3
8 -3 -4 32.7010 5.46497 13
-8 -3 4 37.2061 6.00509 3
8 -3 -4 27.1868 5.14758 7
-8 3 4 38.2848 6.46998 11
8 3 -4 39.5636 6.03233 13
-8 3 4 30.2706 5.66258 3
8 3 -4 45.1605 5.66696 2
8 3 -4 30.0965 6.02543 3
-8 3 4 23.2504 5.22040 9
7 -3 -4 5.26294 3.25676 13
-7 -3 4 6.69107 3.46700 3
-7 -3 4 3.64733 3.97664 11
7 -3 -4 -1.0132 4.06406 7
7 -3 -4 1.24285 3.84256 3
-7 3 4 4.40139 3.66651 9
-7 3 4 11.3000 4.57818 11
-7 3 4 2.78437 4.02369 3
7 3 -4 2.50570 4.32886 3
7 3 -4 8.06665 3.16834 2
7 3 -4 6.93063 3.52275 13
6 -3 -4 2.75450 3.18029 3
6 -3 -4 -1.4428 2.81433 2
6 -3 -4 5.29792 2.77688 13
-6 -3 4 4.09077 3.27753 11
-6 -3 4 2.07098 2.73623 3
-6 -3 4 2.81807 2.91548 3
6 -3 -4 -0.0786 2.99744 7
-6 3 4 -0.2448 3.73126 11
-6 3 4 4.47966 3.64210 3
6 3 -4 0.83080 2.26581 2
-6 3 4 3.13193 3.17060 9
6 3 -4 3.79530 3.22685 3
6 3 -4 0.97715 2.78687 13
-6 3 4 2.78769 4.42247 4
-5 -3 4 180.580 9.88270 11
-5 -3 4 193.275 9.58755 3
-5 -3 4 165.557 9.36862 3
5 -3 -4 173.736 9.28855 13
5 -3 -4 180.596 10.1723 3
5 -3 -4 172.834 10.4808 7
5 -3 -4 173.388 9.52339 2
5 3 -4 167.658 9.54589 2
-5 3 4 173.727 10.0956 11
-5 3 4 191.717 11.0601 9
5 3 -4 186.238 9.50448 13
5 3 -4 198.177 9.83972 3
-5 3 4 206.919 12.7826 4
-5 3 4 198.802 10.2602 3
-4 -3 4 34.9606 3.61250 3
-4 -3 4 37.9305 3.34977 3
4 -3 -4 31.6274 4.05873 2
4 -3 -4 30.8871 4.37568 3
4 -3 -4 30.0655 2.92165 13
4 -3 -4 26.9530 3.86708 7
-4 -3 4 26.6096 3.61148 5
-4 -3 4 26.0215 3.71679 11
4 3 -4 28.5792 3.07157 2
-4 3 4 31.9050 4.71698 11
-4 3 4 25.3835 3.54484 13
4 3 -4 32.1420 3.76373 13
-4 3 4 31.9897 4.97622 9
-4 3 4 18.4172 4.07768 3
-4 3 4 28.9041 3.37992 2
4 3 -4 37.6339 3.63161 3
3 -3 -4 1726.33 70.3615 13
3 -3 -4 1658.67 72.8670 2
-3 -3 4 1712.54 71.7436 3
-3 -3 4 1783.05 71.4799 11
3 -3 -4 1659.74 72.3992 3
3 -3 -4 1595.36 75.3073 7
-3 -3 4 1682.09 71.7076 3
-3 -3 4 1611.31 66.1266 5
3 -3 -4 1567.64 72.1172 3
3 -3 -4 1618.64 69.6170 12
3 3 -4 1529.48 72.8975 2
-3 3 4 1586.49 70.4143 13
3 3 -4 1692.71 71.7430 3
-3 3 4 1652.91 71.8486 11
3 3 -4 1575.63 70.6010 13
-3 3 4 1723.74 72.8546 2
3 3 -4 1562.35 71.3275 11
-3 3 4 1662.84 80.3905 9
-3 3 4 1762.30 72.5760 3
-2 -3 4 257.710 11.1653 5
2 -3 -4 239.719 12.0385 2
2 -3 -4 261.600 12.5909 6
2 -3 -4 237.382 11.8195 12
2 -3 -4 248.955 12.8164 7
-2 -3 4 216.390 11.6021 13
2 -3 -4 227.210 12.0396 3
-2 -3 4 274.181 11.4716 11
2 -3 -4 256.281 12.2990 3
2 -3 -4 250.768 11.2199 13
-2 3 4 248.186 12.5438 6
-2 3 4 231.096 15.2252 4
-2 3 4 265.671 12.2823 11
2 3 -4 251.439 11.4113 11
-2 3 4 246.471 11.9574 2
2 3 -4 253.582 11.5508 13
-2 3 4 238.215 13.4382 9
-2 3 4 235.189 12.2969 3
1 -3 -4 271.293 11.9800 13
-1 -3 4 261.065 11.9984 1
1 -3 -4 264.149 12.6330 12
1 -3 -4 263.263 13.4894 7
1 -3 -4 262.132 13.4323 6
1 -3 -4 259.686 12.9033 3
-1 -3 4 268.472 12.5784 8
1 -3 -4 250.020 12.8818 3
-1 -3 4 280.017 11.6804 5
1 3 -4 279.438 12.3024 13
-1 3 4 237.698 13.3419 6
-1 3 4 261.312 14.0022 9
-1 3 4 267.769 12.9541 3
-1 3 4 269.311 16.2051 4
-1 3 4 273.776 12.7958 2
0 -3 4 162.750 7.28245 5
0 -3 -4 159.272 8.28623 3
0 -3 -4 158.208 8.67652 6
0 -3 4 161.225 7.33682 10
0 -3 -4 154.692 8.04004 8
0 -3 -4 151.268 8.39972 3
0 -3 -4 160.806 8.94011 7
0 -3 4 151.776 7.77378 1
0 -3 -4 154.033 10.3195 4
0 -3 4 163.692 8.01629 8
0 -3 -4 148.506 9.31548 9
0 3 -4 161.915 7.86851 13
0 3 4 154.676 7.94379 8
0 3 4 163.938 8.60786 11
0 3 -4 161.723 8.83752 6
0 3 -4 156.616 8.09957 8
0 3 4 148.821 8.70881 6
0 3 -4 155.862 7.87924 7
0 3 4 154.927 8.79775 9
0 3 4 147.005 10.4795 4
0 3 4 150.936 8.35599 3
-1 -3 -4 35.4549 4.60211 3
-1 -3 -4 39.6836 4.28562 12
-1 -3 -4 37.1529 3.91408 6
-1 -3 -4 46.1379 4.35113 9
1 -3 4 35.0520 3.57798 8
1 -3 4 28.8332 3.02395 1
1 -3 4 27.6306 3.46323 10
-1 -3 -4 36.9100 4.62927 4
-1 -3 -4 33.2807 3.48650 3
-1 -3 -4 29.7858 4.38202 7
-1 -3 -4 29.2349 3.87737 11
1 -3 4 36.8900 2.80376 5
-1 -3 -4 30.1779 3.94699 8
1 3 4 35.9079 3.96851 11
1 3 4 34.8677 2.86372 5
-1 3 -4 37.9005 3.32240 7
1 3 4 43.4054 3.42288 8
-1 3 -4 35.6515 3.71767 4
-1 3 -4 39.4637 3.70352 6
1 3 4 34.0749 3.51882 9
1 3 4 32.3415 3.12269 2
1 3 4 27.2495 4.06614 3
-1 3 -4 34.3400 3.64893 8
-1 3 -4 35.7272 2.71500 5
-2 -3 -4 158.227 8.03761 12
-2 -3 -4 121.426 7.11721 13
-2 -3 -4 155.886 9.99336 4
2 -3 4 149.031 7.69232 8
-2 -3 -4 136.631 8.18434 6
-2 -3 -4 142.794 8.12661 11
2 -3 4 140.852 6.75003 5
2 -3 4 148.502 7.11689 10
-2 -3 -4 133.970 7.78019 3
2 -3 4 146.688 7.89193 7
-2 3 -4 131.777 6.73220 5
2 3 4 148.040 7.88570 2
2 3 4 163.962 8.20479 3
2 3 4 130.072 8.20398 8
-2 3 -4 158.476 7.97410 9
-2 3 -4 154.174 9.58236 4
-2 3 -4 151.692 7.63643 2
-2 3 -4 117.986 7.55249 8
2 3 4 159.799 8.53714 9
-2 3 -4 132.333 8.17433 6
2 3 4 152.091 6.56492 5
-3 -3 -4 20.6751 3.04164 6
3 -3 4 16.3722 3.16080 7
-3 -3 -4 17.3685 3.80089 4
-3 -3 -4 16.8144 2.95598 3
3 -3 4 21.2409 2.90096 8
3 -3 4 19.1450 2.28528 5
-3 -3 -4 15.9121 3.11975 12
-3 -3 -4 11.7076 2.68956 11
3 -3 4 15.6794 2.70166 10
3 3 4 18.7515 3.19759 9
3 3 4 17.8334 2.72461 2
3 3 4 16.0724 3.35341 8
3 3 4 16.6128 3.15760 3
-3 3 -4 20.4962 2.93690 6
-3 3 -4 14.3019 3.30573 12
-3 3 -4 18.8266 2.55237 5
-3 3 -4 20.0760 3.03531 2
-4 -3 -4 270.944 13.6567 3
4 -3 4 264.029 14.0990 7
-4 -3 -4 271.165 14.4532 6
-4 -3 -4 280.165 17.5176 4
-4 -3 -4 259.319 13.9114 11
-4 -3 -4 276.463 13.6196 12
4 3 4 277.212 14.6647 9
4 3 4 276.658 13.6736 2
-4 3 -4 281.155 13.4647 12
4 3 4 267.232 13.7549 3
-4 3 -4 278.944 16.8070 4
-4 3 -4 269.041 11.8073 5
-4 3 -4 282.256 14.3341 6
4 3 4 272.887 14.1272 8
-4 3 -4 261.348 12.9585 2
5 -3 4 8.12454 3.33741 7
-5 -3 -4 6.59977 2.61309 3
-5 -3 -4 6.63837 3.64599 11
-5 -3 -4 13.9763 4.13750 12
5 -3 4 14.2623 3.87949 8
-5 -3 -4 7.61516 2.55073 6
-5 -3 -4 9.49007 3.78430 4
5 3 4 10.9666 2.98702 3
5 3 4 9.53358 3.10741 2
-5 3 -4 8.08569 3.74199 12
-5 3 -4 7.74587 3.22511 6
-5 3 -4 10.5933 2.44371 5
5 3 4 11.2849 3.18079 9
5 3 4 10.9597 3.79219 8
-6 -3 -4 7.89596 4.55785 4
6 -3 4 13.8645 4.46862 8
6 -3 4 9.44981 3.91325 11
6 -3 4 9.69558 3.61964 3
-6 -3 -4 4.49230 4.52012 11
-6 -3 -4 8.24067 4.20212 12
-6 -3 -4 10.4210 3.16794 6
-6 -3 -4 8.67114 3.68099 3
-6 3 -4 8.25303 4.84067 12
6 3 4 11.5697 4.31385 9
-6 3 -4 7.60728 2.96441 5
6 3 4 5.48779 3.44797 2
-6 3 -4 9.21976 2.95736 6
-6 3 -4 12.0736 3.35029 3
-6 3 -4 10.4724 2.93065 11
6 3 4 13.3147 3.91556 3
7 -3 4 101.111 7.22091 3
-7 -3 -4 94.8624 7.10918 6
7 -3 4 93.0205 9.05003 8
-7 -3 -4 94.3809 7.95313 3
-7 -3 -4 92.7261 9.31594 11
-7 3 -4 101.812 7.34690 6
-7 3 -4 89.4750 8.03006 11
7 3 4 87.9048 9.78947 9
-7 3 -4 83.9549 9.63520 12
7 3 4 95.3059 7.93017 2
-7 3 -4 82.1135 7.25439 3
-7 3 -4 101.505 8.61090 4
7 3 4 94.6887 8.14181 3
-8 -3 -4 14.2741 7.06734 12
-8 -3 -4 11.5402 4.17858 6
8 -3 4 18.2898 5.45147 3
-8 -3 -4 25.7425 5.72575 3
-8 -3 -4 11.1510 6.35556 11
-8 3 -4 16.7408 5.94635 11
8 3 4 11.4187 6.40936 9
-8 3 -4 21.6797 5.50907 3
-8 3 -4 13.4099 7.08102 12
8 3 4 4.08480 4.67305 2
-8 3 -4 7.30897 5.04701 4
-8 3 -4 15.6773 4.33834 6
8 3 4 18.4250 5.92348 3
9 -3 4 68.6636 9.33092 3
-9 -3 -4 81.4785 8.72286 6
-9 -3 -4 84.9064 13.1211 12
-9 -3 -4 57.4518 10.4844 4
-9 -3 -4 71.9922 11.6390 11
-9 -3 -4 65.6625 10.1089 3
-9 3 -4 86.8627 13.1190 12
9 3 4 78.2394 13.0006 9
9 3 4 57.7406 8.49729 3
-9 3 -4 76.9174 11.0379 11
-9 3 -4 77.8514 10.9554 4
10 -4 -4 6.58041 7.19005 3
10 -4 -4 12.1252 7.53053 13
-10 -4 4 6.24037 8.24226 11
10 -4 -4 0.27511 8.38714 7
-10 -4 4 2.79458 7.53857 5
-10 -4 4 10.1523 7.10971 3
10 4 -4 5.81727 7.20123 13
10 4 -4 -3.6699 8.16784 3
-10 4 4 21.5507 8.65346 9
-10 4 4 -0.1939 9.08747 11
10 4 -4 21.0947 6.71326 2
-10 4 4 11.1126 8.25247 3
9 -4 -4 116.197 10.8625 7
9 -4 -4 94.1349 10.4900 3
-9 -4 4 107.996 9.59810 3
-9 -4 4 82.3976 10.2619 11
-9 -4 4 90.1353 9.93741 5
-9 4 4 104.009 11.0327 3
9 4 -4 83.0155 10.8912 3
9 4 -4 118.785 9.39912 2
-9 4 4 98.1958 11.9351 9
9 4 -4 104.175 10.1676 13
-9 4 4 107.599 10.3995 11
8 -4 -4 1.20354 4.75749 3
8 -4 -4 7.77054 4.99260 7
-8 -4 4 4.67024 4.45854 3
-8 -4 4 -1.0483 4.56241 5
8 -4 -4 -2.4551 4.56276 13
-8 4 4 8.90835 5.90042 11
-8 4 4 5.50302 5.76529 3
8 4 -4 -0.5183 5.84705 3
-8 4 4 9.85419 5.51191 9
8 4 -4 -1.8232 4.20298 13
-7 -4 4 17.5835 4.79537 11
7 -4 -4 16.2564 4.45564 13
-7 -4 4 35.3309 5.60356 3
7 -4 -4 18.7666 5.26928 7
7 -4 -4 21.6519 4.93241 3
-7 -4 4 18.7959 4.38204 5
7 4 -4 24.4022 5.35917 3
7 4 -4 35.4736 5.25448 2
-7 4 4 24.5534 5.84660 11
7 4 -4 34.7904 5.40271 13
-7 4 4 17.9374 4.79229 9
-7 4 4 22.3423 5.37137 3
-7 4 4 34.1937 7.51274 4
-6 -4 4 44.0291 6.15528 11
-6 -4 4 63.4832 5.57897 3
6 -4 -4 57.1741 6.28377 7
6 -4 -4 58.8948 5.30703 13
-6 -4 4 57.8741 5.79917 5
-6 -4 4 37.3637 5.95776 3
6 -4 -4 51.3429 6.36548 3
6 -4 -4 55.2254 5.66049 2
6 4 -4 54.9246 5.28436 2
-6 4 4 55.7520 7.65413 4
-6 4 4 41.3018 6.96196 3
6 4 -4 61.1909 6.31391 3
6 4 -4 51.2492 5.58150 13
-6 4 4 48.6830 6.76338 11
-6 4 4 58.4899 7.31598 9
-5 -4 4 90.1676 6.38512 3
-5 -4 4 102.783 6.30601 3
5 -4 -4 89.7641 5.53924 13
5 -4 -4 90.8219 6.60370 2
5 -4 -4 91.5975 7.47212 7
-5 -4 4 86.4181 6.15024 5
5 -4 -4 97.5160 7.35514 3
-5 -4 4 90.0334 6.86658 11
-5 4 4 101.618 8.33743 9
-5 4 4 105.364 9.26395 4
5 4 -4 96.1688 6.44477 2
-5 4 4 89.7617 5.90390 2
5 4 -4 99.0118 6.68305 3
5 4 -4 97.1171 6.65117 13
-5 4 4 102.726 7.49321 11
-5 4 4 94.1010 7.63434 3
4 -4 -4 82.2015 6.41052 7
-4 -4 4 82.6248 5.49048 3
4 -4 -4 86.4929 6.53832 3
-4 -4 4 93.1052 6.21876 11
-4 -4 4 97.9257 5.65528 3
4 -4 -4 93.7936 5.11827 13
-4 -4 4 86.2796 5.63152 5
4 4 -4 89.6558 5.94829 13
-4 4 4 88.2268 6.64616 11
-4 4 4 93.9894 5.78293 2
4 4 -4 90.0439 5.88454 2
4 4 -4 99.0547 5.89831 3
-4 4 4 82.5838 6.98196 3
-4 4 4 71.7606 5.55664 13
-4 4 4 89.0939 7.22398 9
-3 -4 4 729.340 29.5598 11
3 -4 -4 676.872 29.1821 12
3 -4 -4 658.218 30.5389 3
-3 -4 4 650.899 27.8267 5
3 -4 -4 628.682 31.5817 7
3 -4 -4 684.522 30.4442 3
-3 4 4 592.527 30.3758 3
3 4 -4 629.379 29.4163 11
-3 4 4 690.776 30.2076 11
3 4 -4 695.020 30.4908 2
-3 4 4 643.962 33.6342 9
-3 4 4 678.846 30.2196 2
3 4 -4 687.678 29.3250 13
-2 -4 4 763.629 32.2263 5
2 -4 -4 774.908 33.9078 12
2 -4 -4 721.993 35.0757 3
-2 -4 4 872.360 34.2476 11
2 -4 -4 757.700 35.2477 3
2 -4 -4 795.983 36.8072 7
2 -4 -4 808.647 37.2681 6
2 4 -4 753.812 34.1239 11
-2 4 4 782.889 35.0464 11
2 4 -4 789.654 35.3876 2
-2 4 4 762.726 39.0802 9
-2 4 4 798.971 35.4277 3
2 4 -4 811.364 34.0473 13
-2 4 4 727.751 37.2383 6
-2 4 4 806.069 35.3204 2
1 -4 -4 51.6035 4.46172 6
-1 -4 4 54.3392 4.12010 5
1 -4 -4 52.6144 4.80764 3
1 -4 -4 62.6255 5.38359 7
1 -4 -4 45.8968 5.09878 12
-1 -4 4 52.9900 4.14086 1
1 -4 -4 58.7425 4.78714 3
1 4 -4 52.5298 3.97104 2
-1 4 4 45.7278 4.86137 11
-1 4 4 59.2651 4.23463 2
1 4 -4 53.7496 3.90007 13
-1 4 4 58.1021 5.50878 9
-1 4 4 60.0574 5.19407 3
0 -4 4 185.017 8.81413 1
0 -4 4 163.587 8.44772 10
0 -4 4 166.003 8.44347 5
0 -4 -4 188.011 9.85670 7
0 -4 -4 164.242 9.14157 3
0 -4 4 175.561 8.83964 8
0 -4 -4 177.408 9.24388 12
0 -4 -4 157.069 9.54543 6
0 4 -4 158.740 8.65533 2
0 4 4 167.618 9.02690 2
0 4 -4 170.841 9.54752 6
0 4 -4 151.386 8.69238 7
0 4 4 180.476 9.59592 3
0 4 -4 190.933 8.58869 13
0 4 -4 185.556 10.8666 4
0 4 4 170.717 10.3444 9
0 4 4 170.874 9.46692 11
1 -4 4 155.445 7.64826 5
-1 -4 -4 165.927 8.78183 6
1 -4 4 163.154 8.21624 7
1 -4 4 153.124 7.79807 10
-1 -4 -4 144.421 8.78666 11
-1 -4 -4 153.054 8.47756 3
-1 -4 -4 146.425 9.14110 7
-1 -4 -4 151.278 10.8427 4
1 -4 4 146.687 8.04358 1
-1 -4 -4 142.355 8.70741 12
1 4 4 146.681 8.34027 2
-1 4 -4 150.655 10.2139 4
-1 4 -4 167.664 8.39811 7
-1 4 -4 152.370 8.22705 8
-1 4 -4 148.702 8.81506 9
-1 4 -4 144.839 7.88027 13
1 4 4 156.254 8.77698 11
-1 4 -4 160.172 7.93058 2
1 4 4 148.316 9.51806 9
1 4 4 164.047 8.58241 8
-2 -4 -4 104.848 7.11824 11
-2 -4 -4 107.119 7.72512 7
-2 -4 -4 104.195 5.93568 13
-2 -4 -4 113.837 8.82260 4
2 -4 4 116.410 6.37164 5
2 -4 4 116.382 6.97899 7
2 -4 4 104.798 6.54191 10
-2 -4 -4 107.625 7.26344 12
-2 -4 -4 115.659 7.07197 6
-2 -4 -4 111.938 7.01060 3
-2 4 -4 115.996 7.28737 6
2 4 4 113.305 7.58728 8
-2 4 -4 115.195 7.08223 9
-2 4 -4 113.405 8.72018 4
2 4 4 110.285 6.91505 2
2 4 4 119.445 5.97492 5
2 4 4 118.995 7.34364 3
2 4 4 113.116 7.88374 9
3 -4 4 27.5262 3.66488 5
-3 -4 -4 29.3264 3.88874 6
3 -4 4 30.7066 3.60075 10
-3 -4 -4 31.3286 4.13155 3
-3 -4 -4 32.8922 4.79227 7
-3 -4 -4 28.3230 4.29814 11
3 -4 4 33.3847 4.20202 7
-3 -4 -4 31.8558 5.07632 4
-3 -4 -4 27.9431 4.33393 12
-3 4 -4 33.0273 4.36820 6
3 4 4 29.8317 4.35539 8
3 4 4 30.2647 4.64554 3
-3 4 -4 33.1286 4.06433 9
3 4 4 25.7731 3.97883 2
-3 4 -4 36.8723 6.17376 4
-3 4 -4 26.5980 3.99261 2
3 4 4 34.6707 3.19321 5
3 4 4 25.7568 4.17266 9
-4 -4 -4 281.408 14.1820 3
-4 -4 -4 294.343 14.3308 12
-4 -4 -4 299.099 15.0399 6
4 -4 4 270.630 12.8833 10
4 -4 4 274.345 14.6207 7
-4 -4 -4 269.294 17.8219 4
-4 -4 -4 265.635 14.5214 11
4 4 4 275.620 14.3965 3
4 4 4 266.906 12.0280 5
-4 4 -4 328.186 18.4964 4
4 4 4 281.868 15.8339 9
-4 4 -4 275.525 14.6060 6
4 4 4 275.578 14.2341 2
4 4 4 276.849 14.7168 8
-4 4 -4 238.919 13.2140 2
-4 4 -4 278.732 14.0580 12
-5 -4 -4 111.039 7.51935 3
-5 -4 -4 107.935 7.41835 6
-5 -4 -4 103.214 8.58938 12
-5 -4 -4 101.044 10.0709 4
5 -4 4 109.493 8.08306 7
-5 4 -4 104.335 8.77925 12
5 4 4 109.926 9.27356 9
5 4 4 122.574 8.98536 8
-5 4 -4 107.128 7.80781 6
5 4 4 105.602 7.75121 3
5 4 4 112.083 7.65128 2
-6 -4 -4 6.18975 3.85017 3
-6 -4 -4 1.95061 4.83182 12
-6 -4 -4 5.40372 2.67867 6
6 4 4 6.31963 4.82374 8
-6 4 -4 4.21391 5.26474 12
6 4 4 5.28168 4.17457 3
-6 4 -4 4.55574 2.96764 6
6 4 4 4.19653 5.14784 9
6 4 4 1.48877 3.84043 2
-7 -4 -4 2.32260 4.53009 3
-7 -4 -4 -1.5489 3.25617 6
7 -4 4 2.79774 5.18136 7
7 4 4 2.73362 4.96515 3
7 4 4 1.66731 5.69556 9
7 4 4 5.34669 5.49161 8
-7 4 -4 -3.9001 6.18444 12
-8 -4 -4 99.8994 8.91359 6
8 -4 4 80.1737 10.7939 7
-8 -4 -4 93.1233 12.6824 12
-8 -4 -4 80.8924 11.4586 11
-8 -4 -4 95.2676 9.80242 3
-8 -4 -4 93.4375 13.6093 4
-8 4 -4 90.4716 12.9753 12
8 4 4 105.888 12.2896 8
8 4 4 103.478 12.5540 9
8 4 4 92.3505 10.5275 3
8 4 4 80.0483 9.70610 2
9 -4 4 4.84122 6.44863 3
9 -4 4 -5.4477 8.38307 7
-9 -4 -4 -8.0377 6.03306 6
-9 -4 -4 -9.8596 9.39309 4
-9 -4 -4 -2.3478 7.17411 3
-9 -4 -4 3.42008 8.81501 11
-9 -4 -4 1.57528 8.53637 12
-9 4 -4 -6.9340 7.19737 4
9 4 4 10.9998 7.06191 2
-9 4 -4 -2.3947 9.20951 12
9 4 4 10.1894 8.54213 8
9 4 4 4.96084 8.27031 9
-9 4 -4 -1.5556 8.29662 11
9 4 4 -6.3585 7.61846 3
-9 -5 4 22.1363 7.43325 5
-9 -5 4 19.7469 7.74719 11
9 -5 -4 13.1751 7.09530 3
9 -5 -4 9.64021 7.70115 7
-9 -5 4 20.8384 6.85279 3
9 -5 -4 6.55553 6.77317 13
9 5 -4 31.4285 6.78522 2
-9 5 4 24.4697 8.89734 11
-9 5 4 21.1600 8.83149 9
-9 5 4 11.6083 7.91632 3
9 5 -4 28.6686 7.27860 13
9 5 -4 11.4315 7.92182 3
8 -5 -4 99.6879 9.52292 13
-8 -5 4 110.005 9.97806 5
8 -5 -4 135.466 10.9187 7
-8 -5 4 116.727 11.3026 11
-8 -5 4 116.477 9.73263 3
8 -5 -4 112.919 11.0716 3
-8 5 4 128.971 11.4436 11
-8 5 4 140.627 12.8313 9
-8 5 4 86.9292 12.0027 3
8 5 -4 140.227 9.85931 2
8 5 -4 110.395 11.7228 3
8 5 -4 118.264 10.0629 13
7 -5 -4 55.5471 8.83438 7
7 -5 -4 69.1252 8.45028 3
-7 -5 4 56.5677 7.59943 11
-7 -5 4 69.7060 7.29473 3
-7 -5 4 55.0690 7.33517 5
7 -5 -4 55.6810 7.02527 13
-7 5 4 57.1122 8.24844 3
7 5 -4 75.2236 7.40154 13
7 5 -4 67.9367 8.79490 3
-7 5 4 76.5288 8.71552 11
-7 5 4 63.7977 9.89088 9
-6 -5 4 47.6074 6.09338 3
-6 -5 4 57.3191 6.96869 11
6 -5 -4 46.4937 5.52030 13
6 -5 -4 56.1241 6.95724 3
-6 -5 4 42.0643 5.91368 5
6 5 -4 48.2537 7.00173 3
6 5 -4 61.5355 6.47721 13
-6 5 4 52.9576 7.89552 3
-6 5 4 50.1132 6.98286 11
-6 5 4 62.6418 9.31652 9
-6 5 4 58.7146 11.3475 4
-5 -5 4 189.679 10.9267 11
-5 -5 4 197.522 10.3049 3
-5 -5 4 177.449 10.1667 5
5 -5 -4 178.990 11.1076 3
-5 -5 4 166.953 10.5999 3
-5 5 4 195.999 11.4392 11
5 5 -4 182.583 10.5551 3
-5 5 4 201.837 11.7936 3
-5 5 4 193.903 10.1340 2
5 5 -4 191.140 10.6411 13
-5 5 4 201.826 12.7861 9
-5 5 4 206.036 14.8355 4
-4 -5 4 1.29638 2.35178 5
-4 -5 4 4.88734 3.34954 11
4 -5 -4 3.81385 3.80329 7
4 -5 -4 8.28330 3.29161 3
-4 5 4 0.57337 3.68972 9
-4 5 4 2.70801 3.88990 11
4 5 -4 7.98416 3.13119 3
-4 5 4 3.07618 3.93884 3
4 5 -4 6.70242 3.08692 13
-4 5 4 6.75758 2.59562 2
4 5 -4 6.93037 2.60272 2
-3 -5 4 29.3534 4.17176 5
3 -5 -4 35.4454 4.67622 12
-3 -5 4 29.3634 3.60120 11
3 -5 -4 23.9455 3.97744 3
3 -5 -4 38.5808 4.92156 7
3 5 -4 32.8623 4.37256 13
-3 5 4 32.2035 4.91780 3
-3 5 4 33.9444 4.81266 11
-3 5 4 25.2154 4.39346 9
3 5 -4 31.0291 4.05265 2
3 5 -4 27.7836 3.79590 11
-3 5 4 27.3144 4.04214 2
2 -5 -4 7.92242 3.09669 12
2 -5 -4 9.10142 2.93054 3
-2 -5 4 12.6477 2.96370 5
2 -5 -4 13.0880 3.38384 7
2 -5 -4 9.19609 2.60011 6
-2 5 4 6.42570 3.00718 6
-2 5 4 11.1266 3.49881 11
2 5 -4 9.29872 2.37518 2
-2 5 4 10.1801 2.62724 2
-2 5 4 12.6771 3.59743 3
-2 5 4 12.2275 3.51200 9
2 5 -4 11.4640 2.54676 13
1 -5 -4 32.3469 4.16558 3
1 -5 -4 24.2356 4.34430 6
-1 -5 4 28.3492 3.82447 5
1 -5 -4 24.7453 4.34092 7
1 -5 -4 32.2099 4.33267 12
-1 -5 4 27.8227 3.80555 1
-1 5 4 26.8567 4.25453 3
-1 5 4 31.8307 3.76319 2
-1 5 4 25.9129 4.28895 11
1 5 -4 23.6390 3.21663 13
1 5 -4 22.9981 3.51097 2
-1 5 4 26.9174 4.28548 9
0 -5 4 189.615 9.68771 7
0 -5 -4 199.856 10.4620 6
0 -5 -4 191.137 10.3658 12
0 -5 4 192.053 9.50897 5
0 -5 -4 202.052 11.2097 7
0 -5 4 185.112 9.74106 1
0 -5 -4 184.275 10.3213 3
0 5 4 200.737 10.9881 3
0 5 -4 187.562 9.85529 2
0 5 4 182.542 10.5073 11
0 5 -4 185.428 11.4029 9
0 5 4 174.395 11.6526 9
0 5 -4 181.105 9.85252 7
0 5 4 188.050 10.2001 2
0 5 -4 199.023 9.37294 13
-1 -5 -4 3.02703 3.52558 12
1 -5 4 4.34831 2.58378 1
-1 -5 -4 6.88965 2.36592 3
-1 -5 -4 8.18268 3.46535 7
1 -5 4 8.62618 2.95909 7
-1 -5 -4 7.81328 2.48768 6
1 -5 4 8.25486 2.77059 10
1 -5 4 6.84045 2.48739 5
-1 5 -4 6.18503 2.52764 6
1 5 4 5.41506 2.82829 2
-1 5 -4 6.02662 3.59440 4
-1 5 -4 5.15868 2.11151 2
-1 5 -4 4.40395 3.34429 9
1 5 4 3.76388 3.19453 3
-1 5 -4 9.25264 2.71003 13
1 5 4 4.95125 3.21521 9
1 5 4 10.1659 3.11641 11
-2 -5 -4 281.837 17.8586 4
-2 -5 -4 278.039 14.7255 7
-2 -5 -4 266.459 13.8634 3
2 -5 4 262.975 13.1517 1
-2 -5 -4 266.202 14.4340 6
2 -5 4 260.975 12.6829 10
2 -5 4 270.092 13.9127 7
2 -5 4 274.191 12.6142 5
-2 -5 -4 265.125 14.1748 11
-2 -5 -4 293.376 13.9536 12
2 5 4 271.711 15.6554 9
2 5 4 268.861 13.9375 2
2 5 4 259.654 14.2097 8
2 5 4 294.645 14.3628 3
-2 5 -4 271.008 13.1766 2
2 5 4 252.411 14.0888 11
-2 5 -4 249.564 13.2458 13
-2 5 -4 288.481 15.2765 9
-2 5 -4 270.451 14.1757 6
-2 5 -4 268.562 17.5189 4
3 -5 4 13.3399 3.47897 10
-3 -5 -4 18.0351 4.86006 4
-3 -5 -4 18.4614 4.25601 11
-3 -5 -4 22.5805 5.31392 7
-3 -5 -4 21.9689 3.83831 3
-3 -5 -4 22.3596 4.45747 12
3 -5 4 26.7744 3.68153 5
3 -5 4 27.5939 4.31091 7
-3 -5 -4 16.0174 2.96829 6
3 5 4 18.3813 4.33260 9
3 5 4 26.4796 4.49795 3
-3 5 -4 31.5604 3.90933 2
-3 5 -4 30.5604 5.97837 4
-3 5 -4 18.4225 4.03898 9
-3 5 -4 22.4813 3.29716 6
3 5 4 19.3172 4.48684 8
-4 -5 -4 217.411 13.2964 7
-4 -5 -4 213.046 11.9758 3
-4 -5 -4 223.580 12.2429 6
-4 -5 -4 217.524 15.6736 4
-4 -5 -4 221.657 12.6383 12
-4 -5 -4 200.503 12.5690 11
4 -5 4 220.424 12.3345 7
-4 5 -4 245.291 16.3021 4
4 5 4 216.235 12.9630 8
4 5 4 220.116 12.4418 3
-4 5 -4 211.554 12.2967 9
-4 5 -4 223.549 10.7897 2
4 5 4 229.831 14.0869 9
-4 5 -4 206.674 11.9541 6
-4 5 -4 178.968 11.0420 2
-5 -5 -4 17.3768 3.74791 6
5 -5 4 7.91217 4.12333 7
-5 -5 -4 17.1180 5.36258 12
-5 -5 -4 16.8215 4.03977 3
-5 -5 -4 19.6950 5.63110 7
5 5 4 21.7684 4.57577 3
-5 5 -4 27.1882 6.07013 12
5 5 4 23.4231 5.55418 8
5 5 4 21.5454 5.61508 9
-6 -5 -4 -3.4448 5.47126 12
-6 -5 -4 1.09772 4.20484 3
-6 -5 -4 0.02322 3.78051 6
6 5 4 0.06831 4.39449 2
6 5 4 0.68473 5.08306 8
6 5 4 3.66709 5.81210 9
6 5 4 -4.1500 4.98953 3
-6 5 -4 -1.4555 6.05873 12
-7 -5 -4 69.7897 10.4970 11
-7 -5 -4 74.8045 8.03138 6
7 -5 4 73.3524 9.46644 7
-7 -5 -4 92.9447 9.25235 3
-7 -5 -4 88.7389 12.4356 4
7 5 4 75.7161 11.2714 8
7 5 4 78.2603 9.89379 3
7 5 4 76.7281 9.02471 2
-7 5 -4 63.3036 9.65384 12
7 5 4 76.2130 13.0215 9
-8 -5 -4 -0.3355 6.76276 3
-8 -5 -4 4.17020 7.29844 11
8 -5 4 5.35284 7.43365 7
-8 -5 -4 13.3548 8.94835 4
-8 -5 -4 -5.9723 5.44471 6
-8 -5 -4 10.4496 8.32789 12
8 5 4 9.93888 7.96360 3
-8 5 -4 -7.9850 9.22013 12
8 5 4 -1.8571 6.47234 2
8 5 4 -6.7779 8.19625 9
8 5 4 9.72751 7.86589 8
-8 -6 4 3.40689 5.97466 3
-8 -6 4 2.58130 5.71246 5
8 -6 -4 5.33211 6.73810 7
8 -6 -4 6.74557 6.71310 13
8 -6 -4 14.6614 6.86980 3
-8 -6 4 0.75727 7.50413 11
-8 6 4 0.30753 13.0671 4
8 6 -4 1.45578 6.91678 13
8 6 -4 9.30580 4.93296 2
-8 6 4 8.63662 8.35034 3
-8 6 4 5.02995 8.91443 11
8 6 -4 4.17015 8.01437 3
-8 6 4 0.22715 8.25974 9
7 -6 -4 20.4132 7.09107 7
-7 -6 4 15.3413 5.86017 5
7 -6 -4 8.16923 6.20894 3
-7 -6 4 14.4906 5.48028 3
-7 6 4 27.4411 7.82235 9
-7 6 4 6.75651 7.42199 3
7 6 -4 11.7281 6.97402 3
7 6 -4 15.9750 5.30903 2
7 6 -4 13.7296 6.29074 13
-7 6 4 19.1791 7.24324 11
-7 6 4 30.2412 11.2846 4
6 -6 -4 133.013 10.6200 3
-6 -6 4 146.918 9.55676 3
-6 -6 4 147.177 9.82779 5
-6 -6 4 140.522 10.4936 11
-6 6 4 134.851 11.2256 11
6 6 -4 155.719 9.70856 13
-6 6 4 120.506 13.6703 9
6 6 -4 139.358 10.5152 3
-6 6 4 136.687 11.6255 3
5 -6 -4 55.0079 7.64015 3
-5 -6 4 63.4496 6.81256 5
-5 -6 4 44.8883 6.11248 11
-5 6 4 74.9344 8.73094 11
-5 6 4 57.1992 5.81207 2
5 6 -4 65.6984 6.48928 13
-5 6 4 58.4107 9.29355 9
5 6 -4 53.5641 7.18057 3
-5 6 4 49.0522 7.20194 3
4 -6 -4 36.6004 4.61099 10
-4 -6 4 28.7520 4.51893 11
4 -6 -4 26.0360 4.92297 3
-4 6 4 31.0503 6.29367 11
-4 6 4 31.0974 5.08375 2
4 6 -4 42.8078 5.16620 2
4 6 -4 32.1737 4.83171 13
-4 6 4 36.2892 5.99729 3
3 -6 -4 98.7040 7.84835 3
3 -6 -4 101.184 8.05018 7
-3 -6 4 100.147 6.50104 11
3 6 -4 105.121 6.95531 13
-3 6 4 103.870 8.59030 11
-3 6 4 93.7948 7.00725 2
3 6 -4 113.480 7.27398 2
-3 6 4 103.745 8.45364 3
2 -6 -4 59.3487 6.91919 12
2 -6 -4 57.6081 6.48095 7
2 -6 -4 61.3347 6.03736 3
2 6 -4 62.7764 5.39156 13
-2 6 4 57.7760 5.75801 2
-2 6 4 54.1207 6.87257 3
-2 6 4 64.3329 6.88234 11
2 6 -4 60.5252 5.45430 2
1 -6 -4 5.62971 3.79431 7
-1 -6 4 -2.6803 2.66871 1
1 -6 -4 4.49100 3.79616 12
-1 -6 4 0.91801 2.67471 5
1 -6 -4 4.57723 2.74819 3
1 -6 -4 4.96987 2.53235 6
1 6 -4 5.85654 3.80489 9
1 6 -4 0.15786 2.38007 13
1 6 -4 1.99071 2.54810 2
-1 6 4 4.64048 2.78975 2
-1 6 4 4.73865 3.90238 9
-1 6 4 -0.8396 3.84388 11
-1 6 4 4.55220 3.66164 3
0 -6 4 35.0575 4.63700 1
0 -6 -4 27.1455 4.68901 12
0 -6 -4 29.7294 4.78751 3
0 -6 -4 25.2313 4.82513 7
0 -6 -4 26.8855 4.27442 6
0 -6 4 38.4440 4.86910 5
0 6 4 25.3960 5.04835 9
0 6 -4 21.1461 3.37517 2
0 6 4 31.8580 4.74715 2
0 6 4 18.1164 4.10622 11
0 6 -4 21.2744 4.96347 9
-1 -6 -4 159.689 10.3380 7
1 -6 4 152.214 8.89772 5
1 -6 4 156.422 9.04621 1
-1 -6 -4 152.159 10.0585 12
1 -6 4 150.551 9.01077 7
-1 -6 -4 159.959 9.39645 6
-1 -6 -4 152.755 9.17415 3
1 6 4 155.934 11.3364 9
1 6 4 148.060 9.95441 3
-1 6 -4 148.460 8.52548 2
-1 6 -4 161.027 12.4140 4
-1 6 -4 152.575 9.26921 6
1 6 4 152.576 10.1853 11
-1 6 -4 141.417 11.0823 9
1 6 4 141.525 9.36391 2
-2 -6 -4 12.7478 3.79530 3
-2 -6 -4 19.6202 5.08578 7
2 -6 4 10.0053 3.36700 1
2 -6 4 15.9194 3.42515 5
-2 -6 -4 12.7769 3.39029 6
2 -6 4 18.2132 4.22943 7
-2 -6 -4 12.1080 4.87024 11
-2 -6 -4 10.0805 4.77753 12
-2 6 -4 15.5640 3.98313 13
-2 6 -4 18.5033 4.79713 9
2 6 4 15.2319 4.84669 11
-2 6 -4 15.9507 3.14564 2
-2 6 -4 24.3483 5.89377 4
2 6 4 16.9476 5.16228 9
2 6 4 9.13567 4.83304 8
2 6 4 17.3664 4.59554 3
-2 6 -4 19.4536 3.55794 6
2 6 4 16.7112 3.98233 2
-3 -6 -4 80.4845 6.78608 6
-3 -6 -4 80.5177 7.92055 7
3 -6 4 74.5999 6.61151 5
-3 -6 -4 69.8053 8.67912 12
3 -6 4 75.7852 7.07099 7
-3 -6 -4 70.4160 10.1575 4
-3 -6 -4 80.4094 6.88872 3
-3 6 -4 83.6145 11.1706 4
-3 6 -4 84.6325 5.74185 2
-3 6 -4 77.8854 6.06372 6
3 6 4 70.8388 8.76086 8
3 6 4 73.7523 7.55483 3
3 6 4 74.2592 9.23207 9
-3 6 -4 73.3774 8.91038 9
4 -6 4 100.951 8.01908 10
-4 -6 -4 115.081 8.02987 6
-4 -6 -4 99.9578 9.72436 7
4 -6 4 98.8657 8.56896 7
-4 -6 -4 102.528 8.23796 3
-4 -6 -4 112.020 9.66819 12
4 6 4 91.9337 8.90834 3
-4 6 -4 105.005 13.3333 4
4 6 4 109.026 9.99619 8
-4 6 -4 92.6550 6.61685 2
4 6 4 96.7360 10.8461 9
-4 6 -4 101.949 9.95891 9
-5 -6 -4 65.4189 9.76902 7
-5 -6 -4 88.3305 7.71976 6
-5 -6 -4 82.8291 9.87004 11
-5 -6 -4 73.0208 8.13447 3
-5 -6 -4 78.4804 10.0775 12
5 -6 4 72.5753 8.48144 10
5 6 4 75.6336 8.97926 3
-5 6 -4 90.4323 9.62757 9
5 6 4 93.4712 8.72052 2
5 6 4 96.1349 10.7339 8
-6 -6 -4 4.04292 7.12088 7
-6 -6 -4 6.97533 6.46774 11
6 -6 4 8.70172 5.66064 7
-6 -6 -4 16.6047 7.30367 4
-6 -6 -4 6.77424 5.12322 6
-6 -6 -4 15.4321 5.95975 3
6 6 4 14.9653 7.18339 8
-6 6 -4 11.4851 8.55262 12
6 6 4 22.0165 5.83563 2
6 6 4 12.3685 6.47845 3
-6 6 -4 9.40970 6.52161 9
-7 -6 -4 2.90166 7.08527 11
7 -6 4 -1.1213 6.10664 7
-7 -6 -4 -12.416 7.54966 4
-7 -6 -4 12.1963 6.66773 3
-7 -6 -4 3.72028 7.91070 12
-7 -6 -4 -2.4261 5.02590 6
7 6 4 -4.8135 7.62815 3
7 6 4 6.12862 8.40775 9
-7 6 -4 -16.746 8.92415 12
7 6 4 1.23474 7.70144 8
7 6 4 4.57685 5.85743 2
-7 -7 4 -6.9367 7.58558 11
-7 -7 4 0.99728 6.24033 5
7 -7 -4 3.74034 7.97453 7
7 -7 -4 6.72853 7.37010 3
-7 -7 4 -2.3966 6.11929 3
-7 7 4 -5.7184 9.21531 9
7 7 -4 1.79197 6.71751 13
-7 7 4 4.43431 8.39447 3
7 7 -4 3.18950 5.67634 2
-7 7 4 8.42161 8.39383 11
-6 -7 4 -2.7836 5.40613 5
6 -7 -4 -1.8782 5.56709 3
-6 -7 4 -1.2490 6.04113 11
6 -7 -4 3.33859 5.01162 10
6 -7 -4 7.73167 7.23326 7
-6 -7 4 1.28302 5.40873 3
6 7 -4 3.38251 4.65412 2
6 7 -4 -1.2346 6.03310 13
-6 7 4 -6.8302 7.62783 11
-6 7 4 4.94650 7.33340 3
-6 7 4 3.98697 10.3378 4
-6 7 4 -3.6778 7.80435 9
5 -7 -4 51.4565 7.19470 3
-5 -7 4 44.9931 7.03426 11
5 -7 -4 60.3759 9.09981 7
-5 -7 4 43.3509 6.42053 5
5 -7 -4 44.4129 5.72544 10
5 7 -4 57.7600 7.36795 13
-5 7 4 52.5995 7.90477 3
-5 7 4 49.1214 6.51847 2
-5 7 4 68.6001 10.1404 11
5 7 -4 49.0057 7.00374 2
-5 7 4 51.7963 8.63395 9
4 -7 -4 1.20787 4.71522 3
-4 -7 4 -0.5298 4.74511 5
4 -7 -4 5.60203 4.55011 10
4 -7 -4 4.01895 5.95158 7
-4 -7 4 1.75656 4.46986 11
-4 7 4 0.00539 6.47436 11
-4 7 4 0.87249 4.23217 2
-4 7 4 1.32328 5.22567 3
4 7 -4 10.6488 4.46416 13
4 7 -4 5.18725 3.42076 2
-4 7 4 3.44068 6.02716 9
3 -7 -4 194.725 12.2342 3
3 7 -4 199.824 11.1269 13
-3 7 4 216.234 11.7294 2
-3 7 4 193.815 13.1178 11
3 7 -4 186.527 11.4112 2
-3 7 4 197.427 12.9371 3
2 -7 -4 25.0138 6.02395 12
2 -7 -4 37.9254 6.03429 3
-2 7 4 18.7847 6.01166 3
2 7 -4 23.1080 6.49410 9
-2 7 4 25.3790 4.95272 2
2 7 -4 21.5699 4.46847 2
-2 7 4 30.1552 6.36791 11
1 -7 -4 30.2473 5.76116 12
1 -7 -4 19.7100 4.79751 3
1 -7 -4 27.8636 4.78311 6
1 7 -4 19.0355 5.98989 9
-1 7 4 14.4773 5.79683 11
-1 7 4 23.8484 4.49140 2
-1 7 4 22.0868 5.56290 3
1 7 -4 15.9123 3.86913 2
0 -7 -4 11.7824 3.48671 3
0 -7 -4 10.3048 3.57803 6
0 -7 -4 9.84305 4.60275 7
0 -7 -4 17.4012 5.28666 12
0 7 4 1.03333 4.57024 3
0 7 4 3.17440 4.49678 11
0 7 4 2.42444 3.93778 2
0 7 -4 10.6674 4.89343 9
0 7 -4 3.70373 3.24891 2
-1 -7 -4 5.98423 5.23292 12
1 -7 4 4.78374 3.88732 7
-1 -7 -4 2.73792 3.68214 6
-1 -7 -4 -0.4575 4.02173 3
-1 -7 -4 -0.0689 5.03553 7
1 7 4 10.9609 5.47453 11
-1 7 -4 10.0681 6.10294 4
1 7 4 5.12043 4.32525 2
-1 7 -4 7.55742 5.47691 9
-1 7 -4 0.52515 3.13231 2
1 7 4 0.43454 4.65723 3
-1 7 -4 7.26554 3.45583 6
2 -7 4 53.4713 7.00693 7
-2 -7 -4 64.9961 8.41278 7
-2 -7 -4 68.4193 9.22614 12
-2 -7 -4 60.2299 7.16457 6
2 -7 4 68.0979 6.78072 1
-2 -7 -4 55.6592 7.22016 3
-2 7 -4 63.3848 9.69012 9
2 7 4 71.8715 8.57926 11
-2 7 -4 64.9942 5.96843 2
-2 7 -4 69.1859 6.49961 6
-2 7 -4 69.1126 12.3084 4
2 7 4 64.1522 8.37964 3
2 7 4 65.0016 7.35240 2
-3 -7 -4 26.3803 6.31171 7
3 -7 4 19.2684 5.85436 10
-3 -7 -4 29.9528 5.44320 6
3 -7 4 27.3544 5.54402 7
-3 -7 -4 21.7183 5.02349 3
3 -7 4 18.6352 4.97543 1
-3 7 -4 29.3362 6.57118 9
3 7 4 27.8536 6.00584 3
3 7 4 25.7366 7.34865 11
-3 7 -4 29.0020 4.14836 6
-3 7 -4 30.9378 9.01930 4
-3 7 -4 33.0872 5.14103 2
3 7 4 18.4007 7.13030 8
3 7 4 31.7808 5.63824 2
3 7 4 20.0077 7.40792 9
-4 -7 -4 56.3718 9.38212 7
-4 -7 -4 62.8240 9.40119 11
4 -7 4 62.1951 8.02541 1
4 -7 4 81.3211 9.09206 10
-4 -7 -4 60.0073 8.20389 3
-4 -7 -4 77.4849 13.3148 4
-4 -7 -4 70.5254 7.88742 6
4 7 4 64.1557 11.8692 9
-4 7 -4 85.6998 6.11931 2
-4 7 -4 67.1179 11.4148 9
-4 7 -4 81.8931 15.0417 4
4 7 4 63.8972 8.52916 2
4 7 4 60.6675 8.27138 3
4 7 4 70.8297 8.83524 8
-5 -7 -4 12.8966 6.28108 3
5 -7 4 10.6252 6.06932 10
5 -7 4 17.0770 6.12048 7
-5 -7 -4 5.79934 8.25398 4
-5 -7 -4 18.0408 5.13222 6
-5 -7 -4 24.9463 8.06134 11
5 7 4 22.3055 6.45644 2
5 7 4 18.7111 6.95710 3
5 7 4 19.3370 8.49700 9
5 7 4 12.0913 7.44845 8
-6 -7 -4 6.63644 5.27189 6
-6 -7 -4 1.65283 6.61725 3
-6 -7 -4 -3.8024 7.42469 11
-6 -7 -4 -5.1499 9.29945 4
6 7 4 2.28931 8.44338 8
6 7 4 9.60045 6.94641 2
6 7 4 -0.2446 8.03318 3
6 7 4 13.6611 10.2468 9
5 -8 -4 7.82677 6.16963 3
-5 -8 4 5.27957 6.60316 11
5 -8 -4 1.80077 6.13518 10
-5 -8 4 11.3794 6.04352 5
5 -8 -4 -10.137 7.01529 7
-5 8 4 11.3652 5.60063 2
-5 8 4 -3.7770 8.61551 9
-5 8 4 20.3884 9.22926 11
5 8 -4 7.74704 5.22734 2
-4 -8 4 8.40610 5.07324 5
4 -8 -4 8.01856 6.26132 10
4 -8 -4 19.0509 7.26166 7
-4 -8 4 4.47816 5.69073 11
4 -8 -4 11.8775 6.20900 3
4 8 -4 14.3383 8.37516 9
-4 8 4 14.8827 5.80097 2
-4 8 4 10.4413 7.95724 11
4 8 -4 16.4267 5.15631 2
-4 8 4 1.88310 8.36870 9
-4 8 4 7.10893 6.94378 3
-3 -8 4 44.2934 6.72425 5
3 -8 -4 60.4319 8.64394 3
3 -8 -4 47.3785 8.33781 7
3 8 -4 38.8092 9.21524 9
-3 8 4 55.4341 9.20020 11
-3 8 4 54.4034 8.92187 9
-3 8 4 52.4783 7.18632 2
-3 8 4 45.8168 8.86577 3
3 8 -4 48.7656 7.21434 2
2 -8 -4 107.908 11.2687 7
2 -8 -4 98.9842 9.97495 3
-2 -8 4 108.211 9.69671 5
2 8 -4 122.464 9.16536 2
-2 8 4 98.6955 11.6567 11
-2 8 4 134.645 14.0144 9
-2 8 4 110.221 11.7683 3
2 8 -4 116.506 15.0465 9
-2 8 4 125.351 10.0460 2
-1 -8 4 40.4990 5.85791 1
1 -8 -4 50.2043 7.70325 3
1 -8 -4 31.4811 5.66562 6
-1 -8 4 40.0399 6.29906 5
1 -8 -4 43.2908 7.46699 7
1 8 -4 46.5053 8.17140 9
1 8 -4 46.7601 6.67137 2
-1 8 4 44.3171 8.57248 11
-1 8 4 37.6006 6.84404 3
-1 8 4 45.5578 7.05653 2
-1 8 4 53.7697 9.20538 9
0 -8 -4 22.2547 6.88116 7
0 -8 -4 17.4359 5.52169 3
0 -8 4 22.0781 5.24194 1
0 -8 4 29.7268 7.03170 10
0 -8 -4 19.6370 4.23171 6
0 -8 4 28.1066 5.42851 5
0 8 4 29.8888 6.48995 3
0 8 -4 30.1812 7.71442 9
0 8 4 21.3530 7.86272 9
0 8 4 19.4336 6.96012 11
0 8 4 28.0034 5.79463 2
1 -8 4 67.4198 7.92185 5
-1 -8 -4 57.6867 8.78938 3
1 -8 4 56.5004 7.35374 1
1 -8 4 87.0982 9.97935 10
-1 -8 -4 67.6613 7.26766 6
1 -8 4 62.1135 7.76544 7
1 8 4 59.1398 9.79357 3
1 8 4 64.9221 9.87178 11
-1 8 -4 56.6126 7.40987 6
-1 8 -4 77.3872 7.11225 2
-1 8 -4 82.5108 13.0218 9
1 8 4 78.4792 9.15399 2
-1 8 -4 79.7868 14.7580 4
1 8 4 65.5568 9.98317 9
2 -8 4 2.57176 5.31128 7
2 -8 4 -6.3563 4.83816 5
2 -8 4 2.03733 4.74354 1
-2 -8 -4 9.76953 5.18151 3
2 -8 4 4.35984 5.78311 10
-2 -8 -4 6.69870 4.21168 6
-2 8 -4 14.0040 4.28810 6
-2 8 -4 3.95600 7.59251 9
2 8 4 -3.0123 7.10600 11
-2 8 -4 16.8470 4.24245 2
2 8 4 10.3842 6.01771 3
2 8 4 3.14065 7.35589 9
-2 8 -4 7.83886 8.58177 4
2 8 4 7.24835 6.07435 2
3 -8 4 -0.8079 4.71156 1
-3 -8 -4 1.92508 4.90214 6
-3 -8 -4 -8.0329 5.37230 3
3 8 4 -18.113 8.21417 8
-3 8 -4 7.92814 4.39549 6
-3 8 -4 4.56193 8.55565 9
-3 8 -4 -0.9977 10.9094 4
3 8 4 5.50393 6.09643 2
3 8 4 -3.2891 8.56063 9
3 8 4 10.4230 7.27193 11
-3 8 -4 5.81102 3.93983 2
3 8 4 -7.9855 6.41245 3
-4 -8 -4 11.3000 7.40045 7
4 -8 4 7.83775 5.40878 1
4 -8 4 11.3178 6.80449 10
-4 -8 -4 4.71092 8.41813 11
4 -8 4 4.82059 6.34838 7
-4 -8 -4 5.14025 5.06164 6
-4 -8 -4 11.5559 6.50788 3
4 8 4 6.22434 7.58898 3
-4 8 -4 6.74138 4.47359 2
4 8 4 -2.3733 8.97663 8
4 8 4 14.8122 9.47912 11
-4 8 -4 25.1221 12.9736 4
4 8 4 9.14012 9.39407 9
4 8 4 15.0751 6.87518 2
-4 8 -4 21.0090 8.47636 9
11 0 -5 23.4648 9.04620 7
11 0 -5 7.46491 8.76710 3
11 0 -5 25.2157 6.81402 2
-11 0 5 16.3222 8.20607 11
-11 0 5 21.1087 8.51867 9
-11 0 5 17.9705 8.25409 3
11 0 -5 32.4171 7.94029 13
-10 0 5 96.4223 11.9687 9
10 0 -5 83.4547 9.56137 13
10 0 -5 68.7778 10.6977 3
-10 0 5 72.5678 9.87804 3
10 0 -5 91.1023 8.05209 2
10 0 -5 81.8681 9.46466 7
-10 0 5 77.2702 9.97136 11
9 0 -5 40.7611 5.94182 2
-9 0 5 48.0822 7.16456 9
9 0 -5 45.0169 6.66005 7
-9 0 5 53.6706 7.84482 3
9 0 -5 47.6514 7.02485 3
8 0 -5 192.951 11.0736 7
-8 0 5 189.285 11.3751 3
8 0 -5 175.205 9.93296 2
8 0 -5 170.196 10.7146 13
8 0 -5 175.349 11.5725 3
-8 0 5 210.272 12.6217 9
-7 0 5 74.1681 6.92433 11
-7 0 5 77.2075 6.86971 3
-7 0 5 70.4491 7.50302 9
7 0 -5 83.5558 6.69001 7
7 0 -5 78.1826 6.78229 13
7 0 -5 84.7115 7.12270 3
6 0 -5 6.67337 3.50787 3
-6 0 5 5.15879 3.32484 9
-6 0 5 5.02890 3.29109 11
6 0 -5 8.59845 2.61550 7
6 0 -5 7.38330 2.85203 13
-6 0 5 6.04149 3.26497 3
-5 0 5 304.027 14.7061 3
-5 0 5 291.752 14.6737 11
5 0 -5 305.870 14.2716 13
5 0 -5 311.499 14.9284 3
5 0 -5 301.446 14.6727 7
-5 0 5 294.514 16.2066 9
-5 0 5 296.593 14.9530 7
4 0 -5 410.316 17.6696 12
-4 0 5 391.797 20.6739 9
-4 0 5 412.769 18.3811 12
4 0 -5 388.508 18.2757 13
4 0 -5 407.600 19.0390 7
-4 0 5 377.190 18.5156 3
-4 0 5 395.187 18.7228 8
4 0 -5 409.277 20.0868 6
-4 0 5 406.788 18.7339 3
4 0 -5 408.246 18.7145 3
-4 0 5 391.331 18.7111 11
-4 0 5 414.508 19.3328 7
3 0 -5 951.460 41.5439 3
3 0 -5 973.835 40.8038 13
3 0 -5 948.887 42.9674 7
-3 0 5 876.178 41.3512 3
-3 0 5 922.286 41.2334 11
3 0 -5 951.935 39.8250 12
-3 0 5 940.452 41.5544 8
-3 0 5 943.075 41.5618 3
-3 0 5 988.663 46.0362 9
3 0 -5 864.983 44.6728 6
-3 0 5 958.573 39.9758 12
-2 0 5 23.2260 3.15456 12
2 0 -5 23.3825 2.92124 11
2 0 -5 24.5564 2.70760 13
2 0 -5 21.6073 2.97782 3
2 0 -5 18.9025 2.97823 9
-2 0 5 26.0807 2.70623 9
2 0 -5 17.7774 2.73524 3
2 0 -5 22.7941 3.17057 6
2 0 -5 26.7523 2.99273 1
-2 0 5 22.2440 2.70665 8
-2 0 5 21.6430 2.80382 3
-2 0 5 22.9800 2.59343 11
-2 0 5 22.8674 2.97590 3
2 0 -5 24.2592 2.69265 12
2 0 -5 25.9336 2.68306 7
1 0 -5 62.7067 4.04343 13
1 0 -5 66.2721 4.08400 1
1 0 -5 60.4431 4.20239 11
-1 0 5 67.2928 4.23668 8
1 0 -5 64.2622 4.72096 6
-1 0 5 62.4268 4.13850 9
-1 0 5 71.3413 5.05039 6
-1 0 5 64.4256 4.10439 3
-1 0 5 55.3727 4.25806 3
1 0 -5 65.0409 4.28207 3
-1 0 5 62.7342 3.97179 11
-1 0 5 53.8365 4.26253 12
1 0 -5 68.0823 4.85234 8
1 0 -5 62.9177 4.36458 9
1 0 -5 63.3637 4.03748 12
1 0 -5 57.1842 4.16000 3
0 0 5 105.700 5.92753 9
0 0 -5 109.771 5.77598 12
0 0 5 97.5170 5.99491 3
0 0 5 108.991 5.87807 3
0 0 -5 93.4802 5.89200 3
0 0 5 109.881 6.21446 11
0 0 -5 107.897 6.01956 9
0 0 -5 107.417 5.92298 3
0 0 5 100.589 5.26648 1
0 0 5 109.736 6.05966 2
0 0 -5 101.027 4.97352 10
0 0 -5 110.571 6.07047 11
0 0 -5 110.869 6.55699 6
0 0 5 121.960 5.87598 11
0 0 5 125.034 6.28348 8
-1 0 -5 25.5379 3.60324 6
1 0 5 30.7205 3.20050 3
1 0 5 32.7297 3.33066 3
1 0 5 28.4276 2.78909 11
1 0 5 24.8562 3.26387 8
1 0 5 29.7624 2.93364 2
1 0 5 31.2791 3.23285 11
2 0 5 174.344 11.7379 4
2 0 5 185.383 10.0163 8
-2 0 -5 191.779 9.55574 11
2 0 5 172.970 9.46823 11
-2 0 -5 178.299 10.3349 6
2 0 5 197.193 9.72596 3
-2 0 -5 217.098 9.84796 12
2 0 5 166.136 9.38103 11
2 0 5 211.926 9.67314 3
-2 0 -5 214.222 12.0026 4
-2 0 -5 196.609 9.54897 3
2 0 5 189.081 9.57807 2
-3 0 -5 399.438 18.5564 11
-3 0 -5 405.687 20.2001 6
3 0 5 415.572 18.5626 3
3 0 5 375.984 18.5959 2
3 0 5 393.793 18.6040 3
-3 0 -5 375.374 23.3360 4
3 0 5 383.545 18.9402 8
-3 0 -5 391.158 18.4437 3
-3 0 -5 455.323 18.4630 12
4 0 5 285.249 15.4994 8
-4 0 -5 332.573 19.1396 4
4 0 5 298.191 14.8400 3
-4 0 -5 290.943 14.8024 3
-4 0 -5 310.835 16.2163 6
-4 0 -5 308.976 15.2435 11
4 0 5 336.877 15.0050 2
-4 0 -5 331.626 15.1201 12
4 0 5 304.101 15.2495 3
-5 0 -5 540.004 27.2921 6
-5 0 -5 556.906 25.5629 11
-5 0 -5 535.045 32.1855 4
5 0 5 542.697 25.9726 8
5 0 5 551.873 25.7118 3
5 0 5 546.891 25.2770 2
5 0 5 558.405 25.2768 3
-5 0 -5 551.032 25.0770 12
-5 0 -5 560.290 25.1902 3
6 0 5 44.6898 5.11454 3
-6 0 -5 43.5036 6.57494 11
-6 0 -5 34.1005 4.90862 6
-6 0 -5 34.0845 5.48392 3
6 0 5 32.8224 5.29494 8
-6 0 -5 34.3670 7.18019 4
6 0 5 41.1505 4.60476 2
-7 0 -5 314.181 15.6501 6
-7 0 -5 281.422 15.7519 11
7 0 5 255.146 14.0287 2
-7 0 -5 303.670 14.6796 3
7 0 5 277.567 14.6057 3
-7 0 -5 248.071 18.7437 4
-8 0 -5 -2.9589 3.85576 6
-8 0 -5 -0.3512 4.78367 3
-8 0 -5 1.73601 5.55013 4
8 0 5 -0.3520 3.84664 2
-8 0 -5 -1.1441 6.41920 11
8 0 5 2.47694 4.58437 3
-9 0 -5 20.5048 7.36113 4
-9 0 -5 19.5494 8.50215 11
9 0 5 18.8034 4.83401 2
9 0 5 18.1992 8.55543 8
-9 0 -5 26.4080 5.66221 6
9 0 5 11.5151 6.15359 3
-9 0 -5 18.5558 7.22060 3
-9 0 -5 20.2571 8.22858 12
11 -1 -5 30.4321 9.04606 3
-11 -1 5 18.8165 7.95880 11
-11 -1 5 12.5378 8.20049 3
11 -1 -5 34.5780 7.89775 13
11 -1 -5 23.5637 8.78469 7
11 1 -5 30.1959 7.11934 2
-11 1 5 19.5099 8.74288 3
-11 1 5 22.5702 8.76489 9
11 1 -5 21.1238 9.00340 3
11 1 -5 46.2567 8.89457 13
-11 1 5 37.7209 8.64710 11
11 1 -5 28.5766 8.54032 7
10 -1 -5 0.13474 7.19819 7
-10 -1 5 7.13478 6.56417 11
10 -1 -5 7.08974 4.64914 2
10 -1 -5 2.32371 6.97737 3
-10 -1 5 -1.4331 6.09150 3
10 -1 -5 -1.3729 6.18123 13
10 1 -5 5.48592 5.90330 13
10 1 -5 8.61193 6.76503 3
-10 1 5 5.01651 6.53154 9
10 1 -5 -0.6229 6.49354 7
-10 1 5 -7.9979 6.48422 3
10 1 -5 -1.9919 5.38830 2
-10 1 5 2.58945 6.67948 11
9 -1 -5 11.2276 5.81420 3
9 -1 -5 6.16450 3.63789 2
-9 -1 5 6.75028 5.33181 3
-9 -1 5 15.4022 5.76057 9
9 -1 -5 12.8532 5.72768 7
-9 1 5 8.15063 5.66351 3
-9 1 5 20.0992 5.83496 9
9 1 -5 9.90530 4.38213 2
-9 1 5 4.40979 5.45665 11
9 1 -5 13.3164 5.37590 7
9 1 -5 11.2673 5.74012 3
-8 -1 5 28.3147 4.97141 3
8 -1 -5 42.9263 6.03416 13
-8 -1 5 30.0281 5.73193 9
8 -1 -5 43.9024 6.03514 3
8 -1 -5 41.7178 6.32221 7
-8 1 5 39.4673 5.92892 11
8 1 -5 41.1356 5.96509 3
8 1 -5 36.8094 4.92718 2
-8 1 5 31.7847 5.67096 9
-8 1 5 36.7811 5.74109 3
7 -1 -5 6.68860 3.96339 3
-7 -1 5 1.22233 3.75798 11
-7 -1 5 1.91941 4.01542 7
-7 -1 5 3.85252 3.59648 3
7 -1 -5 5.44562 3.27980 13
-7 -1 5 5.09866 3.86888 9
7 -1 -5 5.31662 3.88619 7
-7 1 5 5.65734 4.06135 11
-7 1 5 5.87935 3.70893 9
7 1 -5 5.31867 2.32400 2
7 1 -5 1.50888 3.38394 13
7 1 -5 2.89208 2.70077 7
7 1 -5 -4.0777 3.71860 3
-7 1 5 5.21224 3.55480 3
-6 -1 5 482.953 22.7110 3
-6 -1 5 498.816 25.3876 9
6 -1 -5 479.747 23.4265 7
6 -1 -5 498.745 22.9911 3
6 -1 -5 489.202 22.1710 13
-6 -1 5 453.856 22.6369 11
6 -1 -5 480.865 24.0574 6
6 1 -5 511.181 23.0479 3
-6 1 5 509.198 23.0740 3
-6 1 5 488.345 25.2581 9
6 1 -5 491.272 22.2597 13
-6 1 5 447.107 22.7169 11
-5 -1 5 88.3383 6.01470 3
-5 -1 5 71.7913 5.77792 3
-5 -1 5 78.0247 6.07968 11
5 -1 -5 81.1583 5.86603 7
5 -1 -5 79.1179 5.99993 6
-5 -1 5 85.5282 6.76156 9
5 -1 -5 90.8872 5.80563 13
5 -1 -5 81.5606 6.29097 3
5 1 -5 96.3703 6.08256 3
-5 1 5 79.8493 6.05884 3
5 1 -5 90.5102 5.82215 13
-5 1 5 93.5042 6.64760 9
-5 1 5 72.6523 6.17381 11
4 -1 -5 508.951 24.1550 6
-4 -1 5 508.246 22.4974 3
4 -1 -5 499.545 22.7471 3
-4 -1 5 463.904 22.3182 3
-4 -1 5 478.494 24.9896 9
-4 -1 5 511.977 22.5462 11
4 -1 -5 495.667 21.6961 12
4 -1 -5 499.021 23.3357 7
4 -1 -5 489.866 22.0619 13
4 1 -5 491.928 22.1380 13
-4 1 5 511.551 22.3542 8
-4 1 5 445.651 24.8386 9
-4 1 5 491.442 22.7471 3
-4 1 5 489.265 22.6211 11
4 1 -5 486.042 22.4294 3
-3 -1 5 17.5917 2.54782 9
3 -1 -5 21.5202 2.95268 8
-3 -1 5 21.1065 2.66455 11
3 -1 -5 13.5470 2.25957 12
3 -1 -5 16.5486 2.47443 13
3 -1 -5 17.7823 2.61602 6
3 -1 -5 15.8942 2.58231 7
-3 -1 5 19.1014 2.49787 3
3 -1 -5 19.0911 3.04408 3
-3 -1 5 16.9603 2.81006 8
-3 -1 5 16.0089 2.41301 3
3 1 -5 16.4741 2.75375 13
-3 1 5 15.1662 2.93136 3
-3 1 5 18.7769 3.15849 11
3 1 -5 13.0409 2.69888 6
3 1 -5 19.2279 2.77634 3
-3 1 5 16.8530 2.67045 3
3 1 -5 12.7847 2.03679 7
-3 1 5 15.3331 3.21224 7
-3 1 5 18.3355 2.33195 8
2 -1 -5 7.18241 1.98011 7
-2 -1 5 10.8890 1.77914 3
2 -1 -5 8.69195 2.28087 3
2 -1 -5 10.0265 1.91684 12
2 -1 -5 6.18755 1.88363 9
2 -1 -5 9.99574 1.87142 13
-2 -1 5 11.5823 2.08859 8
-2 -1 5 10.2217 2.24810 3
2 -1 -5 3.12831 2.01814 8
-2 -1 5 10.3007 2.01487 11
-2 -1 5 13.9515 2.42408 9
2 -1 -5 8.45478 1.96784 6
-2 1 5 8.05455 1.53391 9
-2 1 5 9.23031 2.21985 3
2 1 -5 8.80932 2.00722 13
2 1 -5 10.8725 2.17390 3
-2 1 5 8.20698 2.03690 8
2 1 -5 9.17860 2.06397 11
-2 1 5 6.34831 1.82116 2
2 1 -5 10.2195 2.31333 6
-2 1 5 10.4322 2.28126 6
2 1 -5 6.76841 1.94701 9
2 1 -5 8.17240 1.70706 7
2 1 -5 9.60654 1.82978 3
-2 1 5 6.65942 2.13398 3
2 1 -5 4.99022 2.23019 1
-2 1 5 9.83131 2.25251 11
1 -1 -5 221.072 12.5231 9
1 -1 -5 248.219 12.0977 3
-1 -1 5 239.961 11.2569 3
-1 -1 5 249.909 11.7499 8
-1 -1 5 243.535 12.4058 9
-1 -1 5 238.389 11.4187 3
-1 -1 5 263.326 11.3563 11
1 -1 -5 246.589 11.2635 12
1 -1 -5 222.577 11.6350 8
1 -1 -5 244.096 11.3306 13
1 -1 -5 238.899 12.1486 7
1 -1 -5 229.558 12.4663 6
-1 -1 5 249.343 10.0482 10
-1 -1 5 240.671 10.7787 1
1 -1 -5 247.465 11.7348 3
-1 1 5 242.525 11.7089 3
1 1 -5 236.984 12.6435 6
1 1 -5 232.136 12.4330 9
1 1 -5 233.498 11.2565 11
-1 1 5 254.138 11.6297 11
1 1 -5 225.646 11.1676 3
1 1 -5 246.076 11.4105 3
1 1 -5 257.988 11.1402 1
-1 1 5 236.491 12.4548 9
-1 1 5 243.775 11.7125 2
-1 1 5 238.277 12.5787 6
-1 1 5 219.153 11.7990 3
-1 1 5 250.598 11.6835 8
-1 1 5 246.108 11.8245 12
1 1 -5 247.544 11.4631 13
0 -1 -5 4.05246 1.77908 3
0 -1 5 7.83801 2.00328 11
0 -1 5 5.35253 1.70709 1
0 -1 5 1.25943 1.58732 8
0 -1 5 4.76204 1.50166 3
0 -1 5 4.84737 1.57776 3
0 -1 -5 3.97204 1.54402 12
0 -1 5 2.49826 1.79942 12
0 -1 5 2.76864 1.28794 11
0 -1 -5 3.86873 1.92872 6
0 -1 -5 4.56954 1.64842 9
0 1 -5 3.86434 1.45908 10
0 1 5 1.31755 2.20967 11
0 1 -5 4.07098 1.96663 13
0 1 5 4.13626 1.63162 2
0 1 -5 3.53135 1.27725 9
0 1 5 2.99674 1.62932 11
0 1 -5 3.04158 1.58660 3
0 1 -5 4.25341 1.91028 6
0 1 -5 1.39382 1.43759 3
0 1 -5 1.98599 1.66530 11
0 1 5 2.88297 1.37460 9
0 1 5 3.89230 1.77905 3
0 1 5 2.97352 1.71046 8
0 1 5 6.91742 2.09852 3
1 -1 5 538.659 22.0261 11
-1 -1 -5 526.122 24.3306 9
1 -1 5 462.300 20.8543 1
1 -1 5 483.672 21.8316 11
-1 -1 -5 452.789 24.1301 6
1 -1 5 516.729 22.0334 3
-1 -1 -5 531.347 27.9681 4
1 -1 5 463.825 22.4780 8
-1 -1 -5 490.011 22.3776 3
-1 -1 -5 465.649 21.7256 12
1 -1 5 456.523 21.3027 12
1 -1 5 485.471 19.8907 5
1 1 5 513.767 27.8412 4
1 1 5 566.906 22.6856 3
-1 1 -5 440.008 24.0111 6
-1 1 -5 484.790 21.9354 3
1 1 5 530.274 24.1791 9
-1 1 -5 522.466 21.4694 12
-1 1 -5 490.878 22.0267 3
1 1 5 477.566 22.5289 2
1 1 5 413.941 22.3406 8
1 1 5 472.406 22.3639 3
1 1 5 489.637 22.2894 11
-1 1 -5 475.793 19.8960 10
-2 -1 -5 130.138 8.67081 4
2 -1 5 121.327 6.48995 11
2 -1 5 133.543 6.68369 3
2 -1 5 133.444 6.50271 11
2 -1 5 123.800 7.37399 8
-2 -1 -5 134.546 7.44950 6
2 -1 5 101.536 8.23565 4
2 -1 5 122.494 6.58890 3
-2 -1 -5 125.205 6.86512 3
-2 -1 -5 111.496 7.03884 12
2 1 5 132.014 7.23095 3
2 1 5 110.567 8.77297 4
2 1 5 118.066 6.71064 2
-2 1 -5 136.078 6.59848 3
2 1 5 108.657 6.81594 3
-2 1 -5 114.992 8.37253 4
2 1 5 134.461 7.56405 8
-2 1 -5 138.688 7.51345 6
-2 1 -5 117.837 6.84325 12
2 1 5 118.394 7.17469 11
-3 -1 -5 815.193 46.3225 4
3 -1 5 856.904 36.9027 2
-3 -1 -5 793.685 36.6566 11
3 -1 5 828.016 36.3987 3
-3 -1 -5 862.999 39.6586 6
3 -1 5 795.597 36.2919 3
3 -1 5 826.262 36.9147 8
3 -1 5 823.392 36.0414 11
-3 -1 -5 836.083 36.6604 3
-3 -1 -5 766.420 35.5314 12
3 1 5 801.045 36.7135 3
3 1 5 816.792 36.7926 3
3 1 5 802.270 36.9857 2
3 1 5 811.525 36.9948 8
-3 1 -5 793.049 35.4415 12
-3 1 -5 812.001 36.1687 11
-3 1 -5 852.502 39.6455 6
-3 1 -5 865.191 36.2648 3
4 -1 5 93.4293 5.93463 2
-4 -1 -5 101.478 6.26772 3
-4 -1 -5 93.5642 6.27386 6
-4 -1 -5 90.8979 7.02312 12
4 -1 5 93.2543 5.70427 3
-4 -1 -5 84.8298 7.71292 4
4 -1 5 102.451 7.25997 8
4 -1 5 99.0277 6.35179 3
-4 -1 -5 86.4759 6.43369 11
-4 1 -5 88.3224 7.57084 4
4 1 5 93.6049 6.03068 2
-4 1 -5 90.0379 6.76978 12
-4 1 -5 93.2613 5.67900 3
4 1 5 91.2768 7.05446 8
-4 1 -5 95.0364 5.80237 11
4 1 5 88.0011 6.00300 3
4 1 5 95.7678 7.04524 3
-4 1 -5 93.7981 6.52133 6
-5 -1 -5 -0.4356 3.38944 11
5 -1 5 1.46982 2.52921 2
-5 -1 -5 2.70295 2.77320 3
-5 -1 -5 -0.5037 3.29791 4
5 -1 5 6.44667 3.40438 8
5 -1 5 5.12083 2.44015 3
-5 -1 -5 0.18428 2.04922 6
5 -1 5 2.28506 3.50757 3
-5 -1 -5 -1.6941 3.74580 12
-5 1 -5 5.43583 2.57910 3
-5 1 -5 1.00876 3.22962 4
-5 1 -5 2.93652 3.45339 12
5 1 5 1.46756 2.44257 3
-5 1 -5 1.90874 3.47011 11
5 1 5 3.18988 2.64551 2
5 1 5 1.78053 3.27134 8
-5 1 -5 1.54239 2.44901 6
-6 -1 -5 172.810 10.9762 11
6 -1 5 179.528 9.30686 2
-6 -1 -5 159.441 13.0147 4
6 -1 5 184.289 11.3884 8
-6 -1 -5 183.896 10.5148 6
6 -1 5 168.814 9.64942 3
-6 -1 -5 185.175 10.2375 3
6 -1 5 150.764 10.6699 3
-6 1 -5 167.960 11.0839 12
-6 1 -5 199.927 10.6649 6
6 1 5 175.738 11.7192 8
-6 1 -5 158.892 12.5311 4
-6 1 -5 169.752 10.6625 11
6 1 5 169.214 9.80397 2
-6 1 -5 182.032 9.68701 3
6 1 5 176.511 10.0000 3
7 -1 5 38.0017 4.63199 2
-7 -1 -5 19.6563 6.24777 4
7 -1 5 33.4463 4.63938 3
-7 -1 -5 34.3469 5.38534 3
-7 -1 -5 28.7632 6.66140 11
7 -1 5 37.6249 6.15875 8
-7 -1 -5 24.6782 4.44987 6
-7 1 -5 35.1997 5.00588 3
-7 1 -5 45.4542 5.70181 6
7 1 5 34.2659 4.83370 2
-7 1 -5 31.2264 6.09427 11
7 1 5 32.1103 5.33960 3
-7 1 -5 23.8601 6.39871 12
-8 -1 -5 106.352 8.69578 6
-8 -1 -5 116.893 11.1907 11
-8 -1 -5 117.540 12.3385 4
8 -1 5 105.445 7.29950 2
-8 -1 -5 97.9998 9.21807 3
8 -1 5 119.264 8.97262 3
-8 -1 -5 130.942 11.9482 12
-8 1 -5 103.894 12.0716 4
-8 1 -5 99.4124 9.34211 3
-8 1 -5 108.641 11.8428 12
-8 1 -5 103.497 10.9207 11
8 1 5 88.7023 11.9835 8
-8 1 -5 101.992 8.71509 6
8 1 5 104.680 8.49927 2
8 1 5 107.206 9.19574 3
9 -1 5 12.4653 8.71533 8
-9 -1 -5 14.2760 8.28684 11
-9 -1 -5 4.24618 7.49941 4
-9 -1 -5 17.4724 6.65300 3
-9 -1 -5 14.9030 5.54956 6
-9 -1 -5 16.9147 8.75089 12
9 -1 5 10.2248 6.19521 3
-9 1 -5 16.9215 5.38109 6
-9 1 -5 2.65822 7.94430 4
-9 1 -5 15.6516 9.00768 12
-9 1 -5 13.5997 6.82785 3
9 1 5 5.33028 8.08114 8
-9 1 -5 9.25194 8.34692 11
9 1 5 17.2903 6.55274 3
9 1 5 12.6605 5.21363 2
11 -2 -5 9.61964 9.63073 7
11 -2 -5 9.28303 8.54250 3
11 -2 -5 7.62315 7.57216 13
-11 -2 5 11.9558 7.81293 3
-11 -2 5 11.2128 8.61181 11
-11 2 5 5.91728 8.57608 3
11 2 -5 20.2133 8.32909 13
-11 2 5 10.2257 9.19591 11
-11 2 5 2.45201 8.86307 9
11 2 -5 21.9760 8.88414 3
11 2 -5 22.9547 7.57398 2
10 -2 -5 78.7962 10.9504 7
10 -2 -5 72.6241 10.8033 3
-10 -2 5 74.9600 10.2379 11
10 -2 -5 93.1039 10.0908 13
-10 -2 5 61.6977 9.96985 3
-10 2 5 78.5550 10.6479 3
10 2 -5 85.3369 10.0243 13
-10 2 5 83.4578 10.6701 11
10 2 -5 76.5834 10.8618 3
-10 2 5 79.3897 11.8279 9
-10 2 5 67.5422 11.9171 4
9 -2 -5 15.8326 3.88738 2
9 -2 -5 19.9862 6.01096 7
-9 -2 5 12.9822 5.69747 11
9 -2 -5 12.6616 5.89411 3
-9 -2 5 5.81071 5.22733 3
9 2 -5 16.0186 6.18177 3
-9 2 5 9.90936 6.02210 3
9 2 -5 27.2740 5.47392 13
-9 2 5 14.5242 6.63910 9
9 2 -5 24.8605 4.95895 2
-9 2 5 12.8863 5.84878 11
8 -2 -5 16.8566 4.93773 7
8 -2 -5 19.3656 4.29944 13
-8 -2 5 10.8652 4.25061 3
8 -2 -5 22.9943 5.38154 3
-8 2 5 14.9784 5.51871 11
-8 2 5 21.7385 5.37440 3
8 2 -5 15.1369 3.75618 2
8 2 -5 17.8288 4.56028 13
8 2 -5 12.6441 4.90782 3
-8 2 5 11.9719 5.16879 9
-7 -2 5 12.7227 3.99724 11
7 -2 -5 12.1835 4.23383 7
-7 -2 5 12.6409 3.74448 3
7 -2 -5 19.0146 4.38735 3
7 -2 -5 15.4214 4.03138 13
-7 2 5 15.7781 4.47797 3
7 2 -5 10.4647 2.73554 2
-7 2 5 13.8749 4.21199 9
7 2 -5 18.5589 4.62237 3
7 2 -5 10.6613 4.06167 13
-7 2 5 18.9666 5.11316 11
6 -2 -5 14.3762 4.05897 7
6 -2 -5 11.3217 3.57337 13
-6 -2 5 10.0743 3.67281 11
6 -2 -5 7.99408 3.39427 3
-6 -2 5 9.87626 3.19262 3
-6 2 5 12.6153 3.68854 3
-6 2 5 8.96045 3.82931 11
6 2 -5 7.72531 3.83976 3
-6 2 5 5.90149 2.80441 9
6 2 -5 9.68200 2.57361 2
6 2 -5 11.4877 3.14765 13
5 -2 -5 553.727 26.1316 3
-5 -2 5 542.714 25.6163 3
-5 -2 5 572.956 25.7223 3
-5 -2 5 553.049 25.7284 11
5 -2 -5 537.185 26.8979 7
5 -2 -5 578.978 27.4327 6
5 -2 -5 583.810 25.2260 13
5 2 -5 584.466 25.8448 3
-5 2 5 580.584 26.2601 3
-5 2 5 576.949 26.0982 11
-5 2 5 532.842 28.6375 9
5 2 -5 570.540 25.3851 13
-4 -2 5 327.494 15.5779 11
-4 -2 5 343.857 15.4387 3
4 -2 -5 337.173 15.2068 12
4 -2 -5 302.906 15.4450 8
4 -2 -5 316.846 16.3525 7
-4 -2 5 313.352 15.2175 3
4 -2 -5 338.840 15.1802 13
4 -2 -5 322.676 15.8985 3
4 -2 -5 321.771 16.3569 6
-4 2 5 341.527 16.1401 3
-4 2 5 315.245 17.2271 9
4 2 -5 329.756 15.3320 13
-4 2 5 326.096 15.1726 8
4 2 -5 336.774 15.4149 3
-4 2 5 310.279 15.7822 11
3 -2 -5 293.202 13.1231 13
3 -2 -5 263.264 13.5504 8
-3 -2 5 301.496 13.3964 11
3 -2 -5 300.293 14.0461 3
3 -2 -5 279.043 13.2971 12
3 -2 -5 283.505 14.4390 7
-3 -2 5 291.781 13.8841 8
-3 -2 5 281.872 13.2136 3
-3 -2 5 310.076 13.4612 3
3 -2 -5 264.895 14.3520 6
3 2 -5 285.858 13.4709 13
3 2 -5 280.262 13.3005 3
3 2 -5 251.349 13.2483 11
-3 2 5 293.212 13.9581 11
-3 2 5 292.667 14.0222 3
-3 2 5 281.011 13.5926 2
-3 2 5 272.159 14.3773 6
-3 2 5 279.923 13.3666 8
-3 2 5 278.342 15.0957 9
-2 -2 5 192.352 9.85360 8
2 -2 -5 191.670 10.1941 6
2 -2 -5 182.313 9.52181 12
-2 -2 5 201.496 9.14776 11
-2 -2 5 209.921 8.34730 10
-2 -2 5 184.461 9.12135 3
2 -2 -5 182.492 10.1653 7
2 -2 -5 175.753 9.51169 8
2 -2 -5 197.442 9.16351 13
-2 -2 5 188.191 9.00917 3
-2 2 5 185.180 9.93864 3
2 2 -5 174.070 10.2430 9
2 2 -5 196.180 10.2986 6
-2 2 5 166.900 10.4842 9
-2 2 5 185.100 10.2466 6
-2 2 5 204.962 9.38633 8
-2 2 5 182.612 9.44377 2
2 2 -5 179.744 8.86102 3
2 2 -5 176.805 9.07345 11
-2 2 5 190.715 9.82937 11
2 2 -5 189.151 9.51005 13
2 2 -5 197.792 9.19406 3
1 -2 -5 57.5208 4.75459 9
1 2 -5 57.3482 4.12935 9
1 2 -5 56.8458 4.30791 13
-1 2 5 41.3243 4.53385 11
0 -2 5 866.875 34.0434 10
0 -2 -5 825.329 39.8007 7
0 -2 -5 830.640 36.7909 12
0 -2 5 911.702 34.5957 5
0 -2 -5 820.731 38.1106 3
0 -2 5 942.632 37.3657 11
0 -2 -5 905.090 47.9161 4
0 -2 5 963.930 37.2723 11
0 -2 5 940.005 35.8393 1
0 -2 5 742.734 38.0027 8
0 -2 -5 858.517 42.0686 9
0 -2 -5 889.643 41.0999 6
0 2 5 829.104 47.7083 4
0 2 -5 825.514 37.3258 13
0 2 -5 824.602 41.6004 9
0 2 5 872.094 38.0594 8
0 2 5 830.006 37.9284 11
0 2 -5 789.039 40.9497 6
0 2 5 826.559 38.1162 3
0 2 5 813.442 38.3883 2
0 2 5 854.549 41.8959 9
0 2 -5 886.177 39.2201 7
0 2 5 834.775 38.2553 3
0 2 -5 837.308 37.2114 11
1 -2 5 279.560 12.3973 11
-1 -2 -5 272.063 16.3879 4
-1 -2 -5 271.432 14.2254 9
-1 -2 -5 279.422 13.1330 12
1 -2 5 276.667 11.5839 5
1 -2 5 259.150 11.6827 10
-1 -2 -5 278.159 14.1705 6
-1 -2 -5 268.757 13.3092 3
1 -2 5 272.616 13.4677 8
1 2 5 285.207 14.1183 9
1 2 5 263.906 13.3495 3
-1 2 -5 265.786 13.4297 7
1 2 5 250.990 16.3772 4
1 2 5 274.718 13.4990 8
-1 2 -5 278.532 14.1572 6
1 2 5 294.241 13.6104 3
1 2 5 272.033 13.2496 2
1 2 5 254.793 13.2728 11
-2 -2 -5 799.746 36.5614 6
2 -2 5 795.960 32.9387 11
2 -2 5 797.666 30.3734 5
-2 -2 -5 729.729 42.6393 4
-2 -2 -5 735.516 33.8538 3
2 -2 5 787.204 34.0311 8
2 -2 5 742.969 42.2761 4
-2 -2 -5 659.022 33.7256 11
-2 -2 -5 783.038 37.0962 9
-2 -2 -5 758.176 32.9689 12
2 2 5 689.314 33.8140 11
2 2 5 738.289 34.0399 8
2 2 5 742.694 36.9310 9
-2 2 -5 753.909 42.3017 4
-2 2 -5 762.370 32.4119 12
2 2 5 750.781 34.2028 2
2 2 5 755.142 34.0007 3
-2 2 -5 771.621 36.3466 6
3 -2 5 379.107 15.1203 5
3 -2 5 360.505 17.6424 8
-3 -2 -5 367.616 22.0359 4
-3 -2 -5 341.265 18.6263 6
3 -2 5 383.248 16.6926 11
3 -2 5 376.536 16.6582 11
-3 -2 -5 353.892 17.2020 12
-3 -2 -5 380.405 17.6049 3
-3 -2 -5 347.791 17.6472 11
3 2 5 360.793 17.8787 8
3 2 5 367.622 17.6046 3
3 2 5 361.384 18.4988 9
-3 2 -5 389.786 18.6839 6
-3 2 -5 357.161 21.4011 4
3 2 5 359.178 17.5205 2
-3 2 -5 373.300 16.6546 11
-3 2 -5 366.038 16.9276 12
4 -2 5 111.653 6.50881 3
-4 -2 -5 119.463 7.82485 12
4 -2 5 106.874 6.28200 11
-4 -2 -5 98.3036 7.02404 6
-4 -2 -5 115.437 9.22386 4
-4 -2 -5 103.249 7.00648 3
-4 -2 -5 97.5619 7.12424 11
4 -2 5 113.750 7.89046 8
4 2 5 103.557 8.04383 8
-4 2 -5 102.700 7.15105 6
-4 2 -5 112.693 6.26331 11
4 2 5 123.366 7.10851 3
4 2 5 119.409 6.96475 2
-4 2 -5 85.7535 6.85019 2
-4 2 -5 104.101 8.17010 4
-4 2 -5 121.126 7.76596 12
-5 -2 -5 14.1526 3.24357 3
-5 -2 -5 16.8990 4.35018 12
-5 -2 -5 10.1485 3.58064 11
5 -2 5 7.75674 3.43221 3
5 -2 5 14.4380 3.20870 3
-5 -2 -5 7.81497 4.05499 4
-5 -2 -5 14.0131 2.85339 6
5 -2 5 16.9264 4.09651 8
-5 2 -5 11.6293 3.02408 6
-5 2 -5 9.94826 4.40728 12
-5 2 -5 8.65378 3.87423 2
5 2 5 10.2358 3.90756 8
5 2 5 13.8887 3.13413 3
-5 2 -5 8.94126 3.19906 4
-5 2 -5 14.2060 2.89803 11
-5 2 -5 6.91564 2.46856 3
5 2 5 15.3795 3.09734 2
6 -2 5 53.7550 7.00683 3
6 -2 5 68.4938 5.96101 3
-6 -2 -5 71.1109 7.42646 11
-6 -2 -5 67.9518 6.70091 3
-6 -2 -5 80.0521 8.60085 12
6 -2 5 67.1124 8.31215 8
-6 -2 -5 71.0788 8.84624 4
-6 -2 -5 58.7576 6.31909 6
-6 2 -5 70.8863 6.24709 6
-6 2 -5 69.4078 5.81349 3
-6 2 -5 77.7389 7.17325 11
6 2 5 75.6647 6.53220 2
6 2 5 79.2497 6.69607 3
-6 2 -5 72.7523 7.97113 4
-6 2 -5 74.3898 8.27186 12
7 -2 5 128.891 10.7208 8
-7 -2 -5 124.621 9.15771 3
-7 -2 -5 114.962 11.9655 4
-7 -2 -5 124.181 10.5832 11
-7 -2 -5 129.559 8.80590 6
7 -2 5 118.169 8.49777 3
7 2 5 125.463 9.34091 3
-7 2 -5 120.395 9.87401 11
-7 2 -5 124.102 10.7496 12
-7 2 -5 127.553 8.99694 6
-7 2 -5 109.239 11.0029 4
-7 2 -5 111.618 8.37815 3
7 2 5 125.984 8.86431 2
-8 -2 -5 4.51124 4.49809 6
-8 -2 -5 -1.1724 6.76999 11
-8 -2 -5 13.7787 5.71822 3
8 -2 5 16.5181 5.04174 3
-8 -2 -5 -1.9916 6.60027 4
-8 -2 -5 14.9335 7.46206 12
-8 2 -5 9.43624 7.12816 12
-8 2 -5 3.52494 5.72630 4
-8 2 -5 -2.9204 5.13268 3
8 2 5 4.65823 5.02137 2
-8 2 -5 11.9849 4.25270 6
8 2 5 -2.7608 6.71430 8
-8 2 -5 2.93749 6.50118 11
8 2 5 7.63989 5.74907 3
-9 -2 -5 28.2193 9.15771 12
-9 -2 -5 21.0551 7.29314 3
-9 -2 -5 5.65307 8.13246 4
9 -2 5 28.6053 6.65216 3
-9 -2 -5 26.5121 5.46809 6
-9 -2 -5 18.3889 8.95383 11
9 -2 5 33.6810 8.88895 8
-9 2 -5 18.7046 9.40463 12
9 2 5 10.7066 7.92250 8
-9 2 -5 24.1996 8.66243 11
9 2 5 6.06371 7.14030 3
-9 2 -5 15.7030 5.19389 6
-9 2 -5 18.5143 7.54084 4
10 -3 -5 10.1815 8.27205 7
10 -3 -5 12.8343 6.79036 13
-10 -3 5 3.38062 7.05685 11
10 -3 -5 -2.9366 6.81981 3
-10 -3 5 -2.9981 6.78597 3
10 3 -5 1.31094 6.69814 13
10 3 -5 3.02099 7.44947 3
-10 3 5 8.72991 7.54060 3
-10 3 5 7.63236 8.13599 11
-10 3 5 15.2739 7.87626 9
10 3 -5 -0.1868 6.54726 2
-9 -3 5 29.7194 6.33532 3
9 -3 -5 31.4655 7.14557 3
9 -3 -5 41.8739 7.28704 7
-9 -3 5 30.5704 7.21174 11
-9 3 5 28.0299 6.84917 3
-9 3 5 38.1347 7.47255 9
9 3 -5 28.2666 7.05397 3
9 3 -5 36.0233 6.30897 13
-9 3 5 45.3156 7.83359 11
-8 -3 5 10.8196 4.97998 3
8 -3 -5 7.75108 4.49136 13
8 -3 -5 8.28144 5.85427 7
8 -3 -5 9.67855 5.39226 3
8 3 -5 16.4604 4.91168 13
8 3 -5 4.87986 3.79379 2
8 3 -5 11.0376 5.58980 3
-8 3 5 10.6501 5.25117 3
-8 3 5 4.34808 4.86858 9
-8 3 5 8.23415 5.92932 11
-7 -3 5 3.35798 3.55700 3
7 -3 -5 2.46139 4.43750 7
7 -3 -5 9.30781 3.90695 13
7 -3 -5 9.76472 4.56172 3
-7 -3 5 5.77483 4.60160 11
-7 3 5 10.6538 4.89404 3
-7 3 5 10.2791 4.56116 11
7 3 -5 4.71935 3.88337 13
7 3 -5 7.27158 4.53207 3
7 3 -5 1.15820 3.35777 2
-7 3 5 4.34619 4.01654 9
6 -3 -5 11.4523 4.55193 7
-6 -3 5 15.9651 4.20252 11
-6 -3 5 18.7621 4.14492 3
6 -3 -5 14.3196 4.35487 3
6 -3 -5 18.9788 3.84926 13
-6 -3 5 11.5331 3.40704 3
6 3 -5 16.0501 3.37018 13
-6 3 5 11.7864 4.49756 11
6 3 -5 8.42467 2.79860 2
-6 3 5 14.6132 3.38183 9
-6 3 5 20.9443 4.53275 3
6 3 -5 13.9243 3.79134 3
-5 -3 5 15.7501 3.28413 3
5 -3 -5 12.2535 3.30668 7
5 -3 -5 27.1220 4.37377 3
-5 -3 5 19.2163 3.23303 3
-5 -3 5 17.1631 3.51467 11
5 -3 -5 27.6204 4.01739 13
-5 3 5 13.4957 4.24503 3
-5 3 5 22.1824 4.43241 11
-5 3 5 14.3475 3.86491 9
-5 3 5 15.9230 4.52185 4
5 3 -5 19.7734 3.50610 13
5 3 -5 22.1977 3.29413 2
5 3 -5 15.9303 3.32802 3
-4 -3 5 251.131 11.8430 3
-4 -3 5 236.269 11.7691 3
-4 -3 5 240.747 11.4942 5
4 -3 -5 251.333 12.6936 3
-4 -3 5 244.432 12.1864 11
4 -3 -5 251.508 12.6541 6
4 -3 -5 244.409 12.1184 12
4 -3 -5 221.343 12.8751 7
-4 3 5 231.496 11.9058 2
-4 3 5 231.325 13.8159 9
4 3 -5 240.099 11.9769 13
-4 3 5 252.604 12.6765 11
4 3 -5 258.786 11.9926 3
-4 3 5 239.828 12.7129 3
4 3 -5 235.970 11.9319 2
3 -3 -5 82.5168 5.90267 12
-3 -3 5 92.6031 5.23279 11
-3 -3 5 84.2524 5.29181 5
3 -3 -5 79.6238 6.18656 7
3 -3 -5 92.6287 4.97750 13
3 -3 -5 80.8160 6.20205 3
-3 -3 5 84.4032 5.00246 3
3 -3 -5 88.9633 5.89172 6
-3 -3 5 89.3498 5.39057 3
-3 3 5 75.6783 6.76265 9
3 3 -5 84.0294 5.20745 3
-3 3 5 83.9256 7.91717 4
-3 3 5 66.0851 5.73093 13
-3 3 5 83.0499 6.44965 11
3 3 -5 82.9627 5.70977 13
-3 3 5 88.2861 6.52757 3
-3 3 5 80.6445 5.24392 2
-3 3 5 80.0738 6.04537 6
3 3 -5 88.0993 5.32660 11
2 -3 -5 151.263 9.08797 3
-2 -3 5 165.050 9.03041 8
2 -3 -5 146.064 9.19409 6
2 -3 -5 164.196 9.03269 12
-2 -3 5 167.684 8.07074 11
2 -3 -5 178.599 8.16054 13
-2 -3 5 149.586 8.01185 5
2 -3 -5 165.459 9.65031 7
2 3 -5 171.249 8.74978 13
-2 3 5 137.441 8.88098 11
-2 3 5 177.223 9.86340 9
-2 3 5 180.003 11.6094 4
2 3 -5 136.655 8.04305 11
-2 3 5 189.194 9.69875 3
-2 3 5 180.168 8.65558 2
1 -3 -5 1073.14 45.8769 12
1 -3 -5 1066.31 47.5956 3
1 -3 -5 1099.69 46.0829 13
-1 -3 5 1024.99 44.5047 1
1 -3 -5 1058.66 47.1905 8
-1 -3 5 996.318 42.5600 10
1 -3 -5 1108.50 50.9180 6
-1 -3 5 1132.12 47.5029 8
-1 -3 5 1092.08 43.3469 5
1 -3 -5 1043.94 49.4408 7
-1 3 5 1123.48 47.2200 8
-1 3 5 1065.70 47.2998 11
1 3 -5 1106.97 46.4437 13
-1 3 5 1044.61 47.6673 3
-1 3 5 1056.61 47.8642 2
-1 3 5 1078.33 52.6100 9
1 3 -5 1107.32 51.1260 6
1 3 -5 970.322 52.1180 9
0 -3 -5 -0.0820 2.83104 4
0 -3 -5 3.45211 1.90123 6
0 -3 -5 0.70378 2.93825 7
0 -3 5 1.36438 1.73896 5
0 -3 5 0.62875 2.76161 8
0 -3 -5 4.58893 2.08620 3
0 -3 -5 -4.0568 3.00715 12
0 -3 -5 -3.2729 2.18036 13
0 -3 5 0.70061 2.14085 10
0 -3 5 -3.0712 1.81012 1
0 3 -5 -0.9579 1.91849 7
0 3 -5 1.85389 1.70981 6
0 3 5 2.10806 1.93456 2
0 3 -5 0.76012 1.80257 9
0 3 5 1.01264 2.11286 8
0 3 5 -0.0825 2.27045 11
0 3 5 -1.5329 2.17256 3
0 3 5 1.90715 2.47770 9
0 3 -5 -5.7200 2.75652 13
1 -3 5 383.280 17.6884 8
1 -3 5 356.647 15.6936 10
-1 -3 -5 353.325 17.6226 3
-1 -3 -5 388.934 22.1397 4
-1 -3 -5 375.102 17.1907 12
1 -3 5 383.127 15.7450 5
-1 -3 -5 357.801 18.6889 6
-1 -3 -5 368.348 18.5500 7
1 -3 5 385.118 16.6532 1
1 3 5 341.221 17.5683 11
1 3 5 350.230 17.5797 8
-1 3 -5 348.880 18.4842 9
-1 3 -5 367.217 18.6475 6
1 3 5 383.287 19.1054 9
1 3 5 374.338 15.3949 5
1 3 5 365.135 17.6466 2
1 3 5 403.309 18.0594 3
2 -3 5 42.7228 3.01093 5
2 -3 5 34.6987 5.06441 8
-2 -3 -5 30.2486 3.95854 6
-2 -3 -5 28.3401 4.21362 12
-2 -3 -5 28.7897 4.31028 11
-2 -3 -5 35.5559 3.92458 3
2 -3 5 32.2046 3.75991 10
-2 -3 -5 35.2193 4.97231 4
2 -3 5 33.7719 3.60490 1
2 3 5 32.7449 4.37929 11
-2 3 -5 33.9355 3.67221 6
2 3 5 32.4914 4.10896 9
2 3 5 32.2260 5.07656 8
2 3 5 29.5955 4.17172 3
2 3 5 31.1362 3.88742 2
2 3 5 36.4150 2.90378 5
-2 3 -5 43.2811 5.13957 4
3 -3 5 347.795 16.7804 8
3 -3 5 352.024 14.4477 5
-3 -3 -5 347.898 17.6975 6
-3 -3 -5 319.799 16.8097 11
-3 -3 -5 346.157 16.6845 3
-3 -3 -5 340.836 20.9399 4
-3 -3 -5 339.548 16.4436 12
3 3 5 351.192 17.0606 8
3 3 5 333.901 16.6149 2
-3 3 -5 326.630 16.0635 12
3 3 5 337.366 16.7669 3
-3 3 -5 351.907 20.4515 4
3 3 5 349.316 17.8421 9
-3 3 -5 308.512 14.3799 5
-3 3 -5 345.850 17.3850 6
-4 -3 -5 8.44616 3.13939 3
-4 -3 -5 12.8743 2.77170 6
-4 -3 -5 6.98635 3.29422 11
-4 -3 -5 7.08140 3.74536 4
-4 -3 -5 10.0507 3.80692 12
4 -3 5 6.90043 3.94290 8
4 3 5 9.02364 2.93425 2
-4 3 -5 7.78229 2.72666 6
-4 3 -5 6.68343 2.30918 5
-4 3 -5 6.55465 3.24655 2
-4 3 -5 11.8717 3.95690 12
4 3 5 9.22291 2.99913 9
4 3 5 9.33127 3.79792 8
4 3 5 10.1603 3.18930 3
-5 -3 -5 2.92300 2.79539 3
-5 -3 -5 6.19497 4.28379 12
-5 -3 -5 4.67960 4.00891 11
-5 -3 -5 7.21497 4.51615 4
-5 -3 -5 1.47921 2.63588 6
5 -3 5 7.67264 4.05331 8
5 3 5 4.12476 3.07731 2
5 3 5 3.87600 3.09614 3
5 3 5 7.21646 3.34177 9
-5 3 -5 6.13128 4.25669 12
-5 3 -5 4.63171 2.58677 5
-5 3 -5 1.64952 2.82697 6
5 3 5 2.43515 3.98907 8
-5 3 -5 2.38244 3.44033 2
6 -3 5 66.4914 8.19154 8
-6 -3 -5 55.0477 9.38261 4
-6 -3 -5 63.5584 7.04359 3
-6 -3 -5 63.4961 6.15212 6
-6 -3 -5 50.7567 8.26235 11
6 3 5 57.5876 7.82610 9
6 3 5 59.4131 6.88952 3
-6 3 -5 66.7731 6.04295 6
-6 3 -5 59.1879 8.59547 12
-6 3 -5 55.2253 5.67671 11
6 3 5 57.8397 6.55418 2
-6 3 -5 47.2320 7.12877 4
7 -3 5 34.7491 4.91776 3
-7 -3 -5 21.1178 6.10524 11
-7 -3 -5 19.6917 5.12864 3
7 -3 5 26.4436 6.11971 8
-7 -3 -5 21.1738 6.90967 4
-7 -3 -5 20.1464 4.70754 6
-7 3 -5 10.4021 5.16627 4
-7 3 -5 16.2910 6.66270 12
7 3 5 29.2867 6.40508 9
-7 3 -5 24.9076 5.61480 11
-7 3 -5 30.6187 4.87957 6
7 3 5 17.4315 5.58974 3
-7 3 -5 20.5966 4.64249 3
-8 -3 -5 89.3671 8.47051 6
-8 -3 -5 120.286 12.1583 12
-8 -3 -5 91.4509 13.8670 4
8 -3 5 99.4367 8.82973 3
-8 -3 -5 89.3954 10.1646 3
-8 -3 -5 84.6900 11.3378 11
8 -3 5 94.1414 11.6853 8
8 3 5 91.0626 10.3627 3
-8 3 -5 107.576 13.0765 12
8 3 5 61.5938 9.93070 8
-8 3 -5 92.2195 11.0145 4
-8 3 -5 87.0383 10.7035 11
-8 3 -5 96.5220 8.86482 6
-9 -3 -5 22.4049 9.02933 12
-9 -3 -5 12.9857 9.19385 11
-9 -3 -5 14.9999 9.36415 4
-9 -3 -5 13.5452 6.04493 6
9 -3 5 26.8754 6.96802 3
-9 -3 -5 21.4815 8.05252 3
-9 3 -5 20.8659 9.30214 12
9 3 5 7.04040 7.71578 3
-9 3 -5 7.30038 8.02418 4
9 3 5 6.71307 9.58241 8
9 3 5 17.9359 7.15817 2
-9 3 -5 10.6294 8.81563 11
-9 3 -5 19.0012 5.83415 6
10 -4 -5 52.2857 9.07330 13
-10 -4 5 59.3250 9.79896 11
10 -4 -5 74.4943 12.6777 7
-10 -4 5 46.3109 8.67792 5
10 -4 -5 62.0282 9.85024 3
-10 -4 5 70.2374 10.5486 3
-10 4 5 56.8457 10.1316 11
10 4 -5 85.6237 10.3160 2
10 4 -5 78.1413 12.6919 3
-10 4 5 61.3940 10.3696 3
10 4 -5 61.2051 9.74977 13
9 -4 -5 18.7312 6.98422 3
-9 -4 5 18.5453 6.78077 5
-9 -4 5 15.2859 7.10405 11
-9 -4 5 25.4534 6.38403 3
9 -4 -5 19.6197 7.39028 7
-9 4 5 24.1360 8.71297 11
-9 4 5 11.7764 7.69532 9
9 4 -5 21.5642 6.09872 2
-9 4 5 19.6017 7.35418 3
9 4 -5 21.9819 7.56613 3
9 4 -5 18.7119 6.39422 13
8 -4 -5 59.6152 8.23626 13
-8 -4 5 55.6170 7.98617 5
-8 -4 5 83.1030 8.22373 3
8 -4 -5 64.8733 9.51680 3
8 -4 -5 62.6082 9.9999 7
8 4 -5 86.0153 8.24270 13
-8 4 5 94.1165 10.4885 11
-8 4 5 75.9466 9.56191 3
-8 4 5 86.8424 10.8120 9
8 4 -5 67.0613 9.49403 3
8 4 -5 70.6384 8.33069 2
-7 -4 5 20.2571 4.39056 3
-7 -4 5 17.8067 4.86287 5
7 -4 -5 24.0804 4.75207 13
-7 -4 5 16.4902 5.17447 11
7 -4 -5 20.8993 5.64298 3
7 -4 -5 16.3678 5.56573 7
-7 4 5 12.4553 5.95654 3
7 4 -5 26.5087 5.50037 3
-7 4 5 22.5189 5.76991 11
-7 4 5 19.4086 5.01133 9
-7 4 5 19.8314 7.90535 4
7 4 -5 17.5340 4.80858 13
6 -4 -5 3.00895 3.39240 13
6 -4 -5 7.37166 4.28718 3
-6 -4 5 1.49219 3.40463 3
-6 -4 5 1.47079 3.75112 3
-6 -4 5 0.81875 3.40097 5
6 -4 -5 -0.8735 4.49907 7
-6 -4 5 -0.3428 4.18334 11
-6 4 5 0.81126 4.58885 11
-6 4 5 -3.8730 4.82084 3
6 4 -5 -2.2159 4.22247 13
-6 4 5 -3.6989 4.31182 9
6 4 -5 2.72683 3.72508 3
6 4 -5 1.61357 3.09968 2
-6 4 5 -6.7400 5.99340 4
5 -4 -5 47.4433 5.75989 7
-5 -4 5 45.7874 5.21676 3
-5 -4 5 50.7972 5.24522 5
-5 -4 5 49.0577 5.64626 11
-5 -4 5 52.4097 5.25234 3
5 -4 -5 53.6611 6.06354 3
5 -4 -5 51.5162 5.58411 13
-5 4 5 57.6754 8.52589 4
5 4 -5 50.4616 5.47086 13
5 4 -5 54.4165 5.52306 3
-5 4 5 46.3920 7.24203 9
-5 4 5 53.1474 4.75812 2
-5 4 5 52.4890 6.63999 3
-5 4 5 55.7679 6.61947 11
4 -4 -5 101.358 7.50023 12
-4 -4 5 95.9664 6.40653 5
4 -4 -5 107.427 7.65615 7
-4 -4 5 104.206 6.91753 11
4 -4 -5 103.091 5.83437 13
-4 -4 5 91.6999 6.08297 3
4 -4 -5 104.668 7.57939 3
-4 -4 5 112.153 6.51347 3
-4 4 5 112.368 8.05561 3
-4 4 5 97.1403 7.64563 11
4 4 -5 112.883 6.78620 13
4 4 -5 100.140 6.47071 2
-4 4 5 95.7033 8.59140 9
-4 4 5 105.024 6.38021 2
4 4 -5 106.161 6.57747 3
3 -4 -5 301.929 15.8833 6
-3 -4 5 287.404 14.1827 5
3 -4 -5 307.183 16.2816 7
3 -4 -5 313.674 15.0260 12
3 -4 -5 315.379 15.7319 3
-3 -4 5 328.938 14.6598 11
3 -4 -5 334.897 14.2918 13
-3 4 5 294.923 15.6331 11
3 4 -5 301.872 15.2301 2
3 4 -5 281.204 14.6141 11
-3 4 5 314.595 15.1090 2
3 4 -5 324.896 14.9136 13
-3 4 5 330.477 17.3423 9
-3 4 5 343.954 16.1309 3
2 -4 -5 43.9519 5.08881 3
-2 -4 5 51.9159 4.37178 5
2 -4 -5 52.7037 5.06632 6
2 -4 -5 48.4865 5.65079 12
2 -4 -5 56.4364 3.79830 13
2 -4 -5 46.9352 5.70755 7
-2 4 5 53.0645 5.51358 11
2 4 -5 54.2924 4.25361 2
-2 4 5 62.4596 5.89637 3
2 4 -5 50.2312 5.07403 13
-2 4 5 57.0645 6.13286 9
2 4 -5 49.6127 3.93021 11
-2 4 5 55.8365 4.56439 2
-1 -4 5 13.2101 3.13630 10
1 -4 -5 15.7182 3.45263 3
1 -4 -5 13.8090 3.53270 12
-1 -4 5 26.0109 3.55256 5
1 -4 -5 31.2008 5.12868 7
-1 4 5 35.2352 5.05383 9
1 4 -5 19.3707 3.44543 13
-1 4 5 32.8039 4.93964 3
-1 4 5 27.4750 3.71448 2
1 4 -5 24.8083 3.76321 6
0 -4 5 314.473 14.5553 1
0 -4 5 325.081 14.0718 5
0 -4 -5 310.377 16.2346 7
0 -4 -5 320.320 14.4803 13
0 -4 5 314.287 13.9465 10
0 -4 -5 308.131 15.4847 3
0 -4 5 322.954 15.4712 8
0 -4 -5 326.519 16.1785 6
0 -4 -5 305.791 15.1864 12
0 4 5 290.351 15.6170 3
0 4 5 337.799 15.4973 8
0 4 5 299.051 17.0194 9
0 4 -5 326.325 15.3338 7
0 4 -5 320.102 16.2784 6
0 4 -5 297.861 14.9024 13
0 4 5 305.147 15.5553 11
0 4 5 306.414 15.4105 2
-1 -4 -5 7.15377 2.67803 3
1 -4 5 9.45217 2.75046 1
-1 -4 -5 13.0495 3.93959 12
1 -4 5 9.85784 2.82039 10
-1 -4 -5 8.35145 3.67540 4
1 -4 5 10.1467 3.46312 8
-1 -4 -5 8.53974 2.32916 6
-1 -4 -5 11.4450 3.79078 7
1 -4 5 13.1882 2.65952 5
1 4 5 9.03381 3.31632 8
-1 4 -5 11.6785 3.80013 4
1 4 5 9.83321 3.40390 9
-1 4 -5 5.34278 2.27919 6
1 4 5 5.31309 2.33459 2
-1 4 -5 6.57515 3.19974 13
1 4 5 8.89808 3.35716 11
-2 -4 -5 200.366 10.9082 12
2 -4 5 189.848 9.62054 10
-2 -4 -5 200.578 11.7806 7
-2 -4 -5 201.144 11.5188 11
2 -4 5 199.459 9.64098 5
-2 -4 -5 185.692 10.6048 3
2 -4 5 189.356 10.0849 1
2 -4 5 207.990 11.0816 8
-2 -4 -5 194.643 11.0712 6
-2 -4 -5 192.266 13.5294 4
2 4 5 203.576 10.9710 3
2 4 5 188.104 9.15733 5
-2 4 -5 207.946 13.4682 4
-2 4 -5 202.456 10.9171 6
2 4 5 192.977 11.4066 11
2 4 5 185.629 11.9272 9
2 4 5 196.696 10.7291 2
2 4 5 189.823 11.2840 8
-2 4 -5 211.219 11.0360 9
-3 -4 -5 108.284 8.04977 11
-3 -4 -5 118.386 9.77358 4
3 -4 5 118.123 8.38566 8
-3 -4 -5 114.060 7.78959 6
3 -4 5 117.404 6.69471 5
3 -4 5 108.362 7.02259 10
-3 -4 -5 130.521 8.73715 12
-3 -4 -5 117.658 7.89872 3
-3 -4 -5 126.824 8.66589 7
3 4 5 102.310 5.97321 5
-3 4 -5 127.386 7.45330 6
3 4 5 117.321 8.99877 9
3 4 5 129.307 8.32515 3
3 4 5 119.769 7.58846 2
3 4 5 117.019 8.81932 8
-4 -4 -5 64.6443 6.10369 6
-4 -4 -5 69.2888 6.39174 3
4 -4 5 71.9408 6.75299 7
-4 -4 -5 72.1906 7.60981 12
-4 -4 -5 76.0025 8.61333 4
4 4 5 77.0252 6.38762 2
4 4 5 88.0804 6.89245 3
4 4 5 72.9427 7.90548 9
4 4 5 54.4096 7.74565 8
-4 4 -5 88.7090 7.94065 12
-4 4 -5 74.0781 6.07446 6
-5 -4 -5 90.1571 9.03045 12
-5 -4 -5 83.4118 10.0599 4
-5 -4 -5 87.9865 7.01560 6
-5 -4 -5 89.0980 7.24478 3
5 -4 5 79.2494 7.74884 7
5 4 5 87.3119 7.47745 3
5 4 5 86.4232 9.00811 9
5 4 5 70.8610 9.09090 8
-5 4 -5 68.9701 6.53528 2
-5 4 -5 84.2813 6.94275 6
-5 4 -5 84.9772 9.11052 12
-6 -4 -5 13.4016 3.94444 6
-6 -4 -5 17.3765 4.84433 3
-6 -4 -5 24.5478 6.91278 4
-6 4 -5 22.0488 3.96568 6
6 4 5 25.6325 6.18117 9
6 4 5 34.7205 5.93813 3
-6 4 -5 28.5618 6.66096 12
6 4 5 11.2598 6.03682 8
-7 -4 -5 104.759 8.62512 6
-7 -4 -5 99.3745 13.4269 4
-7 -4 -5 97.0756 10.0243 3
-7 -4 -5 103.535 11.4717 11
-7 -4 -5 90.6435 11.8180 12
7 4 5 111.163 10.2015 3
7 4 5 94.9722 12.0974 8
-7 4 -5 118.895 8.97975 6
7 4 5 128.943 12.3058 9
7 4 5 95.0900 9.68672 2
-7 4 -5 105.637 12.2436 12
-8 -4 -5 -4.3227 7.86992 11
-8 -4 -5 -1.2139 8.44999 4
-8 -4 -5 1.59396 7.73746 12
-8 -4 -5 -5.0712 4.64834 6
-8 -4 -5 -14.628 6.80622 3
8 4 5 6.11118 6.12098 2
8 4 5 -4.9851 7.52823 8
8 4 5 -6.2791 7.06406 3
8 4 5 9.98933 7.69319 9
-8 4 -5 -3.9322 6.32284 4
-8 4 -5 7.87468 8.16727 12
9 -5 -5 -0.5232 7.61013 3
-9 -5 5 11.4720 6.64230 3
-9 -5 5 8.98597 6.39745 5
-9 -5 5 -2.3159 8.28441 11
9 -5 -5 -0.4456 7.56688 7
9 5 -5 -3.4244 7.65926 13
9 5 -5 5.34073 8.53526 3
9 5 -5 9.63175 6.32341 2
-9 5 5 9.46295 8.66331 9
-9 5 5 13.1546 8.90263 11
8 -5 -5 10.9813 7.75388 7
-8 -5 5 17.0726 6.01004 5
8 -5 -5 8.68609 5.71964 13
-8 -5 5 7.44154 7.09878 11
-8 -5 5 23.6533 6.14187 3
8 -5 -5 19.1855 7.39373 3
-8 5 5 22.7337 7.13415 9
8 5 -5 21.1486 6.09443 13
8 5 -5 7.68121 5.66539 2
8 5 -5 13.3133 7.55343 3
-8 5 5 23.2317 8.58123 11
-8 5 5 -1.8222 7.96289 3
7 -5 -5 1.79920 5.93323 7
7 -5 -5 9.62082 5.62300 3
-7 -5 5 16.9604 4.72748 3
7 -5 -5 -0.2986 4.85084 13
-7 -5 5 3.87954 4.50565 5
-7 -5 5 6.19475 5.33454 11
-7 5 5 -0.2737 6.19266 9
7 5 -5 6.87192 5.10684 13
7 5 -5 -1.0562 5.96026 3
-7 5 5 3.01377 6.59391 11
-7 5 5 1.80670 6.30534 3
7 5 -5 9.32166 4.54417 2
-7 5 5 7.82159 9.60681 4
6 -5 -5 303.476 17.3862 7
6 -5 -5 296.047 14.9371 13
-6 -5 5 328.067 15.5339 3
-6 -5 5 277.221 15.1101 5
6 -5 -5 273.668 16.4469 3
-6 -5 5 310.023 16.2290 11
6 5 -5 295.818 15.7209 13
6 5 -5 289.293 15.9389 3
-6 5 5 354.789 21.9412 4
-6 5 5 293.115 17.3725 3
-6 5 5 306.573 16.7529 11
-6 5 5 332.167 18.9564 9
5 -5 -5 60.3847 5.66690 13
-5 -5 5 64.3493 5.99805 3
-5 -5 5 49.3280 6.59022 11
5 -5 -5 48.2138 6.88651 3
-5 5 5 61.8864 8.02124 11
5 5 -5 60.1883 6.50957 13
5 5 -5 59.6672 6.27617 3
-5 5 5 54.0143 5.52731 2
-4 -5 5 235.656 11.8068 11
4 -5 -5 215.278 12.6083 3
-4 5 5 216.203 13.2579 3
-4 5 5 216.257 11.6235 2
-4 5 5 225.802 12.9122 11
4 5 -5 221.928 11.7080 13
-3 -5 5 3.11231 2.37519 11
3 -5 -5 -1.0087 2.94724 3
3 -5 -5 1.56013 3.52848 12
-3 -5 5 0.25479 2.76726 5
3 -5 -5 0.00768 3.16234 7
-3 5 5 1.54239 2.76758 2
-3 5 5 -4.1385 3.40652 9
3 5 -5 0.37124 2.25511 2
-3 5 5 3.94490 4.08826 3
-3 5 5 2.49642 3.79084 11
3 5 -5 -3.6236 3.11151 11
3 5 -5 7.03220 3.35278 13
2 -5 -5 13.8043 3.31517 6
2 -5 -5 8.11290 3.48687 12
2 -5 -5 6.50355 3.64104 7
2 -5 -5 9.66481 3.56085 3
-2 -5 5 7.90855 3.22458 5
-2 5 5 9.84149 3.88630 11
-2 5 5 7.75497 2.85851 2
-2 5 5 10.4880 3.92677 3
-2 5 5 5.37335 3.78925 9
2 5 -5 9.26208 2.47972 2
2 5 -5 10.0311 3.49944 13
1 -5 -5 19.7382 4.41577 7
-1 -5 5 15.9830 3.36773 5
-1 -5 5 11.2621 3.15039 1
1 -5 -5 18.2616 3.36163 3
1 -5 -5 14.9577 2.95802 6
1 -5 -5 14.7271 4.15306 12
-1 5 5 21.5031 3.45249 2
1 5 -5 18.9762 3.67248 13
-1 5 5 20.1790 4.26612 9
-1 5 5 14.4373 4.11532 11
1 5 -5 15.5325 2.82055 2
-1 5 5 11.2645 3.89774 3
0 -5 -5 -2.0355 2.47615 6
0 -5 -5 -2.3392 3.72374 12
0 -5 5 8.95349 3.00257 5
0 -5 5 2.50728 2.46661 1
0 -5 5 3.14829 3.44366 8
0 -5 -5 -0.0391 3.71864 7
0 -5 -5 -2.2620 2.53830 3
0 -5 5 2.47419 2.87181 10
0 5 5 -0.2451 3.30806 9
0 5 -5 -0.3629 3.81835 4
0 5 5 -0.5460 3.11047 11
0 5 5 6.34688 3.98404 3
0 5 -5 2.18171 2.27566 2
0 5 -5 -0.6759 2.49531 6
0 5 -5 3.84237 3.17988 7
0 5 5 1.48627 2.74071 2
0 5 -5 -0.2366 3.31148 13
-1 -5 -5 261.058 14.1768 7
-1 -5 -5 257.152 13.7632 6
1 -5 5 248.286 12.0301 5
-1 -5 -5 237.327 13.2184 3
-1 -5 -5 266.000 13.5606 12
1 -5 5 254.837 12.3359 10
1 -5 5 248.657 13.2132 8
1 5 5 267.673 13.8431 3
1 5 5 248.919 15.2074 9
-1 5 -5 256.289 16.8198 4
1 5 5 239.982 13.8876 11
1 5 5 258.117 13.2914 2
-1 5 -5 249.136 13.7003 6
1 5 5 247.441 13.7240 8
-1 5 -5 234.479 12.5946 2
-1 5 -5 264.470 14.8865 9
-1 5 -5 273.493 12.9791 13
-2 -5 -5 65.3652 8.74476 4
2 -5 5 46.1981 6.21262 10
-2 -5 -5 61.7107 7.25934 11
-2 -5 -5 61.5674 7.46373 7
-2 -5 -5 59.5217 6.38214 3
2 -5 5 69.7171 5.95198 5
-2 -5 -5 69.5982 7.69816 12
2 -5 5 61.0197 6.10078 7
-2 -5 -5 79.8143 6.03756 6
2 5 5 55.5743 8.09018 9
2 5 5 62.3518 6.90903 3
2 5 5 60.6848 5.91109 2
-2 5 -5 77.8367 7.43181 9
-2 5 -5 67.6791 9.21067 4
-2 5 -5 63.0635 6.77028 13
2 5 5 67.6844 7.23125 11
-2 5 -5 76.4381 5.21733 2
-2 5 -5 69.9006 5.74426 6
2 5 5 71.7967 7.85259 8
-3 -5 -5 242.434 17.2423 4
3 -5 5 244.632 13.9928 7
-3 -5 -5 247.501 13.8194 12
-3 -5 -5 265.300 13.7194 3
3 -5 5 258.066 12.0912 5
-3 -5 -5 263.753 14.1294 6
-3 -5 -5 242.186 14.7237 7
-3 -5 -5 209.690 13.8572 11
-3 5 -5 253.509 13.6140 6
3 5 5 239.462 14.1185 11
-3 5 -5 272.122 17.9269 4
3 5 5 253.145 13.9859 3
-3 5 -5 251.901 14.1764 9
3 5 5 264.083 14.6462 8
3 5 5 249.039 15.6939 9
-3 5 -5 260.281 12.5110 2
-4 -5 -5 27.7377 4.83776 3
4 -5 5 24.4623 5.37852 7
-4 -5 -5 26.6005 4.75530 6
-4 -5 -5 30.1732 5.84724 12
-4 -5 -5 25.6293 6.34747 4
-4 -5 -5 25.7657 6.71833 7
4 5 5 33.3996 5.50853 3
-4 5 -5 29.4593 4.17388 6
4 5 5 28.7116 5.97640 9
4 5 5 23.6983 6.08786 8
-4 5 -5 25.5654 3.31728 2
-5 -5 -5 4.44898 3.04751 6
-5 -5 -5 4.18446 5.26189 4
-5 -5 -5 3.01116 4.29001 3
-5 -5 -5 3.80254 5.37075 7
-5 5 -5 -3.2020 3.42165 6
5 5 5 6.68455 4.83635 2
5 5 5 3.45593 4.48353 3
5 5 5 2.52693 5.84371 9
5 5 5 0.97067 5.75697 8
-5 5 -5 2.59627 6.35902 12
6 -5 5 69.4467 9.77623 7
-6 -5 -5 89.2890 9.06860 3
-6 -5 -5 86.3309 7.88501 6
-6 -5 -5 91.6550 11.9485 4
-6 -5 -5 75.1857 9.84019 11
6 5 5 96.3481 9.31510 2
6 5 5 82.4368 11.9779 9
6 5 5 74.8804 9.65211 3
-6 5 -5 78.9078 12.1118 12
6 5 5 79.8971 9.53867 8
-7 -5 -5 2.14891 6.51835 3
7 -5 5 4.43606 6.86900 7
-7 -5 -5 2.73959 7.20021 11
-7 -5 -5 16.4497 7.33436 4
-7 -5 -5 0.02023 7.68286 12
-7 -5 -5 6.80076 5.19307 6
7 5 5 5.23653 6.52035 2
7 5 5 7.58322 7.29817 3
-7 5 -5 -0.4973 9.24472 12
7 5 5 21.7054 8.09134 9
7 5 5 0.06795 7.60418 8
-8 -6 5 10.1049 8.91651 11
8 -6 -5 11.9506 8.84876 7
-8 -6 5 9.98847 7.12191 5
8 -6 -5 4.11806 6.70422 13
8 -6 -5 17.1987 7.82208 3
-8 -6 5 10.0095 6.22879 3
-8 6 5 -5.3143 8.83757 3
-8 6 5 21.7018 9.38221 11
-8 6 5 35.3500 14.1171 4
8 6 -5 21.2821 6.10233 2
8 6 -5 3.46071 6.99558 13
-8 6 5 -7.3312 8.30264 9
7 -6 -5 15.9343 6.69482 3
7 -6 -5 20.0010 7.54635 7
-7 -6 5 28.3909 5.95905 3
-7 -6 5 14.8193 6.38292 5
-7 6 5 30.0704 12.6883 4
7 6 -5 32.8368 6.53023 13
-7 6 5 24.1478 8.53096 11
-7 6 5 30.4646 8.34065 9
-7 6 5 25.7373 8.06175 3
7 6 -5 12.0938 5.59392 2
-6 -6 5 -1.4091 4.88324 5
-6 -6 5 7.94729 4.59904 3
6 -6 -5 7.95399 5.44262 3
6 -6 -5 8.37707 6.30447 7
-6 -6 5 6.70442 6.17137 11
6 6 -5 8.37920 4.74745 2
6 6 -5 6.81110 5.66791 3
-6 6 5 -6.5540 6.52785 3
-6 6 5 0.07905 6.66343 11
-6 6 5 10.1716 4.18144 2
-6 6 5 3.45051 6.80344 9
6 6 -5 6.45352 5.09133 13
5 -6 -5 181.680 12.4707 3
-5 -6 5 184.785 12.0336 11
-5 6 5 194.693 11.1378 2
-5 6 5 192.753 13.5009 3
5 6 -5 199.405 12.0073 13
-5 6 5 208.195 13.3459 11
4 -6 -5 62.5208 7.77792 3
-4 -6 5 60.5573 6.72934 11
-4 6 5 53.7257 8.65598 11
-4 6 5 61.6118 6.37511 2
4 6 -5 69.4201 6.69908 2
-4 6 5 66.6313 8.92911 3
4 6 -5 74.3945 6.75726 13
3 -6 -5 120.131 9.24127 3
3 6 -5 137.231 8.60716 2
-3 6 5 128.713 10.1420 11
3 6 -5 133.848 8.40500 13
-3 6 5 127.474 8.67316 2
-3 6 5 134.005 9.88124 3
-2 -6 5 -0.8178 3.25827 5
2 -6 -5 5.47705 3.02595 6
2 -6 -5 8.07191 4.40086 12
2 -6 -5 6.78931 3.82886 3
2 -6 -5 3.98465 4.17082 7
2 6 -5 11.7723 3.59758 2
-2 6 5 10.3937 3.94871 2
-2 6 5 8.24027 4.59678 3
-2 6 5 7.72511 5.02449 11
2 6 -5 7.93649 3.85850 13
1 -6 -5 4.85699 2.93348 6
1 -6 -5 8.91493 3.42222 3
-1 -6 5 5.28116 3.39354 5
1 -6 -5 7.70608 4.62879 12
1 -6 -5 4.41071 4.46612 7
-1 6 5 8.03574 4.37557 9
-1 6 5 0.77858 4.32179 11
1 6 -5 4.30937 2.86141 2
1 6 -5 -1.4371 3.55861 13
-1 6 5 3.12890 3.40247 2
-1 6 5 2.82707 4.20451 3
0 -6 -5 16.9918 3.83413 3
0 -6 5 19.1152 3.81009 5
0 -6 -5 22.0963 5.32274 12
0 -6 5 11.6404 3.97707 10
0 -6 -5 19.8365 5.43293 7
0 -6 -5 17.0597 3.58382 6
0 6 5 20.8307 5.41977 9
0 6 5 10.0718 5.35411 3
0 6 -5 22.5615 5.62659 4
0 6 -5 15.7015 4.89110 9
0 6 -5 16.0640 4.35050 13
0 6 -5 20.9818 3.93301 6
0 6 5 23.7005 4.29246 2
0 6 -5 19.7816 3.89225 2
0 6 5 12.6399 4.51896 11
1 -6 5 15.4795 4.01749 7
-1 -6 -5 17.0387 5.37236 12
-1 -6 -5 16.5599 3.42621 6
-1 -6 -5 18.8962 4.03876 3
1 -6 5 16.1658 4.02759 5
-1 -6 -5 14.1774 5.33667 7
-1 6 -5 13.1348 3.26730 6
-1 6 -5 15.8248 3.35204 2
1 6 5 12.3300 4.03715 2
-1 6 -5 11.2030 4.77430 9
1 6 5 8.87014 5.20496 9
1 6 5 11.5345 4.56205 3
-1 6 -5 15.0881 4.48209 13
1 6 5 17.3320 5.26141 11
-1 6 -5 20.0483 5.76528 4
-2 -6 -5 96.6694 9.57376 12
-2 -6 -5 85.6706 8.02684 3
2 -6 5 109.491 7.65581 5
-2 -6 -5 108.963 7.44621 6
-2 -6 -5 109.742 9.25538 7
2 -6 5 96.3916 8.05871 7
-2 6 -5 89.3560 8.01154 13
2 6 5 107.427 8.21845 2
-2 6 -5 113.090 12.2908 4
-2 6 -5 96.3536 7.50487 6
-2 6 -5 110.967 9.74495 9
2 6 5 87.8164 10.5670 9
2 6 5 110.475 8.97460 11
-2 6 -5 98.3282 6.81173 2
2 6 5 91.7331 9.92754 8
2 6 5 96.0493 8.94061 3
-3 -6 -5 99.7840 7.36248 6
-3 -6 -5 88.2405 11.9335 4
3 -6 5 93.3241 8.50144 7
3 -6 5 94.9817 7.37953 5
-3 -6 -5 75.7129 9.98103 12
-3 -6 -5 95.3001 8.33408 3
-3 6 -5 93.5776 8.70665 13
-3 6 -5 85.9897 6.44362 2
-3 6 -5 101.913 12.9851 4
-3 6 -5 93.8611 10.0468 9
3 6 5 93.7547 10.2409 11
3 6 5 87.0473 10.4180 8
-3 6 -5 90.6300 7.24603 6
3 6 5 73.9168 11.0780 9
3 6 5 104.614 9.39510 3
-4 -6 -5 62.5012 10.7774 4
-4 -6 -5 63.6047 6.87331 6
-4 -6 -5 57.0225 8.78365 11
-4 -6 -5 48.7139 7.62815 3
-4 6 -5 70.4222 6.60696 6
-4 6 -5 58.5363 5.35886 2
-4 6 -5 72.2249 9.49434 9
4 6 5 52.3743 8.39197 8
4 6 5 60.4486 8.39554 3
5 -6 5 84.2043 9.80633 7
-5 -6 -5 80.8819 13.2707 4
-5 -6 -5 91.4836 9.19669 3
-5 -6 -5 89.8558 8.57094 6
-5 -6 -5 84.5646 10.7832 11
5 6 5 88.5366 9.84738 3
5 6 5 69.8514 9.90732 8
5 6 5 85.2293 9.60375 2
-6 -6 -5 8.75624 6.23567 3
-6 -6 -5 11.1179 7.91447 4
-6 -6 -5 1.46064 8.59760 7
-6 -6 -5 17.3550 8.25729 12
6 -6 5 6.09626 6.77805 7
-6 -6 -5 3.52642 7.66716 11
-6 -6 -5 11.5566 4.77949 6
-6 6 -5 5.20065 9.30398 12
6 6 5 1.45763 7.85465 8
6 6 5 8.03418 6.33401 2
6 6 5 13.0963 7.77875 3
-6 -7 5 20.3475 6.40440 5
6 -7 -5 12.1577 6.86133 3
6 -7 -5 15.2114 7.93328 7
-6 -7 5 6.58100 6.73222 11
-6 7 5 38.0216 11.8716 4
6 7 -5 29.8942 6.65711 13
-6 7 5 21.7092 8.83848 11
-6 7 5 2.98777 8.97332 9
6 7 -5 18.5571 5.31904 2
-6 7 5 13.8747 8.51350 3
-6 7 5 23.0666 5.39680 2
-5 -7 5 3.30202 5.19278 5
5 -7 -5 4.02461 6.19886 3
-5 -7 5 -3.5766 5.61486 11
5 -7 -5 6.60000 6.69320 7
5 7 -5 10.2796 5.34823 13
-5 7 5 17.2513 7.38053 3
-5 7 5 4.87421 4.83125 2
5 7 -5 0.86598 4.40958 2
-5 7 5 9.66528 7.05716 9
-5 7 5 11.3832 8.45414 11
-4 -7 5 59.5398 8.48242 5
4 -7 -5 59.8172 6.46802 10
4 -7 -5 58.5512 9.06266 3
4 -7 -5 57.4977 9.79641 7
-4 -7 5 49.1647 6.41819 11
-4 7 5 56.1821 8.85938 9
-4 7 5 58.0242 7.50782 2
4 7 -5 54.9068 8.13793 13
-4 7 5 64.9192 9.41460 11
-4 7 5 62.5831 10.0048 3
4 7 -5 73.1159 7.76988 2
3 -7 -5 13.9599 5.76219 7
3 -7 -5 11.2277 5.44327 3
-3 7 5 14.3368 4.95884 2
-3 7 5 18.7420 7.11682 11
-3 7 5 8.54690 5.99039 3
3 7 -5 20.0412 4.80668 13
3 7 -5 22.3182 4.72853 2
-2 -7 5 21.4069 4.86428 5
2 -7 -5 21.9331 4.98051 3
2 -7 -5 19.8013 6.27756 7
2 -7 -5 12.8534 3.86276 6
-2 7 5 25.8822 7.02244 11
-2 7 5 27.3174 5.28938 2
2 7 -5 26.0558 4.80830 13
-2 7 5 9.52997 6.44115 3
-2 7 5 31.0195 7.08012 9
2 7 -5 19.6881 4.52586 2
1 -7 -5 81.0545 8.55337 3
1 -7 -5 107.920 7.58493 6
-1 -7 5 106.785 8.04977 5
-1 -7 5 102.873 8.03742 1
1 7 -5 90.7334 11.1231 9
-1 7 5 85.3085 10.1013 11
-1 7 5 100.308 10.3413 3
-1 7 5 102.667 8.77571 2
1 7 -5 102.020 8.01256 2
1 7 -5 92.8016 8.16266 13
-1 7 5 98.0019 11.7184 9
0 -7 -5 4.72060 4.15449 3
0 -7 -5 2.82605 3.41436 6
0 -7 5 4.53926 4.47720 5
0 -7 5 1.21165 3.80779 1
0 -7 5 -0.2450 4.75502 10
0 7 5 6.11177 6.07133 9
0 7 -5 6.94469 6.57301 4
0 7 5 0.26797 5.12257 3
0 7 5 5.26261 4.29545 2
0 7 5 0.82328 5.72604 11
0 7 -5 7.42605 5.98055 9
0 7 -5 -0.3738 3.89482 6
0 7 -5 0.85150 3.59871 2
-1 -7 -5 51.4022 6.51449 6
-1 -7 -5 34.8121 6.19910 3
1 -7 5 52.5218 6.76540 5
1 -7 5 44.5597 6.72950 1
1 -7 5 46.6082 7.08797 7
-1 7 -5 69.5337 9.98492 4
1 7 5 55.1718 8.36673 3
1 7 5 49.1144 7.46712 11
-1 7 -5 54.8615 7.88670 9
-1 7 -5 47.3235 6.71116 6
-1 7 -5 56.8261 6.08153 2
1 7 5 57.3713 7.02436 2
1 7 5 46.7274 8.12663 9
2 -7 5 6.94883 4.68000 1
-2 -7 -5 14.0201 4.13151 6
-2 -7 -5 4.53508 5.12322 3
2 -7 5 13.1581 5.51403 7
2 -7 5 2.32138 4.78914 5
2 7 5 -3.6037 6.50633 11
2 7 5 4.67700 7.08188 8
2 7 5 8.25562 5.70823 3
-2 7 -5 10.3977 3.64387 2
-2 7 -5 3.47141 3.77505 6
2 7 5 10.0189 5.08175 2
-2 7 -5 6.65147 7.95207 4
2 7 5 -3.0319 6.58510 9
-2 7 -5 7.33247 5.71380 9
-3 -7 -5 65.6171 9.34876 11
3 -7 5 67.8005 9.57149 10
-3 -7 -5 73.9367 7.73185 6
-3 -7 -5 65.1910 8.59814 3
3 -7 5 61.3757 8.06311 1
-3 7 -5 63.8796 7.16608 6
3 7 5 75.9286 9.93976 8
-3 7 -5 96.2468 13.2340 4
-3 7 -5 65.8239 8.70180 9
3 7 5 54.0516 9.15034 2
3 7 5 61.1882 10.0143 11
3 7 5 63.4863 9.58972 9
3 7 5 70.7851 9.64025 3
-3 7 -5 61.9960 7.40535 13
-3 7 -5 60.2735 6.66243 2
-4 -7 -5 5.11947 5.81728 3
-4 -7 -5 29.9682 7.41496 7
-4 -7 -5 22.8814 8.97038 4
4 -7 5 13.4910 6.00780 10
-4 -7 -5 24.7491 5.53325 6
-4 -7 -5 7.19833 7.83046 12
-4 -7 -5 13.9997 7.86687 11
4 -7 5 12.3939 5.89247 1
4 -7 5 15.8040 6.51646 7
-4 7 -5 18.8796 4.18606 2
4 7 5 -0.2737 6.94331 3
4 7 5 17.7818 6.38448 2
4 7 5 18.8709 8.43115 11
4 7 5 1.82980 8.26543 8
4 7 5 15.3703 9.08065 9
-4 7 -5 18.2612 7.14447 9
-4 7 -5 8.38543 6.71042 13
-5 -7 -5 2.31487 6.81256 3
-5 -7 -5 7.20429 8.06797 12
5 -7 5 8.85662 6.03625 1
5 -7 5 7.53683 7.17772 10
-5 -7 -5 -5.2950 9.27347 4
5 -7 5 1.07837 6.89483 7
-5 -7 -5 -2.6196 7.16705 11
-5 -7 -5 3.34864 7.72534 7
5 7 5 0.87228 7.41066 3
-5 7 -5 13.2405 7.26994 9
5 7 5 -14.961 8.47148 8
5 7 5 -6.7203 9.36602 9
5 7 5 -3.0223 7.01419 2
4 -8 -5 6.92756 6.68039 3
4 -8 -5 4.16395 6.25874 10
4 -8 -5 8.35140 7.64707 7
-4 -8 5 13.3935 6.02412 5
-4 8 5 -0.8880 8.26395 9
-4 8 5 1.13026 7.70442 3
-4 8 5 10.5689 6.33372 2
4 8 -5 19.9005 6.45206 13
-4 8 5 1.04415 9.30736 11
4 8 -5 15.3534 5.55261 2
3 -8 -5 61.3442 9.56066 3
3 -8 -5 35.1388 8.45039 7
-3 -8 5 27.1586 5.91384 5
-3 8 5 35.6777 8.78842 3
-3 8 5 30.2116 9.38348 11
3 8 -5 48.6575 7.54433 2
-3 8 5 33.3671 8.75739 9
3 8 -5 32.6816 8.68890 9
-3 8 5 34.3785 6.84510 2
-2 -8 5 9.48133 5.29564 5
2 -8 -5 -6.6354 5.75997 3
2 -8 -5 6.41066 6.36389 7
2 -8 -5 4.74140 3.60784 6
-2 8 5 3.57781 6.26305 2
-2 8 5 19.5760 8.02960 9
2 8 -5 10.6730 8.73632 9
2 8 -5 9.15976 4.70551 2
-2 8 5 4.82505 8.20607 11
-2 8 5 8.96905 7.64473 3
-1 -8 5 6.91592 4.72373 1
1 -8 -5 11.7249 6.43608 7
-1 -8 5 1.82120 5.84857 5
1 -8 -5 6.56264 3.72634 6
-1 -8 5 5.79785 6.61194 10
1 -8 -5 16.1360 7.52126 12
1 -8 -5 10.6686 5.46105 3
-1 8 5 -1.9348 7.86838 11
1 8 -5 0.80457 4.49501 2
-1 8 5 4.40404 7.60570 9
-1 8 5 7.03113 6.32269 2
1 8 -5 8.43356 7.94060 9
0 -8 -5 90.3222 11.2706 7
0 -8 5 105.218 12.0071 10
0 -8 -5 89.6743 9.71871 3
0 -8 -5 102.964 12.1985 12
0 -8 5 83.2477 9.07651 1
0 -8 5 91.2999 9.86477 5
0 -8 -5 106.510 8.72967 6
0 8 -5 94.5040 9.15880 6
0 8 -5 93.2009 15.4879 9
0 8 5 100.963 11.1023 3
0 8 -5 117.353 16.5863 4
0 8 5 118.020 14.2023 9
0 8 5 87.4980 10.7552 11
0 8 -5 94.7862 8.78441 2
0 8 5 103.627 10.6682 2
1 -8 5 9.21710 4.90392 1
-1 -8 -5 8.89961 4.71222 6
-1 -8 -5 3.79285 7.60024 12
-1 -8 -5 0.05462 6.44062 7
-1 -8 -5 -2.9879 5.59930 3
1 -8 5 0.09733 5.77795 7
1 -8 5 3.84682 4.92206 5
1 -8 5 -3.0825 6.68473 10
1 8 5 -1.2734 6.39951 2
-1 8 -5 3.17037 4.91671 6
-1 8 -5 6.79294 9.68669 4
-1 8 -5 9.95773 8.12919 9
1 8 5 1.21996 7.24052 11
-1 8 -5 11.4946 4.73631 2
1 8 5 6.61607 6.73492 3
1 8 5 7.34915 8.77621 9
2 -8 5 48.5488 7.34181 5
-2 -8 -5 71.6019 8.78861 6
2 -8 5 60.4182 8.52227 7
2 -8 5 55.4049 7.87513 1
-2 -8 -5 67.2676 9.67996 3
-2 -8 -5 43.1659 8.79478 7
-2 -8 -5 56.8074 9.75209 12
2 -8 5 62.3034 8.51641 10
-2 8 -5 78.1780 13.1380 4
2 8 5 64.3562 10.3141 2
2 8 5 49.0969 10.4410 9
2 8 5 65.0284 10.1803 11
2 8 5 65.1341 9.11726 3
-2 8 -5 68.7898 7.85365 2
-2 8 -5 56.1100 8.28785 6
-2 8 -5 68.5433 10.6621 9
-3 -8 -5 21.5688 5.84583 6
3 -8 5 5.49769 5.28035 1
-3 -8 -5 4.29460 6.58824 3
-3 -8 -5 16.8519 8.63995 12
3 -8 5 19.6910 7.77229 10
3 -8 5 11.5067 7.08992 7
-3 -8 -5 8.00533 7.84136 7
3 8 5 11.9446 9.32782 9
3 8 5 16.9489 7.78167 2
3 8 5 11.7391 9.00363 11
-3 8 -5 21.4468 5.01819 6
3 8 5 15.7434 9.38436 8
3 8 5 14.0793 7.51648 3
-3 8 -5 17.6843 9.16763 9
-3 8 -5 21.1963 4.88345 2
-3 8 -5 41.7359 13.8246 4
11 0 -6 6.00145 8.93071 3
-11 0 6 15.9088 9.27848 11
11 0 -6 -3.1937 6.53616 2
-11 0 6 7.65187 9.13807 9
-11 0 6 4.28496 9.35283 3
10 0 -6 3.00075 5.76961 13
-10 0 6 1.28594 7.35953 3
-10 0 6 8.05510 7.43190 9
10 0 -6 -0.7861 5.23034 2
10 0 -6 -5.5979 6.97492 7
10 0 -6 4.07994 7.63878 3
-10 0 6 7.51871 6.96983 11
-9 0 6 3.86298 6.60590 9
9 0 -6 5.80758 4.26149 2
-9 0 6 7.49019 6.03856 3
9 0 -6 9.16524 6.21556 7
9 0 -6 6.11553 5.94064 3
9 0 -6 13.2798 5.42501 13
8 0 -6 46.4185 6.85129 7
-8 0 6 49.4307 7.36355 3
8 0 -6 50.9725 7.74546 3
-7 0 6 48.5670 6.54569 3
7 0 -6 42.9822 5.85679 13
7 0 -6 36.3105 5.51821 6
7 0 -6 45.7781 7.00106 3
7 0 -6 41.4330 6.53212 7
6 0 -6 1071.71 46.0614 13
-6 0 6 1055.75 47.1591 3
6 0 -6 1060.07 50.4030 6
-6 0 6 979.108 46.8015 11
-6 0 6 1004.92 52.1254 9
6 0 -6 1117.06 48.5499 7
6 0 -6 1060.14 47.1659 3
-5 0 6 7.58874 3.24485 3
5 0 -6 8.06975 2.83020 13
-5 0 6 2.44298 2.91913 9
-5 0 6 7.98818 3.85405 11
5 0 -6 5.21457 3.41029 3
5 0 -6 5.98167 2.39153 6
5 0 -6 2.71419 2.45952 7
-4 0 6 119.746 7.58809 9
4 0 -6 104.106 6.31976 7
-4 0 6 83.7256 6.84627 11
3 0 -6 207.990 10.6245 3
3 0 -6 211.928 11.1899 6
-3 0 6 215.966 10.7745 11
-3 0 6 209.661 10.4679 3
-3 0 6 209.365 10.8625 8
-3 0 6 193.056 10.6785 3
3 0 -6 203.434 10.4586 13
-3 0 6 197.248 11.5602 9
3 0 -6 198.378 9.99005 12
3 0 -6 197.410 10.4480 7
3 0 -6 208.332 10.2173 1
-2 0 6 353.714 17.2889 9
2 0 -6 348.430 14.8296 1
2 0 -6 339.768 15.9767 3
-2 0 6 291.734 15.6591 3
-2 0 6 318.106 16.1615 8
2 0 -6 353.116 15.3066 12
2 0 -6 335.549 17.0920 6
2 0 -6 341.397 15.7921 13
-2 0 6 343.238 16.0806 3
-2 0 6 327.660 16.0255 11
2 0 -6 339.710 16.4530 7
1 0 -6 620.543 27.5659 12
-1 0 6 635.516 28.7088 3
1 0 -6 658.323 28.6374 3
-1 0 6 631.622 28.4874 3
1 0 -6 629.155 28.2221 13
-1 0 6 628.732 31.2426 9
-1 0 6 635.403 28.8339 8
1 0 -6 584.419 31.2719 9
-1 0 6 668.849 28.4889 11
1 0 -6 649.748 30.9391 6
0 0 6 50.1845 3.70609 9
0 0 -6 55.4097 4.27169 6
0 0 -6 55.5710 3.46742 10
0 0 6 48.6108 3.63178 1
0 0 -6 47.0516 4.27947 3
0 0 -6 40.9559 4.83977 13
0 0 6 44.3708 4.20024 3
0 0 -6 52.3214 4.96567 12
0 0 -6 49.1052 4.13977 9
0 0 6 45.2914 4.32174 3
0 0 6 49.6397 4.94816 8
0 0 6 58.1405 4.12973 11
-1 0 -6 453.312 22.1620 6
1 0 6 435.835 20.4289 3
1 0 6 440.478 18.8690 1
1 0 6 440.973 20.8596 8
-1 0 -6 450.200 20.3897 3
-1 0 -6 429.772 20.0149 12
1 0 6 464.276 20.3440 11
-1 0 -6 438.264 18.4292 10
1 0 6 430.369 20.4402 3
1 0 6 431.167 20.5261 2
2 0 6 112.002 7.05463 3
2 0 6 112.721 7.64814 8
-2 0 -6 105.110 7.35517 6
-2 0 -6 122.589 8.74001 4
2 0 6 117.986 6.76258 2
2 0 6 123.436 7.55211 11
-2 0 -6 122.967 7.37586 12
2 0 6 124.741 7.37079 3
-2 0 -6 121.459 7.02729 3
3 0 6 112.499 7.71452 11
-3 0 -6 113.840 7.21831 3
3 0 6 123.563 7.11583 2
3 0 6 138.723 7.45705 3
-3 0 -6 131.974 8.04080 12
-3 0 -6 118.602 7.71059 11
3 0 6 125.111 8.26877 8
-3 0 -6 110.482 7.78686 6
3 0 6 118.091 7.84114 3
-3 0 -6 130.841 9.12422 4
-4 0 -6 26.4492 3.87386 3
-4 0 -6 25.9484 4.64380 4
4 0 6 36.7663 5.15996 8
-4 0 -6 18.4016 4.47895 12
4 0 6 18.7642 3.36270 3
-4 0 -6 25.7790 3.82449 6
-4 0 -6 22.5632 4.04773 11
4 0 6 24.9567 3.78941 2
4 0 6 25.3115 4.44219 3
-5 0 -6 56.6077 7.66977 4
5 0 6 75.6678 7.42656 8
-5 0 -6 73.9320 6.09149 3
-5 0 -6 70.9509 6.25080 6
-5 0 -6 56.3287 7.74196 12
5 0 6 68.7798 5.75949 3
-5 0 -6 68.0495 7.03225 11
5 0 6 67.7995 5.65754 2
5 0 6 55.3150 7.47077 3
-6 0 -6 81.4085 8.52400 11
-6 0 -6 82.4179 9.10491 4
6 0 6 80.2766 6.81700 2
6 0 6 84.7779 6.96338 3
-6 0 -6 73.4629 7.39420 6
-6 0 -6 89.7627 7.30423 3
-7 0 -6 114.103 12.1515 4
7 0 6 111.164 8.68624 2
-7 0 -6 132.918 9.53794 3
-7 0 -6 125.583 11.0137 11
-7 0 -6 130.124 9.43868 6
7 0 6 117.375 8.98509 3
8 0 6 98.7375 12.7037 8
-8 0 -6 88.3118 12.0298 12
-8 0 -6 77.3274 11.7669 11
8 0 6 82.1090 7.84874 2
-8 0 -6 81.1347 9.21638 3
-8 0 -6 73.5818 12.0431 4
-8 0 -6 91.4419 8.73678 6
8 0 6 67.9623 9.12704 3
9 0 6 10.0355 7.21960 3
9 0 6 22.4681 8.90881 8
-9 0 -6 13.8510 5.97756 6
9 0 6 12.2713 5.54027 2
-9 0 -6 14.2012 8.31740 4
-9 0 -6 3.97451 7.03147 3
-9 0 -6 10.7626 9.00549 11
-9 0 -6 21.7749 9.41981 12
10 -1 -6 -6.8867 5.21168 2
-10 -1 6 4.23335 7.34602 3
10 -1 -6 -0.7232 5.33324 6
-10 -1 6 4.23544 7.02529 11
10 -1 -6 2.96212 7.46688 7
10 -1 -6 1.70795 7.40503 3
10 -1 -6 2.10931 6.37294 13
-10 1 6 1.75304 6.62253 11
10 1 -6 3.05582 5.81732 13
10 1 -6 3.10855 5.58565 2
-10 1 6 1.01628 7.30610 3
-10 1 6 -0.5828 7.66079 9
10 1 -6 -1.5631 7.73512 3
9 -1 -6 91.3549 8.55057 13
-9 -1 6 63.4529 9.18925 3
9 -1 -6 79.3934 9.61941 3
9 -1 -6 83.9943 6.64723 2
9 -1 -6 72.5016 9.07235 7
9 -1 -6 65.7500 7.73456 6
-9 -1 6 56.5382 9.06607 11
-9 -1 6 76.1478 10.6345 9
-9 1 6 73.3839 10.3965 9
9 1 -6 67.0673 7.44632 2
9 1 -6 72.4544 9.93068 3
-9 1 6 69.9391 9.02681 11
-9 1 6 58.7677 9.55630 3
8 -1 -6 18.6582 4.49350 6
-8 -1 6 27.3388 5.64407 3
8 -1 -6 21.2586 5.93106 7
8 -1 -6 32.8535 5.89367 3
8 1 -6 25.4493 4.20852 2
-8 1 6 33.1422 5.73712 3
8 1 -6 20.7612 5.70329 3
-7 -1 6 147.527 9.89851 11
7 -1 -6 156.510 10.4684 3
-7 -1 6 152.014 10.1326 3
7 -1 -6 159.766 9.84297 6
7 -1 -6 162.261 10.3025 7
7 -1 -6 167.671 10.0344 13
-7 1 6 164.714 10.3422 3
7 1 -6 153.729 10.4775 3
6 -1 -6 41.3179 5.17803 13
-6 -1 6 42.2616 5.38918 3
6 -1 -6 30.6819 4.90507 7
-6 -1 6 36.2235 5.68796 11
6 -1 -6 36.9260 5.97960 3
6 -1 -6 39.7067 5.01052 6
-6 -1 6 24.9527 4.71172 9
6 1 -6 41.4256 5.14148 13
6 1 -6 39.5599 6.07248 3
-6 1 6 38.3368 5.88400 11
-6 1 6 44.1803 5.83142 3
-6 1 6 27.6649 4.74662 9
-5 -1 6 586.501 30.3640 9
5 -1 -6 613.458 27.7137 3
5 -1 -6 626.232 29.2724 6
-5 -1 6 627.818 27.4612 3
-5 -1 6 581.629 27.3432 11
5 -1 -6 583.544 26.7240 13
5 -1 -6 585.275 28.3538 7
-5 -1 6 550.390 27.0997 3
5 1 -6 613.467 27.7393 7
5 1 -6 592.064 27.3523 3
5 1 -6 635.991 29.5435 6
-5 1 6 588.405 27.6457 3
5 1 -6 590.930 26.8423 13
-5 1 6 572.671 30.3213 9
-5 1 6 577.574 27.4637 11
-4 -1 6 82.5135 6.93277 9
-4 -1 6 95.6693 6.57657 8
-4 -1 6 91.1343 6.12241 3
4 -1 -6 89.6638 6.10176 12
-4 -1 6 84.3871 6.00515 3
-4 -1 6 89.0666 6.43782 11
4 -1 -6 93.3591 6.11468 6
4 -1 -6 82.2108 6.44711 7
4 -1 -6 91.3554 6.06423 13
4 -1 -6 97.7016 6.78861 3
-4 1 6 89.6038 6.46700 8
-4 1 6 86.3900 6.72032 3
-4 1 6 103.221 6.78112 11
-4 1 6 80.2244 6.54488 9
4 1 -6 89.0080 6.21630 3
4 1 -6 86.1907 6.22092 6
4 1 -6 84.6104 6.01592 13
4 1 -6 98.2457 5.51098 7
3 -1 -6 123.174 7.52374 7
-3 -1 6 104.474 6.47694 3
3 -1 -6 116.120 7.01470 12
-3 -1 6 110.062 7.11904 11
-3 -1 6 102.246 7.16139 8
3 -1 -6 120.878 7.18519 6
-3 -1 6 113.273 6.82727 3
-3 -1 6 116.432 7.68453 9
3 -1 -6 119.006 6.97755 13
3 -1 -6 118.999 7.44674 3
-3 1 6 102.103 7.12586 11
3 1 -6 115.530 6.83567 3
-3 1 6 117.078 7.37001 8
3 1 -6 104.915 6.99174 6
3 1 -6 119.402 7.01129 13
-3 1 6 107.937 7.29032 9
-3 1 6 118.690 7.14189 3
3 1 -6 115.626 6.39922 7
-2 -1 6 213.859 10.9516 3
2 -1 -6 219.954 10.9631 13
2 -1 -6 225.799 11.2875 3
-2 -1 6 223.831 11.7737 9
-2 -1 6 222.879 10.7859 3
2 -1 -6 220.840 11.7575 7
-2 -1 6 213.737 10.7479 11
2 -1 -6 220.897 11.7027 6
2 -1 -6 220.838 11.0005 12
-2 -1 6 226.910 11.5118 8
-2 1 6 208.962 11.2463 11
-2 1 6 215.723 11.3329 3
2 1 -6 214.216 11.0482 7
-2 1 6 205.571 11.0694 3
-2 1 6 226.996 11.4220 8
2 1 -6 222.366 11.0288 13
2 1 -6 222.029 10.9267 3
2 1 -6 211.683 11.7860 6
1 -1 -6 23.2181 3.17982 6
1 -1 -6 22.1090 3.54389 12
-1 -1 6 28.1301 4.14578 8
1 -1 -6 18.8793 2.87494 9
-1 -1 6 20.7304 2.99338 9
1 -1 -6 22.6590 3.52154 3
-1 -1 6 23.4247 3.60814 3
-1 -1 6 29.1673 3.08719 11
-1 -1 6 25.1158 2.89511 3
1 -1 -6 19.4858 3.44328 13
1 -1 -6 21.5125 3.90035 7
1 1 -6 27.3146 3.34998 9
-1 1 6 23.1008 3.25024 3
-1 1 6 25.1314 3.94790 11
-1 1 6 25.5890 3.85741 3
1 1 -6 24.6926 3.33340 6
-1 1 6 21.4720 2.69724 9
1 1 -6 23.4116 3.45172 13
1 1 -6 26.3629 3.51551 11
-1 1 6 24.5935 3.49167 8
1 1 -6 29.4135 3.48548 3
-1 1 6 25.3935 3.03471 2
0 -1 -6 301.148 14.9970 6
0 -1 -6 294.399 13.6877 12
0 -1 -6 276.198 13.8818 3
0 -1 6 273.125 13.3754 11
0 -1 6 272.361 13.4651 3
0 -1 6 307.778 14.5814 9
0 -1 -6 321.018 14.0815 13
0 -1 6 300.899 12.9133 1
0 -1 6 293.964 13.6332 3
0 -1 6 279.272 14.1643 8
0 -1 6 311.981 13.8115 11
0 -1 -6 293.564 14.9485 9
0 1 6 287.709 14.2807 8
0 1 6 249.052 13.7443 3
0 1 6 300.683 14.6944 9
0 1 -6 268.746 14.5234 9
0 1 6 263.048 13.9853 11
0 1 -6 281.925 12.1906 10
0 1 6 264.079 13.7702 2
0 1 -6 309.183 13.9979 13
0 1 -6 283.811 13.5303 3
0 1 -6 277.942 14.8429 6
0 1 6 285.591 14.0241 3
0 1 -6 267.541 13.1054 12
-1 -1 -6 57.9961 4.69703 9
1 -1 6 45.0947 4.66303 11
1 1 6 66.1662 5.10086 3
1 1 6 38.5897 4.65110 11
2 -1 6 360.742 15.4232 1
-2 -1 -6 343.485 16.3859 3
2 -1 6 345.759 16.8798 8
2 -1 6 333.231 16.0184 3
-2 -1 -6 349.029 17.7883 6
2 -1 6 334.866 16.0272 11
2 -1 6 352.145 16.2022 3
-2 -1 -6 322.579 20.5311 4
-2 -1 -6 331.213 16.2551 12
2 -1 6 369.038 16.0264 11
2 1 6 324.041 16.4064 3
-2 1 -6 363.031 16.0555 3
-2 1 -6 349.584 17.6873 6
2 1 6 328.686 16.6012 3
2 1 6 345.590 16.4697 11
2 1 6 326.875 16.3729 2
2 1 6 354.591 16.9015 8
-2 1 -6 320.695 15.9983 12
3 -1 6 63.4970 4.63047 11
3 -1 6 58.5743 5.75309 8
-3 -1 -6 49.5044 6.36557 4
3 -1 6 57.4146 4.58570 3
3 -1 6 62.3052 5.23702 3
-3 -1 -6 55.3816 5.46322 11
-3 -1 -6 56.7806 5.32638 6
-3 -1 -6 59.0922 5.28716 3
-3 -1 -6 59.1893 5.85881 12
3 1 6 56.3581 5.59230 11
3 1 6 58.5227 4.89841 2
-3 1 -6 58.9965 4.68992 3
3 1 6 64.5305 6.34700 8
-3 1 -6 48.4009 4.98689 6
3 1 6 57.0878 4.99396 3
-3 1 -6 59.8954 6.23308 4
3 1 6 59.9189 6.09008 3
-3 1 -6 60.9491 6.11564 12
-4 -1 -6 2.15507 2.43208 6
-4 -1 -6 6.30941 3.65083 12
4 -1 6 5.90370 3.65669 8
4 -1 6 6.52193 2.71572 3
-4 -1 -6 1.84491 3.60355 4
-4 -1 -6 2.18326 3.35191 3
-4 -1 -6 8.56270 3.60569 11
4 -1 6 5.20230 3.28637 3
-4 1 -6 6.42748 3.73576 4
-4 1 -6 1.22972 2.73674 6
4 1 6 3.06681 3.46235 8
-4 1 -6 3.71757 3.10671 11
-4 1 -6 4.46649 2.65862 3
-4 1 -6 3.79852 3.98787 12
4 1 6 6.57676 2.79185 3
4 1 6 7.38633 2.64508 2
-5 -1 -6 127.797 8.91968 3
5 -1 6 146.877 8.36951 3
-5 -1 -6 144.480 11.3804 4
5 -1 6 121.585 9.15934 3
5 -1 6 139.605 8.15972 2
-5 -1 -6 140.663 9.11335 6
5 -1 6 138.946 9.95539 8
-5 -1 -6 140.793 9.56375 11
-5 1 -6 121.506 8.15202 3
5 1 6 141.882 8.49498 3
-5 1 -6 147.625 11.2215 4
-5 1 -6 131.325 9.00334 6
-5 1 -6 137.708 9.43509 11
-5 1 -6 143.823 10.0100 12
5 1 6 141.887 8.39784 2
6 -1 6 1.21198 3.31903 2
6 -1 6 7.61032 5.34369 8
6 -1 6 4.12209 3.74309 3
-6 -1 -6 4.14670 5.11878 4
-6 -1 -6 3.84942 3.25810 6
-6 -1 -6 3.58617 4.17319 3
-6 -1 -6 5.49564 5.04184 11
6 1 6 6.42410 3.51165 2
-6 1 -6 0.20630 5.60592 12
-6 1 -6 4.68940 3.42179 6
6 1 6 5.17443 3.81977 3
-6 1 -6 2.62990 3.59982 3
-6 1 -6 2.56427 4.67566 11
-6 1 -6 2.09503 5.04499 4
-7 -1 -6 185.528 13.1811 11
7 -1 6 167.618 11.0398 3
-7 -1 -6 187.383 15.0808 4
-7 -1 -6 183.258 11.6242 6
-7 -1 -6 168.932 11.5473 3
7 -1 6 172.004 10.2645 2
7 1 6 168.022 13.6126 8
-7 1 -6 170.970 14.8602 4
-7 1 -6 170.472 11.6234 6
7 1 6 179.366 10.8147 2
7 1 6 183.863 11.4685 3
-7 1 -6 169.996 11.0797 3
-7 1 -6 177.473 13.3827 12
-7 1 -6 178.578 12.5912 11
8 -1 6 3.84165 5.48284 3
-8 -1 -6 15.2418 6.08259 3
-8 -1 -6 10.3286 4.87947 6
-8 -1 -6 2.15441 7.93937 11
-8 -1 -6 7.73899 8.01682 12
-8 -1 -6 6.53460 7.42378 4
8 -1 6 15.5558 7.74159 8
-8 1 -6 -1.7972 7.30438 4
8 1 6 10.8268 4.90455 2
8 1 6 10.3718 5.50420 3
-8 1 -6 5.12138 8.11112 11
-8 1 -6 4.64858 5.99976 3
-8 1 -6 4.48297 8.01026 12
8 1 6 2.91767 7.24687 8
-8 1 -6 10.6023 5.21829 6
-9 -1 -6 9.07056 6.13178 6
-9 -1 -6 5.68998 9.17681 11
-9 -1 -6 7.61722 6.72973 3
9 -1 6 13.6509 9.45599 8
-9 -1 -6 2.01402 8.67031 4
9 -1 6 -5.0872 7.24766 3
-9 -1 -6 11.0150 9.44186 12
9 1 6 -4.7053 5.68593 2
-9 1 -6 3.05579 9.35439 11
9 1 6 8.08922 8.96902 8
9 1 6 -3.3962 7.23711 3
-9 1 -6 15.8742 9.27161 12
-9 1 -6 0.01485 5.87944 6
-9 1 -6 10.7684 7.71649 3
10 -2 -6 14.0533 8.53889 7
10 -2 -6 15.9791 7.76453 13
10 -2 -6 1.51979 7.88680 3
-10 -2 6 24.5926 7.96664 3
10 -2 -6 7.06776 4.98681 2
-10 -2 6 9.73037 7.39119 11
10 2 -6 4.28617 7.92226 3
10 2 -6 26.5482 7.00706 2
-10 2 6 15.2526 7.85990 9
-10 2 6 17.7514 7.88683 11
10 2 -6 30.3722 7.24508 13
-10 2 6 14.4830 8.17767 3
9 -2 -6 16.2995 5.78902 13
-9 -2 6 6.19068 5.97052 3
9 -2 -6 17.2884 6.67062 7
9 -2 -6 4.86273 6.20573 3
-9 -2 6 12.2597 6.68851 11
9 2 -6 0.69706 6.51205 3
9 2 -6 12.0343 5.75667 13
-9 2 6 9.25492 6.52629 3
-9 2 6 20.1037 7.22267 11
-9 2 6 11.4776 7.24020 9
8 -2 -6 3.21518 5.60042 7
8 -2 -6 -5.5094 5.16808 3
-8 -2 6 4.75307 4.60364 3
8 -2 -6 1.43201 4.77038 13
-8 2 6 -6.6185 4.47327 9
8 2 -6 2.56639 4.60850 13
-8 2 6 -1.5586 5.39130 11
8 2 -6 -2.4676 5.66048 3
8 2 -6 -2.1944 3.61880 2
-8 2 6 6.54797 5.23788 3
7 -2 -6 57.1076 7.44426 7
-7 -2 6 60.3645 7.17588 3
7 -2 -6 61.5565 7.37154 13
7 -2 -6 62.7251 7.37306 3
-7 -2 6 49.5055 6.70966 11
-7 2 6 75.4835 7.94426 3
7 2 -6 60.8618 5.62261 2
-7 2 6 63.1430 7.73088 11
7 2 -6 65.4123 7.99850 3
7 2 -6 61.9701 6.82976 13
6 -2 -6 524.397 24.6338 7
6 -2 -6 472.396 24.7651 6
6 -2 -6 523.370 22.9410 13
-6 -2 6 458.729 23.2738 11
-6 -2 6 515.835 23.5221 3
6 -2 -6 491.962 23.8757 3
6 2 -6 507.088 23.6527 3
-6 2 6 491.918 23.8441 3
-6 2 6 466.554 23.6580 11
6 2 -6 498.774 22.9596 13
-5 -2 6 21.8823 4.13998 11
5 -2 -6 29.0494 4.31622 13
5 -2 -6 22.8323 4.13515 3
5 -2 -6 15.5088 3.54047 7
5 -2 -6 20.7174 3.84394 6
-5 -2 6 15.5111 3.65363 3
-5 -2 6 25.3919 3.98770 3
-5 2 6 19.3604 4.39811 3
-5 2 6 25.4176 4.72340 11
5 2 -6 27.3125 4.02923 3
-5 2 6 14.7440 3.66304 9
5 2 -6 19.4907 3.51396 13
-4 -2 6 156.056 9.66034 3
-4 -2 6 168.488 10.1783 11
4 -2 -6 178.263 10.7072 7
4 -2 -6 200.944 10.1854 12
4 -2 -6 200.840 10.7374 3
-4 -2 6 207.130 10.1567 3
4 -2 -6 204.683 10.0674 13
-4 2 6 172.458 10.6337 11
-4 2 6 164.390 10.2502 8
4 2 -6 201.963 10.1925 13
-4 2 6 203.261 11.1902 9
-4 2 6 209.562 10.8727 3
3 -2 -6 226.549 12.4759 6
-3 -2 6 244.016 10.1343 10
3 -2 -6 228.341 11.5111 13
-3 -2 6 234.571 11.6334 11
3 -2 -6 231.532 12.1888 3
-3 -2 6 231.039 11.9818 8
-3 -2 6 233.566 11.4488 3
3 -2 -6 228.289 12.5063 7
3 -2 -6 225.622 11.6555 12
-3 -2 6 227.901 11.2734 3
-3 2 6 239.224 12.2566 11
-3 2 6 212.324 12.8712 9
3 2 -6 237.945 12.6503 6
-3 2 6 247.286 12.0317 8
3 2 -6 226.506 11.6157 13
-3 2 6 209.818 12.0712 3
3 2 -6 241.840 11.4743 3
-3 2 6 221.928 11.5610 2
2 -2 -6 213.204 11.7514 7
-2 -2 6 235.398 10.6741 11
2 -2 -6 220.948 11.0448 13
2 -2 -6 225.326 11.5588 3
2 -2 -6 208.135 11.0462 12
-2 -2 6 210.767 10.4740 3
-2 -2 6 226.810 9.58392 10
2 -2 -6 235.792 11.8952 6
-2 -2 6 232.697 11.6239 8
-2 -2 6 223.902 10.8023 3
2 2 -6 214.902 11.1210 13
2 2 -6 201.495 10.6470 11
-2 2 6 212.526 11.2913 8
-2 2 6 218.210 11.6335 3
2 2 -6 218.869 10.7252 3
2 2 -6 208.986 11.8038 6
-2 2 6 210.553 11.4154 11
-2 2 6 209.064 10.9741 2
-2 2 6 202.464 12.0941 9
-1 -2 6 107.755 5.92224 5
1 -2 -6 104.632 6.91824 3
1 -2 -6 99.0611 6.62963 13
-1 -2 6 97.6047 5.85140 1
-1 -2 6 98.4117 6.58756 8
1 -2 -6 113.157 6.68576 6
1 -2 -6 105.057 7.32464 7
1 -2 -6 95.7229 6.83510 12
-1 -2 6 111.206 5.36293 10
-1 -2 6 112.572 5.86164 11
1 2 -6 102.178 6.61387 13
-1 2 6 103.558 6.99764 8
-1 2 6 103.165 6.78407 3
1 2 -6 106.406 6.70354 6
1 2 -6 102.942 5.96208 11
1 2 -6 101.291 6.66735 9
-1 2 6 97.9992 6.16067 2
-1 2 6 90.2057 7.17658 9
-1 2 6 107.878 6.99461 11
0 -2 -6 -1.0399 1.90896 6
0 -2 -6 6.25638 3.20100 13
0 -2 -6 0.98612 2.68053 7
0 -2 -6 0.66719 2.42479 3
0 -2 6 2.92254 2.17741 10
0 -2 -6 2.70877 2.80374 9
0 -2 6 4.59377 1.48044 5
0 -2 6 2.82267 2.78709 11
0 -2 6 -1.1476 1.77438 11
0 -2 6 1.39195 1.94211 1
0 -2 6 1.99799 2.83267 8
0 -2 -6 1.68180 2.69024 12
0 2 6 -0.9938 2.11338 3
0 2 6 3.53755 2.25051 2
0 2 6 3.40018 2.65556 8
0 2 6 -0.4193 2.31826 11
0 2 -6 5.15905 2.16435 9
0 2 -6 2.10576 1.98323 6
0 2 -6 1.55308 2.98577 13
0 2 6 4.69881 2.11400 9
-1 -2 -6 1051.95 52.5843 9
-1 -2 -6 1071.62 47.8785 3
1 -2 6 1084.83 44.8056 1
-1 -2 -6 1043.03 60.0248 4
-1 -2 -6 1089.75 51.4797 6
1 -2 6 1134.63 43.1540 5
1 -2 6 1060.34 47.8820 8
-1 -2 -6 1082.95 46.3184 12
1 -2 6 1121.75 46.8623 11
1 -2 6 1091.60 46.7305 11
1 2 6 1043.48 48.2094 2
1 2 6 1056.03 47.6864 11
1 2 6 1035.55 47.8694 8
1 2 6 1078.35 52.4106 9
-1 2 -6 1042.10 45.7288 12
1 2 6 1131.88 48.0824 3
-1 2 -6 1034.77 51.3907 6
2 -2 6 68.6196 6.77585 8
2 -2 6 84.8422 4.48782 5
-2 -2 -6 78.1503 6.00756 6
-2 -2 -6 84.0252 5.98265 3
-2 -2 -6 74.4669 7.66640 4
2 -2 6 73.5584 5.33798 1
-2 -2 -6 73.5508 6.34895 12
2 -2 6 87.8315 5.04721 11
-2 -2 -6 87.0941 6.57809 9
2 -2 6 81.6845 5.37474 11
2 2 6 81.7295 7.03555 8
-2 2 -6 81.2830 6.47348 12
2 2 6 77.0512 6.00344 3
2 2 6 81.0688 5.62589 2
-2 2 -6 83.2998 5.92254 6
2 2 6 82.2753 5.46941 9
2 2 6 85.7419 6.38386 11
-3 -2 -6 83.3088 6.19786 6
-3 -2 -6 80.1716 6.66431 12
-3 -2 -6 79.3475 6.50747 3
3 -2 6 78.0549 5.22088 11
3 -2 6 73.5207 5.53611 11
-3 -2 -6 74.3654 6.44596 11
3 -2 6 73.9099 7.09146 8
-3 -2 -6 81.5395 7.81448 4
3 2 6 85.7580 6.30568 3
-3 2 -6 77.8615 6.70161 4
3 2 6 71.8544 6.52006 11
3 2 6 83.0939 5.88553 2
-3 2 -6 72.9331 6.05061 6
3 2 6 79.0859 7.03947 8
-3 2 -6 88.4609 7.11458 12
-4 -2 -6 85.3407 6.57003 3
-4 -2 -6 70.2026 7.11118 11
-4 -2 -6 54.0881 6.97175 12
4 -2 6 73.9832 6.01236 11
4 -2 6 86.9104 7.67833 8
4 -2 6 70.9919 5.87442 3
-4 -2 -6 88.3454 6.57198 6
-4 -2 -6 68.4035 8.34334 4
4 -2 6 77.7358 5.65626 11
-4 2 -6 77.8675 5.55852 11
4 2 6 75.4881 6.32112 3
4 2 6 77.3237 6.24835 2
-4 2 -6 69.3552 6.38602 6
-4 2 -6 76.4165 7.51743 4
4 2 6 88.7363 7.90726 8
-4 2 -6 85.9938 7.82334 12
-5 -2 -6 98.3565 8.43273 11
-5 -2 -6 110.191 7.66518 6
5 -2 6 89.3241 7.35684 3
5 -2 6 102.735 6.76533 3
-5 -2 -6 84.4673 10.0012 4
-5 -2 -6 107.051 7.84413 3
5 -2 6 111.339 9.27813 8
5 2 6 93.7315 7.40267 2
-5 2 -6 105.071 7.56556 6
-5 2 -6 87.4222 9.19984 4
5 2 6 104.500 7.39478 3
-5 2 -6 104.209 7.76920 11
-5 2 -6 92.8582 8.98127 12
-5 2 -6 100.364 6.61380 3
-6 -2 -6 -0.4176 3.26032 6
-6 -2 -6 1.00759 4.09249 3
6 -2 6 -3.2603 3.42534 3
-6 -2 -6 -0.6663 4.87561 11
-6 -2 -6 -7.8732 5.22413 4
6 -2 6 4.00254 5.18041 8
6 2 6 -1.4414 4.01929 3
6 2 6 1.05038 4.09284 2
-6 2 -6 1.55373 5.31598 11
-6 2 -6 -0.9822 5.34953 12
-6 2 -6 -0.2077 4.58409 4
-6 2 -6 1.04156 3.49779 3
-6 2 -6 2.63577 3.25394 6
-7 -2 -6 22.5143 5.08124 6
-7 -2 -6 28.0895 6.77534 11
-7 -2 -6 23.0887 5.64592 3
7 -2 6 29.9578 5.48476 3
-7 -2 -6 22.0521 7.53862 4
-7 -2 -6 34.9925 7.05439 12
-7 2 -6 26.5462 5.56931 3
-7 2 -6 24.1594 6.92273 4
7 2 6 19.7275 6.00570 3
7 2 6 20.1504 5.39498 2
-7 2 -6 31.8035 7.32283 12
-7 2 -6 29.2347 7.09619 11
7 2 6 21.1541 7.68775 8
-7 2 -6 27.6376 5.15307 6
-8 -2 -6 56.8539 8.15330 6
8 -2 6 36.9812 6.73538 3
-8 -2 -6 43.8690 7.65821 3
-8 -2 -6 43.7693 9.18634 12
8 -2 6 44.1975 8.57937 8
-8 -2 -6 42.2943 8.89543 11
-8 -2 -6 32.8265 9.43393 4
8 2 6 35.5580 7.43149 3
-8 2 -6 43.8615 9.62128 12
-8 2 -6 47.8467 8.62894 11
-8 2 -6 41.3958 6.22778 6
-8 2 -6 42.5288 8.34009 4
8 2 6 44.0313 9.34562 8
10 -3 -6 13.6085 8.58069 3
10 -3 -6 15.8245 8.15111 13
10 -3 -6 16.8292 9.34930 7
-10 -3 6 15.1597 8.19984 3
-10 -3 6 14.9407 8.60497 11
10 3 -6 14.0098 8.83860 3
10 3 -6 17.0776 7.25254 13
-10 3 6 15.8453 8.63519 11
-10 3 6 27.1595 8.40105 9
10 3 -6 23.7237 7.53673 2
-10 3 6 31.7781 9.46715 3
9 -3 -6 130.892 12.0794 7
9 -3 -6 107.520 11.7679 3
-9 -3 6 86.2179 10.7211 11
-9 -3 6 109.606 10.6814 3
9 -3 -6 117.522 10.7786 13
9 3 -6 92.7231 11.9897 3
-9 3 6 118.404 11.7995 11
9 3 -6 134.560 10.6199 13
-9 3 6 113.576 13.1614 9
-9 3 6 107.819 12.2910 3
9 3 -6 133.783 10.1264 2
8 -3 -6 51.9134 7.24319 13
-8 -3 6 36.0744 6.17437 3
8 -3 -6 28.7465 6.71899 3
8 -3 -6 42.7038 7.56494 7
-8 3 6 43.0443 7.15293 3
-8 3 6 48.5859 8.08625 11
-8 3 6 26.5509 6.50597 9
8 3 -6 30.0932 6.81701 3
7 -3 -6 87.9005 8.91258 7
-7 -3 6 81.7388 8.20809 11
7 -3 -6 91.4464 7.91133 13
-7 -3 6 91.0641 7.86150 3
7 -3 -6 80.3161 8.93676 3
-7 3 6 78.0523 9.08961 3
7 3 -6 93.0396 8.17674 13
7 3 -6 79.2677 8.85780 3
-7 3 6 82.3774 8.79258 11
6 -3 -6 9.99580 3.73504 13
-6 -3 6 8.66522 4.09517 3
6 -3 -6 3.16992 4.53274 3
-6 -3 6 3.70151 4.05056 11
6 -3 -6 4.98697 4.62495 7
-6 -3 6 8.04071 4.49699 3
-6 3 6 6.52296 4.46945 11
-6 3 6 0.71147 4.79916 3
6 3 -6 3.82187 3.89336 13
6 3 -6 3.82127 4.07158 3
6 3 -6 7.03015 3.29232 2
-5 -3 6 36.0590 5.49323 11
-5 -3 6 49.2734 5.73122 3
5 -3 -6 41.2144 5.57060 6
5 -3 -6 45.9918 5.34311 13
5 -3 -6 57.5027 6.02940 7
5 -3 -6 52.5356 6.39455 3
-5 -3 6 40.4536 5.27142 3
5 3 -6 55.3545 4.56719 2
5 3 -6 52.6796 5.22338 13
5 3 -6 44.6535 5.55553 3
-5 3 6 37.9663 6.37231 3
-5 3 6 60.6290 6.65160 11
-4 -3 6 5.46399 3.08202 3
4 -3 -6 3.28810 2.98843 6
-4 -3 6 4.99595 3.22465 11
4 -3 -6 5.04623 3.06595 13
4 -3 -6 4.58963 3.09205 12
-4 -3 6 4.40811 2.75765 3
4 -3 -6 2.91889 3.19782 3
4 -3 -6 6.20632 3.48446 7
-4 3 6 -0.8348 2.89685 9
-4 3 6 1.18851 3.47351 11
4 3 -6 2.31748 2.93669 13
4 3 -6 5.01750 3.11172 3
-4 3 6 1.89856 3.50213 3
-4 3 6 3.65045 2.57212 2
-3 -3 6 30.3895 3.74622 3
-3 -3 6 29.2022 4.18123 11
3 -3 -6 32.9605 5.18455 6
3 -3 -6 41.4178 4.83002 13
3 -3 -6 47.1718 5.68378 3
3 -3 -6 50.2995 5.59245 12
-3 -3 6 41.4024 4.32544 5
3 -3 -6 39.5064 5.48189 7
-3 3 6 42.5000 5.82793 11
3 3 -6 42.7226 5.13107 13
-3 3 6 45.7097 5.94010 3
-3 3 6 41.2234 4.08889 2
3 3 -6 43.0836 4.39077 3
-3 3 6 48.7773 6.13652 9
2 -3 -6 388.974 19.5443 3
-2 -3 6 390.777 17.6351 5
2 -3 -6 414.999 20.4415 6
-2 -3 6 401.221 19.3959 8
-2 -3 6 401.229 17.2450 10
2 -3 -6 427.656 18.7543 13
-2 -3 6 419.816 18.4667 11
2 -3 -6 397.984 20.2779 7
2 -3 -6 406.419 18.8655 12
2 3 -6 416.918 18.9146 13
2 3 -6 365.595 18.3855 11
-2 3 6 418.247 19.8423 3
-2 3 6 404.556 19.2223 2
-2 3 6 407.380 21.4913 9
-2 3 6 412.299 19.2648 8
-2 3 6 400.245 19.4227 11
2 3 -6 411.139 20.6967 6
-1 -3 6 13.9350 2.99395 10
1 -3 -6 10.4232 3.46573 13
-1 -3 6 9.18692 2.43618 1
1 -3 -6 11.8956 2.59142 6
-1 -3 6 12.6488 2.23477 11
-1 -3 6 10.1059 2.40654 5
1 -3 -6 11.3007 3.39452 3
1 -3 -6 10.5784 3.81803 12
-1 -3 6 11.0644 3.51025 8
1 -3 -6 13.2853 3.54700 7
1 3 -6 10.9061 2.35555 6
1 3 -6 9.80112 3.22140 13
-1 3 6 10.8987 3.53019 3
-1 3 6 11.5493 2.64451 2
-1 3 6 9.66814 3.46462 11
1 3 -6 11.8118 2.61661 7
1 3 -6 9.66979 2.24615 11
-1 3 6 9.84618 3.43806 8
-1 3 6 13.1354 3.25214 9
0 -3 6 829.444 34.5682 5
0 -3 -6 913.657 47.9992 4
0 -3 -6 893.865 37.2637 13
0 -3 -6 877.270 37.0982 12
0 -3 6 870.039 35.7993 1
0 -3 -6 902.753 40.1668 7
0 -3 6 830.894 38.1846 8
0 -3 6 854.197 34.2054 10
0 -3 -6 780.545 38.1419 3
0 -3 -6 878.185 40.9364 6
0 3 -6 897.954 37.4515 13
0 3 6 826.723 38.0779 8
0 3 6 819.189 38.4295 2
0 3 6 785.301 38.3471 3
0 3 6 764.527 37.9626 11
0 3 -6 782.619 41.3928 9
0 3 -6 845.086 41.0168 6
0 3 6 877.238 42.0758 9
1 -3 6 31.2352 4.20400 1
-1 -3 -6 31.4030 4.70319 3
1 -3 6 44.8918 5.76347 8
-1 -3 -6 42.1538 4.58487 6
-1 -3 -6 38.6436 5.75708 4
1 -3 6 40.9421 4.53909 10
1 -3 6 46.4796 4.05920 5
-1 -3 -6 39.9959 5.64977 12
-1 -3 -6 35.7707 5.65539 7
1 3 6 46.0145 4.67703 2
1 3 6 35.5970 5.60352 11
1 3 6 42.5685 3.49392 5
1 3 6 36.3781 5.72665 9
-1 3 -6 45.9130 4.12157 9
1 3 6 47.8279 5.68401 8
1 3 6 43.6211 5.77281 3
-1 3 -6 45.4468 4.39123 6
-1 3 -6 34.9309 4.97396 13
-2 -3 -6 299.951 15.2435 12
-2 -3 -6 311.062 16.1058 6
-2 -3 -6 284.577 18.8453 4
2 -3 6 302.761 15.4671 8
2 -3 6 281.413 14.2006 1
2 -3 6 340.905 13.2860 5
-2 -3 -6 304.355 15.2346 3
-2 3 -6 309.313 15.9441 6
2 3 6 297.029 15.2480 2
2 3 6 283.856 15.2881 3
2 3 6 315.814 15.6381 8
2 3 6 301.966 15.5224 11
-3 -3 -6 10.6609 3.91770 11
-3 -3 -6 11.7283 4.10390 12
3 -3 6 12.3411 2.37773 5
-3 -3 -6 9.58993 3.92199 4
3 -3 6 10.7910 4.24831 8
-3 -3 -6 8.17299 3.58584 3
-3 -3 -6 11.7858 2.90305 6
3 3 6 9.19763 3.69946 11
3 3 6 8.78851 3.10148 2
3 3 6 11.6624 3.10076 9
-3 3 -6 10.3701 2.69355 6
3 3 6 13.9008 3.85036 3
3 3 6 14.3646 3.87935 8
-3 3 -6 19.1933 4.57556 12
4 -3 6 -1.5981 4.19045 8
-4 -3 -6 2.14052 4.45227 12
-4 -3 -6 3.77535 3.53090 11
-4 -3 -6 4.33499 3.24613 3
-4 -3 -6 -0.6468 4.60576 4
-4 -3 -6 2.62094 2.56995 6
-4 3 -6 1.22936 2.87880 6
4 3 6 5.38356 3.10316 3
4 3 6 1.81956 3.18747 2
-4 3 -6 7.88526 4.54705 12
4 3 6 2.86676 3.07615 9
4 3 6 0.58816 4.33020 8
-5 -3 -6 39.3916 5.42547 6
-5 -3 -6 30.4953 6.51160 4
-5 -3 -6 35.5560 5.25308 3
5 -3 6 37.1468 6.03712 8
-5 -3 -6 42.8416 6.63828 11
5 3 6 26.0763 5.75122 8
-5 3 -6 33.7803 5.67263 6
5 3 6 35.7785 5.10344 2
5 3 6 30.6016 5.03173 3
-5 3 -6 26.8655 5.44133 4
5 3 6 46.6433 6.20750 9
-5 3 -6 46.8244 6.75543 12
6 -3 6 7.76541 5.93817 8
-6 -3 -6 6.68588 5.40205 11
-6 -3 -6 7.17313 4.79759 3
-6 -3 -6 6.46304 5.75830 4
-6 -3 -6 2.26885 3.69267 6
-6 3 -6 4.91688 4.07462 6
-6 3 -6 3.11275 4.93635 4
6 3 6 8.30270 5.11579 3
-6 3 -6 4.59402 6.92174 12
-7 -3 -6 101.141 11.5192 12
-7 -3 -6 85.6221 10.9283 11
-7 -3 -6 94.6056 12.7069 4
-7 -3 -6 56.5443 9.31068 3
-7 -3 -6 76.7238 8.40092 6
-7 3 -6 85.4518 10.3054 11
7 3 6 74.8217 12.4057 8
7 3 6 76.1785 9.42196 3
-7 3 -6 88.1586 8.59474 6
-7 3 -6 73.3545 11.0382 4
-7 3 -6 80.8335 12.7151 12
8 -3 6 14.6081 8.34082 8
-8 -3 -6 15.4221 9.23494 12
-8 -3 -6 -3.6670 7.29063 3
-8 -3 -6 3.34849 8.90578 4
-8 -3 -6 10.2651 8.09228 11
8 -3 6 4.66774 5.91229 3
-8 -3 -6 -2.8306 5.07171 6
8 3 6 4.52916 8.43376 8
8 3 6 0.15873 6.89554 3
8 3 6 -0.6557 6.12098 2
-8 3 -6 4.59813 6.76322 4
-8 3 -6 -0.2328 5.33327 6
-8 3 -6 -5.5525 7.77595 11
-8 3 -6 -1.1625 8.85333 12
-9 -4 6 14.9343 7.35327 3
9 -4 -6 7.69566 8.09718 3
9 -4 -6 7.86534 8.10746 7
-9 -4 6 10.1664 7.62576 11
-9 -4 6 6.23846 6.33017 5
9 -4 -6 7.63649 7.42821 13
-9 4 6 7.23230 8.28551 3
9 4 -6 8.32740 7.64704 3
-9 4 6 10.9169 8.46443 11
9 4 -6 12.0199 6.84086 2
-9 4 6 1.29027 8.31905 9
9 4 -6 24.6828 6.97714 13
-8 -4 6 23.3630 6.86573 11
-8 -4 6 31.5651 6.64268 3
8 -4 -6 35.6600 7.58477 3
8 -4 -6 31.7009 7.67128 7
8 -4 -6 31.2143 6.16051 13
-8 -4 6 23.9382 6.00862 5
8 4 -6 28.0003 6.50574 13
8 4 -6 28.7923 7.40592 3
-8 4 6 6.33571 7.55693 3
8 4 -6 39.2462 6.05140 2
-8 4 6 21.9533 6.92890 9
-8 4 6 36.2058 8.35114 11
-7 -4 6 11.6594 5.63002 11
-7 -4 6 14.9623 5.06276 5
7 -4 -6 24.6180 5.23982 13
-7 -4 6 24.7595 5.55712 3
7 -4 -6 21.2418 6.33858 7
7 -4 -6 20.4860 6.41529 3
-7 4 6 20.1134 5.74368 9
-7 4 6 20.4734 6.82587 11
-7 4 6 11.2786 6.53399 3
-7 4 6 32.6552 8.96586 4
7 4 -6 18.8274 6.08923 13
7 4 -6 17.4089 6.16342 3
-6 -4 6 411.603 18.7225 3
6 -4 -6 394.729 20.4688 7
-6 -4 6 329.789 18.6663 11
6 -4 -6 364.699 19.4859 3
6 -4 -6 383.099 18.3093 13
6 4 -6 389.734 18.5116 13
-6 4 6 376.224 24.9152 4
6 4 -6 383.153 18.8569 3
-6 4 6 365.986 19.4649 11
-6 4 6 367.248 19.7830 3
5 -4 -6 4.23645 3.57338 13
-5 -4 6 -0.8503 3.71363 3
-5 -4 6 1.67886 3.05928 3
-5 -4 6 0.66272 3.92995 11
5 -4 -6 0.95534 4.01648 3
5 -4 -6 4.67961 4.02490 7
-5 4 6 2.10984 5.64945 4
-5 4 6 -1.2678 3.17337 2
-5 4 6 1.18613 4.96327 11
-5 4 6 -0.5802 4.29676 3
5 4 -6 -0.6003 3.75482 13
5 4 -6 0.12688 3.91958 3
4 -4 -6 17.7310 4.23816 3
4 -4 -6 18.0638 4.70191 7
-4 -4 6 11.0064 3.17944 5
-4 -4 6 20.7186 4.09435 11
-4 -4 6 17.1983 3.37538 3
-4 4 6 23.8338 5.19402 9
-4 4 6 29.8763 4.28562 2
4 4 -6 11.8662 3.38717 3
-4 4 6 13.4352 4.67545 11
-4 4 6 22.9419 4.79253 3
3 -4 -6 49.1667 5.31978 13
-3 -4 6 50.7079 4.93440 5
3 -4 -6 44.0363 6.22624 7
3 -4 -6 47.8626 6.15773 12
3 -4 -6 46.6710 5.39858 6
-3 -4 6 57.2936 4.60301 11
3 -4 -6 39.8900 6.04812 3
-3 4 6 51.9647 4.97416 2
-3 4 6 37.1689 6.99621 9
3 4 -6 49.2628 5.63894 13
-3 4 6 54.2242 6.42915 11
-3 4 6 46.4367 6.66686 3
3 4 -6 57.0889 4.42008 2
2 -4 -6 110.487 8.20268 7
-2 -4 6 93.3767 6.32224 5
2 -4 -6 95.8559 7.55148 12
2 -4 -6 97.3256 6.63907 13
-2 -4 6 94.4438 7.70462 8
2 -4 -6 96.2454 6.78833 6
2 -4 -6 85.0867 7.39940 3
-2 -4 6 99.9554 7.00418 10
2 4 -6 99.7509 7.17549 13
-2 4 6 112.608 8.26367 9
-2 4 6 103.946 6.61017 2
-2 4 6 94.7022 7.42427 11
-2 4 6 109.818 8.06631 3
2 4 -6 91.7504 7.11736 6
1 -4 -6 326.446 16.7224 3
1 -4 -6 333.677 16.3568 12
-1 -4 6 328.256 16.5379 8
1 -4 -6 331.273 17.4300 7
1 -4 -6 321.825 15.7214 13
1 -4 -6 343.627 17.2459 6
-1 -4 6 349.144 15.0631 5
-1 -4 6 319.036 15.4545 1
-1 -4 6 340.595 14.9221 10
-1 4 6 336.888 18.3459 9
-1 4 6 327.378 17.0374 3
-1 4 6 335.126 16.5612 8
1 4 -6 333.240 16.0875 13
1 4 -6 322.578 17.3801 6
-1 4 6 322.461 16.7161 11
-1 4 6 340.837 16.4576 2
0 -4 -6 31.3867 4.57689 6
0 -4 6 37.0555 4.93068 8
0 -4 -6 23.4403 4.71756 12
0 -4 -6 27.7610 4.55792 3
0 -4 6 26.5637 4.10072 10
0 -4 6 28.0748 4.04385 5
0 -4 -6 20.3917 4.66424 13
0 -4 6 23.4356 3.69237 1
0 -4 -6 29.8166 5.07976 7
0 4 -6 32.8644 4.55625 6
0 4 6 29.6183 4.48681 11
0 4 6 26.6941 4.58001 9
0 4 -6 19.3804 4.26461 13
0 4 6 21.3195 3.83843 3
0 4 6 29.5606 4.05192 2
0 4 6 31.7921 4.55052 8
1 -4 6 520.055 21.6339 5
1 -4 6 525.903 24.0470 8
1 -4 6 504.639 21.4904 10
-1 -4 -6 514.636 23.5535 12
1 -4 6 490.011 22.4357 1
-1 -4 -6 521.659 25.4903 6
-1 -4 -6 491.282 23.9870 3
-1 -4 -6 536.914 30.3197 4
-1 -4 -6 508.785 25.4175 7
1 4 6 496.773 24.0701 2
1 4 6 513.075 24.1413 8
1 4 6 503.924 24.2824 11
1 4 6 513.957 26.3507 9
-1 4 -6 511.580 25.4149 6
-1 4 -6 440.433 25.3682 9
-1 4 -6 497.498 23.4147 13
2 -4 6 -1.3402 2.84876 1
-2 -4 -6 -2.7810 4.41829 7
2 -4 6 1.48534 3.02859 5
2 -4 6 1.63254 4.10283 8
-2 -4 -6 -2.1119 3.64069 4
2 -4 6 -0.1032 2.89259 10
-2 -4 -6 0.25079 3.91951 12
-2 -4 -6 2.26207 2.52838 6
-2 -4 -6 2.95685 3.02616 3
-2 4 -6 0.18267 2.61684 6
2 4 6 -0.7995 3.81849 9
2 4 6 1.61471 3.32391 11
2 4 6 -0.6392 3.90530 8
2 4 6 3.37920 3.29026 3
2 4 6 6.00171 3.01318 5
-3 -4 -6 74.1057 8.28954 4
3 -4 6 64.1162 7.79772 8
3 -4 6 72.5584 5.75459 5
-3 -4 -6 81.0872 8.48116 12
-3 -4 -6 81.1914 6.35927 6
-3 -4 -6 64.5992 7.11264 3
3 -4 6 74.8069 6.32379 1
-3 -4 -6 66.6448 7.71219 7
-3 4 -6 79.1644 6.17487 6
3 4 6 68.0669 7.22641 3
3 4 6 58.0608 8.37417 8
3 4 6 81.9415 8.08328 9
4 -4 6 12.8049 5.14737 8
-4 -4 -6 9.14711 3.54026 6
-4 -4 -6 16.8076 5.36965 4
-4 -4 -6 5.02897 4.77690 12
-4 -4 -6 12.2720 3.99467 3
4 4 6 9.80668 5.08564 8
-4 4 -6 19.8664 3.98257 6
4 4 6 4.92241 4.70464 9
4 4 6 13.8165 4.49667 3
-4 4 -6 15.1858 5.39965 12
-5 -4 -6 45.4438 8.14304 4
-5 -4 -6 36.3858 6.19566 6
-5 -4 -6 37.4972 5.75473 3
5 -4 6 42.5125 6.67447 8
-5 4 -6 34.4570 5.41118 6
5 4 6 34.3756 6.49463 9
5 4 6 50.4784 7.81281 8
-5 4 -6 47.0996 7.50906 12
5 4 6 28.2024 5.96168 3
6 -4 6 -0.2108 6.47082 8
-6 -4 -6 7.01472 5.77119 3
-6 -4 -6 9.13996 6.13784 11
-6 -4 -6 0.15440 6.58334 12
-6 -4 -6 8.39009 4.43590 6
-6 -4 -6 9.08264 7.48010 4
6 4 6 7.32988 5.45566 2
6 4 6 3.87394 5.83553 3
-6 4 -6 -2.1027 7.30942 12
-6 4 -6 2.05978 3.91273 6
6 4 6 4.23446 6.96642 8
6 4 6 5.20393 5.79850 9
-7 -4 -6 27.2070 9.32374 4
-7 -4 -6 21.7881 7.59954 11
-7 -4 -6 23.5924 7.50324 3
-7 -4 -6 22.6805 8.45905 12
-7 -4 -6 17.3239 5.12569 6
-7 4 -6 28.4095 5.60720 6
-7 4 -6 17.2258 7.20752 4
7 4 6 25.7940 7.79706 9
7 4 6 32.6072 7.38148 2
-7 4 -6 26.2421 9.48965 12
7 4 6 19.1190 8.07848 8
7 4 6 36.8231 7.72174 3
-8 -5 6 0.40180 7.20904 11
8 -5 -6 12.3352 7.37803 3
-8 -5 6 0.08966 6.33409 3
-8 -5 6 -1.8249 5.65149 5
8 -5 -6 0.43010 6.57142 13
8 -5 -6 3.66585 8.32789 7
-8 5 6 14.4329 8.57355 11
-8 5 6 7.90819 6.73154 9
8 5 -6 6.40967 5.95298 2
8 5 -6 16.2095 7.62481 3
-8 5 6 5.62378 7.73758 3
8 5 -6 10.8513 7.01751 13
7 -5 -6 58.2288 7.85031 13
7 -5 -6 65.7261 10.4769 7
-7 -5 6 64.3930 8.06673 5
-7 -5 6 62.7314 8.63315 3
7 -5 -6 56.8859 8.20012 3
-7 5 6 52.4150 8.79423 9
7 5 -6 63.0467 8.13884 3
-7 5 6 67.2421 9.42218 11
-7 5 6 52.6982 8.56198 3
7 5 -6 65.2369 8.79849 13
7 5 -6 79.5513 7.96218 2
-6 -5 6 16.3187 5.06508 3
6 -5 -6 15.3765 7.12553 7
-6 -5 6 13.3864 5.67011 11
6 -5 -6 16.0015 5.94349 3
6 -5 -6 24.2984 4.94456 13
6 5 -6 20.1428 5.53110 3
-6 5 6 26.1297 8.30322 4
-6 5 6 14.4424 6.24067 3
6 5 -6 17.1290 5.50387 13
-6 5 6 27.9270 6.92688 11
5 -5 -6 338.379 16.8561 13
-5 -5 6 323.918 17.4690 11
5 -5 -6 332.512 18.5557 3
-5 -5 6 404.036 17.4660 3
5 5 -6 338.923 17.4814 3
-5 5 6 340.932 17.1580 2
-5 5 6 354.061 19.1316 3
5 5 -6 347.119 17.3660 13
-5 5 6 341.240 18.6006 11
4 -5 -6 65.2511 7.58467 3
-4 -5 6 58.1516 6.60664 11
4 5 -6 81.3063 6.84664 13
-4 5 6 69.5302 8.60116 3
-4 5 6 72.9144 6.39555 2
-4 5 6 74.0164 8.24384 11
3 -5 -6 34.5367 4.96048 6
-3 -5 6 23.0881 4.05806 5
3 -5 -6 24.9184 5.11436 12
3 -5 -6 29.7163 5.23938 3
-3 -5 6 33.2155 4.48132 11
-3 5 6 38.4291 6.08346 11
-3 5 6 32.2433 5.69538 9
-3 5 6 33.1334 5.16475 2
-3 5 6 52.0119 7.36167 3
3 5 -6 29.8376 4.38736 2
3 5 -6 31.4848 4.95782 13
2 -5 -6 44.1262 6.02349 3
2 -5 -6 39.1260 5.00920 6
2 -5 -6 47.6640 7.03310 12
-2 -5 6 48.4725 5.48013 5
2 5 -6 42.1991 5.47383 13
-2 5 6 42.2510 6.47000 9
-2 5 6 37.4858 5.47921 2
-2 5 6 43.3328 7.07593 3
-2 5 6 40.5287 6.58854 11
2 5 -6 39.3396 4.73180 2
-1 -5 6 15.0228 3.96502 10
1 -5 -6 17.2720 3.20171 13
1 -5 -6 15.0474 3.08966 6
1 -5 -6 10.9344 4.55557 12
-1 -5 6 10.4801 3.55337 5
1 -5 -6 8.33247 3.50725 3
1 -5 -6 15.0912 4.74769 7
-1 5 6 13.3574 3.73751 2
-1 5 6 11.4865 4.68168 11
-1 5 6 4.78493 4.26946 3
1 5 -6 9.59660 3.31978 6
-1 5 6 5.76280 4.37376 9
1 5 -6 6.21082 3.80206 13
1 5 -6 12.1229 2.95835 2
0 -5 6 64.0157 6.99497 8
0 -5 -6 48.0228 6.43593 3
0 -5 -6 69.9151 7.53911 7
0 -5 6 63.9562 6.61337 10
0 -5 -6 70.5331 6.29094 13
0 -5 6 62.5189 5.97626 5
0 -5 -6 67.3822 8.07016 12
0 -5 -6 60.9391 5.78032 6
0 5 6 75.1827 8.00593 9
0 5 6 73.5778 8.06413 3
0 5 6 60.2876 6.12296 2
0 5 -6 58.2857 5.78144 6
0 5 -6 54.2240 6.53054 13
0 5 -6 63.2321 5.30750 2
0 5 6 44.2244 6.74050 11
0 5 6 68.6663 7.61340 8
1 -5 6 0.76922 3.77935 10
-1 -5 -6 2.97617 3.02510 6
-1 -5 -6 9.94600 5.03325 7
-1 -5 -6 4.29215 4.79723 12
1 -5 6 4.19901 3.97085 8
-1 -5 -6 10.1144 4.78957 13
1 -5 6 0.98492 3.13731 5
-1 -5 -6 4.87791 3.27211 3
-1 5 -6 7.53743 4.29702 9
-1 5 -6 13.1721 5.73519 4
1 5 6 2.32527 4.11314 3
-1 5 -6 3.43810 2.90416 6
1 5 6 11.3733 4.87222 8
1 5 6 9.40405 4.62900 9
1 5 6 0.50516 4.36593 11
1 5 6 2.16051 3.57628 2
-1 5 -6 1.65764 4.17680 13
-2 -5 -6 84.3509 9.40337 7
2 -5 6 103.398 7.64744 5
2 -5 6 90.1644 8.51869 8
-2 -5 -6 102.561 9.52713 12
-2 -5 -6 95.5080 10.7634 4
2 -5 6 89.6604 7.58112 1
-2 -5 -6 88.4781 8.07681 3
-2 -5 -6 98.9331 7.57868 6
-2 5 -6 88.7346 8.20819 13
-2 5 -6 94.2227 8.94158 9
-2 5 -6 102.002 7.43920 6
2 5 6 105.732 9.93759 9
2 5 6 105.962 8.52263 11
2 5 6 114.001 9.75152 8
2 5 6 106.424 8.70630 3
-3 -5 -6 27.9745 6.57418 4
3 -5 6 33.7199 4.91624 1
-3 -5 -6 36.2450 5.64396 3
-3 -5 -6 33.2552 5.51792 6
3 -5 6 33.9011 4.65630 5
3 -5 6 30.1310 5.69080 8
3 5 6 30.5919 6.47003 9
-3 5 -6 39.1972 5.24263 6
3 5 6 32.8025 7.29849 11
3 5 6 26.1415 6.49031 8
3 5 6 32.5527 5.67392 3
-4 -5 -6 -0.7043 4.20439 3
-4 -5 -6 2.32705 5.67153 4
-4 -5 -6 -2.3729 3.58794 6
4 -5 6 5.55596 4.09610 1
-4 5 -6 6.70084 2.93484 2
4 5 6 3.96743 4.67649 3
-4 5 -6 1.92469 3.28214 6
4 5 6 -5.6334 5.55232 8
-5 -5 -6 63.3365 8.24153 6
-5 -5 -6 77.9285 9.68195 11
-5 -5 -6 65.0690 8.71262 3
-5 -5 -6 69.3431 9.14966 12
-5 -5 -6 77.6571 11.6818 4
-5 -5 -6 80.8121 10.7097 7
-5 5 -6 72.2606 6.01243 2
-5 5 -6 64.4130 7.95968 6
5 5 6 85.8522 9.07334 2
5 5 6 60.1875 9.28301 3
5 5 6 85.6299 11.9640 8
-5 5 -6 86.9505 9.80451 12
5 5 6 78.0141 11.7155 9
-6 -5 -6 6.38933 8.00206 7
-6 -5 -6 -2.5409 4.20870 6
-6 -5 -6 3.94716 7.17657 11
-6 -5 -6 -4.0720 6.48263 3
-6 -5 -6 5.93929 7.58895 12
-6 -5 -6 0.01172 7.25269 4
-6 5 -6 -9.7034 8.57506 12
6 5 6 -2.7919 7.88560 8
6 5 6 6.60629 7.63870 9
6 5 6 7.97270 6.08957 2
6 5 6 -1.1081 6.65061 3
-6 5 -6 -2.1612 4.73463 6
-7 -5 -6 78.8854 9.98384 6
-7 -5 -6 80.7931 11.8160 3
-7 -5 -6 98.3096 13.3575 11
-7 -5 -6 97.8448 15.1277 4
-7 -5 -6 80.3170 11.1535 12
7 5 6 95.0507 11.3350 2
-7 5 -6 95.9914 9.56641 6
-7 5 -6 103.151 12.7017 12
7 5 6 92.8195 12.5221 3
7 5 6 81.6566 12.0761 8
7 5 6 91.1613 15.2587 9
7 -6 -6 11.8948 7.81394 7
7 -6 -6 11.1708 7.12213 3
7 -6 -6 18.8912 6.23889 13
-7 -6 6 24.8870 7.10191 3
-7 -6 6 11.6613 6.33421 5
7 6 -6 21.7746 6.90188 13
-7 6 6 7.84245 9.38920 11
7 6 -6 24.9989 5.93069 2
-7 6 6 2.76613 13.9954 4
-7 6 6 -2.6056 8.32088 3
-7 6 6 9.70526 7.79272 9
-6 -6 6 179.896 12.9754 11
-6 -6 6 177.572 12.1241 5
6 -6 -6 215.843 14.9460 7
-6 -6 6 217.718 12.5602 3
6 -6 -6 167.231 13.9445 3
-6 6 6 224.590 14.6275 11
-6 6 6 212.831 16.6582 9
6 6 -6 191.416 12.5053 2
6 6 -6 191.171 12.9596 13
-6 6 6 170.725 15.0648 3
-6 6 6 177.802 11.5256 2
-5 -6 6 10.6743 5.32970 11
-5 -6 6 15.4070 5.58047 5
5 -6 -6 2.23512 5.76752 3
5 -6 -6 3.89747 7.03610 7
5 6 -6 22.3850 5.50122 13
-5 6 6 11.6444 7.24141 11
5 6 -6 13.7564 4.44347 2
-5 6 6 3.18683 8.53544 9
-5 6 6 1.69388 6.82395 3
-5 6 6 14.6613 4.62837 2
4 -6 -6 79.2714 9.39969 3
-4 -6 6 94.1239 8.01759 11
4 6 -6 100.897 8.52848 2
-4 6 6 114.931 10.6802 3
-4 6 6 89.0649 10.7901 11
4 6 -6 103.399 8.57987 13
-4 6 6 99.6705 8.28318 2
-3 -6 6 99.9466 8.10537 5
3 -6 -6 107.238 9.30003 3
-3 6 6 101.860 10.2204 11
3 6 -6 110.675 8.32845 13
3 6 -6 100.864 8.00724 2
-3 6 6 86.8566 11.2759 9
-3 6 6 97.3961 8.22988 2
-3 6 6 100.092 10.1737 3
2 -6 -6 50.2711 7.11912 3
2 -6 -6 45.7262 5.47206 6
2 6 -6 39.0779 5.89090 2
-2 6 6 54.1838 8.44615 11
-2 6 6 43.2776 6.43347 3
-2 6 6 44.4179 6.71263 2
2 6 -6 41.7770 6.50814 13
1 -6 -6 29.1997 5.07043 3
1 -6 -6 31.9141 5.34018 6
1 6 -6 34.3162 5.47563 13
1 6 -6 33.7414 4.79319 2
-1 6 6 28.3153 5.26396 2
-1 6 6 36.8644 7.10505 11
1 6 -6 37.9109 5.35371 6
-1 6 6 26.2699 5.86713 3
0 -6 6 -3.8615 3.36407 5
0 -6 -6 1.94436 3.34346 6
0 -6 -6 -1.4721 3.93850 3
0 6 6 -3.4328 5.47696 3
0 6 -6 -4.8657 4.40848 13
0 6 6 4.61845 4.30816 2
0 6 -6 -1.0102 3.14050 2
0 6 -6 1.30999 3.34074 6
0 6 6 0.44938 5.02845 11
0 6 -6 2.03046 4.85542 9
-1 -6 -6 108.620 8.56618 3
1 -6 6 91.1696 9.13679 8
-1 -6 -6 105.952 7.69802 6
1 6 6 82.2331 9.45656 3
1 6 6 104.727 10.3643 8
-1 6 -6 90.1922 7.84407 6
-1 6 -6 95.7713 10.0634 9
-1 6 -6 83.9972 7.06872 2
1 6 6 98.3504 9.47117 11
1 6 6 95.3953 8.55884 2
-1 6 -6 82.3151 8.42781 13
-1 6 -6 99.2203 12.5439 4
2 -6 6 2.53538 4.37607 5
-2 -6 -6 1.99520 3.71222 6
2 -6 6 3.45965 4.75629 10
2 6 6 3.28370 5.92321 9
2 6 6 -5.5603 5.60683 11
-2 6 -6 -3.8827 3.14717 2
-2 6 -6 3.92903 3.53930 6
2 6 6 2.96334 6.01235 8
2 6 6 -0.4203 4.07600 2
-2 6 -6 -4.2536 4.98946 13
-2 6 -6 17.0438 8.48646 4
-2 6 -6 5.76150 5.39033 9
2 6 6 -3.4710 5.05308 3
-3 -6 -6 10.3420 4.24774 6
3 -6 6 16.8637 5.41456 10
3 -6 6 18.5772 4.92369 5
3 -6 6 6.89557 5.16432 1
-3 -6 -6 16.9694 5.26524 3
-3 -6 -6 16.4909 7.78331 4
3 6 6 17.5501 6.00718 3
3 6 6 28.5177 6.61427 11
-3 6 -6 15.5892 6.12524 9
3 6 6 12.2150 7.21282 8
-3 6 -6 7.80378 3.67028 2
-3 6 -6 23.1949 4.07913 6
-3 6 -6 12.6778 5.82089 13
3 6 6 24.7906 5.80182 2
-4 -6 -6 23.8421 8.31356 12
-4 -6 -6 26.5248 8.12805 11
-4 -6 -6 22.8152 6.25429 3
-4 -6 -6 24.0381 8.23452 7
-4 -6 -6 29.1757 5.31839 6
-4 -6 -6 24.2560 8.76770 4
4 -6 6 25.7202 6.46548 10
4 -6 6 25.5652 5.66344 1
4 6 6 33.9556 6.25371 2
-4 6 -6 28.2692 5.01614 6
4 6 6 27.6765 8.61955 11
4 6 6 29.4701 6.87604 3
4 6 6 27.0107 7.93321 8
-4 6 -6 18.5151 4.16442 2
-5 -6 -6 13.0842 7.89409 12
-5 -6 -6 4.97794 7.38073 11
-5 -6 -6 8.01890 6.22861 3
-5 -6 -6 3.35903 8.57509 7
-5 -6 -6 19.3233 4.84080 6
5 -6 6 16.7293 5.92343 1
-5 -6 -6 6.43234 8.30050 4
5 6 6 12.1964 9.24907 8
5 6 6 20.0943 8.14157 11
5 6 6 24.5960 7.06082 2
-5 6 -6 15.3174 3.83925 2
5 6 6 10.8885 7.45090 3
-5 6 -6 3.87307 5.00242 6
6 -7 -6 4.20901 8.66659 7
6 -7 -6 8.93120 7.17800 3
-6 -7 6 -11.085 6.43655 11
-6 -7 6 -1.2213 5.67062 5
-6 7 6 16.6038 5.80128 2
-6 7 6 12.4825 9.45008 3
-6 7 6 9.54304 12.9122 4
6 7 -6 9.57995 6.91589 13
-6 7 6 0.81311 8.49183 9
-6 7 6 19.7855 9.86632 11
6 7 -6 7.90717 5.87577 2
-5 -7 6 19.9204 6.19543 11
5 -7 -6 32.7537 7.61242 3
5 -7 -6 25.2139 8.76706 7
-5 -7 6 33.7708 6.51116 5
-5 7 6 42.9244 6.90564 2
5 7 -6 27.1353 7.34733 13
-5 7 6 19.0359 9.14771 9
5 7 -6 50.6650 7.98610 2
-5 7 6 42.7112 9.86214 11
-5 7 6 38.2785 8.86171 3
-4 -7 6 -2.3467 5.21600 5
4 -7 -6 3.84326 6.69413 7
4 -7 -6 3.40187 5.77454 3
-4 7 6 -1.1017 7.23585 9
-4 7 6 -0.4986 5.21833 2
4 7 -6 7.10530 5.52974 13
4 7 -6 1.41588 4.73219 2
-4 7 6 7.82742 6.89923 3
-4 7 6 -11.722 7.84087 11
-3 -7 6 6.35199 5.27533 5
3 -7 -6 6.62769 5.77687 3
3 -7 -6 6.86091 7.10691 12
3 -7 -6 21.4412 6.36887 7
-3 7 6 4.30746 5.40726 2
-3 7 6 6.70981 7.18602 11
3 7 -6 5.44123 5.27016 13
-3 7 6 0.54679 7.28010 9
3 7 -6 6.63793 4.68708 2
-3 7 6 10.5419 6.87615 3
2 -7 -6 60.6756 9.50099 7
2 -7 -6 79.7063 9.04428 3
2 -7 -6 69.2849 7.45403 6
-2 -7 6 76.4936 8.41796 5
2 -7 -6 75.4300 10.4509 12
-2 7 6 66.4158 10.8902 3
-2 7 6 66.2360 9.53849 9
-2 7 6 81.1636 10.6019 11
2 7 -6 65.1682 7.83908 2
-2 7 6 62.1320 8.70738 2
2 7 -6 66.1334 8.12827 13
1 -7 -6 -4.8404 5.13900 3
1 -7 -6 4.09967 5.89287 7
1 -7 -6 1.33259 6.64553 12
-1 -7 6 1.73776 4.36544 1
1 -7 -6 5.72772 4.11916 6
-1 -7 6 -5.2838 4.09731 5
-1 -7 6 -1.2508 5.72303 10
-1 7 6 -1.8835 6.55310 11
-1 7 6 16.2192 7.17305 9
1 7 -6 4.91201 4.12671 2
1 7 -6 -0.9007 4.33545 6
1 7 -6 0.83465 6.29230 9
1 7 -6 4.75241 4.78318 13
-1 7 6 -0.3175 6.72399 3
-1 7 6 0.12800 5.44744 2
0 -7 -6 133.219 10.5893 3
0 -7 6 140.215 11.1585 10
0 -7 -6 110.506 11.7448 7
0 -7 -6 140.006 9.72571 6
0 -7 6 137.319 10.0790 5
0 -7 6 131.592 9.95567 1
0 -7 -6 132.359 12.6152 12
0 7 -6 118.353 10.1693 6
0 7 6 118.003 11.4278 3
0 7 6 141.926 10.9654 2
0 7 -6 119.306 9.94273 13
0 7 6 108.643 11.7086 11
0 7 -6 141.663 9.37535 2
0 7 -6 138.638 15.8278 4
0 7 6 170.480 14.0700 9
0 7 -6 124.992 14.1642 9
-1 -7 -6 2.05861 5.51896 3
1 -7 6 2.99605 6.01672 10
-1 -7 -6 5.15099 7.16956 12
-1 -7 -6 4.64941 4.35912 6
1 -7 6 -1.3722 5.08145 5
-1 -7 -6 10.3976 6.95429 7
1 -7 6 7.48297 4.67379 1
-1 7 -6 6.58914 7.11387 9
1 7 6 3.42781 6.45821 11
1 7 6 10.1212 6.10980 3
-1 7 -6 3.20769 4.28080 6
1 7 6 -0.0462 5.70335 2
1 7 6 -2.6440 6.88084 9
-1 7 -6 11.1310 4.38609 2
-1 7 -6 12.9880 9.30117 4
-1 7 -6 -6.3442 5.39408 13
-2 -7 -6 46.2312 7.94632 6
2 -7 6 35.5506 5.92993 5
2 -7 6 31.1660 6.73747 1
-2 -7 -6 41.9489 8.90796 12
2 -7 6 57.2064 8.33225 10
-2 -7 -6 44.2885 8.53962 7
-2 -7 -6 35.5285 7.41883 3
2 7 6 55.6733 7.97710 2
-2 7 -6 47.0397 6.43168 2
-2 7 -6 35.1783 6.85037 13
-2 7 -6 50.3989 7.44458 6
2 7 6 49.6767 9.49087 9
2 7 6 52.1761 9.32519 8
-2 7 -6 44.6395 7.75280 9
2 7 6 47.4713 8.93415 11
-2 7 -6 48.8474 11.9631 4
2 7 6 44.7776 7.94877 3
-3 -7 -6 11.5046 7.80749 7
3 -7 6 -11.084 5.05271 5
3 -7 6 -2.0831 5.27706 1
-3 -7 -6 -15.788 7.53641 12
-3 -7 -6 9.41476 6.45520 3
-3 -7 -6 -5.1457 4.96392 6
3 -7 6 9.67082 6.42314 10
3 7 6 5.29473 6.87704 3
-3 7 -6 -8.0833 6.39482 13
-3 7 -6 -0.6774 4.11647 2
3 7 6 5.34938 7.55646 11
-3 7 -6 5.29857 7.05215 9
3 7 6 -10.622 8.35101 9
-3 7 -6 -0.5783 4.44570 6
3 7 6 5.68306 5.57048 2
3 7 6 4.19444 8.66332 8
-4 -7 -6 4.03208 5.83728 6
4 -7 6 -15.842 6.18501 10
-4 -7 -6 -0.6375 9.67610 4
4 -7 6 -3.5565 5.97101 1
-4 -7 -6 12.5034 8.13381 7
-4 -7 -6 -16.962 8.51394 12
-4 -7 -6 -9.4924 6.44824 3
-4 -7 -6 -2.7914 7.87495 11
-4 7 -6 8.03924 5.13991 6
-4 7 -6 5.47195 7.27774 9
4 7 6 2.70008 7.96009 11
-4 7 -6 -16.811 7.25343 13
4 7 6 2.31035 7.01862 2
4 7 6 -6.5023 9.08603 8
-4 7 -6 11.5474 4.54281 2
4 7 6 -4.8328 7.44284 3
3 -8 -6 24.2709 7.37059 3
-3 -8 6 8.12059 6.27594 5
3 8 -6 8.74612 9.12734 9
3 8 -6 3.98512 5.55861 2
-3 8 6 4.65647 8.87015 3
-3 8 6 13.2974 8.87503 9
-3 8 6 -2.9647 9.79987 11
-2 -8 6 16.6677 5.89933 5
2 -8 -6 -6.0131 6.93994 3
-2 -8 6 13.2332 8.22029 10
2 -8 -6 8.68882 4.83210 6
2 -8 -6 3.65399 7.99673 12
2 -8 -6 23.1556 7.60266 7
2 8 -6 -1.3784 8.40975 9
-2 8 6 15.2065 7.07685 2
-2 8 6 18.0727 9.09911 3
-2 8 6 9.12163 8.67902 11
2 8 -6 10.6931 5.89689 2
-2 8 6 -1.7584 8.16095 9
1 -8 -6 48.5406 8.10304 3
-1 -8 6 43.8375 6.95748 5
1 -8 -6 54.4346 9.32142 12
1 -8 -6 31.3712 8.00131 7
1 -8 -6 34.5815 6.50423 6
-1 -8 6 55.1802 9.22682 10
1 8 -6 33.5269 10.2927 9
1 8 -6 55.2809 11.8986 4
1 8 -6 31.1083 6.84968 6
-1 8 6 50.9863 10.0543 11
1 8 -6 61.2213 8.75654 2
-1 8 6 54.6150 8.49266 2
0 -8 -6 -4.5812 5.17447 6
0 -8 -6 13.3510 7.59600 7
0 -8 6 -0.3513 5.91720 5
0 -8 -6 8.41515 6.22969 3
0 -8 -6 8.88328 8.44611 12
0 -8 6 5.06655 7.08568 10
0 -8 6 4.34128 5.66075 1
0 8 -6 3.49701 5.96298 6
0 8 -6 18.8584 11.4353 4
0 8 -6 -0.6292 9.38967 9
0 8 6 0.97085 8.44290 11
0 8 6 4.35056 7.36632 3
0 8 -6 10.3599 5.33895 2
0 8 6 11.8133 9.10565 9
0 8 6 6.48280 6.92401 2
-1 -8 -6 88.8080 11.6899 3
1 -8 6 123.822 10.4132 5
1 -8 6 124.168 10.3952 1
-1 -8 -6 105.529 12.8920 7
-1 -8 -6 107.130 10.7080 6
-1 -8 -6 118.520 14.7129 12
1 -8 6 129.679 13.2206 10
1 8 6 98.2454 13.1740 11
1 8 6 120.800 16.4814 9
-1 8 -6 109.334 10.9354 6
1 8 6 98.1406 13.3074 3
-1 8 -6 132.388 16.6427 9
1 8 6 112.640 12.0847 2
-1 8 -6 115.934 10.1738 2
-1 8 -6 134.617 20.0457 4
-10 0 7 3.93541 8.18161 3
-10 0 7 8.51221 8.11930 9
10 0 -7 15.3841 8.73221 3
10 0 -7 12.0484 6.83369 13
10 0 -7 5.53145 5.73553 6
-10 0 7 -1.0162 7.33406 11
10 0 -7 1.26721 7.27131 7
-9 0 7 -8.0129 6.55396 9
9 0 -7 -7.6794 4.81698 6
9 0 -7 9.89126 6.78198 3
-9 0 7 -5.0138 6.56723 3
9 0 -7 9.62028 4.61330 2
9 0 -7 6.69907 6.70758 7
-9 0 7 3.04416 6.35238 11
9 0 -7 2.13908 5.89861 13
-8 0 7 9.02846 5.82803 3
8 0 -7 5.31686 5.68202 3
8 0 -7 -2.4471 5.90298 7
8 0 -7 5.13096 4.39241 6
8 0 -7 2.50675 5.42103 13
7 0 -7 539.287 26.8912 3
-7 0 7 548.784 26.8000 3
7 0 -7 577.024 27.1105 7
7 0 -7 553.336 28.0651 6
-6 0 7 16.9634 4.56065 9
6 0 -7 17.3148 4.18027 13
6 0 -7 13.6664 4.40223 7
6 0 -7 11.4617 3.55322 6
6 0 -7 10.9259 4.15244 3
-6 0 7 18.1764 4.38792 3
-6 0 7 12.1516 4.60003 11
5 0 -7 39.9267 6.46882 3
5 0 -7 37.2329 5.78419 7
-5 0 7 27.9934 5.03296 11
-5 0 7 45.7752 5.98183 9
5 0 -7 28.1893 4.73170 13
5 0 -7 33.9057 5.18581 6
-5 0 7 37.9198 6.23889 8
-5 0 7 51.3556 5.80236 3
4 0 -7 94.0020 7.15216 3
-4 0 7 73.2199 6.81539 3
4 0 -7 73.8786 6.44719 13
4 0 -7 88.0956 6.93873 7
-4 0 7 80.6642 6.78758 8
4 0 -7 78.7067 6.26058 12
-4 0 7 80.2494 6.87327 11
-4 0 7 77.5689 6.97486 9
4 0 -7 74.8107 6.18139 6
3 0 -7 184.061 10.0839 6
-3 0 7 161.725 10.5367 9
-3 0 7 172.365 9.74584 3
-3 0 7 179.337 10.0569 8
3 0 -7 167.683 9.50701 12
-3 0 7 184.114 10.1362 11
3 0 -7 165.607 9.77975 13
-3 0 7 170.162 9.81299 3
3 0 -7 168.007 10.0254 3
3 0 -7 174.720 9.93381 7
2 0 -7 6.67426 3.49629 7
2 0 -7 11.9323 3.29624 3
-2 0 7 8.83499 3.41705 8
-2 0 7 12.2721 3.31178 3
-2 0 7 11.6726 3.45831 11
2 0 -7 8.09388 2.37072 6
2 0 -7 7.84251 3.51188 12
-2 0 7 6.60560 2.90774 3
2 0 -7 7.99335 3.17137 13
-2 0 7 13.8545 3.18053 9
-1 0 7 354.479 17.4452 8
-1 0 7 341.678 16.9964 3
1 0 -7 362.172 16.7799 12
1 0 -7 352.223 17.0610 13
1 0 -7 338.873 17.8557 7
1 0 -7 376.102 17.2387 3
-1 0 7 369.978 17.2067 11
-1 0 7 343.460 17.1840 3
1 0 -7 369.220 18.3822 6
-1 0 7 352.522 18.2499 9
0 0 -7 716.672 35.3813 6
0 0 7 662.656 32.5624 3
0 0 7 737.943 33.1837 8
0 0 7 795.864 30.4055 1
0 0 7 743.920 32.6803 11
0 0 -7 683.307 29.0255 10
0 0 7 691.186 32.7694 3
0 0 -7 738.385 32.6793 3
0 0 -7 731.160 31.8003 12
0 0 -7 701.197 35.6626 9
0 0 7 736.459 35.5461 9
0 0 -7 747.746 32.5046 13
1 0 7 -5.2877 2.54948 1
-1 0 -7 -1.0169 2.76093 12
1 0 7 -2.0120 3.26114 8
1 0 7 2.42623 2.85959 3
-1 0 -7 -0.8490 2.26999 6
1 0 7 -0.4617 2.24794 2
-1 0 -7 3.98985 2.88251 3
1 0 7 1.25033 2.79559 3
2 0 7 49.9458 5.16822 3
-2 0 -7 44.5096 5.07951 6
2 0 7 58.2391 5.15351 1
-2 0 -7 56.7575 5.30241 3
2 0 7 51.1212 6.25078 3
-2 0 -7 50.3173 5.94526 12
2 0 7 51.3142 6.25864 8
2 0 7 51.4390 5.52621 11
2 0 7 54.2577 4.65112 2
3 0 7 30.6478 4.24130 2
-3 0 -7 25.4982 4.25254 3
3 0 7 24.8316 4.73887 3
3 0 7 32.9275 5.23973 11
3 0 7 27.5971 4.84602 8
-3 0 -7 19.4240 4.15256 12
-3 0 -7 19.9335 3.82115 6
3 0 7 22.2186 3.86880 3
-3 0 -7 21.0587 4.64177 4
4 0 7 24.3794 5.45367 11
-4 0 -7 10.1145 5.03858 11
-4 0 -7 16.9326 5.10248 4
4 0 7 12.5675 3.52444 3
4 0 7 27.0283 5.34305 8
-4 0 -7 24.7312 4.39348 3
4 0 7 17.8489 5.37105 3
-4 0 -7 16.6868 4.91313 12
-4 0 -7 18.0481 3.82781 6
4 0 7 25.3113 4.18095 2
-5 0 -7 214.210 12.7087 12
5 0 7 212.197 11.3724 3
-5 0 -7 198.260 12.2911 11
5 0 7 197.186 11.1141 2
-5 0 -7 187.705 12.0439 6
-5 0 -7 198.117 14.7040 4
-5 0 -7 171.921 11.3487 3
6 0 7 108.340 9.03198 3
-6 0 -7 115.250 11.7232 12
6 0 7 120.908 8.78612 2
-6 0 -7 132.691 11.2343 11
-6 0 -7 108.206 12.4055 4
-6 0 -7 123.600 9.43527 3
-6 0 -7 131.753 9.63620 6
-7 0 -7 161.407 11.3400 6
7 0 7 132.499 10.2630 2
-7 0 -7 153.875 11.4202 3
7 0 7 171.782 14.0054 8
-7 0 -7 168.071 14.0149 11
7 0 7 136.517 10.8946 3
-7 0 -7 153.685 14.2211 12
-7 0 -7 156.079 14.7325 4
8 0 7 -2.8500 6.32076 3
-8 0 -7 7.06460 8.17580 4
-8 0 -7 6.94932 8.53489 12
-8 0 -7 12.8503 5.97572 6
8 0 7 16.1711 8.34939 8
-8 0 -7 3.61907 6.49189 3
-8 0 -7 9.78486 9.25094 11
8 0 7 4.64059 5.47946 2
10 -1 -7 12.6776 8.95708 7
10 -1 -7 -10.839 8.33389 3
-10 -1 7 6.07201 7.68464 11
10 -1 -7 10.4249 5.68138 2
10 -1 -7 24.1126 6.35358 6
10 -1 -7 15.1829 6.88132 13
-10 -1 7 13.0056 8.36048 3
-10 1 7 10.3414 8.16809 11
10 1 -7 17.2936 8.49588 3
10 1 -7 17.2343 6.71031 13
-10 1 7 9.93027 8.87928 3
-10 1 7 11.5298 8.02399 9
10 1 -7 9.07474 6.74506 2
9 -1 -7 12.4760 5.35171 6
9 -1 -7 16.6764 6.70713 13
-9 -1 7 7.94707 6.63773 11
9 -1 -7 -0.5338 7.06619 3
-9 -1 7 19.4401 6.87981 3
9 -1 -7 26.1516 7.49249 7
-9 -1 7 12.2310 6.95005 9
-9 1 7 11.4639 7.08144 3
9 1 -7 18.8326 6.70715 13
-9 1 7 10.0257 6.76766 11
9 1 -7 8.73603 7.16016 3
-9 1 7 11.8306 6.79638 9
8 -1 -7 23.7485 6.56027 3
8 -1 -7 16.6898 4.85307 6
-8 -1 7 17.5258 5.71472 11
-8 -1 7 22.6415 6.33585 3
8 -1 -7 18.1051 6.84412 7
8 1 -7 21.6994 4.80547 6
8 1 -7 20.9548 6.36263 3
-8 1 7 24.1598 6.33304 3
7 -1 -7 4.28164 4.17358 13
7 -1 -7 8.86409 3.82690 6
7 -1 -7 3.29657 5.39337 7
-7 -1 7 3.59556 5.21090 11
-7 -1 7 12.5695 5.18501 3
7 -1 -7 10.1584 5.39523 3
7 1 -7 13.7162 5.32118 3
-7 1 7 10.8197 5.19619 3
7 1 -7 6.25253 3.82732 6
-6 -1 7 167.723 12.1411 9
-6 -1 7 162.287 10.9140 11
6 -1 -7 189.921 11.1054 7
6 -1 -7 169.280 10.7902 6
6 -1 -7 176.718 11.5290 3
6 -1 -7 184.115 10.6430 13
-6 -1 7 192.472 11.1807 3
6 1 -7 182.624 11.0914 6
-6 1 7 197.862 11.2907 3
6 1 -7 178.907 10.1642 7
6 1 -7 170.971 11.2831 3
5 -1 -7 18.0471 3.53402 6
-5 -1 7 15.8160 4.43283 9
5 -1 -7 13.7538 4.27452 12
-5 -1 7 22.4847 4.43216 3
5 -1 -7 16.2845 4.21482 7
-5 -1 7 17.6301 4.71659 11
5 -1 -7 15.1358 3.82161 13
5 -1 -7 21.1521 4.97884 3
-5 1 7 16.9179 4.26270 8
5 1 -7 19.4431 3.33607 7
5 1 -7 10.6419 3.81860 13
5 1 -7 15.6955 3.52280 6
5 1 -7 20.0308 4.42901 3
-5 1 7 14.3665 4.76025 3
-5 1 7 17.3420 5.02331 11
-5 1 7 15.5477 4.49171 9
-4 -1 7 37.6847 5.36031 3
4 -1 -7 35.0792 5.21250 13
4 -1 -7 36.8598 4.47447 6
-4 -1 7 39.8481 5.56060 8
4 -1 -7 33.5660 5.81708 7
4 -1 -7 45.9209 6.17078 3
-4 -1 7 31.2752 4.88793 11
-4 -1 7 32.0433 5.24393 3
-4 -1 7 34.1479 5.90960 9
4 -1 -7 41.3554 5.45035 12
-4 1 7 44.2037 5.62798 3
4 1 -7 33.9359 4.55093 7
-4 1 7 26.3409 4.50782 8
4 1 -7 41.1123 5.44722 3
-4 1 7 37.5246 6.02802 11
4 1 -7 38.4061 4.58657 6
4 1 -7 34.2291 5.28601 13
-4 1 7 49.3629 5.85968 9
3 -1 -7 226.064 12.1640 6
-3 -1 7 215.251 11.8835 11
-3 -1 7 239.330 11.7710 3
-3 -1 7 232.603 12.3797 8
3 -1 -7 234.990 11.7658 13
-3 -1 7 225.551 12.8412 9
3 -1 -7 239.288 12.4080 3
3 -1 -7 228.900 11.6015 12
-3 -1 7 183.498 11.2243 3
3 -1 -7 235.334 12.4798 7
3 1 -7 226.796 11.7224 13
3 1 -7 216.643 11.6260 3
-3 1 7 201.149 11.9231 11
3 1 -7 238.354 11.6243 7
-3 1 7 217.066 12.6912 9
-3 1 7 234.507 12.1117 3
3 1 -7 210.236 12.3139 6
-3 1 7 199.519 11.7958 8
2 -1 -7 34.8463 5.56431 7
-2 -1 7 21.4727 4.00903 11
-2 -1 7 28.6156 4.40597 3
-2 -1 7 35.1064 5.16245 9
2 -1 -7 19.1612 3.99605 12
2 -1 -7 41.4993 4.10110 6
2 -1 -7 19.8307 4.00243 3
2 1 -7 33.9651 4.25668 6
2 1 -7 33.3642 4.69729 7
2 1 -7 30.4058 4.85443 13
2 1 -7 33.9944 4.78812 3
-2 1 7 32.1905 4.56108 9
-2 1 7 31.7946 4.94428 11
-2 1 7 36.1274 5.24434 3
-1 -1 7 234.191 12.3434 3
-1 -1 7 270.913 12.9574 11
-1 -1 7 268.933 13.3834 8
-1 -1 7 258.807 13.4873 9
-1 -1 7 259.451 12.7422 3
1 -1 -7 256.370 13.9421 7
1 -1 -7 255.881 13.6247 6
1 -1 -7 259.715 12.8922 13
1 -1 -7 248.106 13.1548 3
1 -1 -7 257.438 12.8978 12
1 1 -7 268.271 13.8484 6
-1 1 7 211.372 13.5314 9
-1 1 7 238.922 13.0439 3
-1 1 7 261.679 13.0894 11
1 1 -7 275.061 12.7874 3
1 1 -7 255.639 12.9662 13
1 1 -7 216.700 13.5521 9
1 1 -7 258.210 12.6389 12
-1 1 7 264.321 13.1447 3
-1 1 7 266.016 13.4171 8
-1 1 7 251.757 12.8292 2
0 -1 7 23.0365 4.09692 8
0 -1 -7 33.7950 5.25172 9
0 -1 7 28.1562 4.17579 11
0 -1 7 29.3699 3.95882 3
0 -1 -7 31.6482 5.04053 13
0 -1 -7 23.0596 3.91493 12
0 -1 -7 34.8667 3.73390 10
0 -1 7 31.2650 3.97741 3
0 -1 7 34.3544 3.72446 1
0 -1 -7 33.1337 4.56442 3
0 -1 -7 22.7063 4.03845 6
0 1 7 33.9037 3.85912 2
0 1 -7 26.2453 4.39976 13
0 1 7 18.8265 4.20526 8
0 1 -7 29.6723 4.14284 3
0 1 -7 31.1748 3.87796 6
0 1 7 31.1572 3.79558 9
0 1 7 18.7766 3.98781 11
0 1 -7 21.4458 3.87117 12
0 1 7 30.4527 4.24783 3
-1 -1 -7 34.7489 4.99820 3
1 -1 7 37.7348 2.99163 5
-1 -1 -7 35.9392 5.19979 9
1 -1 7 34.5941 4.80339 8
-1 -1 -7 29.9453 4.71183 12
1 -1 7 31.7388 4.00398 1
-1 -1 -7 26.5611 3.93996 6
1 -1 7 28.7672 4.32119 3
1 -1 7 32.7471 4.83281 11
1 1 7 24.6059 3.49929 9
1 1 7 31.7672 4.91507 11
-1 1 -7 31.2679 4.45856 12
1 1 7 34.0811 4.93083 3
-1 1 -7 34.5719 4.42859 3
-1 1 -7 28.7482 4.24749 6
1 1 7 37.9531 5.90944 8
1 1 7 38.7922 5.23119 3
1 1 7 34.0621 3.85468 2
-2 -1 -7 130.521 8.92352 6
2 -1 7 139.567 8.07857 3
-2 -1 -7 141.975 10.3511 4
2 -1 7 147.123 7.84698 1
-2 -1 -7 136.151 8.94065 12
-2 -1 -7 138.171 8.72527 3
2 -1 7 129.878 8.33965 11
2 -1 7 136.453 9.33278 8
2 -1 7 131.628 8.44477 3
-2 1 -7 145.218 8.13796 3
-2 1 -7 144.113 8.93248 12
2 1 7 141.495 8.17062 2
-2 1 -7 142.725 8.95416 6
2 1 7 134.248 8.43018 3
2 1 7 141.578 9.35656 8
2 1 7 137.279 8.96393 11
-3 -1 -7 -0.2547 2.87380 6
3 -1 7 1.86845 4.10700 8
3 -1 7 0.21971 3.82298 11
3 -1 7 3.80470 3.74945 3
-3 -1 -7 1.25812 3.40483 3
3 -1 7 2.66690 2.71599 3
-3 -1 -7 0.74497 3.42756 12
-3 -1 -7 -5.4548 3.62836 4
-3 1 -7 0.03195 3.89704 4
-3 1 -7 -3.1270 3.83978 12
3 1 7 1.55435 2.66527 2
-3 1 -7 -0.3899 2.98208 3
3 1 7 1.13537 2.88709 3
3 1 7 1.94206 3.65346 11
3 1 7 3.01348 3.56440 8
-4 -1 -7 91.5994 8.35752 11
4 -1 7 95.9531 8.42371 3
-4 -1 -7 97.8679 7.90789 3
4 -1 7 105.512 7.66246 11
4 -1 7 91.0563 8.49296 8
4 -1 7 96.4993 6.54979 3
-4 -1 -7 94.3019 7.66367 6
-4 -1 -7 106.637 8.60962 12
-4 -1 -7 91.6166 9.43793 4
4 1 7 93.5032 8.39450 11
4 1 7 104.113 7.26791 2
-4 1 -7 95.5797 9.52504 4
-4 1 -7 113.289 8.92786 12
4 1 7 109.906 7.42048 3
-4 1 -7 85.1980 7.68603 6
-4 1 -7 89.3146 7.03058 3
5 -1 7 2.77383 4.74495 8
-5 -1 -7 14.3590 3.82006 6
-5 -1 -7 15.4005 5.33332 4
5 -1 7 16.6280 5.22152 11
5 -1 7 19.6523 4.01917 3
-5 -1 -7 16.5128 5.06155 11
-5 -1 -7 13.8213 4.73280 3
-5 1 -7 11.2355 5.20196 11
-5 1 -7 22.1118 6.14000 12
5 1 7 21.2535 4.78701 2
5 1 7 17.5552 3.74915 3
-5 1 -7 6.97964 4.16921 6
-5 1 -7 5.72160 5.72558 4
-5 1 -7 14.8517 4.13548 3
-6 -1 -7 231.882 13.4079 6
-6 -1 -7 224.442 14.3965 11
-6 -1 -7 206.032 12.7670 3
6 -1 7 199.551 12.1081 3
-6 -1 -7 206.359 16.5173 4
6 1 7 213.436 12.4190 2
-6 1 -7 213.355 13.6125 11
-6 1 -7 178.081 16.2505 4
-6 1 -7 217.962 12.2392 3
-6 1 -7 219.091 13.1872 6
6 1 7 215.303 14.5503 8
-6 1 -7 220.384 14.5913 12
6 1 7 196.479 12.4715 3
7 -1 7 -1.8670 5.24435 3
-7 -1 -7 6.97234 5.81560 3
-7 -1 -7 8.34671 7.56771 11
-7 -1 -7 8.53238 7.29970 12
-7 -1 -7 -7.4878 7.02620 4
-7 -1 -7 3.82254 4.41216 6
7 -1 7 2.58891 6.92665 8
-7 1 -7 -2.6991 5.28315 3
-7 1 -7 -3.9816 5.12982 6
7 1 7 1.48455 5.11981 2
-7 1 -7 -0.5803 6.74724 4
7 1 7 -0.2908 7.06977 8
7 1 7 -9.3234 5.22732 3
-7 1 -7 4.36350 7.16056 11
-7 1 -7 -4.9817 7.94536 12
-8 -1 -7 -2.0952 5.89606 6
-8 -1 -7 -5.3698 8.20298 4
-8 -1 -7 12.8153 9.01271 12
-8 -1 -7 6.17611 6.99236 3
8 -1 7 -2.8347 6.17452 3
-8 -1 -7 -0.9122 9.12789 11
8 -1 7 7.48560 8.27913 8
8 1 7 -0.9591 6.39204 3
-8 1 -7 -2.9679 9.21633 12
-8 1 -7 2.81584 5.84425 6
-8 1 -7 11.1682 7.92151 4
8 1 7 -11.957 8.03929 8
-8 1 -7 7.55461 9.88046 11
-10 -2 7 36.8634 9.45814 3
10 -2 -7 34.6490 10.0224 3
-10 -2 7 26.0170 8.43386 11
10 -2 -7 56.1833 10.5521 7
10 -2 -7 33.8854 8.22615 13
-10 2 7 31.0792 9.13129 9
-10 2 7 37.0894 8.79952 11
10 2 -7 63.7926 10.0375 13
10 2 -7 31.0991 9.62968 3
-10 2 7 45.0827 10.2979 3
10 2 -7 33.9500 7.69650 2
9 -2 -7 48.7859 7.88604 13
-9 -2 7 37.2751 8.39517 3
9 -2 -7 45.6718 9.30320 7
-9 -2 7 37.3224 8.09902 11
9 -2 -7 33.5797 8.19309 3
-9 2 7 34.9817 8.29819 9
9 2 -7 43.2046 7.48658 13
9 2 -7 37.1669 8.49429 3
9 2 -7 35.3340 6.95254 2
-9 2 7 43.1206 8.37052 11
-9 2 7 49.1771 9.02205 3
-8 -2 7 3.22134 5.30962 11
8 -2 -7 5.46314 4.22706 6
8 -2 -7 -0.6906 6.07479 3
8 -2 -7 -1.4836 6.27634 7
-8 -2 7 6.53089 6.05113 3
8 2 -7 2.13291 5.68852 13
8 2 -7 -1.5573 6.28200 3
-8 2 7 8.54001 6.40039 3
-8 2 7 8.78334 6.72109 11
7 -2 -7 204.406 13.1355 7
-7 -2 7 209.983 12.2407 3
7 -2 -7 179.044 11.5162 6
7 -2 -7 187.029 12.6584 3
7 2 -7 191.510 11.7829 13
-7 2 7 196.155 12.7575 3
7 2 -7 188.166 12.5347 3
6 -2 -7 53.3039 7.77481 3
6 -2 -7 53.0238 6.04266 6
6 -2 -7 47.9835 6.69539 13
-6 -2 7 47.5174 6.74229 11
-6 -2 7 62.2572 7.22612 3
6 -2 -7 59.5744 7.08002 7
6 2 -7 66.0776 6.96966 13
-6 2 7 48.1538 7.93974 3
6 2 -7 67.1400 7.49644 3
5 -2 -7 7.71522 4.18071 12
-5 -2 7 9.70658 3.80806 3
5 -2 -7 5.50779 4.09853 7
5 -2 -7 10.2954 4.44453 3
-5 -2 7 9.63239 3.94734 11
5 -2 -7 8.15418 2.95599 6
5 -2 -7 11.0739 3.87311 13
-5 -2 7 4.15742 4.03641 3
5 2 -7 10.2419 4.07701 3
-5 2 7 5.77693 3.64827 9
5 2 -7 9.54418 3.29851 6
-5 2 7 8.91920 4.00751 8
-5 2 7 3.93394 4.11215 3
5 2 -7 6.24451 3.74662 13
4 -2 -7 77.2598 7.28798 7
4 -2 -7 84.9913 6.73676 13
4 -2 -7 95.7048 7.80242 3
-4 -2 7 71.9259 6.50141 3
4 -2 -7 99.3748 6.70200 6
-4 -2 7 96.2100 7.33213 11
-4 -2 7 78.4214 7.51746 8
4 -2 -7 86.8046 7.03253 12
-4 -2 7 96.0733 6.88299 3
-4 2 7 87.7765 7.53814 11
-4 2 7 93.7864 7.54256 8
-4 2 7 91.6386 7.57032 9
-4 2 7 79.9506 7.42031 3
4 2 -7 88.1002 6.81176 6
4 2 -7 79.3464 6.77667 13
4 2 -7 89.4637 6.82188 3
3 -2 -7 77.4503 7.32433 7
3 -2 -7 80.7168 7.19154 3
-3 -2 7 82.7767 4.98573 10
-3 -2 7 73.0966 6.45755 3
-3 -2 7 80.7741 6.84342 8
3 -2 -7 64.8081 6.34683 13
-3 -2 7 71.1562 6.20842 11
-3 -2 7 73.2656 5.76598 3
3 -2 -7 81.0399 5.90051 6
3 -2 -7 71.0069 6.84809 12
3 2 -7 71.2968 6.16745 3
-3 2 7 73.9622 7.16497 3
-3 2 7 71.4437 6.91527 8
3 2 -7 65.9008 6.40002 13
-3 2 7 82.0478 7.18985 11
-3 2 7 75.3990 6.53028 9
3 2 -7 82.8702 6.10313 6
2 -2 -7 12.4500 3.84479 7
2 -2 -7 7.18906 3.55928 13
-2 -2 7 6.59336 2.91801 3
2 -2 -7 4.01270 2.67994 6
2 -2 -7 6.53916 3.58409 12
-2 -2 7 6.02862 3.51306 8
-2 -2 7 7.29629 2.08470 10
-2 -2 7 10.3669 3.58224 11
-2 -2 7 5.00153 2.43599 3
2 -2 -7 4.25620 3.33159 3
-2 2 7 10.0634 2.61831 2
-2 2 7 7.85026 3.67844 8
-2 2 7 6.84781 3.13739 9
2 2 -7 6.58522 2.99940 3
-2 2 7 4.47481 3.53426 11
2 2 -7 5.22521 2.25030 6
2 2 -7 5.00713 3.45360 13
-2 2 7 8.29780 3.56083 3
-1 -2 7 154.473 9.61858 8
1 -2 -7 160.545 10.3864 7
1 -2 -7 154.762 9.60082 6
-1 -2 7 168.622 8.21399 10
1 -2 -7 151.393 9.28620 13
1 -2 -7 155.177 9.56753 12
-1 -2 7 156.926 8.46470 3
-1 -2 7 161.623 8.30754 5
1 -2 -7 163.898 9.74145 3
-1 -2 7 163.842 8.78864 3
-1 -2 7 170.553 8.56219 11
-1 -2 7 154.557 8.41343 1
-1 2 7 149.903 9.92175 9
1 2 -7 169.454 8.86180 3
-1 2 7 149.846 8.76156 2
1 2 -7 170.491 9.71051 6
-1 2 7 158.493 9.57390 11
-1 2 7 160.114 9.73468 3
1 2 -7 158.134 9.28203 13
-1 2 7 161.037 9.82854 8
0 -2 7 584.818 26.0764 8
0 -2 7 559.465 23.8903 1
0 -2 -7 540.562 25.7596 3
0 -2 -7 557.807 27.5956 6
0 -2 7 579.332 24.8165 11
0 -2 7 542.983 25.1452 11
0 -2 7 560.954 23.0795 5
0 -2 -7 571.755 25.2840 13
0 -2 -7 520.455 26.9754 7
0 -2 -7 566.801 25.1341 12
0 2 -7 485.739 27.3276 9
0 2 7 564.452 26.0186 8
0 2 7 536.078 25.8147 11
0 2 7 510.826 25.8331 3
0 2 -7 567.565 27.6097 6
0 2 7 547.912 27.8765 9
0 2 7 546.529 25.7805 2
0 2 -7 578.526 25.4660 13
1 -2 7 15.3182 3.33951 1
1 -2 7 18.1567 4.14212 8
-1 -2 -7 16.3282 3.95845 3
-1 -2 -7 13.1659 3.38411 6
1 -2 7 19.0934 3.15321 11
1 -2 7 26.1939 2.94093 5
1 -2 7 15.2164 3.70095 11
-1 -2 -7 8.23951 3.79525 12
-1 -2 -7 15.9158 3.99066 4
1 2 7 14.2385 3.24466 2
1 2 7 17.5349 3.87448 11
-1 2 -7 22.7857 3.78629 6
-1 2 -7 9.83625 3.56837 13
-1 2 -7 16.1423 3.74820 12
1 2 7 21.0794 3.22578 9
1 2 7 14.7312 4.02054 3
1 2 7 16.7732 3.64391 8
2 -2 7 14.2669 3.47641 11
-2 -2 -7 14.0878 3.30817 6
-2 -2 -7 13.3399 4.27315 12
-2 -2 -7 17.3579 4.21503 4
2 -2 7 19.2569 4.24726 8
2 -2 7 15.7358 3.37943 1
-2 -2 -7 23.4161 4.37022 9
2 2 7 14.2950 4.54302 11
2 2 7 19.3841 3.51015 2
2 2 7 21.1321 4.50833 8
2 2 7 14.0883 3.40858 3
-3 -2 -7 237.025 13.3398 6
-3 -2 -7 233.200 13.3454 11
3 -2 7 244.879 11.9879 1
-3 -2 -7 223.880 15.9120 4
3 -2 7 243.220 11.6401 11
3 -2 7 228.709 13.4422 8
-3 -2 -7 236.894 12.9641 3
-3 2 -7 215.274 15.0524 4
-3 2 -7 230.527 13.3372 6
3 2 7 221.404 12.3776 2
3 2 7 230.779 12.6924 3
3 2 7 230.738 13.0548 11
3 2 7 237.647 13.6435 8
-3 2 -7 229.484 12.8440 12
4 -2 7 3.40311 3.12350 3
4 -2 7 -0.7364 4.94257 8
-4 -2 -7 4.54217 4.06153 3
4 -2 7 2.95885 4.02015 3
-4 -2 -7 5.81995 2.97450 6
-4 -2 -7 1.27523 4.20774 11
4 -2 7 -1.5273 4.33668 11
-4 -2 -7 3.63817 4.82654 4
4 2 7 2.19865 3.54266 3
-4 2 -7 2.54566 3.19369 3
4 2 7 1.30252 4.28915 11
-4 2 -7 3.24879 4.25251 4
-4 2 -7 5.56129 5.18812 12
-4 2 -7 -2.7147 3.19889 6
4 2 7 6.42835 3.28995 2
-5 -2 -7 116.660 8.63471 6
-5 -2 -7 111.920 9.00345 3
-5 -2 -7 112.671 9.95466 11
5 -2 7 114.087 7.80896 3
5 -2 7 117.030 8.84483 11
-5 -2 -7 114.308 11.9959 4
5 2 7 104.252 8.71557 3
-5 2 -7 115.541 8.68404 6
-5 2 -7 117.359 10.9712 4
-5 2 -7 103.158 7.84042 3
-5 2 -7 118.075 11.0073 12
-6 -2 -7 43.0467 7.98666 11
-6 -2 -7 28.7479 8.12382 4
-6 -2 -7 48.7036 7.11564 6
-6 -2 -7 49.7802 7.91019 3
6 -2 7 40.9310 5.63284 3
-6 2 -7 33.2570 7.27347 4
6 2 7 42.5129 6.44777 3
-6 2 -7 46.8374 6.81990 6
-6 2 -7 44.3487 8.35935 12
-6 2 -7 44.6564 5.39668 3
-6 2 -7 40.2809 7.25147 11
-7 -2 -7 110.851 13.4319 12
-7 -2 -7 75.3726 14.3250 4
-7 -2 -7 88.3702 10.6108 3
-7 -2 -7 98.7101 9.71505 6
-7 -2 -7 105.775 12.8567 11
7 -2 7 95.8225 9.28502 3
7 -2 7 99.7683 13.1865 8
-7 2 -7 106.568 11.3768 11
-7 2 -7 92.8797 12.7218 4
7 2 7 100.698 10.2181 3
7 2 7 104.249 9.85318 2
7 2 7 109.293 13.0314 8
-7 2 -7 117.601 14.3455 12
-7 2 -7 117.364 10.2063 6
-8 -2 -7 6.55548 5.97260 6
8 -2 7 -2.2477 7.01688 3
-8 -2 -7 -14.936 7.51132 3
8 -2 7 0.86785 8.27681 8
-8 -2 -7 2.02703 9.87762 11
-8 -2 -7 4.84457 9.77404 12
-8 -2 -7 -15.939 9.00075 4
-8 2 -7 16.4657 10.2465 12
8 2 7 2.30991 7.16665 3
-8 2 -7 1.72205 8.37891 4
-8 2 -7 -2.6372 8.91753 11
-8 2 -7 1.64305 5.96574 6
8 2 7 8.44508 6.63758 2
8 2 7 10.4985 9.07404 8
-9 -3 7 28.9112 7.81350 11
9 -3 -7 26.9347 9.77726 7
9 -3 -7 35.2324 7.19258 13
9 -3 -7 12.2713 8.27545 3
-9 -3 7 22.0912 8.28632 3
9 3 -7 28.3120 6.88399 2
-9 3 7 23.3575 8.55786 9
-9 3 7 23.1658 8.72088 11
-9 3 7 34.9158 8.87683 3
9 3 -7 30.2099 7.63950 13
9 3 -7 22.2442 8.47272 3
8 -3 -7 99.2204 11.4716 7
-8 -3 7 79.7295 10.6761 3
8 -3 -7 97.0881 11.2499 3
-8 -3 7 87.4125 10.2375 11
-8 3 7 95.0721 11.4868 9
-8 3 7 77.8028 10.2155 3
8 3 -7 76.2650 8.41074 2
8 3 -7 92.5786 10.4886 13
8 3 -7 96.3076 11.3299 3
-8 3 7 100.995 11.1045 11
-7 -3 7 15.3653 5.82507 3
7 -3 -7 13.7491 6.91453 7
7 -3 -7 17.9342 6.34169 3
7 -3 -7 14.2272 6.02689 13
-7 3 7 12.5259 6.57739 11
-7 3 7 5.49941 6.57419 3
7 3 -7 19.1856 5.12996 13
7 3 -7 19.3469 6.00664 3
6 -3 -7 107.750 9.33281 3
6 -3 -7 95.2467 7.59945 6
6 -3 -7 106.567 8.90268 7
-6 -3 7 81.0874 8.42062 11
6 -3 -7 103.502 8.19672 13
-6 -3 7 115.598 8.61242 3
-6 3 7 96.3488 9.23532 11
6 3 -7 103.720 8.40892 13
6 3 -7 89.5008 8.62462 3
-6 3 7 89.7096 9.20936 3
-5 -3 7 9.98828 3.83837 3
5 -3 -7 10.9124 4.06401 13
-5 -3 7 10.1036 4.22296 3
5 -3 -7 -0.1070 3.31197 6
-5 -3 7 5.87120 4.18099 11
5 -3 -7 8.43038 4.69255 12
5 -3 -7 2.56759 3.73192 7
5 -3 -7 4.54981 4.49000 3
5 3 -7 7.13652 3.95131 13
-5 3 7 1.51108 4.51832 3
-5 3 7 6.06712 5.14346 11
5 3 -7 6.63947 4.13922 3
-5 3 7 5.39714 3.70558 9
-4 -3 7 5.53300 3.79824 3
-4 -3 7 8.26247 3.75317 11
-4 -3 7 1.39848 3.08677 5
4 -3 -7 0.53961 2.81689 6
4 -3 -7 7.45501 3.67705 13
4 -3 -7 5.09120 3.68091 12
-4 -3 7 3.27313 3.48059 10
4 -3 -7 2.54797 4.21883 7
4 -3 -7 6.77915 3.93691 3
-4 -3 7 1.50884 3.32050 3
-4 3 7 -2.9021 3.60610 9
4 3 -7 4.89282 3.85451 13
-4 3 7 -0.3406 3.76816 3
-4 3 7 5.90870 4.12439 8
4 3 -7 2.95008 2.84672 6
-4 3 7 2.38094 4.63815 11
4 3 -7 3.62641 3.50763 3
-3 -3 7 8.89929 3.33599 10
-3 -3 7 -2.3710 3.44759 3
-3 -3 7 -0.4718 3.47111 8
3 -3 -7 1.27148 3.82824 3
-3 -3 7 9.64073 3.69156 11
3 -3 -7 -0.5511 3.07203 6
-3 -3 7 5.66273 2.78248 5
3 -3 -7 9.58602 3.82956 13
3 -3 -7 8.99306 4.31192 7
3 -3 -7 7.23929 3.93377 12
-3 3 7 7.56942 4.06484 8
-3 3 7 2.24150 3.62367 9
3 3 -7 8.20164 3.84189 13
-3 3 7 12.3541 4.23485 3
3 3 -7 5.88903 2.88442 6
-3 3 7 8.31873 2.79884 2
-3 3 7 1.15924 4.10678 11
2 -3 -7 14.6092 4.24784 7
2 -3 -7 9.29020 3.79271 3
-2 -3 7 10.0446 2.83612 5
-2 -3 7 11.8551 3.22180 10
2 -3 -7 15.7890 3.89052 13
-2 -3 7 7.59387 3.58627 8
2 -3 -7 5.41320 2.85003 6
2 -3 -7 12.1999 3.91398 12
-2 -3 7 6.35251 3.01924 11
-2 3 7 12.8358 3.84362 3
-2 3 7 11.0613 2.71402 2
-2 3 7 14.7241 4.06570 9
2 3 -7 11.2062 3.87431 13
-2 3 7 11.9141 3.84761 8
-2 3 7 7.92459 4.00435 11
1 -3 -7 374.754 18.1504 12
1 -3 -7 377.591 19.6008 7
-1 -3 7 368.566 16.6324 5
1 -3 -7 376.740 19.4379 6
-1 -3 7 366.084 17.2644 11
-1 -3 7 377.385 17.1821 1
-1 -3 7 384.558 18.6570 8
1 -3 -7 395.787 18.0258 13
-1 -3 7 391.973 16.4729 10
1 -3 -7 385.515 18.8862 3
-1 3 7 379.299 18.3489 2
-1 3 7 354.099 18.6360 11
-1 3 7 388.625 19.0202 3
-1 3 7 373.084 18.6430 8
1 3 -7 392.424 18.2219 13
1 3 -7 315.265 17.2126 11
1 3 -7 374.663 19.6471 6
-1 3 7 390.233 20.4333 9
0 -3 7 16.1627 3.36643 10
0 -3 -7 10.8807 4.83769 13
0 -3 -7 12.2873 4.70627 7
0 -3 7 12.5553 3.23758 1
0 -3 -7 10.4441 4.26638 12
0 -3 7 11.0600 3.78541 8
0 -3 7 15.9118 3.02027 5
0 -3 -7 17.6463 3.83168 6
0 -3 -7 20.4390 4.78370 4
0 3 7 16.1678 4.29669 11
0 3 7 9.19455 3.55199 3
0 3 7 17.4824 4.44044 8
0 3 -7 20.2734 3.40129 6
0 3 7 14.8890 4.14303 9
0 3 -7 17.0604 4.37849 13
0 3 7 11.7443 3.70872 2
1 -3 7 127.974 7.16412 5
-1 -3 -7 134.495 8.67319 6
1 -3 7 130.653 7.96094 1
-1 -3 -7 118.782 8.60286 3
-1 -3 -7 128.679 10.5381 4
1 -3 7 122.249 9.08459 8
-1 3 -7 138.056 8.60748 6
1 3 7 127.942 9.32515 3
1 3 7 138.841 9.40554 8
-1 3 -7 122.819 8.84309 13
1 3 7 124.334 8.90674 11
1 3 7 123.954 9.06032 9
2 -3 7 251.290 14.4403 8
-2 -3 -7 257.951 17.3470 4
-2 -3 -7 271.295 14.0842 3
2 -3 7 272.326 12.1822 5
-2 -3 -7 259.074 14.5641 6
2 -3 7 267.523 13.1162 1
2 3 7 251.704 14.8804 9
2 3 7 266.686 14.6115 8
-2 3 -7 272.099 14.5112 6
2 3 7 249.633 14.6188 11
2 3 7 264.393 14.1907 3
-3 -3 -7 0.37430 4.12378 11
3 -3 7 -1.0807 3.26932 1
-3 -3 -7 0.42467 4.11166 3
3 -3 7 4.01039 2.74936 5
3 -3 7 3.74752 4.60891 8
-3 -3 -7 2.69170 3.13161 6
-3 -3 -7 10.9839 4.87541 4
3 3 7 1.40371 3.81819 3
-3 3 -7 -4.1103 3.62955 4
-3 3 -7 3.06716 5.07965 12
3 3 7 2.84456 4.40861 11
3 3 7 8.25135 4.63651 8
3 3 7 6.28540 3.76884 2
3 3 7 -5.3216 4.34285 9
-3 3 -7 4.22052 2.76708 6
-4 -3 -7 70.0587 7.54362 3
-4 -3 -7 74.1729 6.93865 6
-4 -3 -7 75.6715 10.5482 4
-4 -3 -7 65.8814 8.50463 11
4 -3 7 55.6446 9.38048 8
-4 3 -7 74.9672 9.80834 12
-4 3 -7 68.4422 8.15229 4
4 3 7 72.0131 7.80382 9
4 3 7 72.0063 9.19924 8
-4 3 -7 70.4855 6.91407 6
4 3 7 77.5124 7.52801 3
-5 -3 -7 3.41021 4.75047 3
-5 -3 -7 9.40528 6.26115 12
5 -3 7 1.78263 5.82053 8
-5 -3 -7 7.12924 5.96217 4
-5 -3 -7 4.97392 5.23056 11
-5 -3 -7 7.49727 3.90944 6
-5 3 -7 1.76169 4.11998 6
-5 3 -7 19.2027 6.94845 12
-5 3 -7 7.78834 5.53088 4
5 3 7 8.15231 5.71859 8
5 3 7 -0.9448 4.64817 3
-6 -3 -7 89.1610 9.95893 3
-6 -3 -7 87.4225 13.5114 4
-6 -3 -7 91.4911 9.30987 6
-6 -3 -7 119.109 12.0268 12
-6 -3 -7 95.3909 11.8493 11
-6 3 -7 103.194 13.3271 12
-6 3 -7 98.8172 9.16963 6
6 3 7 94.5672 9.70077 2
6 3 7 101.512 12.5339 8
-6 3 -7 87.5763 11.4279 4
6 3 7 89.2478 9.98549 3
-7 -3 -7 -3.4681 8.54570 12
-7 -3 -7 6.08283 8.21712 11
7 -3 7 15.2802 8.60092 8
-7 -3 -7 -1.1282 4.98281 6
-7 -3 -7 1.26094 8.41718 4
-7 -3 -7 -2.6146 6.69348 3
7 3 7 4.61231 6.82204 3
7 3 7 8.30947 6.73792 2
-7 3 -7 6.79126 7.86230 11
7 3 7 0.89108 8.49337 8
-7 3 -7 2.83514 5.01913 6
-7 3 -7 10.5072 9.65386 12
-7 3 -7 6.47222 7.41172 4
9 -4 -7 11.0670 8.38891 3
9 -4 -7 8.60206 10.0289 7
9 -4 -7 -4.8324 7.22512 13
-9 -4 7 0.91451 8.27211 11
-9 -4 7 13.1877 8.63566 3
-9 -4 7 10.5549 7.67917 5
-9 4 7 7.82448 8.72169 9
9 4 -7 17.6495 9.85740 3
9 4 -7 22.6816 6.96610 2
9 4 -7 10.7249 7.55226 13
-9 4 7 13.0646 9.57488 11
-9 4 7 1.59462 9.56148 3
-8 -4 7 3.69116 7.41242 3
-8 -4 7 1.78802 5.66514 5
8 -4 -7 0.61266 7.60038 7
8 -4 -7 6.97405 7.44928 3
-8 -4 7 4.19443 6.75069 11
8 4 -7 5.04446 5.69884 2
8 4 -7 3.62772 6.78751 13
-8 4 7 -9.0393 6.60148 9
-8 4 7 -1.9948 8.19242 3
-8 4 7 5.21948 8.08428 11
8 4 -7 6.12670 7.85270 3
-7 -4 7 287.827 15.8833 3
7 -4 -7 301.379 17.4277 7
-7 -4 7 225.327 14.1212 5
7 -4 -7 246.580 16.3988 3
7 -4 -7 256.462 14.7559 13
7 4 -7 241.161 15.9883 3
-7 4 7 250.140 16.3402 11
-7 4 7 286.108 18.1166 9
-7 4 7 259.352 16.7196 3
7 4 -7 278.507 15.1528 13
7 4 -7 254.315 14.7906 2
-6 -4 7 7.56353 5.35505 11
6 -4 -7 16.4864 5.13231 13
6 -4 -7 7.51015 5.52270 3
-6 -4 7 13.1554 5.45320 3
6 -4 -7 10.9520 5.33489 7
6 4 -7 8.13552 3.83694 2
-6 4 7 11.6248 6.45875 11
-6 4 7 5.62555 5.72547 3
6 4 -7 5.09233 5.08787 3
6 4 -7 12.3036 5.16389 13
5 -4 -7 4.71319 4.86871 3
5 -4 -7 9.74559 4.46710 13
5 -4 -7 7.21206 5.19805 7
5 -4 -7 5.95848 3.58827 6
-5 -4 7 6.41173 4.76484 11
-5 -4 7 14.0840 4.51354 3
-5 4 7 2.05036 5.45900 3
5 4 -7 3.37725 4.57429 3
-5 4 7 6.68850 5.86632 11
5 4 -7 8.33421 4.28868 13
-4 -4 7 16.7644 4.58066 11
-4 -4 7 5.00394 3.89405 5
4 -4 -7 25.6348 4.93682 13
4 -4 -7 20.4368 5.08314 3
4 -4 -7 20.6278 4.93909 7
4 -4 -7 16.5879 3.66362 6
-4 4 7 19.9291 3.89701 2
4 4 -7 20.9185 4.60611 13
-4 4 7 14.0283 5.39155 3
-4 4 7 10.7536 4.88198 9
-4 4 7 16.3647 5.70983 11
-3 -4 7 48.5998 6.68211 10
3 -4 -7 35.5930 6.34086 7
-3 -4 7 39.9510 5.25736 5
3 -4 -7 43.1058 5.76279 6
3 -4 -7 42.5825 5.73348 3
-3 -4 7 36.3053 5.63884 11
3 -4 -7 42.3326 5.20316 13
-3 4 7 46.7873 6.36502 11
3 4 -7 40.7816 5.81331 6
3 4 -7 39.0677 5.72061 13
-3 4 7 41.6179 5.27431 2
-3 4 7 44.2340 6.42179 3
-3 4 7 46.8848 6.43563 9
2 -4 -7 3.25764 4.38495 3
-2 -4 7 3.23250 3.01872 5
-2 -4 7 8.85208 3.90006 10
-2 -4 7 7.68646 2.86412 11
2 -4 -7 9.60466 3.30130 6
-2 -4 7 4.59906 3.92267 8
2 -4 -7 7.68197 4.12453 13
2 4 -7 0.90968 3.99514 13
-2 4 7 9.12348 3.39745 2
-2 4 7 7.35856 4.21541 3
2 4 -7 10.0074 3.39772 11
-2 4 7 9.51207 4.54232 11
-2 4 7 1.11833 4.53708 9
-2 4 7 4.85299 4.50942 8
2 4 -7 6.84889 2.91992 6
1 -4 -7 148.250 9.07641 6
1 -4 -7 126.645 9.24000 3
-1 -4 7 125.484 8.67703 10
1 -4 -7 138.192 8.97499 13
-1 -4 7 134.647 9.52730 8
-1 -4 7 138.225 8.19212 5
-1 -4 7 131.170 8.31598 1
1 4 -7 150.528 9.30383 6
-1 4 7 132.402 9.79991 8
1 4 -7 128.512 8.95887 13
-1 4 7 129.161 8.58859 2
-1 4 7 130.457 9.71109 11
-1 4 7 136.194 10.1596 9
-1 4 7 136.633 9.89509 3
0 -4 -7 412.272 21.6258 6
0 -4 -7 388.202 20.5957 3
0 -4 7 428.244 18.4886 10
0 -4 7 428.030 18.4957 5
0 -4 -7 433.575 20.0553 13
0 -4 7 420.278 20.7160 8
0 -4 7 420.742 19.2464 1
0 4 -7 421.689 20.1395 13
0 4 -7 411.676 21.6596 6
0 4 7 423.430 22.5719 9
0 4 7 418.587 20.5171 2
0 4 7 416.774 20.8021 8
0 4 7 405.456 20.9338 3
-1 -4 -7 5.34351 4.82229 12
1 -4 7 5.77971 3.77662 1
1 -4 7 16.5590 3.66862 5
1 -4 7 2.94685 4.23923 8
-1 -4 -7 9.72040 4.71771 13
1 -4 7 11.4101 3.79773 10
-1 -4 -7 8.42238 3.77164 3
-1 -4 -7 8.97061 3.62077 6
-1 -4 -7 8.44707 5.00610 4
1 4 7 12.1148 4.77378 9
-1 4 -7 14.2133 3.28591 6
-1 4 -7 3.31715 4.94331 13
1 4 7 13.7575 5.09268 8
2 -4 7 12.8358 5.23993 8
-2 -4 -7 7.79221 4.97197 4
-2 -4 -7 0.52942 4.77610 12
2 -4 7 3.40675 3.60261 1
2 -4 7 12.9235 4.31906 10
-2 -4 -7 4.36207 3.40829 6
-2 -4 -7 6.81059 3.87602 3
2 -4 7 11.9024 3.60567 5
-2 -4 -7 -5.2949 5.19136 7
-2 4 -7 13.8823 3.17434 6
2 4 7 14.0148 5.51805 8
-2 4 -7 10.7427 5.53650 13
2 4 7 7.25003 4.11514 3
2 4 7 12.3954 4.95662 9
-3 -4 -7 65.4381 7.95114 3
3 -4 7 68.2202 7.16004 1
3 -4 7 73.1304 9.47705 8
-3 -4 -7 80.5215 7.08008 6
3 -4 7 77.7144 6.59651 5
-3 -4 -7 73.5880 10.4282 4
-3 4 -7 75.5536 7.12007 6
3 4 7 69.2465 9.23609 8
3 4 7 75.2539 8.05335 3
3 4 7 87.0615 9.06900 9
-4 -4 -7 4.11466 5.84113 4
4 -4 7 5.21796 5.62552 8
-4 -4 -7 5.95691 4.84489 3
-4 -4 -7 -0.7835 6.03637 11
4 -4 7 12.5664 4.81970 1
-4 -4 -7 -0.5631 5.99270 12
-4 -4 -7 4.76186 3.96644 6
-4 4 -7 10.0401 6.71210 12
4 4 7 7.25958 4.63723 2
4 4 7 9.44949 6.06558 8
-4 4 -7 5.01250 4.09919 6
4 4 7 6.46031 5.05767 3
4 4 7 10.8600 5.21881 9
5 -4 7 74.5135 11.2750 8
-5 -4 -7 90.9612 10.6058 11
-5 -4 -7 72.5988 9.18515 3
-5 -4 -7 63.8962 8.11512 6
-5 -4 -7 88.2976 11.0005 12
5 4 7 78.9722 10.4105 9
5 4 7 77.0199 8.93114 2
5 4 7 88.0044 10.6104 11
5 4 7 72.2805 9.24100 3
-5 4 -7 61.2450 10.1874 4
5 4 7 81.2330 11.7562 8
-5 4 -7 61.1249 8.51213 6
-5 4 -7 93.4509 12.9074 12
-6 -4 -7 19.5995 8.42201 12
-6 -4 -7 28.3455 9.15466 4
-6 -4 -7 34.5225 6.21161 6
-6 -4 -7 42.0004 8.82415 11
-6 -4 -7 23.1596 7.68348 3
6 4 7 26.7899 7.05890 2
6 4 7 24.6582 7.42970 3
-6 4 -7 31.0550 9.59434 12
6 4 7 29.3922 9.09921 8
6 4 7 25.8014 7.11078 9
-6 4 -7 28.4784 5.45254 6
-6 4 -7 17.3842 6.93404 4
-7 -4 -7 70.8976 11.7563 11
-7 -4 -7 62.9813 10.0310 6
-7 -4 -7 66.0903 9.97495 3
7 -4 7 43.3617 10.0650 8
-7 -4 -7 58.8071 11.4661 12
-7 -4 -7 61.2997 12.4383 4
-7 4 -7 63.8653 12.5871 4
7 4 7 58.5368 10.8441 8
-7 4 -7 68.2844 9.20366 6
-7 4 -7 69.5313 11.7478 12
7 4 7 63.1826 9.70323 3
7 4 7 64.0318 8.67683 2
8 -5 -7 -11.792 8.89130 7
-8 -5 7 -6.6575 7.89443 11
-8 -5 7 -0.4181 6.42175 5
8 -5 -7 1.82224 8.13123 3
-8 -5 7 4.09783 7.94498 3
8 5 -7 7.37696 7.15614 13
-8 5 7 -12.243 9.14512 3
-8 5 7 11.3243 9.15424 11
8 5 -7 14.7369 6.43190 2
-8 5 7 13.0873 8.72491 9
7 -5 -7 8.69559 5.75928 13
-7 -5 7 -2.9721 5.58133 5
7 -5 -7 1.58737 7.38448 3
-7 -5 7 -5.8145 6.87941 3
7 -5 -7 -2.4394 7.64974 7
-7 5 7 6.58998 7.33354 9
-7 5 7 6.07379 12.0717 4
7 5 -7 0.95032 5.40088 2
-7 5 7 14.7129 8.05845 3
-7 5 7 -1.1865 8.32621 11
7 5 -7 -6.1874 6.84734 13
6 -5 -7 65.4681 10.2965 3
-6 -5 7 83.7547 9.25871 3
-6 -5 7 54.6655 9.02251 11
6 -5 -7 64.3842 8.46733 13
-6 -5 7 64.5452 7.90443 5
6 -5 -7 74.2637 10.9059 7
-6 5 7 79.5266 11.6118 4
-6 5 7 63.9444 8.99977 9
6 5 -7 75.4790 8.93644 13
6 5 -7 46.5050 7.77887 2
-6 5 7 80.5346 10.5775 11
-6 5 7 68.8315 9.51625 3
-5 -5 7 12.1453 5.29048 5
-5 -5 7 8.13123 5.30038 11
5 -5 -7 22.4800 6.21630 7
5 -5 -7 21.6694 5.17577 13
5 -5 -7 16.9261 6.01519 3
-5 5 7 5.58007 6.88510 3
-5 5 7 19.8576 7.44531 11
-5 5 7 26.9464 4.78394 2
5 5 -7 16.9662 5.42380 13
-4 -5 7 30.2078 5.93063 5
4 -5 -7 31.5837 6.19351 3
4 -5 -7 43.1219 6.29534 6
-4 -5 7 34.1439 5.40121 11
4 5 -7 38.2492 5.96668 13
-4 5 7 32.2445 4.98563 2
-4 5 7 29.1729 7.16816 11
-4 5 7 31.5786 6.91505 3
4 5 -7 35.1825 5.44253 2
3 -5 -7 143.556 11.4011 3
-3 -5 7 175.399 11.2840 10
3 -5 -7 159.395 10.5631 6
3 -5 -7 175.303 10.0422 13
-3 -5 7 146.326 9.81989 11
-3 5 7 152.593 11.8238 11
-3 5 7 181.298 12.1715 3
3 5 -7 177.493 11.2012 6
3 5 -7 169.611 10.1959 2
3 5 -7 175.338 10.6886 13
-3 5 7 171.470 10.5008 2
2 -5 -7 6.01232 4.39342 3
-2 -5 7 2.68706 3.79033 5
2 -5 -7 9.97768 4.63751 13
-2 -5 7 14.5939 4.67849 10
2 -5 -7 6.95529 3.73924 6
2 5 -7 11.0670 4.94181 13
-2 5 7 3.80242 4.89446 9
-2 5 7 10.7984 4.16260 2
2 5 -7 13.2269 3.27085 2
2 5 -7 9.68822 3.71947 6
-2 5 7 19.2261 5.72537 11
-2 5 7 10.3412 5.32315 3
-1 -5 7 94.8141 8.23860 10
-1 -5 7 89.7099 8.82352 8
1 -5 -7 85.9102 7.91829 13
1 -5 -7 101.609 7.74914 6
-1 -5 7 90.9868 7.18330 5
-1 -5 7 104.720 7.50161 1
1 -5 -7 91.1325 8.16549 3
-1 5 7 70.4837 9.65204 9
-1 5 7 82.4282 9.43133 3
-1 5 7 91.9510 7.57219 2
1 5 -7 92.4065 7.55705 6
1 5 -7 107.508 6.76657 2
1 5 -7 78.6711 8.24473 13
-1 5 7 87.9274 9.34506 11
0 -5 -7 16.5801 3.82571 6
0 -5 7 17.4468 5.15612 8
0 -5 -7 3.63218 4.29145 3
0 -5 -7 15.1874 5.25829 13
0 -5 7 12.5920 4.51510 5
0 -5 7 3.29127 4.33059 10
0 -5 7 18.6558 4.27040 1
0 5 7 26.3011 6.18481 3
0 5 -7 9.94075 3.59488 6
0 5 7 16.9003 4.97369 8
0 5 7 15.1412 5.74966 9
0 5 7 19.7292 4.69065 2
0 5 -7 10.4203 5.18078 13
0 5 7 13.2769 5.66941 11
1 -5 7 0.67248 4.26321 1
1 -5 7 3.02763 3.88602 5
-1 -5 -7 -0.9293 5.09310 13
1 -5 7 4.91672 5.37723 8
-1 -5 -7 3.97395 3.97839 3
-1 -5 -7 6.67809 3.54927 6
1 5 7 6.71823 5.51596 8
1 5 7 -2.2290 4.78661 3
-1 5 -7 -1.4362 4.60391 9
-1 5 -7 4.90634 3.64029 6
1 5 7 -1.9981 4.46583 11
-1 5 -7 -5.6714 5.01411 13
1 5 7 7.39005 4.22582 2
1 5 7 9.45503 5.35223 9
2 -5 7 24.0698 5.40557 8
2 -5 7 23.5436 4.70396 1
2 -5 7 27.8693 5.20553 5
-2 -5 -7 23.6032 4.37190 6
-2 -5 -7 20.5471 7.36893 4
-2 -5 -7 17.7952 5.60811 3
-2 5 -7 21.0257 5.41513 9
2 5 7 29.2067 6.03083 3
-2 5 -7 21.0453 6.34093 13
2 5 7 31.3566 6.59157 8
-2 5 -7 24.6736 4.25731 6
-3 -5 -7 3.05860 6.31202 12
-3 -5 -7 -2.9902 5.07724 3
-3 -5 -7 -0.9827 6.10319 4
-3 -5 -7 -12.698 6.58070 7
3 -5 7 0.28199 4.06896 5
-3 -5 -7 -8.2491 3.91198 6
3 -5 7 0.77890 4.53103 1
3 -5 7 -5.2173 5.21224 8
-3 5 -7 8.50882 4.09945 6
3 5 7 5.08270 6.00350 9
3 5 7 1.72705 6.23049 8
3 5 7 -1.3929 5.28783 3
-3 5 -7 2.55585 6.74313 13
-4 -5 -7 59.7008 7.70968 6
-4 -5 -7 57.8808 9.33376 11
-4 -5 -7 54.2948 10.1617 7
-4 -5 -7 51.5412 8.53817 12
-4 -5 -7 68.2162 12.3035 4
-4 -5 -7 64.6604 9.39223 3
4 -5 7 78.5364 10.9845 8
4 -5 7 63.4603 8.64625 1
4 5 7 71.3352 9.39742 3
-4 5 -7 71.8220 7.90349 6
4 5 7 66.5238 11.5611 9
4 5 7 68.9325 10.4866 11
4 5 7 61.9813 9.04723 2
4 5 7 82.5431 11.7008 8
5 -5 7 13.3348 6.12651 1
-5 -5 -7 13.8731 8.35251 7
-5 -5 -7 5.98660 7.20042 11
-5 -5 -7 2.50660 8.02974 4
-5 -5 -7 15.1491 8.70919 12
-5 -5 -7 6.36040 5.29273 6
-5 -5 -7 3.23879 6.66856 3
5 5 7 -6.8680 6.76029 3
5 5 7 11.4876 7.63265 9
-5 5 -7 5.50240 9.66344 12
5 5 7 2.37597 8.90924 8
5 5 7 6.01377 7.41209 11
5 5 7 15.0859 6.63757 2
-6 -5 -7 91.1495 10.8103 6
-6 -5 -7 84.7637 11.7031 12
-6 -5 -7 90.0945 12.6226 3
-6 -5 -7 96.2793 14.3584 7
-6 -5 -7 119.109 16.1073 4
-6 -5 -7 95.3217 13.1489 11
6 5 7 92.3559 12.6885 3
6 5 7 117.802 14.4346 9
-6 5 -7 116.964 10.7149 6
6 5 7 105.664 11.7095 2
6 5 7 106.832 15.7653 8
-6 5 -7 107.312 16.5205 12
6 -6 -7 -3.7307 8.32356 7
-6 -6 7 2.09320 5.87116 5
-6 -6 7 4.83570 7.82938 11
6 -6 -7 -3.4550 7.22933 3
-6 6 7 23.2302 8.47764 9
-6 6 7 12.7920 9.01500 11
6 6 -7 5.85836 6.77853 13
-6 6 7 6.43050 8.70424 3
-6 6 7 27.1369 11.9902 4
6 6 -7 10.3032 5.58410 2
5 -6 -7 13.8896 6.96500 7
5 -6 -7 10.4094 6.89736 3
-5 -6 7 8.99867 5.64130 5
-5 -6 7 4.86055 6.42258 11
-5 6 7 6.29651 7.90413 3
-5 6 7 10.1222 8.03513 11
-5 6 7 7.08841 5.40950 2
-5 6 7 15.9043 8.40322 9
5 6 -7 1.44591 4.78706 2
5 6 -7 10.3449 6.41574 13
4 -6 -7 41.7434 7.90814 3
4 -6 -7 46.0935 8.49038 12
-4 -6 7 53.8225 7.86119 5
4 -6 -7 61.3351 9.93409 7
-4 -6 7 37.4492 6.41397 11
4 6 -7 39.8714 6.04934 2
-4 6 7 54.8887 6.98370 2
-4 6 7 36.6390 9.09167 9
-4 6 7 60.1407 8.99419 11
4 6 -7 60.3545 8.16820 13
-4 6 7 41.6950 8.18453 3
3 -6 -7 18.7587 6.87375 12
3 -6 -7 20.3858 6.62231 3
-3 -6 7 18.0516 5.27450 5
3 -6 -7 12.1251 4.17142 6
3 -6 -7 20.3166 6.98914 7
-3 6 7 16.7511 6.92884 3
3 6 -7 11.6394 4.31649 2
-3 6 7 28.0733 7.56953 9
-3 6 7 29.3663 7.50938 11
3 6 -7 23.3134 6.10139 13
-3 6 7 19.7935 5.43363 2
3 6 -7 26.7809 5.37295 6
2 -6 -7 21.5383 6.99884 7
2 -6 -7 36.6564 7.68453 12
2 -6 -7 21.8173 4.53929 6
-2 -6 7 21.0624 5.88187 5
2 -6 -7 27.3802 5.82131 3
-2 6 7 23.4434 7.12893 3
-2 6 7 21.8327 6.95641 9
2 6 -7 27.6719 6.07709 13
-2 6 7 41.9961 7.92238 11
2 6 -7 25.0471 4.81774 2
-2 6 7 32.2110 5.90013 2
2 6 -7 24.5092 5.28528 6
1 -6 -7 35.0489 5.39712 6
1 -6 -7 30.6836 7.17992 12
1 -6 -7 27.6354 5.66730 3
1 -6 -7 29.9917 7.41709 7
1 6 -7 30.5028 4.83585 2
-1 6 7 37.7178 8.01650 9
-1 6 7 37.2161 8.03821 11
1 6 -7 37.1478 5.69766 6
-1 6 7 39.2377 6.16691 2
-1 6 7 28.8021 7.18457 3
1 6 -7 32.8951 6.40471 13
0 -6 -7 116.340 10.2904 3
0 -6 -7 114.518 8.93204 6
0 -6 7 109.200 9.07418 1
0 -6 -7 130.350 12.1344 7
0 -6 -7 120.548 11.6997 12
0 -6 7 122.386 10.1182 10
0 6 7 111.191 11.4691 11
0 6 -7 105.073 9.97223 13
0 6 7 126.634 10.1381 2
0 6 -7 109.235 9.58165 6
0 6 -7 112.916 8.41609 2
0 6 -7 124.321 11.6434 9
1 -6 7 14.3480 5.99741 10
-1 -6 -7 11.6097 4.26716 6
-1 -6 -7 19.9055 7.48220 7
-1 -6 -7 14.3941 6.34588 13
-1 -6 -7 2.80061 7.15850 12
1 -6 7 6.22479 4.67668 1
1 -6 7 14.8426 5.54288 8
-1 -6 -7 17.0749 5.88227 3
1 6 7 9.21939 6.40492 11
-1 6 -7 10.6796 4.23774 6
-1 6 -7 12.7897 5.88470 9
1 6 7 12.2054 5.39810 2
-1 6 -7 10.8612 4.13753 2
1 6 7 5.92384 6.24595 3
1 6 7 26.4937 7.30103 8
-1 6 -7 6.03697 6.10529 13
2 -6 7 5.10807 5.18694 1
2 -6 7 12.7350 5.62313 10
-2 -6 -7 11.6401 7.10622 7
-2 -6 -7 10.3889 4.77019 6
2 -6 7 12.4510 6.02314 8
-2 -6 -7 17.3607 7.24522 13
-2 -6 -7 -0.6552 6.99117 12
-2 -6 -7 -2.5634 5.90167 3
2 6 7 5.37887 5.67922 2
-2 6 -7 16.2413 6.37417 9
2 6 7 -0.9455 7.06826 11
2 6 7 15.0405 7.62516 8
-2 6 -7 6.40331 6.27352 13
-2 6 -7 5.04805 3.84683 2
-2 6 -7 8.49944 4.38465 6
2 6 7 -2.2256 6.04534 3
-3 -6 -7 17.7223 5.44599 6
-3 -6 -7 6.66988 8.33960 4
-3 -6 -7 13.8273 8.51244 7
3 -6 7 14.9199 7.01743 8
-3 -6 -7 -0.1282 8.04806 12
3 -6 7 11.3940 5.58466 1
3 -6 7 13.8361 6.01475 10
-3 -6 -7 18.5538 6.60767 3
3 6 7 10.6756 7.90622 11
3 6 7 7.15290 6.61812 3
-3 6 -7 22.5381 4.96772 6
3 6 7 22.6258 8.46076 8
-3 6 -7 -0.3888 7.03784 13
3 6 7 15.3749 6.75392 2
-3 6 -7 8.87077 4.29248 2
4 -6 7 -3.0158 6.03358 1
-4 -6 -7 6.24323 8.15342 12
-4 -6 -7 -1.2331 6.56308 3
-4 -6 -7 -8.2021 9.18951 4
-4 -6 -7 -0.2633 8.12851 7
4 6 7 5.13930 6.75888 2
4 6 7 15.9169 8.05027 11
-4 6 -7 -0.1962 8.53191 13
-4 6 -7 8.91995 4.80017 6
4 6 7 9.26909 7.28494 3
-4 6 -7 -2.8621 4.06772 2
4 6 7 8.79624 8.42067 8
-4 -7 7 0.90193 6.08153 5
4 -7 -7 3.53657 7.45806 3
4 -7 -7 10.3198 7.40918 7
4 7 -7 7.94644 5.14772 2
-4 7 7 -2.6395 6.27634 2
-4 7 7 -0.8040 9.10360 11
-4 7 7 -5.5455 7.86231 9
-4 7 7 4.92383 8.49228 3
4 7 -7 -6.4958 6.24963 13
-3 -7 7 8.23646 7.96745 10
-3 -7 7 -3.1330 6.30577 5
3 -7 -7 5.30171 7.50244 7
3 -7 -7 17.1338 6.87772 3
3 -7 -7 6.72300 8.05865 12
3 -7 -7 6.08607 4.60681 6
3 7 -7 18.0467 6.06620 13
-3 7 7 10.0308 7.59999 9
-3 7 7 -2.2971 8.13649 3
3 7 -7 11.5869 5.66896 6
-3 7 7 9.95448 8.93757 11
-3 7 7 8.78794 6.01805 2
3 7 -7 7.39270 4.98783 2
2 -7 -7 9.16972 7.13853 7
-2 -7 7 4.52037 7.27069 10
2 -7 -7 8.51035 6.33925 3
2 -7 -7 -4.1079 4.79168 6
2 -7 -7 -3.8184 7.45179 12
-2 -7 7 6.19017 5.45340 5
-2 7 7 2.46227 6.49128 2
-2 7 7 0.68825 7.60636 3
2 7 -7 6.45606 6.58017 13
-2 7 7 9.25873 8.10377 11
2 7 -7 2.78634 5.48610 6
2 7 -7 7.85253 5.26499 2
-2 7 7 -7.2195 7.34238 9
-1 -7 7 90.5081 11.2304 10
-1 -7 7 88.8707 9.01182 1
1 -7 -7 91.1156 11.4192 7
1 -7 -7 93.4805 9.22482 6
1 -7 -7 109.774 13.1094 12
-1 -7 7 74.1066 9.10465 5
1 -7 -7 71.0878 10.5864 3
1 7 -7 103.307 13.5880 9
-1 7 7 85.7788 10.5726 2
1 7 -7 82.4962 10.1081 6
1 7 -7 93.5345 8.98415 2
-1 7 7 82.7506 13.8788 9
-1 7 7 85.4004 12.0034 11
1 7 -7 67.8468 9.80349 13
-1 7 7 84.3808 12.7166 3
0 -7 7 1.40461 6.46887 10
0 -7 -7 11.3807 6.22308 3
0 -7 7 8.42137 5.47958 1
0 -7 7 4.48055 6.08722 5
0 -7 -7 -2.8342 4.96637 6
0 -7 -7 -6.4106 7.56585 12
0 -7 -7 -9.9820 6.96080 7
0 7 -7 -7.1881 6.40893 13
0 7 7 -1.2838 7.01820 3
0 7 7 15.0468 7.96803 9
0 7 -7 2.43926 5.49647 6
0 7 7 -0.3228 6.33880 2
0 7 7 -4.8280 7.64886 11
0 7 -7 4.46450 5.06236 2
0 7 -7 -4.3140 8.03810 9
-1 -7 -7 27.0007 8.59066 7
1 -7 7 15.2578 7.31658 10
-1 -7 -7 15.0850 5.69268 6
1 -7 7 18.8904 6.46566 5
-1 -7 -7 15.8059 8.62403 12
-1 -7 -7 10.9377 7.24293 3
1 -7 7 19.3284 5.71425 1
1 7 7 16.7340 6.89069 2
1 7 7 16.7057 8.49997 11
-1 7 -7 8.35189 7.01311 13
1 7 7 24.2397 7.84809 3
1 7 7 24.8178 9.42598 9
1 7 7 27.8303 9.14807 8
-1 7 -7 9.83078 8.48474 9
-1 7 -7 8.23550 5.12714 6
-1 7 -7 37.1872 13.1144 4
-1 7 -7 17.7903 5.48857 2
-2 -7 -7 23.4546 5.76790 6
-2 -7 -7 16.6440 9.13275 12
2 -7 7 16.9381 6.13570 5
-2 -7 -7 21.2789 8.92682 7
-2 -7 -7 17.7973 7.42734 3
2 -7 7 18.8259 6.77647 1
2 -7 7 25.6042 7.05348 10
2 7 7 27.8023 9.31867 9
2 7 7 14.1202 8.43947 11
2 7 7 23.9222 7.76639 2
2 7 7 27.1053 9.50166 8
-2 7 -7 17.3238 7.60533 9
-2 7 -7 19.5099 5.50648 2
2 7 7 24.0227 8.63383 3
-2 7 -7 18.7904 5.36128 6
-2 7 -7 5.17604 7.57429 13
-9 0 8 3.89855 7.30930 11
9 0 -8 24.4513 6.12220 6
9 0 -8 23.2142 7.85102 13
9 0 -8 10.9211 8.33510 3
9 0 -8 30.1190 8.07872 7
-9 0 8 14.2543 8.31058 3
-9 0 8 1.88417 7.50426 9
8 0 -8 67.7343 8.63868 6
8 0 -8 61.2558 8.59472 7
-8 0 8 51.4405 8.05449 11
-8 0 8 79.7840 10.4905 3
-8 0 8 58.4738 10.6283 9
8 0 -8 46.8873 8.40876 3
8 0 -8 70.1655 8.95520 13
7 0 -8 10.9034 4.97447 6
-7 0 8 8.99672 6.11071 11
7 0 -8 6.74601 6.22359 7
-7 0 8 11.9519 6.03541 3
7 0 -8 7.72169 4.97823 13
7 0 -8 12.0709 6.01724 3
-7 0 8 13.3537 5.82223 9
6 0 -8 7.05900 3.87892 6
-6 0 8 12.5606 5.15559 3
6 0 -8 4.79469 5.59012 3
5 0 -8 320.509 15.9840 12
5 0 -8 312.496 16.3006 13
5 0 -8 341.661 17.2445 3
-5 0 8 308.511 18.2680 9
-5 0 8 326.936 16.8586 8
-5 0 8 308.865 17.0851 3
5 0 -8 340.979 17.5184 6
-5 0 8 312.642 16.9562 11
5 0 -8 313.263 16.9815 7
-4 0 8 3.35182 3.93716 3
4 0 -8 7.86398 4.16165 12
-4 0 8 4.39846 3.88482 9
4 0 -8 8.70192 4.79585 3
4 0 -8 7.61210 3.06929 6
4 0 -8 13.4860 4.67029 7
4 0 -8 4.54662 4.12699 13
-4 0 8 7.33362 4.21597 8
-4 0 8 15.3737 5.01792 11
3 0 -8 397.731 18.8669 12
-3 0 8 366.418 19.4937 11
-3 0 8 387.055 19.8221 8
-3 0 8 396.999 21.2192 9
3 0 -8 413.352 20.3075 7
3 0 -8 409.807 19.8729 3
-3 0 8 430.600 19.9982 3
3 0 -8 399.328 20.8024 6
3 0 -8 397.983 19.2885 13
-2 0 8 22.6242 4.72989 3
2 0 -8 18.1363 4.85381 7
2 0 -8 35.9542 4.54458 6
-2 0 8 25.1928 4.52797 8
-2 0 8 30.6254 4.32678 9
2 0 -8 18.9137 4.85403 12
2 0 -8 31.5390 4.90777 3
2 0 -8 22.4114 4.45427 13
-2 0 8 34.4231 5.10831 11
-2 0 8 22.5727 4.36036 3
1 0 -8 787.589 34.2193 3
-1 0 8 733.560 34.5557 8
-1 0 8 737.144 34.0522 11
1 0 -8 758.672 33.2088 12
-1 0 8 755.028 37.2528 9
1 0 -8 744.501 36.7970 6
1 0 -8 747.157 33.7879 13
-1 0 8 658.612 33.9347 3
-1 0 8 826.548 34.4794 3
1 0 -8 735.587 35.7249 7
0 0 -8 0.66930 3.40083 3
0 0 8 1.10227 2.49092 9
0 0 -8 4.33484 2.65969 6
0 0 8 3.41039 3.95906 11
0 0 8 3.74412 3.78391 3
0 0 -8 -3.7697 3.33551 9
0 0 8 -2.5984 2.62065 3
0 0 8 -0.5849 3.79656 8
0 0 -8 -7.1724 3.97219 13
0 0 -8 -4.5744 3.78320 12
-1 0 -8 10.1411 4.57330 12
-1 0 -8 16.4930 4.08865 3
1 0 8 15.6497 3.37640 1
1 0 8 9.24017 4.31511 3
-1 0 -8 12.6581 4.01598 13
1 0 8 11.7093 4.35576 11
-1 0 -8 14.6443 3.63658 6
2 0 8 166.193 10.1272 11
-2 0 -8 159.210 10.4761 6
2 0 8 162.399 8.84704 1
-2 0 -8 170.888 10.0169 3
2 0 8 149.681 11.0501 3
2 0 8 159.291 9.62781 2
-2 0 -8 152.107 10.6021 12
2 0 8 160.357 9.71895 3
-3 0 -8 54.0113 6.74232 6
-3 0 -8 70.2972 7.89376 12
3 0 8 57.8332 6.35618 3
3 0 8 64.6606 6.37933 2
3 0 8 64.5560 6.18548 1
3 0 8 62.8869 9.27122 3
-3 0 -8 57.1818 7.01523 3
-3 0 -8 52.9278 8.26895 4
3 0 8 66.2209 7.47991 11
4 0 8 63.0301 7.01014 3
-4 0 -8 59.1426 8.09306 3
-4 0 -8 87.1672 9.36453 12
-4 0 -8 73.5182 7.59094 6
4 0 8 80.1890 8.62530 11
-4 0 -8 85.7259 9.72563 4
4 0 8 91.2956 7.41513 2
5 0 8 -5.0923 4.65241 3
-5 0 -8 -9.7423 6.10035 11
-5 0 -8 -0.5826 4.12005 6
5 0 8 2.24668 4.35613 2
-5 0 -8 7.52780 6.56921 12
-5 0 -8 -3.0483 5.03375 3
5 0 8 2.56403 5.68628 8
5 0 8 -5.5604 5.80788 11
-5 0 -8 2.81094 6.07908 4
-6 0 -8 68.8515 9.80246 11
-6 0 -8 54.3069 7.85286 3
-6 0 -8 78.5573 12.4145 12
6 0 8 95.3588 11.7924 8
-6 0 -8 86.5194 9.12706 6
-6 0 -8 61.6409 11.8482 4
6 0 8 60.7802 8.65347 3
7 0 8 3.32270 7.75070 8
-7 0 -8 6.49015 5.76881 6
7 0 8 -2.3614 6.48940 3
-7 0 -8 3.32330 8.13874 4
-7 0 -8 8.54121 8.61418 12
-7 0 -8 -5.1914 8.59930 11
-7 0 -8 -11.490 6.83987 3
-9 -1 8 49.8021 8.83177 9
9 -1 -8 39.8383 6.70364 6
-9 -1 8 54.7874 9.89261 3
9 -1 -8 52.3790 8.67112 13
9 -1 -8 46.9618 9.81242 7
-9 -1 8 26.3904 7.89193 11
9 -1 -8 49.2517 9.72971 3
9 1 -8 50.7364 7.59844 6
9 1 -8 36.4316 8.76489 3
-9 1 8 48.4200 9.74697 3
-9 1 8 46.9943 9.18515 11
9 1 -8 53.7366 9.54538 13
9 1 -8 61.1276 8.03342 2
-9 1 8 40.6574 9.15408 9
-8 -1 8 1.37175 6.56080 3
-8 -1 8 -0.1789 6.22509 11
8 -1 -8 -1.2501 4.85803 6
8 -1 -8 7.22001 6.88992 3
8 -1 -8 0.81626 7.14010 7
-8 -1 8 -0.9111 6.68918 9
8 -1 -8 4.38092 6.14705 13
8 1 -8 9.10344 6.02625 13
-8 1 8 -7.3684 6.16478 9
8 1 -8 -5.6041 4.91171 6
-8 1 8 12.0560 7.01375 3
-8 1 8 1.49657 7.09579 11
8 1 -8 -1.3439 6.85064 3
7 -1 -8 25.6476 5.25819 6
7 -1 -8 24.8672 7.04771 7
-7 -1 8 22.4478 6.57321 9
7 -1 -8 16.2318 6.58412 3
-7 -1 8 33.1080 6.50413 3
7 1 -8 21.8640 6.48535 3
-7 1 8 25.4099 7.13010 3
7 1 -8 25.6481 4.99122 6
-7 1 8 16.6783 6.14083 9
6 -1 -8 73.0316 7.94882 7
-6 -1 8 58.8326 7.98269 3
6 -1 -8 52.2559 8.58792 3
6 -1 -8 45.9061 6.67217 6
6 1 -8 56.6597 7.40426 3
6 1 -8 77.7925 7.26667 7
-6 1 8 50.5963 7.39444 3
6 1 -8 61.4672 6.87011 6
-5 -1 8 18.9310 4.90935 11
5 -1 -8 12.9196 3.82674 6
5 -1 -8 23.1107 5.47984 3
5 -1 -8 16.4614 5.21343 7
-5 -1 8 15.0843 5.07478 9
5 -1 -8 22.0065 4.93765 12
-5 -1 8 13.2534 4.86231 3
5 -1 -8 20.9168 4.65689 13
5 1 -8 16.6821 5.34485 3
-5 1 8 12.5603 4.83349 9
-5 1 8 15.9715 5.69377 11
5 1 -8 17.3737 4.64867 7
-5 1 8 16.4207 5.18318 3
-5 1 8 18.6101 4.68822 8
5 1 -8 13.0199 4.20511 6
4 -1 -8 256.183 14.1612 7
-4 -1 8 222.917 13.2119 11
4 -1 -8 240.594 13.5860 6
4 -1 -8 243.637 13.2415 13
-4 -1 8 228.620 14.4808 9
4 -1 -8 252.186 13.0733 12
-4 -1 8 251.898 13.4084 3
-4 -1 8 238.637 13.5072 8
4 -1 -8 246.488 13.9714 3
-4 1 8 244.750 13.6482 3
4 1 -8 250.213 13.4319 7
4 1 -8 240.046 13.8607 6
-4 1 8 220.418 13.5748 11
4 1 -8 246.508 13.4469 3
-4 1 8 250.388 13.8353 8
-4 1 8 237.399 14.5076 9
3 -1 -8 14.9727 3.98741 13
-3 -1 8 9.67234 3.66111 3
-3 -1 8 11.1352 4.12047 8
-3 1 8 12.4634 4.56316 11
3 1 -8 17.7976 4.73530 7
3 1 -8 1.80331 3.50519 13
-3 1 8 10.5742 3.81310 8
-2 -1 8 374.614 19.1260 3
2 -1 -8 418.669 19.9151 3
-2 -1 8 386.997 19.7473 8
2 -1 -8 402.931 20.7204 6
2 -1 -8 393.805 20.5627 7
-2 -1 8 410.490 19.3443 11
-2 -1 8 405.286 19.5262 3
2 -1 -8 398.894 19.2294 13
-2 -1 8 375.404 20.9721 9
2 -1 -8 395.686 19.1689 12
-2 1 8 373.623 20.9492 9
-2 1 8 408.340 19.7756 11
2 1 -8 398.195 20.4566 7
2 1 -8 369.628 19.1334 13
2 1 -8 420.690 19.4074 3
2 1 -8 416.200 20.8487 6
-2 1 8 425.161 19.9643 8
-2 1 8 401.933 19.8011 3
1 -1 -8 0.66881 3.77756 13
-1 -1 8 3.06129 3.55997 8
-1 -1 8 -3.6438 3.94876 11
-1 -1 8 -2.3205 3.14938 3
1 -1 -8 3.88189 3.90708 3
-1 -1 8 -1.5362 3.51416 9
1 -1 -8 -5.3858 4.28777 7
-1 -1 8 3.56528 3.32399 3
1 -1 -8 -6.1805 3.96941 12
1 -1 -8 4.57885 2.80107 6
1 1 -8 3.67107 2.54793 6
-1 1 8 -0.4433 3.49752 8
-1 1 8 1.35297 3.40644 3
1 1 -8 -2.4386 3.89302 13
-1 1 8 3.83364 3.92661 11
1 1 -8 3.23300 3.64596 3
1 1 -8 4.60012 4.15095 12
-1 1 8 -0.6413 3.30302 9
0 -1 -8 32.9438 5.11597 12
0 -1 -8 30.5972 5.41399 7
0 -1 -8 36.4339 5.05189 6
0 -1 8 45.4690 4.83379 1
0 -1 -8 32.4098 5.64823 13
0 -1 8 39.7800 5.87211 11
0 -1 8 34.9359 5.35255 3
0 -1 8 37.3150 4.88720 3
0 -1 8 23.9646 4.99123 8
0 -1 -8 46.0204 6.02795 3
0 1 -8 44.6340 4.97863 6
0 1 -8 27.2141 4.31187 3
0 1 -8 45.9548 6.53050 12
0 1 8 35.7203 5.20681 3
0 1 8 36.0721 5.53630 11
0 1 8 28.8536 5.03778 8
0 1 -8 39.3745 5.82551 13
0 1 8 26.8353 3.96043 2
0 1 -8 41.9016 5.40471 9
0 1 8 35.3229 5.23631 9
-1 -1 -8 168.954 11.0442 9
-1 -1 -8 173.721 10.8203 6
1 -1 8 163.234 10.8920 8
-1 -1 -8 171.168 10.8067 12
1 -1 8 151.053 9.89577 3
-1 -1 -8 176.585 10.4983 3
1 -1 8 178.818 9.20972 1
1 -1 8 181.216 8.19977 5
1 -1 8 178.964 10.2257 11
1 1 8 180.776 9.87542 2
-1 1 -8 174.414 10.5060 12
1 1 8 165.826 11.1880 8
-1 1 -8 166.950 9.98649 3
1 1 8 176.803 10.7768 11
-1 1 -8 178.590 10.5367 6
-1 1 -8 154.266 11.0145 13
1 1 8 167.665 9.73292 9
1 1 8 171.452 10.7072 3
2 -1 8 36.7658 5.51378 11
-2 -1 -8 33.7084 5.25067 12
2 -1 8 34.1204 4.59191 3
-2 -1 -8 44.6220 6.35667 3
-2 -1 -8 28.7190 4.73912 6
2 -1 8 31.9806 5.66553 8
2 -1 8 34.7648 5.10597 1
2 -1 8 37.9695 5.42933 3
2 1 8 33.5316 5.64135 11
-2 1 -8 31.7144 4.85635 6
2 1 8 31.4663 5.65583 8
-2 1 -8 41.5708 5.79582 3
2 1 8 34.8395 5.24125 2
2 1 8 39.3173 5.57596 3
-2 1 -8 36.3399 5.59189 12
-3 -1 -8 11.3381 4.61300 3
3 -1 8 15.4664 3.58772 3
-3 -1 -8 8.86766 5.00845 4
3 -1 8 12.4285 3.64853 1
3 -1 8 -0.5452 4.68232 8
-3 -1 -8 11.9505 3.74421 6
-3 -1 -8 10.7936 5.09922 12
3 -1 8 11.6902 4.48029 11
3 1 8 21.0598 4.39240 3
-3 1 -8 12.8507 4.95258 12
3 1 8 12.0216 5.46999 11
-3 1 -8 14.2633 4.13105 3
-3 1 -8 11.5493 4.55892 4
3 1 8 14.5900 3.90502 2
-3 1 -8 6.01497 3.61319 6
4 -1 8 12.0314 3.54299 3
-4 -1 -8 4.32849 4.87516 3
-4 -1 -8 1.78260 5.73632 4
-4 -1 -8 9.51158 3.61376 6
4 -1 8 10.5666 5.36895 11
-4 -1 -8 13.0267 5.29954 12
4 1 8 1.81614 3.64168 2
4 1 8 14.0849 5.42448 11
-4 1 -8 3.35040 4.47091 3
-4 1 -8 10.6930 5.34309 4
-4 1 -8 11.0837 6.51942 12
4 1 8 16.4427 4.62110 3
-5 -1 -8 139.444 14.3050 4
-5 -1 -8 146.810 12.8013 11
-5 -1 -8 162.663 11.3186 6
-5 -1 -8 154.382 11.2929 3
5 -1 8 137.614 9.80860 3
-5 -1 -8 138.238 12.5047 12
5 -1 8 158.182 12.6565 8
5 -1 8 168.826 11.2145 11
-5 1 -8 151.647 11.1804 6
-5 1 -8 151.840 10.2507 3
-5 1 -8 147.565 13.2118 4
-5 1 -8 151.043 12.8983 12
5 1 8 142.369 10.2549 3
6 -1 8 4.49429 7.41654 11
-6 -1 -8 -3.3198 7.96525 11
-6 -1 -8 7.19857 6.11064 3
6 -1 8 6.63388 7.18877 8
-6 -1 -8 -4.2289 7.21410 4
-6 -1 -8 14.2936 7.19037 12
6 -1 8 0.22791 5.29441 3
-6 -1 -8 -2.9052 5.01565 6
-6 1 -8 5.60601 6.84757 4
6 1 8 1.24593 5.76056 3
6 1 8 7.60658 7.41283 8
-6 1 -8 -1.4388 7.71013 11
-6 1 -8 -4.0751 5.58876 3
-6 1 -8 7.62183 8.10762 12
-6 1 -8 3.82613 5.18613 6
6 1 8 9.72414 7.92055 11
7 -1 8 0.37079 6.10109 3
-7 -1 -8 3.47532 9.36925 12
-7 -1 -8 12.3268 7.00260 3
-7 -1 -8 -14.056 8.47320 4
-7 -1 -8 -0.9125 8.48046 11
7 -1 8 6.03981 8.06082 8
-7 -1 -8 -7.5887 5.50432 6
-7 1 -8 4.31981 6.67796 6
7 1 8 6.51746 8.48775 8
7 1 8 -3.6254 6.19172 3
-7 1 -8 -2.7479 9.63384 12
-7 1 -8 1.55816 9.56778 11
-7 1 -8 -4.8914 8.01314 4
7 1 8 -6.2102 5.94793 2
-9 -2 8 21.9839 8.89828 3
9 -2 -8 19.8247 10.4200 7
9 -2 -8 15.5705 9.42462 3
9 -2 -8 25.9071 8.15313 13
9 -2 -8 21.3531 6.08585 6
-9 -2 8 22.0543 7.65867 11
-9 2 8 10.2804 7.92238 9
-9 2 8 20.9874 9.25699 3
-9 2 8 13.3282 7.87920 11
9 2 -8 22.1191 7.07253 6
9 2 -8 22.6805 7.99531 13
9 2 -8 24.2230 6.12371 2
9 2 -8 37.6147 8.62526 3
8 -2 -8 218.829 15.3947 7
8 -2 -8 185.123 13.2252 6
-8 -2 8 220.738 14.9108 3
8 -2 -8 206.303 14.4516 13
8 -2 -8 206.584 15.5992 3
-8 2 8 188.854 15.5790 3
8 2 -8 196.347 14.9155 3
8 2 -8 212.861 14.3518 6
8 2 -8 229.510 12.7608 2
8 2 -8 221.318 13.6927 13
-8 2 8 226.003 16.1842 9
-8 2 8 193.943 14.8289 11
-7 -2 8 12.2103 6.61358 3
7 -2 -8 5.62982 6.21679 3
7 -2 -8 -2.2791 6.80617 7
7 -2 -8 16.6361 4.47650 6
7 2 -8 8.26343 6.32665 3
7 2 -8 6.08894 5.24287 13
-7 2 8 3.65354 5.63880 9
7 2 -8 0.09892 4.69035 6
-7 2 8 1.16976 6.74750 3
6 -2 -8 8.31879 4.62625 13
-6 -2 8 10.5814 5.57066 11
6 -2 -8 8.60935 3.75424 6
-6 -2 8 9.25266 5.51553 3
6 -2 -8 16.0130 5.25485 7
6 -2 -8 15.6582 5.59881 3
6 2 -8 4.32045 5.34698 3
6 2 -8 4.86022 4.53764 13
6 2 -8 4.82105 4.04216 6
-6 2 8 -4.4686 5.53922 3
-5 -2 8 52.6822 7.17631 3
5 -2 -8 45.6155 6.87141 3
5 -2 -8 60.1227 6.09595 6
5 -2 -8 54.7748 7.75728 12
5 -2 -8 47.2207 7.10084 13
-5 -2 8 42.1487 6.39523 11
5 -2 -8 58.7560 7.83868 7
5 2 -8 49.8761 6.38018 6
-5 2 8 31.9526 6.21137 3
5 2 -8 43.4137 6.90772 13
5 2 -8 54.9028 6.87030 3
-5 2 8 49.0864 7.79594 8
-4 -2 8 10.1208 4.45592 11
4 -2 -8 -5.3175 4.84398 7
4 -2 -8 -2.3848 4.14199 13
4 -2 -8 3.59565 3.49604 6
4 -2 -8 -6.4549 4.41096 3
-4 -2 8 -8.9956 4.48730 3
4 -2 -8 3.09248 4.29635 12
-4 -2 8 -2.4493 4.23713 3
-4 2 8 -1.0903 3.47887 9
-4 2 8 -2.0171 4.31392 3
-4 2 8 0.36157 4.31349 8
4 2 -8 7.35558 3.13117 6
4 2 -8 -3.6674 4.07015 13
4 2 -8 -1.3274 4.53324 3
-3 -2 8 347.492 15.7737 3
3 -2 -8 297.909 16.2027 3
3 -2 -8 304.472 16.4412 6
3 -2 -8 304.926 16.5953 7
3 -2 -8 298.461 15.4799 12
3 -2 -8 323.896 15.6793 13
-3 -2 8 263.126 15.2547 11
-3 2 8 259.639 15.9202 11
3 2 -8 310.651 15.5682 3
3 2 -8 304.704 15.5468 13
-3 2 8 298.957 17.1119 9
3 2 -8 321.400 15.9823 7
-3 2 8 274.994 15.8944 8
3 2 -8 282.036 16.5191 6
-3 2 8 347.907 16.7507 3
2 -2 -8 74.2658 8.02067 7
2 -2 -8 72.5456 8.10213 12
2 -2 -8 83.9456 6.97656 6
-2 -2 8 65.4630 6.03074 3
-2 -2 8 73.8084 7.20527 3
2 -2 -8 82.4285 7.65018 13
2 -2 -8 68.0606 7.85787 3
-2 -2 8 85.7313 7.12377 11
-2 2 8 75.5163 7.48963 11
-2 2 8 68.9830 6.43326 2
-2 2 8 76.6801 7.85607 8
2 2 -8 71.1545 7.30364 13
-2 2 8 83.7405 7.20432 9
2 2 -8 84.0371 7.08139 3
2 2 -8 81.3623 7.51482 7
2 2 -8 81.8302 6.73954 6
-2 2 8 71.3233 7.57425 3
1 -2 -8 555.378 26.0805 12
-1 -2 8 573.236 24.0034 5
-1 -2 8 550.812 25.9606 11
-1 -2 8 540.210 26.8690 8
1 -2 -8 592.222 28.3438 7
1 -2 -8 564.147 26.1884 13
-1 -2 8 617.025 26.2637 3
1 -2 -8 566.386 28.5861 6
-1 -2 8 506.849 25.6738 3
1 -2 -8 590.699 27.0641 3
-1 2 8 572.735 28.8898 9
-1 2 8 596.615 27.1417 3
1 2 -8 575.343 28.5668 6
-1 2 8 533.754 26.7124 11
1 2 -8 559.643 25.9649 3
1 2 -8 561.218 26.2267 13
-1 2 8 560.381 26.5909 2
-1 2 8 557.991 26.8600 8
0 -2 8 12.3064 3.00235 5
0 -2 -8 9.45154 5.09842 13
0 -2 -8 4.99100 3.27823 6
0 -2 -8 18.8230 5.09618 12
0 -2 8 8.65762 3.36369 1
0 -2 -8 20.5919 4.42068 3
0 -2 8 7.45823 4.25168 11
0 -2 -8 14.8642 5.61638 7
0 -2 8 12.7489 4.19936 8
0 2 8 5.56224 4.57539 11
0 2 -8 9.97617 4.80693 13
0 2 -8 13.1559 3.09878 6
0 2 8 12.1895 3.88841 3
0 2 -8 11.7107 3.31671 9
0 2 8 19.4633 3.88820 9
0 2 8 9.86851 4.64918 8
0 2 -8 10.4423 3.64087 3
-1 -2 -8 1.69434 3.93251 3
-1 -2 -8 2.41234 4.29049 7
-1 -2 -8 4.02336 4.56166 12
1 -2 8 1.51303 4.39547 8
-1 -2 -8 -0.5206 3.00386 6
1 -2 8 -2.6218 3.30868 1
1 -2 8 0.99093 2.97151 5
1 -2 8 2.90202 4.17599 11
1 2 8 1.31538 4.24858 11
-1 2 -8 2.52662 4.48494 12
-1 2 -8 0.21783 4.37162 13
-1 2 -8 6.24128 2.88761 6
1 2 8 2.49919 4.45030 8
1 2 8 -0.8542 4.15376 3
1 2 8 0.21864 3.52022 9
2 -2 8 175.745 11.6362 8
2 -2 8 171.963 8.46387 5
-2 -2 -8 181.081 11.1948 6
2 -2 8 175.304 10.1263 11
-2 -2 -8 174.204 10.9481 3
-2 -2 -8 162.963 13.0445 4
-2 -2 -8 159.571 11.4539 12
2 -2 8 173.375 9.78355 1
2 2 8 160.044 10.5064 3
2 2 8 170.278 11.2311 11
-2 2 -8 173.528 10.7495 6
2 2 8 181.074 11.5746 8
-2 2 -8 177.543 11.2474 12
2 2 8 161.409 10.1314 9
-3 -2 -8 43.9064 6.62281 3
3 -2 8 51.6953 6.55072 1
-3 -2 -8 47.5498 6.58766 6
3 -2 8 57.5599 6.40111 11
-3 -2 -8 49.2324 7.96210 4
3 2 8 46.1050 6.84510 3
3 2 8 58.1104 8.32136 8
-3 2 -8 41.1143 6.28161 6
-3 2 -8 67.5479 8.88851 12
-4 -2 -8 150.272 11.3804 3
-4 -2 -8 165.241 14.4211 4
4 -2 8 187.659 10.9518 1
-4 -2 -8 168.877 11.4556 6
4 -2 8 151.748 10.5282 11
-4 2 -8 188.591 12.8023 12
-4 2 -8 161.614 11.2877 6
4 2 8 159.842 10.8149 3
-4 2 -8 157.593 13.5062 4
5 -2 8 9.03445 5.86916 11
5 -2 8 3.82098 7.11755 8
-5 -2 -8 11.6588 6.95866 4
-5 -2 -8 10.9247 5.75225 3
-5 -2 -8 3.79166 7.94876 11
-5 -2 -8 2.82525 4.86313 6
-5 2 -8 6.68692 4.45383 6
5 2 8 2.89865 4.98724 3
5 2 8 14.3443 7.32393 8
-5 2 -8 4.60783 6.71321 4
5 2 8 4.89840 5.40681 2
5 2 8 13.3196 7.90088 11
-5 2 -8 16.4024 7.87741 12
6 -2 8 59.6423 9.07756 11
6 -2 8 48.0760 9.71595 8
6 -2 8 46.2577 6.47598 3
-6 -2 -8 31.2203 7.36339 3
-6 -2 -8 40.7936 10.3385 4
-6 -2 -8 40.2627 9.57557 11
-6 -2 -8 42.3803 8.59730 12
-6 -2 -8 40.2594 6.34376 6
6 2 8 48.6477 7.47165 2
6 2 8 57.4954 10.3732 11
-6 2 -8 39.2632 6.47862 6
6 2 8 42.1159 7.22719 3
-6 2 -8 44.1844 9.49100 12
-6 2 -8 39.1985 8.54248 4
6 2 8 47.5244 8.77353 8
7 -2 8 -9.3009 8.33382 8
-7 -2 -8 3.33868 8.84784 11
-7 -2 -8 -0.2391 5.88120 6
7 -2 8 -0.5728 8.26388 11
-7 -2 -8 -14.517 7.44091 3
-7 -2 -8 -6.7194 8.88492 12
7 -2 8 -1.8553 6.07253 3
-7 -2 -8 -7.4099 9.28388 4
-7 2 -8 -6.4858 8.86651 11
-7 2 -8 -3.3661 8.27918 4
7 2 8 7.99904 8.55005 8
7 2 8 3.05744 7.32877 3
7 2 8 -0.0465 6.75005 2
-7 2 -8 13.8005 6.93272 6
-7 2 -8 1.76580 9.97473 12
-9 -3 8 83.2936 12.9867 3
-9 -3 8 58.1423 9.60266 11
9 -3 -8 93.6759 13.7210 3
9 -3 -8 90.0988 12.4114 7
9 -3 -8 85.3632 11.4800 13
9 3 -8 89.4868 11.9679 13
-9 3 8 48.9780 9.89745 9
9 3 -8 66.5068 10.1351 2
9 3 -8 65.0274 11.0376 3
-9 3 8 56.4047 12.1047 3
-9 3 8 81.1987 13.2132 11
8 -3 -8 18.3768 8.54484 3
8 -3 -8 11.1752 8.88550 7
-8 -3 8 7.19350 7.53697 11
8 -3 -8 6.40309 7.48130 13
-8 -3 8 4.47496 7.54642 3
-8 3 8 3.79833 8.93106 3
8 3 -8 20.7535 7.88930 3
-8 3 8 4.57651 7.79652 11
-8 3 8 20.3840 8.53872 9
8 3 -8 8.00302 6.90251 13
8 3 -8 6.53644 5.32009 2
7 -3 -8 97.3070 8.69302 6
-7 -3 8 116.165 10.7041 3
7 -3 -8 85.6942 11.7161 7
7 -3 -8 96.5041 11.2415 3
-7 3 8 76.8214 11.8695 9
7 3 -8 84.5124 10.8275 3
-7 3 8 87.6998 11.6206 3
7 3 -8 97.6448 9.74772 13
7 3 -8 95.6794 9.56852 6
7 3 -8 100.795 8.36057 2
-7 3 8 81.4361 11.2106 11
6 -3 -8 66.9910 8.32198 13
-6 -3 8 51.7246 8.27661 11
6 -3 -8 65.8036 9.89044 3
-6 -3 8 95.1456 9.28259 3
6 -3 -8 62.1112 7.85857 6
-6 3 8 69.2499 10.1778 3
6 3 -8 98.0125 8.46434 13
6 3 -8 83.3029 8.49318 6
-6 3 8 71.1950 9.49027 9
-6 3 8 87.4319 10.3287 11
6 3 -8 70.5487 9.50624 3
-5 -3 8 3.57519 4.64607 11
-5 -3 8 10.3015 4.40425 10
-5 -3 8 13.4811 5.05084 3
5 -3 -8 9.82502 5.78298 7
5 -3 -8 9.93659 5.02912 13
5 -3 -8 1.55263 4.02469 6
5 -3 -8 2.77097 5.19386 12
5 -3 -8 1.98320 5.28292 3
5 3 -8 3.12764 3.84797 6
-5 3 8 4.92275 5.13743 8
-5 3 8 1.71203 5.41268 3
5 3 -8 2.78423 4.77564 13
5 3 -8 6.70674 5.06424 3
-4 -3 8 39.3290 5.91704 11
4 -3 -8 35.8966 4.91914 6
4 -3 -8 33.0840 6.37811 3
4 -3 -8 25.9184 6.03464 7
-4 -3 8 38.4240 4.68520 10
-4 -3 8 17.6427 4.81189 5
4 -3 -8 33.1260 5.90271 12
4 -3 -8 36.1951 5.57212 13
-4 -3 8 36.3129 5.99292 3
4 3 -8 27.6435 5.52306 13
-4 3 8 32.7473 6.29187 3
4 3 -8 34.6750 5.11920 6
-4 3 8 22.0648 4.97941 9
4 3 -8 35.6355 5.42507 3
-4 3 8 36.9625 5.80042 8
3 -3 -8 5.96722 4.56828 12
-3 -3 8 8.45688 4.29544 11
3 -3 -8 13.1863 5.52679 7
3 -3 -8 4.06833 4.29469 3
-3 -3 8 8.72385 4.10593 3
-3 -3 8 -1.9822 3.70739 10
-3 -3 8 6.47923 3.80658 5
-3 -3 8 0.16176 3.35799 3
3 -3 -8 2.20074 4.71285 13
3 -3 -8 2.78721 3.73397 6
3 3 -8 8.71652 3.12253 6
-3 3 8 3.80004 3.29170 2
-3 3 8 7.30039 5.09518 8
-3 3 8 7.91091 4.60544 9
3 3 -8 2.94514 4.46644 13
-3 3 8 4.13586 4.49499 3
3 3 -8 2.09360 4.45626 3
2 -3 -8 70.0009 8.20453 12
2 -3 -8 65.3210 7.46063 13
-2 -3 8 66.6623 6.23750 11
2 -3 -8 56.3843 7.55270 3
-2 -3 8 73.8001 6.57613 10
-2 -3 8 63.4395 7.80201 8
2 -3 -8 71.9904 8.13924 7
2 -3 -8 56.8812 6.76083 6
-2 -3 8 67.7249 6.17042 5
-2 3 8 46.3270 7.95557 9
-2 3 8 61.3924 7.48960 3
-2 3 8 56.1429 6.05289 2
-2 3 8 70.8474 7.95181 8
2 3 -8 56.7737 7.20757 13
2 3 -8 69.1468 6.37117 6
-1 -3 8 8.57599 4.21691 8
1 -3 -8 12.7760 5.05839 12
-1 -3 8 14.4370 4.21811 10
1 -3 -8 15.0291 4.79157 3
1 -3 -8 12.9713 5.42720 7
1 -3 -8 15.7539 4.83995 13
-1 -3 8 4.98063 3.61295 1
-1 -3 8 14.1698 4.33537 11
1 -3 -8 9.01104 3.74927 6
-1 -3 8 16.2521 3.71377 5
-1 3 8 17.4645 4.70979 9
1 3 -8 7.14966 4.43512 13
-1 3 8 9.58702 4.41657 3
-1 3 8 14.2328 5.36352 8
-1 3 8 14.0360 3.51606 2
1 3 -8 15.2918 3.75032 6
0 -3 8 59.9443 6.25881 1
0 -3 8 53.2006 5.73493 5
0 -3 -8 56.5486 6.93085 3
0 -3 -8 66.1261 8.01011 13
0 -3 -8 57.4582 6.71191 6
0 3 -8 62.2242 7.36666 13
0 3 -8 58.0216 6.18762 6
0 3 8 72.1496 8.45167 9
0 3 8 53.3729 8.37769 8
0 3 8 62.5431 7.02408 3
-1 -3 -8 318.565 20.6716 4
1 -3 8 313.922 17.0533 8
-1 -3 -8 307.710 16.7193 3
1 -3 8 319.358 14.3840 5
1 -3 8 310.961 15.3495 1
-1 -3 -8 319.393 17.2932 6
-1 -3 -8 331.383 16.9616 13
-1 3 -8 305.372 16.6776 13
-1 3 -8 310.118 17.1027 6
1 3 8 309.216 17.9674 9
1 3 8 306.853 17.0200 8
-2 -3 -8 27.1707 6.25991 4
-2 -3 -8 27.2037 4.61795 6
2 -3 8 26.6652 6.08311 8
-2 -3 -8 28.4876 5.36480 3
2 -3 8 43.0856 5.62390 5
2 -3 8 29.1309 4.67623 1
-2 3 -8 21.1417 5.54002 13
2 3 8 24.4782 5.90818 8
2 3 8 18.9063 5.54033 9
-2 3 -8 35.9279 6.33388 12
-2 3 -8 43.2245 6.12087 6
2 3 8 25.0373 5.16701 3
-3 -3 -8 103.978 8.50250 6
-3 -3 -8 97.8252 11.1359 4
-3 -3 -8 78.6162 9.07295 3
3 -3 8 99.7636 8.65855 1
3 -3 8 87.7836 7.36270 5
3 3 8 103.615 9.11262 3
3 3 8 100.943 10.4053 8
-3 3 -8 97.0950 8.57380 6
-3 3 -8 106.381 10.6391 12
4 -3 8 2.68295 5.02215 1
-4 -3 -8 5.88694 4.21377 6
-4 -3 -8 13.3296 6.64491 4
-4 -3 -8 13.6831 5.74903 3
-4 3 -8 12.1493 7.39382 12
-4 3 -8 5.26662 5.44005 4
4 3 8 8.60515 5.16417 3
4 3 8 5.74656 6.60691 8
-4 3 -8 4.42117 4.30257 6
4 3 8 11.2090 6.44356 11
4 3 8 9.91622 4.81198 2
5 -3 8 114.194 13.4493 8
-5 -3 -8 128.412 11.3328 3
-5 -3 -8 124.102 13.2605 12
-5 -3 -8 152.767 10.6360 6
-5 -3 -8 125.167 15.7123 4
-5 -3 -8 126.931 13.6730 11
5 3 8 143.247 13.7338 8
5 3 8 144.953 13.5729 11
5 3 8 96.7734 10.9146 3
-5 3 -8 113.431 12.9090 4
-5 3 -8 118.651 10.6326 6
5 3 8 138.098 10.6962 2
-5 3 -8 130.930 14.3252 12
6 -3 8 -1.3084 8.49366 8
-6 -3 -8 -5.7972 6.97209 3
-6 -3 -8 1.75055 9.02537 4
-6 -3 -8 -0.4693 8.28847 11
-6 -3 -8 5.02946 5.33813 6
-6 -3 -8 -4.5805 8.79719 12
-6 3 -8 -5.0815 5.63757 6
6 3 8 16.1866 9.21867 11
6 3 8 6.09585 7.19178 3
-6 3 -8 2.16060 9.79636 12
6 3 8 6.15735 7.87880 8
6 3 8 11.4274 6.49962 2
-6 3 -8 6.20668 7.37475 4
8 -4 -8 73.4099 10.7449 13
-8 -4 8 81.1933 11.9479 3
8 -4 -8 76.8448 11.6696 7
8 -4 -8 77.7375 12.7086 3
-8 -4 8 57.4373 9.24197 11
-8 -4 8 46.3981 8.14134 5
8 4 -8 59.0920 9.58688 2
-8 4 8 55.4144 10.7757 3
-8 4 8 72.2743 10.4570 11
-8 4 8 58.2149 10.2266 9
8 4 -8 65.3032 9.92528 13
-7 -4 8 7.34805 6.84328 11
-7 -4 8 13.3674 7.69088 3
-7 -4 8 3.48857 5.53113 5
7 -4 -8 -0.6827 8.35321 7
7 -4 -8 9.11145 7.33664 3
7 4 -8 17.8347 6.70449 13
-7 4 8 0.22574 8.62078 3
-7 4 8 -4.3909 8.23802 11
7 4 -8 21.2470 8.00295 3
7 4 -8 2.86258 4.80416 2
-7 4 8 8.12674 7.40281 9
-6 -4 8 9.54642 6.25250 11
-6 -4 8 4.40918 5.16909 5
6 -4 -8 14.8332 6.87295 3
6 -4 -8 14.4265 6.86220 7
6 -4 -8 13.6066 6.05908 13
6 -4 -8 0.20557 4.67397 6
-6 -4 8 17.5392 6.67290 3
6 4 -8 7.44673 5.20374 6
6 4 -8 12.8144 5.92643 13
-6 4 8 9.86444 6.09467 9
6 4 -8 7.83044 4.44439 2
-6 4 8 18.0184 7.90376 11
-6 4 8 7.58037 7.14263 3
6 4 -8 6.03873 5.99407 3
-5 -4 8 143.744 9.98432 3
5 -4 -8 108.990 9.37156 6
-5 -4 8 118.365 10.0242 10
5 -4 -8 117.865 10.8112 12
5 -4 -8 130.936 9.56702 13
-5 -4 8 95.5288 9.62063 11
5 -4 -8 117.060 11.2466 7
5 -4 -8 122.193 11.4265 3
-5 -4 8 120.013 9.33931 5
-5 4 8 121.814 11.2885 11
5 4 -8 122.854 9.97645 6
-5 4 8 124.962 11.7599 9
5 4 -8 110.071 9.75545 3
-5 4 8 87.4447 11.5979 3
5 4 -8 120.085 10.0875 13
4 -4 -8 5.04851 5.27671 13
4 -4 -8 4.02932 5.64470 7
4 -4 -8 1.62472 3.72034 6
-4 -4 8 0.71456 4.59518 11
4 -4 -8 -8.4067 5.04599 3
-4 -4 8 9.82890 5.21756 10
4 4 -8 2.90426 3.94343 6
-4 4 8 3.75112 4.10551 2
-4 4 8 -1.8412 6.09355 3
4 4 -8 3.16330 5.47545 13
-4 4 8 -0.3633 6.26342 11
3 -4 -8 117.990 9.46470 13
-3 -4 8 95.9080 8.29996 11
-3 -4 8 126.508 8.79653 10
3 -4 -8 108.246 10.7953 7
3 -4 -8 111.750 8.88691 6
3 -4 -8 96.7689 9.67871 3
-3 4 8 128.536 10.5463 8
-3 4 8 134.503 10.5683 3
3 4 -8 116.659 9.55131 13
-3 4 8 112.379 8.47551 2
3 4 -8 118.496 9.00572 6
2 -4 -8 8.93534 4.11937 6
-2 -4 8 4.73150 4.66917 10
2 -4 -8 6.86102 5.86821 7
2 -4 -8 6.02331 5.29353 3
-2 -4 8 9.59713 4.26945 11
2 -4 -8 4.35950 5.16418 13
-2 -4 8 4.14053 3.65487 5
-2 4 8 10.0104 5.78455 9
-2 4 8 8.92978 3.64509 2
2 4 -8 9.52652 3.89514 6
-2 4 8 6.00447 5.59350 8
-2 4 8 12.0846 5.48925 3
2 4 -8 2.66928 4.59046 13
-1 -4 8 292.023 14.6687 1
1 -4 -8 288.156 15.8408 3
-1 -4 8 284.305 14.2251 5
1 -4 -8 295.596 15.4248 13
-1 -4 8 307.674 14.2819 10
1 -4 -8 297.094 16.1679 6
1 4 -8 282.706 16.2312 6
-1 4 8 291.168 16.5720 3
-1 4 8 272.804 16.4577 8
1 4 -8 278.451 15.5500 13
-1 4 8 282.703 15.3974 2
-1 4 8 294.392 18.1250 9
0 -4 8 -2.3088 4.16441 10
0 -4 8 0.98350 3.96885 1
0 -4 -8 -0.1288 4.34087 3
0 -4 -8 -5.0461 5.41127 13
0 -4 -8 0.01096 3.63211 6
0 -4 8 1.40806 3.69895 5
0 -4 8 -5.4031 4.82062 8
0 4 -8 1.56424 3.25316 6
0 4 8 -3.4364 5.49534 8
0 4 8 0.22507 3.93634 2
0 4 -8 -0.7492 5.04936 13
0 4 8 -0.4835 5.22134 9
0 4 8 0.99993 4.09190 3
1 -4 8 0.83310 4.50533 10
1 -4 8 -2.1820 4.59675 8
-1 -4 -8 7.55700 3.86853 6
-1 -4 -8 1.21729 4.53347 3
-1 -4 -8 2.77717 6.32560 4
-1 -4 -8 2.66063 5.82448 13
1 -4 8 -6.2772 3.84981 1
1 -4 8 4.18901 4.09494 5
-1 4 -8 2.02490 3.62919 6
1 4 8 6.89756 4.91822 8
1 4 8 4.61933 5.05053 9
-1 4 -8 1.87322 5.69535 13
2 -4 8 164.161 9.27007 5
2 -4 8 156.570 10.4273 1
-2 -4 -8 149.759 11.0487 3
-2 -4 -8 143.438 14.3462 4
-2 -4 -8 159.414 10.8269 6
2 4 8 120.885 11.7475 9
2 4 8 143.932 11.2257 3
-2 4 -8 150.355 10.2977 6
2 4 8 174.760 12.4800 8
-2 4 -8 136.240 11.6889 13
-3 -4 -8 14.1251 7.24664 7
3 -4 8 16.3104 5.61066 1
3 -4 8 22.2122 5.00787 5
-3 -4 -8 23.1719 7.69341 4
-3 -4 -8 17.3043 7.04818 12
-3 -4 -8 19.4782 4.87381 6
-3 -4 -8 15.3942 6.18778 3
3 4 8 25.8643 6.55959 3
-3 4 -8 26.3871 4.55063 6
3 4 8 17.3032 6.16437 9
3 4 8 26.3894 5.99158 2
3 4 8 12.0769 7.15664 11
3 4 8 31.0322 7.23100 8
-4 -4 -8 106.397 9.57171 6
-4 -4 -8 99.6271 12.7349 7
4 -4 8 102.937 10.0347 1
-4 -4 -8 115.834 12.7271 12
-4 -4 -8 107.652 10.5237 3
-4 -4 -8 89.0012 13.1941 4
4 4 8 96.7813 12.6849 8
-4 4 -8 110.415 13.4854 12
4 4 8 109.136 11.2774 11
4 4 8 87.6326 11.3105 9
4 4 8 87.5964 10.4379 3
-4 4 -8 87.8980 9.43234 6
-4 4 -8 79.5879 11.3497 4
4 4 8 94.1613 10.1817 2
5 -4 8 1.68083 7.85162 8
-5 -4 -8 -17.648 8.00721 12
-5 -4 -8 -4.0725 8.28781 11
-5 -4 -8 -1.1483 5.27601 6
-5 -4 -8 -4.0191 6.92160 3
-5 -4 -8 5.67927 8.31133 4
5 -4 8 1.35539 6.85416 1
-5 4 -8 0.98504 6.91277 4
5 4 8 5.29553 6.52947 2
5 4 8 4.96869 7.73001 8
-5 4 -8 -6.6303 5.73193 6
5 4 8 -0.5729 8.23339 11
-5 4 -8 12.9724 10.0296 12
5 4 8 -9.3520 7.04572 9
-7 -5 8 9.03646 8.44263 3
7 -5 -8 1.08416 9.75200 7
-7 -5 8 -3.2140 7.46253 11
-7 -5 8 2.38223 6.32106 5
7 -5 -8 8.81600 8.31370 3
7 5 -8 -7.5412 5.97840 2
7 5 -8 9.89475 7.38367 13
-7 5 8 1.30550 8.65211 11
-7 5 8 4.17993 8.29822 9
-7 5 8 -0.8363 9.52262 3
-6 -5 8 4.61847 5.28456 5
6 -5 -8 7.78354 6.64131 13
6 -5 -8 13.1597 8.13887 7
-6 -5 8 2.46878 6.41239 11
6 -5 -8 7.68631 7.63715 3
-6 5 8 -0.3288 8.68316 3
6 5 -8 0.95227 6.55418 13
6 5 -8 -3.7717 5.09130 2
-6 5 8 18.1172 8.36576 11
-6 5 8 10.6072 7.69214 9
5 -5 -8 -6.3658 6.73706 3
5 -5 -8 2.98103 7.07217 12
5 -5 -8 1.84912 5.44043 13
-5 -5 8 11.3070 5.45245 11
5 -5 -8 17.2749 7.18280 7
-5 -5 8 4.53311 5.20264 5
-5 5 8 -0.9000 7.98963 3
5 5 -8 12.6196 5.60852 13
-5 5 8 2.95680 7.18175 11
-5 5 8 4.46425 6.98147 9
5 5 -8 3.25493 5.39371 6
-5 5 8 1.08977 5.38071 2
5 5 -8 3.47469 4.44211 2
4 -5 -8 140.710 12.3020 7
-4 -5 8 109.659 9.37879 11
-4 -5 8 104.425 9.49410 5
4 -5 -8 134.270 10.1104 6
4 -5 -8 143.583 10.1181 13
4 -5 -8 112.894 11.7275 3
4 -5 -8 120.894 11.8852 12
-4 -5 8 142.587 11.4594 10
-4 5 8 151.709 13.5512 9
-4 5 8 111.332 11.8436 11
-4 5 8 134.201 9.83609 2
4 5 -8 127.568 10.7244 13
4 5 -8 128.314 9.59396 2
4 5 -8 127.917 10.7955 6
-4 5 8 142.926 12.5889 3
-3 -5 8 1.65695 4.54356 5
3 -5 -8 4.66922 6.35880 7
3 -5 -8 9.81454 6.28767 3
3 -5 -8 11.4246 5.57671 13
-3 -5 8 17.3668 5.81876 10
3 5 -8 12.4615 4.28434 6
-3 5 8 13.4915 6.76376 3
3 5 -8 10.5699 5.67585 13
-3 5 8 22.6017 7.20858 9
3 5 -8 16.7355 4.21225 2
-3 5 8 7.62243 4.67512 2
-3 5 8 6.89219 6.47648 11
2 -5 -8 258.006 14.6676 6
2 -5 -8 234.425 15.0047 3
2 -5 -8 228.819 13.8879 13
-2 5 8 239.368 14.0490 2
2 5 -8 233.832 14.5369 13
-2 5 8 232.512 15.4420 3
-2 5 8 239.971 15.2625 11
2 5 -8 254.064 14.6127 6
1 -5 -8 8.84519 5.27484 3
1 -5 -8 -1.3912 4.22113 6
1 -5 -8 -0.9370 6.29025 12
1 -5 -8 -8.1034 5.96386 13
-1 -5 8 2.47729 4.26392 1
1 5 -8 -9.9877 5.70585 13
1 5 -8 -1.4838 3.92246 6
-1 5 8 2.42257 4.74952 2
-1 5 8 -4.0910 5.97668 11
-1 5 8 -2.8753 5.60979 3
0 -5 8 6.19829 4.79673 5
0 -5 -8 15.0459 6.37500 13
0 -5 -8 12.8023 6.89318 12
0 -5 8 11.0055 4.68480 1
0 -5 -8 15.4386 4.57853 6
0 -5 -8 2.63908 5.33276 3
0 5 8 15.6675 4.83332 2
0 5 8 -0.0035 6.07261 11
0 5 -8 4.00716 4.11357 6
0 5 8 15.0567 6.74296 8
0 5 -8 3.91072 6.05273 13
0 5 8 12.7578 6.87863 3
1 -5 8 25.7033 6.17764 10
-1 -5 -8 23.1301 7.47368 12
-1 -5 -8 15.9798 7.41977 13
1 -5 8 23.6829 5.70375 1
-1 -5 -8 29.2369 4.98058 6
1 -5 8 23.8495 5.12764 5
-1 -5 -8 22.6308 7.91367 7
1 5 8 19.7979 5.68505 2
1 5 8 35.5048 7.27878 8
-1 5 -8 27.3950 6.86461 13
1 5 8 16.3946 6.51409 3
-1 5 -8 19.2616 5.97607 9
1 5 8 37.4585 7.26986 11
1 5 8 17.1651 6.88853 9
-1 5 -8 33.7505 5.20745 6
-2 -5 -8 12.9557 7.95322 7
-2 -5 -8 24.9243 5.19286 6
-2 -5 -8 14.3969 8.17693 4
2 -5 8 16.8847 5.82014 5
-2 -5 -8 4.32089 6.38228 3
2 -5 8 9.45672 5.55446 1
-2 -5 -8 9.57718 7.52160 12
-2 5 -8 11.4488 7.17426 13
2 5 8 24.3340 7.34008 8
2 5 8 20.4443 6.18882 2
2 5 8 15.9832 7.43418 9
2 5 8 10.0499 6.68585 11
2 5 8 16.5021 7.13120 3
-2 5 -8 18.2564 4.52493 6
-3 -5 -8 2.08361 8.55080 7
3 -5 8 10.2160 5.01541 5
-3 -5 -8 9.24367 8.14587 12
3 -5 8 13.0413 6.17038 1
-3 -5 -8 7.25551 7.09005 3
-3 -5 -8 1.80728 4.77778 6
-3 -5 -8 5.85443 8.07164 4
-3 5 -8 7.25423 4.73923 6
-3 5 -8 11.8835 7.25004 13
3 5 8 20.3378 8.14967 8
3 5 8 3.09062 6.94534 9
3 5 8 0.07248 7.52928 11
3 5 8 14.2606 6.39314 2
3 5 8 12.1004 7.20224 3
-4 -5 -8 6.60461 7.18524 3
-4 -5 -8 4.80960 7.92166 12
-4 -5 -8 -4.1989 4.99389 6
4 -5 8 -5.9471 6.44708 1
-4 -5 -8 3.02360 9.40442 4
-4 -5 -8 -9.8267 8.95897 7
4 5 8 -0.6059 7.17521 3
4 5 8 -3.1763 6.63367 2
4 5 8 19.8558 7.91227 11
-4 5 -8 -4.0396 5.28098 6
4 5 8 8.88075 8.34234 8
4 5 8 16.5232 7.72911 9
-5 -6 8 22.8010 7.39899 11
5 -6 -8 26.1398 7.18642 13
-5 -6 8 25.7197 6.35660 5
5 -6 -8 25.6694 8.69854 3
5 -6 -8 41.3448 8.97691 7
-5 6 8 30.9242 9.50509 11
5 6 -8 19.1362 6.29470 2
5 6 -8 26.7681 7.44965 13
-5 6 8 33.7670 6.73875 2
-5 6 8 40.4140 10.3474 3
4 -6 -8 -9.0288 7.33827 7
-4 -6 8 1.02006 5.22585 5
4 -6 -8 -0.6674 7.57356 12
4 -6 -8 -9.3819 7.03689 3
4 -6 -8 11.3657 4.61969 6
-4 -6 8 -3.2404 7.09686 10
4 6 -8 7.09390 6.54457 13
-4 6 8 10.1686 8.04650 11
-4 6 8 7.75718 6.19639 2
-4 6 8 1.59945 7.73220 9
4 6 -8 -0.5587 5.91025 6
-4 6 8 3.98774 8.59816 3
4 6 -8 -0.5410 4.82591 2
3 -6 -8 150.119 10.9667 13
-3 -6 8 170.282 12.5603 10
3 -6 -8 144.389 12.8971 12
-3 -6 8 128.534 10.4792 5
3 -6 -8 152.979 13.1724 7
3 -6 -8 107.606 12.9173 3
3 -6 -8 140.703 10.1979 6
-3 6 8 141.676 11.3074 2
-3 6 8 111.941 15.5977 9
3 6 -8 129.395 10.2119 2
3 6 -8 144.580 11.7469 13
3 6 -8 139.490 11.6902 6
-3 6 8 144.926 14.1136 3
-3 6 8 129.365 13.5531 11
2 -6 -8 24.5476 7.90060 12
2 -6 -8 22.3322 5.11350 6
2 -6 -8 7.97111 8.15440 7
-2 -6 8 7.91508 5.65678 5
2 -6 -8 9.80173 6.80506 3
2 -6 -8 5.39467 6.24922 13
-2 -6 8 20.7874 6.92341 10
-2 6 8 17.9240 6.19198 2
2 6 -8 15.6690 4.91518 2
2 6 -8 5.43202 6.84212 13
2 6 -8 21.1265 6.03818 6
-2 6 8 15.9048 7.48574 9
-2 6 8 20.6372 8.06180 11
1 -6 -8 182.345 14.4491 3
1 -6 -8 173.278 12.7945 13
1 -6 -8 187.400 15.2024 12
-1 -6 8 214.474 12.7597 1
1 -6 -8 204.066 12.8554 6
1 -6 -8 226.613 16.2016 7
-1 -6 8 206.698 13.7284 10
-1 -6 8 189.947 12.8118 5
1 6 -8 205.868 14.0019 6
1 6 -8 172.618 13.6847 13
1 6 -8 204.174 12.5011 2
-1 6 8 212.971 15.7119 3
-1 6 8 221.707 13.5094 2
-1 6 8 197.954 16.1636 9
-1 6 8 196.729 15.0596 11
0 -6 8 -12.034 5.27240 1
0 -6 -8 1.99417 6.42965 3
0 -6 8 -1.4700 6.32149 10
0 -6 -8 -1.3767 7.42893 7
0 -6 8 2.88695 5.29860 5
0 -6 -8 -8.2865 7.02559 13
0 -6 -8 -7.6645 8.13263 12
0 -6 -8 -4.9699 4.72454 6
0 6 8 0.09193 7.58500 11
0 6 -8 -13.164 6.78380 13
0 6 8 3.80067 6.03666 2
0 6 8 -10.296 6.93911 9
0 6 -8 -4.9516 4.67573 6
0 6 -8 1.41400 4.80120 2
0 6 -8 7.53048 6.74467 9
0 6 8 3.56910 7.93671 8
1 -6 8 -2.9324 5.14182 1
1 -6 8 5.43453 5.99690 5
-1 -6 -8 -8.4874 5.15764 6
1 -6 8 3.93077 6.44839 10
-1 -6 -8 -2.2326 8.60375 12
-1 -6 -8 -5.8900 7.37144 13
-1 -6 -8 8.91852 6.22031 3
-1 -6 -8 5.38852 7.90310 7
1 6 8 -1.9076 7.05495 11
-1 6 -8 3.88344 4.69869 6
1 6 8 12.0402 8.24900 8
-1 6 -8 3.33596 4.83189 2
-1 6 -8 -2.5943 6.74374 9
1 6 8 -3.8756 6.42717 2
1 6 8 3.72654 7.69903 3
1 6 8 -2.0918 8.08811 9
-1 6 -8 -9.4849 7.22873 13
-2 -6 -8 10.7291 7.47682 3
2 -6 8 10.4885 6.60516 1
-2 -6 -8 36.1554 9.12702 7
-2 -6 -8 6.24635 8.82286 12
2 -6 8 25.2441 7.01963 10
-2 -6 -8 15.5019 8.30331 13
-2 -6 -8 21.5402 5.84722 6
-2 6 -8 24.3218 5.64133 6
2 6 8 9.21702 8.42903 9
2 6 8 32.7974 9.06719 8
-2 6 -8 20.4847 5.48342 2
2 6 8 26.0805 7.12411 2
-2 6 -8 30.7539 7.38071 9
2 6 8 12.2120 7.75460 3
2 6 8 21.2155 8.30967 11
-2 6 -8 13.8334 7.90123 13
-3 -6 -8 19.7072 6.15734 6
3 -6 8 18.5447 7.18093 1
-3 -6 -8 22.1641 10.6321 4
-3 -6 -8 11.9293 7.78607 3
-3 -6 -8 -0.9490 9.50208 7
-3 -6 -8 0.41134 9.29986 12
3 6 8 29.2500 9.50306 8
3 6 8 20.1301 7.98448 2
3 6 8 31.3942 9.24308 9
-3 6 -8 12.6116 5.23674 2
3 6 8 10.5112 8.82215 3
-3 6 -8 24.8817 5.73828 6
3 6 8 13.5285 8.89561 11
-3 6 -8 7.80440 8.88583 13
-2 -7 8 49.6533 7.81812 5
-2 -7 8 28.7982 7.96827 10
2 7 -8 30.3892 7.65182 6
-2 7 8 31.8831 10.9608 3
1 -7 -8 -1.1800 7.98237 3
-1 -7 8 -6.7245 7.48977 10
-1 -7 8 -5.7940 5.92730 5
1 -7 -8 6.33287 5.49210 6
1 -7 -8 -9.3922 8.40725 7
1 -7 -8 6.39172 9.04729 12
1 7 -8 -11.663 7.42211 13
-1 7 8 -12.313 10.2591 3
-1 7 8 5.64928 8.79745 11
1 7 -8 9.36326 8.99950 9
-1 7 8 1.16544 6.90009 2
1 7 -8 -2.6911 5.73623 2
1 7 -8 4.17132 6.79613 6
-9 0 9 29.7129 10.6983 3
-9 0 9 26.2577 9.85590 9
9 0 -9 31.7282 9.48990 13
-9 0 9 23.0306 9.19102 11
9 0 -9 15.5312 9.61464 7
9 0 -9 30.9248 7.59746 6
9 0 -9 35.6816 10.5596 3
8 0 -9 -0.2244 8.67849 3
8 0 -9 6.37028 6.81035 13
8 0 -9 4.22065 5.91694 6
-8 0 9 15.5618 8.53867 3
-8 0 9 -1.1857 7.68685 9
8 0 -9 11.2682 8.48156 7
-8 0 9 4.85517 7.26999 11
7 0 -9 5.21159 5.97250 13
7 0 -9 13.5386 7.66362 3
7 0 -9 -4.5790 6.92574 7
-7 0 9 4.22452 6.12645 9
-7 0 9 -5.7376 7.29318 3
7 0 -9 -5.8228 4.80661 6
-7 0 9 7.84458 7.37680 11
-6 0 9 14.9216 7.24246 3
-6 0 9 15.4404 6.23675 11
-6 0 9 17.3474 6.73138 9
6 0 -9 22.5823 6.05699 13
6 0 -9 19.7319 6.77309 7
6 0 -9 25.9010 7.63519 3
6 0 -9 27.3289 5.28900 6
5 0 -9 35.9834 6.11642 6
5 0 -9 32.7833 6.85829 3
-5 0 9 27.5014 6.34009 8
5 0 -9 35.8522 6.36104 12
5 0 -9 19.9090 6.51884 7
-5 0 9 21.3111 6.47194 3
-4 0 9 239.773 14.7280 8
4 0 -9 252.569 14.0057 12
-4 0 9 207.608 14.1726 11
4 0 -9 259.363 14.8885 3
-4 0 9 259.405 14.6870 3
4 0 -9 262.870 14.8934 7
-4 0 9 242.759 15.2985 9
4 0 -9 246.901 14.4354 6
3 0 -9 21.9684 5.67583 3
3 0 -9 13.5340 5.31252 12
-3 0 9 17.1451 5.66815 11
-3 0 9 13.3432 5.04452 8
2 0 -9 73.1594 9.14775 7
2 0 -9 73.1531 8.64347 3
-2 0 9 96.6143 8.22981 3
-2 0 9 79.9272 8.05789 9
2 0 -9 88.6256 7.14720 6
-2 0 9 63.6070 7.92501 11
-2 0 9 64.5519 8.44538 8
2 0 -9 62.4694 8.85266 12
1 0 -9 32.8107 5.59895 6
-1 0 9 28.6062 6.10421 11
1 0 -9 17.7834 5.51622 12
1 0 -9 29.5939 5.89944 3
-1 0 9 20.3103 5.01769 3
-1 0 9 28.6847 6.10712 8
-1 0 9 20.3876 4.60116 9
1 0 -9 21.9442 5.94302 7
0 0 -9 17.8512 5.34054 12
0 0 9 14.7097 5.56591 3
0 0 9 13.4096 4.03966 3
0 0 9 19.8683 5.61361 11
0 0 -9 27.7752 4.51779 6
0 0 9 16.8446 4.26296 9
0 0 -9 12.2911 5.19480 3
1 0 9 52.5954 4.61187 5
-1 0 -9 55.9231 7.92902 3
-1 0 -9 54.2556 8.52561 12
-1 0 -9 44.4351 6.09689 6
1 0 9 40.3565 6.57439 11
-2 0 -9 3.38814 5.11226 12
2 0 9 -1.4651 4.08015 3
2 0 9 -10.293 5.04673 11
-2 0 -9 -3.7909 3.69314 6
3 0 9 75.2166 7.46291 1
3 0 9 71.0836 8.55121 11
-3 0 -9 73.4818 10.2810 12
3 0 9 79.5081 7.68094 3
-3 0 -9 52.1771 8.23707 6
-3 0 -9 78.0046 8.76415 3
4 0 9 -4.5423 4.70065 3
4 0 9 0.87835 5.30668 1
-4 0 -9 5.23164 6.52524 12
-4 0 -9 -3.6507 4.53250 6
4 0 9 3.65353 6.67658 11
-4 0 -9 -9.9554 6.12426 4
4 0 9 4.65337 7.01104 8
-4 0 -9 -2.8900 5.66468 3
5 0 9 4.07361 6.01363 2
-5 0 -9 18.9771 8.12888 12
-5 0 -9 19.6010 5.53610 6
5 0 9 12.0679 6.06627 3
5 0 9 11.2178 7.00093 8
-5 0 -9 11.3129 6.45887 3
-5 0 -9 4.59921 7.38746 4
-6 0 -9 0.18563 7.32272 3
-6 0 -9 19.5093 9.60715 12
6 0 9 6.86668 6.66750 2
6 0 9 15.4132 6.72225 3
6 0 9 20.0514 9.12198 8
-6 0 -9 20.0896 6.61776 6
-6 0 -9 8.79609 9.22730 4
6 0 9 30.2075 8.73026 11
-8 -1 9 39.1185 9.18653 3
-8 -1 9 22.1809 7.74662 9
8 -1 -9 35.6295 9.23767 3
8 -1 -9 34.3025 9.50514 7
8 -1 -9 37.5203 7.73658 13
-8 -1 9 23.6015 7.74950 11
8 -1 -9 31.0678 6.26582 6
8 1 -9 17.5330 8.81388 3
8 1 -9 32.9939 6.86470 6
-8 1 9 28.7405 9.24099 11
-8 1 9 22.1477 9.84089 3
-8 1 9 35.5650 7.94476 9
8 1 -9 37.4205 7.90623 13
7 -1 -9 41.2769 6.24868 6
7 -1 -9 34.8407 8.03027 7
7 -1 -9 37.2124 8.31967 3
7 -1 -9 34.8127 7.08817 13
-7 -1 9 36.5298 7.76830 9
-7 -1 9 28.7354 7.36964 11
-7 -1 9 37.3193 8.28669 3
7 1 -9 36.5624 6.92250 6
-7 1 9 25.1996 9.15667 3
7 1 -9 45.9775 7.26975 13
7 1 -9 33.0613 8.63218 3
-7 1 9 39.8175 8.14896 11
-7 1 9 37.2205 8.09930 9
6 -1 -9 51.0993 7.65400 6
6 -1 -9 71.5915 8.79991 13
6 -1 -9 58.7889 9.83040 7
-6 -1 9 57.2574 8.54880 3
-6 -1 9 56.6858 9.89375 9
6 -1 -9 63.7808 9.87833 3
-6 1 9 46.4887 8.29475 11
-6 1 9 39.9839 7.57920 9
6 1 -9 75.5602 8.79983 7
6 1 -9 66.9857 10.2346 3
6 1 -9 54.5051 7.77733 6
-6 1 9 63.2131 9.76779 3
-5 -1 9 -1.0507 5.34908 11
5 -1 -9 15.6903 5.59077 12
-5 -1 9 -0.9539 5.58055 3
5 -1 -9 16.0914 4.23923 6
-5 -1 9 5.09954 5.69218 8
5 -1 -9 8.16564 5.89743 3
5 -1 -9 1.46619 6.37497 7
-5 1 9 5.67152 5.54780 3
5 1 -9 -0.4008 5.54537 7
-5 1 9 12.3448 5.73757 8
5 1 -9 14.6351 5.87859 3
5 1 -9 5.27886 4.14798 6
4 -1 -9 12.9605 3.73781 6
4 -1 -9 4.01883 5.44847 3
-4 -1 9 8.73424 5.05697 9
-4 -1 9 14.3075 5.11248 3
4 -1 -9 21.2888 6.39973 7
-4 -1 9 3.92162 4.63290 8
-4 -1 9 1.20605 5.33451 11
4 -1 -9 7.92799 4.86187 12
4 1 -9 8.68539 5.78633 3
-4 1 9 4.71620 5.40285 3
-4 1 9 6.86456 5.41926 8
-4 1 9 8.38450 4.90629 9
4 1 -9 16.0187 5.72913 7
4 1 -9 7.05823 3.97690 6
3 -1 -9 142.082 10.8528 12
-3 -1 9 142.745 11.1840 9
-3 -1 9 147.950 11.2258 8
-3 -1 9 166.578 10.9729 3
3 -1 -9 164.280 11.3841 7
3 -1 -9 163.535 10.3689 6
-3 -1 9 155.240 10.6117 11
3 -1 -9 146.283 11.3548 3
-3 1 9 128.948 11.0126 9
3 1 -9 153.496 10.1899 6
-3 1 9 160.928 11.2954 3
3 1 -9 148.384 11.1553 7
-3 1 9 142.278 10.7440 8
3 1 -9 172.206 10.9564 3
3 1 -9 140.642 10.3486 12
2 -1 -9 7.12657 5.55418 3
2 -1 -9 5.58696 4.93858 13
2 -1 -9 4.02420 5.76599 7
-2 -1 9 8.08689 4.67181 3
-2 -1 9 7.20474 5.08682 11
-2 -1 9 9.25053 4.63690 9
-2 -1 9 12.9862 4.58923 3
2 -1 -9 11.7740 3.57394 6
2 -1 -9 4.50911 5.45507 12
2 1 -9 7.02616 3.29799 6
2 1 -9 10.8447 5.05424 3
-2 1 9 9.64441 4.83149 8
2 1 -9 2.02737 5.97620 7
-2 1 9 3.17646 5.40367 11
-2 1 9 7.02428 4.83475 3
-2 1 9 4.65859 4.01819 9
2 1 -9 -0.3706 5.17828 12
-1 -1 9 102.574 8.19545 3
1 -1 -9 92.0871 9.77563 7
1 -1 -9 84.3885 8.99822 3
1 -1 -9 72.4353 8.87962 12
-1 -1 9 66.1313 7.94252 11
1 -1 -9 87.7486 7.75893 6
-1 1 9 80.7319 8.04815 9
1 1 -9 90.6414 7.28285 6
-1 1 9 64.6954 8.22490 11
1 1 -9 88.5110 8.30766 3
-1 1 9 68.8981 8.68816 8
-1 1 9 90.3235 8.68709 3
1 1 -9 81.3257 8.93799 12
0 -1 -9 141.460 11.0334 7
0 -1 -9 150.242 10.0297 6
0 -1 -9 137.110 10.9387 12
0 -1 9 131.118 9.42441 3
0 -1 9 151.459 10.1467 11
0 -1 9 135.794 8.29673 5
0 -1 -9 162.705 10.4626 3
0 1 9 153.445 11.1526 8
0 1 -9 146.210 10.6350 12
0 1 9 147.174 10.5246 11
0 1 -9 145.065 9.83198 3
0 1 -9 145.680 9.78788 6
0 1 9 127.952 9.63944 3
0 1 9 125.967 9.77159 9
1 -1 9 19.6009 4.34458 1
1 -1 9 16.0483 3.84833 5
-1 -1 -9 13.6233 5.46344 12
1 -1 9 26.7642 5.89017 11
-1 -1 -9 23.5663 5.46735 3
-1 -1 -9 16.0156 4.49829 6
1 -1 9 9.66464 4.55103 3
-1 1 -9 15.3928 5.03967 3
1 1 9 20.0853 3.40108 9
1 1 9 14.2497 5.54039 11
-1 1 -9 20.8030 4.19707 6
1 1 9 12.1929 5.47931 8
-1 1 -9 14.7121 6.13543 12
2 -1 9 7.36395 5.51297 11
-2 -1 -9 7.54566 4.69123 6
-2 -1 -9 7.67591 5.77455 12
2 -1 9 6.94988 4.24578 3
-2 -1 -9 5.03485 5.56287 3
2 -1 9 6.51471 4.49850 1
2 1 9 2.44834 5.35074 11
2 1 9 12.5822 4.97994 3
-2 1 -9 8.58738 3.81966 6
-2 1 -9 7.80359 6.16684 12
-2 1 -9 15.8196 5.23360 3
3 -1 9 0.71960 5.55759 8
3 -1 9 0.78053 5.78386 11
-3 -1 -9 2.00905 4.41807 6
-3 -1 -9 9.01603 6.39086 12
-3 -1 -9 12.6214 6.13546 4
3 -1 9 7.59988 4.29022 3
-3 -1 -9 6.47865 5.53698 3
3 -1 9 10.0108 4.73004 1
-3 1 -9 6.26332 4.31257 6
-3 1 -9 17.3521 6.86668 12
3 1 9 10.0648 5.04639 3
-3 1 -9 5.81787 5.14496 3
4 -1 9 75.6147 11.9051 8
4 -1 9 77.2229 7.81672 3
4 -1 9 75.7888 9.25825 11
4 -1 9 69.2865 9.33000 1
-4 -1 -9 77.9839 9.61564 3
-4 -1 -9 74.6307 10.1110 12
-4 -1 -9 71.2988 8.78118 6
-4 -1 -9 70.2297 12.4210 4
4 1 9 77.3645 8.63211 3
-4 1 -9 82.0853 11.8907 12
4 1 9 76.1331 8.40616 2
4 1 9 87.9100 11.5696 8
-4 1 -9 65.5182 9.11338 6
-4 1 -9 84.5086 8.99295 3
-4 1 -9 73.8593 11.2605 4
-5 -1 -9 -1.0396 5.24506 6
5 -1 9 7.09595 7.16382 11
-5 -1 -9 3.81440 7.66516 12
-5 -1 -9 -6.6286 7.76235 4
-5 -1 -9 4.81744 6.66072 3
5 -1 9 14.1361 6.74893 1
5 -1 9 11.3425 8.09530 8
5 -1 9 4.91478 5.38024 3
5 1 9 12.4906 7.69296 8
-5 1 -9 16.8324 8.49321 12
-5 1 -9 -6.8051 5.57887 6
5 1 9 7.50666 5.32574 3
5 1 9 6.61965 7.62572 11
5 1 9 0.72987 5.67791 2
-5 1 -9 11.1648 7.37701 4
6 -1 9 2.72566 6.02841 3
6 -1 9 5.30592 9.22881 8
-6 -1 -9 -1.1374 9.42020 12
-6 -1 -9 -9.2564 9.78189 4
-6 -1 -9 -5.4567 6.16827 6
-6 -1 -9 8.48047 7.16568 3
-6 1 -9 7.32711 10.2002 12
-6 1 -9 5.53247 6.32905 6
6 1 9 3.38514 8.33087 8
6 1 9 6.40150 6.90731 3
6 1 9 -1.5324 8.87043 11
6 1 9 -4.2140 6.39604 2
-6 1 -9 -4.6278 8.02194 4
8 -2 -9 28.1262 6.22366 6
-8 -2 9 33.0720 9.51844 3
8 -2 -9 11.8381 9.60654 7
8 -2 -9 26.4645 7.77471 13
-8 -2 9 7.05268 7.68944 11
8 -2 -9 21.8325 9.58591 3
-8 2 9 16.6273 9.02847 9
8 2 -9 19.2830 7.14606 13
8 2 -9 15.0718 8.41540 3
-8 2 9 25.5171 8.58667 11
-8 2 9 12.1045 10.0607 3
8 2 -9 14.2812 6.67335 6
-7 -2 9 68.1897 10.9590 3
7 -2 -9 45.7357 9.15445 7
7 -2 -9 40.3602 7.77198 13
7 -2 -9 57.5090 8.39065 6
7 -2 -9 42.9457 8.58864 3
-7 -2 9 43.3422 7.88144 11
-7 2 9 36.9701 8.90335 11
7 2 -9 39.9018 7.51211 13
7 2 -9 38.1966 8.61386 3
-7 2 9 43.5439 8.29895 9
-7 2 9 49.0265 9.25067 3
7 2 -9 37.8755 7.38844 6
6 -2 -9 46.2657 7.48302 6
6 -2 -9 27.8529 6.39422 13
-6 -2 9 18.3260 7.71439 3
6 -2 -9 31.4080 7.73765 3
6 -2 -9 26.4943 7.66951 7
-6 2 9 23.0605 7.29567 11
6 2 -9 33.2766 5.67678 6
-6 2 9 21.6468 8.04912 3
6 2 -9 29.1984 6.11677 13
-6 2 9 26.0536 6.79369 9
6 2 -9 31.8510 7.74762 3
5 -2 -9 29.8512 6.76570 3
-5 -2 9 24.4873 6.40927 11
5 -2 -9 25.9049 6.17389 12
-5 -2 9 23.3030 6.84764 3
5 -2 -9 22.7402 5.36017 6
5 -2 -9 22.8479 6.83332 7
5 2 -9 23.7852 5.87650 13
5 2 -9 36.7013 7.14206 3
5 2 -9 25.6550 5.57210 6
-5 2 9 26.3642 6.55191 8
-5 2 9 21.6666 6.87198 3
4 -2 -9 38.2159 7.47555 7
-4 -2 9 38.0852 6.05800 11
4 -2 -9 46.7337 6.73105 6
4 -2 -9 33.6470 6.51077 12
4 -2 -9 42.5562 6.98526 3
-4 -2 9 36.7741 6.26809 3
4 2 -9 37.1614 6.54312 3
-4 2 9 27.9051 6.88434 3
4 2 -9 25.8830 6.14900 13
4 2 -9 26.8532 5.17096 6
-4 2 9 33.4053 6.40694 8
3 -2 -9 28.9546 6.34664 12
3 -2 -9 31.3384 6.32769 3
3 -2 -9 33.2471 5.25628 6
3 -2 -9 19.3862 6.06675 13
-3 -2 9 38.4912 6.21980 11
3 2 -9 37.1216 6.33790 13
3 2 -9 32.2299 6.00652 3
3 2 -9 45.7817 6.22704 6
-3 2 9 23.3740 6.03389 8
3 2 -9 43.7421 6.61568 7
-3 2 9 25.4150 5.52837 9
2 -2 -9 13.8483 4.15455 6
2 -2 -9 21.5770 6.27894 7
-2 -2 9 31.5698 5.23832 3
2 -2 -9 22.5936 6.04478 12
2 -2 -9 13.0092 5.43619 3
-2 -2 9 17.0030 5.44407 11
-2 -2 9 24.6312 4.68461 5
2 -2 -9 19.6364 5.77306 13
-2 2 9 14.2746 4.61352 9
-2 2 9 17.9918 4.90975 3
2 2 -9 18.0919 4.11198 6
2 2 -9 18.0989 6.31461 7
-2 2 9 23.9997 5.96049 8
2 2 -9 10.1697 5.11241 13
2 2 -9 25.2944 5.38337 3
1 -2 -9 50.8879 7.80646 13
-1 -2 9 55.4268 6.37115 5
1 -2 -9 41.0125 7.43279 7
1 -2 -9 36.9595 6.62222 12
1 -2 -9 35.2132 5.30880 6
-1 -2 9 41.8640 5.74013 3
-1 -2 9 48.6917 7.12786 11
1 -2 -9 52.2603 8.08039 3
-1 2 9 46.2856 6.64661 8
-1 2 9 45.4960 7.73969 9
1 2 -9 42.7714 5.80129 3
1 2 -9 36.9585 5.80226 6
-1 2 9 35.6135 5.84751 3
1 2 -9 40.3037 6.04190 13
0 -2 -9 -5.0064 6.04471 7
0 -2 9 3.84573 4.11715 1
0 -2 9 -6.0890 4.76408 11
0 -2 -9 1.67583 5.92874 12
0 -2 9 3.49622 3.91431 5
0 -2 -9 1.95830 5.51116 13
0 -2 -9 -1.4424 3.72522 6
0 -2 -9 3.05973 4.51816 3
0 2 -9 3.92945 5.18002 13
0 2 -9 7.63934 3.33796 6
0 2 9 0.99775 5.32802 8
0 2 9 6.46723 4.60071 9
0 2 9 -8.2402 5.05382 11
0 2 9 0.56027 4.08041 3
0 2 -9 6.11058 4.60855 3
-1 -2 -9 29.3501 6.51237 12
1 -2 9 27.2590 4.62773 3
1 -2 9 30.8801 4.28855 5
-1 -2 -9 29.0683 4.97560 6
1 -2 9 32.6159 5.96165 11
-1 -2 -9 25.8421 6.65557 7
1 -2 9 42.7620 6.43942 1
-1 -2 -9 33.1209 6.11949 3
-1 2 -9 21.7516 6.91021 13
1 2 9 38.9521 7.03609 9
1 2 9 36.8415 7.18880 8
-1 2 -9 26.8534 4.83130 6
-2 -2 -9 0.66641 4.22706 6
2 -2 9 1.96165 3.79729 5
2 -2 9 6.37730 4.77221 1
-2 -2 -9 7.92671 5.78685 12
2 -2 9 6.79302 5.27307 11
-2 -2 -9 1.62612 5.42577 3
-2 -2 -9 10.2027 5.95748 4
2 2 9 5.58583 4.49699 3
-2 2 -9 3.60676 6.39646 12
2 2 9 12.0326 4.25814 2
2 2 9 10.2910 5.98300 8
-2 2 -9 11.9460 6.88527 13
-2 2 -9 10.7201 4.14915 6
-3 -2 -9 138.530 11.8019 3
-3 -2 -9 135.020 10.9455 6
-3 -2 -9 154.661 13.1713 12
-3 -2 -9 163.617 14.5242 4
3 -2 9 154.433 13.0747 8
3 -2 9 141.309 9.50955 3
3 -2 9 118.925 10.5349 11
3 -2 9 166.882 10.8975 1
3 2 9 138.468 11.1763 3
-3 2 -9 152.757 10.9327 6
3 2 9 158.543 10.5732 2
3 2 9 133.353 12.3575 11
3 2 9 152.745 12.1889 8
-3 2 -9 177.897 13.1030 12
-4 -2 -9 4.97412 7.03272 12
4 -2 9 -10.083 6.03313 11
-4 -2 -9 2.85565 8.12092 4
-4 -2 -9 2.36146 4.88595 6
-4 -2 -9 6.00226 6.29846 3
4 -2 9 -4.5571 5.65752 1
4 -2 9 -0.2269 7.68298 8
-4 2 -9 -1.9559 4.91784 6
4 2 9 8.14938 6.91340 8
4 2 9 10.8174 5.54624 3
-4 2 -9 7.25509 6.33731 4
4 2 9 -2.6378 7.84271 11
-4 2 -9 13.8886 7.97030 12
4 2 9 3.39985 5.51540 2
5 -2 9 10.0147 8.34984 8
-5 -2 -9 9.76276 6.09408 6
5 -2 9 16.9994 6.84863 11
5 -2 9 25.5661 7.82214 1
-5 -2 -9 11.9312 7.37458 3
-5 -2 -9 16.6485 9.25999 4
-5 -2 -9 10.3407 8.40525 12
5 2 9 27.7768 7.32369 2
-5 2 -9 34.9315 10.3527 12
-5 2 -9 9.90474 5.67604 6
5 2 9 12.4178 6.50663 3
5 2 9 29.5824 8.66829 8
5 2 9 31.4748 8.86491 11
-5 2 -9 15.2109 7.75907 4
8 -3 -9 57.5374 10.5911 3
8 -3 -9 40.9106 7.10017 6
8 -3 -9 39.3557 10.9200 7
8 -3 -9 47.4714 9.44829 13
-8 -3 9 41.7450 9.50407 11
-8 3 9 44.6912 9.63332 11
8 3 -9 54.5018 8.80013 13
8 3 -9 28.6986 7.76118 6
8 3 -9 42.7752 7.40236 2
8 3 -9 28.1612 9.74683 3
-8 3 9 51.9856 11.0827 3
-8 3 9 44.2521 9.76821 9
-7 -3 9 91.5638 11.8764 3
7 -3 -9 58.2795 10.1079 3
7 -3 -9 75.4436 10.5291 7
7 -3 -9 66.5065 8.77400 13
7 -3 -9 52.8253 9.51510 6
-7 -3 9 46.7337 8.49376 11
-7 3 9 55.5214 10.4566 3
-7 3 9 53.6711 9.89262 11
7 3 -9 61.8550 9.60342 3
-7 3 9 66.7601 11.6644 9
7 3 -9 75.6897 10.0509 6
7 3 -9 55.3963 8.39947 13
6 -3 -9 55.9545 7.29670 6
6 -3 -9 90.4017 10.0821 13
-6 -3 9 97.3911 11.3560 3
6 -3 -9 59.5373 9.20761 3
6 3 -9 93.7750 9.95300 13
6 3 -9 65.3080 9.47930 6
-6 3 9 69.0985 11.0072 11
6 3 -9 74.4731 11.5237 3
-6 3 9 56.4623 8.83983 9
-6 3 9 73.9149 11.6518 3
5 -3 -9 47.6943 8.11898 3
-5 -3 9 40.7586 6.92808 11
5 -3 -9 63.0648 10.2435 7
5 -3 -9 43.8900 6.16888 6
-5 -3 9 41.5883 8.14437 3
5 -3 -9 49.6881 8.05886 12
-5 3 9 51.2335 7.61466 8
5 3 -9 35.9608 7.00251 3
-5 3 9 34.4451 6.79761 9
-5 3 9 51.7698 9.01339 3
5 3 -9 41.0219 6.38361 6
5 3 -9 39.0681 7.05545 13
4 -3 -9 -9.1490 5.89802 3
4 -3 -9 -8.9469 6.59315 7
-4 -3 9 -0.3994 5.25652 11
4 -3 -9 -9.0579 4.51174 6
4 -3 -9 5.66286 5.90249 12
4 -3 -9 1.99318 5.61240 13
-4 -3 9 -2.9867 5.61413 3
4 3 -9 -6.2940 5.17947 13
-4 3 9 8.66603 6.57801 3
-4 3 9 1.23213 5.65334 8
4 3 -9 1.85546 5.95853 3
4 3 -9 -1.4709 4.60639 6
-3 -3 9 39.4570 6.57405 11
3 -3 -9 31.5834 6.50064 12
3 -3 -9 32.2916 5.76702 6
-3 -3 9 34.6279 6.44379 3
3 -3 -9 26.3188 6.78922 3
-3 -3 9 34.4269 5.27113 10
3 -3 -9 28.6900 6.72987 13
3 -3 -9 32.5245 7.58907 7
-3 3 9 25.1228 5.34651 2
3 3 -9 29.9926 6.05712 3
3 3 -9 30.1138 5.25303 6
-3 3 9 35.4687 6.73227 3
-3 3 9 31.1807 6.99719 8
3 3 -9 21.9167 6.23304 13
-2 -3 9 2.68631 4.68294 10
2 -3 -9 16.3663 6.36499 7
-2 -3 9 5.34747 4.09743 5
2 -3 -9 8.17126 4.67154 6
2 -3 -9 10.5863 5.76951 3
2 -3 -9 6.81975 5.67786 12
-2 -3 9 9.57166 4.76530 11
2 -3 -9 1.91717 5.78446 13
-2 3 9 4.77175 5.90990 3
2 3 -9 6.16828 6.30244 7
2 3 -9 7.91179 4.22414 6
-2 3 9 11.1273 4.20522 2
-2 3 9 6.74541 4.90367 9
2 3 -9 1.89286 5.43981 13
-2 3 9 16.2404 6.15996 8
-1 -3 9 8.72129 4.46538 5
1 -3 -9 8.33232 6.60693 12
1 -3 -9 20.5906 5.53861 3
1 -3 -9 12.3486 4.42838 6
1 -3 -9 21.3056 6.35034 13
1 -3 -9 11.3755 6.76305 7
-1 -3 9 3.50039 4.79539 11
-1 3 9 6.51941 5.63269 3
-1 3 9 7.04685 5.15327 9
1 3 -9 6.23317 5.70437 13
1 3 -9 10.9541 3.62464 6
-1 3 9 5.81006 5.90885 8
-1 3 9 16.4674 4.21022 2
0 -3 9 43.4076 5.73038 5
0 -3 -9 34.2161 6.35590 3
0 -3 -9 37.4683 5.80011 6
0 -3 9 52.1585 6.92412 11
0 -3 -9 33.0701 7.06338 13
0 -3 -9 23.1806 6.69238 12
0 -3 9 35.1032 5.49019 1
0 -3 -9 36.3793 8.46429 7
0 3 9 29.6991 5.92827 3
0 3 9 33.8729 7.06176 8
0 3 -9 28.4891 4.92479 6
0 3 -9 32.4349 6.70469 13
0 3 9 33.5252 6.21429 9
-1 -3 -9 5.88724 4.51780 6
1 -3 9 7.97454 4.20118 5
1 -3 9 12.6700 5.34008 11
1 -3 9 17.0715 4.90729 1
-1 -3 -9 14.2601 5.71847 3
-1 3 -9 10.4046 6.30163 13
1 3 9 8.60737 6.43885 8
1 3 9 2.01582 5.54992 11
-1 3 -9 12.0829 4.17804 6
1 3 9 13.0062 5.33727 9
2 -3 9 58.6999 6.79846 5
2 -3 9 53.4744 8.70544 8
-2 -3 -9 60.3535 11.5945 4
2 -3 9 52.7468 8.11020 1
-2 -3 -9 48.2212 7.55386 3
-2 -3 -9 58.8974 7.85108 6
2 3 9 56.7876 9.33859 11
2 3 9 72.1858 8.06580 2
2 3 9 56.9858 8.69023 3
2 3 9 73.1095 9.08795 9
-2 3 -9 69.6750 7.67427 6
-2 3 -9 64.0188 10.2468 13
-2 3 -9 73.8950 10.9200 12
2 3 9 51.2972 8.21512 8
-3 -3 -9 14.4926 7.46457 4
-3 -3 -9 14.6780 7.71730 7
3 -3 9 9.70237 7.04061 8
3 -3 9 17.5919 5.99693 1
-3 -3 -9 -0.1831 6.79097 3
-3 -3 -9 15.8224 4.87592 6
-3 -3 -9 13.0695 7.36077 12
3 3 9 11.2421 7.14810 8
3 3 9 15.5596 5.70233 9
3 3 9 8.23536 7.26679 11
3 3 9 7.34107 6.40280 3
3 3 9 6.42271 5.90910 2
-3 3 -9 22.1772 8.26750 12
-3 3 -9 8.14347 5.10042 6
4 -3 9 120.821 13.9461 8
-4 -3 -9 104.899 10.5325 6
-4 -3 -9 135.941 15.1663 4
-4 -3 -9 125.813 11.4674 3
-4 -3 -9 86.5709 13.2924 12
4 -3 9 100.658 11.6312 1
-4 3 -9 94.4972 11.3107 6
-4 3 -9 97.2166 12.6300 4
4 3 9 108.130 10.9455 3
4 3 9 118.121 13.2414 8
-4 3 -9 134.148 14.5610 12
4 3 9 92.9185 12.8148 11
4 3 9 106.541 10.7183 2
-5 -3 -9 11.0607 8.58849 12
5 -3 9 3.16687 7.56585 1
5 -3 9 5.94565 8.75280 8
-5 -3 -9 14.3326 9.58529 4
-5 -3 -9 6.86903 7.56775 3
-5 -3 -9 2.70216 6.15707 6
5 3 9 23.2487 8.85202 11
5 3 9 16.8230 8.46865 8
5 3 9 0.26125 7.27344 3
-5 3 -9 15.2488 10.0833 12
5 3 9 2.70218 6.66439 2
-5 3 -9 -7.2994 6.69025 6
-5 3 -9 1.04357 8.00137 4
7 -4 -9 8.18613 8.90241 3
-7 -4 9 29.4606 9.60153 3
7 -4 -9 2.34991 9.63586 7
-7 -4 9 11.5761 6.30302 5
7 -4 -9 13.3229 7.77127 13
-7 -4 9 23.3876 8.73855 11
-7 4 9 8.72201 9.81718 3
7 4 -9 14.0787 5.73769 2
-7 4 9 6.51911 8.54658 11
7 4 -9 -0.0845 6.84025 6
7 4 -9 4.03950 7.40239 13
-7 4 9 -5.1033 7.77815 9
6 -4 -9 24.1832 8.83314 3
6 -4 -9 40.3333 8.85886 7
6 -4 -9 11.9873 6.20252 6
-6 -4 9 31.0116 6.98086 10
-6 -4 9 21.3466 6.76626 5
-6 -4 9 25.7803 8.82886 3
-6 4 9 32.3794 9.20783 11
-6 4 9 25.5657 7.81770 9
6 4 -9 17.8159 6.27196 6
6 4 -9 26.8558 5.35401 2
-6 4 9 7.04947 9.62264 3
6 4 -9 34.2079 7.26956 13
5 -4 -9 8.92850 7.13424 12
-5 -4 9 5.82135 5.74709 10
-5 -4 9 13.4240 5.58026 5
-5 -4 9 -1.9305 8.00943 3
5 -4 -9 19.4609 8.47219 7
5 -4 -9 1.70716 7.53824 3
5 -4 -9 5.31841 5.70112 6
-5 -4 9 14.8501 6.24257 11
5 4 -9 15.9307 7.24065 13
5 4 -9 5.76873 5.42878 6
-5 4 9 4.70961 8.58317 3
-5 4 9 14.1851 7.87960 11
-5 4 9 10.9751 6.11332 9
-4 -4 9 88.5855 9.84684 10
4 -4 -9 99.5595 11.8293 7
-4 -4 9 86.5782 8.65605 5
4 -4 -9 95.9054 11.2999 3
-4 -4 9 77.2559 9.08415 11
4 -4 -9 102.793 11.2369 12
4 -4 -9 94.1812 9.18486 6
4 -4 -9 86.6217 10.1841 13
4 4 -9 92.0396 9.50002 6
-4 4 9 110.922 11.5707 9
-4 4 9 68.1560 11.0699 11
4 4 -9 88.6560 10.0378 13
-4 4 9 119.734 12.2608 3
-3 -4 9 12.2529 5.13924 11
-3 -4 9 9.60695 6.20291 8
-3 -4 9 14.6558 5.91880 10
-3 -4 9 12.7093 5.87564 5
3 -4 -9 10.2763 6.57511 3
3 -4 -9 16.3013 5.27954 6
3 -4 -9 12.9138 7.56685 7
3 -4 -9 13.6485 6.42531 13
3 -4 -9 18.2522 6.95548 12
3 4 -9 16.2265 6.60040 13
3 4 -9 14.2227 5.36169 6
-3 4 9 14.0572 6.46318 3
-3 4 9 22.9554 5.28865 2
-3 4 9 23.2275 7.67537 8
-3 4 9 2.24317 7.77021 11
2 -4 -9 19.9857 7.35294 7
2 -4 -9 7.26082 6.08275 3
-2 -4 9 21.9514 5.48383 11
2 -4 -9 19.6804 5.14965 6
-2 -4 9 22.3797 5.71012 10
-2 -4 9 15.4991 5.78460 8
2 -4 -9 12.6918 6.43613 13
2 4 -9 6.56811 5.95113 13
-2 4 9 16.4649 5.35232 2
2 4 -9 8.94169 4.68335 6
-2 4 9 18.3985 7.10282 8
-2 4 9 19.2472 7.41353 3
1 -4 -9 9.81941 6.67913 7
-1 -4 9 2.56779 5.37989 8
1 -4 -9 -5.6928 6.26352 13
-1 -4 9 4.06639 4.71354 5
1 -4 -9 10.8735 5.70172 3
1 -4 -9 8.18568 4.54888 6
-1 -4 9 -4.8717 5.49243 10
-1 4 9 -2.2820 6.10462 3
-1 4 9 15.4717 6.41063 9
1 4 -9 4.36190 4.40156 6
-1 4 9 4.27421 6.52317 8
1 4 -9 -6.4446 5.83966 13
-1 4 9 7.66442 5.02186 2
0 -4 -9 2.27095 4.30501 6
0 -4 9 4.10585 4.97803 1
0 -4 -9 -7.4313 5.67866 3
0 -4 9 4.35894 4.56006 5
0 -4 -9 4.88379 6.83325 13
0 -4 9 0.35067 5.76531 8
0 4 -9 3.49947 4.15666 6
0 4 9 5.82633 4.64153 2
0 4 9 2.06904 6.54745 9
0 4 9 -3.3052 6.60801 8
0 4 9 8.32664 7.13966 3
0 4 -9 4.29773 6.42031 13
1 -4 9 6.37446 6.56663 8
1 -4 9 29.2099 5.85178 1
-1 -4 -9 28.5195 6.50924 3
-1 -4 -9 19.4197 8.25199 7
1 -4 9 27.4543 5.34634 5
-1 -4 -9 21.2823 8.18146 4
-1 -4 -9 14.2352 7.62519 12
-1 -4 -9 24.2154 5.39008 6
1 4 9 12.9947 7.02218 9
1 4 9 23.5563 7.77324 8
1 4 9 16.4300 6.97234 11
1 4 9 16.2078 6.53164 3
-1 4 -9 13.8221 4.43491 6
1 4 9 21.4831 5.95322 2
-1 4 -9 25.5154 7.24076 13
-2 -4 -9 -7.6064 7.93343 7
2 -4 9 -9.7793 5.91000 1
-2 -4 -9 -12.892 6.18422 3
2 -4 9 -3.9713 6.52070 8
-2 -4 -9 -7.9999 5.00966 6
-2 -4 -9 -5.7377 8.31646 4
-2 -4 -9 1.45820 7.28130 12
2 -4 9 6.07572 4.95237 5
2 4 9 0.91723 5.55788 2
2 4 9 -2.3260 6.56184 3
2 4 9 1.09612 7.12937 11
2 4 9 6.41496 6.31055 8
-2 4 -9 7.59508 4.78419 6
3 -4 9 91.6553 8.67163 5
-3 -4 -9 69.6283 11.4022 3
-3 -4 -9 89.7828 13.8611 7
3 -4 9 88.6152 10.4568 1
-3 -4 -9 84.0330 13.0598 12
3 -4 9 111.397 12.6491 8
-3 -4 -9 90.1266 15.0413 4
-3 -4 -9 73.7012 9.46283 6
3 4 9 82.1990 11.7081 11
-3 4 -9 95.5799 12.6836 13
-3 4 -9 95.7333 10.1663 6
3 4 9 94.3029 13.1483 8
3 4 9 97.9918 10.0428 2
3 4 9 72.6267 11.0707 3
4 -4 9 6.86059 7.58498 1
-4 -4 -9 13.2037 7.74441 3
-4 -4 -9 -0.8452 9.34317 4
4 -4 9 0.60172 8.09020 8
-4 -4 -9 11.8393 5.64968 6
-4 -4 -9 10.3376 9.10570 7
-4 -4 -9 -5.9822 8.89898 12
-4 4 -9 0.15284 7.61186 4
-4 4 -9 12.1837 10.7897 12
4 4 9 3.25154 7.18460 3
-4 4 -9 6.48207 6.02902 6
4 4 9 5.73332 7.13151 2
4 4 9 15.8640 8.25762 8
4 4 9 -10.600 8.60660 11
5 -5 -9 6.00400 8.42016 3
5 -5 -9 -8.4467 8.61471 12
-5 -5 9 -9.0297 6.19038 5
5 -5 -9 9.51577 6.81668 13
5 -5 -9 -3.2738 8.48555 7
-5 -5 9 0.95912 6.46937 11
5 -5 -9 8.51864 5.51599 6
-5 5 9 4.77868 9.86902 3
-5 5 9 6.33743 7.61355 9
5 5 -9 2.40485 6.31612 6
-5 5 9 -0.4258 8.26572 11
5 5 -9 -5.2283 5.14996 2
5 5 -9 9.64914 7.01262 13
-4 -5 9 8.46524 6.10063 11
4 -5 -9 7.25414 5.15188 6
-4 -5 9 4.45802 5.66966 5
4 -5 -9 -5.4031 7.86774 3
4 -5 -9 18.5948 8.07050 7
4 -5 -9 14.2204 7.39998 12
4 -5 -9 16.7684 7.57008 13
4 5 -9 7.24037 7.08588 13
-4 5 9 13.9247 5.85187 2
4 5 -9 2.71017 5.63336 6
-4 5 9 2.19912 7.14880 9
-4 5 9 -2.2880 8.26459 3
-4 5 9 5.50489 7.99634 11
4 5 -9 13.3170 4.93073 2
3 -5 -9 104.330 12.2454 12
-3 -5 9 66.6140 8.32134 5
3 -5 -9 70.7808 12.1402 7
3 -5 -9 74.8923 10.3107 13
-3 -5 9 63.7851 8.77168 11
3 -5 -9 73.7551 11.7032 3
3 -5 -9 99.4303 9.73182 6
-3 5 9 100.276 13.6071 3
3 5 -9 69.5928 10.7203 13
-3 5 9 113.947 12.8680 9
3 5 -9 98.6741 10.0738 6
-3 5 9 75.2817 11.1414 11
-3 5 9 83.8425 9.92120 2
3 5 -9 99.1705 8.11515 2
2 -5 -9 18.1036 8.13535 12
2 -5 -9 29.4450 9.03764 7
2 -5 -9 21.7613 5.50217 6
-2 -5 9 12.5029 7.04476 8
2 -5 -9 22.5817 6.94083 3
-2 -5 9 19.9054 5.69161 5
2 -5 -9 4.80933 7.24527 13
2 5 -9 14.8121 5.58690 6
-2 5 9 9.44071 8.51366 3
-2 5 9 6.12257 6.12688 2
-2 5 9 10.1261 7.95665 8
-2 5 9 11.6580 8.21185 9
2 5 -9 0.65162 7.07913 13
-2 5 9 13.7785 8.29754 11
1 -5 -9 33.6399 7.51310 3
-1 -5 9 35.7825 7.36406 8
1 -5 -9 45.3591 9.36437 7
1 -5 -9 38.1136 8.63833 12
1 -5 -9 37.0022 8.15551 13
1 -5 -9 37.3956 6.61303 6
-1 -5 9 48.4952 7.43814 10
-1 -5 9 32.7110 6.10319 5
-1 5 9 42.1044 6.97774 2
1 5 -9 34.7028 6.11980 6
-1 5 9 30.2923 9.06057 8
-1 5 9 30.7754 8.47424 3
-1 5 9 28.5105 8.73107 9
-1 5 9 46.0385 9.36023 11
1 5 -9 28.6726 7.79583 13
0 -5 -9 80.4770 12.2750 7
0 -5 9 61.8340 8.25062 10
0 -5 9 73.3198 9.61804 1
0 -5 -9 68.6258 10.7379 13
0 -5 -9 60.1546 9.88523 12
0 -5 9 58.6721 8.49665 8
0 -5 -9 66.6193 9.30150 6
0 -5 -9 61.0045 8.82456 3
0 5 -9 69.3587 8.85789 6
0 5 9 75.5511 10.1525 11
0 5 9 70.4993 10.0884 8
0 5 -9 60.7642 9.15107 13
0 5 9 63.5214 9.51321 2
0 5 9 58.5285 10.7796 3
-1 -5 -9 -0.9445 8.21012 12
-1 -5 -9 1.19265 8.51684 7
-1 -5 -9 12.8321 5.54708 6
-1 -5 -9 -1.4560 8.40596 13
1 -5 9 6.50796 5.91567 1
-1 -5 -9 8.26942 6.89764 3
1 -5 9 6.03504 6.91606 8
1 5 9 -4.7270 7.29859 3
-1 5 -9 4.37685 4.84956 6
1 5 9 1.31314 5.96940 2
-1 5 -9 4.88855 7.22412 13
1 5 9 2.50952 7.59180 11
1 5 9 13.5214 8.67304 8
-2 -5 -9 3.80319 8.80836 7
-2 -5 -9 16.0887 5.67651 6
-2 -5 -9 -10.666 7.64053 3
2 -5 9 2.55819 6.23136 1
2 -5 9 -1.0383 6.54511 8
2 -5 9 3.41846 6.04595 5
-2 -5 -9 7.21193 10.0326 4
-2 -5 -9 3.77616 8.73705 12
-2 5 -9 -5.5746 7.83289 13
2 5 9 -3.6665 7.51282 11
2 5 9 10.5768 8.66812 8
2 5 9 -2.2758 7.47941 3
-2 5 -9 14.0364 5.72502 6
2 5 9 13.2283 6.39471 2
-3 -5 -9 1.65289 8.06127 3
3 -5 9 -5.5377 5.36253 5
-3 -5 -9 3.88542 10.6388 4
3 -5 9 2.90177 7.25967 1
-3 -5 -9 19.9893 9.41885 12
-3 -5 -9 5.95735 10.1256 7
-3 -5 -9 7.87543 5.87917 6
3 -5 9 -2.0872 7.92127 8
-3 5 -9 -12.575 8.59851 13
3 5 9 -0.9504 7.71875 9
-3 5 -9 7.13694 6.02030 6
3 5 9 13.9438 8.96835 8
3 5 9 5.79924 8.64460 3
3 5 9 6.77849 8.90503 11
3 5 9 14.0240 7.17375 2
3 -6 -9 -1.1308 8.78058 7
-3 -6 9 12.5441 6.16197 5
3 -6 -9 14.7803 7.88083 13
3 -6 -9 12.5849 5.40988 6
3 -6 -9 9.70288 8.50990 12
3 -6 -9 1.70078 8.12226 3
-3 -6 9 11.7930 8.05710 10
3 6 -9 8.17771 6.26980 6
3 6 -9 14.8564 8.35392 13
-3 6 9 2.98735 10.0779 11
3 6 -9 4.67759 5.30972 2
-3 6 9 9.08464 6.55218 2
-3 6 9 5.31978 10.2114 3
-3 6 9 7.53926 9.45037 9
2 -6 -9 18.4741 9.57892 7
2 -6 -9 31.3068 5.75362 6
2 -6 -9 28.7710 9.37484 12
-2 -6 9 13.9848 8.00671 10
-2 -6 9 9.82468 6.89994 5
2 -6 -9 32.0163 8.73040 3
2 -6 -9 11.6966 7.85682 13
2 6 -9 21.2267 6.91776 6
-2 6 9 10.7343 9.68772 9
-2 6 9 22.8005 8.74384 11
-2 6 9 21.8891 10.5603 3
2 6 -9 16.2420 8.41552 13
2 6 -9 20.0869 6.06297 2
-2 6 9 33.1665 7.44953 2
1 -6 -9 14.4053 8.28815 3
-1 -6 9 39.8857 8.13285 10
1 -6 -9 22.6137 9.11058 12
1 -6 -9 16.2584 8.15477 13
1 -6 -9 40.9547 10.5049 7
-1 -6 9 21.8706 7.44586 5
-1 6 9 35.6387 10.0982 11
1 6 -9 9.19794 8.37456 13
1 6 -9 25.4152 6.23780 2
-1 6 9 17.5212 9.27603 9
-1 6 9 31.3447 7.66398 2
-1 6 9 43.7836 11.3011 3
1 6 -9 32.4820 6.68255 6
0 -6 9 2.16327 7.32943 8
0 -6 9 7.44538 7.64049 10
0 -6 -9 9.56033 8.94751 12
0 -6 9 -7.2323 6.30183 5
0 -6 -9 16.3006 8.77157 3
0 -6 -9 9.85244 6.18690 6
0 -6 9 13.9632 7.05666 1
0 -6 -9 2.40934 9.39052 7
0 -6 -9 -1.0933 8.53074 13
0 6 9 -10.875 9.36087 8
0 6 -9 4.90734 5.68286 6
0 6 -9 -12.608 7.84247 13
0 6 9 11.8144 8.66130 9
0 6 -9 6.92168 7.59579 9
0 6 9 -10.134 8.68519 11
0 6 -9 17.1479 5.66182 2
0 6 9 -7.9292 6.61570 2
7 0 -10 14.0799 8.78749 3
7 0 -10 14.9702 7.23630 13
-7 0 10 15.6867 8.38866 11
-7 0 10 -7.2249 9.13031 3
7 0 -10 16.6109 9.03764 7
7 0 -10 4.17802 6.11008 6
-7 0 10 -1.3806 7.61504 9
6 0 -10 -4.6626 7.76473 7
6 0 -10 10.6161 6.83912 13
6 0 -10 10.7074 5.85065 6
6 0 -10 8.81333 8.13841 3
-6 0 10 7.02368 6.45229 9
-6 0 10 -5.4037 7.52000 3
-6 0 10 5.51354 6.94091 11
-5 0 10 79.4734 10.6150 8
5 0 -10 64.2919 9.09053 6
-5 0 10 47.4829 8.56510 11
5 0 -10 59.9307 9.38485 3
5 0 -10 77.7029 10.7802 12
5 0 -10 71.1504 9.83294 13
-5 0 10 64.5282 9.71959 3
5 0 -10 46.9315 9.07680 7
-5 0 10 72.3030 10.8094 9
4 0 -10 7.73593 6.82980 3
-4 0 10 0.74917 5.67820 9
4 0 -10 7.87359 6.73005 12
4 0 -10 11.5004 4.75471 6
-4 0 10 1.55531 6.67942 8
4 0 -10 12.8036 6.36832 13
4 0 -10 1.39147 7.42729 7
-4 0 10 2.49977 6.77576 3
-3 0 10 52.0911 8.94851 9
3 0 -10 54.1771 8.28424 3
3 0 -10 76.1304 10.3985 7
3 0 -10 50.0918 7.68034 13
-3 0 10 45.2460 7.14088 8
3 0 -10 44.6979 7.95790 12
3 0 -10 69.5490 7.55306 6
-2 0 10 167.180 12.4045 9
2 0 -10 202.161 12.4125 6
2 0 -10 161.598 13.0842 12
2 0 -10 169.604 12.3564 13
2 0 -10 184.147 13.1618 3
-2 0 10 180.231 12.8063 3
-2 0 10 179.178 13.2000 8
2 0 -10 171.716 14.2697 7
-1 0 10 90.7910 10.4561 8
-1 0 10 67.8967 8.81967 9
-1 0 10 74.0138 9.69037 3
1 0 -10 76.9085 11.8983 7
1 0 -10 105.170 10.1339 3
1 0 -10 97.1673 8.33674 6
-1 0 10 66.4319 9.47401 11
1 0 -10 78.1297 9.12406 13
1 0 -10 72.9386 8.79174 12
0 0 -10 13.9378 6.50936 3
0 0 -10 23.5755 7.11269 13
0 0 10 28.8591 7.21227 3
0 0 10 20.1275 6.63397 11
0 0 10 14.2918 4.69390 9
0 0 -10 16.0744 7.03468 12
0 0 -10 25.6498 8.25855 7
0 0 -10 16.4984 5.03573 6
1 0 10 10.5718 6.45881 11
-1 0 -10 5.69972 6.59773 12
-1 0 -10 -3.9980 7.06525 13
1 0 10 -6.9073 5.60549 3
-1 0 -10 2.57125 4.55959 6
-1 0 -10 21.3767 6.44806 3
-2 0 -10 191.770 14.2388 12
2 0 10 153.336 11.8767 3
2 0 10 173.501 14.9445 8
-2 0 -10 131.331 12.5247 3
-2 0 -10 197.563 14.5972 13
-2 0 -10 176.782 12.5883 6
-3 0 -10 18.9957 6.65395 3
3 0 10 7.08426 5.87509 3
3 0 10 3.20957 7.52056 8
-3 0 -10 1.34190 6.00005 6
-3 0 -10 8.91605 7.58362 12
4 0 10 1.63178 6.05429 1
4 0 10 -0.1152 8.19637 8
-4 0 -10 -14.473 8.30962 4
4 0 10 -0.9524 8.09894 11
-4 0 -10 -7.5076 5.58657 6
-4 0 -10 -1.6333 8.48368 12
-4 0 -10 3.74857 7.27721 3
7 -1 -10 19.3252 8.95850 7
-7 -1 10 1.97009 7.39197 11
-7 -1 10 -3.5814 10.1291 3
-7 -1 10 2.16738 7.11430 9
7 -1 -10 19.5771 7.01938 13
7 -1 -10 4.43966 6.30141 6
7 -1 -10 10.7166 8.74543 3
7 1 -10 16.0390 7.49681 13
-7 1 10 5.31626 7.53624 11
-7 1 10 5.22112 9.54207 3
7 1 -10 19.2010 9.10852 3
7 1 -10 3.21794 7.96135 7
7 1 -10 -1.8767 6.47894 6
-7 1 10 16.0882 7.95671 9
6 -1 -10 11.5580 7.25472 13
6 -1 -10 1.10542 8.39054 7
-6 -1 10 -0.9941 7.08858 9
-6 -1 10 1.64698 8.34477 3
6 -1 -10 0.99216 8.06489 3
-6 -1 10 13.2288 7.65156 11
6 -1 -10 10.0920 5.43725 6
-6 1 10 -2.6763 8.04056 3
-6 1 10 5.78541 7.75897 8
6 1 -10 4.48181 5.85611 6
6 1 -10 17.5703 8.55622 3
6 1 -10 6.14003 7.06125 13
-6 1 10 -8.8141 7.27626 11
-6 1 10 5.33599 6.58150 9
6 1 -10 2.19560 7.46017 7
-5 -1 10 14.8854 7.30390 3
5 -1 -10 15.5366 6.69351 12
-5 -1 10 1.13939 6.28364 11
-5 -1 10 -0.1779 6.10211 8
5 -1 -10 5.18666 6.43454 13
5 -1 -10 -8.0276 7.55407 7
5 -1 -10 9.84292 7.37735 3
5 -1 -10 10.0488 4.99691 6
-5 -1 10 -0.3031 6.41907 9
-5 1 10 -2.3372 7.34494 3
-5 1 10 7.21017 6.74161 8
5 1 -10 -11.568 6.90305 7
5 1 -10 0.30486 5.04220 6
5 1 -10 7.55838 6.37719 13
-5 1 10 -3.8032 5.81231 9
5 1 -10 0.92845 7.58781 3
-5 1 10 9.44107 7.30495 11
4 -1 -10 85.1440 8.77246 6
4 -1 -10 66.3446 8.58907 12
4 -1 -10 96.7318 11.8553 7
4 -1 -10 66.4257 9.90352 13
4 -1 -10 46.6375 8.62554 3
-4 -1 10 74.4949 10.7492 3
-4 -1 10 67.4756 10.3112 8
-4 1 10 64.9722 10.4140 11
-4 1 10 60.1540 9.40170 3
-4 1 10 67.9515 8.69082 8
4 1 -10 67.7148 10.6751 3
4 1 -10 77.1227 10.7624 7
4 1 -10 69.1366 8.31677 6
3 -1 -10 7.81089 4.50746 6
3 -1 -10 -3.3595 5.81194 13
3 -1 -10 19.8368 7.55769 7
-3 -1 10 3.79850 5.37809 9
-3 -1 10 7.03255 6.63037 3
3 -1 -10 -11.738 6.77822 12
3 -1 -10 1.60121 6.56534 3
-3 -1 10 5.78127 6.30655 8
-3 -1 10 15.6587 6.62572 11
-3 1 10 -2.5956 6.71752 8
-3 1 10 11.8780 6.83814 3
3 1 -10 -2.5508 6.42070 3
3 1 -10 2.76369 4.38705 6
-3 1 10 3.94910 5.78532 9
3 1 -10 1.78154 7.02851 7
2 -1 -10 75.9117 10.2560 3
-2 -1 10 91.1644 9.48920 3
2 -1 -10 78.3659 11.9301 7
2 -1 -10 72.4794 8.48535 6
-2 -1 10 50.4546 7.81614 11
2 -1 -10 57.4082 8.62480 12
-2 -1 10 74.4089 8.97559 9
2 -1 -10 62.5479 9.67394 13
2 1 -10 77.7462 9.75870 3
-2 1 10 63.2237 9.39657 9
2 1 -10 50.2845 8.07221 12
-2 1 10 80.6486 9.79190 3
-2 1 10 70.3103 10.4717 8
2 1 -10 70.1779 7.64112 6
2 1 -10 56.0569 9.33843 7
1 -1 -10 71.0056 8.33806 6
1 -1 -10 67.4737 8.63649 12
-1 -1 10 59.1034 8.84664 11
1 -1 -10 74.3729 9.38967 13
1 -1 -10 72.7971 11.6287 7
-1 -1 10 69.6149 9.17733 3
1 1 -10 70.8857 8.48871 12
-1 1 10 58.1331 9.36681 3
1 1 -10 88.4512 8.14484 6
-1 1 10 59.5676 8.98250 9
1 1 -10 76.8969 10.9718 7
-1 1 10 67.7507 10.4054 8
1 1 -10 61.3694 9.20623 3
0 -1 -10 0.49468 7.17192 12
0 -1 10 -2.4076 5.88240 11
0 -1 -10 -3.9118 4.37700 6
0 -1 -10 1.11893 6.61440 13
0 -1 -10 0.58626 6.41070 3
0 -1 -10 5.34511 7.49676 7
0 -1 10 8.09280 6.35835 3
0 -1 10 11.7677 4.85013 5
0 1 -10 10.4268 5.98089 3
0 1 -10 -5.0400 6.41232 12
0 1 10 2.68190 4.59127 9
0 1 -10 7.70083 4.11175 6
0 1 10 -3.2531 6.13933 8
0 1 10 3.83423 6.47876 3
-1 -1 -10 45.4329 7.87239 6
1 -1 10 24.0021 5.80327 3
-1 -1 -10 37.6013 8.41127 13
1 -1 10 41.8907 7.06120 11
1 -1 10 32.9848 5.22285 5
-1 -1 -10 48.6330 8.41563 12
-1 -1 -10 67.1759 9.85853 3
1 -1 10 52.1431 6.30040 1
1 1 10 32.5145 6.76142 3
-1 1 -10 54.9450 8.75851 3
-1 1 -10 38.3130 6.14809 6
1 1 10 53.0865 8.23920 8
-1 1 -10 42.3077 7.91928 12
-2 -1 -10 -13.744 6.60682 3
2 -1 10 11.2880 6.83993 11
-2 -1 -10 1.97569 5.19225 6
-2 -1 -10 0.54661 7.47193 12
2 -1 10 1.74789 5.59096 3
2 -1 10 7.29844 5.43712 1
-2 -1 -10 6.23695 8.40921 13
2 -1 10 6.02421 6.90865 8
-2 1 -10 7.53926 8.16392 13
-2 1 -10 6.25100 6.45389 3
2 1 10 0.92845 6.75777 8
2 1 10 2.10966 5.34626 2
-2 1 -10 -6.9920 7.52131 12
-2 1 -10 3.66853 5.06637 6
2 1 10 3.34857 5.87900 3
3 -1 10 18.1141 6.36185 1
-3 -1 -10 15.2154 9.05256 12
-3 -1 -10 27.7613 7.56673 3
-3 -1 -10 20.1488 6.50068 6
3 -1 10 22.8711 6.14137 3
3 -1 10 13.2960 7.50358 11
3 -1 10 26.4684 8.22978 8
3 1 10 21.7097 6.42106 2
3 1 10 20.4366 7.85382 8
3 1 10 17.7942 6.48052 3
3 1 10 19.9137 8.03033 11
-3 1 -10 16.1581 8.89236 12
-3 1 -10 16.1820 5.67325 6
-4 -1 -10 21.9850 6.30230 6
-4 -1 -10 14.2347 9.20251 4
-4 -1 -10 23.1279 8.00916 3
4 -1 10 26.4182 7.36851 1
-4 -1 -10 26.5956 8.82224 12
4 -1 10 13.8156 8.39859 8
4 -1 10 19.1081 6.43605 3
4 1 10 31.7239 6.83864 2
4 1 10 20.4541 8.32294 11
4 1 10 24.4982 9.01538 8
-4 1 -10 20.4130 9.44356 12
4 1 10 25.7808 6.71227 3
-4 1 -10 14.1872 6.12420 6
-7 -2 10 36.7854 8.78739 11
-7 -2 10 34.3533 11.4306 3
7 -2 -10 48.0467 10.0370 7
7 -2 -10 27.6119 8.41975 13
7 -2 -10 33.8366 10.2959 3
7 -2 -10 44.1783 7.27043 6
7 2 -10 29.1805 7.89904 6
-7 2 10 32.0645 9.63831 11
-7 2 10 37.0807 9.06081 9
7 2 -10 38.6744 10.0713 3
7 2 -10 42.2230 8.57063 13
-7 2 10 42.4731 11.0860 3
-6 -2 10 11.0651 7.02278 11
6 -2 -10 -0.0861 8.73026 7
-6 -2 10 -0.3570 8.30849 3
6 -2 -10 11.6508 7.06982 13
6 -2 -10 14.6588 5.96849 6
6 -2 -10 10.9342 8.10778 12
6 -2 -10 4.85099 8.11509 3
-6 2 10 7.44704 8.42078 8
6 2 -10 5.28020 6.03218 6
6 2 -10 9.73794 8.57425 3
-6 2 10 -1.3300 8.41250 3
6 2 -10 13.2281 7.38633 13
-6 2 10 4.67160 7.98652 11
-6 2 10 7.58381 7.62317 9
5 -2 -10 103.020 11.0847 13
5 -2 -10 106.932 9.81193 6
5 -2 -10 111.934 11.8366 12
5 -2 -10 94.7725 12.5825 3
5 -2 -10 86.5402 12.7007 7
-5 -2 10 101.622 12.1371 3
5 2 -10 97.7996 10.8725 13
-5 2 10 104.973 11.6975 11
-5 2 10 81.8986 11.5781 9
-5 2 10 97.2538 12.5044 8
5 2 -10 103.706 12.7450 3
5 2 -10 84.2552 10.0137 6
-5 2 10 92.0140 13.2942 3
4 -2 -10 -3.1375 6.98080 3
-4 -2 10 -0.4777 6.15211 8
4 -2 -10 0.42769 7.19886 12
-4 -2 10 11.5709 7.51294 3
4 -2 -10 9.95827 5.62957 6
4 -2 -10 7.19202 7.73574 7
4 -2 -10 0.13073 7.09238 13
-4 -2 10 4.12607 5.82249 11
-4 2 10 1.46564 6.91353 11
-4 2 10 0.19066 6.99270 8
4 2 -10 -7.7809 6.93217 13
4 2 -10 7.51215 7.45953 3
-4 2 10 10.3461 7.95611 3
4 2 -10 16.0559 6.96059 7
4 2 -10 5.37935 5.09272 6
3 -2 -10 -2.0643 6.76982 13
3 -2 -10 4.65390 6.60302 12
3 -2 -10 5.03394 4.85463 6
3 -2 -10 20.9284 7.48026 7
-3 -2 10 7.98312 6.13590 11
3 -2 -10 2.19778 6.72802 3
-3 -2 10 24.7331 7.00068 3
-3 2 10 3.14857 5.27975 9
-3 2 10 22.9153 7.31474 3
3 2 -10 9.85884 7.63882 7
3 2 -10 8.93218 6.50386 3
3 2 -10 0.80425 6.50060 13
-3 2 10 2.52304 6.42006 8
3 2 -10 6.58297 4.41196 6
-3 2 10 -4.1482 7.16400 11
-2 -2 10 48.9053 7.34561 11
-2 -2 10 42.3000 6.20241 5
2 -2 -10 60.7878 8.33064 6
2 -2 -10 51.5877 9.20504 7
2 -2 -10 52.0095 8.64011 3
2 -2 -10 51.7750 8.16284 12
-2 -2 10 59.6110 9.32572 3
-2 2 10 75.8065 10.5643 8
-2 2 10 50.8762 8.46857 3
-2 2 10 50.0976 8.68620 11
2 2 -10 44.3912 7.26041 13
2 2 -10 31.9176 9.01935 7
2 2 -10 47.3034 6.60732 6
2 2 -10 54.8546 7.36346 3
-2 2 10 40.8004 6.76351 9
1 -2 -10 26.4872 5.82941 6
1 -2 -10 14.2880 7.16172 12
1 -2 -10 31.6909 6.69218 3
-1 -2 10 28.3382 6.45962 11
-1 -2 10 24.9618 5.27149 5
-1 -2 10 20.1913 6.39809 3
1 -2 -10 26.7838 8.63719 7
-1 2 10 26.4617 7.36750 11
-1 2 10 14.0344 6.04372 9
-1 2 10 7.73780 6.41864 3
1 2 -10 38.9116 6.75664 6
1 2 -10 21.2987 6.46246 13
-1 2 10 19.0080 6.91412 8
1 2 -10 14.7409 6.25536 3
0 -2 -10 2.10169 8.06651 7
0 -2 -10 0.74654 5.06082 6
0 -2 -10 -1.2753 7.24763 12
0 -2 10 1.76323 5.55199 11
0 -2 -10 1.09753 6.43987 3
0 -2 10 -0.9027 4.84198 5
0 -2 -10 5.31329 6.94979 13
0 -2 10 12.6058 6.86030 8
0 2 -10 5.99081 6.24776 13
0 2 10 9.95813 6.59953 11
0 2 10 4.98340 6.97335 8
0 2 10 1.31357 7.21692 3
0 2 10 -2.6778 5.26076 9
0 2 -10 11.5176 4.39752 6
-1 -2 -10 19.2689 6.79435 3
1 -2 10 19.5576 7.29496 8
1 -2 10 1.86798 5.31858 3
1 -2 10 7.49922 5.85013 1
1 -2 10 13.9283 6.47122 11
-1 -2 -10 17.7927 5.24501 6
-1 -2 -10 6.61403 7.58540 12
1 -2 10 14.3438 4.59570 5
-1 -2 -10 5.02865 8.15116 7
-1 -2 -10 -0.1401 7.87660 13
1 2 10 1.15543 7.04570 8
-1 2 -10 2.14258 6.96510 13
-1 2 -10 20.0424 7.93412 12
1 2 10 12.7406 7.27411 11
1 2 10 18.4326 5.68742 2
1 2 10 -2.0466 6.16547 3
-1 2 -10 15.6114 4.79467 6
1 2 10 6.56815 5.35855 9
-2 -2 -10 188.028 15.5042 7
-2 -2 -10 131.256 12.9320 3
-2 -2 -10 180.575 14.8992 13
2 -2 10 184.025 11.7823 1
2 -2 10 163.843 14.2903 8
-2 -2 -10 159.978 14.3295 12
-2 -2 -10 141.319 12.6451 6
2 -2 10 149.574 11.9944 11
2 2 10 161.975 14.7890 8
2 2 10 166.125 12.4656 3
2 2 10 155.529 13.5415 11
-2 2 -10 179.535 14.0322 13
-2 2 -10 173.985 14.6484 12
2 2 10 185.729 11.9114 2
-2 2 -10 159.647 12.7893 6
3 -2 10 6.71405 8.02738 8
-3 -2 -10 12.6962 7.68964 3
-3 -2 -10 15.8515 8.81356 12
3 -2 10 16.7489 6.99022 11
3 -2 10 -3.5694 7.04168 1
-3 -2 -10 3.02625 5.55290 6
-3 -2 -10 14.1085 7.89445 4
3 2 10 10.5644 6.19963 2
3 2 10 16.5293 8.02531 8
3 2 10 3.66487 7.56262 11
-3 2 -10 6.87201 6.24549 6
3 2 10 11.5881 7.10114 3
-3 2 -10 -4.1170 9.32205 12
-4 -2 -10 4.16858 9.64846 4
-4 -2 -10 -11.702 9.73613 12
-4 -2 -10 -1.8757 6.32828 6
4 -2 10 6.02924 8.91601 8
-4 -2 -10 6.78732 7.53920 3
4 -2 10 -9.0077 7.36003 11
4 -2 10 7.11392 8.01933 1
4 2 10 8.24689 6.92808 3
4 2 10 -1.6276 8.23817 11
4 2 10 -3.7206 6.49537 2
-4 2 -10 3.88663 6.32185 6
4 2 10 -13.790 7.80793 8
-4 2 -10 4.19528 9.85007 12
-6 -3 10 19.9782 9.95546 3
-6 -3 10 36.6978 7.88267 11
6 -3 -10 34.2563 10.6674 7
6 -3 -10 31.3075 7.30104 6
6 -3 -10 40.1025 8.24893 13
6 -3 -10 28.9905 10.1094 3
6 3 -10 31.6533 7.52348 13
-6 3 10 28.5652 11.0703 3
-6 3 10 35.7676 9.39516 8
-6 3 10 38.6858 8.41284 9
6 3 -10 39.5778 8.22979 6
-6 3 10 39.3711 9.83764 11
5 -3 -10 5.78591 6.30627 6
5 -3 -10 6.73475 7.67844 13
-5 -3 10 7.66082 8.65325 3
5 -3 -10 17.9965 9.26891 7
-5 -3 10 6.33788 6.51796 5
5 -3 -10 17.5014 8.18058 12
5 -3 -10 0.30297 8.38132 3
-5 3 10 2.73915 7.57308 9
5 3 -10 8.56884 6.85904 13
-5 3 10 10.9418 9.31891 3
-5 3 10 6.64475 7.92731 8
-5 3 10 20.3314 8.81073 11
5 3 -10 2.42098 5.98702 6
-4 -3 10 73.5131 9.54554 11
4 -3 -10 98.7871 12.4158 12
4 -3 -10 76.2265 10.3089 6
4 -3 -10 77.1355 12.4529 3
-4 -3 10 96.8932 11.8166 8
-4 -3 10 110.577 11.8313 3
4 -3 -10 72.2505 10.8392 7
-4 -3 10 80.4765 9.03639 5
4 -3 -10 69.8082 10.7383 13
-4 3 10 68.9669 11.0368 11
4 3 -10 73.4526 9.44948 13
-4 3 10 118.475 13.0569 3
-4 3 10 87.7905 11.9379 8
4 3 -10 80.4681 9.60318 6
-4 3 10 77.8794 11.4716 9
-3 -3 10 8.81081 6.09790 5
-3 -3 10 4.77950 6.53402 8
-3 -3 10 17.2738 6.68997 11
3 -3 -10 1.01298 7.33750 3
3 -3 -10 3.33239 5.37015 6
3 -3 -10 13.6190 8.68085 7
3 -3 -10 6.62809 7.60102 12
3 3 -10 7.07058 5.43472 6
-3 3 10 4.31573 7.85423 8
-3 3 10 8.63602 7.67721 11
3 3 -10 -4.2974 7.15793 13
3 3 -10 2.16015 8.09788 7
-3 3 10 13.7387 7.16014 3
-2 -3 10 14.8499 7.09708 8
2 -3 -10 5.70198 5.69449 6
2 -3 -10 14.0923 7.67488 12
2 -3 -10 11.6972 7.14733 3
-2 -3 10 10.0951 5.74524 11
2 -3 -10 29.3944 8.21292 7
-2 3 10 20.1867 7.87768 11
-2 3 10 9.95930 7.59010 3
-2 3 10 27.0361 7.96185 8
2 3 -10 20.2379 8.81446 7
2 3 -10 7.87625 5.04589 6
-2 3 10 13.8123 5.64384 2
2 3 -10 11.8579 7.04417 13
-1 -3 10 -3.4771 5.91712 11
-1 -3 10 -2.0634 5.99112 8
1 -3 -10 -5.6550 7.23156 12
1 -3 -10 -8.7379 7.71507 7
1 -3 -10 3.43636 5.03751 6
-1 -3 10 -7.0642 5.01584 5
1 -3 -10 11.2067 6.67380 3
-1 3 10 9.63147 5.63122 9
1 3 -10 -3.9725 6.17123 13
-1 3 10 9.15307 7.49675 11
-1 3 10 3.63267 7.05783 3
-1 3 10 6.17564 5.10887 2
-1 3 10 -2.2149 7.42977 8
1 3 -10 3.59624 4.61694 6
0 -3 -10 -2.9960 7.81739 12
0 -3 -10 3.00859 7.80312 13
0 -3 -10 -13.715 6.50512 3
0 -3 -10 8.50214 8.74479 7
0 -3 10 8.97302 5.19639 5
0 -3 10 -3.1247 5.71584 8
0 -3 -10 -1.6879 5.68554 6
0 -3 10 10.3805 6.18816 11
0 -3 10 0.11696 5.79831 1
0 3 10 6.54025 4.79356 2
0 3 10 8.93637 5.65906 9
0 3 10 1.99904 8.15030 3
0 3 -10 0.82134 6.60164 13
0 3 10 6.75349 7.55198 11
0 3 -10 8.63089 4.45751 6
0 3 10 -1.1277 7.24974 8
-1 -3 -10 0.94131 8.95693 7
1 -3 10 2.49664 5.07033 5
-1 -3 -10 0.16944 8.54857 13
-1 -3 -10 8.63720 8.15494 12
-1 -3 -10 20.3844 7.31330 3
1 -3 10 13.4221 6.42720 11
1 -3 10 13.3597 7.32479 8
1 -3 10 3.49147 6.29352 1
-1 -3 -10 10.6717 5.54103 6
1 3 10 10.2855 5.98139 2
1 3 10 12.3321 7.80569 11
-1 3 -10 11.1389 8.08898 13
1 3 10 23.5565 5.97499 9
1 3 10 11.9625 7.92665 8
1 3 10 4.10213 6.79232 3
-1 3 -10 14.2070 5.25201 6
2 -3 10 20.5237 8.09002 8
-2 -3 -10 -9.6314 7.13085 3
2 -3 10 15.9223 6.89582 1
-2 -3 -10 -2.6432 8.31325 12
2 -3 10 -11.578 4.99464 5
-2 -3 -10 0.30055 8.72477 7
-2 -3 -10 5.27809 5.68634 6
-2 -3 -10 11.4251 9.30984 13
-2 3 -10 -15.248 7.96506 13
2 3 10 10.0183 5.90855 9
2 3 10 11.0682 5.54067 2
-2 3 -10 3.15530 5.28979 6
2 3 10 3.86793 8.20363 8
2 3 10 7.48313 6.74456 3
2 3 10 0.79855 7.47717 11
-3 -3 -10 31.5489 10.0446 7
-3 -3 -10 26.3534 8.59163 3
3 -3 10 28.1079 7.95974 1
-3 -3 -10 25.2378 10.1938 4
3 -3 10 26.2773 9.22411 8
-3 -3 -10 26.0154 9.38247 12
-3 -3 -10 36.2853 7.05747 6
3 3 10 32.1952 7.52500 2
3 3 10 20.1766 8.07863 3
-3 3 -10 20.6798 10.4740 12
3 3 10 28.1421 8.74970 11
3 3 10 29.1472 9.23872 8
-3 3 -10 41.3449 10.2529 13
-3 3 -10 18.2658 6.83557 6
5 -4 -10 57.1572 7.87125 6
-5 -4 10 63.6166 9.56481 5
5 -4 -10 99.3070 14.2370 7
5 -4 -10 68.1531 9.75705 13
5 -4 -10 72.4940 10.6955 12
5 -4 -10 60.5573 10.9766 3
-5 -4 10 58.4754 8.25890 10
5 4 -10 80.1209 10.9394 6
-5 4 10 58.4644 9.99177 8
-5 4 10 75.7086 12.2060 3
-5 4 10 58.9949 10.5219 11
5 4 -10 48.1001 9.16799 13
-5 4 10 53.9004 9.64138 9
4 -4 -10 -2.5899 8.35795 3
4 -4 -10 -2.1469 5.54722 6
4 -4 -10 3.83590 7.72714 13
4 -4 -10 -7.2187 8.79182 7
-4 -4 10 -2.0402 6.22009 11
4 -4 -10 5.32013 8.18108 12
-4 -4 10 12.1435 6.49835 10
-4 -4 10 5.23152 5.99678 5
4 4 -10 -0.6116 7.21198 13
4 4 -10 -2.2995 5.86035 6
-4 4 10 -0.5980 8.11925 8
-4 4 10 9.87395 6.74514 9
-4 4 10 -7.1721 8.02143 11
-4 4 10 4.57396 9.16040 3
3 -4 -10 32.3353 8.84860 12
-3 -4 10 23.3076 6.30723 5
-3 -4 10 21.6925 6.20399 11
3 -4 -10 18.0633 6.51004 6
-3 -4 10 17.3072 6.71910 10
3 -4 -10 35.0720 9.70643 7
3 -4 -10 28.6215 8.82654 3
-3 -4 10 23.4911 7.36688 8
-3 4 10 19.2394 9.49290 8
-3 4 10 22.2297 8.57978 11
3 4 -10 21.6748 6.10165 6
3 4 -10 23.3355 8.11253 13
-3 4 10 27.8155 9.69064 3
-3 4 10 24.0405 7.20202 2
-3 4 10 20.5220 7.07081 9
2 -4 -10 81.4870 12.1240 3
-2 -4 10 54.2700 8.20438 8
2 -4 -10 42.4436 9.38154 12
2 -4 -10 63.6911 7.80630 6
-2 -4 10 45.3197 7.42302 11
-2 -4 10 49.3147 7.47705 5
2 -4 -10 63.0109 10.9147 7
2 4 -10 46.9341 8.68821 13
-2 4 10 63.7675 10.2383 8
-2 4 10 55.9911 8.68738 9
-2 4 10 40.2071 9.72070 3
2 4 -10 59.3344 9.34555 6
-2 4 10 82.2851 9.32311 2
-2 4 10 56.6025 9.52999 11
1 -4 -10 26.6075 8.70432 12
1 -4 -10 42.0943 8.66452 3
-1 -4 10 31.3927 7.66627 8
1 -4 -10 31.7887 6.47878 6
1 -4 -10 34.7336 9.51867 7
1 4 -10 34.4036 6.42352 6
-1 4 10 23.7034 9.32998 8
-1 4 10 32.6251 8.98445 11
-1 4 10 23.0591 8.91621 3
-1 4 10 23.3464 6.82809 2
1 4 -10 18.9598 8.09893 13
0 -4 -10 -7.1098 9.08172 7
0 -4 -10 -2.7694 7.71153 3
0 -4 10 -0.8660 5.59810 5
0 -4 10 7.52841 6.63142 1
0 -4 -10 -2.0692 5.71847 6
0 -4 -10 5.73225 8.44060 13
0 -4 10 -5.2400 6.90921 8
0 4 10 -6.4917 9.15534 3
0 4 -10 4.61147 5.15758 6
0 4 -10 8.54304 7.65407 13
0 4 10 4.16101 5.51731 2
0 4 10 0.25444 7.55227 11
1 -4 10 10.5166 5.75080 5
-1 -4 -10 14.9469 8.16749 3
-1 -4 -10 -13.056 7.86447 12
1 -4 10 6.72393 6.96293 1
1 -4 10 -10.747 7.04360 8
-1 -4 -10 15.5323 6.73736 6
-1 -4 -10 5.48903 9.14136 13
-1 -4 -10 3.32421 9.46343 7
1 4 10 -1.3627 8.11421 3
-1 4 -10 12.2042 5.36682 6
1 4 10 -11.034 8.48709 8
1 4 10 6.55513 7.07346 9
1 4 10 -2.2611 8.21028 11
1 4 10 -2.3658 6.31549 2
-1 4 -10 -16.136 7.77103 13
-2 -4 -10 80.4803 12.9162 7
-2 -4 -10 75.9647 11.8083 12
2 -4 10 90.0598 9.61687 5
2 -4 10 76.9991 10.3461 8
2 -4 10 108.916 11.4370 1
-2 -4 -10 82.1152 17.2564 4
-2 -4 -10 81.0494 11.4482 6
-2 -4 -10 62.1202 10.5129 3
-2 -4 -10 89.9663 13.4588 13
2 4 10 105.958 15.1128 8
-2 4 -10 83.6231 12.9753 13
2 4 10 82.5606 12.1233 3
2 4 10 78.8071 12.7016 11
-2 4 -10 85.7128 10.6493 6
2 4 10 97.6324 12.4497 9
3 -5 -10 6.23190 9.54793 12
3 -5 -10 9.15971 6.94449 6
3 -5 -10 -17.408 9.20775 7
-3 -5 10 3.49770 6.83061 5
-3 -5 10 9.91547 7.82853 10
3 -5 -10 1.04541 8.91404 3
3 5 -10 1.19495 6.59809 6
-3 5 10 -3.8033 10.2720 8
-3 5 10 -10.086 8.14522 9
-3 5 10 6.64881 6.49191 2
-3 5 10 -7.4876 9.83498 3
-3 5 10 -9.2850 8.59334 11
-2 -5 10 40.4317 7.36169 5
-2 -5 10 28.6077 8.40296 10
2 -5 -10 57.8137 11.4375 7
2 -5 -10 38.7161 9.58592 12
-2 -5 10 27.8603 8.40447 8
2 -5 -10 33.8784 9.67078 3
2 5 -10 28.0365 6.93522 6
-2 5 10 20.0497 7.25704 2
-2 5 10 31.9165 9.68849 11
-2 5 10 18.8265 11.4094 3
2 5 -10 8.70446 8.55474 13
-2 5 10 33.0711 10.7067 8
-2 5 10 22.2116 8.33425 9
-1 -5 10 42.4885 7.68470 5
1 -5 -10 48.3848 10.2688 3
1 -5 -10 58.8397 11.3248 7
-1 -5 10 51.5694 8.50804 8
1 -5 -10 62.3603 8.82735 6
1 -5 -10 52.8955 10.9982 12
-1 -5 10 47.9847 8.91737 10
-1 5 10 51.2147 10.1154 11
-1 5 10 88.0132 13.5339 9
-1 5 10 52.8847 11.2558 8
-1 5 10 62.2320 12.4774 3
1 5 -10 47.3180 7.64639 6
-1 5 10 58.1784 9.57414 2
1 5 -10 34.8078 9.47245 13
0 -5 -10 -8.2709 6.96372 6
0 -5 -10 5.92488 9.54062 7
0 -5 -10 -7.5481 9.70562 12
0 -5 10 8.28520 7.03938 5
0 -5 10 8.79992 7.26204 1
0 -5 -10 7.36930 9.37597 3
0 -5 10 -7.9334 7.07243 8
0 -5 -10 4.57941 9.24986 13
0 5 10 8.79560 8.91865 9
0 5 10 -8.0911 8.77756 11
0 5 -10 2.36259 6.27452 6
0 5 10 -22.169 9.88368 8
0 5 10 2.58076 7.21218 2
-6 0 11 12.0939 7.71488 9
6 0 -11 25.3560 10.1853 3
-6 0 11 13.0188 8.26734 11
6 0 -11 23.1762 7.39803 6
6 0 -11 14.3456 8.94191 13
-6 0 11 -12.997 10.2063 3
6 0 -11 21.0167 10.2607 7
5 0 -11 31.5386 9.08258 12
-5 0 11 9.43943 7.48656 9
-5 0 11 17.4317 10.3005 3
-5 0 11 11.0855 8.69536 11
5 0 -11 33.1322 7.07292 6
-5 0 11 38.9974 8.91281 8
5 0 -11 23.1150 8.28592 13
5 0 -11 2.41878 9.45980 7
5 0 -11 26.0156 9.25753 3
-4 0 11 2.45476 7.82520 8
-4 0 11 10.5537 7.80331 11
4 0 -11 3.57744 8.22487 3
4 0 -11 11.0933 8.57690 12
4 0 -11 5.63657 9.01744 7
-4 0 11 0.87703 6.80983 9
4 0 -11 10.8702 6.02392 6
-4 0 11 13.1176 8.88150 3
4 0 -11 3.54835 7.43025 13
3 0 -11 79.3891 10.6927 3
3 0 -11 102.743 10.6056 6
-3 0 11 101.288 12.6449 3
-3 0 11 73.6515 10.1236 11
-3 0 11 76.6035 11.9543 8
3 0 -11 76.6708 10.4323 12
3 0 -11 107.434 13.6247 7
2 0 -11 18.9323 8.49294 3
-2 0 11 11.3282 7.36745 8
2 0 -11 24.3312 9.79408 7
-2 0 11 16.6599 8.30871 3
2 0 -11 10.6038 7.64206 13
2 0 -11 28.4187 5.89760 6
2 0 -11 19.0404 8.39577 12
-2 0 11 32.0681 7.88606 11
-2 0 11 18.6011 6.51746 9
-1 0 11 34.5386 6.62831 9
-1 0 11 36.8496 8.09444 11
1 0 -11 34.1705 11.3806 7
1 0 -11 30.7619 8.28082 13
1 0 -11 20.5595 9.04288 12
-1 0 11 32.3022 8.23844 3
1 0 -11 44.6972 7.18409 6
-1 0 11 37.2340 8.92890 8
0 0 11 8.62685 7.60384 8
0 0 -11 7.17656 7.98232 3
0 0 -11 21.1153 9.86932 7
0 0 -11 15.6272 8.28633 12
0 0 -11 17.4754 8.13484 13
0 0 11 7.31158 5.60482 9
0 0 -11 10.2420 5.88340 6
0 0 11 7.94305 7.72943 11
1 0 11 123.169 14.2768 8
-1 0 -11 119.505 12.6392 6
-1 0 -11 145.664 13.4191 3
1 0 11 138.811 12.9703 11
-1 0 -11 124.061 14.0304 13
1 0 11 146.688 12.0941 3
-1 0 -11 151.573 14.8634 12
2 0 11 -1.8698 8.11054 8
2 0 11 3.65191 8.51949 11
-2 0 -11 -12.802 8.63603 12
-2 0 -11 -10.742 6.00239 6
-2 0 -11 0.29980 8.76834 13
-2 0 -11 -12.503 8.65969 3
2 0 11 1.69500 6.83448 3
6 -1 -11 -4.5350 9.39130 12
-6 -1 11 6.93728 8.71035 11
-6 -1 11 13.5315 7.58787 9
6 -1 -11 15.3505 7.27402 6
6 -1 -11 3.51529 9.96889 3
-6 -1 11 17.4641 11.0725 3
6 1 -11 -8.0670 10.2216 3
6 1 -11 -2.2709 6.85558 6
-6 1 11 -12.006 10.0783 3
-6 1 11 -7.1987 9.44664 8
-6 1 11 4.50708 7.27236 9
-6 1 11 -8.3114 8.63648 11
-5 -1 11 19.2788 7.77913 11
-5 -1 11 23.3645 7.41636 9
-5 -1 11 16.1292 10.5291 3
5 -1 -11 17.0903 9.12287 12
5 -1 -11 17.3085 7.85730 13
5 -1 -11 -3.1855 9.96356 7
5 -1 -11 4.25886 9.01194 3
5 -1 -11 33.2575 7.47582 6
-5 -1 11 8.29885 7.77646 8
-5 1 11 27.7102 7.76706 9
5 1 -11 20.2857 7.69307 13
-5 1 11 21.1071 9.04206 11
5 1 -11 17.9546 9.63225 3
-5 1 11 15.8575 8.29208 8
5 1 -11 5.34485 6.88129 6
-5 1 11 22.0957 10.1801 3
4 -1 -11 27.5899 10.6904 7
4 -1 -11 13.8507 9.03737 3
-4 -1 11 18.3919 7.10314 9
-4 -1 11 20.2850 9.03621 3
4 -1 -11 12.9057 8.35361 13
-4 -1 11 19.4756 8.06380 8
-4 -1 11 4.29931 7.74265 11
4 -1 -11 21.8284 6.56799 6
4 -1 -11 24.3097 8.78793 12
-4 1 11 27.4267 9.87072 3
4 1 -11 11.9533 6.20820 6
-4 1 11 24.9390 8.97711 11
-4 1 11 16.3703 8.27025 8
4 1 -11 1.01153 8.82477 3
-4 1 11 8.30674 6.88817 9
4 1 -11 11.7831 8.10054 13
4 1 -11 19.2003 9.29811 7
3 -1 -11 43.6852 9.73969 3
3 -1 -11 37.3818 8.83944 13
-3 -1 11 46.0030 8.66936 11
-3 -1 11 47.3184 8.95207 8
3 -1 -11 35.3108 9.09868 12
3 -1 -11 67.7070 9.76181 6
3 1 -11 48.7664 10.2138 7
3 1 -11 42.8782 8.61740 13
-3 1 11 49.8023 8.99577 8
3 1 -11 61.5330 9.12611 6
-3 1 11 80.6802 12.1987 3
-3 1 11 45.4815 9.31944 11
3 1 -11 36.9237 9.45385 3
2 -1 -11 19.9281 8.84186 12
2 -1 -11 17.0972 8.62747 3
2 -1 -11 13.4387 6.82430 6
-2 -1 11 27.8641 8.39391 3
-2 -1 11 32.1962 8.03175 8
2 -1 -11 11.4478 8.29640 13
2 -1 -11 11.6665 9.84853 7
-2 1 11 29.3648 8.72450 3
-2 1 11 17.4401 6.30445 9
2 1 -11 5.72544 10.2770 7
-2 1 11 23.7310 8.56425 8
2 1 -11 23.0488 6.01677 6
2 1 -11 13.8037 7.69630 13
2 1 -11 24.5442 8.91154 12
2 1 -11 22.5776 8.43460 3
-2 1 11 28.4179 8.47183 11
1 -1 -11 -1.8504 5.87892 6
1 -1 -11 -3.8696 8.05707 13
-1 -1 11 -1.2223 5.99083 5
1 -1 -11 17.5910 8.25371 3
1 -1 -11 -4.5991 8.05519 12
1 -1 -11 -1.5180 10.6889 7
-1 -1 11 -6.1252 6.88234 8
1 1 -11 -6.9525 7.98160 12
1 1 -11 -2.9347 5.43189 6
-1 1 11 -1.8744 7.79516 3
1 1 -11 -8.5262 7.35591 13
-1 1 11 -1.9273 8.04221 8
1 1 -11 -2.1097 10.2449 7
1 1 -11 13.8051 7.88316 3
-1 1 11 0.10705 7.84736 11
-1 1 11 4.44372 5.89563 9
0 -1 -11 43.7470 9.15040 13
0 -1 11 53.1070 6.79657 5
0 -1 -11 50.3637 9.07326 3
0 -1 -11 48.7196 9.50176 12
0 -1 -11 52.3513 8.27660 6
0 -1 11 89.6816 12.1778 8
0 -1 -11 44.6462 11.5126 7
0 1 -11 61.2879 10.0090 12
0 1 11 50.1204 9.98845 3
0 1 11 49.8428 9.37202 8
0 1 -11 56.7817 8.00584 6
0 1 -11 42.5200 9.27286 13
0 1 11 59.0315 9.67603 9
0 1 11 59.9883 9.22086 11
1 -1 11 -0.3570 7.84403 8
-1 -1 -11 -1.2430 8.44372 12
-1 -1 -11 11.9987 8.10540 3
-1 -1 -11 -0.8898 9.35686 7
1 -1 11 6.94780 7.00662 3
-1 -1 -11 -11.195 5.63991 6
-1 -1 -11 -3.3555 9.01863 13
-1 1 -11 6.51957 8.64252 12
1 1 11 8.05418 8.38986 8
1 1 11 5.60233 8.21256 11
-1 1 -11 -0.7468 8.31042 13
-1 1 -11 5.32871 5.90066 6
1 1 11 -2.6922 7.09546 3
-2 -1 -11 41.2758 10.3818 13
-2 -1 -11 35.4680 7.11173 6
2 -1 11 41.5535 9.56780 8
2 -1 11 40.2475 7.97837 1
-2 -1 -11 12.7180 8.83158 3
-2 -1 -11 38.6530 9.87882 12
2 -1 11 35.4438 7.33617 3
2 1 11 29.3335 8.13190 3
-2 1 -11 17.9751 7.43285 6
2 1 11 30.7027 9.68182 11
-2 1 -11 31.5820 10.1992 13
2 1 11 40.1580 9.69433 8
-2 1 -11 53.2727 11.0017 12
-5 -2 11 3.91817 9.03200 8
5 -2 -11 -15.732 9.48080 3
5 -2 -11 9.92144 7.30441 6
-5 -2 11 11.9432 10.5669 3
5 -2 -11 11.5415 8.49882 13
-5 -2 11 19.1224 8.55497 11
5 -2 -11 -14.247 9.99411 7
5 -2 -11 0.75734 8.74562 12
-5 2 11 1.62697 10.8233 3
5 2 -11 6.77523 8.47019 13
5 2 -11 -4.1567 6.14793 6
-5 2 11 4.26968 9.04917 8
-5 2 11 6.69487 7.84678 9
-5 2 11 17.2736 9.18318 11
-4 -2 11 21.5662 7.42050 11
-4 -2 11 19.1809 7.58047 8
4 -2 -11 3.11176 8.79731 13
4 -2 -11 23.7247 10.7862 7
-4 -2 11 11.9318 9.53209 3
4 -2 -11 12.9936 9.18779 3
4 -2 -11 17.8789 9.40678 12
4 -2 -11 8.80710 7.38875 6
-4 2 11 12.0429 7.21317 9
-4 2 11 30.4333 9.86597 3
4 2 -11 20.5738 9.07324 7
-4 2 11 7.69300 8.77889 8
-4 2 11 8.13003 8.78691 11
4 2 -11 2.19975 8.17610 13
4 2 -11 13.3547 6.27807 6
-3 -2 11 36.6387 8.13149 8
-3 -2 11 29.4425 7.12163 5
-3 -2 11 51.1067 9.69324 3
3 -2 -11 33.9066 9.09180 3
3 -2 -11 28.0948 8.99680 12
3 -2 -11 24.6634 9.00343 13
3 -2 -11 35.1655 10.6824 7
3 -2 -11 38.0117 7.76707 6
-3 2 11 33.1597 9.42916 11
3 2 -11 37.7942 7.27244 6
-3 2 11 17.2348 7.17361 9
3 2 -11 28.5210 9.85481 7
3 2 -11 24.3034 8.57539 13
-3 2 11 28.5986 9.11053 8
-3 2 11 42.9608 10.1509 3
-2 -2 11 26.4017 7.97150 8
2 -2 -11 44.3049 10.3156 7
2 -2 -11 10.6271 7.36625 6
-2 -2 11 26.0631 8.61127 3
2 -2 -11 24.0524 9.01615 12
2 -2 -11 32.6719 8.72440 3
2 -2 -11 8.93645 8.56833 13
2 2 -11 9.62662 7.60325 13
2 2 -11 20.3753 10.7311 7
-2 2 11 46.4026 9.51464 8
2 2 -11 27.4443 5.79417 6
-2 2 11 29.5635 9.10504 3
-2 2 11 21.5784 8.45586 11
-1 -2 11 6.39740 8.71775 3
1 -2 -11 -2.5249 8.48301 13
-1 -2 11 12.4079 6.95821 11
1 -2 -11 -3.5887 5.98344 6
-1 -2 11 1.23762 5.74686 5
1 -2 -11 17.7147 8.40654 3
1 -2 -11 -2.7219 10.2260 7
-1 -2 11 -0.4893 7.39737 8
1 -2 -11 -4.8548 9.38077 12
1 2 -11 15.2612 5.77661 6
-1 2 11 -1.1784 6.08346 9
1 2 -11 12.0815 10.3162 7
1 2 -11 -8.8191 7.25050 13
-1 2 11 4.28765 7.83288 3
-1 2 11 -9.2996 8.29411 8
-1 2 11 -1.1223 7.98032 11
0 -2 -11 -2.2532 10.3959 7
0 -2 -11 -3.2747 8.43633 12
0 -2 -11 4.93561 8.77051 13
0 -2 -11 -3.5158 6.55120 6
0 -2 11 4.85862 7.01062 11
0 -2 11 1.60849 7.71605 8
0 -2 -11 -4.2564 8.33315 3
0 -2 11 -2.3820 5.86030 5
0 2 -11 8.47161 8.90145 12
0 2 11 1.21508 8.12378 11
0 2 -11 6.44872 8.00319 13
0 2 -11 6.48418 5.53874 6
0 2 11 0.24376 9.40476 3
0 2 11 -1.5976 8.27452 8
0 2 11 -0.6868 6.14376 9
-1 -2 -11 26.4948 12.3927 7
-1 -2 -11 63.5945 10.3082 6
1 -2 11 85.0260 10.8083 1
1 -2 11 60.1134 8.48321 5
1 -2 11 94.8287 13.3224 8
1 -2 11 37.8680 8.63059 11
-1 -2 -11 63.3793 10.9781 12
-1 -2 -11 55.7342 10.7774 13
1 2 11 42.4962 9.01559 3
1 2 11 65.5704 10.2486 11
-1 2 -11 61.0798 10.5526 12
1 2 11 55.5602 8.55983 2
-1 2 -11 49.5121 9.80637 13
-1 2 -11 49.1062 7.79018 6
1 2 11 61.6013 10.5987 8
-2 -2 -11 8.83683 10.1739 7
2 -2 11 -2.6536 8.12130 1
2 -2 11 -10.428 8.45958 8
-2 -2 -11 -0.0406 9.15055 12
-2 -2 -11 -10.266 9.52147 13
2 -2 11 -17.724 7.60854 11
-2 -2 -11 0.29825 6.33589 6
-2 2 -11 -14.915 9.33242 13
2 2 11 -3.0263 6.93823 2
-2 2 -11 7.77960 6.38614 6
-2 2 -11 9.99576 9.98737 12
2 2 11 -8.2941 8.52469 8
2 2 11 -12.020 7.53528 3
2 2 11 -8.6840 8.66880 11
4 -3 -11 38.2950 8.88225 6
4 -3 -11 30.1357 9.45035 13
4 -3 -11 32.3588 10.0030 12
-4 -3 11 56.2460 10.7601 3
4 -3 -11 30.0574 10.9440 3
-4 -3 11 40.6014 8.52035 5
-4 -3 11 35.7569 9.10857 8
4 -3 -11 19.2528 10.8603 7
4 3 -11 41.1821 7.77124 6
-4 3 11 37.5362 9.44651 11
-4 3 11 35.8519 8.12698 9
4 3 -11 19.6097 8.96247 13
-4 3 11 42.4113 9.80182 8
-4 3 11 51.8258 11.5504 3
3 -3 -11 41.1922 10.0299 12
3 -3 -11 47.6499 10.6128 3
-3 -3 11 45.8853 9.13987 8
-3 -3 11 37.0853 7.62492 5
3 -3 -11 42.8544 8.28994 6
3 -3 -11 53.1487 12.2999 7
3 -3 -11 32.6042 9.75921 13
-3 -3 11 18.7347 8.04387 11
3 3 -11 39.8998 7.57880 6
3 3 -11 37.3256 9.62068 13
-3 3 11 41.4609 9.45593 11
-3 3 11 58.8619 11.6797 3
-3 3 11 35.5021 10.2667 8
-3 3 11 25.0016 8.42680 9
2 -3 -11 13.6370 7.69635 6
-2 -3 11 12.5960 7.78751 8
2 -3 -11 11.6308 9.28399 12
2 -3 -11 5.18072 8.89755 13
2 -3 -11 36.3944 9.21588 3
2 -3 -11 24.7530 10.7075 7
-2 -3 11 15.0535 6.94137 11
-2 -3 11 12.0909 7.29203 5
-2 3 11 6.81080 10.4770 3
-2 3 11 6.69441 7.62316 9
-2 3 11 4.56063 9.00158 11
2 3 -11 9.63300 6.14973 6
2 3 -11 1.21401 11.0370 7
-2 3 11 34.2963 9.49367 8
2 3 -11 -0.2868 8.19166 13
1 -3 -11 -2.9236 9.81472 7
1 -3 -11 -12.289 9.22499 12
1 -3 -11 3.11906 8.51581 3
-1 -3 11 -3.3035 6.98347 11
-1 -3 11 -12.752 7.14686 8
1 -3 -11 7.49397 6.57128 6
1 -3 -11 -7.2070 8.58174 13
1 3 -11 -9.2125 7.92138 13
-1 3 11 -2.4193 8.06887 11
-1 3 11 -10.933 8.96462 8
1 3 -11 0.53458 5.48806 6
-1 3 11 -1.5937 6.59262 2
-1 3 11 -2.1661 9.58934 3
0 -3 11 3.93843 7.53647 11
0 -3 -11 7.64521 7.20068 6
0 -3 -11 3.69582 9.43990 13
0 -3 11 11.5984 6.25363 5
0 -3 11 9.03861 7.77012 8
0 -3 -11 18.6394 9.05810 3
0 -3 -11 -1.7104 9.45476 12
0 -3 -11 4.87038 10.6666 7
0 3 11 1.08716 6.52199 9
0 3 11 9.60896 9.52234 8
0 3 -11 25.1533 6.10858 6
0 3 -11 -0.0297 8.34210 13
0 3 11 13.4220 6.72349 2
0 3 11 -5.8383 10.3971 3
0 3 11 19.5394 9.05390 11
1 -3 11 1.20932 8.23207 8
1 -3 11 15.2067 8.33844 1
-1 -3 -11 12.6261 6.74107 6
1 3 11 18.1095 7.11660 2
1 3 11 -1.1353 9.14879 11
-1 3 -11 13.7495 6.09103 6
1 3 11 -5.8395 9.24071 8
0 0 0 0.00 0.00 0
;
#END Tags that were not found in dictionaries
loop_
_symmetry_equiv_pos_as_xyz
'x, y, z'
'-x, y+1/2, -z'
'-x, -y, -z'
'x, -y-1/2, z'
loop_
_atom_site_label
_atom_site_type_symbol
_atom_site_fract_x
_atom_site_fract_y
_atom_site_fract_z
_atom_site_U_iso_or_equiv
_atom_site_adp_type
_atom_site_occupancy
_atom_site_symmetry_multiplicity
_atom_site_calc_flag
_atom_site_refinement_flags
_atom_site_disorder_group
Cr1 Cr 0.28935(14) 0.2500 0.29276(14) 0.0370(5) Uani 1 2 d S 1
C1 C 0.4424(9) 0.2500 0.4455(10) 0.049(2) Uani 1 2 d S 1
O1 O 0.5269(9) 0.2500 0.5290(9) 0.091(3) Uani 1 2 d S 1
C2 C 0.2046(7) 0.4261(9) 0.3884(7) 0.0495(15) Uani 1 1 d . 1
O2 O 0.1625(6) 0.5345(8) 0.4540(7) 0.0800(18) Uani 1 1 d . 1
C3 C 0.3841(7) 0.4298(9) 0.2069(6) 0.0492(15) Uani 1 1 d . 1
O3 O 0.4458(7) 0.5359(8) 0.1619(7) 0.0846(19) Uani 1 1 d . 1
C4 C 0.1217(9) 0.2500 0.1287(9) 0.0425(19) Uani 1 2 d S 1
O4 O -0.0169(7) 0.2500 0.1321(7) 0.0545(17) Uani 1 2 d S 1
S1 S -0.0085(4) 0.2500 -0.1454(4) 0.0434(14) Uani 0.526(8) 2 d SP 1
C5 C 0.1360(8) 0.2500 -0.0163(8) 0.0326(16) Uani 1 2 d S 1
C6 C 0.2616(10) 0.2500 -0.0784(9) 0.049(2) Uani 1 2 d S 1
H6 H 0.3528 0.2500 -0.0290 0.059 Uiso 1 2 calc SR 1
C7 C 0.2268(15) 0.2500 -0.2277(11) 0.068(3) Uani 1 2 d S 1
H7 H 0.2945 0.2500 -0.2872 0.082 Uiso 1 2 calc SR 1
C8 C 0.0973(19) 0.2500 -0.2708(16) 0.046(4) Uani 0.526(8) 2 d SP 1
H8 H 0.0612 0.2500 -0.3658 0.055 Uiso 1 2 calc SR 1
C9 C -0.0790(10) 0.2500 0.2561(11) 0.052(2) Uani 1 2 d S 1
H9A H -0.0498 0.3529 0.3117 0.063 Uiso 0.50 1 calc PR 1
H9B H -0.0498 0.1471 0.3117 0.063 Uiso 0.50 1 calc PR 1
C10 C -0.2358(11) 0.2500 0.2136(15) 0.068(3) Uani 1 2 d S 1
H10A H -0.2809 0.2500 0.2958 0.102 Uiso 1 2 calc SR 1
H10B H -0.2635 0.1476 0.1589 0.102 Uiso 0.50 1 calc PR 1
H10C H -0.2635 0.3524 0.1589 0.102 Uiso 0.50 1 calc PR 1
S1A S -0.1462(7) 0.2500 -0.0095(8) 0.078(2) Uani 0.474(8) 2 d SP 2
C8A C -0.275(3) 0.2500 0.090(3) 0.084(9) Uani 0.474(8) 2 d SP 2
loop_
_atom_site_aniso_label
_atom_site_aniso_U_11
_atom_site_aniso_U_22
_atom_site_aniso_U_33
_atom_site_aniso_U_23
_atom_site_aniso_U_13
_atom_site_aniso_U_12
Cr1 0.0383(8) 0.0348(7) 0.0378(8) 0.000 0.0057(5) 0.000
C1 0.036(4) 0.061(6) 0.045(5) 0.000 -0.005(4) 0.000
O1 0.067(5) 0.129(9) 0.069(5) 0.000 -0.020(5) 0.000
C2 0.047(3) 0.046(3) 0.057(4) -0.003(3) 0.011(3) -0.003(3)
O2 0.073(4) 0.065(4) 0.107(5) -0.028(3) 0.031(3) 0.000(3)
C3 0.060(4) 0.046(3) 0.043(3) -0.004(3) 0.011(3) -0.012(3)
O3 0.112(5) 0.069(4) 0.080(4) 0.001(3) 0.034(4) -0.032(4)
C4 0.045(4) 0.039(4) 0.045(5) 0.000 0.011(4) 0.000
O4 0.045(3) 0.061(4) 0.058(4) 0.000 0.006(3) 0.000
S1 0.039(2) 0.062(3) 0.028(2) 0.000 0.0031(15) 0.000
C5 0.038(4) 0.030(4) 0.030(4) 0.000 0.004(3) 0.000
C6 0.049(5) 0.065(6) 0.036(4) 0.000 0.012(4) 0.000
C7 0.099(9) 0.068(7) 0.047(6) 0.000 0.037(6) 0.000
C8 0.053(10) 0.063(11) 0.021(7) 0.000 0.005(6) 0.000
C9 0.042(5) 0.061(6) 0.055(5) 0.000 0.012(4) 0.000
C10 0.045(5) 0.066(7) 0.097(9) 0.000 0.027(6) 0.000
S1A 0.059(4) 0.087(5) 0.084(5) 0.000 -0.007(3) 0.000
C8A 0.087(19) 0.069(17) 0.082(19) 0.000 -0.028(15) 0.000
loop_
_atom_type_symbol
_atom_type_description
_atom_type_scat_dispersion_real
_atom_type_scat_dispersion_imag
_atom_type_scat_source
C C 0.0033 0.0016 'International Tables Vol C Tables 4.2.6.8 and 6.1.1.4'
H H 0.0000 0.0000 'International Tables Vol C Tables 4.2.6.8 and 6.1.1.4'
O O 0.0106 0.0060 'International Tables Vol C Tables 4.2.6.8 and 6.1.1.4'
S S 0.1246 0.1234 'International Tables Vol C Tables 4.2.6.8 and 6.1.1.4'
Cr Cr 0.3209 0.6236 'International Tables Vol C Tables 4.2.6.8 and 6.1.1.4'
loop_
_geom_angle_atom_site_label_1
_geom_angle_atom_site_label_2
_geom_angle_atom_site_label_3
_geom_angle
_geom_angle_site_symmetry_1
_geom_angle_site_symmetry_3
C2 Cr1 C2 91.2(4) 4_565 .
C2 Cr1 C3 176.2(3) 4_565 .
C2 Cr1 C3 88.1(3) . .
C2 Cr1 C3 88.1(3) 4_565 4_565
C2 Cr1 C3 176.2(3) . 4_565
C3 Cr1 C3 92.4(4) . 4_565
C2 Cr1 C1 87.7(3) 4_565 .
C2 Cr1 C1 87.7(3) . .
C3 Cr1 C1 88.6(3) . .
C3 Cr1 C1 88.6(3) 4_565 .
C2 Cr1 C4 91.9(3) 4_565 .
C2 Cr1 C4 91.9(3) . .
C3 Cr1 C4 91.9(3) . .
C3 Cr1 C4 91.9(3) 4_565 .
C1 Cr1 C4 179.3(4) . .
O1 C1 Cr1 179.7(10) . .
O2 C2 Cr1 174.7(6) . .
O3 C3 Cr1 176.4(7) . .
O4 C4 C5 105.6(7) . .
O4 C4 Cr1 129.7(6) . .
C5 C4 Cr1 124.7(6) . .
C4 O4 C9 124.7(8) . .
C8 S1 C5 90.8(7) . .
C4 C5 C6 128.8(8) . .
C4 C5 S1 121.7(6) . .
C6 C5 S1 109.5(6) . .
C7 C6 C5 110.0(9) . .
C7 C6 H6 125.0 . .
C5 C6 H6 125.0 . .
C8 C7 C6 113.8(11) . .
C8 C7 H7 123.1 . .
C6 C7 H7 123.1 . .
C7 C8 S1 115.8(12) . .
C7 C8 H8 122.1 . .
S1 C8 H8 122.1 . .
O4 C9 C10 107.6(9) . .
O4 C9 H9A 110.2 . .
C10 C9 H9A 110.2 . .
O4 C9 H9B 110.2 . .
C10 C9 H9B 110.2 . .
H9A C9 H9B 108.5 . .
C9 C10 H10A 109.5 . .
C9 C10 H10B 109.5 . .
H10A C10 H10B 109.5 . .
C9 C10 H10C 109.5 . .
H10A C10 H10C 109.5 . .
H10B C10 H10C 109.5 . .
loop_
_geom_bond_atom_site_label_1
_geom_bond_atom_site_label_2
_geom_bond_distance
_geom_bond_site_symmetry_2
Cr1 C2 1.886(7) 4_565
Cr1 C2 1.886(7) .
Cr1 C3 1.907(7) .
Cr1 C3 1.907(7) 4_565
Cr1 C1 1.915(9) .
Cr1 C4 2.077(9) .
C1 O1 1.052(11) .
C2 O2 1.153(8) .
C3 O3 1.129(8) .
C4 O4 1.333(11) .
C4 C5 1.428(11) .
O4 C9 1.415(11) .
S1 C8 1.693(16) .
S1 C5 1.716(8) .
C5 C6 1.423(12) .
C6 C7 1.429(14) .
C6 H6 0.9300 .
C7 C8 1.25(2) .
C7 H7 0.9300 .
C8 H8 0.9300 .
C9 C10 1.495(14) .
C9 H9A 0.9700 .
C9 H9B 0.9700 .
C10 H10A 0.9600 .
C10 H10B 0.9600 .
C10 H10C 0.9600 .
S1A C8A 1.68(4) .
loop_
_geom_torsion_atom_site_label_1
_geom_torsion_atom_site_label_2
_geom_torsion_atom_site_label_3
_geom_torsion_atom_site_label_4
_geom_torsion
_geom_torsion_site_symmetry_1
C2 Cr1 C4 O4 45.6(2) 4_565
C2 Cr1 C4 O4 -45.6(2) .
C3 Cr1 C4 O4 -133.8(2) .
C3 Cr1 C4 O4 133.8(2) 4_565
C2 Cr1 C4 C5 -134.4(2) 4_565
C2 Cr1 C4 C5 134.4(2) .
C3 Cr1 C4 C5 46.2(2) .
C3 Cr1 C4 C5 -46.2(2) 4_565
C5 C4 O4 C9 180.0 .
O4 C4 C5 C6 180.0 .
Cr1 C4 C5 C6 0.0 .
O4 C4 C5 S1 0.0 .
Cr1 C4 C5 S1 180.0 .
C8 S1 C5 C4 180.0 .
C8 S1 C5 C6 0.0 .
C4 C5 C6 C7 180.0 .
S1 C5 C6 C7 0.0 .
C5 C6 C7 C8 0.0 .
C6 C7 C8 S1 0.0 .
C5 S1 C8 C7 0.00 .
C4 O4 C9 C10 180.0 .
