#------------------------------------------------------------------------------
#$Date: 2016-03-25 15:52:06 +0200 (Fri, 25 Mar 2016) $
#$Revision: 179940 $
#$URL: svn://www.crystallography.net/cod/cif/7/02/35/7023509.cif $
#------------------------------------------------------------------------------
#
# This file is available in the Crystallography Open Database (COD),
# http://www.crystallography.net/
#
# All data on this site have been placed in the public domain by the
# contributors.
#
data_7023509
loop_
_publ_author_name
'Bozic-Weber, Biljana'
'Brauchli, Sven Y.'
'Constable, Edwin C.'
'F\"urer, Sebastian O'
'Housecroft, Catherine E.'
'Malzner, Frederik J.'
'Wright, Iain A.'
'Zampese, Jennifer A.'
_publ_section_title
;
 Improving the photoresponse of copper(I) dyes in dye-sensitized solar
 cells by tuning ancillary and anchoring ligand modules.
;
_journal_issue                   34
_journal_name_full
'Dalton transactions (Cambridge, England : 2003)'
_journal_page_first              12293
_journal_page_last               12308
_journal_paper_doi               10.1039/c3dt51416a
_journal_volume                  42
_journal_year                    2013
_chemical_formula_moiety         'C32 H38 N2 O6 P2'
_chemical_formula_sum            'C32 H38 N2 O6 P2'
_chemical_formula_weight         608.58
_chemical_name_systematic
; 
 ? 
;
_space_group_crystal_system      triclinic
_space_group_IT_number           2
_space_group_name_Hall           '-P 1'
_space_group_name_H-M_alt        'P -1'
_symmetry_space_group_name_Hall  '-P 1'
_symmetry_space_group_name_H-M   'P -1'
_atom_sites_solution_hydrogens   geom
_audit_creation_method           SHELXL-2013
_cell_angle_alpha                75.197(3)
_cell_angle_beta                 88.156(3)
_cell_angle_gamma                64.398(3)
_cell_formula_units_Z            1
_cell_length_a                   7.7810(7)
_cell_length_b                   7.9273(7)
_cell_length_c                   14.5543(13)
_cell_measurement_reflns_used    8988
_cell_measurement_temperature    123(2)
_cell_measurement_theta_max      67.82
_cell_measurement_theta_min      6.32
_cell_volume                     779.57(12)
_computing_cell_refinement       'Bruker SAINT'
_computing_data_collection       'Bruker APEX2'
_computing_data_reduction        'Bruker SAINT'
_computing_molecular_graphics    'Bruker SHELXTL'
_computing_publication_material  'Bruker SHELXTL'
_computing_structure_refinement  'SHELXL-2013 (Sheldrick, 2013)'
_computing_structure_solution    'SHELXS-97 (Sheldrick, 2008)'
_diffrn_ambient_temperature      123(2)
_diffrn_measured_fraction_theta_full 0.972
_diffrn_measured_fraction_theta_max 0.988
_diffrn_measurement_device_type  'Bruker APEX-II CCD'
_diffrn_measurement_method       '\f and \w scans'
_diffrn_radiation_type           CuK\a
_diffrn_radiation_wavelength     1.54178
_diffrn_reflns_av_R_equivalents  0.0401
_diffrn_reflns_av_unetI/netI     0.0365
_diffrn_reflns_Laue_measured_fraction_full 0.972
_diffrn_reflns_Laue_measured_fraction_max 0.988
_diffrn_reflns_limit_h_max       9
_diffrn_reflns_limit_h_min       -9
_diffrn_reflns_limit_k_max       9
_diffrn_reflns_limit_k_min       -8
_diffrn_reflns_limit_l_max       17
_diffrn_reflns_limit_l_min       -17
_diffrn_reflns_number            10179
_diffrn_reflns_point_group_measured_fraction_full 0.972
_diffrn_reflns_point_group_measured_fraction_max 0.988
_diffrn_reflns_theta_full        67.679
_diffrn_reflns_theta_max         66.965
_diffrn_reflns_theta_min         6.316
_exptl_absorpt_coefficient_mu    1.646
_exptl_absorpt_correction_T_max  0.952
_exptl_absorpt_correction_T_min  0.641
_exptl_absorpt_correction_type   multi-scan
_exptl_absorpt_process_details   sadabs
_exptl_crystal_colour            colourless
_exptl_crystal_density_diffrn    1.296
_exptl_crystal_description       plate
_exptl_crystal_F_000             322
_exptl_crystal_size_max          0.450
_exptl_crystal_size_mid          0.250
_exptl_crystal_size_min          0.030
_refine_diff_density_max         0.421
_refine_diff_density_min         -0.360
_refine_diff_density_rms         0.049
_refine_ls_extinction_method     none
_refine_ls_goodness_of_fit_ref   1.058
_refine_ls_hydrogen_treatment    constr
_refine_ls_matrix_type           full
_refine_ls_number_parameters     233
_refine_ls_number_reflns         2739
_refine_ls_number_restraints     18
_refine_ls_restrained_S_all      1.058
_refine_ls_R_factor_all          0.0395
_refine_ls_R_factor_gt           0.0391
_refine_ls_shift/su_max          0.011
_refine_ls_shift/su_mean         0.000
_refine_ls_structure_factor_coef Fsqd
_refine_ls_weighting_details
; 
 w=1/[\s^2^(Fo^2^)+(0.0562P)^2^+0.3378P] 
 where P=(Fo^2^+2Fc^2^)/3 
;
_refine_ls_weighting_scheme      calc
_refine_ls_wR_factor_gt          0.1074
_refine_ls_wR_factor_ref         0.1078
_reflns_Friedel_coverage         0.000
_reflns_number_gt                2681
_reflns_number_total             2739
_reflns_threshold_expression     'I > 2\s(I)'
_cod_data_source_file            c3dt51416a.txt
_cod_data_source_block           iw118
_cod_database_code               7023509
#BEGIN Tags that were not found in dictionaries:
_shelx_space_group_comment
; 
The symmetry employed for this shelxl refinement is uniquely defined 
by the following loop, which should always be used as a source of 
symmetry information in preference to the above space-group names. 
They are only intended as comments. 
;
_shelx_estimated_absorpt_t_min   0.525
_shelx_estimated_absorpt_t_max   0.952
_shelxl_version_number           2013-2
_shelx_res_file
; 
TITL 3t in P-1 
CELL 1.54178   7.7810   7.9273  14.5543  75.197  88.156  64.398 
ZERR    1.00   0.0007   0.0007   0.0013   0.003   0.003   0.003 
LATT  1 
SFAC C H N O P 
UNIT 32 38 2 6 2 
TEMP -150 
SIZE 0.03 0.25 0.45 
omit -2 134 
omit 0 0 1 
L.S. 8 
BOND $H 
FMAP 2 
PLAN 20 
acta 
isor 0.02 c14' 
simu 0.0008 p1 o3' 
simu 0.004 o3 c15 
damp 1000 
WGHT    0.056200    0.337800 
FVAR       0.48945   0.51215   0.74548 
N1    3    0.475985    0.561232    0.612288    11.00000    0.02999    0.01978 = 
         0.02779   -0.00772    0.00709   -0.00804 
C1    1    0.438195    0.683075    0.751288    11.00000    0.05419    0.02356 = 
         0.02904   -0.00918    0.00254   -0.00353 
AFIX 137 
H1A   2    0.434767    0.560773    0.785075    11.00000   -1.50000 
H1B   2    0.339461    0.790057    0.772514    11.00000   -1.50000 
H1C   2    0.564239    0.675332    0.765101    11.00000   -1.50000 
AFIX   0 
C2    1    0.401551    0.718468    0.645674    11.00000    0.03205    0.02178 = 
         0.02834   -0.00897    0.00710   -0.00814 
C3    1    0.300820    0.905529    0.586647    11.00000    0.03046    0.01903 = 
         0.02968   -0.00993    0.00748   -0.00721 
AFIX  43 
H3A   2    0.248782    1.013122    0.613306    11.00000   -1.20000 
AFIX   0 
C4    1    0.276422    0.934790    0.488634    11.00000    0.02392    0.01837 = 
         0.02936   -0.00687    0.00693   -0.00885 
C5    1    0.355594    0.770727    0.453992    11.00000    0.02815    0.02008 = 
         0.02693   -0.00805    0.00806   -0.01013 
AFIX  43 
H5A   2    0.342358    0.783329    0.387600    11.00000   -1.20000 
AFIX   0 
C6    1    0.454064    0.588582    0.517574    11.00000    0.02477    0.01973 = 
         0.02906   -0.00848    0.00816   -0.00951 
C7    1    0.177675    1.132116    0.422029    11.00000    0.02240    0.01962 = 
         0.02702   -0.00710    0.00798   -0.00743 
C8    1    0.086869    1.160359    0.334004    11.00000    0.03652    0.02176 = 
         0.03197   -0.00935    0.00439   -0.01406 
AFIX  43 
H8A   2    0.079157    1.054194    0.318645    11.00000   -1.20000 
AFIX   0 
C9    1    0.008467    1.341755    0.269406    11.00000    0.04037    0.02752 = 
         0.02739   -0.00669   -0.00045   -0.01505 
AFIX  43 
H9A   2   -0.052837    1.358996    0.210044    11.00000   -1.20000 
AFIX   0 
C10   1    0.018270    1.499984    0.290335    11.00000    0.02712    0.01953 = 
         0.02695   -0.00562    0.00687   -0.00792 
C11   1    0.101391    1.474400    0.379054    11.00000    0.02920    0.01827 = 
         0.03093   -0.00998    0.00640   -0.00849 
AFIX  43 
H11A  2    0.104852    1.581772    0.395173    11.00000   -1.20000 
AFIX   0 
C12   1    0.179383    1.292469    0.444204    11.00000    0.02740    0.02166 = 
         0.02727   -0.00838    0.00300   -0.00739 
AFIX  43 
H12A  2    0.234753    1.277033    0.504814    11.00000   -1.20000 
AFIX   0 
P1    5   -0.062684    1.730410    0.203839    11.00000    0.02949    0.01940 = 
         0.02652   -0.00430    0.00503   -0.00779 
O1    4   -0.059183    1.883135    0.241685    11.00000    0.04200    0.02057 = 
         0.03891   -0.00557    0.00259   -0.01115 
O2    4   -0.264184    1.776729    0.155820    11.00000    0.03062    0.02810 = 
         0.03164   -0.00680    0.00451   -0.00749 
C13   1   -0.431812    1.835413    0.208814    11.00000    0.03338    0.04185 = 
         0.04824   -0.01976    0.01392   -0.01280 
part 1 
AFIX  23 
H13A  2   -0.435769    1.935192    0.239259    31.00000   -1.20000 
H13B  2   -0.425640    1.722255    0.259635    31.00000   -1.20000 
AFIX  23 
part 2 
H13C  2   -0.411660    1.880595    0.263172   -31.00000   -1.20000 
H13D  2   -0.471550    1.730013    0.232000   -31.00000   -1.20000 
AFIX   0 
part 0 
PART   1 
C14   1   -0.603729    1.913959    0.143778    31.00000    0.03210    0.06858 = 
         0.05948   -0.02176    0.00576   -0.01367 
AFIX 137 
H14A  2   -0.616461    2.033973    0.097788    31.00000   -1.50000 
H14B  2   -0.716218    1.941735    0.180297    31.00000   -1.50000 
H14C  2   -0.593851    1.818866    0.109615    31.00000   -1.50000 
AFIX   0 
PART   2 
C14'  1   -0.591176    2.021691    0.120391   -31.00000    0.04849    0.08969 = 
         0.07299   -0.04611   -0.01149    0.02191 
AFIX 137 
H14D  2   -0.546292    2.122195    0.099002   -31.00000   -1.50000 
H14E  2   -0.716652    2.077143    0.144893   -31.00000   -1.50000 
H14F  2   -0.601926    1.972500    0.066599   -31.00000   -1.50000 
AFIX   0 
PART   1 
O3    4    0.064450    1.714708    0.119646    21.00000    0.04142    0.02656 = 
         0.03149   -0.01185    0.01134   -0.01767 
C15   1    0.080493    1.587316    0.059553    21.00000    0.04566    0.03972 = 
         0.03258   -0.01489    0.00928   -0.01669 
AFIX  23 
H15A  2   -0.045358    1.629458    0.025498    21.00000   -1.20000 
H15D  2    0.123728    1.452108    0.099234    21.00000   -1.20000 
AFIX   0 
C16   1    0.223390    1.598613   -0.010883    21.00000    0.05146    0.06516 = 
         0.03958   -0.02550    0.01623   -0.01786 
AFIX 137 
H16A  2    0.177446    1.732185   -0.051013    21.00000   -1.50000 
H16B  2    0.239250    1.511688   -0.051090    21.00000   -1.50000 
H16C  2    0.346604    1.559328    0.023547    21.00000   -1.50000 
AFIX   0 
PART   2 
O3'   4    0.068854    1.666627    0.118305   -21.00000    0.03018    0.01997 = 
         0.02649   -0.00464    0.00585   -0.00716 
C15'  1    0.047698    1.810374    0.030475   -21.00000    0.04735    0.03701 = 
         0.02888    0.00581    0.00677   -0.00713 
AFIX  23 
H15B  2    0.051406    1.925026    0.044000   -21.00000   -1.20000 
H15C  2   -0.076727    1.852969   -0.005121   -21.00000   -1.20000 
AFIX   0 
C16'  1    0.206804    1.723099   -0.027135   -21.00000    0.10291    0.04118 = 
         0.04768   -0.01242    0.04198   -0.02493 
AFIX 137 
H16D  2    0.328037    1.697961    0.004520   -21.00000   -1.50000 
H16E  2    0.185350    1.812965   -0.090643   -21.00000   -1.50000 
H16F  2    0.212060    1.600757   -0.033313   -21.00000   -1.50000 
PART   0 
  
AFIX   0 
HKLF 4 
  
REM  3t in P-1 
REM R1 =  0.0391 for    2681 Fo > 4sig(Fo)  and  0.0395 for all    2739 data 
REM    233 parameters refined using     18 restraints 
  
END 
  
WGHT      0.0562      0.3378 
  
REM Highest difference peak  0.421,  deepest hole -0.360,  1-sigma level  0.049 
Q1    1  -0.0166  1.6060  0.2488  11.00000  0.05    0.42 
Q2    1  -0.1135  1.8293  0.2498  11.00000  0.05    0.28 
Q3    1   0.5000  0.5000  0.5000  10.50000  0.05    0.27 
Q4    1  -0.1604  1.7038  0.1878  11.00000  0.05    0.27 
Q5    1  -0.0398  1.8687  0.1943  11.00000  0.05    0.26 
Q6    1   0.2325  1.0329  0.4535  11.00000  0.05    0.25 
Q7    1   0.2950  0.9262  0.5301  11.00000  0.05    0.23 
Q8    1   0.0886  1.4877  0.3271  11.00000  0.05    0.23 
Q9    1  -0.0679  1.7785  0.2622  11.00000  0.05    0.23 
Q10   1   0.4228  0.7176  0.6949  11.00000  0.05    0.22 
Q11   1   0.3523  0.8580  0.4697  11.00000  0.05    0.22 
Q12   1   0.2223  1.2041  0.4233  11.00000  0.05    0.22 
Q13   1   0.2211  1.7441  0.1028  11.00000  0.05    0.21 
Q14   1   0.0255  1.7680  0.2691  11.00000  0.05    0.21 
Q15   1  -0.0387  1.4441  0.2939  11.00000  0.05    0.20 
Q16   1   0.3447  1.7083  0.0342  11.00000  0.05    0.20 
Q17   1  -0.7262  2.0013  0.1469  11.00000  0.05    0.20 
Q18   1   0.3726  0.6714  0.4867  11.00000  0.05    0.20 
Q19   1   0.1806  1.3824  0.3995  11.00000  0.05    0.19 
Q20   1   0.4383  0.6737  0.4823  11.00000  0.05    0.18 
;
_shelx_res_checksum              57417
_shelx_hkl_file
; 
   1   0   0  339.20   17.87 
  -2   0   0  595.59   32.15 
   2   0   0  625.17   32.17 
  -3   0   0   77.62    4.08 
  -3   0   0   76.18    4.02 
   3   0   0   78.47    4.02 
   3   0   0   71.12    4.23 
  -4   0   0   14.85    0.78 
   4   0   0   13.18    0.75 
   4   0   0   13.98    0.78 
  -5   0   0    5.30    0.32 
   5   0   0    5.02    0.30 
   5   0   0    4.87    0.33 
  -6   0   0   71.03    3.84 
  -6   0   0   74.55    5.09 
  -6   0   0   77.88    4.03 
  -6   0   0   75.24    4.53 
   6   0   0   74.36    3.62 
   6   0   0   73.04    3.91 
  -7   0   0    7.31    0.39 
  -7   0   0    6.57    0.47 
   7   0   0    7.24    0.41 
   7   0   0    7.27    0.48 
   7   0   0    7.21    0.37 
  -8   0   0   32.02    1.50 
  -8   0   0   26.77    1.77 
   8   0   0   28.31    1.82 
   8   0   0   31.37    1.42 
   8   0   0   26.33    2.13 
   7  -1   0    9.05    0.46 
  -7   1   0    9.19    0.48 
  -7   1   0    8.35    0.65 
  -7   1   0    9.24    0.58 
   6  -1   0    1.04    0.10 
   6  -1   0    1.19    0.13 
  -6   1   0    1.09    0.17 
  -6   1   0    1.16    0.12 
  -6   1   0    0.91    0.11 
  -6   1   0    1.07    0.12 
   5  -1   0   23.10    1.16 
   5  -1   0   23.95    1.26 
  -5   1   0   23.82    1.64 
  -5   1   0   24.27    1.31 
  -5   1   0   21.53    1.23 
  -5   1   0   24.73    1.46 
   4  -1   0    3.98    0.23 
   4  -1   0    3.28    0.24 
  -4   1   0    3.62    0.23 
   3  -1   0   35.24    1.86 
   3  -1   0   35.77    1.89 
  -3   1   0   34.79    1.91 
   2  -1   0   22.69    1.16 
  -2   1   0   20.39    2.00 
   1  -1   0   14.01    0.74 
  -1   1   0   13.78    1.30 
   0   1   0   30.50    2.80 
  -1  -1   0   53.23    2.77 
  -1  -1   0   55.67    3.24 
   1   1   0   48.61    4.81 
  -3  -1   0   70.11    3.70 
   3   1   0   74.72    3.70 
   3   1   0   64.43    3.89 
  -4  -1   0   93.73    4.87 
  -4  -1   0   94.99    4.94 
   4   1   0   87.74    4.80 
   4   1   0   93.77    4.88 
   4   1   0   88.94    5.12 
  -5  -1   0   49.13    2.48 
   5   1   0   44.47    2.41 
   5   1   0   43.47    2.46 
  -6  -1   0   26.24    1.39 
  -6  -1   0   24.04    1.31 
   6   1   0   24.03    1.24 
   6   1   0   26.21    1.35 
  -7  -1   0    0.02    0.05 
  -7  -1   0    0.10    0.06 
  -7  -1   0    0.16    0.08 
   7   1   0    0.05    0.06 
   7   1   0    0.01    0.04 
   7   1   0    0.04    0.07 
  -8  -1   0    6.86    0.46 
  -8  -1   0    7.57    0.39 
   8   1   0    7.01    0.47 
   8   1   0    7.61    0.36 
   8   1   0    6.51    0.57 
   7  -2   0   25.63    1.18 
   7  -2   0   22.68    1.51 
  -7   2   0   23.77    1.47 
   6  -2   0   10.67    0.51 
  -6   2   0   10.05    0.64 
  -6   2   0    9.57    0.53 
  -6   2   0    9.67    0.72 
   5  -2   0   11.01    0.60 
   5  -2   0   10.13    0.54 
  -5   2   0   10.46    0.57 
  -5   2   0   10.61    0.68 
  -5   2   0   10.22    0.62 
  -5   2   0   11.40    0.77 
   4  -2   0    5.09    0.32 
   4  -2   0    5.29    0.31 
  -4   2   0    5.09    0.32 
   3  -2   0   35.90    1.86 
  -3   2   0   33.51    1.88 
   2  -2   0   20.52    1.17 
   2  -2   0   21.93    1.12 
  -2   2   0   19.71    1.95 
  -2   2   0   20.99    1.13 
   1  -2   0    2.77    0.19 
   1  -2   0    3.33    0.18 
  -1   2   0    3.37    0.34 
  -1   2   0    3.02    0.22 
   0  -2   0  479.09   23.90 
   0   2   0  428.22   41.49 
  -1  -2   0  296.11   15.02 
  -1  -2   0  306.24   17.55 
   1   2   0  252.73   26.06 
  -2  -2   0   69.52    3.41 
   2   2   0   62.61    3.59 
   2   2   0   62.63    3.41 
   2   2   0   63.05    5.91 
  -3  -2   0  495.72   25.73 
   3   2   0  503.97   25.73 
   3   2   0  464.95   27.14 
  -4  -2   0  113.37    6.16 
  -4  -2   0  116.18    6.24 
   4   2   0  119.97    6.17 
   4   2   0  114.15    6.08 
   4   2   0  118.00    6.48 
  -5  -2   0  118.62    6.52 
  -5  -2   0  130.02    6.60 
   5   2   0  126.52    6.42 
   5   2   0  116.74    6.52 
   5   2   0  122.26    6.85 
  -6  -2   0   37.76    2.04 
   6   2   0   37.65    1.98 
   6   2   0   36.76    2.35 
  -7  -2   0   12.34    0.71 
   7   2   0   14.10    0.86 
   7   2   0   14.14    0.73 
   7   2   0   11.95    0.66 
   7   2   0   13.72    1.02 
  -8  -2   0   50.91    3.10 
  -8  -2   0   54.40    2.63 
   8   2   0   52.89    3.18 
   8   2   0   44.61    3.71 
  -9  -2   0   15.45    0.71 
  -9  -2   0   13.34    0.84 
   9   2   0   12.02    1.01 
   6  -3   0    2.26    0.13 
  -6   3   0    2.28    0.17 
  -6   3   0    2.09    0.20 
   5  -3   0   24.32    1.31 
   5  -3   0   23.70    1.20 
   5  -3   0   24.60    1.20 
  -5   3   0   25.11    1.70 
  -5   3   0   24.02    1.51 
   4  -3   0    7.95    0.45 
  -4   3   0    6.81    0.46 
  -4   3   0    8.17    0.58 
  -4   3   0    8.48    0.52 
  -3   3   0    7.23    0.42 
   2  -3   0    0.09    0.04 
  -2   3   0    0.11    0.04 
   1  -3   0   77.27    4.03 
   1  -3   0   69.20    4.26 
  -1   3   0   81.47    4.86 
  -1   3   0   77.42    7.05 
   0  -3   0    9.75    0.52 
   0   3   0    9.65    0.96 
   0   3   0    9.71    0.63 
  -1  -3   0   69.45    3.85 
   1   3   0   70.61    4.63 
   1   3   0   78.62    6.72 
  -2  -3   0    0.13    0.04 
  -2  -3   0    0.23    0.04 
   2   3   0    0.20    0.09 
   2   3   0    0.28    0.05 
  -3  -3   0   19.84    1.05 
   3   3   0   19.68    1.82 
   3   3   0   18.43    1.25 
   3   3   0   19.54    1.03 
  -4  -3   0   20.77    1.11 
   4   3   0   21.84    1.16 
   4   3   0   20.39    1.08 
   4   3   0   18.39    1.31 
  -5  -3   0  208.13   11.19 
   5   3   0  209.66   11.04 
   5   3   0  216.86   11.78 
  -6  -3   0   27.56    1.58 
   6   3   0   27.79    1.82 
   6   3   0   29.42    1.54 
   6   3   0   30.57    2.14 
   7   3   0    1.87    0.15 
   7   3   0    1.79    0.21 
   7   3   0    1.68    0.16 
   7   3   0    1.49    0.13 
  -8  -3   0    0.41    0.06 
  -8  -3   0    0.41    0.05 
   8   3   0    0.34    0.05 
   8   3   0    0.35    0.12 
   8   3   0    0.30    0.07 
  -9  -3   0    2.66    0.15 
  -9  -3   0    2.49    0.19 
   9   3   0    2.66    0.18 
   9   3   0    2.30    0.22 
  -5   4   0    0.32    0.09 
  -5   4   0    0.44    0.08 
   4  -4   0    0.83    0.10 
  -4   4   0    0.71    0.10 
  -4   4   0    0.84    0.13 
  -3   4   0   27.66    1.69 
  -3   4   0   27.04    1.90 
  -1   4   0    0.71    0.12 
  -1   4   0    1.08    0.21 
   0   4   0   27.62    2.65 
   0   4   0   28.20    1.80 
   1   4   0   84.17    7.26 
   1   4   0   73.01    4.99 
  -2  -4   0   26.85    1.43 
  -2  -4   0   25.75    1.67 
   2   4   0   26.52    2.53 
   2   4   0   28.20    1.73 
  -3  -4   0    4.38    0.26 
   3   4   0    3.69    0.30 
   3   4   0    4.74    0.48 
   3   4   0    4.50    0.25 
  -4  -4   0    3.32    0.23 
   4   4   0    3.52    0.21 
   4   4   0    3.36    0.25 
  -5  -4   0    0.03    0.06 
   5   4   0    0.18    0.05 
   5   4   0    0.16    0.06 
  -6  -4   0   43.53    2.13 
   6   4   0   44.33    2.26 
   6   4   0   42.00    2.80 
   6   4   0   43.42    2.74 
   6   4   0   46.11    3.20 
   6   4   0   42.33    2.31 
  -7  -4   0   86.36    4.35 
   7   4   0   89.22    6.52 
   7   4   0   88.64    4.62 
   7   4   0   95.26    4.70 
   7   4   0   88.08    5.59 
  -8  -4   0   15.74    0.78 
   8   4   0   15.02    1.17 
   8   4   0   15.30    0.82 
   8   4   0   16.12    1.00 
  -9  -4   0   16.86    1.06 
   9   4   0   18.70    0.89 
   9   4   0   14.65    1.26 
   9   4   0   18.07    1.08 
  -4   5   0   22.24    1.37 
  -4   5   0   22.25    1.54 
   3  -5   0    1.35    0.14 
  -3   5   0    1.53    0.18 
  -3   5   0    1.38    0.14 
  -3   5   0    1.44    0.16 
  -2   5   0    1.73    0.22 
  -2   5   0    2.14    0.21 
  -2   5   0    2.12    0.17 
  -1   5   0  110.34    8.26 
  -1   5   0  113.67    7.65 
   0   5   0  131.84   10.22 
   0   5   0  134.77   12.04 
   0   5   0  116.91    9.81 
   0   5   0  137.44    8.28 
   1   5   0   55.54    4.38 
   1   5   0   61.91    5.43 
   1   5   0   56.50    3.70 
   2   5   0  129.94    9.54 
   2   5   0  112.12   11.66 
   2   5   0  137.32    8.05 
  -3  -5   0   18.06    0.95 
   3   5   0   16.69    1.70 
   3   5   0   16.79    1.35 
   3   5   0   18.18    1.14 
  -4  -5   0   20.81    1.16 
   4   5   0   22.88    1.65 
   4   5   0   20.49    1.14 
   4   5   0   21.21    1.38 
  -5  -5   0   19.44    1.07 
   5   5   0   19.76    1.04 
   5   5   0   20.05    1.26 
   5   5   0   17.87    1.23 
  -6  -5   0    1.07    0.10 
  -6  -5   0    1.34    0.11 
   6   5   0    1.47    0.12 
   6   5   0    1.40    0.16 
   6   5   0    1.25    0.11 
   6   5   0    1.25    0.11 
   6   5   0    1.40    0.14 
  -7  -5   0    5.00    0.27 
  -7  -5   0    5.08    0.27 
   7   5   0    5.29    0.35 
   7   5   0    5.06    0.31 
   7   5   0    4.99    0.41 
   7   5   0    4.90    0.29 
  -8  -5   0   16.33    0.74 
  -8  -5   0   15.26    0.75 
   8   5   0   15.73    0.96 
   8   5   0   14.61    0.79 
   8   5   0   12.77    1.11 
   9   5   0   19.26    0.98 
   9   5   0   18.27    1.18 
  -3   6   0   16.51    1.02 
  -3   6   0   16.52    1.15 
  -2   6   0   22.41    1.54 
  -2   6   0   22.22    1.66 
  -2   6   0   21.45    1.36 
  -1   6   0    0.90    0.16 
  -1   6   0    0.84    0.11 
  -1   6   0    0.96    0.15 
   0   6   0   28.78    1.84 
   0   6   0   27.53    2.25 
   0   6   0   31.59    2.38 
   0   6   0   31.01    2.07 
   0   6   0   30.06    2.24 
   1   6   0   53.72    3.69 
   1   6   0   45.57    3.72 
   1   6   0   51.65    3.19 
   1   6   0   51.26    3.12 
   1   6   0   45.76    3.92 
   2   6   0  145.80    8.94 
   2   6   0  146.76    9.11 
   2   6   0  137.13   10.55 
  -3  -6   0   14.32    0.83 
   3   6   0   15.85    0.98 
   3   6   0   16.61    1.18 
   3   6   0   13.82    1.07 
   3   6   0   15.29    1.00 
  -4  -6   0   16.35    0.89 
   4   6   0   15.29    0.91 
   4   6   0   16.48    1.06 
   4   6   0   16.13    1.24 
   4   6   0   16.44    1.04 
  -5  -6   0   25.28    1.27 
   5   6   0   23.10    1.49 
   5   6   0   24.76    1.31 
   5   6   0   21.86    1.26 
   5   6   0   22.29    1.22 
  -6  -6   0   44.85    2.17 
  -6  -6   0   44.35    2.18 
   6   6   0   44.38    2.30 
   6   6   0   45.07    2.80 
   6   6   0   45.40    2.46 
   6   6   0   42.66    2.35 
  -7  -6   0   38.58    1.90 
  -7  -6   0   39.18    1.89 
   7   6   0   36.47    2.00 
   7   6   0   40.08    2.06 
   7   6   0   38.26    2.15 
   7   6   0   39.72    2.44 
  -8  -6   0    2.61    0.15 
  -8  -6   0    2.76    0.15 
   8   6   0    2.61    0.20 
   8   6   0    2.59    0.16 
  -2   7   0    3.19    0.28 
  -2   7   0    3.29    0.25 
  -1   7   0    2.01    0.19 
  -1   7   0    1.86    0.21 
   0   7   0   18.46    1.39 
   0   7   0   21.20    1.52 
   1   7   0    1.74    0.21 
   1   7   0    1.70    0.19 
   1   7   0    1.62    0.20 
   2   7   0   87.29    6.16 
   2   7   0   99.10    6.72 
   2   7   0   97.18    6.66 
   2   7   0   78.72    5.74 
   2   7   0   87.81    5.63 
   3   7   0   25.45    1.67 
   3   7   0   27.67    2.00 
   3   7   0   25.75    1.98 
  -4  -7   0    0.30    0.06 
   4   7   0    0.12    0.07 
   4   7   0    0.21    0.05 
   4   7   0    0.43    0.11 
   5   7   0   24.07    1.38 
   5   7   0   24.57    1.87 
   5   7   0   25.09    1.56 
  -6  -7   0    0.08    0.04 
   6   7   0    0.09    0.05 
  -7  -7   0   10.00    0.51 
   7   7   0    9.79    0.59 
   7   7   0   10.97    0.67 
  -8  -7   0   25.78    1.21 
   8   7   0   23.58    1.55 
   0   8   0    1.87    0.17 
   0   8   0    1.65    0.18 
   1   8   0   15.71    1.21 
   1   8   0   14.10    1.11 
   1   8   0   17.66    1.21 
   2   8   0    1.12    0.18 
   2   8   0    0.63    0.12 
   3   8   0    1.05    0.16 
   3   8   0    0.84    0.11 
   3   8   0    0.58    0.12 
   4   8   0   22.60    1.52 
   4   8   0   25.46    1.83 
   5   8   0    4.24    0.36 
   5   8   0    4.18    0.26 
   5   8   0    4.10    0.30 
   6   8   0    5.70    0.37 
   6   8   0    5.24    0.33 
  -7  -8   0   26.17    1.33 
   7   8   0   28.18    1.71 
   4   9   0    1.17    0.12 
   5   9   0   18.57    1.17 
  -7  -8   1    5.67    0.29 
   6   8  -1    5.68    0.37 
  -6  -8   1    5.29    0.28 
   5   8  -1   24.21    1.47 
   5   8  -1   22.15    1.76 
   4   8  -1    8.16    0.56 
   4   8  -1    8.72    0.67 
   3   8  -1   69.67    4.17 
   3   8  -1   63.60    4.98 
   2   8  -1   46.00    3.41 
   2   8  -1   45.85    3.44 
   1   8  -1    7.63    0.66 
   1   8  -1    9.10    0.61 
   1   8  -1    8.64    0.67 
   0   8  -1    1.00    0.13 
   0   8  -1    1.05    0.12 
   8   7  -1    3.97    0.26 
  -8  -7   1    3.78    0.20 
  -8  -7   1    3.97    0.20 
   7   7  -1   27.96    1.79 
  -7  -7   1   28.90    1.39 
   6   7  -1   58.76    3.11 
   6   7  -1   53.20    3.52 
  -6  -7   1   56.61    2.74 
   5   7  -1   59.30    4.41 
   5   7  -1   58.22    3.69 
   5   7  -1   59.14    3.25 
   4   7  -1    0.72    0.10 
   4   7  -1    0.77    0.11 
   4   7  -1    1.01    0.15 
  -4  -7   1    0.86    0.09 
   3   7  -1    7.16    0.55 
   3   7  -1    8.78    0.54 
   3   7  -1    7.76    0.65 
   1   7  -1   69.36    4.82 
   1   7  -1   60.33    4.46 
   1   7  -1   65.42    4.87 
   0   7  -1   42.85    2.67 
   0   7  -1   34.62    2.89 
  -1   7  -1   18.97    1.43 
  -1   7  -1   22.32    1.56 
  -2   7  -1    7.65    0.54 
   8   6  -1   11.88    0.61 
   8   6  -1   10.69    0.74 
  -8  -6   1   12.27    0.58 
  -8  -6   1   11.56    0.58 
   7   6  -1    0.21    0.07 
   7   6  -1    0.03    0.04 
   7   6  -1    0.09    0.05 
   7   6  -1    0.15    0.06 
  -7  -6   1   -0.02    0.03 
   6   6  -1    5.26    0.35 
   6   6  -1    5.13    0.31 
   6   6  -1    4.59    0.28 
   6   6  -1    5.40    0.31 
  -6  -6   1    4.79    0.30 
  -6  -6   1    4.85    0.26 
  -6  -6   1    4.73    0.26 
   5   6  -1   22.89    1.25 
   5   6  -1   25.76    1.35 
   5   6  -1   25.40    1.53 
   5   6  -1   21.42    1.56 
  -5  -6   1   22.90    1.18 
  -5  -6   1   26.02    1.30 
   4   6  -1  116.25    7.40 
   4   6  -1  122.12    7.26 
   4   6  -1  100.90    8.66 
   4   6  -1  117.35    6.39 
  -4  -6   1  124.79    6.15 
   3   6  -1  155.52   10.38 
   3   6  -1  133.88    8.86 
   3   6  -1  132.97    7.66 
   3   6  -1  129.62    8.70 
  -3  -6   1  145.15    7.36 
   2   6  -1   90.16    6.49 
   2   6  -1   97.98    5.55 
   2   6  -1   84.81    6.43 
   2   6  -1   76.89    5.44 
   2   6  -1   85.18    5.95 
   1   6  -1    0.83    0.14 
   1   6  -1    0.84    0.14 
   1   6  -1    0.79    0.15 
   1   6  -1    0.92    0.13 
   1   6  -1    0.84    0.11 
  -1  -6   1    0.90    0.10 
   0   6  -1    3.47    0.30 
   0   6  -1    3.52    0.33 
   0   6  -1    3.40    0.32 
  -1   6  -1    2.53    0.25 
  -1   6  -1    2.48    0.22 
  -1   6  -1    1.91    0.18 
  -2   6  -1    0.09    0.09 
  -2   6  -1    0.10    0.06 
  -2   6  -1    0.06    0.09 
  -3   6  -1    2.06    0.18 
  -3   6  -1    2.02    0.20 
   9   5  -1    2.08    0.13 
   8   5  -1    0.45    0.07 
   8   5  -1    0.47    0.06 
  -8  -5   1    0.44    0.05 
  -8  -5   1    0.45    0.05 
   7   5  -1   17.03    0.92 
   7   5  -1   17.75    1.12 
   7   5  -1   17.83    0.95 
  -7  -5   1   17.28    0.87 
  -7  -5   1   17.56    0.87 
   6   5  -1   22.40    1.12 
   6   5  -1   20.69    1.37 
   6   5  -1   21.28    1.20 
   6   5  -1   20.69    1.41 
   6   5  -1   23.08    1.16 
  -6  -5   1   20.47    1.06 
  -6  -5   1   21.86    1.06 
  -6  -5   1   21.40    1.16 
   5   5  -1    1.00    0.10 
   5   5  -1    0.86    0.08 
   5   5  -1    1.05    0.13 
   5   5  -1    0.96    0.10 
   5   5  -1    0.96    0.11 
  -5  -5   1    0.98    0.10 
  -5  -5   1    1.00    0.12 
   4   5  -1    3.45    0.26 
   4   5  -1    3.67    0.22 
  -4  -5   1    3.19    0.21 
  -4  -5   1    3.08    0.22 
   3   5  -1    0.17    0.12 
   3   5  -1    0.14    0.06 
  -3  -5   1    0.18    0.06 
  -3  -5   1    0.17    0.04 
   2   5  -1   26.97    1.72 
   2   5  -1   25.38    2.54 
  -2  -5   1   27.49    1.42 
  -2  -5   1   25.95    1.42 
   1   5  -1   87.69    6.92 
   1   5  -1   88.39    5.61 
   0   5  -1    6.43    0.57 
   0   5  -1    7.29    0.50 
   0   5  -1    7.93    0.81 
   0   5  -1    7.05    0.48 
   0  -5   1    6.71    0.42 
  -1   5  -1    0.60    0.09 
  -1   5  -1    0.73    0.14 
  -1   5  -1    0.80    0.12 
  -2   5  -1   46.18    3.20 
  -2   5  -1   42.59    2.84 
  -2   5  -1   50.58    3.46 
  -3   5  -1   30.37    2.29 
  -3   5  -1   30.01    2.12 
  -3   5  -1   31.30    1.88 
   3  -5   1   30.69    1.64 
  -4   5  -1    2.91    0.23 
  -4   5  -1    2.71    0.20 
   9   4  -1   11.28    0.56 
  -9  -4   1    9.86    0.67 
   8   4  -1    8.68    0.50 
   8   4  -1    9.58    0.47 
   8   4  -1    9.67    0.60 
   8   4  -1    8.67    0.71 
  -8  -4   1    9.45    0.47 
   7   4  -1  124.43    6.33 
   7   4  -1  128.35    6.43 
   7   4  -1  120.07    7.66 
   7   4  -1  120.44    8.93 
  -7  -4   1  120.40    5.98 
  -7  -4   1  123.22    5.96 
   6   4  -1    0.05    0.05 
   6   4  -1    0.12    0.06 
   6   4  -1   -0.02    0.04 
  -6  -4   1   -0.02    0.03 
   5   4  -1    1.09    0.13 
   5   4  -1    1.32    0.11 
  -5  -4   1    1.20    0.10 
  -5  -4   1    0.99    0.13 
   4   4  -1    3.95    0.23 
   4   4  -1    3.97    0.28 
  -4  -4   1    3.70    0.25 
   3   4  -1    1.92    0.16 
   3   4  -1    1.91    0.13 
   3   4  -1    2.05    0.27 
  -3  -4   1    1.77    0.14 
   2   4  -1  117.20    7.66 
   2   4  -1  127.03   11.10 
  -2  -4   1  123.08    7.45 
  -2  -4   1  115.16    6.37 
   1   4  -1   91.90    5.76 
   1   4  -1  104.16    8.38 
  -1  -4   1   91.46    4.79 
  -1  -4   1   83.60    4.77 
  -1  -4   1   82.15    5.59 
   0   4  -1    0.81    0.10 
   0   4  -1    0.64    0.18 
   0  -4   1    0.67    0.08 
   0  -4   1    0.79    0.07 
  -1   4  -1    4.94    0.52 
   1  -4   1    3.89    0.27 
  -2   4  -1    1.10    0.16 
  -2   4  -1    0.89    0.13 
  -3   4  -1    0.12    0.08 
  -3   4  -1    0.01    0.09 
  -3   4  -1    0.14    0.06 
  -4   4  -1   75.04    4.58 
  -4   4  -1   74.48    5.14 
   4  -4   1   75.88    3.95 
  -5   4  -1   17.10    1.30 
  -5   4  -1   19.86    1.16 
   5  -4   1   19.36    0.93 
   9   3  -1    1.32    0.15 
   9   3  -1    1.63    0.09 
  -9  -3   1    1.66    0.10 
  -9  -3   1    1.39    0.13 
   8   3  -1    7.05    0.44 
   8   3  -1    6.57    0.37 
   8   3  -1    6.07    0.53 
  -8  -3   1    6.48    0.37 
  -8  -3   1    7.08    0.34 
   7   3  -1   91.36    6.56 
   7   3  -1   86.72    4.64 
   7   3  -1   90.47    5.62 
   7   3  -1   95.35    4.72 
  -7  -3   1   86.08    4.39 
   6   3  -1    8.43    0.46 
   6   3  -1    8.11    0.53 
   6   3  -1    8.86    0.63 
  -6  -3   1    7.44    0.49 
  -6  -3   1    7.14    0.40 
   5   3  -1  137.22    6.82 
  -5  -3   1  128.19    6.92 
  -5  -3   1  126.09    6.88 
   4   3  -1   15.49    0.97 
   4   3  -1   14.11    0.79 
  -4  -3   1   14.94    0.82 
   3   3  -1    0.06    0.07 
   3   3  -1    0.11    0.04 
   3   3  -1    0.22    0.05 
  -3  -3   1    0.34    0.06 
   2   3  -1   14.33    0.91 
   2   3  -1   13.86    1.33 
  -2  -3   1   13.23    0.76 
  -2  -3   1   14.35    0.88 
   1   3  -1  121.20   10.74 
   1   3  -1  113.24    7.42 
  -1  -3   1  116.34    6.17 
   0   3  -1  269.24   17.83 
   0   3  -1  305.23   25.78 
   0  -3   1  270.05   14.83 
  -1   3  -1  109.32    6.56 
  -1   3  -1   99.00    9.50 
   1  -3   1  101.98    5.75 
   1  -3   1  102.33    5.45 
  -2   3  -1   27.69    2.80 
   2  -3   1   30.10    1.67 
   2  -3   1   31.13    1.59 
  -3   3  -1    4.15    0.26 
  -4   3  -1    0.01    0.06 
  -4   3  -1    0.01    0.05 
  -4   3  -1   -0.04    0.07 
   4  -3   1    0.09    0.06 
  -5   3  -1   16.91    1.03 
  -5   3  -1   15.69    1.16 
   5  -3   1   16.52    0.90 
   5  -3   1   16.60    0.82 
  -6   3  -1   14.66    1.09 
  -6   3  -1   15.52    0.97 
   6  -3   1   16.76    0.78 
   9   2  -1    0.12    0.07 
  -9  -2   1    0.02    0.05 
  -9  -2   1    0.08    0.03 
   8   2  -1    1.09    0.16 
   8   2  -1    1.16    0.11 
  -8  -2   1    1.01    0.13 
  -8  -2   1    0.92    0.09 
   7   2  -1    8.03    0.46 
   7   2  -1   10.09    0.73 
   7   2  -1    9.12    0.61 
   7   2  -1    9.64    0.52 
  -7  -2   1    9.19    0.50 
   6   2  -1   49.53    2.53 
   6   2  -1   46.48    3.01 
   5   2  -1  107.43    5.93 
   5   2  -1  114.26    6.22 
   5   2  -1  115.42    5.83 
  -5  -2   1  108.88    5.92 
   4   2  -1  265.82   14.41 
   4   2  -1  241.53   13.50 
   4   2  -1  272.12   13.68 
  -4  -2   1  256.57   13.67 
   3   2  -1  290.07   14.81 
   3   2  -1  263.68   15.61 
  -3  -2   1  288.85   14.81 
   2   2  -1  231.50   23.09 
   2   2  -1  247.51   13.31 
  -2  -2   1  253.91   15.55 
  -2  -2   1  277.07   13.31 
   1   2  -1   26.51    2.48 
  -1  -2   1   27.29    1.42 
  -1  -2   1   26.40    1.66 
   0   2  -1  742.85   66.07 
   0  -2   1  702.68   38.08 
  -1   2  -1    1.28    0.18 
  -1   2  -1    1.15    0.10 
   1  -2   1    1.04    0.08 
   1  -2   1    1.02    0.09 
  -2   2  -1  139.68    7.60 
  -2   2  -1  147.43   13.00 
   2  -2   1  144.41    7.49 
   2  -2   1  135.27    7.89 
  -3   2  -1  156.94    8.78 
   3  -2   1  170.15    8.65 
  -4   2  -1   44.01    2.48 
   4  -2   1   48.58    2.42 
   4  -2   1   44.32    2.45 
  -5   2  -1   16.23    0.90 
  -5   2  -1   17.80    1.08 
  -5   2  -1   17.37    1.21 
  -5   2  -1   16.03    0.97 
   5  -2   1   16.91    0.85 
   5  -2   1   18.91    0.94 
  -6   2  -1    0.41    0.11 
  -6   2  -1    0.47    0.06 
  -6   2  -1    0.41    0.08 
   6  -2   1    0.32    0.05 
  -7   2  -1    7.00    0.52 
   7  -2   1    6.97    0.47 
   7  -2   1    7.52    0.36 
   8   1  -1   11.55    0.98 
   8   1  -1   12.85    0.82 
   8   1  -1   13.19    0.64 
  -8  -1   1   12.78    0.81 
  -8  -1   1   13.86    0.68 
   7   1  -1   34.45    2.12 
   7   1  -1   34.50    1.79 
   7   1  -1   31.95    1.65 
  -7  -1   1   34.32    2.08 
  -7  -1   1   33.83    1.84 
  -7  -1   1   32.85    1.75 
   6   1  -1  101.82    5.38 
   6   1  -1  101.33    5.00 
  -6  -1   1  107.89    5.54 
  -6  -1   1  100.06    5.30 
   5   1  -1    6.30    0.40 
   5   1  -1    6.30    0.37 
  -5  -1   1    6.79    0.38 
   4   1  -1  178.14   10.03 
   4   1  -1  176.17    9.40 
   4   1  -1  183.21    9.53 
  -4  -1   1  177.30    9.53 
  -4  -1   1  186.57    9.67 
   3   1  -1  240.55   11.93 
   3   1  -1  209.30   12.57 
  -3  -1   1  228.22   11.92 
   2   1  -1  669.07   69.18 
   2   1  -1  795.95   39.92 
  -2  -1   1  807.93   39.92 
   1   1  -1  749.75   66.72 
  -1  -1   1  710.83   38.47 
   0   1  -1  123.53   11.14 
   0  -1   1  119.81    6.41 
  -1   1  -1  478.36   43.83 
   1  -1   1  480.51   25.26 
  -2   1  -1    0.58    0.06 
  -2   1  -1    0.52    0.11 
   2  -1   1    0.61    0.06 
   2  -1   1    0.74    0.07 
  -3   1  -1  114.04    6.18 
   3  -1   1  115.97    6.09 
   3  -1   1  114.97    6.41 
  -4   1  -1   39.15    2.16 
   4  -1   1   40.37    2.09 
   4  -1   1   39.30    2.13 
  -5   1  -1   75.99    4.14 
  -5   1  -1   81.31    4.89 
  -5   1  -1   82.22    4.34 
  -5   1  -1   81.86    5.49 
   5  -1   1   77.27    3.91 
   5  -1   1   83.11    4.22 
  -6   1  -1   14.87    0.90 
  -6   1  -1   16.00    0.84 
  -6   1  -1   15.94    0.99 
  -6   1  -1   15.50    1.12 
   6  -1   1   16.28    0.87 
   6  -1   1   16.07    0.79 
  -7   1  -1   12.87    0.84 
  -7   1  -1   14.51    0.71 
  -7   1  -1   12.23    0.95 
   7  -1   1   13.85    0.67 
   8   0  -1    1.31    0.12 
   8   0  -1    1.20    0.16 
   8   0  -1    1.20    0.09 
  -8   0   1    1.37    0.12 
  -8   0   1    1.26    0.09 
   7   0  -1   19.47    1.21 
   7   0  -1   18.31    0.93 
   7   0  -1   18.95    1.02 
  -7   0   1   18.56    1.18 
  -7   0   1   18.92    0.99 
   6   0  -1   28.61    1.43 
   6   0  -1   27.74    1.55 
  -6   0   1   29.88    1.80 
  -6   0   1   28.17    1.52 
  -6   0   1   31.27    1.61 
   5   0  -1   93.98    5.06 
   5   0  -1   94.53    4.97 
  -5   0   1   96.32    5.12 
   4   0  -1    0.16    0.05 
   4   0  -1    0.14    0.05 
  -4   0   1    0.19    0.05 
   3   0  -1    3.89    0.24 
  -3   0   1    3.75    0.23 
  -3   0   1    3.64    0.23 
   2   0  -1  257.40   13.16 
  -2   0   1  241.96   13.16 
   1   0  -1   60.86    3.21 
   0   0   1    0.00    0.01 
  -1   0  -1  554.72   30.11 
   1   0   1  588.48   30.12 
  -2   0  -1   38.42    3.43 
  -2   0  -1   35.88    1.98 
   2   0   1   37.79    1.99 
  -3   0  -1  112.46    5.91 
   3   0   1  109.06    6.23 
   3   0   1  116.37    5.92 
   3   0   1  109.37    5.84 
  -4   0  -1    6.34    0.35 
   4   0   1    5.77    0.36 
   4   0   1    6.02    0.34 
   4   0   1    5.71    0.36 
  -5   0  -1  155.09    8.00 
   5   0   1  149.85    7.78 
   5   0   1  141.36    7.89 
  -6   0  -1   40.18    2.16 
  -6   0  -1   42.54    2.27 
  -6   0  -1   40.45    2.87 
  -6   0  -1   42.54    2.55 
   6   0   1   42.27    2.21 
   6   0   1   41.47    2.04 
  -7   0  -1    0.84    0.14 
  -7   0  -1    0.79    0.10 
  -7   0  -1    0.91    0.09 
   7   0   1    0.80    0.08 
   7   0   1    0.88    0.11 
  -8   0  -1    0.39    0.07 
  -8   0  -1    0.29    0.05 
   8   0   1    0.43    0.11 
   8   0   1    0.30    0.06 
   8   0   1    0.23    0.04 
   7  -1  -1   27.73    1.81 
   7  -1  -1   28.09    1.40 
  -7   1   1   29.72    1.76 
  -7   1   1   28.87    1.48 
   6  -1  -1   83.69    3.98 
   6  -1  -1   83.94    4.29 
  -6   1   1   82.74    4.42 
  -6   1   1   81.43    4.98 
  -6   1   1   77.02    4.22 
   5  -1  -1    6.54    0.36 
   5  -1  -1    5.42    0.31 
   5  -1  -1    5.50    0.31 
  -5   1   1    5.50    0.33 
  -5   1   1    6.03    0.37 
  -5   1   1    6.53    0.41 
  -5   1   1    6.68    0.46 
   4  -1  -1    5.92    0.35 
   4  -1  -1    5.46    0.33 
  -4   1   1    5.80    0.34 
   3  -1  -1    3.01    0.19 
   3  -1  -1    3.24    0.21 
  -3   1   1    3.32    0.20 
   2  -1  -1   53.01    2.68 
  -2   1   1   47.91    4.63 
   1  -1  -1    1.85    0.10 
  -1   1   1    1.27    0.17 
   0   1   1  128.76   11.78 
  -1  -1  -1   36.37    1.92 
   1   1   1   36.42    3.34 
  -3  -1  -1   17.39    0.92 
   3   1   1   17.58    0.92 
   3   1   1   15.73    0.95 
  -4  -1  -1   18.95    1.01 
  -4  -1  -1   18.33    1.00 
   4   1   1   17.66    1.04 
   4   1   1   17.92    1.01 
   4   1   1   18.61    0.98 
  -5  -1  -1   14.52    0.76 
   5   1   1   13.73    0.73 
   5   1   1   12.75    0.76 
   5   1   1   12.76    0.77 
  -6  -1  -1    9.15    0.52 
  -6  -1  -1   10.21    0.57 
  -6  -1  -1    9.77    0.71 
   6   1   1    9.21    0.49 
   6   1   1    9.90    0.55 
  -7  -1  -1    9.34    0.51 
  -7  -1  -1    9.11    0.68 
  -7  -1  -1    8.82    0.60 
  -7  -1  -1    9.59    0.55 
   7   1   1    9.54    0.62 
   7   1   1    8.57    0.47 
   7   1   1    9.78    0.53 
  -8  -1  -1    2.10    0.14 
  -8  -1  -1    1.97    0.16 
   8   1   1    2.09    0.22 
   8   1   1    2.13    0.13 
   8   1   1    2.13    0.17 
   7  -2  -1    0.25    0.04 
   7  -2  -1    0.29    0.06 
  -7   2   1    0.47    0.08 
   6  -2  -1   17.17    0.85 
  -6   2   1   17.21    1.07 
  -6   2   1   17.60    1.19 
  -6   2   1   16.06    0.89 
   5  -2  -1  218.88   10.86 
   5  -2  -1  225.56   10.86 
   5  -2  -1  216.22   11.69 
  -5   2   1  241.15   15.24 
  -5   2   1  229.66   13.57 
  -5   2   1  223.40   12.02 
  -5   2   1  211.83   11.51 
   4  -2  -1   31.77    1.65 
  -4   2   1   30.28    1.70 
   3  -2  -1    4.50    0.27 
  -3   2   1    4.39    0.27 
   2  -2  -1   26.37    1.38 
  -2   2   1   25.51    1.39 
  -2   2   1   25.15    2.40 
   1  -2  -1    0.71    0.06 
  -1   2   1    0.63    0.12 
   0   2   1   15.97    1.50 
  -2  -2  -1   30.37    1.48 
   2   2   1   23.86    2.57 
   2   2   1   28.94    1.56 
   2   2   1   28.25    1.48 
  -3  -2  -1    0.72    0.09 
   3   2   1    0.66    0.08 
   3   2   1    0.86    0.07 
  -4  -2  -1  330.31   17.52 
   4   2   1  329.19   17.31 
   4   2   1  337.03   17.52 
   4   2   1  331.91   18.47 
  -5  -2  -1   20.56    1.19 
  -5  -2  -1   22.50    1.19 
   5   2   1   22.12    1.16 
   5   2   1   21.39    1.23 
  -6  -2  -1    1.29    0.13 
   6   2   1    1.27    0.13 
   6   2   1    1.49    0.14 
  -7  -2  -1   27.51    2.06 
  -7  -2  -1   27.06    1.54 
  -7  -2  -1   30.72    1.62 
   7   2   1   31.29    2.20 
   7   2   1   31.32    1.58 
   7   2   1   29.58    1.87 
  -8  -2  -1    0.62    0.10 
  -8  -2  -1    0.49    0.07 
   8   2   1    0.44    0.13 
   8   2   1    0.55    0.08 
  -9  -2  -1    9.77    0.46 
   9   2   1    7.75    0.66 
   6  -3  -1   14.67    0.73 
  -6   3   1   14.89    0.92 
  -6   3   1   14.50    1.03 
   5  -3  -1   20.50    0.99 
  -5   3   1   21.79    1.40 
  -5   3   1   20.46    1.24 
  -5   3   1   16.88    1.10 
   4  -3  -1   58.34    3.09 
  -4   3   1   63.46    4.03 
  -4   3   1   60.06    3.58 
  -4   3   1   52.73    3.17 
  -3   3   1   65.46    4.87 
  -3   3   1   58.13    3.34 
   2  -3  -1    2.89    0.18 
  -2   3   1    2.73    0.18 
   1  -3  -1    3.33    0.20 
  -1   3   1    3.75    0.21 
  -1   3   1    3.70    0.41 
   0   3   1   26.10    2.20 
   0   3   1   20.70    1.49 
   1   3   1    0.88    0.08 
   1   3   1    0.85    0.16 
  -2  -3  -1   76.36    4.05 
   2   3   1   71.49    4.86 
   2   3   1   81.85    7.05 
  -3  -3  -1   57.47    3.07 
   3   3   1   56.07    3.02 
   3   3   1   62.69    3.23 
   3   3   1   54.76    3.67 
   3   3   1   57.93    5.32 
  -4  -3  -1   19.31    1.05 
   4   3   1   18.50    1.02 
   4   3   1   19.82    1.09 
  -5  -3  -1    1.25    0.14 
   5   3   1    1.62    0.12 
   5   3   1    1.40    0.12 
  -6  -3  -1   75.14    4.17 
   6   3   1   79.86    4.10 
   6   3   1   78.39    4.89 
   6   3   1   75.83    4.37 
   6   3   1   81.36    5.70 
  -7  -3  -1   16.60    0.87 
   7   3   1   16.58    0.93 
   7   3   1   17.86    1.33 
   7   3   1   18.18    1.13 
   7   3   1   18.64    0.96 
  -8  -3  -1    0.19    0.04 
  -8  -3  -1    0.18    0.05 
   8   3   1    0.20    0.05 
   8   3   1    0.18    0.07 
   8   3   1    0.19    0.11 
  -9  -3  -1    1.27    0.11 
  -9  -3  -1    1.36    0.09 
   9   3   1    1.16    0.14 
   9   3   1    1.37    0.11 
  -5   4   1   42.96    2.47 
  -5   4   1   37.84    2.77 
  -4   4   1   13.61    0.94 
  -4   4   1   12.76    0.83 
  -3   4   1   15.44    1.05 
  -3   4   1   14.26    0.93 
  -2   4   1    3.41    0.31 
  -1   4   1   26.95    2.73 
  -1   4   1   30.31    2.20 
   0   4   1    9.83    0.65 
   1   4   1  141.59    9.88 
   1   4   1  170.18   14.32 
  -2  -4  -1   17.59    0.96 
  -2  -4  -1   17.47    1.11 
   2   4   1   17.32    0.95 
   2   4   1   18.91    1.15 
  -3  -4  -1    3.27    0.20 
   3   4   1    3.10    0.22 
   3   4   1    2.89    0.36 
   3   4   1    2.94    0.18 
  -4  -4  -1   10.24    0.55 
   4   4   1    9.14    0.64 
   4   4   1    9.79    0.53 
  -5  -4  -1   32.34    1.68 
   5   4   1   29.37    1.63 
  -6  -4  -1    0.04    0.04 
   6   4   1    0.14    0.06 
   6   4   1    0.20    0.10 
   6   4   1    0.03    0.05 
   6   4   1    0.09    0.06 
  -7  -4  -1   11.11    0.58 
   7   4   1   12.07    0.75 
   7   4   1   12.05    0.64 
   7   4   1   10.97    0.62 
   7   4   1   11.21    0.88 
  -8  -4  -1   28.44    1.35 
   8   4   1   27.88    1.74 
   8   4   1   28.13    1.43 
   8   4   1   25.20    2.03 
  -9  -4  -1    8.21    0.38 
  -9  -4  -1    6.41    0.48 
   9   4   1    8.30    0.41 
   9   4   1    8.14    0.49 
   9   4   1    6.78    0.58 
  -4   5   1   24.09    1.79 
  -4   5   1   27.64    1.60 
  -3   5   1   58.19    4.18 
  -3   5   1   63.83    3.73 
  -2   5   1   22.22    1.41 
  -2   5   1   19.03    1.25 
  -2   5   1   18.99    1.52 
  -1   5   1  187.42   13.03 
  -1   5   1  201.72   13.75 
  -1   5   1  191.84   11.60 
  -1   5   1  197.08   14.07 
  -1   5   1  178.07   15.00 
   0   5   1   44.21    4.55 
   0   5   1   52.21    3.82 
   1   5   1   14.81    1.24 
   1   5   1   16.49    1.60 
   1   5   1   16.85    1.05 
   2   5   1   26.27    1.53 
   2   5   1   20.38    2.26 
   2   5   1   23.84    1.81 
  -3  -5  -1   11.11    0.54 
   3   5   1    9.23    0.64 
   3   5   1    8.40    0.97 
  -4  -5  -1   12.65    0.71 
   4   5   1   12.76    0.69 
  -5  -5  -1   16.57    0.90 
   5   5   1   16.25    1.04 
   5   5   1   15.70    0.87 
  -6  -5  -1    5.81    0.32 
   6   5   1    6.11    0.34 
   6   5   1    6.53    0.42 
   6   5   1    5.52    0.36 
   6   5   1    6.45    0.36 
   6   5   1    6.19    0.49 
  -7  -5  -1    1.37    0.11 
   7   5   1    1.90    0.16 
   7   5   1    1.61    0.18 
   7   5   1    1.81    0.14 
   7   5   1    1.49    0.12 
  -8  -5  -1    0.77    0.07 
  -8  -5  -1    0.61    0.07 
   8   5   1    0.83    0.11 
   8   5   1    0.73    0.12 
   8   5   1    0.69    0.08 
  -9  -5  -1    3.94    0.19 
   9   5   1    3.76    0.21 
   9   5   1    3.00    0.29 
   9   5   1    3.90    0.25 
  -3   6   1    1.03    0.13 
  -3   6   1    1.00    0.11 
  -2   6   1    6.15    0.48 
  -2   6   1    5.61    0.45 
  -2   6   1    5.76    0.39 
  -1   6   1   20.61    1.57 
  -1   6   1   20.70    1.80 
  -1   6   1   25.79    1.71 
  -1   6   1   22.91    1.40 
   0   6   1    2.11    0.26 
   0   6   1    2.96    0.24 
   0   6   1    2.61    0.27 
   0   6   1    3.03    0.21 
   0   6   1    2.99    0.26 
   0   6   1    2.32    0.25 
   0   6   1    2.35    0.25 
   0   6   1    2.75    0.27 
   1   6   1  436.95   37.34 
   1   6   1  528.33   31.49 
   1   6   1  535.57   36.84 
   1   6   1  485.94   30.93 
   1   6   1  533.13   38.93 
   1   6   1  505.18   35.65 
   1   6   1  453.18   40.15 
   2   6   1  222.44   14.35 
   2   6   1  218.02   16.79 
   2   6   1  223.59   15.41 
   2   6   1  233.67   14.10 
   2   6   1  245.20   17.03 
   2   6   1  214.26   16.63 
   3   6   1   27.91    2.47 
   3   6   1   37.75    2.55 
   3   6   1   35.31    2.10 
   3   6   1   32.11    2.51 
   4   6   1   43.24    2.93 
   4   6   1   36.56    2.12 
   4   6   1   35.19    2.88 
   4   6   1   38.21    2.41 
   5   6   1   13.62    0.83 
   5   6   1   11.14    0.96 
   5   6   1   12.90    0.73 
   5   6   1   13.28    1.02 
  -6  -6  -1    1.19    0.11 
  -6  -6  -1    0.92    0.09 
   6   6   1    1.11    0.09 
   6   6   1    1.25    0.12 
   6   6   1    1.24    0.15 
   6   6   1    1.00    0.11 
   6   6   1    1.10    0.18 
  -7  -6  -1   13.56    0.67 
  -7  -6  -1   13.16    0.67 
   7   6   1   13.40    0.76 
   7   6   1   12.95    0.70 
   7   6   1   11.64    1.06 
   7   6   1   14.08    0.74 
   7   6   1   13.47    1.01 
   7   6   1   14.65    0.87 
  -8  -6  -1    6.18    0.31 
  -8  -6  -1    6.02    0.31 
   8   6   1    6.21    0.33 
   8   6   1    6.47    0.41 
   8   6   1    5.20    0.47 
   9   6   1    5.02    0.27 
  -2   7   1   29.35    2.15 
  -2   7   1   28.46    1.99 
  -1   7   1   22.87    1.74 
  -1   7   1   23.46    1.61 
   0   7   1   52.17    3.91 
   1   7   1    0.05    0.07 
   1   7   1    0.07    0.07 
   1   7   1    0.14    0.10 
   2   7   1   23.55    1.34 
   2   7   1   17.90    1.57 
   3   7   1  227.18   15.83 
   3   7   1  198.90   15.67 
  -4  -7  -1   33.53    1.73 
   4   7   1   33.38    2.04 
   4   7   1   29.94    1.79 
  -5  -7  -1   27.73    1.46 
   5   7   1   26.94    1.72 
   5   7   1   26.70    1.51 
  -6  -7  -1   19.23    0.96 
   6   7   1   18.99    1.24 
   6   7   1   20.22    1.10 
  -7  -7  -1   19.61    0.97 
  -7  -7  -1   18.65    0.97 
   7   7   1   20.28    1.25 
   7   7   1   19.96    1.10 
  -8  -7  -1    1.01    0.07 
  -8  -7  -1    1.14    0.08 
   0   8   1   10.45    0.78 
   0   8   1   11.68    0.85 
   1   8   1   30.52    2.03 
   1   8   1   28.90    2.21 
   1   8   1   28.53    2.19 
   2   8   1   28.69    2.17 
   3   8   1    1.49    0.19 
   3   8   1    1.35    0.16 
   3   8   1    1.47    0.16 
   4   8   1   95.23    5.68 
   4   8   1   96.22    5.00 
   4   8   1   81.03    6.77 
   5   8   1   10.22    0.68 
   5   8   1   10.57    0.59 
   5   8   1   10.16    0.80 
   6   8   1    4.19    0.30 
   6   8   1    4.41    0.26 
  -7  -8  -1    0.15    0.03 
   7   8   1    0.05    0.04 
   7   8   1    0.04    0.04 
   3   9   1    4.77    0.38 
   4   9   1    0.12    0.05 
   4   9   1    0.07    0.06 
   5   9   1    0.41    0.07 
  -7  -8   2    4.83    0.25 
   6   8  -2    2.39    0.18 
  -6  -8   2    2.40    0.13 
   5   8  -2    6.52    0.53 
   5   8  -2    6.62    0.44 
   4   8  -2    0.25    0.06 
   4   8  -2    0.38    0.10 
   3   8  -2    0.75    0.12 
   2   8  -2   18.72    1.45 
   2   8  -2   19.66    1.46 
   1   8  -2   49.65    3.55 
   1   8  -2   46.30    3.58 
  -8  -7   2    1.50    0.08 
  -8  -7   2    1.05    0.16 
  -7  -7   2   -0.01    0.03 
   6   7  -2    1.67    0.14 
   6   7  -2    1.73    0.15 
  -6  -7   2    1.41    0.10 
   5   7  -2    7.39    0.45 
   5   7  -2    7.55    0.51 
   5   7  -2    8.36    0.62 
  -5  -7   2    7.12    0.38 
   4   7  -2    0.25    0.06 
   4   7  -2    0.35    0.11 
   4   7  -2    0.45    0.08 
   3   7  -2   41.29    2.93 
   3   7  -2   36.32    2.44 
   2   7  -2   71.51    4.86 
   2   7  -2   58.31    4.06 
   1   7  -2   14.74    1.09 
   1   7  -2   13.84    1.09 
   1   7  -2   13.55    0.99 
   0   7  -2    2.39    0.22 
   0   7  -2    2.31    0.25 
  -1   7  -2    4.00    0.31 
  -1   7  -2    3.93    0.34 
   8   6  -2   11.76    0.62 
  -8  -6   2   12.00    0.59 
  -8  -6   2   11.86    0.59 
   7   6  -2   57.96    3.87 
   7   6  -2   61.25    3.19 
  -7  -6   2   63.65    3.02 
  -7  -6   2   64.47    3.01 
   6   6  -2    3.77    0.24 
   6   6  -2    3.57    0.26 
   6   6  -2    3.50    0.21 
  -6  -6   2    3.70    0.20 
  -6  -6   2    3.58    0.20 
  -6  -6   2    3.65    0.23 
   5   6  -2   27.21    1.85 
   5   6  -2   31.08    1.63 
   5   6  -2   27.66    1.89 
   5   6  -2   30.21    2.22 
  -5  -6   2   27.60    1.43 
  -5  -6   2   31.57    1.57 
   4   6  -2   94.34    6.15 
   4   6  -2   72.20    5.14 
   4   6  -2   81.68    5.25 
   4   6  -2   78.12    4.53 
  -4  -6   2   84.85    4.36 
   3   6  -2   61.18    3.50 
   3   6  -2   60.62    4.06 
   3   6  -2   62.24    3.98 
   3   6  -2   70.24    4.77 
  -3  -6   2   63.46    3.37 
   2   6  -2    0.92    0.15 
   2   6  -2    0.87    0.13 
   2   6  -2    0.87    0.12 
   2   6  -2    0.92    0.16 
   1   6  -2   58.85    3.73 
   1   6  -2   61.27    4.08 
   1   6  -2   57.55    3.82 
   1   6  -2   61.88    4.46 
   1   6  -2   56.50    4.42 
  -1  -6   2   60.90    3.35 
   0   6  -2   14.82    1.21 
   0   6  -2   19.14    1.33 
   0   6  -2   17.64    1.33 
  -1   6  -2   19.29    1.34 
  -1   6  -2   18.77    1.45 
  -2   6  -2   14.41    1.22 
  -2   6  -2   17.79    1.14 
  -3   6  -2    5.71    0.42 
   9   5  -2    5.63    0.30 
  -9  -5   2    5.54    0.28 
   8   5  -2    8.62    0.47 
  -8  -5   2    8.54    0.44 
  -8  -5   2    9.18    0.44 
   7   5  -2    5.56    0.31 
   7   5  -2    5.22    0.35 
   7   5  -2    4.88    0.29 
  -7  -5   2    4.95    0.27 
  -7  -5   2    5.09    0.27 
   6   5  -2    2.15    0.18 
   6   5  -2    2.34    0.17 
   6   5  -2    2.28    0.16 
   6   5  -2    2.11    0.20 
   6   5  -2    2.28    0.15 
  -6  -5   2    2.21    0.14 
  -6  -5   2    2.27    0.16 
  -6  -5   2    2.15    0.14 
   5   5  -2   37.49    2.31 
   5   5  -2   30.92    2.36 
   5   5  -2   37.60    1.90 
   5   5  -2   36.51    1.94 
   5   5  -2   37.11    2.03 
  -5  -5   2   36.17    1.80 
  -5  -5   2   41.24    1.96 
  -5  -5   2   35.89    1.79 
   4   5  -2    0.64    0.12 
   4   5  -2    0.51    0.08 
   4   5  -2    0.40    0.09 
  -4  -5   2    0.64    0.07 
  -4  -5   2    0.54    0.09 
   3   5  -2   42.28    2.55 
   3   5  -2   38.09    3.73 
  -3  -5   2   39.99    2.13 
  -3  -5   2   38.07    2.11 
   2   5  -2  279.33   16.77 
  -2  -5   2  257.77   13.92 
  -2  -5   2  256.05   13.95 
   1   5  -2   50.28    4.50 
   1   5  -2   44.17    3.57 
   1   5  -2   48.58    3.06 
   0   5  -2   14.02    0.88 
   0   5  -2   13.95    0.93 
   0   5  -2   12.29    1.02 
   0   5  -2   11.15    1.01 
   0   5  -2   13.39    0.85 
   0  -5   2   13.73    0.76 
  -1   5  -2    1.19    0.14 
  -1   5  -2    0.97    0.11 
  -1   5  -2    1.03    0.17 
  -2   5  -2    1.03    0.11 
  -2   5  -2    0.89    0.15 
  -2   5  -2    1.12    0.17 
  -3   5  -2    0.19    0.10 
  -3   5  -2    0.12    0.08 
  -4   5  -2    5.54    0.41 
   9   4  -2    6.31    0.34 
  -9  -4   2    6.10    0.40 
   8   4  -2   41.64    2.08 
   8   4  -2   40.82    2.16 
  -8  -4   2   42.74    2.04 
   7   4  -2    1.97    0.15 
   7   4  -2    1.61    0.12 
   7   4  -2    1.91    0.16 
   7   4  -2    1.51    0.18 
  -7  -4   2    1.77    0.12 
   6   4  -2   10.02    0.56 
   6   4  -2    9.75    0.52 
   6   4  -2    9.62    0.66 
   6   4  -2   10.75    0.69 
   6   4  -2    9.94    0.54 
  -6  -4   2   10.41    0.51 
  -6  -4   2   10.21    0.51 
   5   4  -2   18.58    1.18 
   5   4  -2   18.21    0.97 
  -5  -4   2   17.37    1.00 
  -5  -4   2   17.52    0.97 
   4   4  -2    5.37    0.37 
   4   4  -2    5.52    0.31 
  -4  -4   2    5.05    0.30 
  -4  -4   2    5.07    0.33 
   3   4  -2  102.85    6.47 
   3   4  -2  107.99    5.32 
   3   4  -2   94.70    9.36 
  -3  -4   2  101.95    5.37 
  -3  -4   2  104.00    5.39 
  -3  -4   2   98.69    6.30 
   2   4  -2    5.47    0.38 
   2   4  -2    6.02    0.60 
  -2  -4   2    5.45    0.30 
  -2  -4   2    5.41    0.32 
  -2  -4   2    4.52    0.37 
   1   4  -2  136.47    8.53 
   1   4  -2  133.67   12.38 
  -1  -4   2  122.84    8.29 
  -1  -4   2  133.53    7.08 
  -1  -4   2  145.25    7.10 
   0   4  -2   19.46    1.74 
   0   4  -2   16.25    1.15 
   0  -4   2   17.69    1.01 
   0  -4   2   17.33    0.95 
  -1   4  -2    0.75    0.21 
   1  -4   2    0.69    0.08 
   1  -4   2    0.65    0.08 
  -2   4  -2    7.96    0.61 
  -2   4  -2    6.97    0.48 
  -2   4  -2    7.36    0.55 
  -3   4  -2    0.66    0.14 
  -3   4  -2    0.98    0.14 
  -3   4  -2    0.74    0.09 
  -4   4  -2    0.11    0.09 
  -5   4  -2    0.65    0.11 
   5  -4   2    0.68    0.06 
   9   3  -2    7.89    0.39 
  -9  -3   2    7.75    0.40 
  -9  -3   2    7.04    0.48 
   8   3  -2    0.82    0.08 
   8   3  -2    0.83    0.13 
  -8  -3   2    1.00    0.07 
  -8  -3   2    0.87    0.08 
   7   3  -2    3.32    0.27 
   7   3  -2    3.68    0.25 
   7   3  -2    2.99    0.20 
   7   3  -2    3.26    0.30 
  -7  -3   2    3.24    0.19 
  -7  -3   2    3.35    0.36 
   6   3  -2  124.79    8.22 
   6   3  -2  131.92    6.89 
   6   3  -2  134.79    6.79 
  -6  -3   2  133.22    6.41 
  -6  -3   2  134.38    6.39 
  -6  -3   2  131.31    7.00 
   5   3  -2   24.28    1.18 
   5   3  -2   20.05    1.44 
  -5  -3   2   21.76    1.19 
  -5  -3   2   22.49    1.22 
   4   3  -2    1.28    0.10 
   4   3  -2    1.41    0.13 
  -4  -3   2    1.29    0.10 
  -4  -3   2    1.26    0.13 
   3   3  -2   34.21    1.78 
   3   3  -2   31.77    3.14 
   3   3  -2   28.91    2.16 
  -3  -3   2   37.29    1.80 
  -3  -3   2   36.76    1.81 
   2   3  -2   22.61    2.12 
   2   3  -2   21.89    1.45 
   2   3  -2   21.04    1.19 
  -2  -3   2   24.63    1.42 
  -2  -3   2   21.62    1.20 
  -2  -3   2   23.24    1.21 
   1   3  -2  456.86   38.42 
   1   3  -2  421.50   26.60 
  -1  -3   2  390.76   22.09 
  -1  -3   2  429.50   25.86 
  -1  -3   2  400.88   22.12 
   0   3  -2    1.46    0.22 
   0   3  -2    1.02    0.12 
   0  -3   2    1.13    0.09 
  -2   3  -2    4.20    0.49 
   2  -3   2    4.41    0.27 
   2  -3   2    4.02    0.25 
  -3   3  -2    0.10    0.07 
  -3   3  -2    0.09    0.08 
   3  -3   2    0.10    0.05 
  -4   3  -2   17.73    1.21 
  -4   3  -2   16.76    1.07 
   4  -3   2   17.38    0.94 
   4  -3   2   16.65    0.85 
  -5   3  -2    0.17    0.10 
   5  -3   2    0.19    0.04 
  -6   3  -2    0.15    0.08 
   6  -3   2    0.02    0.03 
   9   2  -2    3.67    0.19 
  -9  -2   2    3.91    0.20 
  -9  -2   2    2.97    0.24 
   8   2  -2    1.26    0.16 
  -8  -2   2    1.58    0.15 
  -8  -2   2    1.25    0.10 
   7   2  -2    2.39    0.15 
   7   2  -2    2.81    0.18 
   7   2  -2    2.77    0.20 
   7   2  -2    2.74    0.26 
  -7  -2   2    2.51    0.15 
  -7  -2   2    2.47    0.17 
   6   2  -2   74.24    4.65 
   6   2  -2   75.63    3.90 
   6   2  -2   72.97    3.62 
  -6  -2   2   69.85    3.84 
  -6  -2   2   80.81    6.07 
  -6  -2   2   72.67    3.63 
   5   2  -2    2.37    0.21 
   5   2  -2    3.06    0.18 
  -5  -2   2    2.98    0.22 
   4   2  -2   86.13    4.26 
   4   2  -2   76.36    4.19 
  -4  -2   2   80.91    4.26 
  -4  -2   2   77.29    4.23 
   3   2  -2    2.70    0.18 
  -3  -2   2    2.73    0.18 
  -3  -2   2    2.55    0.16 
   2   2  -2  109.12    7.13 
   2   2  -2  116.45   10.31 
   2   2  -2  105.65    5.94 
  -2  -2   2  115.06    6.94 
  -2  -2   2  121.33    5.94 
  -2  -2   2  107.20    5.92 
   1   2  -2  205.34   13.56 
   1   2  -2  199.67   19.58 
  -1  -2   2  220.14   13.18 
  -1  -2   2  230.67   11.28 
   0   2  -2   81.32    6.08 
   0   2  -2  109.18    8.81 
   0  -2   2   97.21    5.06 
  -1   2  -2  190.65   12.19 
  -1   2  -2  189.41   17.62 
   1  -2   2  195.59   10.70 
   1  -2   2  193.28   10.14 
  -2   2  -2  221.06   20.72 
  -2   2  -2  230.76   11.87 
  -2   2  -2  226.49   12.12 
   2  -2   2  238.29   11.94 
   2  -2   2  214.10   12.58 
  -3   2  -2    0.93    0.09 
   3  -2   2    0.76    0.09 
   3  -2   2    0.86    0.09 
  -4   2  -2    0.65    0.07 
  -4   2  -2    0.85    0.13 
  -4   2  -2    0.60    0.09 
   4  -2   2    0.64    0.09 
   4  -2   2    1.02    0.11 
  -5   2  -2   58.65    3.69 
  -5   2  -2   53.78    3.28 
  -5   2  -2   61.79    4.16 
  -5   2  -2   61.02    3.13 
   5  -2   2   62.88    2.95 
   5  -2   2   64.98    3.20 
  -6   2  -2   20.18    1.03 
  -6   2  -2   18.53    1.38 
   6  -2   2   20.59    0.98 
  -7   2  -2    7.00    0.53 
   7  -2   2    7.59    0.37 
   7  -2   2    7.55    0.48 
   8   1  -2   25.31    2.06 
   8   1  -2   29.59    1.37 
  -8  -1   2   27.41    1.72 
  -8  -1   2   29.33    1.45 
   7   1  -2   12.66    0.68 
   7   1  -2   11.88    0.62 
   7   1  -2   12.54    0.80 
  -7  -1   2   12.36    0.70 
  -7  -1   2   12.90    0.80 
  -7  -1   2   11.89    0.66 
   6   1  -2  155.41    7.60 
   6   1  -2  148.30    9.76 
   6   1  -2  162.41    8.18 
  -6  -1   2  164.71    8.41 
  -6  -1   2  151.66    8.06 
   5   1  -2  142.26    7.66 
   5   1  -2  144.38    7.78 
  -5  -1   2  153.29    7.88 
   4   1  -2  366.98   19.09 
   4   1  -2  368.02   19.33 
  -4  -1   2  364.34   19.33 
  -4  -1   2  366.00   19.62 
   3   1  -2  276.81   16.78 
   3   1  -2  310.75   15.92 
  -3  -1   2  318.18   15.92 
   2   1  -2   66.57    6.52 
   2   1  -2   74.31    3.77 
  -2  -1   2   72.75    3.77 
   1   1  -2  105.37    5.99 
   1   1  -2  121.33   10.39 
  -1  -1   2  118.28    7.00 
  -1  -1   2  108.98    5.99 
  -1   1  -2  570.15   47.65 
  -1   1  -2  457.54   27.45 
   1  -1   2  535.93   27.46 
  -2   1  -2  135.06   11.51 
  -2   1  -2  115.12    6.59 
   2  -1   2  122.83    6.99 
   2  -1   2  129.03    6.63 
  -3   1  -2    7.68    0.45 
  -3   1  -2    7.98    0.46 
   3  -1   2    8.37    0.47 
   3  -1   2    8.16    0.46 
  -4   1  -2  138.21    7.79 
   4  -1   2  147.88    7.68 
   4  -1   2  151.11    7.58 
   4  -1   2  142.82    8.08 
  -5   1  -2   12.35    0.69 
  -5   1  -2   12.60    0.81 
  -5   1  -2   12.99    0.92 
  -5   1  -2   13.03    0.74 
   5  -1   2   12.99    0.65 
   5  -1   2   13.44    0.72 
  -6   1  -2   14.75    1.11 
  -6   1  -2   14.64    0.97 
  -6   1  -2   14.20    0.89 
  -6   1  -2   16.19    0.83 
   6  -1   2   16.69    0.78 
   6  -1   2   16.53    0.86 
   6  -1   2   16.23    0.78 
  -7   1  -2   15.81    0.78 
  -7   1  -2   12.63    1.04 
   7  -1   2   15.76    0.74 
   8   0  -2    4.05    0.21 
   8   0  -2    3.39    0.33 
  -8   0   2    4.42    0.22 
  -8   0   2    3.93    0.27 
   7   0  -2    0.51    0.08 
   7   0  -2    0.39    0.05 
  -7   0   2    0.49    0.06 
  -7   0   2    0.40    0.09 
   6   0  -2   16.71    0.96 
   6   0  -2   18.06    0.88 
  -6   0   2   18.75    1.12 
  -6   0   2   16.61    0.93 
  -6   0   2   18.53    0.99 
   5   0  -2    1.03    0.14 
   5   0  -2    1.55    0.12 
  -5   0   2    1.42    0.12 
   4   0  -2   26.59    1.44 
   4   0  -2   25.07    1.39 
  -4   0   2   27.48    1.44 
   3   0  -2   51.39    2.70 
  -3   0   2   49.94    2.73 
   1   0  -2  877.90   51.55 
   1   0  -2  842.60   44.11 
  -1   0   2  791.56   44.11 
   0   0  -2  120.30    6.46 
   0   0   2  128.55    7.55 
   0   0   2  118.58    6.46 
  -1   0  -2   23.52    1.27 
   1   0   2   24.30    1.27 
  -2   0  -2  114.84    6.16 
   2   0   2  123.41    6.17 
   2   0   2  111.98    6.50 
  -3   0  -2  197.04   10.59 
  -3   0  -2  199.23   10.65 
   3   0   2  209.89   11.23 
   3   0   2  198.24   10.66 
   3   0   2  204.65   10.52 
  -4   0  -2    6.92    0.40 
   4   0   2    6.53    0.40 
   4   0   2    7.00    0.39 
   4   0   2    6.65    0.40 
  -5   0  -2    0.83    0.10 
   5   0   2    0.40    0.09 
   5   0   2    0.69    0.09 
  -6   0  -2   50.27    3.24 
  -6   0  -2   50.59    3.65 
  -6   0  -2   50.13    2.75 
  -6   0  -2   53.63    2.89 
   6   0   2   55.04    2.59 
   6   0   2   56.83    2.81 
   6   0   2   54.68    2.59 
  -7   0  -2    1.36    0.19 
  -7   0  -2    1.63    0.14 
  -7   0  -2    1.72    0.13 
   7   0   2    1.78    0.11 
  -8   0  -2    1.24    0.14 
  -8   0  -2    1.42    0.09 
   8   0   2    1.26    0.08 
   8   0   2    1.30    0.12 
   8   0   2    1.23    0.14 
   7  -1  -2    2.10    0.18 
   7  -1  -2    2.35    0.14 
  -7   1   2    2.23    0.14 
  -7   1   2    2.45    0.19 
   6  -1  -2   23.84    1.14 
  -6   1   2   23.83    1.44 
  -6   1   2   22.54    1.86 
  -6   1   2   22.05    1.21 
  -6   1   2   23.41    1.28 
   5  -1  -2  126.04    5.98 
   5  -1  -2  120.83    6.44 
   5  -1  -2  123.15    6.54 
  -5   1   2  113.61    7.47 
  -5   1   2  115.21    6.34 
  -5   1   2  125.70    6.63 
  -5   1   2  137.08    9.68 
   4  -1  -2   25.49    1.45 
   4  -1  -2   28.67    1.50 
  -4   1   2   28.37    1.50 
   3  -1  -2   11.81    0.69 
   3  -1  -2   13.49    0.72 
  -3   1   2   13.44    0.71 
   2  -1  -2    7.26    0.39 
  -2   1   2    6.50    0.65 
   1  -1  -2   14.07    0.68 
  -1   1   2   11.17    1.17 
  -1  -1  -2  854.68   45.02 
  -2  -1  -2  158.68    8.33 
   2   1   2  156.98    8.33 
  -3  -1  -2  411.80   23.62 
  -3  -1  -2  469.14   23.76 
   3   1   2  473.26   23.76 
   3   1   2  449.24   25.07 
  -4  -1  -2  232.74   12.36 
   4   1   2  236.69   13.02 
   4   1   2  233.46   12.21 
   4   1   2  233.23   12.36 
  -5  -1  -2  149.29    7.39 
   5   1   2  131.67    7.66 
   5   1   2  128.57    7.28 
   5   1   2  139.89    7.18 
  -6  -1  -2    0.74    0.15 
  -6  -1  -2    0.77    0.10 
  -6  -1  -2    0.97    0.12 
   6   1   2    0.77    0.07 
   6   1   2    0.85    0.10 
  -7  -1  -2   15.86    0.80 
  -7  -1  -2   15.51    0.85 
  -7  -1  -2   14.52    0.94 
  -7  -1  -2   14.03    1.07 
   7   1   2   15.80    0.82 
   7   1   2   14.45    0.74 
   7   1   2   14.92    1.13 
   7   1   2   14.30    0.97 
  -8  -1  -2   17.60    0.83 
  -8  -1  -2   14.56    0.97 
  -8  -1  -2   14.14    1.10 
   8   1   2   15.01    1.00 
   8   1   2   15.93    1.17 
   8   1   2   16.72    0.78 
   7  -2  -2   17.40    0.85 
  -7   2   2   17.02    1.07 
   6  -2  -2   22.12    1.05 
  -6   2   2   22.17    1.33 
  -6   2   2   19.76    1.11 
   5  -2  -2    3.87    0.24 
  -5   2   2    4.58    0.39 
  -5   2   2    3.70    0.24 
  -5   2   2    4.62    0.28 
  -5   2   2    4.65    0.31 
   4  -2  -2    2.27    0.16 
  -4   2   2    2.10    0.17 
  -4   2   2    2.64    0.24 
   3  -2  -2    9.92    0.56 
   3  -2  -2   10.61    0.58 
  -3   2   2   10.37    0.58 
   2  -2  -2   14.73    0.75 
  -2   2   2   14.27    0.75 
  -2   2   2   12.00    1.29 
   1  -2  -2    6.24    0.32 
  -1   2   2    5.26    0.57 
   0   2   2  170.01   15.56 
  -1  -2  -2  101.44    5.43 
   1   2   2  104.62    9.44 
  -2  -2  -2    1.62    0.11 
   2   2   2    1.44    0.10 
   2   2   2    1.56    0.10 
   2   2   2    1.60    0.18 
  -3  -2  -2  111.37    5.84 
   3   2   2  107.43    6.16 
   3   2   2  112.71    5.84 
  -4  -2  -2   37.50    2.05 
   4   2   2   39.27    2.14 
   4   2   2   37.64    2.01 
   4   2   2   38.23    2.05 
  -5  -2  -2   20.94    1.23 
  -5  -2  -2   23.44    1.23 
   5   2   2   21.88    1.27 
   5   2   2   23.35    1.20 
  -6  -2  -2   72.91    3.81 
   6   2   2   71.44    4.41 
   6   2   2   60.96    3.42 
   6   2   2   73.33    3.70 
   6   2   2   76.06    5.14 
   6   2   2   67.53    3.94 
  -7  -2  -2    1.70    0.21 
  -7  -2  -2    1.72    0.15 
  -7  -2  -2    1.48    0.13 
   7   2   2    1.67    0.21 
   7   2   2    1.71    0.15 
   7   2   2    1.78    0.17 
  -8  -2  -2    2.52    0.16 
  -8  -2  -2    2.18    0.23 
  -8  -2  -2    2.27    0.18 
   8   2   2    2.25    0.23 
   8   2   2    2.58    0.19 
   6  -3  -2   47.05    2.37 
  -6   3   2   50.44    2.98 
   5  -3  -2    0.63    0.08 
  -5   3   2    0.95    0.13 
  -5   3   2    0.73    0.09 
  -5   3   2    0.76    0.11 
  -4   3   2   23.13    1.35 
  -4   3   2   25.04    1.52 
  -4   3   2   25.04    1.71 
  -4   3   2   24.93    1.96 
   3  -3  -2   14.58    0.77 
  -3   3   2   14.88    1.15 
  -3   3   2   13.19    0.79 
   2  -3  -2   11.33    0.61 
  -2   3   2   10.72    0.61 
  -1   3   2    0.66    0.14 
  -1   3   2    0.55    0.06 
   0   3   2    4.29    0.32 
   0   3   2    5.38    0.52 
   1   3   2  183.83   16.85 
  -2  -3  -2   80.24    4.18 
   2   3   2   81.79    7.27 
   2   3   2   75.17    4.41 
  -3  -3  -2  207.59   10.79 
   3   3   2  188.57   18.71 
   3   3   2  217.24   11.38 
  -4  -3  -2   77.37    4.03 
   4   3   2   69.52    3.97 
   4   3   2   80.61    4.24 
  -5  -3  -2    6.78    0.41 
   5   3   2    6.63    0.41 
   5   3   2    6.64    0.38 
  -6  -3  -2    2.39    0.21 
  -6  -3  -2    2.39    0.16 
   6   3   2    2.80    0.19 
   6   3   2    2.93    0.22 
   6   3   2    2.69    0.19 
   6   3   2    3.11    0.26 
  -7  -3  -2   18.11    0.96 
   7   3   2   20.67    1.05 
   7   3   2   19.61    1.24 
   7   3   2   20.93    1.46 
   7   3   2   17.88    1.02 
  -8  -3  -2    3.22    0.17 
  -8  -3  -2    2.94    0.19 
  -8  -3  -2    2.77    0.27 
   8   3   2    3.14    0.23 
   8   3   2    3.05    0.19 
   8   3   2    2.96    0.28 
  -9  -3  -2   11.05    0.51 
  -9  -3  -2    8.25    0.60 
   9   3   2    9.90    0.62 
   9   3   2    9.55    0.73 
  -5   4   2    1.06    0.11 
  -5   4   2    1.07    0.13 
  -4   4   2  243.47   16.06 
  -4   4   2  228.31   14.30 
  -3   4   2   32.50    2.22 
  -3   4   2   32.27    1.98 
  -3   4   2   31.32    2.55 
  -2   4   2   31.11    2.47 
  -1   4   2    4.16    0.36 
  -1   4   2    4.31    0.49 
   0   4   2    3.29    0.24 
   1   4   2   29.77    1.90 
  -2  -4  -2   16.74    0.97 
   2   4   2   18.13    0.96 
   2   4   2   18.43    1.17 
   2   4   2   19.24    1.74 
  -3  -4  -2    9.75    0.48 
   3   4   2    8.39    0.46 
   3   4   2    7.36    0.84 
  -4  -4  -2   96.52    4.84 
   4   4   2   91.84    5.09 
   4   4   2   85.20    4.77 
  -5  -4  -2   89.73    4.37 
   5   4   2   71.86    4.29 
   5   4   2   84.34    4.59 
  -6  -4  -2   11.83    0.61 
   6   4   2   12.10    0.66 
   6   4   2   11.80    0.65 
   6   4   2   12.30    0.72 
   6   4   2   12.71    0.68 
   6   4   2   12.78    0.80 
   6   4   2   12.37    0.94 
  -7  -4  -2    1.11    0.10 
   7   4   2    0.99    0.11 
   7   4   2    1.43    0.17 
   7   4   2    1.40    0.14 
   7   4   2    1.45    0.13 
  -8  -4  -2    2.30    0.22 
   8   4   2    2.15    0.15 
   8   4   2    2.21    0.23 
   8   4   2    2.47    0.19 
  -9  -4  -2    0.03    0.05 
  -9  -4  -2   -0.03    0.03 
   9   4   2    0.01    0.05 
   9   4   2   -0.02    0.08 
   9   4   2    0.03    0.03 
  -5   5   2    7.76    0.49 
  -4   5   2    1.29    0.14 
  -4   5   2    1.29    0.13 
  -3   5   2   15.94    1.17 
  -3   5   2   17.20    1.04 
  -2   5   2  260.21   19.64 
  -2   5   2  261.48   18.41 
  -2   5   2  258.85   17.05 
  -2   5   2  221.31   15.18 
  -1   5   2    8.83    0.83 
  -1   5   2   10.84    0.67 
  -1   5   2   10.62    1.08 
  -1   5   2   11.08    0.86 
  -1   5   2   10.83    0.75 
  -1   5   2    9.88    0.81 
  -1   5   2   10.13    0.81 
  -1   5   2   10.52    0.88 
  -1   5   2   10.40    0.79 
  -1   5   2   10.42    0.79 
   0   5   2  177.92   14.29 
   0   5   2  152.32   11.67 
   0   5   2  134.99   12.15 
   1   5   2   96.19    7.30 
   1   5   2   91.97    6.14 
   1   5   2  101.91    8.95 
   2   5   2   87.82    8.57 
   2   5   2   97.54    7.01 
  -3  -5  -2    5.63    0.34 
   3   5   2    5.84    0.34 
   3   5   2    6.22    0.50 
   3   5   2    6.40    0.65 
  -4  -5  -2   74.32    3.84 
   4   5   2   70.06    3.78 
  -5  -5  -2    0.06    0.06 
   5   5   2    0.12    0.05 
  -6  -5  -2   28.54    1.46 
   6   5   2   30.46    2.20 
   6   5   2   29.73    1.55 
   6   5   2   30.55    1.59 
   6   5   2   31.78    1.89 
   6   5   2   30.16    1.57 
   6   5   2   27.65    1.66 
  -7  -5  -2   33.64    1.65 
   7   5   2   34.42    2.13 
   7   5   2   34.41    1.80 
   7   5   2   32.26    2.49 
   7   5   2   34.00    1.76 
  -8  -5  -2    0.02    0.04 
  -8  -5  -2    0.00    0.03 
   8   5   2   -0.02    0.04 
   8   5   2    0.10    0.06 
   8   5   2    0.01    0.09 
  -9  -5  -2    0.98    0.07 
   9   5   2    0.79    0.08 
   9   5   2    1.14    0.10 
   9   5   2    0.89    0.12 
  -3   6   2    8.55    0.63 
  -3   6   2    9.09    0.57 
  -2   6   2    1.30    0.18 
  -2   6   2    1.75    0.15 
  -2   6   2    1.80    0.17 
  -2   6   2    1.50    0.17 
  -1   6   2    0.13    0.09 
  -1   6   2   -0.04    0.07 
  -1   6   2    0.08    0.07 
   0   6   2  187.26   12.86 
   0   6   2  146.36   14.34 
   0   6   2  195.23   10.76 
   0   6   2  181.07   11.05 
   0   6   2  180.88   13.91 
   0   6   2  162.00   12.07 
   0   6   2  181.32   13.35 
   0   6   2  183.17   13.16 
   1   6   2   32.68    2.74 
   1   6   2   31.36    2.43 
   1   6   2   32.93    2.11 
   1   6   2   34.50    2.49 
   1   6   2   35.97    2.66 
   1   6   2   31.81    2.45 
   1   6   2   31.39    2.52 
   1   6   2   32.70    2.05 
   1   6   2   36.87    2.56 
   2   6   2   91.43    7.74 
   2   6   2  115.93    9.75 
   2   6   2  117.04    8.27 
   2   6   2   94.11    7.93 
   2   6   2  107.09    7.83 
   2   6   2  105.21    6.57 
   3   6   2    5.66    0.48 
   3   6   2    5.94    0.66 
   3   6   2    6.07    0.40 
   3   6   2    5.51    0.47 
   3   6   2    5.75    0.50 
   4   6   2   80.77    5.89 
   4   6   2   80.46    4.86 
   4   6   2   72.89    4.28 
   4   6   2   73.53    5.79 
   4   6   2   80.57    5.66 
   5   6   2   33.49    2.57 
   5   6   2   36.18    2.21 
   5   6   2   35.21    1.86 
   5   6   2   35.26    1.95 
  -6  -6  -2   54.94    2.62 
   6   6   2   53.75    2.78 
   6   6   2   51.69    3.93 
   6   6   2   52.55    3.38 
   6   6   2   53.90    2.84 
   6   6   2   53.86    4.10 
   6   6   2   55.62    2.97 
  -7  -6  -2    4.55    0.25 
   7   6   2    5.37    0.34 
   7   6   2    4.82    0.40 
   7   6   2    4.43    0.26 
   7   6   2    4.99    0.29 
   7   6   2    4.46    0.29 
  -8  -6  -2    1.63    0.10 
  -8  -6  -2    1.47    0.10 
   8   6   2    1.26    0.19 
   8   6   2    1.61    0.10 
   8   6   2    1.57    0.14 
   8   6   2    1.42    0.16 
  -9  -6  -2    3.48    0.18 
   9   6   2    3.40    0.19 
  -2   7   2    3.66    0.30 
  -2   7   2    3.99    0.32 
  -1   7   2    3.87    0.32 
  -1   7   2    3.63    0.29 
  -1   7   2    3.22    0.32 
   0   7   2    3.67    0.36 
   0   7   2    4.18    0.36 
   0   7   2    4.34    0.37 
   1   7   2   12.85    0.96 
   1   7   2   11.95    0.93 
   1   7   2   10.04    0.97 
   1   7   2   12.24    0.79 
   1   7   2   11.14    0.90 
   1   7   2   12.97    0.94 
   1   7   2   12.37    0.86 
   2   7   2   16.43    1.25 
   2   7   2   17.87    1.32 
   2   7   2   16.03    1.28 
   3   7   2   62.28    5.29 
   3   7   2   81.63    5.43 
   3   7   2   74.25    4.49 
   3   7   2   68.12    5.21 
  -4  -7  -2    1.74    0.14 
   4   7   2    1.72    0.19 
   4   7   2    1.96    0.14 
   4   7   2    1.63    0.20 
   4   7   2    1.57    0.18 
   4   7   2    1.34    0.17 
  -5  -7  -2    1.46    0.13 
   5   7   2    1.36    0.19 
   5   7   2    1.47    0.16 
   5   7   2    1.73    0.16 
   5   7   2    1.37    0.13 
  -6  -7  -2   22.88    1.12 
   6   7   2   23.78    1.28 
   6   7   2   24.64    1.46 
   6   7   2   22.42    1.77 
   6   7   2   20.54    1.69 
  -7  -7  -2    4.25    0.23 
  -7  -7  -2    4.18    0.23 
   7   7   2    4.33    0.35 
   7   7   2    3.93    0.39 
   7   7   2    4.30    0.27 
   7   7   2    5.15    0.31 
  -8  -7  -2   22.57    1.08 
  -8  -7  -2   23.73    1.08 
   8   7   2   22.55    1.39 
   8   7   2   19.76    1.61 
   8   7   2   21.30    1.22 
   0   8   2    2.56    0.23 
   0   8   2    3.03    0.26 
   1   8   2    4.53    0.37 
   1   8   2    4.85    0.35 
   1   8   2    3.62    0.37 
   2   8   2   22.22    1.74 
   2   8   2   22.51    1.46 
   2   8   2   23.91    1.73 
   3   8   2   18.95    1.16 
   3   8   2   17.33    1.37 
   3   8   2   17.59    1.36 
   4   8   2    8.91    0.69 
   4   8   2    8.75    0.58 
   4   8   2    8.27    0.50 
   5   8   2   89.57    6.03 
   5   8   2  103.52    5.31 
   6   8   2    2.64    0.20 
   6   8   2    2.53    0.17 
  -7  -8  -2    0.14    0.03 
   7   8   2    0.09    0.05 
   7   8   2    0.03    0.04 
   2   9   2    1.50    0.14 
   3   9   2    0.08    0.05 
   4   9   2   11.04    0.81 
   4   9   2   14.36    0.97 
   5   9   2   10.99    0.64 
   5   9   2   11.92    0.74 
   6   9   2    1.02    0.08 
   6   9   2    1.13    0.10 
  -6  -8   3   30.09    1.47 
   5   8  -3   18.51    1.41 
   4   8  -3   15.87    0.90 
   4   8  -3   12.13    1.07 
   2   8  -3    6.98    0.55 
  -7  -7   3   34.82    1.70 
  -6  -7   3    1.51    0.10 
   5   7  -3    1.32    0.17 
  -5  -7   3    1.18    0.09 
   4   7  -3   22.28    1.60 
   4   7  -3   19.34    1.32 
   3   7  -3    8.91    0.66 
   3   7  -3    7.16    0.53 
   2   7  -3   40.82    3.48 
   2   7  -3   53.10    3.53 
   1   7  -3   48.36    3.88 
   1   7  -3   55.43    3.86 
   0   7  -3   19.03    1.53 
   0   7  -3   21.56    1.41 
  -1   7  -3   43.06    3.10 
  -1   7  -3   47.55    3.35 
   8   6  -3    0.10    0.04 
  -8  -6   3    0.05    0.10 
  -8  -6   3    0.09    0.03 
  -8  -6   3    0.04    0.03 
   7   6  -3    0.38    0.06 
  -7  -6   3    0.39    0.05 
  -7  -6   3    0.47    0.05 
  -6  -6   3   98.92    4.78 
  -6  -6   3   97.69    4.79 
   5   6  -3   13.03    0.70 
   5   6  -3   11.61    0.64 
   5   6  -3   12.66    0.96 
   5   6  -3   11.44    0.81 
  -5  -6   3   12.19    0.68 
  -5  -6   3   11.78    0.60 
   4   6  -3    9.68    0.66 
   4   6  -3   10.04    0.80 
   4   6  -3   10.23    0.58 
  -4  -6   3   10.12    0.57 
   3   6  -3    1.42    0.16 
   3   6  -3    1.97    0.21 
   3   6  -3    1.41    0.17 
   3   6  -3    1.63    0.14 
  -3  -6   3    1.55    0.13 
   2   6  -3    1.63    0.21 
   2   6  -3    2.07    0.22 
   2   6  -3    1.71    0.17 
   2   6  -3    1.55    0.17 
  -2  -6   3    1.68    0.15 
   1   6  -3    0.98    0.16 
   1   6  -3    0.97    0.17 
   1   6  -3    0.96    0.14 
  -1  -6   3    0.94    0.11 
   0   6  -3    3.68    0.35 
   0   6  -3    3.68    0.30 
  -1   6  -3    1.33    0.18 
  -1   6  -3    1.34    0.16 
  -2   6  -3   10.11    0.71 
  -2   6  -3    9.68    0.77 
   8   5  -3    9.06    0.46 
  -8  -5   3    8.94    0.44 
  -8  -5   3    9.30    0.43 
  -8  -5   3    7.15    0.75 
   7   5  -3   38.64    2.07 
   7   5  -3   38.97    2.03 
  -7  -5   3   39.81    1.92 
  -7  -5   3   38.77    1.91 
   6   5  -3    1.46    0.18 
   6   5  -3    1.77    0.15 
   6   5  -3    2.03    0.16 
   6   5  -3    2.06    0.13 
  -6  -5   3    1.87    0.12 
  -6  -5   3    1.84    0.12 
  -6  -5   3    1.78    0.14 
   5   5  -3   20.95    1.11 
   5   5  -3   20.76    1.15 
   5   5  -3   21.30    1.20 
   5   5  -3   23.62    1.40 
  -5  -5   3   19.75    1.05 
  -5  -5   3   19.93    1.05 
  -5  -5   3   23.19    1.16 
   4   5  -3   40.46    2.43 
   4   5  -3   35.69    2.08 
  -4  -5   3   38.63    2.01 
  -4  -5   3   35.58    2.03 
   3   5  -3    2.32    0.25 
   3   5  -3    2.56    0.36 
   3   5  -3    2.65    0.22 
  -3  -5   3    2.63    0.17 
  -3  -5   3    2.50    0.19 
   2   5  -3   36.71    2.40 
  -2  -5   3   38.78    2.00 
  -2  -5   3   36.19    1.98 
   1   5  -3   62.72    4.18 
   1   5  -3   54.26    4.22 
   1   5  -3   57.92    3.61 
   1   5  -3   53.36    5.28 
   1   5  -3   50.48    3.53 
  -1  -5   3   58.88    3.17 
   0   5  -3   21.01    1.59 
   0   5  -3   21.76    1.73 
   0   5  -3   24.97    1.50 
   0  -5   3   23.63    1.30 
  -1   5  -3   54.55    3.47 
  -1   5  -3   42.89    3.75 
   1  -5   3   53.96    2.84 
  -2   5  -3   35.59    2.81 
  -2   5  -3   39.47    2.59 
  -3   5  -3    0.57    0.13 
  -3   5  -3    0.83    0.12 
  -4   5  -3    3.26    0.25 
   9   4  -3    0.52    0.06 
  -9  -4   3    0.55    0.08 
   8   4  -3   13.78    0.67 
   8   4  -3   13.47    0.70 
  -8  -4   3   11.09    1.12 
  -8  -4   3   14.43    0.66 
   7   4  -3   10.30    0.55 
   7   4  -3   10.73    0.58 
   7   4  -3   11.33    0.60 
  -7  -4   3   11.02    0.55 
  -7  -4   3   10.59    0.54 
   6   4  -3   16.77    0.87 
   6   4  -3   16.30    0.97 
   6   4  -3   17.46    0.91 
   6   4  -3   18.13    1.15 
   6   4  -3   17.51    0.94 
  -6  -4   3   17.41    0.86 
  -6  -4   3   17.43    0.86 
   5   4  -3    1.14    0.14 
   5   4  -3    1.17    0.11 
  -5  -4   3    1.10    0.13 
  -5  -4   3    1.10    0.10 
   4   4  -3    0.39    0.08 
   4   4  -3    0.28    0.06 
  -4  -4   3    0.43    0.08 
  -4  -4   3    0.44    0.06 
   3   4  -3   61.03    5.73 
   3   4  -3   61.30    3.94 
  -3  -4   3   61.59    3.29 
  -3  -4   3   62.83    3.27 
   2   4  -3   11.22    1.23 
   2   4  -3   13.02    0.82 
  -2  -4   3   13.29    0.69 
  -2  -4   3   10.67    0.80 
  -2  -4   3   13.01    0.67 
   1   4  -3    6.77    0.68 
   1   4  -3    6.14    0.42 
  -1  -4   3    5.66    0.35 
  -1  -4   3    5.69    0.41 
  -1  -4   3    5.99    0.34 
   0   4  -3   29.94    1.99 
   0   4  -3   32.98    2.95 
   0  -4   3   29.52    1.74 
   0  -4   3   30.97    1.65 
  -1   4  -3    3.02    0.44 
  -1   4  -3    3.22    0.31 
   1  -4   3    3.56    0.22 
   1  -4   3    3.41    0.21 
  -2   4  -3   25.02    1.73 
  -2   4  -3   22.09    1.59 
   2  -4   3   21.29    1.30 
  -3   4  -3   24.62    1.81 
  -3   4  -3   23.17    1.67 
  -4   4  -3   20.08    1.53 
  -4   4  -3   21.31    1.41 
   4  -4   3   19.32    1.00 
  -5   4  -3    6.73    0.48 
   5  -4   3    6.59    0.33 
   5  -4   3    6.44    0.33 
   9   3  -3   12.34    0.62 
  -9  -3   3   12.49    0.77 
   8   3  -3    0.06    0.04 
   8   3  -3    0.08    0.04 
  -8  -3   3    0.01    0.04 
  -8  -3   3    0.08    0.04 
   7   3  -3   30.46    2.25 
   7   3  -3   36.91    1.85 
   7   3  -3   36.02    1.81 
  -7  -3   3   36.55    1.71 
  -7  -3   3   34.29    2.89 
   6   3  -3   18.18    0.98 
   6   3  -3   19.39    1.01 
   6   3  -3   18.28    1.23 
  -6  -3   3   19.00    0.93 
  -6  -3   3   18.60    0.92 
   5   3  -3    7.77    0.43 
   5   3  -3    7.79    0.52 
  -5  -3   3    7.51    0.42 
  -5  -3   3    7.15    0.46 
   4   3  -3    1.23    0.09 
   4   3  -3    1.20    0.13 
  -4  -3   3    1.06    0.09 
  -4  -3   3    1.33    0.13 
   3   3  -3   12.61    0.74 
   3   3  -3   10.62    0.60 
  -3  -3   3   10.38    0.61 
  -3  -3   3   11.01    0.63 
   2   3  -3   78.58    4.92 
   2   3  -3   80.21    7.14 
  -2  -3   3   73.98    4.08 
  -2  -3   3   79.39    4.10 
  -2  -3   3   74.52    4.79 
   1   3  -3  923.66   57.48 
   1   3  -3 1000.00   82.93 
  -1  -3   3  883.02   47.73 
  -1  -3   3  896.14   55.86 
  -1  -3   3  833.60   47.80 
   0   3  -3    0.15    0.06 
   0   3  -3    0.44    0.15 
   0  -3   3    0.10    0.04 
   0  -3   3    0.13    0.04 
  -1   3  -3   36.29    3.30 
  -1   3  -3   32.77    2.24 
   1  -3   3   37.32    1.97 
   1  -3   3   33.52    1.87 
  -2   3  -3   12.69    1.27 
   2  -3   3   12.99    0.73 
   2  -3   3   11.85    0.69 
  -3   3  -3    2.72    0.24 
  -3   3  -3    2.34    0.16 
  -3   3  -3    2.78    0.26 
  -4   3  -3    9.98    0.68 
  -4   3  -3    9.42    0.74 
   4  -3   3    8.89    0.47 
   4  -3   3    8.82    0.53 
  -5   3  -3   12.20    0.90 
   5  -3   3   12.99    0.63 
  -6   3  -3    7.54    0.54 
   6  -3   3    7.41    0.38 
  -9  -2   3    0.56    0.07 
   8   2  -3   13.79    1.15 
  -8  -2   3   16.18    0.81 
  -8  -2   3   16.47    0.98 
   7   2  -3   35.07    1.76 
   7   2  -3   35.83    2.45 
   7   2  -3   31.55    1.62 
  -7  -2   3   31.98    2.74 
  -7  -2   3   31.32    1.63 
  -7  -2   3   33.05    1.72 
   6   2  -3   49.85    2.52 
   6   2  -3   53.47    2.73 
  -6  -2   3   58.71    4.25 
  -6  -2   3   49.46    2.53 
  -6  -2   3   47.43    2.68 
   5   2  -3   35.14    1.84 
  -5  -2   3   34.37    1.89 
   4   2  -3    2.54    0.16 
   4   2  -3    2.53    0.19 
  -4  -2   3    2.46    0.18 
  -4  -2   3    2.43    0.15 
   3   2  -3    1.50    0.12 
   3   2  -3    1.44    0.10 
  -3  -2   3    1.49    0.12 
  -3  -2   3    1.37    0.10 
   2   2  -3   45.67    3.13 
   2   2  -3   52.92    4.55 
   2   2  -3   49.53    2.62 
  -2  -2   3   48.25    2.60 
  -2  -2   3   50.06    2.62 
  -2  -2   3   48.84    3.06 
   1   2  -3  104.44    8.55 
   1   2  -3   94.46    5.90 
  -1  -2   3   80.29    4.89 
  -1  -2   3   93.42    4.91 
  -1  -2   3   92.09    5.74 
   0   2  -3  677.70   63.05 
   0   2  -3  651.84   43.69 
   0  -2   3  739.97   36.35 
  -1   2  -3  748.30   49.22 
  -1   2  -3  751.26   40.72 
  -1   2  -3  826.24   71.03 
   1  -2   3  778.55   40.94 
   1  -2   3  780.85   43.23 
  -2   2  -3   65.85    5.79 
  -2   2  -3   62.21    3.30 
  -2   2  -3   59.19    3.36 
   2  -2   3   64.67    3.32 
   2  -2   3   60.49    3.50 
  -3   2  -3   80.82    4.72 
   3  -2   3   90.32    4.91 
   3  -2   3   91.99    4.66 
  -4   2  -3   32.78    1.68 
  -4   2  -3   28.66    1.76 
   4  -2   3   32.86    1.72 
   4  -2   3   34.37    1.58 
  -5   2  -3    0.31    0.08 
  -5   2  -3    0.20    0.06 
  -5   2  -3    0.32    0.11 
   5  -2   3    0.25    0.08 
   5  -2   3    0.29    0.05 
  -6   2  -3    4.49    0.36 
  -6   2  -3    4.65    0.25 
   6  -2   3    4.54    0.25 
   6  -2   3    4.45    0.24 
   8   1  -3   11.86    0.56 
   8   1  -3   10.17    0.85 
  -8  -1   3   12.15    0.59 
  -8  -1   3   12.00    0.71 
  -8  -1   3    9.56    0.91 
   7   1  -3   -0.05    0.04 
  -7  -1   3    0.13    0.09 
  -7  -1   3   -0.07    0.05 
   6   1  -3   16.95    0.86 
   6   1  -3   16.86    0.94 
  -6  -1   3   16.74    0.96 
  -6  -1   3   17.74    0.92 
  -6  -1   3   18.35    1.47 
   5   1  -3   45.62    2.60 
   5   1  -3   49.24    2.54 
  -5  -1   3   49.92    2.61 
   4   1  -3   77.92    4.08 
   4   1  -3   79.77    4.15 
  -4  -1   3   77.43    4.15 
  -4  -1   3   76.89    4.19 
   3   1  -3  118.94    5.97 
  -3  -1   3  105.98    5.94 
  -3  -1   3  113.57    5.97 
   2   1  -3    0.22    0.05 
  -2  -1   3    0.24    0.05 
   1   1  -3  354.73   18.84 
  -1  -1   3  360.51   18.84 
  -1  -1   3  357.09   22.01 
   0   1  -3   29.05    1.66 
   0  -1   3   33.63    1.67 
  -1   1  -3    7.97    0.48 
  -1   1  -3   10.27    0.88 
   1  -1   3    8.99    0.49 
   1  -1   3    8.38    0.51 
  -2   1  -3    3.31    0.21 
   2  -1   3    3.57    0.21 
   2  -1   3    3.28    0.21 
  -3   1  -3   98.95    5.63 
  -3   1  -3  105.71    5.51 
   3  -1   3  106.07    5.55 
   3  -1   3  107.94    5.84 
  -4   1  -3    1.51    0.14 
   4  -1   3    1.71    0.14 
   4  -1   3    1.76    0.14 
   4  -1   3    1.56    0.14 
  -5   1  -3   66.86    3.62 
  -5   1  -3   67.41    3.45 
  -5   1  -3   67.43    4.57 
   5  -1   3   64.70    3.51 
   5  -1   3   66.62    3.25 
  -6   1  -3   18.99    0.97 
  -6   1  -3   16.01    1.03 
  -6   1  -3   18.57    1.30 
   6  -1   3   19.09    0.92 
   6  -1   3   19.18    0.92 
   6  -1   3   18.23    1.00 
  -7   1  -3   28.06    1.39 
  -7   1  -3   25.52    1.85 
   7  -1   3   28.23    1.69 
   7  -1   3   24.37    1.97 
   7  -1   3   27.76    1.32 
   8   0  -3    9.66    0.48 
   8   0  -3    8.31    0.73 
  -8   0   3   10.44    0.51 
  -8   0   3    9.84    0.61 
   7   0  -3    1.96    0.12 
  -7   0   3    1.95    0.17 
  -7   0   3    1.87    0.23 
  -7   0   3    1.81    0.13 
   6   0  -3  115.56    5.47 
  -6   0   3  109.98    5.80 
  -6   0   3  106.63    6.84 
  -6   0   3  117.91    6.06 
   5   0  -3   37.06    2.02 
   5   0  -3   35.62    1.95 
  -5   0   3   38.35    2.02 
   4   0  -3    8.32    0.48 
   4   0  -3    8.96    0.52 
  -4   0   3    9.13    0.50 
   3   0  -3  334.26   17.92 
  -3   0   3  345.37   18.20 
   2   0  -3  450.18   23.36 
  -2   0   3  436.13   23.35 
   1   0  -3  820.09   43.99 
   1   0  -3  853.60   51.40 
  -1   0   3  835.86   43.98 
  -1   0   3  829.82   51.40 
   0   0  -3  253.66   13.76 
   0   0   3  276.18   16.08 
   0   0   3  253.39   13.76 
  -1   0  -3   91.23    4.80 
   1   0   3   90.70    4.80 
  -2   0  -3   75.17    4.01 
   2   0   3   73.41    4.23 
   2   0   3   79.11    4.02 
  -3   0  -3  544.15   29.63 
   3   0   3  597.52   31.44 
   3   0   3  574.16   29.45 
   3   0   3  545.15   29.79 
  -4   0  -3   51.85    2.71 
   4   0   3   49.62    2.74 
   4   0   3   51.29    2.87 
   4   0   3   51.98    2.70 
  -5   0  -3    1.24    0.17 
  -5   0  -3    0.99    0.12 
   5   0   3    0.96    0.11 
   5   0   3    1.22    0.12 
   5   0   3    1.00    0.12 
  -6   0  -3    1.66    0.21 
  -6   0  -3    2.21    0.18 
  -6   0  -3    1.81    0.15 
   6   0   3    1.88    0.13 
   6   0   3    2.01    0.13 
   6   0   3    2.24    0.17 
  -7   0  -3   -0.01    0.11 
  -7   0  -3    0.14    0.06 
   7   0   3    0.18    0.10 
   7   0   3    0.05    0.06 
   7   0   3    0.10    0.04 
  -8   0  -3    9.65    0.70 
  -8   0  -3   11.25    0.52 
   8   0   3    9.96    0.64 
   8   0   3    8.78    0.74 
   7  -1  -3    1.04    0.08 
  -7   1   3    1.07    0.12 
  -7   1   3    0.99    0.08 
   6  -1  -3    0.03    0.04 
  -6   1   3    0.25    0.11 
  -6   1   3    0.15    0.05 
  -6   1   3    0.17    0.07 
  -6   1   3    0.11    0.07 
   5  -1  -3   16.66    0.81 
  -5   1   3   15.24    1.02 
  -5   1   3   16.97    1.32 
  -5   1   3   17.70    0.92 
  -5   1   3   14.94    0.85 
   4  -1  -3   43.14    2.32 
  -4   1   3   42.83    2.33 
   3  -1  -3   73.86    3.94 
  -3   1   3   74.48    3.99 
   2  -1  -3    2.42    0.16 
  -2   1   3    2.36    0.15 
   1  -1  -3  163.88    8.64 
   0  -1  -3  642.05   35.36 
   0  -1  -3  700.49   41.33 
  -1  -1  -3   86.35    4.56 
  -2  -1  -3  156.16    8.06 
   2   1   3  153.23    8.06 
   2   1   3  148.64    8.49 
  -3  -1  -3    0.30    0.06 
  -3  -1  -3    0.30    0.05 
   3   1   3    0.31    0.06 
   3   1   3    0.40    0.05 
  -4  -1  -3    6.18    0.37 
  -4  -1  -3    5.99    0.36 
   4   1   3    6.73    0.38 
   4   1   3    6.39    0.36 
   4   1   3    6.44    0.38 
  -5  -1  -3    6.58    0.38 
   5   1   3    6.05    0.36 
   5   1   3    5.79    0.37 
   5   1   3    5.82    0.38 
  -6  -1  -3    2.29    0.25 
  -6  -1  -3    2.72    0.20 
  -6  -1  -3    2.43    0.17 
   6   1   3    2.61    0.19 
   6   1   3    2.53    0.15 
   6   1   3    2.36    0.15 
  -7  -1  -3    3.37    0.30 
  -7  -1  -3    3.42    0.24 
  -7  -1  -3    3.60    0.22 
   7   1   3    3.26    0.26 
   7   1   3    3.45    0.19 
   7   1   3    3.34    0.31 
   7   1   3    3.50    0.23 
  -8  -1  -3    9.76    0.46 
  -8  -1  -3    7.75    0.62 
   8   1   3    8.82    0.56 
   8   1   3    7.94    0.66 
   7  -2  -3  108.37    5.20 
  -7   2   3  105.70    6.50 
   6  -2  -3    3.45    0.19 
  -6   2   3    3.23    0.25 
  -6   2   3    3.04    0.19 
  -6   2   3    3.58    0.31 
   5  -2  -3   70.42    3.47 
  -5   2   3   74.62    3.86 
  -5   2   3   70.91    4.34 
  -5   2   3   73.66    5.62 
  -5   2   3   66.54    3.67 
   4  -2  -3    0.61    0.09 
  -4   2   3    0.46    0.10 
  -4   2   3    0.40    0.07 
   3  -2  -3   72.73    3.82 
  -3   2   3   71.03    3.87 
   2  -2  -3    1.14    0.09 
  -2   2   3    1.13    0.09 
  -2   2   3    0.95    0.15 
   1  -2  -3    5.04    0.27 
  -1   2   3    4.57    0.48 
   0  -2  -3    1.45    0.09 
  -1  -2  -3   21.44    1.12 
   1   2   3   20.91    1.97 
  -2  -2  -3    9.60    0.50 
   2   2   3    9.45    0.50 
   2   2   3    8.55    0.52 
  -3  -2  -3   40.41    2.18 
   3   2   3   40.40    2.29 
   3   2   3   41.75    2.18 
  -4  -2  -3   16.84    1.00 
  -4  -2  -3   18.52    1.02 
   4   2   3   20.07    1.07 
   4   2   3   19.25    1.03 
   4   2   3   19.17    1.00 
  -5  -2  -3    3.39    0.24 
   5   2   3    3.68    0.24 
   5   2   3    3.84    0.23 
  -6  -2  -3    0.07    0.06 
  -6  -2  -3    0.06    0.07 
   6   2   3    0.15    0.06 
   6   2   3    0.13    0.06 
   6   2   3    0.16    0.07 
   6   2   3    0.19    0.10 
  -7  -2  -3    3.00    0.20 
  -7  -2  -3    3.42    0.23 
  -7  -2  -3    2.88    0.29 
   7   2   3    3.19    0.22 
   7   2   3    3.38    0.30 
   7   2   3    2.89    0.24 
  -8  -2  -3    0.10    0.10 
  -8  -2  -3    0.05    0.05 
   8   2   3    0.16    0.06 
   8   2   3    0.13    0.10 
   6  -3  -3    1.77    0.12 
  -6   3   3    2.01    0.16 
   5  -3  -3  153.86    7.43 
  -5   3   3  150.23    9.29 
  -5   3   3  154.95   12.01 
  -4   3   3    6.81    0.41 
  -4   3   3    7.36    0.59 
  -4   3   3    6.67    0.46 
  -3   3   3    9.56    0.60 
  -3   3   3   11.57    0.87 
   2  -3  -3   21.96    1.19 
  -2   3   3   22.14    1.21 
  -1   3   3   27.24    2.58 
  -1   3   3   27.82    1.49 
   0   3   3  295.56   27.05 
   1   3   3  312.88   28.62 
  -2  -3  -3   57.66    3.11 
   2   3   3   59.78    5.42 
   2   3   3   59.06    3.28 
  -3  -3  -3   13.60    0.75 
   3   3   3   13.76    0.78 
  -4  -3  -3   30.99    1.66 
   4   3   3   29.23    1.62 
   4   3   3   32.01    1.74 
  -5  -3  -3   10.34    0.58 
   5   3   3   10.10    0.59 
   5   3   3    9.71    0.55 
  -6  -3  -3    1.89    0.18 
  -6  -3  -3    1.86    0.12 
  -6  -3  -3    2.04    0.16 
   6   3   3    1.85    0.14 
   6   3   3    1.87    0.16 
   6   3   3    1.95    0.14 
   6   3   3    2.47    0.22 
   6   3   3    1.91    0.15 
   6   3   3    2.00    0.18 
  -7  -3  -3    3.09    0.18 
   7   3   3    2.98    0.19 
   7   3   3    3.07    0.24 
   7   3   3    3.13    0.21 
   7   3   3    3.30    0.30 
   7   3   3    2.93    0.22 
  -8  -3  -3    4.13    0.27 
  -8  -3  -3    3.72    0.33 
   8   3   3    3.88    0.28 
   8   3   3    3.77    0.23 
   8   3   3    4.08    0.34 
   9   3   3    0.04    0.04 
   9   3   3    0.02    0.07 
  -5   4   3   15.32    0.96 
  -4   4   3   24.48    1.68 
  -4   4   3   23.84    1.50 
  -4   4   3   24.09    1.93 
  -3   4   3   75.54    5.68 
  -3   4   3   71.69    4.93 
  -3   4   3   68.93    4.39 
  -2   4   3   15.38    1.27 
  -2   4   3   16.10    0.87 
  -1   4   3   41.87    4.09 
  -1   4   3   45.78    3.34 
   0   4   3    3.15    0.39 
   1   4   3  164.09   15.07 
  -2  -4  -3  311.86   16.33 
   2   4   3  319.99   28.37 
   2   4   3  297.93   16.15 
  -3  -4  -3    1.15    0.10 
   3   4   3    1.25    0.19 
   3   4   3    1.02    0.08 
  -4  -4  -3   14.66    0.80 
   4   4   3   15.26    0.83 
   4   4   3   13.41    0.77 
  -5  -4  -3    5.68    0.35 
   5   4   3    5.37    0.32 
   5   4   3    5.57    0.35 
  -6  -4  -3   21.88    1.08 
   6   4   3   22.16    1.26 
   6   4   3   23.22    1.63 
   6   4   3   21.49    1.17 
   6   4   3   20.58    1.14 
   6   4   3   21.47    1.39 
   6   4   3   22.09    1.16 
  -7  -4  -3   51.77    2.57 
   7   4   3   53.84    2.78 
   7   4   3   52.78    3.31 
   7   4   3   55.15    3.86 
   7   4   3   49.83    2.73 
  -8  -4  -3    6.49    0.53 
   8   4   3    7.15    0.48 
   8   4   3    7.53    0.39 
   8   4   3    7.04    0.56 
  -9  -4  -3    9.71    0.48 
   9   4   3    8.81    0.72 
   9   4   3   10.48    0.51 
   9   4   3    9.34    0.62 
  -5   5   3   22.21    1.36 
  -4   5   3   14.35    0.87 
  -4   5   3   13.19    0.97 
  -3   5   3   54.57    3.28 
  -3   5   3   50.42    4.23 
  -3   5   3   55.60    3.68 
  -2   5   3  179.93   15.30 
  -2   5   3  200.52   11.84 
  -2   5   3  199.87   15.79 
  -2   5   3  189.23   13.29 
  -2   5   3  205.62   14.02 
  -1   5   3    0.79    0.14 
  -1   5   3    1.00    0.13 
  -1   5   3    1.01    0.15 
  -1   5   3    0.90    0.12 
  -1   5   3    1.12    0.15 
  -1   5   3    1.01    0.15 
  -1   5   3    0.88    0.13 
  -1   5   3    1.02    0.24 
  -1   5   3    1.19    0.14 
  -1   5   3    1.09    0.16 
   0   5   3   15.95    1.19 
   0   5   3   14.12    1.49 
   1   5   3  118.43   10.52 
   1   5   3  109.41    8.59 
   2   5   3   49.73    3.79 
   2   5   3   49.90    4.65 
  -3  -5  -3   87.51    4.55 
   3   5   3   76.10    6.50 
   3   5   3   94.56    7.96 
   3   5   3   86.07    4.50 
  -4  -5  -3    0.31    0.07 
   4   5   3    0.44    0.06 
  -5  -5  -3   75.35    3.82 
   5   5   3   69.59    4.49 
   5   5   3   70.26    3.76 
  -6  -5  -3   16.23    0.83 
   6   5   3   17.21    0.89 
   6   5   3   18.11    1.08 
   6   5   3   16.07    0.91 
   6   5   3   17.47    1.26 
   6   5   3   15.65    0.94 
   6   5   3   16.75    0.88 
  -7  -5  -3    1.78    0.12 
   7   5   3    1.67    0.13 
   7   5   3    1.98    0.17 
   7   5   3    1.68    0.20 
   7   5   3    1.90    0.15 
  -8  -5  -3   14.35    0.67 
   8   5   3   13.74    0.88 
   8   5   3   13.63    0.72 
   8   5   3   12.34    1.02 
  -9  -5  -3   20.29    0.94 
   9   5   3   18.87    1.21 
   9   5   3   20.34    0.99 
   9   5   3   16.85    1.41 
  -4   6   3    7.26    0.46 
  -3   6   3   16.48    1.02 
  -3   6   3   16.27    1.14 
  -2   6   3    0.20    0.09 
  -2   6   3    0.22    0.08 
  -2   6   3    0.25    0.09 
  -2   6   3    0.21    0.08 
  -1   6   3  146.87    8.14 
  -1   6   3  120.97   10.51 
  -1   6   3  143.75    9.95 
  -1   6   3  120.51    9.85 
  -1   6   3  130.57    9.63 
  -1   6   3  140.13    9.13 
   0   6   3  317.42   25.26 
   0   6   3  328.29   19.53 
   0   6   3  371.21   24.26 
   0   6   3  297.08   23.14 
   0   6   3  363.31   23.36 
   0   6   3  271.97   20.07 
   0   6   3  282.18   23.67 
   0   6   3  346.76   26.06 
   1   6   3   40.03    2.96 
   1   6   3   45.11    3.52 
   1   6   3   42.08    3.20 
   1   6   3   47.89    3.13 
   1   6   3   36.11    3.15 
   1   6   3   44.31    3.23 
   1   6   3   44.23    3.41 
   1   6   3   42.45    3.29 
   1   6   3   45.29    2.64 
   2   6   3   69.61    5.42 
   2   6   3   72.56    4.98 
   2   6   3   65.64    4.92 
   2   6   3   58.74    5.25 
   2   6   3   66.31    4.17 
   3   6   3    6.02    0.48 
   3   6   3    5.81    0.41 
   3   6   3    6.29    0.52 
   3   6   3    6.34    0.67 
   3   6   3    5.48    0.48 
   4   6   3   45.68    2.63 
   4   6   3   48.32    3.48 
   4   6   3   48.46    3.62 
   5   6   3   15.01    1.16 
   5   6   3   14.42    0.94 
   5   6   3   14.55    1.09 
   5   6   3   14.15    0.79 
   5   6   3   14.47    0.83 
  -6  -6  -3    1.57    0.11 
   6   6   3    1.71    0.14 
   6   6   3    1.86    0.16 
   6   6   3    1.39    0.12 
   6   6   3    1.73    0.19 
   6   6   3    1.77    0.14 
   6   6   3    1.72    0.22 
   6   6   3    1.80    0.12 
  -7  -6  -3   33.86    1.58 
   7   6   3   32.75    2.04 
   7   6   3   32.79    2.38 
   7   6   3   31.09    1.79 
   7   6   3   31.00    1.71 
   7   6   3   31.85    1.67 
  -8  -6  -3    6.93    0.36 
  -8  -6  -3    7.60    0.36 
   8   6   3    7.19    0.38 
   8   6   3    6.21    0.55 
   8   6   3    7.65    0.48 
  -9  -6  -3    4.09    0.21 
  -2   7   3   30.20    2.08 
  -1   7   3   10.43    0.77 
  -1   7   3    9.85    0.71 
  -1   7   3    9.24    0.63 
   0   7   3   20.77    1.41 
   0   7   3   18.16    1.52 
   0   7   3   19.51    1.40 
   0   7   3   15.83    1.48 
   0   7   3   17.49    1.29 
   1   7   3   42.84    3.68 
   1   7   3   48.20    3.38 
   1   7   3   49.76    3.49 
   1   7   3   42.63    3.55 
   1   7   3   48.97    2.93 
   2   7   3  195.55   10.68 
   2   7   3  196.17   11.68 
   2   7   3  145.55   12.42 
   2   7   3  149.00   12.90 
   2   7   3  182.00   12.72 
   2   7   3  156.50   12.60 
   2   7   3  173.26   12.31 
   3   7   3    0.95    0.16 
   3   7   3    0.84    0.15 
   3   7   3    1.07    0.14 
   3   7   3    1.03    0.12 
   3   7   3    0.83    0.11 
   3   7   3    0.80    0.13 
   4   7   3   42.23    3.22 
   4   7   3   45.17    3.14 
   4   7   3   38.09    2.70 
   4   7   3   43.05    2.37 
   4   7   3   45.69    3.28 
   5   7   3   46.69    2.78 
   5   7   3   45.41    2.45 
   5   7   3   40.51    3.24 
  -6  -7  -3   42.42    2.09 
   6   7   3   43.30    3.28 
   6   7   3   42.07    3.14 
   6   7   3   40.91    2.70 
   6   7   3   45.70    2.38 
  -7  -7  -3    0.51    0.06 
  -7  -7  -3    0.51    0.05 
   7   7   3    0.69    0.10 
   7   7   3    0.52    0.07 
   7   7   3    0.57    0.11 
   7   7   3    0.67    0.14 
  -8  -7  -3    4.26    0.21 
  -8  -7  -3    4.04    0.21 
   8   7   3    3.86    0.33 
   8   7   3    4.18    0.28 
  -1   8   3    3.25    0.25 
   0   8   3   23.06    1.52 
   0   8   3   17.28    1.40 
   1   8   3    0.55    0.13 
   1   8   3    0.44    0.10 
   1   8   3    0.55    0.12 
   2   8   3   22.14    1.87 
   2   8   3   24.59    1.92 
   2   8   3   28.46    1.91 
   2   8   3   27.54    1.62 
   2   8   3   24.36    1.96 
   3   8   3    1.78    0.19 
   3   8   3    2.13    0.17 
   3   8   3    1.86    0.18 
   3   8   3    1.48    0.19 
   4   8   3    0.03    0.08 
   4   8   3    0.06    0.07 
   4   8   3   -0.01    0.04 
   4   8   3    0.07    0.07 
   4   8   3    0.03    0.06 
   5   8   3    9.48    0.84 
   5   8   3   11.64    0.61 
   5   8   3   10.46    0.80 
   6   8   3    6.05    0.36 
   6   8   3    5.32    0.47 
   6   8   3    6.71    0.41 
  -7  -8  -3    6.09    0.30 
   7   8   3    6.10    0.35 
   7   8   3    5.52    0.39 
   2   9   3    0.38    0.07 
   3   9   3    0.30    0.07 
   4   9   3   13.75    1.09 
   4   9   3   14.90    0.92 
   5   9   3   12.22    0.70 
   5   9   3   12.61    0.80 
   6   9   3    0.60    0.06 
   6   9   3    0.76    0.08 
   5   8  -4    0.40    0.09 
  -5  -8   4    0.53    0.05 
   4   8  -4    1.51    0.16 
   3   8  -4    4.21    0.35 
  -7  -7   4    0.19    0.03 
  -6  -7   4    0.10    0.03 
   5   7  -4   10.89    0.84 
  -5  -7   4   10.25    0.53 
   4   7  -4   57.09    4.28 
   3   7  -4   33.40    2.53 
   2   7  -4    0.11    0.08 
   1   7  -4    0.39    0.09 
   1   7  -4    0.56    0.14 
   0   7  -4    5.56    0.46 
  -8  -6   4   24.34    1.21 
  -8  -6   4   25.31    1.22 
  -7  -6   4   25.59    1.22 
  -7  -6   4   24.12    1.22 
   6   6  -4   90.18    4.71 
  -6  -6   4   93.17    4.44 
  -6  -6   4   90.76    4.45 
   5   6  -4   50.08    3.62 
   5   6  -4   46.09    2.49 
  -5  -6   4   47.11    2.57 
  -5  -6   4   49.31    2.35 
   4   6  -4   15.17    1.12 
   4   6  -4   13.77    0.95 
  -4  -6   4   14.07    0.71 
  -4  -6   4   13.98    0.79 
   3   6  -4    0.11    0.09 
   3   6  -4    0.15    0.08 
  -3  -6   4    0.19    0.06 
   2   6  -4   45.75    2.75 
   2   6  -4   41.53    3.29 
   1   6  -4   19.38    1.47 
   1   6  -4   18.33    1.26 
   1   6  -4   19.29    1.45 
   0   6  -4    0.86    0.17 
  -1   6  -4   49.13    3.61 
  -1   6  -4   47.99    3.33 
  -2   6  -4    1.48    0.17 
  -2   6  -4    1.52    0.15 
   8   5  -4    1.39    0.10 
  -8  -5   4    1.03    0.18 
  -8  -5   4    1.41    0.09 
  -8  -5   4    1.47    0.09 
   7   5  -4   35.40    1.84 
  -7  -5   4   35.34    1.73 
  -7  -5   4   35.34    1.74 
   6   5  -4   23.67    1.70 
   6   5  -4   26.79    1.36 
   6   5  -4   27.89    1.40 
  -6  -5   4   27.24    1.28 
  -6  -5   4   24.85    1.41 
  -6  -5   4   26.12    1.29 
   5   5  -4    0.67    0.09 
   5   5  -4    0.78    0.14 
   5   5  -4    0.78    0.08 
   5   5  -4    0.81    0.12 
  -5  -5   4    0.89    0.09 
  -5  -5   4    0.68    0.07 
  -5  -5   4    0.75    0.07 
   4   5  -4  108.97    8.08 
   4   5  -4  111.65    5.96 
   4   5  -4  114.52    6.90 
   4   5  -4  102.65    5.58 
  -4  -5   4  101.32    5.26 
  -4  -5   4  110.92    5.73 
   3   5  -4   15.40    0.96 
  -3  -5   4   14.52    0.79 
  -3  -5   4   13.33    0.81 
   2   5  -4    5.61    0.39 
  -2  -5   4    5.11    0.33 
  -2  -5   4    4.97    0.31 
   1   5  -4   14.19    0.97 
   1   5  -4   13.67    1.17 
   1   5  -4   16.63    1.01 
   1   5  -4   16.34    1.18 
  -1  -5   4   13.62    0.84 
  -1  -5   4   16.63    0.89 
   0   5  -4   10.82    0.75 
   0   5  -4   11.90    0.88 
   0  -5   4   10.30    0.65 
  -1   5  -4    2.34    0.27 
  -1   5  -4    2.20    0.21 
   1  -5   4    2.68    0.19 
  -2   5  -4    0.27    0.09 
  -2   5  -4    0.29    0.13 
  -3   5  -4   17.62    1.36 
  -3   5  -4   18.15    1.25 
   8   4  -4    0.27    0.04 
   8   4  -4    0.28    0.05 
  -8  -4   4    0.36    0.14 
  -8  -4   4    0.24    0.04 
   7   4  -4    0.57    0.07 
   7   4  -4    0.91    0.10 
   7   4  -4    0.52    0.06 
  -7  -4   4    0.61    0.17 
  -7  -4   4    0.61    0.07 
  -7  -4   4    0.66    0.07 
   6   4  -4    0.73    0.08 
   6   4  -4    0.71    0.09 
   6   4  -4    0.96    0.13 
   6   4  -4    0.93    0.10 
  -6  -4   4    0.75    0.08 
  -6  -4   4    0.63    0.07 
   5   4  -4    8.38    0.57 
   5   4  -4    7.43    0.42 
   5   4  -4    8.47    0.48 
   5   4  -4    8.80    0.47 
   5   4  -4    8.51    0.45 
  -5  -4   4    8.18    0.50 
  -5  -4   4    7.86    0.42 
  -5  -4   4    8.78    0.47 
  -5  -4   4    7.95    0.42 
   4   4  -4    6.22    0.36 
   4   4  -4    6.49    0.44 
  -4  -4   4    5.94    0.36 
  -4  -4   4    6.18    0.39 
   3   4  -4   19.55    1.32 
  -3  -4   4   20.77    1.12 
  -3  -4   4   20.61    1.10 
   2   4  -4   32.48    2.91 
   2   4  -4   30.55    1.96 
  -2  -4   4   29.50    1.62 
  -2  -4   4   29.29    1.64 
   1   4  -4    0.17    0.07 
   1   4  -4    0.21    0.15 
  -1  -4   4    0.30    0.05 
  -1  -4   4    0.21    0.06 
   0   4  -4    4.64    0.34 
   0   4  -4    4.69    0.57 
   0  -4   4    4.50    0.29 
   0  -4   4    4.61    0.28 
  -1   4  -4   31.40    2.14 
   1  -4   4   25.64    1.52 
   1  -4   4   27.95    1.61 
  -2   4  -4    6.83    0.54 
  -2   4  -4    6.23    0.48 
   2  -4   4    6.28    0.40 
  -3   4  -4   11.01    0.73 
  -3   4  -4   10.22    0.80 
   3  -4   4    9.08    0.51 
  -4   4  -4    0.92    0.15 
  -4   4  -4    0.99    0.13 
   4  -4   4    0.81    0.07 
  -5   4  -4    4.41    0.33 
   8   3  -4    8.30    0.40 
   8   3  -4    7.42    0.41 
  -8  -3   4    6.71    0.67 
  -8  -3   4    7.47    0.41 
  -8  -3   4    8.24    0.39 
   7   3  -4   23.64    1.13 
   7   3  -4   22.65    1.20 
   7   3  -4   21.73    1.17 
  -7  -3   4   21.91    1.88 
  -7  -3   4   22.10    1.11 
   6   3  -4   30.59    1.63 
   6   3  -4   31.19    1.67 
   6   3  -4   32.98    2.04 
  -6  -3   4   31.11    1.53 
  -6  -3   4   30.96    1.54 
   5   3  -4    1.53    0.11 
   5   3  -4    1.26    0.15 
  -5  -3   4    1.34    0.11 
  -5  -3   4    1.33    0.15 
   4   3  -4    9.35    0.64 
   4   3  -4    9.82    0.52 
  -4  -3   4    9.75    0.53 
  -4  -3   4    9.19    0.56 
   3   3  -4   33.48    2.16 
   3   3  -4   31.33    1.77 
  -3  -3   4   35.23    1.81 
  -3  -3   4   34.34    1.79 
   2   3  -4    0.57    0.17 
   2   3  -4    0.55    0.08 
  -2  -3   4    0.55    0.08 
  -2  -3   4    0.48    0.06 
   1   3  -4   28.07    1.68 
   1   3  -4   27.48    2.50 
  -1  -3   4   24.98    1.39 
  -1  -3   4   24.35    1.64 
  -1  -3   4   25.84    1.41 
   0   3  -4   86.97    5.37 
   0  -3   4   81.55    4.47 
   0  -3   4   84.57    4.71 
  -1   3  -4    4.77    0.53 
  -1   3  -4    4.44    0.33 
   1  -3   4    4.55    0.28 
   1  -3   4    4.16    0.27 
  -2   3  -4   50.44    2.62 
  -2   3  -4   46.57    4.64 
   2  -3   4   48.97    2.65 
   2  -3   4   51.54    2.78 
  -3   3  -4   48.84    2.70 
  -3   3  -4   57.08    3.89 
  -3   3  -4   57.82    3.59 
   3  -3   4   51.73    2.94 
   3  -3   4   45.81    2.55 
  -4   3  -4    0.19    0.11 
  -4   3  -4    0.06    0.05 
  -4   3  -4    0.26    0.10 
   4  -3   4    0.25    0.07 
   4  -3   4    0.23    0.05 
  -5   3  -4    0.96    0.13 
   5  -3   4    0.79    0.07 
  -8  -2   4    3.51    0.21 
  -8  -2   4    3.62    0.26 
  -7  -2   4   10.89    0.56 
  -7  -2   4    9.90    0.91 
  -7  -2   4   10.23    0.52 
   6   2  -4   19.54    1.02 
   6   2  -4   18.40    0.94 
  -6  -2   4   17.35    1.00 
  -6  -2   4   21.25    1.62 
  -6  -2   4   18.83    0.94 
   5   2  -4   93.91    4.91 
   4   2  -4   11.12    0.61 
   4   2  -4   10.99    0.64 
  -4  -2   4   11.17    0.64 
  -4  -2   4   11.55    0.61 
   3   2  -4   24.44    1.50 
   3   2  -4   20.84    1.22 
   3   2  -4   23.86    1.26 
  -3  -2   4   23.00    1.26 
  -3  -2   4   23.90    1.24 
   2   2  -4   14.65    1.38 
   2   2  -4   13.85    0.93 
  -2  -2   4   13.93    0.77 
  -2  -2   4   14.94    0.79 
   1   2  -4   11.29    0.71 
   1   2  -4   11.67    1.08 
  -1  -2   4   11.05    0.59 
  -1  -2   4   10.24    0.70 
  -1  -2   4   10.36    0.60 
   0   2  -4    0.26    0.06 
   0   2  -4    0.14    0.05 
   0   2  -4    0.51    0.16 
   0  -2   4    0.24    0.04 
   0  -2   4    0.24    0.04 
   0  -2   4    0.25    0.05 
  -1   2  -4    4.42    0.34 
  -1   2  -4    4.68    0.29 
  -1   2  -4    5.80    0.55 
   1  -2   4    4.86    0.29 
   1  -2   4    4.76    0.29 
  -2   2  -4    0.08    0.12 
  -2   2  -4    0.26    0.06 
   2  -2   4    0.29    0.06 
   2  -2   4    0.16    0.05 
  -3   2  -4   26.78    1.68 
  -3   2  -4   33.60    1.66 
   3  -2   4   30.03    1.75 
   3  -2   4   32.72    1.67 
  -4   2  -4   27.55    1.44 
  -4   2  -4   28.70    2.08 
   4  -2   4   26.10    1.58 
   4  -2   4   28.49    1.48 
   4  -2   4   27.04    1.36 
  -5   2  -4   35.19    2.31 
  -5   2  -4   33.13    1.74 
   5  -2   4   32.67    1.78 
   5  -2   4   32.44    1.64 
  -6   2  -4    5.64    0.41 
  -6   2  -4    5.53    0.29 
   6  -2   4    5.13    0.28 
   6  -2   4    5.23    0.28 
   8   1  -4    2.28    0.13 
   8   1  -4    1.85    0.20 
  -8  -1   4    2.49    0.18 
  -8  -1   4    2.00    0.24 
  -8  -1   4    2.50    0.14 
   7   1  -4   57.23    2.88 
  -7  -1   4   59.42    3.05 
  -7  -1   4   64.50    3.61 
  -7  -1   4   54.94    4.82 
   6   1  -4  223.76   10.67 
  -6  -1   4  201.10   11.31 
  -6  -1   4  234.84   17.82 
   5   1  -4  152.94    8.24 
  -5  -1   4  157.42    8.33 
   4   1  -4   35.92    2.00 
   4   1  -4   38.49    2.05 
  -4  -1   4   39.73    2.06 
   3   1  -4   78.43    3.93 
  -3  -1   4   65.77    3.89 
  -3  -1   4   77.55    3.92 
   2   1  -4   22.99    1.23 
  -2  -1   4   22.68    1.23 
   1   1  -4  142.99    7.35 
  -1  -1   4  134.82    7.35 
  -1  -1   4  139.85    8.59 
   0   1  -4  262.46   13.53 
   0  -1   4  276.12   13.53 
   0  -1   4  231.40   14.27 
  -1   1  -4   24.54    1.78 
  -1   1  -4   28.35    1.48 
   1  -1   4   29.38    1.57 
   1  -1   4   29.44    1.49 
  -2   1  -4  175.46   14.86 
  -2   1  -4  162.67    8.50 
   2  -1   4  158.10    8.55 
   2  -1   4  151.34    9.01 
  -3   1  -4  294.44   15.10 
   3  -1   4  279.04   16.02 
   3  -1   4  289.81   15.19 
  -4   1  -4    5.83    0.37 
   4  -1   4    6.09    0.37 
   4  -1   4    5.66    0.35 
   4  -1   4    6.12    0.38 
  -5   1  -4   13.26    0.94 
  -5   1  -4   13.63    0.70 
  -5   1  -4   12.15    0.75 
   5  -1   4   12.79    0.73 
   5  -1   4   13.36    0.66 
  -6   1  -4    5.54    0.30 
  -6   1  -4    5.14    0.42 
   6  -1   4    5.15    0.32 
   6  -1   4    5.05    0.28 
  -7   1  -4    4.40    0.24 
  -7   1  -4    4.13    0.33 
   7  -1   4    4.41    0.29 
   7  -1   4    3.86    0.22 
   8   0  -4    5.01    0.27 
   8   0  -4    4.58    0.42 
  -8   0   4    5.87    0.29 
  -8   0   4    5.69    0.35 
   7   0  -4    4.58    0.25 
  -7   0   4    4.25    0.43 
  -7   0   4    4.69    0.26 
  -7   0   4    5.16    0.33 
   6   0  -4    0.02    0.04 
  -6   0   4    0.14    0.10 
  -6   0   4   -0.01    0.05 
  -6   0   4    0.15    0.07 
  -6   0   4    0.19    0.07 
   5   0  -4  335.93   18.65 
  -5   0   4  369.99   18.92 
   4   0  -4  454.83   24.80 
  -4   0   4  485.43   25.18 
   3   0  -4  362.77   18.91 
  -3   0   4  354.03   19.19 
   2   0  -4  231.48   11.89 
  -2   0   4  219.37   11.89 
   1   0  -4   89.70    5.45 
   1   0  -4   91.14    4.67 
   1   0  -4   86.68    4.67 
  -1   0   4   84.25    5.45 
  -1   0   4   89.58    4.67 
   0   0  -4   52.56    2.79 
   0   0   4   54.45    3.26 
   0   0   4   50.80    2.79 
  -1   0  -4   10.44    0.54 
   1   0   4   10.47    0.54 
   1   0   4    8.73    0.56 
  -2   0  -4    1.88    0.12 
  -2   0  -4    1.63    0.13 
   2   0   4    1.68    0.13 
  -3   0  -4   46.70    2.44 
   3   0   4   45.58    2.46 
   3   0   4   42.88    2.42 
   3   0   4   49.06    2.59 
  -4   0  -4   56.63    2.86 
   4   0   4   52.34    2.89 
   4   0   4   56.01    3.04 
   4   0   4   50.97    2.84 
  -5   0  -4   81.95    4.34 
  -5   0  -4   74.33    4.14 
  -5   0  -4   88.80    5.49 
   5   0   4   75.08    4.21 
   5   0   4   78.07    4.49 
   5   0   4   82.63    3.90 
  -6   0  -4    2.38    0.24 
  -6   0  -4    2.24    0.19 
  -6   0  -4    2.34    0.17 
   6   0   4    2.07    0.18 
   6   0   4    2.43    0.15 
  -7   0  -4    0.18    0.06 
  -7   0  -4    0.24    0.12 
   7   0   4    0.30    0.07 
   7   0   4    0.27    0.10 
   7   0   4    0.17    0.04 
   7  -1  -4    0.70    0.07 
  -7   1   4    0.52    0.12 
  -7   1   4    0.57    0.07 
  -7   1   4    0.74    0.10 
   6  -1  -4   51.93    2.37 
  -6   1   4   51.39    2.96 
  -6   1   4   50.67    2.63 
  -6   1   4   45.90    2.50 
  -6   1   4   41.96    3.83 
   5  -1  -4    2.80    0.17 
  -5   1   4    3.21    0.31 
  -5   1   4    3.05    0.21 
  -5   1   4    2.42    0.18 
  -5   1   4    3.47    0.23 
   4  -1  -4   28.62    1.61 
  -4   1   4   30.62    1.62 
   3  -1  -4    0.21    0.05 
  -3   1   4    0.06    0.04 
   2  -1  -4    0.08    0.04 
  -2   1   4    0.07    0.03 
   1  -1  -4    0.58    0.06 
   0  -1  -4  369.51   18.31 
   0  -1  -4  342.31   21.39 
   0   1   4  330.55   18.31 
  -1  -1  -4    7.85    0.45 
   1   1   4    8.55    0.45 
   1   1   4    8.44    0.53 
  -2  -1  -4   54.87    2.84 
   2   1   4   52.13    2.99 
   2   1   4   53.73    2.84 
  -3  -1  -4  509.19   28.22 
  -3  -1  -4  558.04   28.37 
   3   1   4  561.62   29.95 
   3   1   4  549.98   28.38 
   3   1   4  513.17   28.04 
  -4  -1  -4   52.16    2.74 
  -4  -1  -4   49.31    2.76 
   4   1   4   54.69    2.91 
   4   1   4   50.99    2.72 
   5   1   4   35.44    1.94 
   5   1   4   35.31    2.03 
   5   1   4   36.72    1.90 
  -6  -1  -4    3.88    0.25 
  -6  -1  -4    3.17    0.22 
  -6  -1  -4    3.24    0.31 
   6   1   4    3.33    0.20 
   6   1   4    3.53    0.24 
   6   1   4    3.89    0.31 
   6   1   4    3.28    0.23 
   6   1   4    3.26    0.19 
  -7  -1  -4    1.45    0.19 
  -7  -1  -4    1.66    0.13 
   7   1   4    1.58    0.15 
   7   1   4    1.43    0.14 
   7   1   4    1.60    0.11 
   7   1   4    1.55    0.18 
  -8  -1  -4    0.06    0.05 
  -8  -1  -4   -0.01    0.09 
   8   1   4   -0.02    0.07 
   8   1   4    0.01    0.05 
   7  -2  -4   11.41    0.57 
  -7   2   4   11.57    0.72 
   6  -2  -4    0.02    0.03 
  -6   2   4    0.03    0.08 
  -6   2   4    0.08    0.07 
   5  -2  -4   18.69    0.93 
  -5   2   4   20.20    1.05 
  -5   2   4   20.02    1.53 
  -5   2   4   16.43    0.98 
  -5   2   4   19.07    1.18 
   4  -2  -4   39.15    2.29 
  -4   2   4   45.60    3.37 
  -4   2   4   42.39    2.31 
   3  -2  -4   22.49    1.26 
  -3   2   4   23.64    1.27 
   2  -2  -4  466.74   24.37 
  -2   2   4  458.04   24.77 
   1  -2  -4   40.12    2.12 
  -1   2   4   39.99    2.16 
   0  -2  -4  139.23    8.41 
   0  -2  -4  133.87    7.20 
  -1  -2  -4   48.21    2.55 
  -2  -2  -4    0.08    0.03 
   2   2   4    0.07    0.03 
   2   2   4    0.10    0.03 
  -3  -2  -4   27.80    1.44 
  -3  -2  -4   24.54    1.42 
   3   2   4   28.08    1.51 
  -4  -2  -4  291.04   15.42 
  -4  -2  -4  278.79   15.32 
   4   2   4  300.80   15.24 
   4   2   4  298.44   16.26 
  -5  -2  -4  101.70    5.80 
   5   2   4  115.85    5.72 
   5   2   4  110.15    6.11 
  -6  -2  -4   12.07    0.66 
   6   2   4   10.90    0.67 
   6   2   4   10.47    0.73 
   6   2   4   11.62    0.86 
   6   2   4   11.08    0.63 
  -7  -2  -4    0.70    0.11 
  -7  -2  -4    0.88    0.10 
  -7  -2  -4    0.75    0.16 
   7   2   4    0.86    0.15 
   7   2   4    0.89    0.12 
   7   2   4    0.84    0.11 
  -8  -2  -4    1.81    0.13 
  -8  -2  -4    1.54    0.19 
   8   2   4    1.87    0.15 
   8   2   4    1.62    0.18 
   6  -3  -4    0.91    0.07 
  -6   3   4    1.07    0.11 
   5  -3  -4   54.92    2.62 
  -5   3   4   54.29    3.29 
  -5   3   4   55.18    4.25 
  -5   3   4   50.75    2.92 
  -4   3   4    8.73    0.60 
  -4   3   4    9.67    0.80 
  -4   3   4    9.30    0.54 
  -4   3   4    9.50    0.78 
   3  -3  -4    5.34    0.34 
  -3   3   4    6.29    0.50 
  -3   3   4    5.60    0.34 
   2  -3  -4    2.52    0.16 
  -2   3   4    2.28    0.16 
   1  -3  -4   21.19    1.08 
  -1   3   4   20.95    1.10 
  -1   3   4   18.38    1.90 
   0   3   4  410.60   40.70 
   0   3   4  479.85   23.86 
  -1  -3  -4   15.86    0.86 
   1   3   4   16.59    1.54 
  -2  -3  -4    3.39    0.20 
   2   3   4    3.43    0.21 
  -3  -3  -4    6.74    0.39 
   3   3   4    7.06    0.41 
  -4  -3  -4    0.27    0.06 
   4   3   4    0.35    0.06 
   4   3   4    0.34    0.05 
  -5  -3  -4    5.58    0.35 
   5   3   4    5.73    0.33 
   5   3   4    5.47    0.35 
  -6  -3  -4   10.17    0.53 
  -6  -3  -4   10.44    0.61 
   6   3   4   10.05    0.57 
   6   3   4    9.82    0.69 
   6   3   4   11.12    0.59 
   6   3   4   10.38    0.57 
   6   3   4   10.91    0.63 
   6   3   4   11.61    0.82 
  -7  -3  -4    8.17    0.46 
   7   3   4    8.13    0.61 
   7   3   4    7.25    0.44 
   7   3   4    7.50    0.42 
   7   3   4    7.20    0.51 
  -8  -3  -4    0.71    0.14 
   8   3   4    0.69    0.13 
   8   3   4    0.67    0.10 
   8   3   4    0.62    0.08 
   9   3   4    4.32    0.34 
  -5   4   4   17.92    1.14 
  -5   4   4   18.83    1.47 
  -4   4   4   29.70    2.34 
  -4   4   4   28.96    1.81 
  -3   4   4   21.75    1.43 
  -3   4   4   24.60    1.91 
  -3   4   4   23.43    1.85 
  -3   4   4   22.33    1.27 
  -2   4   4    6.59    0.42 
  -2   4   4    7.97    0.62 
  -1   4   4   10.52    0.85 
  -1   4   4   10.60    0.59 
  -1   4   4   10.79    1.06 
   0   4   4   41.66    2.10 
   0   4   4   40.39    3.63 
   0   4   4   34.38    2.95 
   1   4   4   52.16    4.84 
  -2  -4  -4  542.71   24.73 
   2   4   4  395.80   42.92 
  -3  -4  -4   63.34    3.35 
   3   4   4   63.10    3.54 
  -4  -4  -4  177.29    8.79 
   4   4   4  171.12    9.26 
   4   4   4  150.25    8.67 
  -5  -4  -4   40.61    2.15 
   5   4   4   38.35    2.10 
   5   4   4   40.68    2.25 
  -6  -4  -4    8.24    0.45 
   6   4   4    8.37    0.59 
   6   4   4    8.62    0.50 
   6   4   4    9.48    0.49 
   6   4   4    9.98    0.70 
   6   4   4    9.19    0.54 
   6   4   4    8.31    0.48 
  -7  -4  -4    0.36    0.05 
   7   4   4    0.35    0.06 
   7   4   4    0.43    0.12 
   7   4   4    0.52    0.09 
   7   4   4    0.54    0.09 
  -8  -4  -4    5.64    0.47 
   8   4   4    6.30    0.34 
   8   4   4    6.33    0.49 
   8   4   4    6.12    0.42 
   9   4   4    0.85    0.07 
   9   4   4    0.84    0.11 
   9   4   4    0.77    0.09 
  -5   5   4    0.97    0.09 
  -4   5   4   89.15    5.64 
  -4   5   4   96.27    7.29 
  -3   5   4    4.24    0.31 
  -3   5   4    4.42    0.35 
  -3   5   4    4.65    0.40 
  -2   5   4    0.18    0.07 
  -2   5   4    0.16    0.09 
  -2   5   4    0.11    0.06 
  -2   5   4    0.07    0.08 
  -2   5   4   -0.02    0.08 
  -1   5   4   42.16    3.66 
  -1   5   4   38.60    2.96 
  -1   5   4   38.23    2.37 
  -1   5   4   33.68    2.83 
  -1   5   4   39.38    2.87 
  -1   5   4   40.00    2.81 
   0   5   4   46.07    3.76 
   0   5   4   49.22    3.62 
   0   5   4   47.25    4.45 
   1   5   4   16.10    1.58 
   2   5   4    8.93    0.67 
   2   5   4    7.37    0.84 
  -3  -5  -4   26.93    1.45 
   3   5   4   27.53    2.09 
   3   5   4   27.02    2.57 
  -4  -5  -4   54.92    2.71 
   4   5   4   46.58    2.66 
  -5  -5  -4    5.47    0.34 
   5   5   4    6.05    0.45 
   5   5   4    5.28    0.32 
   5   5   4    5.38    0.38 
  -6  -5  -4    4.49    0.25 
   6   5   4    4.75    0.27 
   6   5   4    4.70    0.26 
   6   5   4    4.17    0.28 
   6   5   4    4.61    0.28 
   6   5   4    4.53    0.33 
   6   5   4    4.67    0.39 
  -7  -5  -4    6.29    0.33 
   7   5   4    6.17    0.43 
   7   5   4    6.22    0.37 
   7   5   4    6.22    0.35 
   7   5   4    6.58    0.52 
  -8  -5  -4    2.92    0.17 
   8   5   4    3.27    0.28 
   8   5   4    3.11    0.23 
   8   5   4    2.97    0.19 
  -9  -5  -4   32.18    1.46 
   9   5   4   27.58    1.87 
   9   5   4   32.56    1.55 
   9   5   4   27.04    2.18 
  -4   6   4   10.13    0.63 
  -3   6   4    1.36    0.16 
  -3   6   4    1.50    0.14 
  -3   6   4    1.50    0.15 
  -2   6   4   20.41    1.24 
  -2   6   4   19.54    1.64 
  -2   6   4   19.85    1.60 
  -2   6   4   19.54    1.39 
  -1   6   4   23.95    2.01 
  -1   6   4   23.44    1.79 
  -1   6   4   23.62    1.51 
  -1   6   4   27.45    1.85 
  -1   6   4   21.83    1.83 
  -1   6   4   25.65    1.96 
   0   6   4    3.15    0.31 
   0   6   4    3.32    0.30 
   0   6   4    2.82    0.33 
   0   6   4    3.27    0.32 
   0   6   4    2.99    0.32 
   0   6   4    3.53    0.26 
   0   6   4    3.26    0.26 
   0   6   4    3.49    0.28 
   0   6   4    3.97    0.31 
   1   6   4   28.56    1.83 
   1   6   4   25.64    1.97 
   1   6   4   26.97    2.10 
   1   6   4   29.99    2.04 
   1   6   4   23.13    2.16 
   1   6   4   24.20    1.62 
   1   6   4   25.04    1.99 
   1   6   4   26.76    1.93 
   2   6   4  104.84    7.29 
   2   6   4  118.93    8.83 
   2   6   4  126.43   10.81 
   2   6   4  127.52    8.69 
   2   6   4  101.33    8.61 
   2   6   4  122.34    9.19 
   3   6   4   42.84    3.00 
   3   6   4   40.14    2.52 
   3   6   4   39.34    3.77 
   3   6   4   40.71    2.94 
   3   6   4   36.89    2.97 
   4   6   4   76.55    5.78 
   4   6   4   79.83    4.38 
   4   6   4   75.13    4.96 
   4   6   4   86.07    6.02 
   5   6   4  112.88    8.73 
   5   6   4  115.27    8.40 
   5   6   4  117.13    5.99 
   5   6   4  120.16    6.36 
   5   6   4  112.18    7.21 
  -6  -6  -4   -0.09    0.04 
   6   6   4    0.01    0.09 
   6   6   4    0.20    0.06 
   6   6   4    0.13    0.06 
   6   6   4   -0.04    0.04 
   6   6   4    0.06    0.05 
   6   6   4    0.12    0.05 
   6   6   4    0.04    0.12 
  -7  -6  -4   14.52    0.70 
   7   6   4   14.10    0.80 
   7   6   4   14.33    0.91 
   7   6   4   14.28    0.74 
   7   6   4   14.34    1.07 
   7   6   4   12.89    0.77 
  -8  -6  -4    3.57    0.19 
   8   6   4    3.51    0.20 
   8   6   4    3.43    0.25 
   8   6   4    3.16    0.29 
  -2   7   4    0.67    0.10 
  -2   7   4    0.64    0.09 
  -2   7   4    0.42    0.09 
  -1   7   4    0.98    0.12 
  -1   7   4    0.94    0.15 
  -1   7   4    0.91    0.14 
  -1   7   4    1.13    0.14 
  -1   7   4    1.13    0.14 
   0   7   4    2.11    0.20 
   0   7   4    1.97    0.22 
   0   7   4    1.89    0.20 
   0   7   4    2.10    0.22 
   0   7   4    1.59    0.20 
   0   7   4    1.97    0.20 
   0   7   4    2.00    0.23 
   0   7   4    1.95    0.21 
   1   7   4   32.95    2.76 
   1   7   4   37.20    2.53 
   1   7   4   37.86    2.40 
   1   7   4   35.40    2.55 
   1   7   4   32.66    2.59 
   1   7   4   33.02    2.19 
   1   7   4   35.51    2.84 
   1   7   4   32.22    2.61 
   2   7   4    4.94    0.42 
   2   7   4    5.65    0.46 
   2   7   4    4.64    0.36 
   2   7   4    4.99    0.45 
   2   7   4    4.74    0.46 
   2   7   4    4.88    0.43 
   2   7   4    5.38    0.40 
   2   7   4    5.07    0.42 
   2   7   4    5.49    0.44 
   3   7   4    5.68    0.44 
   3   7   4    5.04    0.32 
   3   7   4    4.63    0.44 
   3   7   4    4.79    0.37 
   3   7   4    5.62    0.47 
   3   7   4    6.21    0.45 
   4   7   4    3.14    0.23 
   4   7   4    3.48    0.30 
   4   7   4    3.65    0.26 
   4   7   4    3.57    0.34 
   4   7   4    3.24    0.30 
   5   7   4   10.67    0.84 
   5   7   4   11.32    0.90 
   5   7   4   11.28    0.72 
   5   7   4   10.89    0.64 
  -6  -7  -4   11.45    0.60 
   6   7   4   12.03    0.78 
   6   7   4   12.31    0.69 
   6   7   4   12.14    0.91 
   6   7   4   11.79    0.96 
  -7  -7  -4   20.16    0.96 
   7   7   4   19.16    1.45 
   7   7   4   19.76    1.09 
   7   7   4   17.28    1.52 
   7   7   4   21.34    1.25 
  -8  -7  -4    1.07    0.08 
  -8  -7  -4    1.24    0.08 
   8   7   4    1.02    0.13 
   8   7   4    1.33    0.11 
  -1   8   4    1.59    0.14 
   0   8   4    1.08    0.14 
   0   8   4    1.36    0.16 
   1   8   4    2.81    0.24 
   1   8   4    1.88    0.21 
   1   8   4    2.53    0.23 
   2   8   4    2.44    0.24 
   2   8   4    2.81    0.26 
   2   8   4    2.92    0.27 
   2   8   4    2.63    0.24 
   2   8   4    2.54    0.21 
   3   8   4    8.43    0.61 
   3   8   4    6.70    0.62 
   3   8   4    7.32    0.59 
   3   8   4    7.84    0.51 
   4   8   4    9.60    0.65 
   4   8   4    9.79    0.57 
   4   8   4   10.33    0.80 
   4   8   4    9.28    0.75 
   4   8   4   10.45    0.78 
   5   8   4    0.80    0.11 
   5   8   4    0.54    0.07 
   5   8   4    0.78    0.11 
   5   8   4    0.85    0.13 
   6   8   4    2.92    0.32 
   6   8   4    4.22    0.27 
   6   8   4    3.48    0.30 
   6   8   4    3.77    0.23 
  -7  -8  -4    0.00    0.03 
   7   8   4    0.09    0.07 
   7   8   4    0.04    0.05 
   7   8   4    0.00    0.03 
   2   9   4    9.99    0.77 
   3   9   4   22.99    1.69 
   3   9   4   23.05    1.73 
   4   9   4    0.80    0.10 
   4   9   4    0.98    0.11 
   4   9   4    0.84    0.09 
   5   9   4    7.80    0.45 
   5   9   4    8.10    0.60 
   6   9   4   11.86    0.75 
   6   9   4   11.66    0.66 
  -7  -7   5    0.13    0.03 
   6   7  -5    7.65    0.69 
  -6  -7   5   10.04    0.45 
   5   7  -5    5.46    0.46 
  -5  -7   5    5.38    0.28 
   4   7  -5    0.21    0.10 
  -4  -7   5    0.15    0.03 
   3   7  -5   32.34    2.44 
   2   7  -5   44.01    3.30 
   1   7  -5   11.58    0.89 
   0   7  -5   34.00    2.52 
  -8  -6   5   10.30    0.87 
   7   6  -5   51.68    2.62 
  -7  -6   5   48.09    2.48 
  -7  -6   5   52.51    2.47 
   6   6  -5    2.28    0.15 
  -6  -6   5    2.30    0.14 
   5   6  -5    1.15    0.17 
   5   6  -5    1.03    0.09 
  -5  -6   5    1.06    0.08 
   4   6  -5    4.56    0.42 
  -4  -6   5    4.84    0.29 
  -4  -6   5    4.68    0.25 
   3   6  -5    4.77    0.44 
   3   6  -5    5.19    0.37 
  -3  -6   5    4.88    0.26 
  -3  -6   5    5.07    0.31 
   2   6  -5   18.35    1.46 
   2   6  -5   19.39    1.25 
   1   6  -5   25.71    1.98 
   1   6  -5   26.30    1.96 
   0   6  -5   13.69    1.06 
  -1   6  -5   16.62    1.27 
  -2   6  -5   32.30    2.40 
  -8  -5   5    1.52    0.22 
  -8  -5   5    2.22    0.12 
   7   5  -5    3.50    0.22 
  -7  -5   5    3.80    0.20 
  -7  -5   5    3.74    0.20 
   6   5  -5    5.52    0.31 
  -6  -5   5    5.41    0.28 
  -6  -5   5    5.41    0.29 
  -6  -5   5    5.14    0.32 
   5   5  -5    0.21    0.05 
   5   5  -5    0.29    0.09 
   5   5  -5    0.32    0.12 
  -5  -5   5    0.28    0.05 
  -5  -5   5    0.37    0.07 
  -5  -5   5    0.26    0.04 
   4   5  -5    4.10    0.25 
   4   5  -5    3.89    0.32 
   4   5  -5    4.70    0.39 
  -4  -5   5    4.61    0.27 
  -4  -5   5    4.14    0.23 
   3   5  -5    0.24    0.08 
   3   5  -5    0.29    0.04 
   3   5  -5    0.19    0.10 
  -3  -5   5    0.35    0.07 
  -3  -5   5    0.23    0.04 
   2   5  -5   35.78    2.15 
   2   5  -5   30.20    1.72 
  -2  -5   5   34.70    1.89 
  -2  -5   5   32.15    1.78 
   1   5  -5    0.26    0.10 
   1   5  -5    0.28    0.11 
   1   5  -5    0.28    0.09 
  -1  -5   5    0.43    0.08 
   0   5  -5   18.68    1.41 
   0   5  -5   18.76    1.21 
   0  -5   5   17.54    1.06 
  -1   5  -5    0.23    0.13 
  -2   5  -5    0.96    0.13 
  -2   5  -5    0.93    0.16 
  -3   5  -5    0.94    0.12 
  -3   5  -5    1.02    0.14 
   3  -5   5    0.87    0.07 
   8   4  -5    5.28    0.29 
  -8  -4   5    5.30    0.28 
   7   4  -5   50.28    2.42 
   7   4  -5   46.18    2.32 
  -7  -4   5   46.45    2.27 
  -7  -4   5   42.26    3.82 
  -7  -4   5   47.76    2.28 
   6   4  -5   30.45    1.53 
   6   4  -5   30.06    1.57 
   6   4  -5   28.81    1.91 
   6   4  -5   27.44    1.47 
  -6  -4   5   30.06    1.45 
  -6  -4   5   29.57    1.44 
   5   4  -5   32.73    1.78 
   5   4  -5   36.80    2.17 
   5   4  -5   33.20    1.74 
   5   4  -5   32.54    2.53 
   5   4  -5   31.41    1.67 
  -5  -4   5   36.27    1.80 
  -5  -4   5   31.63    1.64 
  -5  -4   5   33.67    1.64 
   4   4  -5   48.89    3.75 
   4   4  -5   53.72    3.21 
  -4  -4   5   47.52    2.69 
  -4  -4   5   49.40    2.66 
   3   4  -5    1.41    0.15 
   3   4  -5    1.36    0.17 
  -3  -4   5    1.41    0.14 
  -3  -4   5    1.43    0.11 
   2   4  -5    0.62    0.10 
   2   4  -5    0.51    0.19 
  -2  -4   5    0.69    0.10 
  -2  -4   5    0.60    0.08 
   1   4  -5   91.49    6.05 
  -1  -4   5   92.95    5.02 
  -1  -4   5   95.16    5.04 
  -1  -4   5  100.10    5.31 
   0   4  -5   60.52    4.99 
   0   4  -5   76.16    4.32 
   0   4  -5   60.84    6.31 
   0  -4   5   70.23    3.59 
   0  -4   5   69.20    3.78 
  -1   4  -5   13.24    1.04 
   1  -4   5   13.53    0.78 
  -2   4  -5  127.37    9.39 
  -2   4  -5  148.59   10.16 
   2  -4   5  137.23    7.69 
  -3   4  -5    0.40    0.10 
  -3   4  -5    0.31    0.13 
   3  -4   5    0.38    0.08 
   3  -4   5    0.50    0.06 
  -4   4  -5    0.36    0.12 
  -4   4  -5    0.22    0.09 
   4  -4   5    0.20    0.04 
   8   3  -5    0.01    0.04 
   8   3  -5   -0.01    0.04 
  -8  -3   5    0.06    0.04 
  -8  -3   5   -0.02    0.03 
  -8  -3   5    0.08    0.11 
   7   3  -5    0.30    0.06 
   7   3  -5    0.23    0.05 
  -7  -3   5    0.38    0.05 
  -7  -3   5    0.43    0.15 
   6   3  -5   33.16    1.61 
   6   3  -5   31.36    1.67 
   6   3  -5   32.57    2.08 
  -6  -3   5   30.94    1.57 
  -6  -3   5   32.19    1.58 
   5   3  -5   76.62    4.53 
   5   3  -5   68.76    3.52 
   5   3  -5   69.35    3.71 
  -5  -3   5   75.00    3.75 
  -5  -3   5   66.39    3.45 
  -5  -3   5   68.57    3.79 
   4   3  -5   20.40    1.13 
   4   3  -5   21.05    1.39 
  -4  -3   5   21.78    1.15 
  -4  -3   5   21.77    1.18 
   3   3  -5  181.78   11.04 
  -3  -3   5  178.80    9.21 
  -3  -3   5  161.42    9.17 
   2   3  -5   67.50    6.08 
   2   3  -5   68.26    4.17 
  -2  -3   5   63.31    3.46 
  -2  -3   5   62.31    3.49 
   1   3  -5    5.41    0.58 
   1   3  -5    4.75    0.34 
  -1  -3   5    5.26    0.30 
  -1  -3   5    4.71    0.28 
  -1  -3   5    4.42    0.30 
   0   3  -5   51.03    5.05 
   0   3  -5   52.50    3.45 
   0  -3   5   55.83    2.87 
   0  -3   5   56.26    3.03 
  -1   3  -5   21.58    2.08 
  -1   3  -5   21.67    1.39 
   1  -3   5   21.42    1.21 
   1  -3   5   20.47    1.16 
  -2   3  -5   19.68    1.34 
  -2   3  -5   17.33    0.96 
  -2   3  -5   15.24    1.73 
  -2   3  -5   17.65    0.92 
   2  -3   5   18.83    1.02 
   2  -3   5   15.97    0.96 
  -3   3  -5    4.55    0.32 
  -3   3  -5    3.93    0.23 
  -3   3  -5    3.63    0.36 
   3  -3   5    3.84    0.27 
   3  -3   5    3.54    0.22 
  -4   3  -5   50.93    2.85 
  -4   3  -5   56.39    4.10 
  -4   3  -5   57.82    3.78 
   4  -3   5   57.22    2.91 
   4  -3   5   53.36    2.69 
  -5   3  -5    0.52    0.11 
   5  -3   5    0.46    0.05 
   8   2  -5    4.82    0.25 
  -8  -2   5    4.68    0.32 
  -8  -2   5    4.17    0.43 
  -8  -2   5    4.77    0.26 
  -7  -2   5   10.96    0.93 
  -7  -2   5   10.86    0.57 
  -7  -2   5   10.01    0.53 
   6   2  -5   10.77    0.56 
  -6  -2   5   12.31    0.98 
  -6  -2   5   11.01    0.56 
  -6  -2   5   10.27    0.59 
   4   2  -5   27.69    1.68 
  -4  -2   5   24.87    1.42 
  -4  -2   5   25.12    1.39 
   3   2  -5    0.11    0.04 
   3   2  -5    0.16    0.06 
  -3  -2   5    0.11    0.04 
  -3  -2   5    0.15    0.06 
   2   2  -5   26.64    1.58 
   2   2  -5   28.81    1.92 
   2   2  -5   33.74    2.82 
  -2  -2   5   30.53    1.59 
  -2  -2   5   29.96    1.61 
   1   2  -5  559.10   47.17 
   1   2  -5  475.80   27.01 
   1   2  -5  510.72   32.64 
  -1  -2   5  512.46   27.13 
  -1  -2   5  519.72   27.17 
   0   2  -5  258.73   13.84 
   0   2  -5  281.50   16.73 
   0   2  -5  266.93   24.20 
   0  -2   5  277.20   14.68 
   0  -2   5  229.13   13.89 
   0  -2   5  270.28   13.92 
  -1   2  -5   12.31    0.67 
  -1   2  -5   10.34    1.21 
  -1   2  -5   12.41    0.80 
   1  -2   5   13.02    0.70 
   1  -2   5   12.47    0.68 
  -2   2  -5  169.90   18.30 
  -2   2  -5  206.57   10.47 
   2  -2   5  213.75   11.10 
   2  -2   5  206.46   10.53 
  -3   2  -5   90.95    6.93 
  -3   2  -5   96.96    4.96 
   3  -2   5   90.75    4.99 
   3  -2   5   96.60    5.25 
  -4   2  -5   54.01    4.24 
  -4   2  -5   57.27    2.96 
  -4   2  -5   65.62    3.93 
   4  -2   5   60.52    3.02 
   4  -2   5   54.90    3.22 
   4  -2   5   50.63    2.79 
  -5   2  -5   14.15    0.98 
  -5   2  -5   13.91    0.74 
   5  -2   5   14.37    0.76 
   5  -2   5   12.90    0.69 
  -6   2  -5    8.53    0.65 
   6  -2   5    9.50    0.46 
   6  -2   5    9.27    0.46 
   8   1  -5   11.50    0.60 
   8   1  -5   11.10    0.58 
  -8  -1   5   12.24    0.62 
  -8  -1   5   12.01    0.74 
   7   1  -5   10.64    0.55 
  -7  -1   5   12.12    0.71 
  -7  -1   5    9.98    0.95 
  -7  -1   5   11.12    0.59 
  -6  -1   5    0.45    0.07 
  -6  -1   5    0.45    0.15 
   5   1  -5    3.04    0.25 
  -5  -1   5    3.67    0.35 
   4   1  -5    0.68    0.10 
   3   1  -5  311.58   15.96 
   3   1  -5  307.58   15.85 
  -3  -1   5  303.02   15.96 
  -3  -1   5  287.42   15.91 
   2   1  -5  193.45    9.66 
   2   1  -5  173.85    9.59 
   2   1  -5  171.71   11.58 
  -2  -1   5  178.47    9.62 
  -2  -1   5  196.58    9.66 
   1   1  -5    3.32    0.24 
   1   1  -5    3.12    0.21 
   1   1  -5    2.87    0.21 
  -1  -1   5    3.58    0.21 
  -1  -1   5    3.70    0.20 
   0   1  -5   29.72    1.47 
   0   1  -5   26.08    1.76 
   0   1  -5   27.71    1.46 
   0  -1   5   29.06    1.48 
   0  -1   5   26.77    1.54 
   0  -1   5   25.95    1.46 
  -1   1  -5   69.36    3.56 
  -1   1  -5   61.38    4.29 
   1  -1   5   64.92    3.56 
   1  -1   5   70.62    3.58 
   1  -1   5   71.18    3.77 
  -2   1  -5    3.13    0.22 
  -2   1  -5    2.85    0.40 
   2  -1   5    3.65    0.22 
   2  -1   5    3.44    0.21 
  -3   1  -5  125.82    6.40 
   3  -1   5  119.28    6.44 
   3  -1   5  119.13    6.78 
  -4   1  -5  161.30    9.96 
  -4   1  -5  137.61    7.85 
  -4   1  -5  150.89    7.52 
  -4   1  -5  161.29    7.69 
  -4   1  -5  133.38   10.75 
   4  -1   5  143.55    7.63 
   4  -1   5  145.02    7.09 
   4  -1   5  140.23    8.15 
   4  -1   5  140.15    7.74 
  -5   1  -5   91.82    5.60 
  -5   1  -5  116.17    7.10 
  -5   1  -5  109.37    5.36 
   5  -1   5   94.91    5.81 
   5  -1   5  105.02    5.05 
   5  -1   5  105.00    5.44 
  -6   1  -5   55.84    2.71 
  -6   1  -5   51.19    3.60 
   6  -1   5   50.04    2.56 
  -7   1  -5   26.94    1.98 
  -7   1  -5   29.49    1.49 
   7  -1   5   29.12    1.81 
   7  -1   5   29.73    1.41 
   8   0  -5    4.02    0.21 
   8   0  -5    4.15    0.22 
  -8   0   5    4.48    0.23 
  -8   0   5    3.90    0.23 
  -8   0   5    4.01    0.28 
   7   0  -5   12.32    0.62 
  -7   0   5   12.87    0.66 
  -7   0   5   13.64    0.79 
  -7   0   5   10.98    1.03 
   6   0  -5    1.22    0.10 
  -6   0   5    1.07    0.10 
  -6   0   5    1.26    0.12 
  -6   0   5    1.39    0.14 
  -6   0   5    1.27    0.20 
   5   0  -5   68.42    3.78 
  -5   0   5   67.69    3.81 
  -5   0   5   75.49    5.76 
   4   0  -5   27.49    1.56 
  -4   0   5   29.65    1.56 
   3   0  -5  352.42   18.48 
  -3   0   5  348.12   18.76 
   2   0  -5   36.50    1.85 
  -2   0   5   33.48    1.86 
  -2   0   5   36.44    1.85 
  -2   0   5   31.88    1.83 
   1   0  -5    9.78    0.52 
   1   0  -5    9.66    0.52 
  -1   0   5    8.64    0.52 
   0   0  -5  262.23   13.36 
   0   0   5  231.74   13.33 
   0   0   5  266.57   13.37 
  -1   0  -5    7.75    0.42 
  -1   0  -5    7.10    0.41 
   1   0   5    7.20    0.43 
   1   0   5    8.02    0.42 
   1   0   5    6.87    0.40 
  -2   0  -5   17.20    0.93 
  -2   0  -5   17.48    0.93 
   2   0   5   17.49    0.94 
   2   0   5   17.04    0.98 
   2   0   5   16.78    0.92 
  -3   0  -5   58.69    2.90 
   3   0   5   54.12    3.07 
   3   0   5   54.34    2.88 
   3   0   5   51.78    2.92 
  -4   0  -5    3.76    0.24 
   4   0   5    3.44    0.22 
   4   0   5    3.42    0.23 
   4   0   5    3.16    0.23 
  -5   0  -5    1.33    0.15 
  -5   0  -5    1.17    0.13 
  -5   0  -5    1.62    0.18 
   5   0   5    1.50    0.14 
   5   0   5    1.51    0.14 
   5   0   5    1.30    0.11 
  -6   0  -5    8.11    0.62 
  -6   0  -5    9.02    0.47 
  -6   0  -5    7.77    0.51 
   6   0   5    8.09    0.43 
   6   0   5    8.70    0.48 
  -7   0  -5   17.23    0.88 
  -7   0  -5   16.23    1.17 
   7   0   5   17.17    1.06 
   7   0   5   15.60    0.82 
   7  -1  -5    0.81    0.07 
  -7   1   5    0.92    0.10 
  -7   1   5    0.60    0.13 
  -7   1   5    0.78    0.07 
   6  -1  -5    3.78    0.21 
  -6   1   5    3.72    0.35 
  -6   1   5    3.80    0.24 
  -6   1   5    3.78    0.26 
  -6   1   5    3.45    0.35 
  -6   1   5    3.22    0.21 
   5  -1  -5   59.69    2.81 
  -5   1   5   61.40    3.13 
  -5   1   5   53.79    2.98 
  -5   1   5   55.96    4.71 
   4  -1  -5    3.05    0.23 
  -4   1   5    3.54    0.22 
   3  -1  -5  266.89   13.81 
  -3   1   5  256.06   14.01 
   2  -1  -5  417.50   21.86 
  -2   1   5  411.71   22.20 
   1  -1  -5  122.24    6.44 
   1  -1  -5  121.54    6.44 
   0  -1  -5   24.98    1.31 
   0   1   5   24.14    1.31 
  -1  -1  -5    0.70    0.07 
   1   1   5    0.54    0.06 
   1   1   5    0.47    0.06 
   1   1   5    0.41    0.05 
  -2  -1  -5    5.82    0.34 
  -2  -1  -5    6.47    0.35 
   2   1   5    6.27    0.35 
   2   1   5    5.98    0.36 
   2   1   5    6.06    0.34 
  -3  -1  -5   16.04    0.87 
  -3  -1  -5   15.79    0.88 
   3   1   5   16.61    0.89 
   3   1   5   17.31    0.93 
   3   1   5   15.43    0.87 
   3   1   5   15.74    0.86 
  -4  -1  -5   48.23    2.48 
   4   1   5   45.75    2.51 
   4   1   5   46.99    2.63 
   4   1   5   46.18    2.46 
  -5  -1  -5   25.41    1.57 
   5   1   5   21.31    1.20 
   5   1   5   20.59    1.23 
   5   1   5   22.10    1.29 
  -6  -1  -5    0.92    0.16 
  -6  -1  -5    0.84    0.09 
  -6  -1  -5    0.77    0.12 
   6   1   5    0.87    0.11 
   6   1   5    0.79    0.13 
   6   1   5    0.67    0.07 
   6   1   5    0.69    0.07 
   6   1   5    0.85    0.11 
  -7  -1  -5    8.06    0.44 
  -7  -1  -5    7.67    0.60 
   7   1   5    8.49    0.53 
   7   1   5    7.77    0.62 
   7   1   5    7.85    0.41 
  -8  -1  -5    0.80    0.12 
  -8  -1  -5    1.02    0.08 
   8   1   5    0.94    0.09 
   8   1   5    0.77    0.10 
   7  -2  -5    0.53    0.06 
   6  -2  -5    0.67    0.07 
  -6   2   5    0.76    0.14 
  -6   2   5    0.78    0.10 
  -6   2   5    0.66    0.07 
   5  -2  -5   -0.05    0.03 
  -5   2   5    0.07    0.08 
  -5   2   5    0.09    0.05 
  -5   2   5    0.01    0.04 
  -5   2   5    0.14    0.06 
  -5   2   5    0.12    0.09 
   4  -2  -5   25.26    1.54 
  -4   2   5   30.34    2.33 
  -4   2   5   29.38    2.26 
  -4   2   5   27.65    1.54 
   3  -2  -5   31.97    1.76 
  -3   2   5   33.10    1.77 
   2  -2  -5   47.01    2.50 
  -2   2   5   46.79    2.53 
   1  -2  -5   19.97    1.03 
  -1   2   5   18.39    1.04 
   0  -2  -5    2.92    0.19 
   0  -2  -5    2.74    0.16 
   0   2   5    2.48    0.16 
  -1  -2  -5  105.16    5.45 
   1   2   5  101.22    5.44 
  -2  -2  -5   17.59    0.93 
   2   2   5   17.18    0.93 
   2   2   5   17.14    0.98 
  -3  -2  -5    2.80    0.19 
  -3  -2  -5    3.32    0.20 
   3   2   5    3.34    0.20 
  -4  -2  -5   28.29    1.51 
  -4  -2  -5   27.30    1.49 
   4   2   5   26.81    1.48 
   4   2   5   29.20    1.58 
  -5  -2  -5   14.53    0.84 
   5   2   5   14.47    0.81 
   5   2   5   15.73    0.87 
  -6  -2  -5    6.20    0.37 
   6   2   5    6.02    0.46 
   6   2   5    5.57    0.39 
   6   2   5    5.32    0.34 
   6   2   5    5.75    0.36 
   6   2   5    4.96    0.32 
  -7  -2  -5    2.69    0.18 
  -7  -2  -5    2.74    0.21 
  -7  -2  -5    2.42    0.26 
   7   2   5    2.79    0.21 
   7   2   5    2.50    0.25 
   7   2   5    2.52    0.19 
  -8  -2  -5    0.96    0.15 
  -8  -2  -5    1.28    0.10 
   8   2   5    1.06    0.13 
   8   2   5    1.28    0.11 
   6  -3  -5   11.13    0.55 
  -6   3   5   10.59    0.90 
  -6   3   5   11.29    0.70 
   5  -3  -5   42.30    2.03 
  -5   3   5   39.51    2.26 
  -5   3   5   42.85    2.55 
  -5   3   5   41.54    3.30 
  -4   3   5    1.14    0.11 
  -4   3   5    1.16    0.12 
  -4   3   5    1.23    0.17 
  -4   3   5    1.06    0.16 
   3  -3  -5    7.18    0.45 
  -3   3   5    8.39    0.65 
  -3   3   5    7.30    0.44 
   2  -3  -5    5.84    0.34 
  -2   3   5    5.71    0.34 
   1  -3  -5   91.52    4.73 
  -1   3   5   87.45    4.81 
   0  -3  -5    6.38    0.35 
   0  -3  -5    6.58    0.41 
   0   3   5    6.17    0.36 
  -1  -3  -5  260.77   13.64 
   1   3   5  256.65   13.86 
  -2  -3  -5    2.71    0.16 
   2   3   5    2.40    0.16 
   2   3   5    2.64    0.16 
  -3  -3  -5    3.59    0.22 
   3   3   5    3.72    0.23 
  -4  -3  -5  136.32    7.05 
   4   3   5  135.00    7.43 
   4   3   5  128.17    6.95 
  -5  -3  -5    4.53    0.30 
   5   3   5    4.64    0.29 
   5   3   5    5.25    0.31 
  -6  -3  -5    2.29    0.14 
   6   3   5    2.34    0.16 
   6   3   5    2.07    0.19 
   6   3   5    2.16    0.16 
   6   3   5    2.32    0.18 
   6   3   5    2.38    0.17 
   6   3   5    2.39    0.23 
  -7  -3  -5    2.88    0.27 
  -7  -3  -5    2.92    0.21 
   7   3   5    2.86    0.18 
   7   3   5    2.63    0.19 
   7   3   5    2.95    0.27 
   7   3   5    2.69    0.22 
  -8  -3  -5    0.25    0.12 
   8   3   5    0.38    0.06 
   8   3   5    0.39    0.11 
   8   3   5    0.32    0.07 
  -5   4   5    0.52    0.11 
  -5   4   5    0.64    0.09 
  -4   4   5   30.31    1.87 
  -4   4   5   32.10    2.49 
  -4   4   5   30.99    2.41 
  -4   4   5   27.51    1.65 
  -3   4   5   21.38    1.17 
  -3   4   5   19.94    1.75 
  -3   4   5   20.76    1.70 
  -3   4   5   22.53    1.32 
  -2   4   5    1.03    0.10 
  -2   4   5    1.02    0.14 
  -2   4   5    1.12    0.14 
  -1   4   5   65.72    3.42 
  -1   4   5   61.21    4.81 
   0   4   5   18.93    1.57 
   0   4   5   21.20    1.96 
   0   4   5   21.25    1.12 
   1   4   5   73.35    6.41 
   1   4   5   65.24    3.72 
  -2  -4  -5    3.55    0.20 
   2   4   5    3.16    0.20 
  -3  -4  -5   17.27    0.90 
   3   4   5   16.08    0.95 
  -4  -4  -5   44.66    2.40 
   4   4   5   45.22    2.53 
  -5  -4  -5  114.48    6.11 
   5   4   5  126.24    6.43 
   5   4   5  104.58    6.02 
  -6  -4  -5   94.51    4.56 
   6   4   5   92.23    4.84 
   6   4   5   97.43    4.87 
   6   4   5   95.38    5.25 
   6   4   5   85.23    4.91 
   6   4   5   87.82    5.86 
   6   4   5  103.65    6.83 
  -7  -4  -5    4.99    0.26 
   7   4   5    4.59    0.29 
   7   4   5    4.68    0.40 
   7   4   5    4.68    0.28 
   7   4   5    4.56    0.33 
  -8  -4  -5    0.87    0.15 
   8   4   5    0.91    0.09 
   8   4   5    0.88    0.11 
   8   4   5    0.83    0.14 
   9   4   5    5.87    0.45 
  -5   5   5   53.79    3.27 
  -4   5   5  135.72   10.51 
  -4   5   5  131.83    8.12 
  -3   5   5   34.49    2.15 
  -3   5   5   35.98    2.87 
  -3   5   5   34.22    2.78 
  -2   5   5   37.18    2.31 
  -2   5   5   37.83    2.99 
  -2   5   5   37.28    2.74 
  -2   5   5   38.15    3.09 
  -1   5   5    3.32    0.30 
  -1   5   5    3.15    0.27 
  -1   5   5    3.03    0.27 
  -1   5   5    2.78    0.30 
  -1   5   5    2.40    0.26 
  -1   5   5    2.93    0.23 
  -1   5   5    3.46    0.29 
  -1   5   5    2.89    0.28 
  -1   5   5    2.98    0.25 
   0   5   5    0.32    0.10 
   0   5   5    0.36    0.15 
   0   5   5    0.40    0.10 
   0   5   5    0.34    0.08 
   1   5   5   72.73    6.38 
   1   5   5   60.13    5.20 
   1   5   5   73.26    5.41 
  -3  -5  -5   11.64    0.67 
   3   5   5   13.15    0.99 
  -4  -5  -5  180.48    9.53 
  -5  -5  -5    8.12    0.43 
  -5  -5  -5    8.10    0.49 
   5   5   5    8.12    0.45 
   5   5   5    9.21    0.65 
   5   5   5    9.09    0.51 
   5   5   5    8.26    0.46 
   5   5   5    8.23    0.49 
   5   5   5    7.85    0.55 
  -6  -5  -5    3.45    0.20 
   6   5   5    3.33    0.23 
   6   5   5    4.13    0.32 
   6   5   5    3.72    0.22 
   6   5   5    3.41    0.23 
   6   5   5    3.44    0.26 
   6   5   5    3.48    0.22 
   6   5   5    3.63    0.25 
  -7  -5  -5   20.95    1.01 
   7   5   5   19.71    1.30 
   7   5   5   17.79    1.09 
   7   5   5   21.59    1.53 
   7   5   5   20.49    1.07 
   7   5   5   21.80    1.09 
  -8  -5  -5   22.93    1.09 
   8   5   5   22.53    1.16 
   8   5   5   20.64    1.64 
   8   5   5   22.32    1.40 
   9   5   5    2.04    0.18 
  -3   6   5   93.89    5.66 
  -3   6   5   92.26    7.32 
  -2   6   5   97.97    8.73 
  -2   6   5  110.88    7.76 
  -2   6   5  104.05    6.54 
  -2   6   5  107.10    8.47 
  -2   6   5  118.08    7.35 
  -1   6   5  118.87    7.21 
  -1   6   5  122.47    8.55 
  -1   6   5  133.04    9.63 
  -1   6   5  109.17    8.09 
  -1   6   5  115.18    9.33 
  -1   6   5  112.93    8.74 
   0   6   5   40.85    3.19 
   0   6   5   43.60    3.10 
   0   6   5   38.65    3.16 
   0   6   5   43.42    3.26 
   0   6   5   40.50    2.61 
   0   6   5   42.39    3.48 
   0   6   5   48.12    3.38 
   1   6   5   19.87    1.45 
   1   6   5   17.56    1.39 
   1   6   5   16.16    1.52 
   1   6   5   16.85    1.28 
   1   6   5   20.61    1.49 
   1   6   5   17.76    1.17 
   1   6   5   19.57    1.15 
   1   6   5   19.88    1.36 
   1   6   5   17.61    1.37 
   1   6   5   17.53    1.40 
   2   6   5    0.89    0.16 
   2   6   5    0.94    0.12 
   2   6   5    0.70    0.11 
   2   6   5    0.82    0.13 
   2   6   5    0.93    0.15 
   2   6   5    0.87    0.12 
   2   6   5    0.91    0.13 
   2   6   5    0.74    0.12 
   3   6   5    1.61    0.19 
   3   6   5    1.40    0.14 
   3   6   5    1.69    0.17 
   3   6   5    1.80    0.21 
   3   6   5    1.38    0.16 
   4   6   5    2.56    0.22 
   4   6   5    2.25    0.18 
   4   6   5    1.89    0.15 
   4   6   5    1.93    0.17 
   4   6   5    2.68    0.26 
   5   6   5   31.32    2.24 
   5   6   5   30.73    1.70 
   5   6   5   30.43    2.35 
   5   6   5   30.63    1.59 
   5   6   5   28.69    1.92 
  -6  -6  -5   48.11    2.28 
   6   6   5   47.25    2.59 
   6   6   5   46.97    3.43 
   6   6   5   44.77    2.94 
   6   6   5   46.74    3.58 
   6   6   5   47.32    2.44 
   6   6   5   45.91    2.42 
  -7  -6  -5    3.00    0.17 
   7   6   5    2.89    0.23 
   7   6   5    2.73    0.20 
   7   6   5    3.21    0.28 
   7   6   5    3.13    0.19 
   7   6   5    3.07    0.18 
  -8  -6  -5    4.31    0.22 
   8   6   5    3.83    0.28 
   8   6   5    3.75    0.33 
   8   6   5    4.19    0.23 
  -2   7   5    0.73    0.09 
  -2   7   5    0.92    0.12 
  -2   7   5    0.79    0.10 
  -1   7   5    4.84    0.39 
  -1   7   5    4.07    0.33 
  -1   7   5    4.44    0.30 
  -1   7   5    4.10    0.39 
  -1   7   5    4.01    0.36 
   0   7   5   35.79    2.58 
   0   7   5   32.29    2.52 
   0   7   5   32.99    2.84 
   0   7   5   37.78    2.67 
   0   7   5   33.67    2.55 
   0   7   5   34.47    2.75 
   0   7   5   35.10    2.39 
   1   7   5    9.77    0.76 
   1   7   5    8.62    0.82 
   1   7   5    9.53    0.64 
   1   7   5    8.61    0.74 
   1   7   5    9.20    0.79 
   1   7   5   10.50    0.81 
   1   7   5    9.60    0.74 
   1   7   5   10.80    0.76 
   2   7   5    8.79    0.72 
   2   7   5    9.09    0.67 
   2   7   5   10.44    0.72 
   2   7   5    9.00    0.61 
   2   7   5    9.87    0.77 
   2   7   5    8.66    0.72 
   2   7   5    8.22    0.70 
   2   7   5    8.55    0.79 
   2   7   5    9.64    0.76 
   3   7   5    7.64    0.61 
   3   7   5    6.79    0.42 
   3   7   5    8.10    0.57 
   3   7   5    6.34    0.57 
   3   7   5    7.06    0.49 
   4   7   5   67.85    4.56 
   4   7   5   74.57    4.02 
   4   7   5   77.83    5.32 
   4   7   5   71.14    5.53 
   5   7   5   30.77    2.32 
   5   7   5   31.42    2.42 
   5   7   5   29.54    1.98 
   5   7   5   33.87    1.75 
  -6  -7  -5    3.92    0.23 
   6   7   5    4.00    0.30 
   6   7   5    4.48    0.27 
   6   7   5    4.42    0.40 
   6   7   5    4.42    0.36 
   6   7   5    4.23    0.25 
  -7  -7  -5    3.71    0.20 
   7   7   5    3.85    0.26 
   7   7   5    3.21    0.33 
   7   7   5    3.57    0.31 
   7   7   5    3.62    0.23 
  -8  -7  -5    2.50    0.13 
  -8  -7  -5    2.39    0.13 
   8   7   5    2.34    0.18 
   8   7   5    2.18    0.21 
   1   8   5    2.87    0.27 
   1   8   5    2.88    0.26 
   1   8   5    3.32    0.29 
   2   8   5    2.09    0.17 
   2   8   5    1.48    0.18 
   2   8   5    2.14    0.22 
   2   8   5    1.69    0.18 
   2   8   5    2.16    0.19 
   3   8   5    0.14    0.07 
   3   8   5    0.33    0.11 
   3   8   5    0.23    0.07 
   4   8   5    0.03    0.08 
   4   8   5    0.10    0.06 
   4   8   5    0.12    0.07 
   4   8   5    0.05    0.06 
   4   8   5    0.00    0.04 
   5   8   5   16.05    1.30 
   5   8   5   19.86    0.98 
   5   8   5   16.28    1.11 
   5   8   5   17.53    1.36 
   6   8   5   36.70    1.89 
   6   8   5   32.28    2.49 
   6   8   5   30.56    2.60 
   6   8   5   36.27    2.14 
  -7  -8  -5   10.15    0.47 
   7   8   5    8.73    0.72 
   7   8   5    9.80    0.54 
   7   8   5    9.38    0.62 
   3   9   5    2.55    0.23 
   3   9   5    2.82    0.23 
   4   9   5    3.08    0.26 
   4   9   5    3.25    0.22 
   4   9   5    3.19    0.26 
   5   9   5    2.35    0.19 
   5   9   5    2.73    0.17 
   5   9   5    3.20    0.23 
   6   9   5    1.02    0.11 
   6   9   5    0.95    0.08 
   6   9   5    1.05    0.09 
  -6  -7   6   26.95    1.32 
   5   7  -6   49.61    3.93 
  -5  -7   6   55.53    2.56 
   4   7  -6    0.20    0.09 
  -4  -7   6    0.14    0.03 
   3   7  -6   23.97    1.75 
  -3  -7   6   22.03    1.13 
   2   7  -6    2.50    0.23 
   7   6  -6   15.63    0.81 
  -7  -6   6   15.80    0.77 
  -7  -6   6   15.23    0.77 
   6   6  -6    0.04    0.04 
   6   6  -6    0.10    0.08 
  -6  -6   6    0.04    0.03 
   5   6  -6    0.69    0.07 
   5   6  -6    0.65    0.14 
  -5  -6   6    0.75    0.07 
   4   6  -6    6.26    0.36 
   4   6  -6    6.53    0.56 
  -4  -6   6    7.11    0.35 
   3   6  -6   18.00    1.49 
  -3  -6   6   20.61    0.96 
   2   6  -6    1.15    0.17 
  -2  -6   6    1.19    0.08 
   1   6  -6   17.83    1.31 
   1   6  -6   16.18    1.29 
   0   6  -6    0.27    0.12 
  -1   6  -6   10.24    0.79 
  -8  -5   6   10.62    0.47 
  -8  -5   6    8.11    0.80 
   7   5  -6   17.41    0.87 
  -7  -5   6   16.96    0.82 
  -7  -5   6   16.95    0.81 
  -7  -5   6   14.35    1.38 
   6   5  -6   22.51    1.17 
  -6  -5   6   22.04    1.11 
  -6  -5   6   22.51    1.10 
   5   5  -6   39.23    1.95 
   5   5  -6   34.84    2.83 
   5   5  -6   36.90    2.42 
  -5  -5   6   38.25    2.01 
  -5  -5   6   39.61    1.83 
  -5  -5   6   35.80    1.84 
   4   5  -6   29.34    1.55 
   4   5  -6   31.39    2.27 
   4   5  -6   29.43    1.93 
  -4  -5   6   30.29    1.61 
  -4  -5   6   28.52    1.46 
   3   5  -6   14.41    1.10 
   3   5  -6   13.58    0.73 
   3   5  -6   14.23    0.93 
  -3  -5   6   14.07    0.77 
  -3  -5   6   13.33    0.69 
   2   5  -6    0.41    0.05 
   2   5  -6    0.52    0.10 
   2   5  -6    0.40    0.12 
  -2  -5   6    0.44    0.05 
  -2  -5   6    0.61    0.08 
  -2  -5   6    0.54    0.09 
   1   5  -6    1.58    0.20 
   1   5  -6    1.66    0.20 
   1   5  -6    1.68    0.17 
  -1  -5   6    1.68    0.14 
  -1  -5   6    1.49    0.10 
   0   5  -6   36.29    2.56 
   0   5  -6   31.71    2.20 
  -1   5  -6   40.80    3.00 
   1  -5   6   39.30    1.96 
  -2   5  -6    9.45    0.76 
   2  -5   6    9.89    0.49 
  -3   5  -6   18.65    1.41 
   3  -5   6   18.95    0.92 
   8   4  -6    0.81    0.08 
  -8  -4   6    0.69    0.14 
  -8  -4   6    0.83    0.07 
   7   4  -6    5.25    0.29 
   7   4  -6    4.99    0.26 
  -7  -4   6    4.39    0.47 
  -7  -4   6    5.20    0.27 
   6   4  -6   49.35    2.53 
   6   4  -6   45.49    3.26 
   6   4  -6   53.69    2.64 
  -6  -4   6   54.29    2.49 
  -6  -4   6   51.38    2.48 
   5   4  -6    0.93    0.16 
   5   4  -6    0.87    0.10 
   5   4  -6    0.96    0.14 
   5   4  -6    0.83    0.08 
  -5  -4   6    0.85    0.08 
  -5  -4   6    0.83    0.08 
  -5  -4   6    1.12    0.10 
   4   4  -6    3.81    0.28 
   4   4  -6    3.11    0.32 
  -4  -4   6    3.23    0.19 
  -4  -4   6    3.68    0.22 
  -4  -4   6    3.20    0.19 
   3   4  -6   10.03    0.69 
   3   4  -6   10.50    0.81 
  -3  -4   6    9.71    0.60 
  -3  -4   6   10.26    0.57 
   2   4  -6    7.15    0.48 
   2   4  -6    6.11    0.77 
   2   4  -6    7.42    0.57 
  -2  -4   6    6.65    0.40 
  -2  -4   6    6.54    0.42 
  -2  -4   6    7.15    0.42 
   1   4  -6    1.47    0.20 
   1   4  -6    1.68    0.17 
   1   4  -6    1.14    0.31 
  -1  -4   6    1.99    0.13 
  -1  -4   6    1.68    0.15 
  -1  -4   6    1.84    0.14 
   0   4  -6   12.61    0.99 
   0   4  -6   13.39    0.85 
   0   4  -6   12.15    0.67 
   0  -4   6   12.13    0.63 
   0  -4   6   13.18    0.74 
  -1   4  -6    0.76    0.15 
  -1   4  -6    0.68    0.08 
   1  -4   6    0.73    0.10 
   1  -4   6    0.73    0.07 
  -2   4  -6    0.28    0.13 
   2  -4   6    0.13    0.04 
  -3   4  -6   39.36    2.72 
  -3   4  -6   38.79    2.95 
   3  -4   6   40.53    1.94 
  -4   4  -6    4.27    0.33 
  -4   4  -6    4.45    0.37 
   4  -4   6    4.68    0.23 
   8   3  -6    4.65    0.26 
   8   3  -6    4.95    0.24 
  -8  -3   6    4.85    0.24 
  -8  -3   6    4.71    0.25 
  -8  -3   6    3.93    0.42 
  -8  -3   6    4.02    0.30 
   7   3  -6    3.58    0.21 
   7   3  -6    3.60    0.22 
  -7  -3   6    3.54    0.38 
  -7  -3   6    3.73    0.20 
   6   3  -6    3.09    0.27 
   6   3  -6    2.98    0.19 
   6   3  -6    3.15    0.19 
  -6  -3   6    2.95    0.17 
  -6  -3   6    3.22    0.35 
  -6  -3   6    3.46    0.18 
   5   3  -6    0.30    0.05 
   5   3  -6    0.34    0.10 
   5   3  -6    0.18    0.05 
  -5  -3   6    0.29    0.06 
  -5  -3   6    0.23    0.04 
  -5  -3   6    0.28    0.04 
   4   3  -6   11.22    0.84 
   4   3  -6   10.68    0.72 
  -4  -3   6   10.21    0.59 
  -4  -3   6   10.33    0.63 
   3   3  -6   30.82    1.96 
  -3  -3   6   30.63    1.62 
  -3  -3   6   29.31    1.65 
   2   3  -6   20.44    1.42 
   2   3  -6   24.98    2.15 
  -2  -3   6   21.16    1.18 
  -2  -3   6   21.27    1.20 
   1   3  -6   26.67    1.59 
   1   3  -6   22.38    2.38 
  -1  -3   6   24.75    1.40 
  -1  -3   6   24.66    1.34 
  -1  -3   6   24.35    1.32 
   0   3  -6    5.32    0.39 
   0  -3   6    6.02    0.34 
  -1   3  -6   10.30    1.18 
  -1   3  -6   10.87    0.76 
  -1   3  -6   12.72    0.89 
   1  -3   6   11.89    0.67 
   1  -3   6   10.72    0.64 
  -2   3  -6   29.49    1.66 
  -2   3  -6   34.36    2.39 
   2  -3   6   33.24    1.81 
   2  -3   6   30.27    1.56 
  -3   3  -6    0.96    0.10 
  -3   3  -6    0.87    0.14 
  -3   3  -6    0.74    0.16 
   3  -3   6    0.96    0.12 
   3  -3   6    0.78    0.08 
  -4   3  -6    6.09    0.42 
  -4   3  -6    4.73    0.30 
  -4   3  -6    5.90    0.47 
   4  -3   6    5.51    0.29 
  -5   3  -6    8.58    0.63 
   5  -3   6    9.07    0.44 
   8   2  -6    0.17    0.04 
  -8  -2   6    0.16    0.10 
  -8  -2   6    0.06    0.06 
  -8  -2   6    0.18    0.04 
   7   2  -6   11.30    0.57 
  -7  -2   6   11.13    0.59 
  -7  -2   6   10.59    0.96 
  -7  -2   6   10.75    0.55 
   6   2  -6  101.89    6.56 
   6   2  -6   95.54    5.00 
   6   2  -6  105.18    5.11 
  -6  -2   6   97.59    5.30 
  -6  -2   6   99.96    5.02 
  -6  -2   6  117.68    8.39 
   5   2  -6   34.09    1.73 
   5   2  -6   36.41    2.24 
  -5  -2   6   33.43    1.70 
   4   2  -6   23.51    1.48 
  -4  -2   6   22.48    1.22 
  -4  -2   6   21.87    1.25 
   3   2  -6  291.99   18.51 
   3   2  -6  276.65   15.31 
  -3  -2   6  300.38   15.37 
  -3  -2   6  298.78   15.43 
   2   2  -6   77.31    4.50 
   2   2  -6   74.25    6.55 
   2   2  -6   64.90    3.72 
  -2  -2   6   66.16    3.76 
  -2  -2   6   70.62    3.74 
   1   2  -6   34.54    2.18 
   1   2  -6   33.23    1.80 
  -1  -2   6   33.83    1.81 
  -1  -2   6   32.61    1.91 
  -1  -2   6   35.90    1.83 
   0   2  -6   23.14    1.26 
   0   2  -6   24.25    2.26 
   0   2  -6   23.25    1.51 
   0  -2   6   22.40    1.25 
   0  -2   6   24.80    1.27 
   0  -2   6   23.16    1.33 
  -1   2  -6   43.66    2.69 
  -1   2  -6   41.01    2.23 
  -1   2  -6   41.49    3.96 
   1  -2   6   42.06    2.25 
   1  -2   6   41.98    2.36 
  -2   2  -6   85.26    4.37 
  -2   2  -6   75.85    7.67 
   2  -2   6   83.11    4.40 
   2  -2   6   85.92    4.62 
  -3   2  -6  110.84    5.63 
  -3   2  -6  103.68    7.86 
  -3   2  -6  113.13    7.27 
  -3   2  -6  100.54    5.50 
   3  -2   6   98.83    5.18 
   3  -2   6  112.15    5.96 
  -4   2  -6   11.11    0.91 
  -4   2  -6   11.91    0.83 
  -4   2  -6   11.82    0.63 
   4  -2   6   11.22    0.59 
   4  -2   6   11.87    0.65 
   4  -2   6   11.35    0.69 
  -5   2  -6    0.00    0.10 
  -5   2  -6   -0.01    0.05 
  -5   2  -6    0.00    0.11 
   5  -2   6    0.07    0.04 
  -6   2  -6    3.13    0.25 
   6  -2   6    3.21    0.17 
   6  -2   6    3.28    0.17 
   8   1  -6   71.70    3.48 
  -8  -1   6   72.35    3.61 
  -8  -1   6   66.36    4.26 
   7   1  -6   29.04    1.42 
  -7  -1   6   26.36    2.39 
  -7  -1   6   30.47    1.51 
  -7  -1   6   29.66    1.78 
   6   1  -6   25.32    1.20 
  -6  -1   6   24.01    1.27 
  -6  -1   6   25.77    2.04 
  -6  -1   6   22.28    1.20 
   5   1  -6    6.00    0.33 
   5   1  -6    6.04    0.41 
  -5  -1   6    6.96    0.59 
   4   1  -6   31.29    1.77 
   4   1  -6   33.31    1.72 
   3   1  -6    1.34    0.11 
   3   1  -6    1.24    0.13 
  -3  -1   6    1.27    0.10 
  -3  -1   6    1.29    0.13 
   2   1  -6    8.62    0.47 
   2   1  -6    8.66    0.50 
   2   1  -6    8.71    0.57 
  -2  -1   6    8.46    0.49 
  -2  -1   6    8.33    0.47 
   1   1  -6  204.29   10.80 
   1   1  -6  212.30   10.88 
   1   1  -6  207.02   13.05 
   1   1  -6  217.20   10.88 
  -1  -1   6  182.70   11.45 
  -1  -1   6  204.30   10.84 
  -1  -1   6  214.03   10.88 
   0   1  -6    6.77    0.37 
   0   1  -6    6.22    0.36 
   0   1  -6    6.11    0.42 
   0  -1   6    6.04    0.37 
   0  -1   6    6.26    0.35 
   0  -1   6    6.58    0.37 
  -1   1  -6   38.15    2.04 
   1  -1   6   37.98    2.04 
   1  -1   6   38.14    2.06 
   1  -1   6   39.61    2.16 
  -2   1  -6   62.69    3.27 
  -2   1  -6   59.86    5.75 
   2  -1   6   63.24    3.46 
   2  -1   6   61.02    3.29 
  -3   1  -6    1.19    0.15 
   3  -1   6    1.27    0.13 
   3  -1   6    1.14    0.12 
  -4   1  -6    6.68    0.46 
  -4   1  -6    5.34    0.37 
  -4   1  -6    6.18    0.35 
  -4   1  -6    6.22    0.39 
  -4   1  -6    5.96    0.50 
   4  -1   6    5.68    0.35 
   4  -1   6    5.69    0.38 
   4  -1   6    5.56    0.32 
  -5   1  -6    0.14    0.12 
  -5   1  -6    0.17    0.07 
  -5   1  -6    0.03    0.07 
   5  -1   6    0.06    0.04 
   5  -1   6    0.28    0.07 
  -6   1  -6   14.20    1.03 
  -6   1  -6   14.56    0.77 
   6  -1   6   15.01    0.73 
   8   0  -6    0.49    0.05 
  -8   0   6    0.48    0.05 
  -8   0   6    0.46    0.05 
  -8   0   6    0.49    0.06 
   7   0  -6   12.01    0.59 
  -7   0   6   11.90    0.98 
  -7   0   6   11.53    0.74 
  -7   0   6   10.85    0.99 
  -7   0   6   12.16    0.62 
   6   0  -6  173.32    8.16 
  -6   0   6  166.10    9.03 
  -6   0   6  164.31    8.65 
  -6   0   6  166.33   13.63 
  -6   0   6  170.27   10.20 
   5   0  -6   70.56    3.26 
  -5   0   6   71.55    5.46 
  -5   0   6   63.39    4.07 
  -5   0   6   67.10    3.61 
  -5   0   6   61.52    3.45 
   4   0  -6    5.05    0.30 
  -4   0   6    3.97    0.26 
   3   0  -6  133.04    7.05 
  -3   0   6  133.01    7.14 
   2   0  -6   93.00    4.68 
   2   0  -6   90.74    4.64 
  -2   0   6   86.65    4.73 
  -2   0   6   82.38    4.65 
   1   0  -6  384.01   20.22 
   1   0  -6  373.46   20.10 
   1   0  -6  371.33   20.23 
  -1   0   6  401.34   20.23 
  -1   0   6  387.87   20.18 
   0   0  -6   15.77    0.80 
   0   0  -6   14.46    0.79 
   0   0   6   14.32    0.79 
   0   0   6   15.31    0.80 
   0   0   6   13.43    0.83 
  -1   0  -6  103.43    5.28 
  -1   0  -6  102.15    5.25 
   1   0   6   95.75    5.26 
   1   0   6  100.86    5.29 
   1   0   6   97.11    5.57 
  -2   0  -6   28.00    1.52 
  -2   0  -6   28.68    1.51 
   2   0   6   29.57    1.59 
   2   0   6   28.69    1.52 
   2   0   6   26.11    1.50 
  -3   0  -6  182.00    8.74 
   3   0   6  158.89    8.68 
   3   0   6  159.42    8.79 
   3   0   6  164.72    9.27 
  -4   0  -6   25.58    1.32 
   4   0   6   22.95    1.39 
   4   0   6   23.50    1.33 
   4   0   6   24.80    1.30 
  -5   0  -6   14.02    0.75 
  -5   0  -6   14.17    0.99 
  -5   0  -6   14.28    0.81 
   5   0   6   13.20    0.82 
   5   0   6   12.70    0.70 
   5   0   6   14.93    0.77 
  -6   0  -6    1.57    0.14 
  -6   0  -6    1.68    0.19 
   6   0   6    1.69    0.14 
   6   0   6    1.37    0.11 
  -7   0  -6   10.97    0.80 
  -7   0  -6   11.63    0.60 
   7   0   6   10.68    0.72 
   7   0   6   11.48    0.56 
   7  -1  -6    0.34    0.04 
  -7   1   6    0.34    0.05 
  -7   1   6    0.37    0.10 
  -7   1   6    0.42    0.07 
  -7   1   6    0.41    0.04 
   6  -1  -6    7.24    0.37 
  -6   1   6    7.78    0.47 
  -6   1   6    7.18    0.38 
  -6   1   6    6.18    0.61 
  -6   1   6    6.97    0.42 
  -6   1   6    7.10    0.63 
   5  -1  -6    4.82    0.27 
  -5   1   6    5.23    0.34 
  -5   1   6    5.34    0.31 
  -5   1   6    5.00    0.47 
  -5   1   6    4.42    0.28 
   4  -1  -6   70.59    3.79 
  -4   1   6   71.06    3.82 
   3  -1  -6    9.96    0.57 
  -3   1   6    9.77    0.55 
   2  -1  -6  152.54    7.91 
  -2   1   6  146.48    8.02 
   1  -1  -6   99.64    5.06 
   1  -1  -6   97.36    5.10 
   1  -1  -6   96.68    5.10 
  -1   1   6   97.74    5.17 
  -1   1   6   90.24    5.08 
   0  -1  -6   12.21    0.67 
   0  -1  -6   13.16    0.68 
   0   1   6   12.05    0.67 
   0   1   6   12.08    0.68 
  -1  -1  -6  201.63   10.71 
  -1  -1  -6  211.61   10.78 
   1   1   6  206.61   10.94 
   1   1   6  222.57   10.78 
   1   1   6  199.93   10.75 
   1   1   6  183.44   11.36 
  -2  -1  -6   82.26    4.43 
  -2  -1  -6   86.22    4.46 
   2   1   6   81.56    4.70 
   2   1   6   83.68    4.45 
   2   1   6   87.28    4.46 
  -3  -1  -6    7.40    0.42 
  -3  -1  -6    7.45    0.42 
   3   1   6    7.35    0.42 
   3   1   6    7.42    0.41 
   3   1   6    6.84    0.40 
   3   1   6    7.26    0.44 
  -4  -1  -6   12.32    0.68 
   4   1   6   12.35    0.72 
   4   1   6   12.35    0.66 
   4   1   6   11.55    0.69 
  -5  -1  -6   22.70    1.15 
  -5  -1  -6   21.84    1.18 
   5   1   6   22.05    1.25 
   5   1   6   20.74    1.07 
   5   1   6   21.19    1.17 
  -6  -1  -6    2.72    0.27 
  -6  -1  -6    2.79    0.19 
  -6  -1  -6    2.74    0.22 
   6   1   6    3.13    0.22 
   6   1   6    2.45    0.16 
   6   1   6    3.10    0.20 
   6   1   6    2.51    0.16 
  -7  -1  -6    2.65    0.18 
  -7  -1  -6    2.53    0.25 
   7   1   6    2.77    0.20 
  -8  -1  -6    1.53    0.10 
  -8  -1  -6    1.33    0.14 
   7  -2  -6   -0.01    0.03 
  -7   2   6    0.07    0.05 
   6  -2  -6    9.07    0.45 
  -6   2   6    8.76    0.48 
  -6   2   6    9.33    0.77 
  -6   2   6    8.59    0.74 
  -6   2   6    8.72    0.57 
   5  -2  -6    7.91    0.40 
  -5   2   6    7.88    0.69 
  -5   2   6    8.21    0.46 
  -5   2   6    8.06    0.51 
  -5   2   6    7.16    0.41 
  -5   2   6    7.33    0.66 
   4  -2  -6   21.77    1.16 
  -4   2   6   25.66    1.90 
  -4   2   6   23.69    1.45 
  -4   2   6   24.00    1.95 
  -4   2   6   20.64    1.22 
  -4   2   6   25.72    1.30 
   3  -2  -6   16.07    0.96 
  -3   2   6   17.73    1.40 
  -3   2   6   18.08    0.96 
   2  -2  -6   95.13    5.00 
  -2   2   6   93.43    5.07 
   1  -2  -6   21.99    1.16 
   1  -2  -6   20.85    1.14 
  -1   2   6   21.68    1.14 
  -1   2   6   21.30    1.17 
   0  -2  -6    0.79    0.08 
   0   2   6    0.82    0.07 
   0   2   6    1.14    0.08 
  -1  -2  -6  150.49    7.88 
  -1  -2  -6  146.92    7.83 
   1   2   6  159.80    7.86 
   1   2   6  133.96    8.30 
   1   2   6  155.19    8.00 
  -2  -2  -6    0.12    0.05 
  -2  -2  -6    0.49    0.06 
   2   2   6    0.50    0.06 
  -3  -2  -6  194.87   10.49 
  -3  -2  -6  203.79   10.56 
   3   2   6  195.85   11.13 
   3   2   6  205.03   10.53 
  -4  -2  -6   49.06    2.53 
  -4  -2  -6   48.20    2.56 
   4   2   6   43.49    2.51 
   4   2   6   50.63    2.69 
  -5  -2  -6    0.71    0.09 
   5   2   6    0.80    0.10 
   5   2   6    0.77    0.10 
   5   2   6    0.60    0.09 
  -6  -2  -6    0.68    0.12 
  -6  -2  -6    0.71    0.14 
   6   2   6    0.64    0.09 
   6   2   6    0.77    0.13 
   6   2   6    0.67    0.08 
   6   2   6    0.82    0.10 
   6   2   6    0.76    0.11 
  -7  -2  -6    0.14    0.12 
  -7  -2  -6    0.10    0.06 
   7   2   6    0.13    0.09 
   7   2   6    0.08    0.06 
   7   2   6    0.07    0.06 
  -8  -2  -6    2.83    0.25 
  -8  -2  -6    3.35    0.19 
   8   2   6    2.94    0.26 
   8   2   6    3.18    0.22 
  -6   3   6    0.13    0.07 
  -6   3   6    0.13    0.06 
   5  -3  -6    4.27    0.23 
  -5   3   6    4.27    0.39 
  -5   3   6    4.64    0.40 
  -5   3   6    4.44    0.30 
  -5   3   6    3.85    0.24 
  -4   3   6   44.40    2.12 
  -4   3   6   39.03    2.38 
  -4   3   6   36.63    2.03 
  -4   3   6   38.99    3.19 
  -4   3   6   35.42    3.09 
   3  -3  -6    3.34    0.25 
  -3   3   6    3.75    0.24 
  -3   3   6    3.82    0.37 
  -3   3   6    4.41    0.36 
   2  -3  -6  209.76   11.05 
  -2   3   6  208.60   11.22 
   1  -3  -6  260.47   13.84 
   1  -3  -6  281.39   13.92 
  -1   3   6  249.93   14.14 
   0  -3  -6   19.82    1.05 
   0   3   6   18.19    1.06 
   0   3   6   20.61    1.05 
  -1  -3  -6   43.51    2.30 
   1   3   6   41.97    2.33 
   1   3   6   44.33    2.30 
  -2  -3  -6    9.27    0.49 
   2   3   6    7.97    0.51 
   2   3   6    9.38    0.49 
   2   3   6    8.67    0.49 
  -3  -3  -6   17.39    0.92 
   3   3   6   16.29    0.96 
  -4  -3  -6   12.82    0.71 
   4   3   6   12.61    0.74 
  -5  -3  -6   91.08    5.03 
   5   3   6  103.92    5.30 
   5   3   6   89.08    4.96 
  -6  -3  -6   24.13    1.21 
   6   3   6   24.69    1.55 
   6   3   6   22.60    1.29 
   6   3   6   24.95    1.41 
   6   3   6   26.72    1.81 
   6   3   6   23.93    1.28 
   6   3   6   23.99    1.31 
  -7  -3  -6    0.01    0.11 
   7   3   6    0.05    0.06 
   7   3   6    0.05    0.05 
   7   3   6    0.11    0.09 
   7   3   6    0.04    0.06 
  -8  -3  -6    3.28    0.31 
   8   3   6    3.88    0.32 
   8   3   6    4.17    0.27 
   8   3   6    4.07    0.23 
  -5   4   6   11.76    0.70 
  -5   4   6   10.31    0.90 
  -4   4   6    4.83    0.32 
  -4   4   6    3.97    0.28 
  -4   4   6    4.89    0.42 
  -4   4   6    4.77    0.43 
  -3   4   6    5.74    0.43 
  -3   4   6    6.08    0.58 
  -3   4   6    7.03    0.39 
  -3   4   6    7.34    0.57 
  -2   4   6    8.99    0.69 
  -2   4   6    7.25    0.66 
  -2   4   6    7.41    0.45 
  -1   4   6    0.11    0.04 
  -1   4   6    0.18    0.07 
  -1   4   6    0.15    0.08 
   0   4   6  101.56    5.73 
   0   4   6  111.88    8.05 
  -1  -4  -6  225.72   10.89 
   1   4   6  212.57   11.07 
   1   4   6  181.41   15.54 
  -2  -4  -6    3.07    0.18 
   2   4   6    3.10    0.27 
   2   4   6    2.71    0.18 
  -3  -4  -6   45.54    2.30 
   3   4   6   40.72    2.42 
  -4  -4  -6  102.27    5.30 
   4   4   6   97.47    5.58 
  -5  -4  -6    2.94    0.22 
   5   4   6    2.93    0.22 
   5   4   6    3.04    0.19 
  -6  -4  -6   61.35    3.03 
   6   4   6   58.97    3.89 
   6   4   6   62.32    3.49 
   6   4   6   66.99    4.54 
   6   4   6   61.51    3.21 
   6   4   6   60.96    3.23 
  -7  -4  -6    1.54    0.11 
   7   4   6    1.45    0.12 
   7   4   6    1.54    0.18 
   7   4   6    1.39    0.14 
  -8  -4  -6    0.40    0.13 
   8   4   6    0.52    0.06 
   8   4   6    0.48    0.08 
   8   4   6    0.49    0.11 
  -4   5   6   22.20    1.77 
  -4   5   6   21.76    1.72 
  -4   5   6   20.58    1.33 
  -3   5   6    7.84    0.49 
  -3   5   6    7.74    0.63 
  -3   5   6    6.54    0.64 
  -2   5   6   55.23    4.40 
  -2   5   6   55.56    3.29 
  -2   5   6   49.54    2.91 
  -2   5   6   52.06    3.90 
  -2   5   6   56.74    4.27 
  -1   5   6  167.92   11.15 
  -1   5   6  174.59   12.17 
  -1   5   6  133.67    9.40 
  -1   5   6  151.03   11.25 
  -1   5   6  153.86   11.69 
  -1   5   6  155.89   12.55 
  -1   5   6  147.31    8.32 
   0   5   6   21.64    1.65 
   0   5   6   20.89    1.71 
   1   5   6   11.79    1.05 
   1   5   6   14.19    1.03 
   2   5   6   38.04    2.91 
  -3  -5  -6   15.34    0.88 
   3   5   6   17.26    1.28 
  -4  -5  -6   10.70    0.61 
   4   5   6   10.22    0.64 
   4   5   6   11.72    0.88 
  -5  -5  -6   76.05    3.85 
   5   5   6   78.18    4.08 
   5   5   6   84.50    4.43 
   5   5   6   79.89    5.76 
   5   5   6   73.96    4.94 
   5   5   6   82.04    4.11 
   5   5   6   78.68    4.36 
  -6  -5  -6   64.13    3.11 
   6   5   6   64.12    3.30 
   6   5   6   63.82    3.59 
   6   5   6   66.69    4.67 
   6   5   6   57.05    4.00 
   6   5   6   67.31    3.33 
  -7  -5  -6   53.77    2.63 
   7   5   6   54.88    2.82 
   7   5   6   52.58    3.39 
   7   5   6   54.11    2.79 
   7   5   6   54.46    3.95 
  -8  -5  -6   76.18    3.69 
   8   5   6   75.18    4.75 
   8   5   6   74.42    5.53 
   8   5   6   77.99    3.92 
  -3   6   6    0.89    0.13 
  -3   6   6    0.97    0.13 
  -3   6   6    1.08    0.11 
  -2   6   6   19.77    1.19 
  -2   6   6   19.56    1.41 
  -2   6   6   18.58    1.58 
  -2   6   6   18.33    1.54 
  -1   6   6    6.93    0.54 
  -1   6   6    6.50    0.49 
  -1   6   6    7.29    0.45 
  -1   6   6    6.94    0.60 
  -1   6   6    5.79    0.58 
   0   6   6   27.49    1.68 
   0   6   6   22.11    1.78 
   0   6   6   21.45    1.77 
   0   6   6   25.59    1.83 
   0   6   6   22.14    1.93 
   0   6   6   24.83    1.49 
   0   6   6   23.28    1.88 
   0   6   6   25.45    1.81 
   1   6   6   40.51    3.09 
   1   6   6   40.56    3.07 
   1   6   6   45.58    3.17 
   1   6   6   41.40    2.84 
   1   6   6   36.43    3.03 
   1   6   6   43.11    3.38 
   2   6   6    4.20    0.36 
   2   6   6    3.71    0.35 
   2   6   6    3.46    0.31 
   2   6   6    3.17    0.23 
   2   6   6    4.18    0.32 
   2   6   6    3.73    0.32 
   2   6   6    3.48    0.34 
   3   6   6   16.99    0.91 
   3   6   6   17.82    1.35 
   3   6   6   18.08    0.97 
   3   6   6   16.23    1.43 
   3   6   6   16.54    1.30 
   4   6   6   33.43    2.59 
   4   6   6   34.54    2.48 
   4   6   6   34.23    1.88 
   4   6   6   32.48    1.76 
   5   6   6    7.49    0.42 
   5   6   6    6.95    0.49 
   5   6   6    7.61    0.45 
   5   6   6    7.30    0.63 
   5   6   6    7.80    0.59 
  -6  -6  -6   15.49    0.77 
   6   6   6   16.24    0.88 
   6   6   6   15.05    0.81 
   6   6   6   16.35    1.17 
   6   6   6   14.87    1.23 
   6   6   6   14.32    0.99 
   6   6   6   15.95    0.83 
  -7  -6  -6    0.00    0.04 
   7   6   6    0.11    0.12 
   7   6   6    0.01    0.04 
   7   6   6    0.10    0.06 
   7   6   6    0.01    0.08 
   7   6   6   -0.01    0.04 
  -8  -6  -6    1.75    0.11 
   8   6   6    1.74    0.11 
   8   6   6    1.63    0.14 
   8   6   6    1.59    0.17 
  -2   7   6    9.43    0.81 
  -2   7   6    9.83    0.79 
  -1   7   6   36.94    2.90 
  -1   7   6   42.01    3.26 
  -1   7   6   40.73    2.74 
   0   7   6   11.93    1.03 
   0   7   6   13.05    1.08 
   0   7   6   15.45    1.03 
   1   7   6    2.81    0.28 
   1   7   6    2.93    0.29 
   1   7   6    2.94    0.27 
   1   7   6    2.74    0.25 
   1   7   6    3.05    0.26 
   1   7   6    2.64    0.27 
   1   7   6    2.54    0.26 
   1   7   6    2.85    0.30 
   2   7   6    4.70    0.45 
   2   7   6    5.63    0.44 
   2   7   6    5.69    0.49 
   2   7   6    5.61    0.49 
   2   7   6    5.73    0.45 
   2   7   6    5.39    0.50 
   3   7   6    5.02    0.44 
   3   7   6    5.39    0.48 
   3   7   6    5.34    0.37 
   3   7   6    5.86    0.44 
   3   7   6    5.20    0.33 
   4   7   6    1.36    0.14 
   4   7   6    1.57    0.19 
   4   7   6    1.66    0.17 
   4   7   6    1.19    0.13 
   5   7   6   44.28    3.28 
   5   7   6   39.44    2.69 
   5   7   6   44.37    3.14 
   5   7   6   44.74    2.37 
   5   7   6   41.04    2.23 
  -6  -7  -6   10.31    0.53 
   6   7   6   10.52    0.86 
   6   7   6   10.68    0.81 
   6   7   6   11.02    0.61 
   6   7   6   10.70    0.57 
   6   7   6   10.18    0.69 
  -7  -7  -6    6.83    0.34 
   7   7   6    5.95    0.55 
   7   7   6    6.31    0.39 
   7   7   6    6.73    0.44 
   7   7   6    6.80    0.37 
   7   7   6    6.96    0.52 
  -8  -7  -6   10.50    0.47 
   8   7   6    9.26    0.72 
   8   7   6    8.78    0.61 
   0   8   6   31.83    2.53 
   1   8   6    8.00    0.54 
   1   8   6    6.75    0.58 
   1   8   6    5.98    0.54 
   2   8   6    1.87    0.20 
   2   8   6    1.55    0.17 
   2   8   6    1.61    0.15 
   2   8   6    1.62    0.17 
   2   8   6    1.73    0.17 
   3   8   6    4.43    0.35 
   3   8   6    3.57    0.29 
   3   8   6    4.53    0.35 
   3   8   6    3.71    0.37 
   4   8   6    1.27    0.14 
   4   8   6    1.42    0.12 
   4   8   6    1.42    0.16 
   4   8   6    1.43    0.13 
   4   8   6    1.25    0.17 
   5   8   6    3.06    0.28 
   5   8   6    3.31    0.22 
   5   8   6    3.60    0.24 
   5   8   6    3.32    0.31 
   6   8   6    0.43    0.06 
   6   8   6    0.57    0.13 
   6   8   6    0.61    0.10 
   6   8   6    0.65    0.08 
  -7  -8  -6    0.56    0.05 
   7   8   6    0.36    0.05 
   7   8   6    0.49    0.07 
   7   8   6    0.50    0.09 
   3   9   6    2.62    0.22 
   4   9   6    0.19    0.05 
   4   9   6    0.34    0.07 
   5   9   6    8.46    0.56 
   5   9   6    8.54    0.66 
   5   9   6    9.20    0.50 
   6   9   6    3.06    0.19 
   6   9   6    3.44    0.26 
   5   7  -7    2.73    0.26 
  -5  -7   7    3.19    0.16 
   4   7  -7   34.85    2.90 
  -4  -7   7   42.49    1.89 
   3   7  -7    9.78    0.83 
  -3  -7   7   11.74    0.54 
  -2  -7   7   43.79    2.13 
   7   6  -7    0.02    0.03 
  -7  -6   7    0.05    0.08 
  -7  -6   7    0.05    0.02 
   6   6  -7    1.69    0.18 
   6   6  -7    1.70    0.11 
  -6  -6   7    1.77    0.11 
   5   6  -7   15.44    0.84 
   5   6  -7   16.38    1.24 
  -5  -6   7   16.19    0.79 
   4   6  -7   23.95    1.80 
   4   6  -7   22.77    1.22 
  -4  -6   7   24.04    1.16 
   3   6  -7    0.44    0.12 
  -3  -6   7    0.44    0.05 
   2   6  -7   31.17    2.26 
  -2  -6   7   28.55    1.46 
  -1  -6   7    2.11    0.12 
   0   6  -7    9.49    0.70 
   0  -6   7    8.42    0.45 
  -1   6  -7   11.60    0.88 
  -7  -5   7    4.43    0.22 
  -7  -5   7    3.73    0.39 
  -7  -5   7    4.38    0.22 
   6   5  -7   21.63    1.10 
  -6  -5   7   21.29    1.03 
  -6  -5   7   19.83    1.03 
   5   5  -7    3.19    0.19 
   5   5  -7    3.21    0.31 
  -5  -5   7    3.05    0.18 
  -5  -5   7    3.03    0.18 
   4   5  -7   37.20    2.55 
   4   5  -7   33.16    1.74 
   4   5  -7   31.75    2.16 
  -4  -5   7   33.45    1.64 
  -4  -5   7   31.88    1.80 
   3   5  -7   37.44    2.74 
   3   5  -7   35.38    1.87 
   3   5  -7   35.06    2.33 
  -3  -5   7   37.22    1.94 
  -3  -5   7   35.43    1.77 
   2   5  -7   22.35    1.20 
   2   5  -7   21.81    1.51 
   2   5  -7   24.34    1.77 
  -2  -5   7   23.92    1.32 
  -2  -5   7   23.02    1.14 
   1   5  -7    2.66    0.25 
   1   5  -7    2.21    0.21 
  -1  -5   7    2.24    0.14 
   0   5  -7   15.80    1.20 
   0  -5   7   15.32    0.77 
  -1   5  -7    0.09    0.12 
   1  -5   7    0.12    0.04 
  -2   5  -7   32.43    2.59 
   2  -5   7   37.03    1.70 
  -8  -4   7    2.83    0.31 
  -8  -4   7    3.89    0.18 
   7   4  -7    7.14    0.39 
   7   4  -7    7.30    0.36 
  -7  -4   7    7.44    0.37 
  -7  -4   7    6.35    0.63 
   6   4  -7    6.46    0.35 
   6   4  -7    5.93    0.32 
  -6  -4   7    6.50    0.33 
  -6  -4   7    6.08    0.32 
  -6  -4   7    5.71    0.56 
   5   4  -7    1.19    0.17 
   5   4  -7    0.88    0.09 
   5   4  -7    1.05    0.10 
   5   4  -7    1.00    0.14 
  -5  -4   7    0.90    0.09 
  -5  -4   7    1.02    0.11 
  -5  -4   7    1.00    0.08 
   4   4  -7    0.56    0.07 
   4   4  -7    0.84    0.12 
   4   4  -7    0.52    0.13 
  -4  -4   7    0.88    0.10 
  -4  -4   7    0.62    0.07 
  -4  -4   7    0.67    0.07 
   3   4  -7   15.44    0.99 
   3   4  -7   15.57    1.16 
   3   4  -7   14.78    0.78 
  -3  -4   7   14.80    0.82 
  -3  -4   7   14.27    0.74 
  -3  -4   7   14.35    0.86 
   2   4  -7   19.06    1.38 
   2   4  -7   16.99    0.93 
   2   4  -7   18.13    1.17 
  -2  -4   7   17.50    0.97 
  -2  -4   7   18.26    1.03 
  -2  -4   7   17.03    0.88 
   1   4  -7   20.03    1.26 
   1   4  -7   19.85    1.48 
   1   4  -7   18.71    1.01 
  -1  -4   7   19.30    1.11 
  -1  -4   7   18.45    0.95 
   0   4  -7    2.38    0.21 
   0   4  -7    2.29    0.15 
   0   4  -7    2.50    0.25 
   0  -4   7    2.08    0.13 
   0  -4   7    2.42    0.17 
  -1   4  -7    0.12    0.05 
  -1   4  -7    0.24    0.12 
   1  -4   7    0.15    0.04 
   1  -4   7    0.25    0.07 
  -2   4  -7    0.42    0.14 
   2  -4   7    0.17    0.04 
  -3   4  -7    0.11    0.12 
   3  -4   7    0.08    0.04 
   4  -4   7    5.46    0.28 
   8   3  -7    1.29    0.10 
   8   3  -7    1.47    0.09 
  -8  -3   7    1.23    0.17 
  -8  -3   7    1.51    0.09 
  -8  -3   7    1.25    0.09 
   7   3  -7   46.73    2.23 
   7   3  -7   43.67    2.31 
  -7  -3   7   43.13    3.67 
  -7  -3   7   44.99    2.19 
   6   3  -7   66.61    3.26 
   6   3  -7   63.48    3.38 
   6   3  -7   63.09    4.19 
  -6  -3   7   66.04    5.35 
  -6  -3   7   67.76    3.20 
   5   3  -7   62.00    4.43 
   5   3  -7   61.55    3.79 
   5   3  -7   56.97    2.95 
   5   3  -7   58.25    3.06 
  -5  -3   7   59.95    2.89 
  -5  -3   7   59.05    3.15 
  -5  -3   7   56.30    2.88 
   4   3  -7  167.45    8.65 
   4   3  -7  162.19    8.32 
   4   3  -7  167.42   10.67 
   4   3  -7  191.18   12.49 
  -4  -3   7  155.94    8.17 
  -4  -3   7  179.18    8.86 
  -4  -3   7  154.60    8.91 
  -4  -3   7  165.64    8.15 
   3   3  -7   81.31    5.26 
   3   3  -7   89.39    6.16 
  -3  -3   7   79.70    4.37 
  -3  -3   7   79.48    4.41 
   2   3  -7   13.87    1.48 
   2   3  -7   15.26    0.97 
  -2  -3   7   15.01    0.83 
  -2  -3   7   14.75    0.85 
  -2  -3   7   14.31    0.81 
   1   3  -7    5.22    0.36 
   1   3  -7    4.38    0.61 
  -1  -3   7    5.33    0.32 
  -1  -3   7    5.14    0.30 
  -1  -3   7    5.15    0.32 
   0   3  -7    0.86    0.11 
   0   3  -7    0.50    0.23 
   0  -3   7    0.90    0.10 
   0  -3   7    1.02    0.10 
  -1   3  -7    5.76    0.32 
  -1   3  -7    4.78    0.40 
  -1   3  -7    5.79    0.48 
   1  -3   7    6.29    0.36 
   1  -3   7    5.64    0.29 
  -2   3  -7   89.73    6.55 
  -2   3  -7   84.88    4.57 
   2  -3   7   88.73    4.31 
   2  -3   7   90.79    4.96 
  -3   3  -7   52.67    2.96 
  -3   3  -7   56.90    4.26 
   3  -3   7   58.64    2.80 
   3  -3   7   61.03    3.02 
  -4   3  -7   25.24    1.68 
  -4   3  -7   23.79    1.83 
  -4   3  -7   23.31    1.26 
   4  -3   7   24.97    1.20 
   5  -3   7   14.47    0.71 
   8   2  -7    0.83    0.07 
  -8  -2   7    0.90    0.07 
  -8  -2   7    0.75    0.13 
  -8  -2   7    0.60    0.12 
  -8  -2   7    0.83    0.07 
   7   2  -7    4.52    0.25 
  -7  -2   7    4.31    0.24 
  -7  -2   7    4.57    0.25 
  -7  -2   7    4.55    0.44 
   6   2  -7   15.37    0.80 
   6   2  -7   15.69    1.05 
  -6  -2   7   15.32    0.78 
  -6  -2   7   17.17    1.35 
  -6  -2   7   14.89    0.83 
   5   2  -7   61.45    3.66 
   5   2  -7   55.43    2.84 
  -5  -2   7   62.32    4.67 
  -5  -2   7   50.17    2.95 
  -5  -2   7   56.08    2.79 
   4   2  -7    0.16    0.08 
  -4  -2   7    0.21    0.06 
   3   2  -7   84.31    4.50 
   3   2  -7   87.60    5.45 
  -3  -2   7   84.44    4.53 
  -3  -2   7   85.78    4.57 
   2   2  -7  189.89   12.33 
   2   2  -7  203.34   17.87 
   2   2  -7  188.67   10.20 
  -2  -2   7  180.99   10.82 
  -2  -2   7  195.71   10.24 
  -2  -2   7  208.10   10.29 
   1   2  -7   57.22    3.62 
   1   2  -7   56.47    3.00 
  -1  -2   7   56.92    3.03 
  -1  -2   7   59.02    3.01 
  -1  -2   7   54.20    3.18 
   0   2  -7   12.19    0.66 
   0   2  -7   11.75    1.21 
   0   2  -7   11.84    0.78 
   0  -2   7   11.34    0.68 
   0  -2   7   11.55    0.66 
   0  -2   7   12.43    0.65 
  -1   2  -7   17.26    1.86 
  -1   2  -7   19.33    1.03 
   1  -2   7   19.63    1.09 
   1  -2   7   19.47    1.04 
  -2   2  -7  200.87   13.42 
  -2   2  -7  155.90   16.78 
  -2   2  -7  185.04    9.59 
   2  -2   7  195.95   10.17 
   2  -2   7  173.30    9.65 
  -3   2  -7    0.10    0.07 
  -3   2  -7    0.18    0.09 
  -3   2  -7    0.19    0.11 
   3  -2   7    0.09    0.04 
   3  -2   7    0.06    0.07 
  -4   2  -7    9.56    0.55 
  -4   2  -7   10.05    0.73 
  -4   2  -7   10.36    0.81 
   4  -2   7   10.45    0.52 
   4  -2   7   10.16    0.57 
  -5   2  -7    8.80    0.71 
  -5   2  -7    8.73    0.65 
  -5   2  -7    9.37    0.49 
   5  -2   7    9.33    0.46 
   8   1  -7   15.83    0.75 
  -8  -1   7   15.83    0.78 
  -8  -1   7   13.04    1.23 
   7   1  -7    3.32    0.20 
   7   1  -7    3.56    0.20 
  -7  -1   7    3.65    0.21 
  -7  -1   7    3.62    0.25 
  -7  -1   7    3.50    0.36 
   6   1  -7    5.72    0.32 
   6   1  -7    6.10    0.31 
  -6  -1   7    6.08    0.55 
  -6  -1   7    5.25    0.30 
  -6  -1   7    6.09    0.33 
   5   1  -7   36.09    1.81 
   5   1  -7   35.03    1.67 
  -5  -1   7   32.90    1.76 
  -5  -1   7   33.33    2.81 
  -5  -1   7   32.39    1.67 
   4   1  -7  100.59    5.23 
   4   1  -7   97.85    5.30 
   3   1  -7   24.86    1.58 
   3   1  -7   24.22    1.31 
   3   1  -7   24.62    1.35 
  -3  -1   7   24.26    1.31 
   2   1  -7   83.55    4.30 
   2   1  -7   80.75    5.19 
   2   1  -7   79.71    4.35 
  -2  -1   7   83.96    4.32 
  -2  -1   7   80.37    4.35 
   1   1  -7   21.43    1.12 
   1   1  -7   21.09    1.14 
   1   1  -7   21.03    1.35 
  -1  -1   7   19.12    1.18 
  -1  -1   7   21.30    1.14 
  -1  -1   7   21.74    1.12 
   0   1  -7   13.02    0.70 
   0  -1   7   13.42    0.69 
   0  -1   7   12.00    0.73 
   0  -1   7   12.61    0.71 
  -1   1  -7   15.54    0.83 
   1  -1   7   14.90    0.82 
   1  -1   7   15.08    0.84 
   1  -1   7   15.13    0.87 
  -2   1  -7   81.32    4.27 
  -2   1  -7   73.94    7.49 
   2  -1   7   85.96    4.52 
   2  -1   7   81.51    4.30 
  -3   1  -7  256.08   13.48 
   3  -1   7  239.59   13.56 
   3  -1   7  251.20   13.39 
   3  -1   7  279.46   14.30 
  -4   1  -7  284.81   18.62 
  -4   1  -7  283.71   20.11 
  -4   1  -7  276.21   14.38 
  -4   1  -7  258.23   14.07 
   4  -1   7  275.20   13.27 
   4  -1   7  273.27   14.28 
   4  -1   7  263.16   15.24 
  -5   1  -7   31.64    2.29 
  -5   1  -7   30.91    1.60 
  -5   1  -7   27.59    2.11 
   5  -1   7   31.75    1.50 
   5  -1   7   30.68    1.63 
  -6   1  -7    9.96    0.74 
  -6   1  -7   10.63    0.56 
   6  -1   7   11.03    0.52 
   6  -1   7   10.67    0.52 
   6  -1   7    9.78    0.67 
   7   0  -7   15.90    0.88 
   7   0  -7   18.35    0.87 
  -7   0   7   19.15    0.92 
  -7   0   7   17.15    1.46 
  -7   0   7   16.55    1.08 
  -7   0   7   18.00    1.42 
   6   0  -7   47.26    2.29 
  -6   0   7   47.38    2.42 
  -6   0   7   49.05    2.86 
  -6   0   7   43.26    3.83 
   5   0  -7   14.09    0.70 
   5   0  -7   13.83    0.77 
  -5   0   7   12.55    0.78 
  -5   0   7   16.33    1.20 
  -5   0   7   13.15    0.74 
   4   0  -7   13.06    0.72 
   4   0  -7   12.63    0.76 
  -4   0   7   13.45    0.73 
   3   0  -7    2.78    0.21 
   3   0  -7    2.44    0.18 
  -3   0   7    2.86    0.17 
   2   0  -7  344.15   17.24 
   2   0  -7  321.02   20.82 
   2   0  -7  329.51   17.35 
  -2   0   7  322.37   17.60 
  -2   0   7  326.42   17.29 
   1   0  -7   11.06    0.61 
   1   0  -7   10.86    0.59 
   1   0  -7   10.76    0.61 
  -1   0   7   10.23    0.60 
  -1   0   7   10.96    0.59 
  -1   0   7   11.27    0.61 
   0   0  -7   10.15    0.58 
   0   0  -7   10.65    0.57 
   0   0   7   10.99    0.57 
   0   0   7    9.94    0.57 
   0   0   7   10.82    0.58 
   0   0   7    9.80    0.59 
  -1   0  -7    1.07    0.11 
  -1   0  -7    1.05    0.10 
   1   0   7    1.08    0.09 
   1   0   7    1.33    0.11 
   1   0   7    1.09    0.09 
  -2   0  -7   30.31    1.66 
   2   0   7   31.02    1.68 
   2   0   7   32.75    1.76 
   2   0   7   30.36    1.66 
  -3   0  -7    0.83    0.11 
   3   0   7    1.19    0.12 
   3   0   7    1.11    0.11 
   3   0   7    0.98    0.09 
  -4   0  -7   14.83    0.82 
  -4   0  -7   13.88    0.78 
  -4   0  -7   16.13    1.04 
   4   0   7   13.53    0.73 
   4   0   7   15.14    0.80 
   4   0   7   13.37    0.83 
   4   0   7   15.39    0.86 
  -5   0  -7   38.62    2.27 
  -5   0  -7   44.27    2.86 
  -5   0  -7   43.16    2.16 
   5   0   7   40.96    2.19 
   5   0   7   39.69    2.35 
   5   0   7   41.25    2.03 
  -6   0  -7   50.65    2.68 
  -6   0  -7   48.94    3.55 
   6   0   7   53.23    3.24 
   6   0   7   53.60    2.52 
  -7   0  -7    1.71    0.11 
  -7   0  -7    1.44    0.15 
   7   0   7    1.28    0.11 
   7  -1  -7    5.17    0.25 
  -7   1   7    4.94    0.31 
  -7   1   7    4.14    0.42 
  -7   1   7    5.03    0.27 
  -7   1   7    5.10    0.26 
  -7   1   7    3.98    0.41 
   6  -1  -7    9.48    0.46 
  -6   1   7    9.23    0.48 
  -6   1   7    8.60    0.77 
  -6   1   7    8.90    0.58 
  -6   1   7    9.02    0.79 
   5  -1  -7   25.91    1.31 
  -5   1   7   26.88    2.21 
  -5   1   7   26.84    1.46 
  -5   1   7   25.40    1.38 
  -5   1   7   28.06    2.14 
   4  -1  -7   21.01    1.30 
  -4   1   7   22.38    1.29 
  -4   1   7   26.96    1.96 
   3  -1  -7   47.62    2.58 
  -3   1   7   48.29    2.59 
   2  -1  -7    0.03    0.04 
   2  -1  -7    0.09    0.05 
  -2   1   7    0.04    0.03 
  -2   1   7    0.06    0.03 
   1  -1  -7   23.33    1.22 
   1  -1  -7   23.03    1.23 
   1  -1  -7   22.85    1.23 
  -1   1   7   23.16    1.22 
  -1   1   7   21.58    1.24 
   0  -1  -7   43.52    2.38 
   0  -1  -7   46.00    2.40 
   0   1   7   46.40    2.39 
   0   1   7   44.54    2.43 
  -1  -1  -7  381.69   19.86 
  -1  -1  -7  388.63   19.74 
   1   1   7  371.51   20.17 
   1   1   7  369.24   19.81 
   1   1   7  372.06   20.94 
  -2  -1  -7    2.39    0.17 
  -2  -1  -7    2.62    0.18 
   2   1   7    2.46    0.18 
   2   1   7    2.40    0.16 
   2   1   7    2.47    0.17 
  -3  -1  -7   43.73    2.32 
  -3  -1  -7   43.52    2.34 
   3   1   7   43.14    2.32 
   3   1   7   42.61    2.34 
   3   1   7   44.89    2.46 
  -4  -1  -7    1.30    0.14 
   4   1   7    1.53    0.14 
  -5  -1  -7    0.25    0.13 
  -5  -1  -7    0.02    0.07 
  -5  -1  -7    0.07    0.07 
   5   1   7    0.06    0.04 
   5   1   7    0.07    0.06 
   5   1   7    0.21    0.07 
  -6  -1  -7    5.15    0.36 
  -6  -1  -7    5.93    0.44 
  -6  -1  -7    5.67    0.33 
   6   1   7    5.48    0.30 
   6   1   7    5.59    0.33 
   6   1   7    5.43    0.30 
   6   1   7    5.86    0.38 
  -7  -1  -7    1.54    0.13 
  -7  -1  -7    1.56    0.18 
   7   1   7    1.73    0.14 
   7  -2  -7    0.05    0.03 
   6  -2  -7    0.31    0.04 
  -6   2   7    0.34    0.11 
  -6   2   7    0.35    0.07 
  -6   2   7    0.33    0.05 
  -6   2   7    0.47    0.11 
   5  -2  -7   51.31    2.36 
  -5   2   7   45.51    2.51 
  -5   2   7   45.50    2.49 
  -5   2   7   50.02    3.83 
  -5   2   7   51.43    2.62 
  -5   2   7   44.50    2.95 
  -5   2   7   49.57    3.95 
   4  -2  -7   15.40    0.81 
  -4   2   7   15.01    0.86 
  -4   2   7   17.19    0.92 
  -4   2   7   16.64    1.38 
  -4   2   7   17.96    1.34 
   3  -2  -7    6.41    0.42 
  -3   2   7    7.04    0.60 
  -3   2   7    7.65    0.42 
   2  -2  -7   81.54    4.25 
   2  -2  -7   79.32    4.29 
  -2   2   7   81.39    4.35 
   1  -2  -7    7.36    0.42 
   1  -2  -7    8.44    0.44 
  -1   2   7    7.64    0.43 
  -1   2   7    7.03    0.42 
   0  -2  -7    0.09    0.04 
   0  -2  -7    0.14    0.04 
   0   2   7    0.10    0.03 
   0   2   7    0.16    0.04 
  -1  -2  -7    7.62    0.44 
  -1  -2  -7    8.29    0.45 
   1   2   7    7.85    0.44 
   1   2   7    7.89    0.44 
  -2  -2  -7   69.23    3.58 
  -2  -2  -7   61.29    3.55 
   2   2   7   64.21    3.76 
   2   2   7   74.67    3.57 
  -3  -2  -7  171.58    8.57 
  -3  -2  -7  147.36    8.51 
   3   2   7  167.20    8.55 
   3   2   7  162.20    9.03 
  -4  -2  -7   62.38    3.28 
  -4  -2  -7   61.47    3.31 
   4   2   7   62.04    3.48 
  -5  -2  -7    3.01    0.18 
  -5  -2  -7    2.86    0.21 
   5   2   7    3.34    0.23 
   5   2   7    3.19    0.20 
  -6  -2  -7    9.08    0.62 
   6   2   7    8.28    0.55 
   6   2   7    7.78    0.51 
   6   2   7    7.98    0.46 
  -7  -2  -7    1.04    0.16 
  -7  -2  -7    0.98    0.11 
   7   2   7    1.19    0.11 
  -8  -2  -7   13.96    1.03 
  -8  -2  -7   15.65    0.78 
   6  -3  -7    0.04    0.03 
  -6   3   7    0.03    0.06 
  -6   3   7    0.07    0.05 
   5  -3  -7    0.03    0.03 
  -5   3   7    0.10    0.06 
  -5   3   7    0.08    0.08 
  -5   3   7    0.11    0.09 
  -5   3   7    0.13    0.04 
  -4   3   7    3.85    0.22 
  -4   3   7    3.53    0.26 
  -4   3   7    3.81    0.25 
  -4   3   7    3.77    0.37 
  -4   3   7    4.12    0.36 
   3  -3  -7   19.31    1.20 
  -3   3   7   19.48    1.15 
  -3   3   7   23.29    1.83 
  -3   3   7   22.43    1.21 
  -3   3   7   25.39    1.77 
   2  -3  -7    4.30    0.27 
   2  -3  -7    4.70    0.28 
  -2   3   7    4.23    0.27 
  -2   3   7    4.79    0.40 
   1  -3  -7   16.90    0.88 
   1  -3  -7   15.36    0.87 
  -1   3   7   16.10    0.89 
   0  -3  -7    8.60    0.45 
   0  -3  -7    7.56    0.44 
   0   3   7    7.75    0.45 
   0   3   7    8.36    0.45 
  -1  -3  -7    2.02    0.14 
   1   3   7    1.91    0.13 
   1   3   7    1.95    0.13 
  -2  -3  -7    5.08    0.28 
   2   3   7    4.97    0.28 
   2   3   7    4.28    0.29 
   2   3   7    4.79    0.28 
  -3  -3  -7   49.92    2.58 
   3   3   7   46.73    2.71 
  -4  -3  -7    1.50    0.13 
   4   3   7    1.30    0.13 
  -5  -3  -7    8.08    0.41 
  -5  -3  -7    7.34    0.47 
   5   3   7    8.84    0.49 
   5   3   7    8.12    0.61 
   5   3   7    7.54    0.43 
   5   3   7    7.33    0.43 
  -6  -3  -7   14.38    0.72 
   6   3   7   14.77    0.85 
   6   3   7   13.24    0.76 
   6   3   7   15.10    1.08 
   6   3   7   14.71    0.77 
   6   3   7   13.41    0.91 
  -7  -3  -7    0.05    0.11 
   7   3   7    0.07    0.09 
   7   3   7    0.11    0.05 
   7   3   7    0.03    0.06 
  -8  -3  -7    2.15    0.22 
   8   3   7    2.47    0.18 
   8   3   7    2.49    0.21 
   8   3   7    2.62    0.16 
  -5   4   7   19.88    1.52 
  -5   4   7   17.12    1.48 
  -5   4   7   18.24    1.14 
  -4   4   7   24.50    2.30 
  -4   4   7   29.93    2.24 
  -4   4   7   29.53    1.73 
  -3   4   7    9.67    0.77 
  -3   4   7    8.86    0.74 
  -3   4   7    9.14    0.57 
  -3   4   7    7.47    0.47 
  -3   4   7    8.78    0.51 
  -2   4   7   48.82    3.81 
  -2   4   7   46.75    2.42 
  -2   4   7   44.38    3.68 
  -2   4   7   44.81    2.52 
  -2   4   7   47.68    3.38 
  -1   4   7   52.83    4.28 
  -1   4   7   57.65    3.05 
  -1   4   7   58.80    4.46 
   0   4   7   29.47    1.50 
   0   4   7   25.61    2.11 
  -1  -4  -7    1.56    0.11 
   1   4   7    1.38    0.11 
   1   4   7    1.41    0.16 
  -2  -4  -7   42.82    2.24 
   2   4   7   40.91    3.20 
   2   4   7   42.63    2.28 
  -3  -4  -7   69.00    3.85 
   3   4   7   76.20    5.50 
  -4  -4  -7  202.59   11.07 
   4   4   7  216.36   11.68 
  -5  -4  -7   74.33    3.63 
   5   4   7   77.62    5.42 
   5   4   7   68.04    3.87 
   5   4   7   75.15    3.84 
   5   4   7   76.92    4.18 
  -6  -4  -7    1.35    0.11 
   6   4   7    1.39    0.16 
   6   4   7    1.30    0.14 
   6   4   7    1.20    0.11 
   6   4   7    1.33    0.12 
   6   4   7    1.16    0.13 
  -7  -4  -7   20.85    1.08 
   7   4   7   21.12    1.38 
   7   4   7   22.70    1.15 
   7   4   7   22.43    1.62 
  -8  -4  -7    1.49    0.18 
   8   4   7    1.62    0.16 
   8   4   7    1.70    0.12 
   8   4   7    1.47    0.13 
  -4   5   7    1.34    0.16 
  -4   5   7    1.31    0.12 
  -4   5   7    1.13    0.16 
  -3   5   7    5.92    0.56 
  -3   5   7    7.15    0.43 
  -3   5   7    6.48    0.58 
  -2   5   7    0.13    0.09 
  -2   5   7    0.32    0.07 
  -2   5   7    0.14    0.05 
  -2   5   7    0.22    0.09 
  -2   5   7    0.16    0.09 
  -1   5   7    5.60    0.52 
  -1   5   7    6.17    0.52 
  -1   5   7    5.65    0.49 
  -1   5   7    5.84    0.36 
  -1   5   7    6.80    0.55 
   0   5   7   32.80    1.81 
   0   5   7   33.56    2.51 
   0   5   7   31.40    2.74 
   0   5   7   33.84    2.56 
   0   5   7   33.06    2.48 
   0   5   7   35.37    2.66 
   1   5   7   21.61    1.63 
   1   5   7   20.17    1.15 
   1   5   7   21.23    1.68 
   2   5   7    3.91    0.35 
  -3  -5  -7   12.46    0.74 
   3   5   7   14.88    1.08 
  -4  -5  -7    1.93    0.15 
   4   5   7    1.75    0.15 
   4   5   7    2.37    0.24 
   4   5   7    1.74    0.15 
   4   5   7    2.21    0.20 
   4   5   7    1.97    0.16 
  -5  -5  -7   62.99    3.15 
   5   5   7   63.03    3.33 
   5   5   7   64.89    3.36 
   5   5   7   64.58    3.63 
   5   5   7   64.30    3.57 
   5   5   7   67.46    4.71 
  -6  -5  -7   30.78    1.47 
   6   5   7   27.51    1.88 
   6   5   7   32.03    2.20 
   6   5   7   30.40    1.55 
   6   5   7   28.12    1.70 
   6   5   7   29.81    1.57 
  -7  -5  -7    6.82    0.35 
   7   5   7    6.88    0.37 
   7   5   7    6.33    0.38 
   7   5   7    7.01    0.53 
   7   5   7    6.47    0.45 
  -8  -5  -7    1.74    0.12 
  -8  -5  -7    2.33    0.20 
   8   5   7    2.06    0.16 
   8   5   7    2.16    0.20 
   8   5   7    2.18    0.14 
  -3   6   7   36.09    2.78 
  -3   6   7   35.91    2.86 
  -3   6   7   33.01    2.14 
  -2   6   7   37.62    2.89 
  -2   6   7   36.73    2.43 
  -2   6   7   41.50    3.25 
  -2   6   7   42.95    3.16 
  -1   6   7   59.71    4.16 
  -1   6   7   67.81    5.57 
  -1   6   7   69.74    4.94 
  -1   6   7   76.02    5.40 
   0   6   7   27.10    2.24 
   0   6   7   29.29    2.18 
   0   6   7   25.25    2.03 
   0   6   7   28.51    1.99 
   0   6   7   26.41    2.01 
   0   6   7   27.28    2.11 
   0   6   7   25.92    1.67 
   1   6   7   34.26    3.15 
   1   6   7   44.62    2.98 
   1   6   7   40.25    2.73 
   2   6   7    0.66    0.11 
   2   6   7    0.77    0.13 
   2   6   7    0.67    0.08 
   2   6   7    0.91    0.13 
   2   6   7    1.12    0.17 
   2   6   7    1.06    0.13 
   2   6   7    0.71    0.13 
   2   6   7    0.74    0.08 
   3   6   7    2.14    0.21 
   3   6   7    2.33    0.17 
   3   6   7    2.78    0.26 
   3   6   7    2.10    0.24 
   3   6   7    2.30    0.16 
   4   6   7   17.95    0.98 
   4   6   7   19.18    1.38 
   4   6   7   18.25    1.04 
   4   6   7   18.31    1.45 
   5   6   7   39.90    2.85 
   5   6   7   40.68    2.16 
   5   6   7   34.08    2.44 
   5   6   7   40.16    2.03 
   5   6   7   39.21    2.98 
  -6  -6  -7    0.28    0.05 
   6   6   7    0.31    0.06 
   6   6   7    0.30    0.10 
   6   6   7    0.27    0.05 
   6   6   7    0.45    0.14 
   6   6   7    0.27    0.06 
   6   6   7    0.32    0.07 
  -7  -6  -7    0.11    0.04 
   7   6   7    0.16    0.05 
   7   6   7    0.07    0.04 
   7   6   7    0.15    0.12 
   7   6   7    0.12    0.05 
   7   6   7    0.20    0.09 
  -8  -6  -7    0.73    0.07 
   8   6   7    0.77    0.07 
   8   6   7    0.73    0.08 
   8   6   7    0.76    0.11 
  -2   7   7    1.36    0.15 
  -2   7   7    1.26    0.14 
  -1   7   7    8.22    0.71 
  -1   7   7    8.44    0.63 
  -1   7   7    7.92    0.68 
   0   7   7   24.41    2.09 
   0   7   7   30.35    2.29 
   0   7   7   27.28    2.21 
   0   7   7   32.90    2.36 
   0   7   7   26.73    2.11 
   0   7   7   29.78    1.98 
   1   7   7   10.89    0.94 
   1   7   7   10.38    0.83 
   1   7   7    9.68    0.90 
   1   7   7   12.12    0.90 
   1   7   7   11.57    0.84 
   2   7   7   28.14    2.02 
   2   7   7   29.47    2.21 
   2   7   7   27.14    2.14 
   2   7   7   23.63    2.07 
   2   7   7   25.12    1.96 
   3   7   7   41.73    2.83 
   3   7   7   37.56    2.14 
   3   7   7   36.05    2.95 
   4   7   7    2.89    0.20 
   4   7   7    3.11    0.31 
   4   7   7    3.53    0.29 
   4   7   7    3.31    0.22 
   5   7   7    0.17    0.11 
   5   7   7    0.08    0.05 
   5   7   7    0.07    0.05 
   5   7   7    0.12    0.08 
  -6  -7  -7    4.41    0.24 
   6   7   7    4.26    0.37 
   6   7   7    4.54    0.40 
   6   7   7    4.38    0.31 
   6   7   7    4.48    0.26 
   6   7   7    4.63    0.28 
  -7  -7  -7    3.52    0.18 
   7   7   7    3.49    0.20 
   7   7   7    2.75    0.30 
   7   7   7    3.30    0.28 
   7   7   7    3.08    0.20 
   7   7   7    3.11    0.23 
  -8  -7  -7    0.56    0.05 
   8   7   7    0.58    0.09 
   0   8   7    8.73    0.76 
   0   8   7    9.86    0.79 
   1   8   7    0.00    0.06 
   1   8   7   -0.03    0.07 
   1   8   7    0.06    0.08 
   1   8   7    0.10    0.09 
   2   8   7    6.26    0.52 
   2   8   7    6.46    0.48 
   2   8   7    5.36    0.47 
   3   8   7    0.54    0.11 
   3   8   7    0.54    0.13 
   4   8   7   13.82    0.75 
   4   8   7   12.11    1.04 
   4   8   7   13.71    1.00 
   5   8   7   47.06    2.44 
   5   8   7   41.14    3.35 
   5   8   7   45.13    3.22 
   5   8   7   42.59    2.76 
   6   8   7    0.86    0.09 
   6   8   7    1.00    0.09 
   6   8   7    0.93    0.12 
  -7  -8  -7    4.02    0.20 
   7   8   7    3.41    0.25 
   7   8   7    4.02    0.31 
   7   8   7    3.80    0.23 
   3   9   7    0.96    0.11 
   4   9   7    1.28    0.13 
   5   9   7    0.10    0.06 
   5   9   7    0.10    0.03 
   6   9   7   16.36    1.21 
   6   9   7   16.53    0.91 
   6   6  -8    9.19    0.74 
   6   6  -8   10.40    0.50 
  -6  -6   8   10.56    0.48 
  -6  -6   8    7.97    0.80 
   5   6  -8    0.44    0.11 
   5   6  -8    0.35    0.04 
  -5  -6   8    0.43    0.05 
   4   6  -8   11.58    0.92 
  -4  -6   8   11.90    0.59 
   3   6  -8   17.36    1.34 
  -3  -6   8   17.47    0.86 
   2   6  -8    7.22    0.58 
  -2  -6   8    7.32    0.37 
  -1  -6   8    0.21    0.03 
   0   6  -8    2.77    0.25 
   0  -6   8    2.94    0.15 
   7   5  -8    1.30    0.09 
  -7  -5   8    1.23    0.08 
  -7  -5   8    1.00    0.16 
   6   5  -8    0.79    0.08 
   6   5  -8    0.77    0.13 
  -6  -5   8    0.78    0.07 
  -6  -5   8    0.75    0.07 
  -6  -5   8    0.57    0.14 
   5   5  -8    0.06    0.10 
   5   5  -8    0.02    0.04 
  -5  -5   8    0.03    0.03 
  -5  -5   8    0.03    0.03 
   4   5  -8    2.88    0.18 
   4   5  -8    3.03    0.30 
  -4  -5   8    3.06    0.17 
   3   5  -8    6.30    0.34 
   3   5  -8    5.62    0.52 
  -3  -5   8    6.27    0.32 
   2   5  -8    0.17    0.05 
   2   5  -8    0.09    0.10 
  -2  -5   8    0.11    0.04 
   1   5  -8    3.24    0.20 
   1   5  -8    3.59    0.32 
  -1  -5   8    3.46    0.19 
   0   5  -8    1.86    0.20 
   0  -5   8    1.56    0.11 
  -1   5  -8   11.31    0.89 
   1  -5   8   11.55    0.57 
  -2   5  -8    1.29    0.15 
   2  -5   8    1.13    0.08 
   7   4  -8    0.77    0.08 
  -7  -4   8    0.80    0.16 
  -7  -4   8    0.82    0.07 
   6   4  -8    3.79    0.22 
  -6  -4   8    3.75    0.20 
  -6  -4   8    3.63    0.20 
  -6  -4   8    3.08    0.36 
   5   4  -8    0.60    0.07 
   5   4  -8    0.69    0.14 
  -5  -4   8    0.51    0.06 
  -5  -4   8    0.79    0.07 
  -5  -4   8    0.71    0.09 
   4   4  -8  104.18    7.23 
   4   4  -8   99.89    6.17 
   4   4  -8  102.21    4.99 
  -4  -4   8   89.77    4.70 
  -4  -4   8   92.19    4.71 
  -4  -4   8   92.17    5.12 
   3   4  -8   40.86    2.57 
   3   4  -8   39.36    2.07 
  -3  -4   8   39.00    1.95 
  -3  -4   8   40.07    2.13 
   2   4  -8    0.75    0.14 
   2   4  -8    0.71    0.09 
   2   4  -8    0.86    0.12 
  -2  -4   8    0.92    0.10 
  -2  -4   8    0.81    0.10 
  -2  -4   8    0.70    0.07 
   1   4  -8   16.81    0.91 
   1   4  -8   19.81    1.34 
   1   4  -8   16.05    1.13 
  -1  -4   8   17.11    0.85 
  -1  -4   8   16.23    0.99 
   0   4  -8    0.22    0.11 
   0   4  -8    0.10    0.06 
   0  -4   8    0.01    0.05 
   0  -4   8    0.04    0.03 
  -1   4  -8    1.08    0.16 
  -1   4  -8    0.74    0.09 
   1  -4   8    0.87    0.08 
  -2   4  -8   39.30    2.96 
   2  -4   8   40.05    1.94 
  -3   4  -8   23.62    1.73 
   3  -4   8   22.54    1.13 
  -8  -3   8    0.12    0.03 
  -8  -3   8    0.05    0.08 
   7   3  -8   15.84    0.72 
   7   3  -8   13.86    0.75 
  -7  -3   8   12.86    0.74 
  -7  -3   8   13.34    1.19 
  -7  -3   8   14.47    0.70 
   6   3  -8    9.20    0.46 
   6   3  -8    8.71    0.48 
  -6  -3   8    8.40    0.45 
  -6  -3   8    8.78    0.78 
   5   3  -8    0.24    0.06 
   5   3  -8    0.12    0.05 
   5   3  -8    0.36    0.09 
   5   3  -8    0.20    0.10 
  -5  -3   8    0.27    0.05 
  -5  -3   8    0.12    0.05 
  -5  -3   8    0.12    0.13 
  -5  -3   8    0.08    0.04 
   4   3  -8    0.36    0.10 
   4   3  -8    0.27    0.06 
   4   3  -8    0.34    0.11 
  -4  -3   8    0.26    0.05 
  -4  -3   8    0.21    0.04 
   3   3  -8   22.02    1.40 
   3   3  -8   20.43    1.08 
   3   3  -8   22.37    1.65 
   3   3  -8   21.47    1.13 
  -3  -3   8   23.18    1.17 
  -3  -3   8   21.31    1.21 
  -3  -3   8   20.23    1.06 
  -3  -3   8   20.90    1.06 
   2   3  -8  157.10   15.31 
   2   3  -8  177.15   12.34 
   2   3  -8  143.43   10.53 
  -2  -3   8  173.10    8.76 
  -2  -3   8  169.51    8.80 
  -2  -3   8  175.43    9.25 
   1   3  -8   43.33    3.01 
   1   3  -8   40.17    2.07 
   1   3  -8   36.30    2.56 
  -1  -3   8   39.04    1.95 
  -1  -3   8   38.45    2.16 
  -1  -3   8   42.51    2.26 
  -1  -3   8   40.07    2.13 
   0   3  -8    9.86    0.74 
   0   3  -8    9.31    0.50 
   0  -3   8    8.58    0.47 
   0  -3   8    9.46    0.55 
  -1   3  -8   15.93    1.17 
  -1   3  -8   15.24    0.80 
   1  -3   8   14.34    0.75 
   1  -3   8   14.83    0.88 
  -2   3  -8    3.63    0.22 
  -2   3  -8    3.11    0.33 
   2  -3   8    3.76    0.20 
  -3   3  -8   19.24    1.04 
  -3   3  -8   20.71    1.50 
   3  -3   8   19.22    0.98 
  -4   3  -8   21.21    1.64 
   4  -3   8   22.36    1.07 
   8   2  -8    6.79    0.33 
  -8  -2   8    5.82    0.54 
  -8  -2   8    6.34    0.34 
   7   2  -8   11.23    0.56 
  -7  -2   8   10.83    0.57 
  -7  -2   8   10.21    0.93 
  -7  -2   8   10.62    0.54 
  -7  -2   8   10.81    0.57 
   6   2  -8    2.73    0.17 
  -6  -2   8    2.87    0.17 
  -6  -2   8    2.79    0.17 
  -6  -2   8    2.60    0.16 
  -6  -2   8    2.66    0.31 
   5   2  -8   75.10    3.73 
   5   2  -8   76.88    5.61 
   5   2  -8   75.34    4.80 
  -5  -2   8   74.32    3.87 
  -5  -2   8   77.69    3.66 
  -5  -2   8   70.77    3.87 
   4   2  -8   34.77    2.10 
   4   2  -8   32.60    1.63 
   4   2  -8   31.38    1.69 
  -4  -2   8   29.60    1.58 
  -4  -2   8   33.11    1.74 
  -4  -2   8   32.97    1.59 
   3   2  -8  154.83   10.13 
  -3  -2   8  155.31    8.46 
  -3  -2   8  168.23    8.41 
   2   2  -8   16.72    1.63 
   2   2  -8   15.68    0.88 
   2   2  -8   16.68    1.07 
  -2  -2   8   16.20    0.89 
  -2  -2   8   16.41    0.92 
   1   2  -8   11.53    0.64 
   1   2  -8   11.31    1.19 
  -1  -2   8   11.27    0.66 
  -1  -2   8   11.20    0.66 
  -1  -2   8   12.16    0.64 
   0   2  -8   45.07    2.28 
   0   2  -8   39.14    4.05 
   0  -2   8   43.69    2.31 
   0  -2   8   43.08    2.41 
   0  -2   8   43.16    2.28 
  -1   2  -8    2.75    0.21 
   1  -2   8    3.02    0.20 
   1  -2   8    2.48    0.20 
  -2   2  -8    1.18    0.13 
  -2   2  -8    1.51    0.19 
  -2   2  -8    1.07    0.14 
   2  -2   8    1.11    0.12 
   2  -2   8    1.34    0.10 
  -3   2  -8   20.30    1.18 
  -3   2  -8   21.03    1.13 
  -3   2  -8   22.30    1.63 
   3  -2   8   21.40    1.15 
   3  -2   8   22.23    1.06 
   3  -2   8   21.16    1.24 
  -4   2  -8    0.26    0.07 
  -4   2  -8    0.28    0.13 
   4  -2   8    0.29    0.05 
  -5   2  -8    7.28    0.54 
  -5   2  -8    7.42    0.40 
  -5   2  -8    7.50    0.59 
   5  -2   8    7.67    0.38 
   7   1  -8    0.12    0.05 
   7   1  -8    0.15    0.04 
  -7  -1   8    0.15    0.11 
  -7  -1   8    0.16    0.04 
  -7  -1   8    0.15    0.04 
   6   1  -8   10.16    0.51 
   6   1  -8   10.40    0.52 
  -6  -1   8    9.46    0.87 
  -6  -1   8   10.34    0.53 
  -6  -1   8    9.24    0.50 
   5   1  -8   20.26    1.01 
   5   1  -8   19.53    1.04 
   5   1  -8   23.36    1.35 
   5   1  -8   21.16    1.11 
  -5  -1   8   19.01    1.72 
  -5  -1   8   20.70    1.07 
  -5  -1   8   19.33    1.01 
   4   1  -8   16.89    1.04 
   4   1  -8   19.12    1.20 
   4   1  -8   18.59    0.99 
   3   1  -8  192.17   12.15 
   3   1  -8  197.96   10.06 
  -3  -1   8  184.27   10.09 
   2   1  -8   45.74    2.32 
   2   1  -8   43.54    2.36 
  -2  -1   8   41.62    2.33 
  -2  -1   8   44.39    2.36 
   1   1  -8  200.31   10.54 
  -1  -1   8  201.50   10.58 
  -1  -1   8  200.67   10.62 
   0   1  -8    2.30    0.16 
   0  -1   8    2.25    0.17 
   0  -1   8    2.37    0.15 
   0  -1   8    1.91    0.15 
  -1   1  -8   17.89    1.85 
  -1   1  -8   19.60    1.03 
   1  -1   8   18.89    1.08 
   1  -1   8   18.35    1.03 
   1  -1   8   19.18    1.02 
  -2   1  -8    3.13    0.47 
  -2   1  -8    3.44    0.26 
   2  -1   8    3.82    0.25 
   2  -1   8    3.83    0.25 
  -3   1  -8    0.13    0.07 
  -3   1  -8   -0.11    0.08 
   3  -1   8    0.11    0.06 
   3  -1   8    0.09    0.04 
  -4   1  -8   20.24    1.35 
  -4   1  -8   17.48    1.23 
  -4   1  -8   16.16    0.93 
  -4   1  -8   16.65    0.97 
   4  -1   8   16.89    1.02 
   4  -1   8   17.05    0.95 
   4  -1   8   17.95    0.87 
  -5   1  -8    3.86    0.31 
  -5   1  -8    3.65    0.35 
  -5   1  -8    4.03    0.24 
   5  -1   8    3.96    0.22 
  -6   1  -8    2.15    0.21 
  -6   1  -8    2.65    0.16 
   6  -1   8    2.59    0.14 
   6  -1   8    2.67    0.14 
   7   0  -8   18.09    0.92 
   7   0  -8   18.55    0.90 
  -7   0   8   19.49    0.96 
  -7   0   8   19.43    0.95 
  -7   0   8   17.40    1.51 
  -7   0   8   16.04    1.46 
   6   0  -8    2.22    0.14 
  -6   0   8    2.40    0.26 
  -6   0   8    2.14    0.14 
   5   0  -8    5.14    0.28 
   5   0  -8    4.93    0.32 
  -5   0   8    6.06    0.51 
  -5   0   8    5.06    0.30 
   4   0  -8    6.08    0.37 
   4   0  -8    5.62    0.40 
  -4   0   8    6.87    0.57 
   3   0  -8  165.37    8.77 
   3   0  -8  170.90    8.69 
  -3   0   8  157.09    8.71 
  -3   0   8  167.76    8.87 
   2   0  -8   75.17    3.81 
   2   0  -8   73.61    3.85 
  -2   0   8   69.00    3.88 
  -2   0   8   70.79    3.81 
   1   0  -8  101.08    5.51 
   1   0  -8  104.84    5.51 
   1   0  -8  108.08    5.47 
  -1   0   8  101.09    5.58 
  -1   0   8  104.28    5.48 
   0   0  -8   54.09    2.95 
   0   0  -8   56.68    2.92 
   0   0   8   55.23    2.93 
   0   0   8   55.07    2.95 
  -1   0  -8   12.50    0.65 
  -1   0  -8   10.97    0.65 
   1   0   8   11.81    0.65 
   1   0   8   10.75    0.67 
   1   0   8   12.40    0.64 
  -2   0  -8    2.27    0.18 
   2   0   8    2.53    0.17 
   2   0   8    2.04    0.17 
   2   0   8    2.29    0.16 
  -3   0  -8  134.72    7.13 
   3   0   8  128.96    7.18 
   3   0   8  142.34    7.56 
  -4   0  -8    5.78    0.37 
  -4   0  -8    4.84    0.34 
  -4   0  -8    6.30    0.44 
   4   0   8    6.11    0.37 
   4   0   8    5.39    0.31 
  -5   0  -8   16.68    0.93 
  -5   0  -8   17.52    1.22 
  -5   0  -8   15.54    0.98 
  -5   0  -8   19.09    1.34 
   5   0   8   17.73    0.86 
  -6   0  -8   38.32    2.08 
  -6   0  -8   37.31    2.75 
   6   0   8   40.53    1.95 
   6   0   8   43.48    1.95 
  -7   0  -8    0.05    0.04 
  -7   1   8    1.35    0.17 
  -7   1   8    1.22    0.16 
  -7   1   8    1.60    0.10 
   6  -1  -8    1.57    0.11 
  -6   1   8    1.65    0.11 
  -6   1   8    1.72    0.11 
  -6   1   8    1.46    0.20 
  -6   1   8    1.77    0.12 
  -6   1   8    1.56    0.21 
   5  -1  -8   21.03    1.04 
  -5   1   8   20.64    1.69 
  -5   1   8   21.67    1.16 
  -5   1   8   19.75    1.09 
  -5   1   8   21.66    1.75 
   4  -1  -8    9.09    0.51 
   4  -1  -8    8.87    0.45 
  -4   1   8    8.68    0.48 
  -4   1   8    9.01    0.51 
   3  -1  -8   11.56    0.63 
   3  -1  -8   11.38    0.66 
  -3   1   8   11.08    0.63 
   2  -1  -8  109.70    5.57 
   2  -1  -8  108.48    5.62 
  -2   1   8   91.14    5.58 
  -2   1   8  113.70    5.68 
   1  -1  -8  153.03    7.95 
   1  -1  -8  153.40    7.95 
   1  -1  -8  151.80    7.89 
  -1   1   8  141.93    8.06 
  -1   1   8  151.30    7.92 
   0  -1  -8  106.43    5.48 
   0  -1  -8  101.53    5.52 
   0   1   8  102.09    5.59 
   0   1   8  106.79    5.50 
  -1  -1  -8   43.02    2.37 
  -1  -1  -8   47.07    2.36 
   1   1   8   45.56    2.36 
   1   1   8   42.21    2.49 
  -2  -1  -8   16.47    0.85 
  -2  -1  -8   14.60    0.86 
   2   1   8   15.94    0.90 
   2   1   8   15.17    0.85 
  -3  -1  -8   56.43    3.05 
   3   1   8   61.34    3.23 
   3   1   8   54.59    3.05 
  -4  -1  -8    7.26    0.45 
   4   1   8    8.00    0.48 
  -5  -1  -8   53.37    2.84 
  -5  -1  -8   58.89    3.67 
  -5  -1  -8   51.58    2.77 
   5   1   8   51.67    3.01 
   5   1   8   50.89    2.60 
  -6  -1  -8    3.31    0.28 
  -6  -1  -8    3.08    0.21 
  -7  -1  -8   14.18    1.04 
  -7  -1  -8   15.48    0.79 
   6  -2  -8    3.48    0.18 
  -6   2   8    3.14    0.31 
  -6   2   8    3.32    0.19 
  -6   2   8    3.18    0.32 
   5  -2  -8    6.25    0.31 
  -5   2   8    5.97    0.54 
  -5   2   8    5.88    0.33 
  -5   2   8    5.38    0.32 
  -5   2   8    6.04    0.36 
  -5   2   8    6.46    0.53 
   4  -2  -8    1.72    0.14 
   4  -2  -8    1.45    0.11 
  -4   2   8    1.40    0.11 
  -4   2   8    1.45    0.12 
  -4   2   8    1.77    0.20 
  -4   2   8    1.74    0.21 
  -4   2   8    1.68    0.13 
  -4   2   8    1.30    0.10 
   3  -2  -8    3.56    0.26 
   3  -2  -8    3.80    0.24 
  -3   2   8    3.89    0.24 
  -3   2   8    3.97    0.37 
   2  -2  -8    5.02    0.33 
   2  -2  -8    5.38    0.31 
  -2   2   8    5.26    0.31 
   1  -2  -8  122.37    6.23 
   1  -2  -8  119.63    6.18 
  -1   2   8  111.08    6.20 
  -1   2   8  116.95    6.31 
   0  -2  -8   53.90    2.68 
   0  -2  -8   49.67    2.66 
   0   2   8   48.52    2.67 
   0   2   8   49.40    2.72 
  -1  -2  -8   21.13    1.16 
  -1  -2  -8   22.33    1.18 
   1   2   8   20.96    1.17 
   1   2   8   22.65    1.19 
  -2  -2  -8   14.45    0.78 
  -2  -2  -8   14.32    0.79 
   2   2   8   14.71    0.79 
   2   2   8   13.73    0.82 
  -3  -2  -8    0.37    0.07 
  -3  -2  -8    0.12    0.06 
   3   2   8    0.10    0.05 
   3   2   8    0.22    0.06 
  -4  -2  -8    1.40    0.14 
  -4  -2  -8    1.39    0.14 
   4   2   8    1.80    0.15 
  -5  -2  -8   13.00    0.73 
  -5  -2  -8   12.65    0.65 
   5   2   8   13.48    0.77 
   5   2   8   12.76    0.70 
  -6  -2  -8    1.66    0.20 
   6   2   8    1.79    0.14 
  -7  -2  -8   22.87    1.25 
  -7  -2  -8   24.80    1.66 
   6  -3  -8    1.00    0.07 
  -6   3   8    0.79    0.12 
   5  -3  -8   28.47    1.35 
  -5   3   8   27.79    1.44 
  -5   3   8   28.47    2.21 
  -5   3   8   25.70    2.27 
   4  -3  -8   37.36    1.94 
  -4   3   8   35.22    1.89 
  -4   3   8   36.30    2.98 
  -4   3   8   36.23    1.98 
   3  -3  -8   80.06    4.10 
  -3   3   8   76.55    6.32 
  -3   3   8   83.79    4.19 
  -3   3   8   70.58    6.12 
  -3   3   8   77.13    4.03 
   2  -3  -8  185.94    9.92 
   2  -3  -8  187.55    9.99 
  -2   3   8  181.63   10.14 
  -2   3   8  200.56   14.83 
   1  -3  -8    7.30    0.43 
   1  -3  -8    7.74    0.44 
  -1   3   8    7.69    0.44 
   0  -3  -8    9.00    0.53 
   0  -3  -8   10.23    0.54 
   0   3   8    9.69    0.54 
   0   3   8    9.63    0.54 
  -1  -3  -8    1.74    0.13 
  -1  -3  -8    1.65    0.12 
   1   3   8    1.61    0.12 
   1   3   8    1.72    0.12 
  -2  -3  -8    2.96    0.20 
   2   3   8    3.05    0.19 
  -3  -3  -8   27.79    1.44 
   3   3   8   25.48    1.51 
  -4  -3  -8  145.67    8.05 
   4   3   8  158.55    8.49 
  -5  -3  -8    0.62    0.07 
   5   3   8    0.61    0.07 
   5   3   8    0.60    0.07 
   5   3   8    0.62    0.10 
  -6  -3  -8   17.86    0.93 
   6   3   8   19.57    0.99 
  -7  -3  -8    0.38    0.14 
   7   3   8    0.47    0.07 
  -8  -3  -8    0.87    0.12 
   8   3   8    0.91    0.08 
  -5   4   8   12.54    1.03 
  -5   4   8   12.97    1.06 
  -4   4   8    4.54    0.26 
  -4   4   8    4.95    0.42 
  -4   4   8    4.09    0.40 
  -3   4   8   26.68    1.40 
  -3   4   8   24.51    1.34 
  -3   4   8   27.72    2.05 
  -3   4   8   23.03    2.11 
  -2   4   8   15.97    1.49 
  -2   4   8   17.92    0.99 
  -2   4   8   19.63    1.45 
  -2   4   8   17.31    0.94 
  -2   4   8   18.26    1.33 
  -1   4   8  232.77   19.19 
  -1   4   8  262.01   13.12 
  -1   4   8  239.26   18.41 
   0  -4  -8  105.67    5.32 
   0   4   8   98.99    5.40 
   0   4   8   96.62    7.58 
  -1  -4  -8   43.03    2.22 
   1   4   8   41.58    3.17 
   1   4   8   40.44    2.26 
  -2  -4  -8   15.60    0.81 
   2   4   8   15.57    0.82 
   2   4   8   13.25    1.15 
  -3  -4  -8   77.41    4.16 
   3   4   8   79.42    5.93 
  -4  -4  -8   62.07    3.47 
   4   4   8   68.23    3.66 
  -5  -4  -8    3.69    0.21 
   5   4   8    3.91    0.32 
   5   4   8    3.81    0.23 
   5   4   8    3.64    0.23 
   5   4   8    3.60    0.26 
  -6  -4  -8    6.55    0.35 
   6   4   8    6.64    0.52 
   6   4   8    6.13    0.37 
   6   4   8    6.73    0.37 
  -7  -4  -8    1.29    0.10 
   7   4   8    1.28    0.15 
   7   4   8    1.13    0.11 
  -8  -4  -8    8.56    0.71 
   8   4   8   10.98    0.53 
   8   4   8   10.40    0.75 
  -4   5   8    1.74    0.19 
  -4   5   8    1.84    0.14 
  -4   5   8    2.02    0.20 
  -3   5   8   35.06    2.63 
  -3   5   8   30.91    2.71 
  -2   5   8   30.00    2.27 
  -2   5   8   27.87    1.48 
  -2   5   8   26.11    2.33 
  -2   5   8   29.00    1.55 
  -1   5   8   18.52    1.65 
  -1   5   8   19.53    1.48 
  -1   5   8   16.70    1.59 
  -1   5   8   20.80    1.10 
  -1   5   8   22.30    1.48 
  -1   5   8   19.91    1.05 
  -1   5   8   20.99    1.55 
   0   5   8    7.22    0.39 
   0   5   8    6.19    0.59 
   0   5   8    6.94    0.37 
   0   5   8    6.95    0.53 
   0   5   8    6.46    0.57 
   0   5   8    5.48    0.52 
   0   5   8    7.02    0.56 
   1   5   8    0.31    0.06 
   1   5   8    0.31    0.09 
   1   5   8    0.36    0.09 
   1   5   8    0.28    0.08 
   2   5   8    3.76    0.34 
   2   5   8    3.60    0.23 
  -3  -5  -8    0.38    0.07 
   3   5   8    0.37    0.11 
   4   5   8   88.31    4.57 
   4   5   8   86.56    6.03 
   4   5   8   82.20    4.27 
   4   5   8   83.07    4.31 
   4   5   8   74.08    6.27 
  -5  -5  -8  154.52    7.60 
   5   5   8  151.53    8.11 
   5   5   8  160.71    8.60 
   5   5   8  159.47   11.36 
   5   5   8  154.31    8.74 
   5   5   8  158.87   11.81 
   5   5   8  155.92    8.06 
  -6  -5  -8  100.25    4.84 
   6   5   8  102.05    5.13 
   6   5   8  101.60    7.23 
   6   5   8   93.56    5.16 
  -7  -5  -8   20.78    1.04 
   7   5   8   22.14    1.57 
   7   5   8   21.95    1.11 
   7   5   8   19.56    1.12 
  -8  -5  -8    4.66    0.38 
  -8  -5  -8    5.36    0.26 
   8   5   8    5.27    0.28 
   8   5   8    5.07    0.40 
  -3   6   8    0.28    0.06 
  -3   6   8    0.15    0.07 
  -3   6   8    0.13    0.07 
  -2   6   8    0.21    0.09 
  -2   6   8    0.27    0.09 
  -2   6   8    0.15    0.09 
  -2   6   8    0.28    0.06 
  -1   6   8   96.64    7.84 
  -1   6   8  100.55    6.96 
  -1   6   8   92.09    7.60 
   0   6   8   38.59    2.78 
   0   6   8   36.44    3.03 
   0   6   8   36.50    2.92 
   0   6   8   40.63    2.80 
   1   6   8   13.94    0.85 
   1   6   8   17.28    1.21 
   1   6   8   16.35    1.29 
   1   6   8   15.51    1.34 
   1   6   8   16.57    1.26 
   2   6   8   31.65    1.71 
   2   6   8   30.79    1.61 
   2   6   8   30.68    2.44 
   2   6   8   28.16    2.52 
   2   6   8   26.90    2.25 
   2   6   8   35.52    2.25 
   3   6   8   25.31    1.35 
   3   6   8   26.56    1.99 
   3   6   8   26.99    1.89 
   3   6   8   23.70    1.90 
   3   6   8   25.86    1.44 
   4   6   8   16.58    1.15 
   4   6   8   16.11    0.87 
   4   6   8   14.58    0.82 
   4   6   8   13.57    1.20 
  -5  -6  -8    7.18    0.39 
   5   6   8    7.66    0.60 
   5   6   8    7.72    0.64 
   5   6   8    7.55    0.43 
   5   6   8    7.97    0.46 
  -6  -6  -8    9.34    0.49 
   6   6   8   10.02    0.56 
   6   6   8    9.47    0.51 
   6   6   8    9.36    0.73 
   6   6   8    9.28    0.78 
   6   6   8    9.65    0.53 
  -7  -6  -8   47.74    2.27 
   7   6   8   47.29    2.43 
   7   6   8   41.10    3.54 
   7   6   8   48.37    2.40 
   7   6   8   48.03    3.40 
  -8  -6  -8   21.12    1.01 
   8   6   8   20.98    1.07 
   8   6   8   19.57    1.51 
  -2   7   8    2.14    0.21 
  -1   7   8    3.45    0.33 
  -1   7   8    3.20    0.30 
  -1   7   8    3.75    0.32 
   0   7   8    0.06    0.10 
   0   7   8   -0.01    0.06 
   0   7   8    0.07    0.07 
   0   7   8    0.10    0.08 
   0   7   8    0.04    0.08 
   1   7   8   19.64    1.34 
   1   7   8   18.83    1.35 
   1   7   8   16.39    1.45 
   1   7   8   18.00    1.51 
   1   7   8   17.13    1.42 
   2   7   8    0.32    0.09 
   2   7   8    0.37    0.12 
   2   7   8    0.38    0.10 
   2   7   8    0.28    0.10 
   2   7   8    0.41    0.10 
   3   7   8    3.03    0.26 
   3   7   8    2.35    0.27 
   3   7   8    2.78    0.25 
   3   7   8    2.70    0.19 
   3   7   8    2.67    0.17 
   4   7   8    5.57    0.35 
   4   7   8    6.42    0.46 
   4   7   8    4.88    0.49 
   4   7   8    5.60    0.32 
   5   7   8    8.56    0.48 
   5   7   8    9.66    0.52 
   5   7   8    8.18    0.68 
   5   7   8    8.76    0.72 
  -6  -7  -8    0.26    0.04 
   6   7   8    0.44    0.13 
   6   7   8    0.54    0.10 
   6   7   8    0.34    0.06 
   6   7   8    0.24    0.06 
  -7  -7  -8    3.61    0.19 
   7   7   8    3.38    0.28 
   7   7   8    3.45    0.20 
   7   7   8    3.18    0.21 
   0   8   8    8.18    0.62 
   0   8   8    8.49    0.67 
   0   8   8    7.84    0.69 
   1   8   8    3.86    0.33 
   1   8   8    4.07    0.34 
   1   8   8    4.29    0.38 
   1   8   8    3.92    0.36 
   2   8   8    1.57    0.16 
   2   8   8    1.41    0.16 
   2   8   8    1.67    0.19 
   3   8   8   12.57    0.90 
   3   8   8   11.04    0.94 
   4   8   8    6.78    0.41 
   4   8   8    7.32    0.55 
   5   8   8    0.47    0.11 
   5   8   8    0.35    0.08 
   5   8   8    0.31    0.06 
   6   8   8    4.65    0.37 
   6   8   8    4.50    0.26 
   6   8   8    4.50    0.27 
   7   8   8    0.46    0.05 
   7   8   8    0.61    0.08 
   3   9   8    4.05    0.32 
   4   9   8   20.87    1.54 
   5   9   8    0.05    0.03 
   5   9   8    0.04    0.05 
   5   6  -9    2.22    0.22 
  -5  -6   9    2.62    0.13 
  -4  -6   9    7.95    0.40 
   3   6  -9   15.59    1.35 
  -3  -6   9   19.92    0.88 
   2   6  -9    4.31    0.38 
  -2  -6   9    4.98    0.24 
  -1  -6   9    7.69    0.39 
   6   5  -9    4.85    0.25 
   6   5  -9    4.22    0.37 
  -6  -5   9    3.69    0.40 
  -6  -5   9    4.54    0.23 
  -6  -5   9    4.63    0.23 
   5   5  -9   21.18    1.51 
   5   5  -9   19.61    1.03 
  -5  -5   9   18.36    0.97 
   4   5  -9   30.79    2.35 
   4   5  -9   31.55    1.61 
  -4  -5   9   30.56    1.52 
   3   5  -9    1.43    0.19 
   3   5  -9    1.46    0.11 
  -3  -5   9    1.42    0.10 
   2   5  -9    0.02    0.04 
   2   5  -9    0.07    0.09 
  -2  -5   9    0.03    0.03 
  -1  -5   9    7.28    0.37 
   0   5  -9    0.37    0.12 
   0  -5   9    0.37    0.04 
  -1   5  -9   12.02    0.97 
   1  -5   9   13.55    0.64 
   7   4  -9    0.13    0.04 
  -7  -4   9    0.03    0.03 
  -7  -4   9    0.02    0.08 
   6   4  -9    5.50    0.29 
  -6  -4   9    4.36    0.47 
  -6  -4   9    5.42    0.27 
   5   4  -9   54.08    3.56 
   5   4  -9   47.46    2.45 
  -5  -4   9   44.26    2.30 
  -5  -4   9   46.73    2.31 
  -5  -4   9   43.73    3.86 
   4   4  -9    0.42    0.06 
   4   4  -9    0.28    0.12 
  -4  -4   9    0.26    0.06 
  -4  -4   9    0.33    0.05 
  -4  -4   9    0.41    0.05 
   3   4  -9  118.35    8.27 
   3   4  -9  142.54    6.70 
  -3  -4   9  127.22    6.87 
  -3  -4   9  131.75    6.31 
   2   4  -9   70.17    5.17 
   2   4  -9   64.68    4.41 
   2   4  -9   70.91    3.57 
  -2  -4   9   71.34    3.67 
  -2  -4   9   67.93    3.36 
   1   4  -9    0.30    0.10 
   1   4  -9    0.29    0.06 
  -1  -4   9    0.28    0.04 
   0   4  -9    4.12    0.37 
   0   4  -9    4.18    0.25 
   0  -4   9    4.45    0.23 
  -1   4  -9    2.90    0.28 
  -1   4  -9    2.88    0.18 
   1  -4   9    2.93    0.17 
  -2   4  -9    1.62    0.20 
   2  -4   9    1.54    0.10 
  -3   4  -9   17.82    1.47 
   3  -4   9   21.41    0.96 
   7   3  -9    5.01    0.28 
   7   3  -9    5.22    0.27 
  -7  -3   9    4.87    0.28 
  -7  -3   9    5.35    0.26 
  -7  -3   9    4.88    0.46 
   6   3  -9   42.13    2.21 
   6   3  -9   42.48    2.12 
  -6  -3   9   43.04    2.09 
   5   3  -9    0.49    0.12 
   5   3  -9    0.44    0.06 
   5   3  -9    0.41    0.07 
  -5  -3   9    0.46    0.07 
  -5  -3   9    0.52    0.06 
  -5  -3   9    0.52    0.06 
  -5  -3   9    0.54    0.14 
   4   3  -9   30.86    1.56 
   4   3  -9   29.82    2.01 
   4   3  -9   32.55    1.62 
   4   3  -9   30.69    2.36 
  -4  -3   9   31.10    1.53 
  -4  -3   9   30.22    1.52 
  -4  -3   9   32.14    1.67 
   3   3  -9   11.86    0.60 
   3   3  -9   11.28    0.76 
   3   3  -9   10.42    0.89 
  -3  -3   9   11.47    0.56 
  -3  -3   9   11.00    0.57 
   2   3  -9   52.24    4.30 
   2   3  -9   57.93    2.97 
  -2  -3   9   57.92    2.80 
  -2  -3   9   61.74    3.06 
   1   3  -9   28.88    1.48 
   1   3  -9   29.51    2.15 
  -1  -3   9   27.39    1.53 
  -1  -3   9   27.46    1.61 
  -1  -3   9   28.55    1.39 
   0   3  -9   17.42    0.90 
   0   3  -9   16.46    1.29 
   0  -3   9   16.69    0.84 
   0  -3   9   17.03    0.98 
  -1   3  -9    0.50    0.07 
  -1   3  -9    0.45    0.13 
   1  -3   9    0.63    0.07 
   1  -3   9    0.44    0.08 
  -2   3  -9   63.82    4.84 
  -2   3  -9   66.17    3.38 
   2  -3   9   65.67    3.18 
  -3   3  -9    7.70    0.62 
  -3   3  -9    7.61    0.42 
   3  -3   9    7.80    0.39 
  -4   3  -9    2.58    0.24 
   4  -3   9    2.72    0.15 
   7   2  -9    0.55    0.06 
  -7  -2   9    0.68    0.14 
  -7  -2   9    0.63    0.06 
  -7  -2   9    0.53    0.06 
   6   2  -9    9.33    0.45 
  -6  -2   9    8.21    0.43 
  -6  -2   9    8.40    0.46 
  -6  -2   9    7.70    0.74 
   5   2  -9    9.22    0.75 
   5   2  -9    9.33    0.49 
   5   2  -9    9.37    0.65 
  -5  -2   9    9.20    0.48 
  -5  -2   9   11.13    0.84 
  -5  -2   9    8.35    0.51 
   4   2  -9   77.14    5.19 
   4   2  -9   68.61    4.43 
   4   2  -9   64.69    3.58 
   4   2  -9   69.04    3.45 
  -4  -2   9   66.87    3.38 
  -4  -2   9   72.22    5.65 
  -4  -2   9   66.35    3.67 
   3   2  -9   86.21    4.41 
   3   2  -9   87.24    5.44 
   3   2  -9   84.09    4.24 
  -3  -2   9   86.38    4.16 
  -3  -2   9   87.79    4.52 
  -3  -2   9   80.55    4.15 
   2   2  -9  171.48   18.62 
   2   2  -9  208.77   10.64 
   2   2  -9  223.72   15.05 
  -2  -2   9  201.73   10.68 
  -2  -2   9  206.73   10.73 
   1   2  -9   36.07    1.81 
   1   2  -9   36.28    2.56 
   1   2  -9   29.96    3.23 
  -1  -2   9   33.64    1.84 
  -1  -2   9   33.22    1.91 
  -1  -2   9   33.97    1.82 
   0   2  -9  416.29   21.97 
   0   2  -9  449.34   22.42 
   0  -2   9  413.27   22.56 
   0  -2   9  435.31   22.49 
   0  -2   9  445.68   23.78 
   0  -2   9  404.90   20.71 
  -1   2  -9   12.05    0.88 
  -1   2  -9   11.02    0.64 
  -1   2  -9   11.33    0.61 
   1  -2   9   10.73    0.66 
   1  -2   9   11.00    0.56 
  -2   2  -9    0.15    0.11 
  -2   2  -9    0.24    0.07 
  -2   2  -9    0.18    0.08 
   2  -2   9    0.17    0.04 
   2  -2   9    0.24    0.07 
  -3   2  -9   22.78    1.30 
  -3   2  -9   24.08    1.80 
  -3   2  -9   24.54    1.25 
   3  -2   9   23.67    1.17 
  -4   2  -9   45.93    2.28 
  -4   2  -9   42.65    3.27 
   4  -2   9   43.39    2.15 
  -5   2  -9   14.34    0.74 
  -5   2  -9   12.99    1.07 
   5  -2   9   15.01    0.70 
   7   1  -9   14.79    0.72 
  -7  -1   9   14.75    0.75 
  -7  -1   9   14.45    0.75 
  -7  -1   9   12.92    1.19 
   6   1  -9   15.80    0.82 
  -6  -1   9   16.62    0.85 
  -6  -1   9   15.36    0.80 
  -6  -1   9   16.37    0.85 
   5   1  -9    0.05    0.04 
   5   1  -9    0.06    0.06 
   5   1  -9    0.04    0.05 
   5   1  -9    0.06    0.08 
  -5  -1   9    0.22    0.13 
  -5  -1   9    0.10    0.05 
  -5  -1   9    0.07    0.04 
   4   1  -9    2.94    0.19 
   4   1  -9    3.37    0.23 
   4   1  -9    3.15    0.19 
  -4  -1   9    3.17    0.19 
  -4  -1   9    3.78    0.34 
  -4  -1   9    3.00    0.18 
   3   1  -9   62.02    3.60 
   3   1  -9   69.34    3.55 
  -3  -1   9   69.47    3.56 
   2   1  -9   16.70    0.90 
  -2  -1   9   16.42    0.90 
   1   1  -9    5.44    0.31 
  -1  -1   9    5.17    0.33 
  -1  -1   9    5.10    0.31 
   0   1  -9   61.50    3.31 
   0  -1   9   61.35    3.50 
   0  -1   9   63.59    3.34 
   0  -1   9   63.82    3.32 
  -1   1  -9    0.12    0.16 
  -1   1  -9    0.09    0.06 
   1  -1   9    0.11    0.05 
   1  -1   9    0.13    0.05 
   1  -1   9    0.08    0.05 
  -2   1  -9  470.33   24.78 
  -2   1  -9  504.83   25.29 
   2  -1   9  484.17   26.82 
   2  -1   9  469.14   23.36 
  -3   1  -9    7.15    0.42 
  -3   1  -9    7.26    0.45 
   3  -1   9    7.09    0.45 
   3  -1   9    7.60    0.38 
  -4   1  -9    0.28    0.07 
  -4   1  -9    0.25    0.09 
  -4   1  -9    0.24    0.14 
   4  -1   9    0.29    0.05 
  -5   1  -9    0.82    0.16 
  -5   1  -9    0.90    0.10 
   5  -1   9    0.99    0.08 
   7   0  -9   25.28    1.26 
  -7   0   9   22.29    2.06 
  -7   0   9   28.07    1.30 
  -7   0   9   21.87    1.99 
  -7   0   9   27.55    1.31 
   6   0  -9    1.23    0.11 
   6   0  -9    1.46    0.10 
  -6   0   9    1.47    0.20 
  -6   0   9    1.44    0.10 
  -6   0   9    1.31    0.18 
  -6   0   9    1.49    0.11 
   5   0  -9   12.73    0.64 
   5   0  -9   12.37    0.70 
  -5   0   9   12.33    1.08 
  -5   0   9   12.93    0.67 
  -5   0   9   12.62    0.67 
   4   0  -9    7.72    0.43 
   4   0  -9    7.46    0.38 
  -4   0   9    6.97    0.40 
  -4   0   9    8.11    0.66 
  -4   0   9    7.05    0.40 
  -4   0   9    6.73    0.38 
   3   0  -9   15.96    0.86 
   3   0  -9   15.14    0.90 
  -3   0   9   15.94    0.86 
   2   0  -9   15.78    0.88 
   2   0  -9   15.46    0.84 
  -2   0   9   15.00    0.84 
   1   0  -9   30.89    1.72 
   1   0  -9   32.05    1.70 
  -1   0   9   32.41    1.70 
   0   0  -9    6.57    0.41 
   0   0  -9    7.30    0.40 
   0   0   9    6.85    0.39 
  -1   0  -9   18.42    1.09 
  -1   0  -9   21.33    1.08 
   1   0   9   19.97    1.13 
   1   0   9   19.25    1.09 
   1   0   9   20.48    1.08 
  -2   0  -9    0.06    0.06 
   2   0   9    0.08    0.05 
   2   0   9    0.09    0.05 
  -3   0  -9   11.81    0.67 
  -3   0  -9   11.04    0.63 
   3   0   9   12.20    0.70 
   3   0   9   11.64    0.59 
  -4   0  -9  204.05   10.49 
  -4   0  -9  193.37   10.27 
   4   0   9  195.33   11.12 
   4   0   9  204.54    9.67 
  -5   0  -9    0.18    0.11 
  -5   0  -9    0.05    0.13 
  -5   0  -9    0.32    0.07 
   5   0   9    0.18    0.04 
  -6   0  -9    8.55    0.70 
  -6   0  -9    8.10    0.64 
  -6   0  -9   10.28    0.49 
  -7   1   9   10.06    0.92 
  -7   1   9   11.94    0.58 
   6  -1  -9    3.65    0.20 
  -6   1   9    4.03    0.22 
  -6   1   9    3.58    0.36 
  -6   1   9    3.66    0.35 
  -6   1   9    3.68    0.21 
   5  -1  -9    3.55    0.24 
   5  -1  -9    3.60    0.20 
  -5   1   9    3.46    0.21 
  -5   1   9    3.85    0.36 
  -5   1   9    3.33    0.34 
  -5   1   9    3.57    0.23 
  -5   1   9    3.54    0.21 
   4  -1  -9    4.49    0.28 
   4  -1  -9    3.95    0.24 
  -4   1   9    4.10    0.25 
  -4   1   9    4.22    0.25 
  -4   1   9    4.85    0.40 
  -4   1   9    4.23    0.27 
  -4   1   9    4.06    0.25 
  -4   1   9    5.09    0.43 
   3  -1  -9   12.72    0.76 
   3  -1  -9   13.21    0.72 
  -3   1   9   13.08    0.73 
   2  -1  -9    0.86    0.10 
   2  -1  -9    0.65    0.10 
  -2   1   9    0.81    0.08 
  -2   1   9    0.78    0.08 
   1  -1  -9   23.81    1.25 
   1  -1  -9   23.59    1.27 
  -1   1   9   22.30    1.25 
  -1   1   9   23.36    1.27 
   0  -1  -9   12.58    0.69 
   0  -1  -9   12.42    0.70 
   0   1   9   12.81    0.69 
   0   1   9   12.30    0.69 
  -1  -1  -9    0.08    0.04 
  -1  -1  -9    0.16    0.06 
   1   1   9    0.12    0.04 
  -2  -1  -9    5.87    0.35 
  -2  -1  -9    5.45    0.35 
   2   1   9    5.94    0.36 
   2   1   9    5.91    0.34 
  -3  -1  -9   13.39    0.76 
   3   1   9   12.68    0.75 
   3   1   9   14.53    0.80 
  -4  -1  -9    7.68    0.46 
  -4  -1  -9    6.97    0.44 
   4   1   9    8.73    0.49 
  -5  -1  -9   14.94    1.02 
  -5  -1  -9   14.08    0.81 
  -5  -1  -9   13.93    0.78 
  -6  -1  -9   19.08    1.37 
  -6  -1  -9   20.25    1.49 
  -6  -1  -9   19.59    1.04 
  -7  -1  -9    2.46    0.15 
  -7  -1  -9    2.13    0.19 
   6  -2  -9    5.74    0.29 
  -6   2   9    5.80    0.30 
  -6   2   9    4.98    0.47 
  -6   2   9    5.50    0.49 
   5  -2  -9    0.21    0.04 
  -5   2   9    0.26    0.10 
  -5   2   9    0.16    0.09 
  -5   2   9    0.17    0.03 
  -5   2   9    0.19    0.04 
   4  -2  -9    0.05    0.06 
   4  -2  -9    0.10    0.04 
  -4   2   9    0.10    0.05 
  -4   2   9    0.10    0.03 
  -4   2   9    0.13    0.09 
  -4   2   9    0.16    0.04 
  -4   2   9    0.10    0.10 
   3  -2  -9   14.87    0.84 
   3  -2  -9   14.30    0.76 
  -3   2   9   15.72    0.85 
  -3   2   9   16.55    1.29 
  -3   2   9   14.59    0.81 
  -3   2   9   14.16    0.80 
  -3   2   9   16.86    1.25 
   2  -2  -9   97.54    5.03 
   2  -2  -9   91.97    5.08 
  -2   2   9   96.64    5.14 
   1  -2  -9    2.17    0.16 
   1  -2  -9    2.24    0.17 
  -1   2   9    2.20    0.15 
  -1   2   9    2.15    0.15 
   0  -2  -9    0.20    0.05 
   0  -2  -9    0.12    0.05 
   0   2   9    0.14    0.04 
   0   2   9    0.13    0.04 
  -1  -2  -9   53.01    2.87 
  -1  -2  -9   55.21    2.85 
   1   2   9   54.05    2.91 
   1   2   9   53.50    2.87 
  -2  -2  -9    4.69    0.27 
  -2  -2  -9    4.47    0.28 
   2   2   9    4.21    0.27 
  -3  -2  -9   24.17    1.33 
  -3  -2  -9   24.05    1.31 
   3   2   9   22.67    1.31 
   3   2   9   26.08    1.39 
  -4  -2  -9   29.32    1.71 
  -4  -2  -9   31.62    1.57 
   4   2   9   31.46    1.67 
   4   2   9   35.30    1.82 
  -5  -2  -9   12.95    0.65 
  -5  -2  -9   14.16    0.93 
  -5  -2  -9   12.37    0.73 
   5   2   9   13.36    0.77 
   5   2   9   11.75    0.70 
  -6  -2  -9    7.93    0.58 
   6   2   9    7.52    0.43 
  -7  -2  -9   47.35    2.34 
  -7  -2  -9   43.23    3.09 
   7   2   9   44.45    2.33 
   6  -3  -9    6.39    0.32 
   5  -3  -9    0.91    0.08 
  -5   3   9    1.24    0.16 
  -5   3   9    1.06    0.14 
  -5   3   9    0.97    0.08 
   4  -3  -9    8.18    0.47 
   4  -3  -9    8.20    0.41 
  -4   3   9    7.74    0.68 
  -4   3   9    7.63    0.44 
  -4   3   9    8.33    0.47 
  -4   3   9    8.33    0.71 
   3  -3  -9    0.54    0.09 
  -3   3   9    0.81    0.10 
  -3   3   9    0.82    0.08 
  -3   3   9    0.89    0.16 
   2  -3  -9    7.58    0.45 
   2  -3  -9    7.86    0.48 
  -2   3   9    7.61    0.43 
  -2   3   9    8.16    0.67 
  -2   3   9    8.45    0.46 
   1  -3  -9  129.49    6.81 
   1  -3  -9  127.45    6.87 
  -1   3   9  131.56    6.96 
   0  -3  -9  150.13    7.54 
   0  -3  -9  136.60    7.49 
   0  -3  -9  144.51    7.54 
   0   3   9  138.95    7.65 
   0   3   9  142.66    7.52 
  -1  -3  -9    3.98    0.25 
  -1  -3  -9    4.03    0.25 
   1   3   9    4.30    0.26 
   1   3   9    4.18    0.25 
  -2  -3  -9    7.24    0.41 
   2   3   9    6.69    0.40 
  -3  -3  -9    8.17    0.49 
   3   3   9    8.80    0.51 
  -4  -3  -9   25.51    1.24 
   4   3   9   24.26    1.32 
   4   3   9   25.43    1.44 
   4   3   9   24.89    1.31 
  -5  -3  -9   18.31    0.92 
   5   3   9   18.22    0.98 
   5   3   9   19.05    1.08 
  -6  -3  -9    6.01    0.46 
  -6  -3  -9    6.22    0.32 
   6   3   9    5.87    0.35 
  -7  -3  -9    7.22    0.56 
   7   3   9    7.93    0.42 
  -5   4   9    1.57    0.16 
  -5   4   9    1.17    0.08 
  -4   4   9    6.90    0.60 
  -4   4   9    6.84    0.37 
  -4   4   9    6.75    0.58 
  -3   4   9    3.47    0.32 
  -3   4   9    3.00    0.19 
  -3   4   9    2.87    0.29 
  -3   4   9    2.94    0.21 
  -2   4   9   40.72    3.13 
  -2   4   9   45.21    2.34 
  -2   4   9   42.62    3.41 
  -2   4   9   45.09    3.53 
  -2   4   9   41.47    2.24 
  -1   4   9    2.45    0.26 
  -1   4   9    3.03    0.29 
  -1   4   9    2.73    0.17 
  -1   4   9    2.66    0.19 
  -1   4   9    2.98    0.27 
   0  -4  -9    0.86    0.10 
   0   4   9    0.94    0.09 
  -1  -4  -9   64.31    3.29 
   1   4   9   59.44    3.34 
  -2  -4  -9   46.54    2.48 
  -3  -4  -9    0.02    0.05 
  -4  -4  -9   32.40    1.64 
   4   4   9   31.28    1.89 
   4   4   9   34.65    1.86 
   4   4   9   34.25    1.73 
   4   4   9   33.86    1.75 
  -5  -4  -9    1.63    0.13 
   5   4   9    1.60    0.16 
   5   4   9    2.07    0.14 
   5   4   9    1.76    0.13 
  -6  -4  -9    5.44    0.31 
   6   4   9    5.93    0.33 
   6   4   9    5.74    0.32 
  -7  -4  -9    2.75    0.15 
  -7  -4  -9    2.68    0.24 
   7   4   9    2.29    0.17 
  -8  -4  -9    0.92    0.11 
   8   4   9    0.89    0.08 
  -4   5   9    2.94    0.31 
  -4   5   9    4.07    0.33 
  -3   5   9   16.89    1.28 
  -3   5   9   14.62    0.83 
  -3   5   9   15.84    1.32 
  -2   5   9   17.45    1.28 
  -2   5   9   18.41    1.39 
  -2   5   9   17.56    0.95 
  -2   5   9   14.75    1.43 
  -2   5   9   17.42    0.91 
  -1   5   9   92.94    4.92 
  -1   5   9   91.81    4.74 
  -1   5   9   85.92    6.60 
  -1   5   9   94.00    6.65 
  -1   5   9   95.93    7.43 
  -1   5   9   87.52    7.19 
   0   5   9   48.80    2.56 
   0   5   9   48.09    3.59 
   0   5   9   47.49    3.74 
   0   5   9   50.26    2.66 
   0   5   9   49.79    3.89 
   0   5   9   50.88    3.57 
   0   5   9   48.25    4.01 
   1   5   9   26.24    2.15 
   1   5   9   26.94    1.38 
   1   5   9   24.17    1.92 
   1   5   9   26.53    1.46 
   1   5   9   26.85    1.43 
   1   5   9   25.83    2.01 
   2   5   9   16.56    0.98 
   2   5   9   18.87    1.29 
   2   5   9   15.65    1.28 
   2   5   9   17.98    1.35 
   2   5   9   17.12    0.92 
   3   5   9    4.96    0.42 
   3   5   9    5.31    0.40 
   3   5   9    5.15    0.44 
   3   5   9    4.60    0.29 
   3   5   9    4.85    0.31 
  -4  -5  -9   17.78    0.97 
   4   5   9   19.04    1.45 
   4   5   9   20.77    1.11 
   4   5   9   19.52    1.04 
   4   5   9   19.40    1.03 
   4   5   9   21.06    1.53 
  -5  -5  -9    2.31    0.15 
   5   5   9    2.24    0.18 
   5   5   9    2.41    0.16 
   5   5   9    2.21    0.17 
   5   5   9    2.79    0.26 
   5   5   9    1.95    0.18 
   5   5   9    2.70    0.23 
  -6  -5  -9    0.58    0.07 
   6   5   9    0.57    0.07 
   6   5   9    0.66    0.14 
   6   5   9    0.68    0.12 
   6   5   9    0.71    0.09 
  -7  -5  -9    5.46    0.28 
   7   5   9    4.91    0.30 
   7   5   9    5.43    0.30 
   7   5   9    5.51    0.42 
  -3   6   9    2.98    0.27 
  -3   6   9    2.84    0.26 
  -2   6   9    2.22    0.22 
  -2   6   9    1.99    0.23 
  -2   6   9    2.14    0.21 
  -1   6   9   61.02    4.61 
  -1   6   9   56.37    4.22 
  -1   6   9   57.38    4.76 
   0   6   9   15.81    1.57 
   0   6   9   17.73    1.00 
   0   6   9   21.46    1.53 
   0   6   9   20.48    1.48 
   0   6   9   21.14    1.41 
   0   6   9   16.73    1.40 
   1   6   9    0.06    0.07 
   1   6   9    0.19    0.05 
   1   6   9    0.07    0.08 
   1   6   9    0.08    0.07 
   1   6   9    0.05    0.08 
   1   6   9    0.05    0.09 
   2   6   9    2.77    0.19 
   2   6   9    2.72    0.21 
   2   6   9    3.25    0.28 
   2   6   9    3.19    0.30 
   2   6   9    3.29    0.27 
   3   6   9    2.82    0.21 
   3   6   9    3.11    0.29 
   3   6   9    3.29    0.27 
   3   6   9    2.75    0.26 
   3   6   9    2.73    0.19 
   4   6   9   12.20    0.69 
   4   6   9   10.33    0.65 
   4   6   9   12.38    0.91 
   4   6   9   12.90    0.96 
  -5  -6  -9    9.52    0.50 
   5   6   9    9.37    0.54 
   5   6   9   10.82    0.58 
   5   6   9    9.47    0.80 
   5   6   9   10.11    0.76 
  -6  -6  -9    4.79    0.26 
   6   6   9    4.68    0.29 
   6   6   9    4.76    0.42 
   6   6   9    4.65    0.26 
   6   6   9    4.99    0.39 
   6   6   9    4.40    0.28 
  -7  -6  -9   12.54    0.65 
   7   6   9   13.45    0.97 
   7   6   9   12.47    0.68 
   7   6   9   13.56    0.70 
  -8  -6  -9    0.63    0.10 
  -2   7   9    0.72    0.11 
  -1   7   9   25.29    2.31 
  -1   7   9   30.81    2.39 
  -1   7   9   31.27    2.13 
   0   7   9   18.42    1.65 
   0   7   9   21.43    1.48 
   0   7   9   19.91    1.60 
   1   7   9   83.51    5.85 
   1   7   9   84.67    6.59 
   1   7   9   80.15    6.38 
   1   7   9   74.80    6.14 
   1   7   9   81.72    5.90 
   2   7   9    1.07    0.14 
   2   7   9    0.77    0.13 
   2   7   9    0.89    0.14 
   2   7   9    0.79    0.08 
   2   7   9    0.92    0.16 
   3   7   9   12.01    0.99 
   3   7   9   12.99    0.76 
   3   7   9   14.35    1.06 
   3   7   9   12.22    0.71 
   3   7   9   14.60    1.00 
   4   7   9    0.53    0.07 
   4   7   9    0.62    0.13 
   4   7   9    0.54    0.08 
   4   7   9    0.57    0.11 
   5   7   9    0.42    0.07 
   5   7   9    0.43    0.06 
   5   7   9    0.33    0.11 
   5   7   9    0.40    0.09 
  -6  -7  -9   13.53    0.65 
   6   7   9   13.11    0.70 
   6   7   9   12.32    1.03 
   6   7   9   12.63    0.98 
   6   7   9   13.88    0.75 
  -7  -7  -9    0.06    0.03 
   7   7   9    0.13    0.04 
   7   7   9    0.14    0.07 
   7   7   9    0.09    0.04 
   0   8   9   17.13    1.29 
   0   8   9   18.15    1.46 
   1   8   9   11.63    0.82 
   1   8   9    9.20    0.82 
   1   8   9   12.08    0.93 
   2   8   9    5.89    0.49 
   2   8   9    5.33    0.45 
   2   8   9    6.16    0.45 
   3   8   9   56.28    3.95 
   3   8   9   54.63    2.98 
   3   8   9   53.44    4.10 
   3   8   9   51.82    3.90 
   4   8   9    1.48    0.18 
   4   8   9    1.46    0.16 
   4   8   9    1.65    0.12 
   5   8   9    8.64    0.66 
   5   8   9    8.39    0.47 
   5   8   9    8.93    0.50 
   6   8   9    8.94    0.64 
   6   8   9    8.29    0.49 
   6   8   9    8.23    0.46 
   3   9   9    0.78    0.09 
   4   9   9    0.54    0.07 
   5   9   9   27.01    1.98 
  -4  -6  10    7.35    0.37 
  -3  -6  10    4.19    0.22 
  -2  -6  10    2.34    0.13 
   5   5 -10   34.08    3.01 
   5   5 -10   44.20    2.08 
  -5  -5  10   42.21    1.96 
   4   5 -10    8.24    0.44 
   4   5 -10    8.34    0.66 
  -4  -5  10    8.20    0.42 
   3   5 -10   28.67    2.28 
   3   5 -10   30.53    1.56 
  -3  -5  10   31.08    1.47 
   2   5 -10   15.79    1.23 
   2   5 -10   16.34    0.84 
  -2  -5  10   16.08    0.80 
  -1  -5  10   12.10    0.60 
   0  -5  10    6.03    0.31 
  -7  -4  10    1.82    0.10 
   6   4 -10    4.61    0.25 
   6   4 -10    4.69    0.38 
  -6  -4  10    3.86    0.41 
  -6  -4  10    4.85    0.24 
   5   4 -10   28.03    1.46 
   5   4 -10   27.38    2.12 
  -5  -4  10   26.99    1.38 
  -5  -4  10   29.62    1.37 
   4   4 -10   14.60    1.04 
   4   4 -10   13.11    0.70 
  -4  -4  10   12.78    0.66 
  -4  -4  10   12.54    0.66 
   3   4 -10   27.41    1.42 
   3   4 -10   26.94    2.08 
  -3  -4  10   27.44    1.34 
   2   4 -10   16.11    0.83 
   2   4 -10   14.40    1.22 
  -2  -4  10   16.44    0.78 
   1   4 -10    9.55    0.52 
  -1  -4  10    9.49    0.48 
   0   4 -10    9.94    0.54 
   0  -4  10   10.21    0.51 
  -1   4 -10   17.35    1.31 
  -1   4 -10   17.02    0.90 
   1  -4  10   17.39    0.85 
  -2   4 -10   35.38    2.64 
   2  -4  10   35.78    1.74 
   7   3 -10    3.53    0.19 
  -7  -3  10    3.70    0.19 
  -7  -3  10    3.74    0.20 
  -7  -3  10    3.33    0.33 
   6   3 -10    3.74    0.23 
   6   3 -10    4.24    0.22 
  -6  -3  10    3.61    0.38 
  -6  -3  10    4.17    0.21 
   5   3 -10    0.01    0.09 
   5   3 -10    0.02    0.04 
   5   3 -10    0.02    0.05 
  -5  -3  10    0.12    0.11 
  -5  -3  10    0.06    0.04 
   4   3 -10   28.24    1.44 
   4   3 -10   28.14    2.10 
  -4  -3  10   28.07    1.36 
  -4  -3  10   27.01    1.49 
  -4  -3  10   26.51    1.35 
   3   3 -10  177.48    8.92 
   3   3 -10  183.84   12.89 
  -3  -3  10  165.93    8.43 
  -3  -3  10  168.27    8.41 
  -3  -3  10  171.00    9.14 
   2   3 -10   11.54    0.90 
   2   3 -10   11.29    0.61 
  -2  -3  10   10.79    0.57 
  -2  -3  10   11.83    0.64 
   1   3 -10   89.65    4.44 
   1   3 -10   82.60    6.41 
  -1  -3  10   84.88    4.18 
  -1  -3  10   86.51    4.55 
   0   3 -10    0.06    0.06 
   0  -3  10    0.08    0.04 
   0  -3  10    0.12    0.06 
  -1   3 -10    9.49    0.74 
  -1   3 -10    8.97    0.51 
   1  -3  10    9.33    0.47 
  -2   3 -10    5.13    0.45 
  -2   3 -10    5.52    0.30 
   2  -3  10    5.03    0.28 
  -3   3 -10    7.37    0.41 
  -3   3 -10    7.58    0.61 
   3  -3  10    8.01    0.39 
   7   2 -10   20.54    1.03 
  -7  -2  10   20.62    1.01 
  -7  -2  10   20.77    1.07 
   6   2 -10   16.79    0.82 
  -6  -2  10   15.23    1.36 
  -6  -2  10   16.66    0.81 
  -6  -2  10   16.04    0.85 
   5   2 -10    3.54    0.21 
   5   2 -10    3.69    0.33 
  -5  -2  10    3.42    0.21 
  -5  -2  10    3.69    0.36 
  -5  -2  10    3.43    0.20 
   4   2 -10   27.27    1.97 
   4   2 -10   24.17    1.35 
   4   2 -10   25.73    1.30 
  -4  -2  10   25.56    1.39 
  -4  -2  10   26.27    1.27 
   3   2 -10    0.27    0.06 
   3   2 -10    0.30    0.06 
  -3  -2  10    0.18    0.06 
  -3  -2  10    0.32    0.05 
  -3  -2  10    0.27    0.04 
   2   2 -10   23.47    1.25 
   2   2 -10   23.95    1.28 
   2   2 -10   23.18    1.81 
  -2  -2  10   25.40    1.29 
  -2  -2  10   23.27    1.17 
  -2  -2  10   23.42    1.17 
   1   2 -10   39.02    1.96 
   1   2 -10   35.91    2.84 
   1   2 -10   36.21    2.01 
  -1  -2  10   41.36    2.02 
  -1  -2  10   38.68    1.85 
  -1  -2  10   35.29    1.85 
   0   2 -10   84.53    4.32 
   0   2 -10   82.29    4.22 
   0  -2  10   83.70    3.98 
   0  -2  10   77.83    4.57 
   0  -2  10   80.12    4.33 
  -1   2 -10   22.71    1.21 
  -1   2 -10   21.47    1.68 
  -1   2 -10   23.52    1.17 
   1  -2  10   20.65    1.27 
   1  -2  10   22.77    1.10 
  -2   2 -10    3.73    0.35 
  -2   2 -10    3.81    0.23 
  -2   2 -10    3.60    0.26 
   2  -2  10    3.65    0.21 
  -3   2 -10    3.24    0.31 
  -3   2 -10    3.08    0.20 
   3  -2  10    3.09    0.18 
  -4   2 -10    0.26    0.05 
  -4   2 -10    0.18    0.11 
   4  -2  10    0.30    0.09 
   4  -2  10    0.24    0.04 
   7   1 -10    1.52    0.10 
  -7  -1  10    1.57    0.10 
  -7  -1  10    1.41    0.18 
  -7  -1  10    1.57    0.10 
   6   1 -10    0.57    0.07 
  -6  -1  10    0.71    0.14 
  -6  -1  10    0.65    0.06 
  -6  -1  10    0.64    0.07 
  -6  -1  10    0.60    0.06 
   5   1 -10    8.93    0.46 
   5   1 -10    8.95    0.48 
   5   1 -10    8.79    0.52 
  -5  -1  10    9.99    0.80 
  -5  -1  10    9.01    0.46 
  -5  -1  10    8.85    0.49 
   4   1 -10    8.33    0.45 
   4   1 -10    8.54    0.47 
   4   1 -10    8.80    0.51 
  -4  -1  10   10.18    0.79 
  -4  -1  10    8.88    0.45 
  -4  -1  10    8.50    0.48 
   3   1 -10  118.41    5.99 
   3   1 -10  110.73    5.64 
  -3  -1  10  103.39    5.85 
  -3  -1  10  112.92    5.53 
  -3  -1  10  122.44    6.01 
   2   1 -10   65.87    3.39 
  -2  -1  10   60.86    3.13 
  -2  -1  10   65.62    3.40 
   1   1 -10   22.77    1.23 
  -1  -1  10   22.71    1.23 
   0   1 -10   19.00    2.21 
   0   1 -10   25.96    1.24 
   0  -1  10   24.05    1.23 
   0  -1  10   21.43    1.25 
  -1   1 -10   26.21    1.32 
  -1   1 -10   24.31    1.27 
   1  -1  10   23.80    1.19 
   1  -1  10   22.93    1.31 
   1  -1  10   24.23    1.39 
  -2   1 -10  239.03   12.26 
  -2   1 -10  251.47   12.53 
   2  -1  10  231.75   11.55 
   2  -1  10  230.71   13.27 
  -3   1 -10   18.90    0.98 
  -3   1 -10   18.43    1.01 
  -3   1 -10   18.09    1.40 
   3  -1  10   17.74    0.91 
  -4   1 -10    0.00    0.13 
  -4   1 -10    0.08    0.06 
   4  -1  10    0.05    0.09 
   4  -1  10    0.09    0.04 
  -5   1 -10    5.02    0.44 
  -5   1 -10    5.42    0.30 
   5  -1  10    5.36    0.27 
   7   0 -10    0.20    0.04 
   7   0 -10    0.15    0.03 
  -7   0  10    0.26    0.04 
  -7   0  10    0.18    0.03 
  -7   0  10    0.22    0.09 
   6   0 -10    1.18    0.10 
   6   0 -10    1.34    0.10 
  -6   0  10    1.28    0.10 
  -6   0  10    1.35    0.17 
  -6   0  10    1.33    0.09 
  -6   0  10    1.31    0.18 
   5   0 -10   18.45    0.88 
   5   0 -10   16.79    0.90 
  -5   0  10   16.49    0.87 
  -5   0  10   16.18    1.42 
  -5   0  10   18.25    0.93 
  -5   0  10   17.93    1.48 
  -5   0  10   19.20    0.93 
   4   0 -10    0.20    0.07 
   4   0 -10    0.21    0.05 
  -4   0  10    0.23    0.04 
  -4   0  10    0.25    0.04 
  -4   0  10    0.22    0.04 
  -4   0  10    0.31    0.12 
   3   0 -10    5.45    0.32 
   3   0 -10    4.99    0.27 
  -3   0  10    4.90    0.28 
  -3   0  10    5.43    0.47 
  -3   0  10    4.83    0.27 
  -3   0  10    4.98    0.30 
   2   0 -10   29.46    1.54 
   2   0 -10   26.91    1.58 
  -2   0  10   29.75    1.55 
   1   0 -10   19.42    1.01 
   1   0 -10   17.05    1.03 
  -1   0  10   19.01    1.01 
   0   0 -10    5.14    0.31 
   0   0 -10    4.81    0.32 
   0   0  10    5.28    0.30 
  -1   0 -10   22.65    1.15 
   1   0  10   20.71    1.20 
   1   0  10   19.99    1.14 
  -2   0 -10   16.00    0.84 
  -2   0 -10   15.49    0.81 
   2   0  10   14.51    0.76 
   2   0  10   14.93    0.75 
   2   0  10   14.90    0.83 
  -3   0 -10    0.18    0.07 
  -3   0 -10    0.03    0.08 
   3   0  10    0.30    0.07 
   3   0  10    0.16    0.04 
  -4   0 -10   47.53    2.40 
  -4   0 -10   47.75    2.46 
   4   0  10   43.68    3.35 
   4   0  10   45.15    2.25 
  -5   0 -10   10.72    0.57 
  -5   0 -10    9.88    0.82 
   5   0  10   10.68    0.52 
  -6   0 -10    0.27    0.05 
  -6   1  10   19.64    1.04 
  -6   1  10   19.77    1.05 
  -6   1  10   20.86    1.67 
   5  -1 -10    0.41    0.06 
  -5   1  10    0.76    0.14 
  -5   1  10    0.56    0.06 
  -5   1  10    0.57    0.12 
  -5   1  10    0.59    0.06 
   4  -1 -10    2.89    0.18 
   4  -1 -10    3.18    0.22 
  -4   1  10    3.53    0.31 
  -4   1  10    3.86    0.33 
  -4   1  10    2.97    0.19 
  -4   1  10    3.06    0.19 
  -4   1  10    3.01    0.21 
   3  -1 -10  162.20    8.51 
   3  -1 -10  159.06    7.86 
  -3   1  10  169.10   13.11 
  -3   1  10  158.94    8.37 
  -3   1  10  165.56    8.32 
  -3   1  10  155.88    8.69 
   2  -1 -10   49.80    2.61 
   2  -1 -10   45.89    2.64 
  -2   1  10   49.55    2.65 
  -2   1  10   50.83    2.61 
   1  -1 -10    0.07    0.05 
   1  -1 -10    0.01    0.05 
  -1   1  10    0.10    0.04 
  -1   1  10    0.04    0.04 
   0  -1 -10    3.97    0.26 
   0  -1 -10    3.93    0.25 
   0   1  10    4.49    0.25 
   0   1  10    3.88    0.25 
  -1  -1 -10    0.02    0.05 
  -1  -1 -10    0.05    0.05 
   1   1  10    0.08    0.05 
  -2  -1 -10    1.29    0.13 
  -2  -1 -10    1.10    0.12 
   2   1  10    1.28    0.11 
   2   1  10    1.24    0.11 
  -3  -1 -10   52.60    2.71 
  -3  -1 -10   48.15    2.48 
   3   1  10   51.80    2.86 
   3   1  10   55.45    3.69 
   3   1  10   47.89    2.63 
   3   1  10   48.62    2.49 
  -4  -1 -10    2.65    0.21 
  -4  -1 -10    2.23    0.18 
   4   1  10    2.67    0.20 
  -5  -1 -10    0.39    0.08 
  -6  -1 -10   31.51    2.37 
  -6  -1 -10   33.18    1.66 
  -6  -1 -10   30.62    2.19 
  -6   2  10    4.60    0.46 
  -6   2  10    6.35    0.30 
  -6   2  10    5.55    0.48 
   5  -2 -10    4.30    0.23 
  -5   2  10    4.16    0.40 
  -5   2  10    4.51    0.24 
  -5   2  10    3.93    0.38 
  -5   2  10    4.31    0.23 
   4  -2 -10   62.38    2.97 
   4  -2 -10   61.47    3.23 
  -4   2  10   60.98    3.29 
  -4   2  10   57.64    4.96 
  -4   2  10   58.67    3.14 
  -4   2  10   63.32    3.16 
  -4   2  10   61.19    4.80 
   3  -2 -10    1.83    0.17 
   3  -2 -10    2.02    0.13 
  -3   2  10    2.34    0.24 
  -3   2  10    1.77    0.14 
  -3   2  10    1.80    0.13 
  -3   2  10    2.19    0.22 
  -3   2  10    2.47    0.16 
   2  -2 -10  116.96    6.16 
   2  -2 -10  111.06    6.22 
  -2   2  10  125.79    9.49 
  -2   2  10  119.24    6.29 
  -2   2  10  111.57    6.05 
   1  -2 -10  176.34    8.78 
   1  -2 -10  169.51    8.85 
  -1   2  10  168.87    8.97 
  -1   2  10  153.74    8.81 
   0  -2 -10    5.85    0.34 
   0  -2 -10    5.61    0.35 
   0   2  10    5.75    0.34 
   0   2  10    6.32    0.35 
  -1  -2 -10   14.24    0.76 
  -1  -2 -10   13.06    0.77 
   1   2  10   14.05    0.76 
  -2  -2 -10    0.21    0.06 
  -2  -2 -10    0.34    0.07 
   2   2  10    0.47    0.07 
  -3  -2 -10    0.66    0.10 
  -3  -2 -10    0.56    0.06 
  -3  -2 -10    0.57    0.09 
   3   2  10    0.59    0.07 
   3   2  10    0.54    0.08 
   3   2  10    0.70    0.09 
   3   2  10    0.91    0.14 
  -4  -2 -10   58.54    2.83 
  -4  -2 -10   58.38    3.09 
   4   2  10   56.11    3.01 
   4   2  10   59.09    3.27 
  -5  -2 -10   35.30    1.89 
   5   2  10   34.77    1.83 
  -6  -2 -10    1.39    0.17 
   6   2  10    1.53    0.12 
  -7  -2 -10    0.79    0.11 
  -7  -2 -10    0.79    0.08 
   7   2  10    0.85    0.08 
   5  -3 -10   40.25    1.95 
  -5   3  10   37.08    3.27 
  -5   3  10   42.69    2.08 
   4  -3 -10    9.63    0.48 
  -4   3  10    9.12    0.79 
  -4   3  10    9.82    0.83 
  -4   3  10    9.55    0.52 
   3  -3 -10   12.70    0.69 
   3  -3 -10   11.94    0.61 
  -3   3  10   12.00    0.69 
  -3   3  10   12.16    0.66 
  -3   3  10   14.26    1.01 
  -3   3  10   10.32    1.04 
   2  -3 -10    0.09    0.07 
  -2   3  10    0.07    0.06 
  -2   3  10    0.08    0.03 
  -2   3  10    0.10    0.04 
  -2   3  10    0.07    0.09 
   1  -3 -10    6.58    0.38 
   1  -3 -10    6.02    0.39 
  -1   3  10    6.59    0.38 
   0  -3 -10    0.88    0.10 
   0  -3 -10    0.88    0.09 
   0  -3 -10    0.71    0.09 
   0   3  10    0.94    0.10 
   0   3  10    0.80    0.09 
  -1  -3 -10   27.22    1.51 
  -1  -3 -10   28.24    1.53 
   1   3  10   29.54    1.55 
   1   3  10   28.20    1.53 
  -2  -3 -10    1.53    0.13 
  -2  -3 -10    1.50    0.12 
   2   3  10    1.50    0.13 
  -3  -3 -10   20.59    0.97 
  -3  -3 -10   18.29    1.07 
   3   3  10   18.83    0.98 
   3   3  10   18.48    1.03 
   3   3  10   21.24    1.46 
  -4  -3 -10   21.20    1.03 
   4   3  10   18.88    1.09 
   4   3  10   21.93    1.20 
  -5  -3 -10    0.90    0.09 
   5   3  10    0.94    0.11 
   5   3  10    0.74    0.09 
  -6  -3 -10    0.12    0.04 
  -6  -3 -10    0.10    0.11 
   6   3  10    0.06    0.05 
  -7  -3 -10    0.27    0.10 
  -4   4  10    1.26    0.10 
  -4   4  10    1.48    0.17 
  -4   4  10    1.42    0.16 
  -3   4  10   31.25    2.55 
  -3   4  10   30.03    2.47 
  -3   4  10   31.78    1.62 
  -3   4  10   30.94    1.70 
  -2   4  10   28.76    2.24 
  -2   4  10   28.21    2.06 
  -2   4  10   30.82    2.32 
  -2   4  10   27.46    1.54 
  -2   4  10   25.11    1.47 
  -1   4  10  185.10   14.03 
  -1   4  10  198.28   10.47 
  -1   4  10  201.66   15.79 
  -1   4  10  194.92   10.09 
   0  -4 -10    5.16    0.34 
   0   4  10    6.00    0.32 
   0   4  10    5.30    0.34 
   0   4  10    5.59    0.34 
  -1  -4 -10  261.01   13.92 
   1   4  10  254.54   14.14 
   1   4  10  275.34   18.95 
  -2  -4 -10  177.63    9.66 
   2   4  10  183.14   13.16 
   2   4  10  186.81    9.46 
   2   4  10  183.67   10.05 
  -3  -4 -10   22.05    1.05 
   3   4  10   20.65    1.11 
   3   4  10   20.46    1.57 
   3   4  10   22.51    1.12 
   3   4  10   20.47    1.06 
   3   4  10   20.94    1.20 
  -4  -4 -10    0.27    0.06 
   4   4  10    0.22    0.05 
   4   4  10    0.20    0.07 
   4   4  10    0.28    0.06 
  -5  -4 -10   20.09    0.98 
   5   4  10   20.22    1.04 
   5   4  10   20.02    1.04 
   5   4  10   18.07    1.13 
  -6  -4 -10   10.48    0.51 
   6   4  10    9.59    0.54 
   6   4  10    9.79    0.54 
  -7  -4 -10    8.36    0.71 
   7   4  10   11.34    0.53 
  -4   5  10   13.15    1.09 
  -3   5  10    1.60    0.11 
  -3   5  10    1.58    0.19 
  -3   5  10    1.67    0.18 
  -2   5  10   28.65    1.52 
  -2   5  10   30.41    2.39 
  -2   5  10   26.48    2.31 
  -2   5  10   30.40    2.13 
  -1   5  10   13.16    0.69 
  -1   5  10   10.92    0.93 
  -1   5  10   13.21    1.04 
  -1   5  10   12.13    0.66 
  -1   5  10   11.43    1.00 
   0   5  10    0.36    0.07 
   0   5  10    0.41    0.06 
   0   5  10    0.41    0.11 
   0   5  10    0.48    0.11 
   1   5  10   65.64    3.40 
   1   5  10   61.67    3.48 
   1   5  10   68.61    3.28 
   1   5  10   55.73    4.56 
   2   5  10    1.92    0.21 
   2   5  10    1.99    0.15 
   2   5  10    2.05    0.17 
   3   5  10  240.45   19.25 
   3   5  10  285.77   14.71 
   3   5  10  277.60   13.86 
  -4  -5 -10  142.88    7.59 
   4   5  10  169.58    8.10 
   4   5  10  152.14    8.05 
   4   5  10  160.88    8.60 
  -5  -5 -10    1.03    0.10 
   5   5  10    1.19    0.11 
   5   5  10    1.16    0.10 
   5   5  10    1.23    0.12 
  -6  -5 -10    7.11    0.37 
   6   5  10    7.22    0.40 
   6   5  10    7.20    0.40 
  -7  -5 -10    1.25    0.16 
  -7  -5 -10    1.61    0.10 
   7   5  10    1.44    0.11 
  -3   6  10    5.65    0.49 
  -2   6  10    1.85    0.23 
  -2   6  10    2.24    0.21 
  -2   6  10    2.44    0.22 
  -1   6  10    2.48    0.23 
  -1   6  10    2.36    0.15 
  -1   6  10    2.09    0.23 
  -1   6  10    2.32    0.25 
   0   6  10   24.00    1.81 
   0   6  10   21.69    1.75 
   0   6  10   20.95    1.67 
   0   6  10   22.95    1.67 
   0   6  10   22.57    1.19 
   0   6  10   23.16    1.87 
   1   6  10    7.56    0.63 
   1   6  10    7.76    0.60 
   1   6  10    7.03    0.40 
   1   6  10    6.14    0.55 
   1   6  10    7.11    0.57 
   2   6  10   42.25    2.93 
   2   6  10   42.04    3.07 
   2   6  10   38.28    2.10 
   2   6  10   37.92    2.23 
   3   6  10    1.20    0.12 
   3   6  10    1.39    0.17 
   3   6  10    1.25    0.17 
   3   6  10    1.37    0.14 
   3   6  10    1.37    0.15 
   4   6  10   20.74    1.12 
   4   6  10   18.90    1.47 
   4   6  10   19.52    1.54 
   4   6  10   19.88    1.05 
  -5  -6 -10   91.72    4.64 
   5   6  10   92.01    6.93 
   5   6  10  103.32    4.95 
   5   6  10   86.55    7.20 
   5   6  10  102.77    5.25 
  -6  -6 -10    6.21    0.37 
   6   6  10    7.96    0.56 
   6   6  10    7.77    0.40 
   6   6  10    6.82    0.42 
   6   6  10    7.14    0.38 
  -7  -6 -10    1.84    0.11 
   7   6  10    1.71    0.11 
   7   6  10    1.94    0.12 
   7   6  10    1.84    0.17 
  -1   7  10    6.90    0.51 
  -1   7  10    6.83    0.55 
  -1   7  10    6.12    0.57 
   0   7  10   14.11    1.16 
   0   7  10   13.52    1.12 
   1   7  10    2.97    0.27 
   1   7  10    2.61    0.17 
   1   7  10    2.95    0.27 
   1   7  10    2.64    0.25 
   1   7  10    2.32    0.25 
   1   7  10    2.68    0.24 
   2   7  10   12.01    0.64 
   2   7  10   12.00    0.94 
   2   7  10    9.74    0.84 
   2   7  10   10.92    0.60 
   2   7  10   12.17    0.89 
   2   7  10    9.79    0.84 
   3   7  10    2.23    0.17 
   3   7  10    2.56    0.25 
   3   7  10    2.40    0.22 
   3   7  10    2.11    0.16 
   3   7  10    2.56    0.23 
   4   7  10   15.84    1.26 
   4   7  10   17.48    1.33 
   4   7  10   18.14    0.97 
   4   7  10   16.55    0.91 
   5   7  10    4.00    0.24 
   5   7  10    4.29    0.26 
   5   7  10    3.98    0.33 
  -6  -7 -10   12.87    0.66 
   6   7  10   13.62    0.71 
   6   7  10   13.96    0.99 
   6   7  10   12.52    0.75 
  -7  -7 -10    8.39    0.40 
   7   7  10    8.14    0.43 
   7   7  10    7.61    0.60 
   0   8  10    0.60    0.09 
   0   8  10    0.62    0.10 
   1   8  10    6.84    0.59 
   1   8  10    6.97    0.53 
   2   8  10    1.47    0.14 
   2   8  10    1.45    0.15 
   3   8  10    3.53    0.29 
   3   8  10    3.67    0.22 
   3   8  10    3.38    0.29 
   4   8  10    2.32    0.15 
   4   8  10    2.72    0.22 
   4   8  10    2.47    0.17 
   5   8  10    2.02    0.18 
   5   8  10    1.86    0.13 
   5   8  10    1.95    0.14 
   6   8  10    0.40    0.05 
   6   8  10    0.45    0.07 
   6   8  10    0.47    0.05 
   5   5 -11    9.70    0.51 
   4   5 -11    0.95    0.08 
   4   5 -11    0.89    0.13 
  -4  -5  11    0.98    0.07 
   3   5 -11   18.85    0.98 
   3   5 -11   18.04    1.43 
  -3  -5  11   19.64    0.93 
   2   5 -11    3.29    0.30 
  -2  -5  11    3.86    0.19 
  -1  -5  11   22.48    1.10 
  -6  -4  11    0.88    0.06 
   5   4 -11    0.60    0.07 
   5   4 -11    0.51    0.12 
  -5  -4  11    0.61    0.06 
   4   4 -11   82.83    4.22 
   4   4 -11   86.48    6.11 
  -4  -4  11   82.44    3.98 
  -4  -4  11   75.93    3.99 
   3   4 -11    0.13    0.05 
   3   4 -11    0.12    0.10 
  -3  -4  11    0.10    0.03 
   2   4 -11   18.63    0.95 
   2   4 -11   16.47    1.38 
  -2  -4  11   18.73    0.89 
   1   4 -11    2.95    0.18 
  -1  -4  11    2.89    0.17 
   0   4 -11    6.17    0.35 
   0  -4  11    6.47    0.33 
  -1   4 -11    3.08    0.30 
   1  -4  11    3.81    0.19 
   6   3 -11    5.69    0.31 
  -6  -3  11    6.37    0.29 
  -6  -3  11    4.67    0.49 
   5   3 -11    0.20    0.10 
   5   3 -11    0.26    0.05 
  -5  -3  11    0.20    0.04 
   4   3 -11   31.41    2.36 
   4   3 -11   30.46    1.62 
  -4  -3  11   31.24    1.53 
  -4  -3  11   31.21    1.52 
   3   3 -11    0.13    0.11 
   3   3 -11    0.21    0.06 
  -3  -3  11    0.24    0.04 
  -3  -3  11    0.19    0.04 
   2   3 -11  133.53    9.16 
   2   3 -11  123.31    6.34 
  -2  -3  11  116.08    6.50 
  -2  -3  11  119.03    5.97 
   1   3 -11    3.93    0.24 
   1   3 -11    4.08    0.36 
  -1  -3  11    3.96    0.22 
   0   3 -11   85.10    4.41 
   0  -3  11   85.55    4.15 
  -1   3 -11   33.83    1.73 
  -1   3 -11   31.92    2.48 
   1  -3  11   34.07    1.63 
  -2   3 -11   39.19    2.01 
  -2   3 -11   37.74    2.89 
   2  -3  11   39.60    1.90 
  -3   3 -11    0.87    0.13 
   3  -3  11    0.85    0.06 
   3  -3  11    0.84    0.12 
   7   2 -11    1.11    0.07 
   6   2 -11    3.94    0.20 
  -6  -2  11    3.22    0.34 
  -6  -2  11    3.50    0.20 
  -6  -2  11    3.71    0.19 
   5   2 -11    1.22    0.17 
   5   2 -11    1.39    0.11 
  -5  -2  11    1.20    0.09 
  -5  -2  11    1.22    0.17 
  -5  -2  11    1.24    0.09 
   4   2 -11   22.12    1.58 
   4   2 -11   19.58    1.08 
   4   2 -11   21.92    1.04 
  -4  -2  11   17.64    1.12 
  -4  -2  11   21.68    1.02 
   3   2 -11   73.79    3.63 
   3   2 -11   76.81    5.46 
   3   2 -11   67.32    3.77 
  -3  -2  11   74.85    3.56 
  -3  -2  11   72.03    3.87 
   2   2 -11  139.89    7.03 
   2   2 -11  129.61   10.16 
  -2  -2  11  137.57    7.21 
  -2  -2  11  136.10    6.62 
  -2  -2  11  139.09    6.64 
   1   2 -11   50.06    2.53 
   1   2 -11   45.79    3.66 
   1   2 -11   48.52    2.59 
  -1  -2  11   46.43    2.39 
  -1  -2  11   50.87    3.55 
  -1  -2  11   47.84    2.38 
  -1  -2  11   51.81    2.60 
   0   2 -11   11.17    0.58 
   0   2 -11    9.62    0.60 
   0  -2  11   10.71    0.60 
   0  -2  11   11.17    0.54 
  -1   2 -11    7.52    0.47 
  -1   2 -11    8.34    0.44 
  -1   2 -11    7.70    0.64 
   1  -2  11    8.18    0.41 
  -2   2 -11   36.66    2.79 
  -2   2 -11   38.40    1.95 
   2  -2  11   37.13    1.83 
  -3   2 -11   10.55    0.92 
  -3   2 -11   12.42    0.64 
   3  -2  11   12.56    0.59 
  -4   2 -11    8.19    0.42 
  -4   2 -11    7.96    0.62 
   4  -2  11    8.23    0.40 
   4  -2  11    7.39    0.60 
   7   1 -11    1.16    0.08 
  -7  -1  11    1.15    0.07 
   6   1 -11    6.89    0.36 
  -6  -1  11    6.73    0.60 
  -6  -1  11    7.02    0.37 
  -6  -1  11    6.80    0.35 
   5   1 -11    1.40    0.17 
   5   1 -11    1.39    0.11 
  -5  -1  11    1.39    0.19 
  -5  -1  11    1.53    0.10 
  -5  -1  11    1.38    0.10 
   4   1 -11    2.46    0.16 
   4   1 -11    2.67    0.17 
   4   1 -11    2.61    0.19 
  -4  -1  11    2.60    0.16 
  -4  -1  11    2.63    0.16 
  -4  -1  11    2.86    0.29 
   3   1 -11   17.74    0.95 
   3   1 -11   18.95    0.97 
   3   1 -11   20.41    1.05 
  -3  -1  11   18.67    1.01 
  -3  -1  11   19.28    1.05 
  -3  -1  11   20.11    0.95 
   2   1 -11   78.95    4.01 
   2   1 -11   87.36    4.26 
  -2  -1  11   78.89    3.93 
  -2  -1  11   81.62    4.27 
  -2  -1  11   75.97    4.16 
   1   1 -11   56.86    2.80 
   1   1 -11   48.83    2.72 
  -1  -1  11   50.06    2.57 
  -1  -1  11   56.73    2.80 
  -1  -1  11   49.11    2.56 
  -1  -1  11   53.98    3.82 
   0   1 -11  190.49    9.14 
   0   1 -11  169.04    8.94 
   0  -1  11  164.54    8.42 
   0  -1  11  177.42    9.16 
   0  -1  11  166.79    8.45 
  -1   1 -11   74.25    3.72 
  -1   1 -11   68.95    3.62 
   1  -1  11   71.79    3.72 
   1  -1  11   71.59    3.41 
   1  -1  11   63.71    3.93 
  -2   1 -11    2.40    0.20 
  -2   1 -11    2.61    0.18 
   2  -1  11    2.32    0.15 
  -3   1 -11    4.68    0.42 
  -3   1 -11    4.83    0.28 
   3  -1  11    4.71    0.25 
  -4   1 -11    2.10    0.24 
  -4   1 -11    2.52    0.16 
   4  -1  11    2.47    0.14 
   4  -1  11    2.14    0.22 
  -5   1 -11    1.75    0.11 
  -5   1 -11    1.69    0.18 
   6   0 -11    0.62    0.07 
   6   0 -11    0.67    0.07 
  -6   0  11    0.60    0.06 
  -6   0  11    0.55    0.06 
  -6   0  11    0.52    0.10 
  -6   0  11    0.49    0.12 
   5   0 -11    6.07    0.31 
   5   0 -11    5.43    0.32 
  -5   0  11    5.59    0.31 
  -5   0  11    5.87    0.33 
  -5   0  11    6.50    0.54 
  -5   0  11    6.14    0.33 
   4   0 -11    2.98    0.21 
   4   0 -11    2.86    0.19 
   4   0 -11    3.22    0.18 
  -4   0  11    3.30    0.32 
  -4   0  11    2.96    0.18 
  -4   0  11    3.28    0.19 
   3   0 -11   10.41    0.52 
   3   0 -11   11.42    0.59 
   3   0 -11    9.78    0.54 
  -3   0  11   10.23    0.58 
  -3   0  11    9.97    0.52 
  -3   0  11   10.22    0.55 
   2   0 -11    7.29    0.41 
   2   0 -11    7.66    0.40 
   2   0 -11    8.52    0.46 
  -2   0  11    7.78    0.40 
  -2   0  11    8.21    0.45 
  -2   0  11    7.65    0.43 
   1   0 -11    0.00    0.04 
   1   0 -11    0.12    0.05 
   1   0 -11    0.02    0.06 
   1   0 -11    0.05    0.06 
  -1   0  11    0.09    0.09 
  -1   0  11    0.04    0.04 
  -1   0  11    0.10    0.05 
  -1   0  11    0.01    0.04 
   0   0 -11    5.48    0.30 
   0   0 -11    5.87    0.35 
   0   0  11    6.00    0.47 
   0   0  11    5.27    0.30 
   0   0  11    5.53    0.33 
  -1   0 -11    0.17    0.07 
   1   0  11    0.25    0.05 
   1   0  11    0.27    0.05 
   1   0  11    0.35    0.11 
   1   0  11    0.16    0.06 
  -2   0 -11   20.11    1.01 
  -2   0 -11   18.01    0.97 
   2   0  11   19.12    1.37 
   2   0  11   18.00    0.99 
   2   0  11   17.16    1.05 
   2   0  11   17.47    0.91 
   2   0  11   17.63    0.90 
  -3   0 -11   17.92    0.94 
  -3   0 -11   18.23    0.98 
   3   0  11   15.84    1.02 
   3   0  11   17.23    0.87 
   3   0  11   18.98    1.33 
  -4   0 -11    6.43    0.34 
   4   0  11    5.14    0.47 
  -5   0 -11   10.99    0.89 
  -5   0 -11   12.09    0.62 
   6  -1 -11   24.20    1.17 
  -6   1  11   24.23    1.24 
  -6   1  11   26.12    1.25 
  -6   1  11   21.07    1.96 
   5  -1 -11    9.94    0.51 
  -5   1  11   10.48    0.54 
  -5   1  11   10.50    0.87 
  -5   1  11    9.78    0.83 
  -5   1  11   10.01    0.54 
   4  -1 -11    6.61    0.41 
   4  -1 -11    7.06    0.36 
  -4   1  11    6.99    0.38 
  -4   1  11    6.79    0.38 
  -4   1  11    7.00    0.62 
   3  -1 -11    6.22    0.32 
   3  -1 -11    6.18    0.36 
  -3   1  11    5.35    0.31 
  -3   1  11    5.70    0.33 
  -3   1  11    6.67    0.54 
  -3   1  11    5.56    0.35 
  -3   1  11    6.19    0.33 
   2  -1 -11   61.34    3.18 
   2  -1 -11   62.48    2.92 
  -2   1  11   56.85    2.93 
  -2   1  11   55.51    3.23 
  -2   1  11   63.73    3.19 
  -2   1  11   59.51    3.09 
   1  -1 -11   19.41    1.03 
   1  -1 -11   17.76    1.06 
  -1   1  11   18.12    1.04 
  -1   1  11   20.46    1.04 
   0  -1 -11    8.29    0.52 
   0  -1 -11    9.02    0.51 
   0   1  11    9.44    0.51 
  -1  -1 -11   12.19    0.69 
  -1  -1 -11   11.26    0.70 
   1   1  11   13.02    0.70 
   1   1  11   12.53    0.63 
   1   1  11   12.81    0.95 
  -2  -1 -11   34.19    1.74 
  -2  -1 -11   34.66    1.90 
   2   1  11   35.02    1.85 
   2   1  11   34.70    1.75 
   2   1  11   35.59    1.90 
   2   1  11   38.56    2.60 
  -3  -1 -11    2.61    0.20 
   3   1  11    2.15    0.15 
   3   1  11    2.36    0.25 
   3   1  11    2.26    0.18 
   3   1  11    2.47    0.17 
  -4  -1 -11   14.78    0.77 
  -4  -1 -11   15.01    0.80 
   4   1  11   13.44    1.07 
   4   1  11   13.94    0.76 
  -5  -1 -11    7.83    0.44 
  -6  -1 -11    0.19    0.11 
  -6  -1 -11    0.18    0.05 
   6  -2 -11    3.93    0.20 
  -6   2  11    3.89    0.22 
   5  -2 -11    1.50    0.11 
  -5   2  11    1.59    0.11 
  -5   2  11    1.55    0.17 
  -5   2  11    1.96    0.20 
   4  -2 -11   54.79    3.00 
   4  -2 -11   59.14    2.76 
  -4   2  11   58.38    2.92 
  -4   2  11   52.91    4.46 
  -4   2  11   60.71    2.94 
  -4   2  11   53.23    4.61 
   3  -2 -11   20.40    1.06 
   3  -2 -11   21.44    1.17 
  -3   2  11   23.60    1.79 
  -3   2  11   20.14    1.12 
  -3   2  11   22.29    1.19 
  -3   2  11   20.85    1.13 
   2  -2 -11    6.11    0.32 
   2  -2 -11    6.06    0.37 
  -2   2  11    5.77    0.33 
  -2   2  11    6.01    0.34 
  -2   2  11    6.44    0.37 
   1  -2 -11    0.17    0.06 
   1  -2 -11    0.14    0.07 
   1  -2 -11    0.10    0.04 
  -1   2  11    0.22    0.04 
  -1   2  11    0.19    0.04 
  -1   2  11    0.15    0.04 
  -1   2  11    0.18    0.06 
  -1   2  11    0.12    0.05 
   0  -2 -11    3.66    0.23 
   0  -2 -11    3.53    0.25 
   0  -2 -11    3.44    0.25 
   0   2  11    3.54    0.23 
   0   2  11    4.21    0.24 
  -1  -2 -11    2.53    0.20 
  -1  -2 -11    2.68    0.20 
   1   2  11    3.51    0.28 
   1   2  11    2.94    0.20 
  -2  -2 -11   11.47    0.57 
  -2  -2 -11   10.40    0.63 
   2   2  11   11.60    0.64 
   2   2  11   11.74    0.58 
   2   2  11   11.27    0.61 
   2   2  11   11.21    0.86 
  -3  -2 -11   26.25    1.43 
  -3  -2 -11   25.41    1.30 
   3   2  11   28.04    1.95 
   3   2  11   26.93    1.31 
   3   2  11   25.49    1.43 
   3   2  11   26.44    1.39 
  -4  -2 -11   10.33    0.53 
  -4  -2 -11   10.86    0.60 
   4   2  11    9.98    0.63 
   4   2  11   10.76    0.57 
   5   2  11    6.21    0.35 
   6   2  11    2.23    0.15 
   5  -3 -11    5.19    0.25 
  -5   3  11    4.07    0.41 
  -5   3  11    5.00    0.27 
  -5   3  11    5.09    0.43 
   4  -3 -11    0.12    0.04 
  -4   3  11    0.15    0.04 
  -4   3  11    0.19    0.09 
   3  -3 -11    3.31    0.20 
   3  -3 -11    3.60    0.24 
  -3   3  11    3.80    0.35 
  -3   3  11    3.23    0.31 
  -3   3  11    3.44    0.21 
  -3   3  11    3.51    0.23 
   2  -3 -11  345.46   17.38 
   2  -3 -11  363.31   18.81 
  -2   3  11  393.14   28.99 
  -2   3  11  347.60   18.52 
  -2   3  11  366.21   19.22 
  -2   3  11  335.06   18.41 
   1  -3 -11    0.11    0.06 
   1  -3 -11    0.15    0.04 
  -1   3  11    0.14    0.04 
  -1   3  11    0.13    0.10 
  -1   3  11    0.12    0.04 
  -1   3  11    0.15    0.06 
   0  -3 -11   44.03    2.53 
   0  -3 -11   44.82    2.57 
   0  -3 -11   47.55    2.33 
   0   3  11   48.97    2.47 
   0   3  11   52.74    3.49 
   0   3  11   50.38    2.59 
   0   3  11   46.39    2.49 
   0   3  11   47.39    2.55 
  -1  -3 -11   17.34    1.06 
  -1  -3 -11   18.66    1.08 
   1   3  11   20.64    1.08 
   1   3  11   20.34    1.09 
   1   3  11   19.17    1.03 
   1   3  11   22.08    1.47 
   1   3  11   19.29    0.98 
  -2  -3 -11    2.12    0.16 
  -2  -3 -11    2.50    0.15 
   2   3  11    2.29    0.17 
   2   3  11    2.42    0.15 
   2   3  11    2.39    0.16 
   2   3  11    2.04    0.15 
   2   3  11    2.13    0.23 
  -3  -3 -11    2.73    0.16 
   3   3  11    2.32    0.25 
   3   3  11    2.69    0.17 
   3   3  11    2.70    0.20 
   3   3  11    2.47    0.17 
  -4  -3 -11   21.88    1.07 
   4   3  11   21.11    1.14 
  -5  -3 -11   11.56    0.58 
   5   3  11   11.13    0.62 
   6   3  11   37.79    1.97 
   7   3  11   37.92    1.96 
   4  -4 -11   11.39    0.56 
  -4   4  11   10.06    0.91 
  -4   4  11   10.99    0.60 
  -4   4  11   12.67    0.95 
  -3   4  11   11.97    0.64 
  -3   4  11   11.23    0.97 
  -3   4  11   12.57    1.01 
  -2   4  11    0.22    0.06 
  -2   4  11    0.13    0.09 
  -2   4  11    0.13    0.04 
  -1   4  11   23.08    2.09 
  -1   4  11   25.72    1.33 
  -1   4  11   26.05    1.39 
  -1   4  11   26.49    1.88 
   0   4  11  214.67   13.13 
   0   4  11  253.08   12.84 
   0   4  11  240.65   12.37 
   0   4  11  248.59   17.21 
   1   4  11   21.10    1.25 
   1   4  11   23.98    1.27 
   1   4  11   25.03    1.33 
   1   4  11   23.82    1.36 
   1   4  11   26.77    1.79 
  -2  -4 -11   33.87    1.63 
   2   4  11   33.67    2.45 
   2   4  11   32.00    1.73 
   2   4  11   32.91    1.86 
   2   4  11   32.57    1.64 
   2   4  11   34.57    1.74 
  -3  -4 -11   12.83    0.62 
   3   4  11   14.34    0.96 
   3   4  11   12.28    0.66 
   3   4  11   11.43    0.66 
   3   4  11   11.41    0.63 
   3   4  11   11.83    0.72 
  -4  -4 -11   12.83    0.59 
   4   4  11   10.50    0.62 
   4   4  11   11.02    0.67 
   4   4  11   11.49    0.62 
  -5  -4 -11    1.12    0.10 
   5   4  11    1.19    0.10 
   5   4  11    1.18    0.11 
  -6  -4 -11    0.34    0.05 
   6   4  11    0.39    0.06 
  -7  -4 -11    0.06    0.08 
   7   4  11    0.07    0.04 
  -3   5  11    3.69    0.33 
  -3   5  11    3.16    0.31 
  -3   5  11    3.56    0.20 
  -2   5  11    5.12    0.43 
  -2   5  11    4.39    0.27 
  -2   5  11    4.63    0.41 
  -2   5  11    4.63    0.39 
  -1   5  11   21.39    1.17 
  -1   5  11   19.66    1.75 
  -1   5  11   21.37    1.12 
  -1   5  11   22.14    1.57 
   0   5  11    4.21    0.39 
   0   5  11    4.42    0.41 
   0   5  11    4.63    0.26 
   0   5  11    4.30    0.27 
   1   5  11    8.70    0.61 
   1   5  11    7.12    0.44 
   1   5  11    7.63    0.42 
   1   5  11    6.59    0.45 
   2   5  11   55.16    3.72 
   2   5  11   47.81    2.83 
   2   5  11   50.27    2.66 
  -3  -5 -11   93.48    4.72 
   3   5  11   99.51    5.04 
   3   5  11   95.18    5.35 
   3   5  11   99.98    7.01 
  -4  -5 -11    0.53    0.07 
   4   5  11    0.46    0.07 
   4   5  11    0.28    0.07 
   4   5  11    0.44    0.06 
  -5  -5 -11    0.08    0.05 
   5   5  11    0.03    0.04 
   5   5  11    0.10    0.05 
  -6  -5 -11    2.92    0.16 
   6   5  11    2.62    0.17 
   6   5  11    2.81    0.17 
  -7  -5 -11    6.54    0.33 
   7   5  11    6.41    0.35 
  -2   6  11    3.87    0.31 
  -2   6  11    3.68    0.21 
  -1   6  11    0.92    0.12 
  -1   6  11    1.00    0.14 
  -1   6  11    0.97    0.14 
  -1   6  11    0.97    0.08 
   0   6  11    5.91    0.34 
   0   6  11    5.78    0.49 
   0   6  11    6.49    0.54 
   1   6  11    0.14    0.08 
   1   6  11    0.20    0.05 
   2   6  11    1.60    0.13 
   2   6  11    1.57    0.14 
   2   6  11    1.66    0.19 
   3   6  11   23.34    1.20 
   3   6  11   22.93    1.68 
   3   6  11   21.61    1.28 
  -4  -6 -11    4.48    0.27 
   4   6  11    5.71    0.30 
   4   6  11    5.25    0.33 
  -5  -6 -11   37.12    1.87 
   5   6  11   40.52    2.00 
   5   6  11   36.77    2.12 
  -6  -6 -11    0.19    0.04 
   6   6  11    0.12    0.04 
   6   6  11    0.14    0.04 
  -7  -6 -11    0.85    0.06 
  -7  -6 -11    0.59    0.11 
  -1   7  11   51.43    3.72 
  -1   7  11   51.56    4.19 
   0   7  11    0.84    0.12 
   0   7  11    0.65    0.07 
   0   7  11    0.71    0.11 
   1   7  11    0.00    0.07 
   1   7  11    0.02    0.06 
   1   7  11    0.04    0.04 
   1   7  11   -0.01    0.06 
   2   7  11   -0.02    0.06 
   2   7  11   -0.02    0.04 
   2   7  11    0.04    0.04 
   2   7  11    0.04    0.06 
   3   7  11    0.42    0.07 
   3   7  11    0.54    0.07 
   3   7  11    0.41    0.09 
   3   7  11    0.33    0.09 
   4   7  11    7.33    0.45 
   4   7  11    7.82    0.42 
   4   7  11    7.48    0.58 
  -5  -7 -11   24.28    1.28 
   5   7  11   25.90    1.46 
   5   7  11   25.47    1.91 
   5   7  11   28.64    1.37 
  -6  -7 -11   16.59    0.78 
   6   7  11   16.93    0.83 
   6   7  11   15.15    0.88 
   6   7  11   14.29    1.16 
   1   8  11   21.33    1.56 
   2   8  11    5.01    0.38 
   2   8  11    4.56    0.38 
   3   8  11    6.36    0.46 
   3   8  11    6.06    0.33 
   3   8  11    5.22    0.45 
   3   8  11    6.04    0.35 
   4   8  11    0.10    0.04 
   4   8  11    0.07    0.04 
   4   8  11    0.11    0.06 
   5   8  11    2.43    0.14 
   5   8  11    2.03    0.15 
   5   8  11    2.28    0.19 
   5   4 -12    4.76    0.25 
   5   4 -12    4.13    0.37 
  -5  -4  12    4.60    0.23 
   4   4 -12    8.43    0.40 
   4   4 -12    6.43    0.59 
   3   4 -12   30.04    2.30 
   3   4 -12   31.29    1.58 
  -3  -4  12   30.10    1.49 
   2   4 -12   10.95    0.59 
   2   4 -12   11.08    0.86 
  -2  -4  12   10.96    0.55 
   1   4 -12   25.58    1.38 
  -1  -4  12   27.54    1.30 
   0   4 -12   21.51    1.13 
   0  -4  12   20.93    1.59 
   0  -4  12   22.96    1.07 
  -6  -3  12   10.05    0.50 
   5   3 -12    6.97    0.58 
  -5  -3  12    7.49    0.37 
   4   3 -12    1.96    0.22 
   4   3 -12    2.00    0.13 
  -4  -3  12    2.01    0.12 
   3   3 -12    2.96    0.29 
   3   3 -12    3.00    0.19 
  -3  -3  12    3.09    0.17 
  -3  -3  12    2.87    0.17 
   2   3 -12    3.63    0.23 
   2   3 -12    3.89    0.35 
  -2  -3  12    3.80    0.20 
   1   3 -12    0.14    0.06 
  -1  -3  12    0.08    0.09 
  -1  -3  12    0.06    0.03 
   0   3 -12    0.61    0.08 
   0  -3  12    0.80    0.07 
   0  -3  12    0.76    0.14 
  -1   3 -12    0.66    0.08 
   1  -3  12    0.53    0.12 
   1  -3  12    0.58    0.06 
  -2   3 -12   19.55    1.01 
  -2   3 -12   17.47    1.45 
   2  -3  12   20.88    0.95 
   2  -3  12   19.40    1.42 
   6   2 -12   22.63    1.12 
  -6  -2  12   22.03    1.10 
  -6  -2  12   22.59    1.16 
   5   2 -12    4.30    0.37 
   5   2 -12    4.64    0.24 
  -5  -2  12    4.45    0.23 
  -5  -2  12    4.07    0.24 
   4   2 -12    3.49    0.21 
   4   2 -12    3.71    0.33 
  -4  -2  12    3.43    0.21 
  -4  -2  12    3.62    0.20 
   3   2 -12    1.62    0.21 
   3   2 -12    1.60    0.13 
  -3  -2  12    1.79    0.12 
   2   2 -12    4.49    0.27 
   2   2 -12    4.44    0.40 
  -2  -2  12    4.45    0.24 
  -2  -2  12    4.59    0.28 
  -2  -2  12    4.61    0.25 
   1   2 -12    3.19    0.21 
   1   2 -12    3.28    0.31 
  -1  -2  12    3.29    0.18 
  -1  -2  12    3.24    0.18 
  -1  -2  12    3.05    0.22 
  -1  -2  12    3.23    0.30 
   0   2 -12   27.51    1.39 
   0  -2  12   25.26    1.95 
   0  -2  12   26.67    1.30 
  -1   2 -12   15.97    0.82 
  -1   2 -12   14.81    1.17 
   1  -2  12   15.37    0.76 
  -2   2 -12   23.75    1.72 
  -2   2 -12   23.42    1.20 
   2  -2  12   20.64    1.68 
   2  -2  12   23.49    1.12 
  -3   2 -12    0.47    0.06 
  -3   2 -12    0.51    0.14 
   3  -2  12    0.51    0.05 
   3  -2  12    0.50    0.11 
   6   1 -12    2.57    0.14 
  -6  -1  12    2.07    0.24 
  -6  -1  12    2.47    0.13 
  -6  -1  12    2.50    0.14 
   5   1 -12    5.28    0.29 
   5   1 -12    5.34    0.44 
  -5  -1  12    5.52    0.28 
  -5  -1  12    4.80    0.47 
  -5  -1  12    5.30    0.29 
   4   1 -12   12.52    0.64 
  -4  -1  12   11.93    0.66 
  -4  -1  12   12.60    0.62 
   3   1 -12    7.74    0.47 
   3   1 -12    7.98    0.43 
  -3  -1  12    8.46    0.42 
  -3  -1  12    8.10    0.44 
  -3  -1  12    7.99    0.47 
   2   1 -12   -0.04    0.06 
  -2  -1  12    0.06    0.04 
  -2  -1  12    0.03    0.04 
  -2  -1  12    0.07    0.05 
   1   1 -12   19.39    1.01 
   1   1 -12   16.96    1.41 
   1   1 -12   17.63    0.97 
  -1  -1  12   18.89    1.01 
  -1  -1  12   18.21    0.91 
  -1  -1  12   18.86    1.37 
   0   1 -12   65.20    3.44 
   0   1 -12   68.93    3.53 
   0  -1  12   64.16    3.24 
   0  -1  12   69.35    3.54 
   0  -1  12   65.28    4.82 
   0  -1  12   66.31    3.25 
  -1   1 -12   20.64    1.12 
  -1   1 -12   20.76    1.09 
  -1   1 -12   20.71    1.56 
   1  -1  12   19.94    1.01 
   1  -1  12   20.73    1.54 
  -2   1 -12   14.70    1.21 
  -2   1 -12   16.07    0.84 
   2  -1  12   17.04    1.20 
   2  -1  12   15.59    0.79 
  -3   1 -12    1.50    0.20 
  -3   1 -12    1.69    0.13 
   3  -1  12    1.66    0.10 
   3  -1  12    1.68    0.19 
  -4   1 -12    0.24    0.06 
  -4   1 -12    0.18    0.10 
   4  -1  12    0.29    0.09 
   6   0 -12    0.17    0.04 
   6   0 -12    0.11    0.03 
  -6   0  12    0.16    0.08 
  -6   0  12    0.10    0.03 
  -6   0  12    0.18    0.03 
   5   0 -12    0.30    0.05 
   5   0 -12    0.24    0.04 
  -5   0  12    0.48    0.11 
  -5   0  12    0.29    0.04 
  -5   0  12    0.33    0.04 
   4   0 -12    0.25    0.05 
   4   0 -12    0.31    0.06 
  -4   0  12    0.31    0.05 
  -4   0  12    0.25    0.10 
  -4   0  12    0.25    0.04 
   3   0 -12    9.56    0.50 
   3   0 -12   10.00    0.56 
   3   0 -12    9.21    0.51 
  -3   0  12    9.79    0.50 
  -3   0  12   10.02    0.52 
   2   0 -12   58.50    2.99 
   2   0 -12   64.59    3.18 
   2   0 -12   58.08    2.92 
  -2   0  12   56.70    3.18 
  -2   0  12   61.23    3.10 
  -2   0  12   60.29    2.93 
   1   0 -12   19.59    1.00 
   1   0 -12   21.40    1.11 
  -1   0  12   21.69    1.51 
  -1   0  12   18.93    1.06 
  -1   0  12   20.33    1.10 
  -1   0  12   19.57    1.00 
   0   0 -12   20.88    1.11 
   0   0 -12   23.31    1.22 
   0   0  12   20.99    1.18 
   0   0  12   22.64    1.11 
   0   0  12   22.84    1.22 
   0   0  12   24.08    1.67 
  -1   0 -12   36.10    1.93 
   1   0  12   35.12    1.77 
   1   0  12   37.19    2.64 
   1   0  12   33.75    1.87 
   1   0  12   37.92    1.94 
  -2   0 -12   54.77    2.75 
  -2   0 -12   51.90    2.68 
   2   0  12   51.58    2.53 
   2   0  12   47.95    3.75 
  -3   0 -12    1.14    0.11 
   3   0  12    1.06    0.17 
  -4   0 -12    7.35    0.62 
  -4   0 -12    8.08    0.43 
   4   0  12    7.61    0.60 
  -5   0 -12    0.95    0.08 
  -5   0 -12    0.86    0.13 
  -6   1  12    6.37    0.32 
  -6   1  12    5.29    0.50 
   5  -1 -12  102.81    4.87 
  -5   1  12   99.02    8.13 
  -5   1  12   95.49    5.19 
  -5   1  12  103.39    5.16 
   4  -1 -12    4.49    0.25 
  -4   1  12    4.50    0.26 
  -4   1  12    4.57    0.43 
  -4   1  12    4.90    0.26 
   3  -1 -12    0.58    0.09 
   3  -1 -12    0.97    0.09 
  -3   1  12    0.86    0.08 
  -3   1  12    0.91    0.08 
  -3   1  12    0.84    0.07 
   2  -1 -12   54.37    2.97 
   2  -1 -12   59.87    2.73 
  -2   1  12   51.01    2.73 
  -2   1  12   56.71    2.89 
  -2   1  12   57.27    2.98 
   1  -1 -12   38.51    1.82 
   1  -1 -12   39.30    1.99 
  -1   1  12   34.82    2.02 
  -1   1  12   37.62    2.00 
  -1   1  12   37.52    1.93 
  -1   1  12   36.76    1.83 
  -1   1  12   35.72    2.72 
   0  -1 -12   20.18    1.07 
   0  -1 -12   22.02    1.18 
   0   1  12   21.23    1.08 
   0   1  12   23.43    1.19 
   0   1  12   23.20    1.61 
   0   1  12   20.11    1.13 
  -1  -1 -12   16.22    0.87 
  -1  -1 -12   14.90    0.79 
   1   1  12   15.22    0.84 
   1   1  12   17.03    0.88 
   1   1  12   15.73    0.79 
  -2  -1 -12    5.86    0.35 
  -2  -1 -12    5.41    0.30 
   2   1  12    5.45    0.33 
   2   1  12    5.63    0.31 
   2   1  12    5.77    0.35 
   2   1  12    6.34    0.48 
  -3  -1 -12   11.68    0.63 
   3   1  12   10.96    0.59 
   3   1  12   11.15    0.56 
   3   1  12    9.85    0.84 
  -4  -1 -12    1.40    0.13 
   4   1  12    1.71    0.12 
   4   1  12    1.80    0.19 
  -5  -1 -12    2.56    0.17 
   5  -2 -12    4.00    0.21 
  -5   2  12    3.96    0.37 
  -5   2  12    4.07    0.23 
   4  -2 -12   12.18    0.64 
  -4   2  12   12.73    0.68 
  -4   2  12   12.28    0.67 
  -4   2  12   13.71    1.08 
   3  -2 -12   91.48    4.43 
   3  -2 -12   88.40    4.80 
  -3   2  12   93.23    4.72 
  -3   2  12   90.28    7.39 
  -3   2  12   92.96    4.90 
  -3   2  12   89.22    4.68 
   2  -2 -12    5.02    0.26 
   2  -2 -12    4.78    0.30 
  -2   2  12    4.64    0.27 
  -2   2  12    4.85    0.27 
  -2   2  12    4.29    0.25 
  -2   2  12    5.14    0.30 
   1  -2 -12   33.63    1.65 
   1  -2 -12   34.33    1.80 
  -1   2  12   31.00    1.75 
  -1   2  12   34.99    1.81 
  -1   2  12   32.29    1.74 
  -1   2  12   34.11    1.83 
  -1   2  12   36.53    2.47 
  -1   2  12   32.01    1.65 
   0  -2 -12    2.20    0.18 
   0  -2 -12    2.22    0.15 
   0   2  12    2.72    0.25 
   0   2  12    2.75    0.18 
   0   2  12    2.23    0.15 
   0   2  12    2.33    0.17 
   0   2  12    2.28    0.15 
  -1  -2 -12   32.67    1.89 
  -1  -2 -12   35.78    1.74 
   1   2  12   36.33    1.90 
   1   2  12   35.46    1.74 
   1   2  12   37.17    2.60 
   1   2  12   34.65    1.84 
  -2  -2 -12    4.72    0.31 
  -2  -2 -12    5.20    0.28 
   2   2  12    5.40    0.32 
   2   2  12    5.02    0.30 
   2   2  12    5.08    0.43 
   2   2  12    5.03    0.28 
  -3  -2 -12    2.09    0.14 
  -3  -2 -12    2.11    0.18 
   3   2  12    2.16    0.23 
   3   2  12    2.21    0.15 
   3   2  12    2.03    0.16 
   3   2  12    2.34    0.16 
  -4  -2 -12    1.47    0.11 
  -4  -2 -12    1.59    0.15 
   4   2  12    1.45    0.18 
   4   2  12    1.55    0.13 
   5   2  12    0.14    0.05 
  -6  -2 -12    1.86    0.21 
   6   2  12    2.55    0.14 
   5  -3 -12    9.42    0.47 
  -5   3  12    9.25    0.50 
  -5   3  12    9.39    0.79 
   4  -3 -12    4.54    0.25 
  -4   3  12    4.98    0.27 
  -4   3  12    4.73    0.43 
   3  -3 -12    8.13    0.43 
  -3   3  12    8.41    0.46 
  -3   3  12    8.62    0.73 
   2  -3 -12   57.48    2.79 
   2  -3 -12   57.45    3.03 
  -2   3  12   59.14    4.65 
  -2   3  12   57.88    3.09 
  -2   3  12   57.20    2.97 
  -2   3  12   53.26    2.94 
   1  -3 -12  179.78    9.80 
   1  -3 -12  180.82    9.05 
  -1   3  12  200.19   10.01 
  -1   3  12  186.47   13.42 
  -1   3  12  183.37    9.59 
  -1   3  12  188.11    9.65 
   0  -3 -12    1.73    0.15 
   0  -3 -12    1.79    0.13 
   0   3  12    2.05    0.14 
   0   3  12    2.11    0.24 
   0   3  12    2.00    0.14 
   0   3  12    1.89    0.13 
   0   3  12    2.16    0.16 
   0   3  12    2.04    0.15 
  -1  -3 -12   58.78    2.82 
  -1  -3 -12   48.75    3.06 
   1   3  12   61.13    3.09 
   1   3  12   57.15    3.01 
   1   3  12   58.89    2.99 
   1   3  12   60.83    4.21 
   1   3  12   59.42    2.84 
  -2  -3 -12   35.67    1.74 
  -2  -3 -12   30.70    1.89 
   2   3  12   36.48    1.97 
   2   3  12   36.21    2.59 
   2   3  12   35.63    1.84 
   2   3  12   38.51    1.91 
   2   3  12   34.26    1.74 
  -3  -3 -12   72.96    3.57 
   3   3  12   68.80    4.04 
   3   3  12   75.37    3.58 
   3   3  12   74.85    5.30 
   3   3  12   73.88    3.79 
  -4  -3 -12    2.58    0.16 
   4   3  12    2.70    0.26 
   4   3  12    2.58    0.18 
  -5  -3 -12    0.19    0.05 
   5   3  12    0.24    0.06 
   6   3  12    0.19    0.05 
   4  -4 -12    3.02    0.16 
  -4   4  12    3.12    0.18 
  -4   4  12    2.97    0.28 
  -3   4  12   17.16    0.85 
  -3   4  12   14.71    1.33 
  -2   4  12   25.86    2.24 
  -2   4  12   28.60    1.43 
  -1   4  12   53.32    3.98 
  -1   4  12   55.24    2.85 
  -1   4  12   55.69    2.97 
   0   4  12  203.23   11.64 
   0   4  12  214.91   10.97 
   0   4  12  217.91   11.38 
  -1  -4 -12    0.10    0.05 
   1   4  12    0.22    0.05 
   1   4  12    0.11    0.05 
   1   4  12    0.24    0.07 
   1   4  12    0.10    0.05 
   1   4  12    0.17    0.10 
  -2  -4 -12   28.17    1.40 
   2   4  12   27.49    1.48 
   2   4  12   27.98    1.41 
   2   4  12   30.49    2.11 
   2   4  12   27.91    1.49 
   2   4  12   28.72    1.60 
  -3  -4 -12    4.90    0.26 
   3   4  12    4.73    0.28 
   3   4  12    4.48    0.27 
   3   4  12    4.47    0.41 
   3   4  12    5.17    0.31 
  -4  -4 -12    8.85    0.44 
   4   4  12    8.23    0.47 
   4   4  12    8.21    0.46 
   4   4  12    8.74    0.50 
  -5  -4 -12    4.45    0.24 
   5   4  12    4.15    0.25 
  -6  -4 -12    0.86    0.08 
   6   4  12    0.89    0.09 
  -3   5  12    2.21    0.22 
  -3   5  12    2.20    0.13 
  -2   5  12   13.85    1.15 
  -2   5  12   13.61    0.73 
  -1   5  12   36.81    2.63 
  -1   5  12   33.64    2.94 
  -1   5  12   37.27    1.88 
   0   5  12   11.06    0.65 
   0   5  12   12.47    0.62 
   0   5  12   10.57    0.88 
   1   5  12   79.06    4.87 
   1   5  12   84.99    4.77 
   1   5  12   94.08    4.59 
   1   5  12   95.67    6.40 
   2   5  12  300.59   14.55 
   2   5  12  264.33   20.21 
   2   5  12  278.77   15.44 
  -3  -5 -12    5.02    0.27 
   3   5  12    5.06    0.29 
   3   5  12    5.02    0.32 
   3   5  12    4.60    0.42 
  -4  -5 -12   53.25    2.53 
   4   5  12   48.53    2.67 
   4   5  12   52.22    2.69 
   4   5  12   52.63    2.86 
  -5  -5 -12    0.00    0.04 
   5   5  12    0.01    0.04 
   5   5  12    0.00    0.04 
   5   5  12    0.05    0.04 
  -6  -5 -12    9.55    0.46 
   6   5  12    9.43    0.49 
   6   5  12    8.41    0.49 
  -2   6  12    9.19    0.49 
  -2   6  12    9.23    0.77 
  -1   6  12    7.67    0.63 
  -1   6  12    8.92    0.71 
  -1   6  12    8.18    0.45 
   0   6  12    0.08    0.04 
   0   6  12    0.09    0.07 
   0   6  12   -0.01    0.07 
   1   6  12    2.48    0.15 
   1   6  12    1.99    0.16 
   1   6  12    2.37    0.23 
   2   6  12    0.37    0.07 
   2   6  12    0.37    0.06 
   2   6  12    0.27    0.10 
   3   6  12   20.71    1.21 
   3   6  12   20.81    1.58 
   3   6  12   22.55    1.13 
  -4  -6 -12   71.04    3.56 
   4   6  12   77.26    3.80 
   4   6  12   71.11    4.04 
  -5  -6 -12    1.57    0.11 
   5   6  12    1.61    0.11 
   5   6  12    1.46    0.13 
  -6  -6 -12    4.90    0.25 
   6   6  12    4.47    0.26 
   0   7  12    3.41    0.29 
   0   7  12    3.58    0.20 
   0   7  12    3.60    0.32 
   1   7  12    0.29    0.08 
   1   7  12    0.42    0.05 
   2   7  12    4.84    0.27 
   2   7  12    4.61    0.38 
   2   7  12    4.53    0.28 
   3   7  12    0.50    0.07 
   3   7  12    0.37    0.09 
   3   7  12    0.69    0.08 
   4   7  12   12.09    0.73 
   4   7  12   13.70    0.69 
  -5  -7 -12    0.17    0.04 
   5   7  12    0.14    0.05 
   5   7  12    0.12    0.04 
  -6  -7 -12    3.41    0.17 
   6   7  12    2.88    0.19 
   6   7  12    3.30    0.18 
   1   8  12    0.06    0.04 
   2   8  12    0.58    0.08 
   2   8  12    0.61    0.05 
   3   8  12    1.82    0.13 
   3   8  12    1.80    0.17 
   3   8  12    2.13    0.12 
   4   8  12    2.83    0.18 
   4   8  12    3.12    0.17 
   5   8  12    5.28    0.31 
   4   4 -13   10.40    0.55 
   3   4 -13   11.40    0.60 
   2   4 -13    0.31    0.05 
  -2  -4  13    0.29    0.03 
   5   3 -13    5.39    0.49 
  -5  -3  13    6.84    0.31 
   4   3 -13    3.37    0.33 
   4   3 -13    3.98    0.22 
  -4  -3  13    4.14    0.21 
   3   3 -13   37.66    2.90 
   3   3 -13   38.81    2.00 
  -3  -3  13   39.43    1.89 
   2   3 -13   18.98    1.47 
   2   3 -13   19.21    1.01 
  -2  -3  13   19.78    0.95 
   1   3 -13   33.81    1.77 
  -1  -3  13   34.27    1.66 
   0   3 -13   23.12    1.14 
   0  -3  13   23.63    1.07 
   0  -3  13   18.74    1.60 
  -1   3 -13   17.94    0.88 
   1  -3  13   14.61    1.23 
   1  -3  13   17.64    0.82 
   5   2 -13   29.15    2.37 
  -5  -2  13   32.72    1.64 
  -5  -2  13   32.88    1.55 
   4   2 -13   73.97    5.18 
   4   2 -13   65.71    3.58 
  -4  -2  13   65.52    3.58 
  -4  -2  13   72.32    3.38 
   3   2 -13   22.69    1.62 
   3   2 -13   20.17    1.11 
  -3  -2  13   20.68    1.05 
   2   2 -13    5.21    0.47 
   2   2 -13    5.52    0.31 
  -2  -2  13    5.72    0.29 
   1   2 -13    8.81    0.46 
  -1  -2  13    8.06    0.65 
   0   2 -13    5.13    0.31 
   0  -2  13    5.43    0.28 
   0  -2  13    5.59    0.45 
  -1   2 -13   12.78    0.71 
   1  -2  13   13.91    0.66 
   1  -2  13   13.19    1.00 
  -2   2 -13   18.56    0.91 
  -2   2 -13   16.88    1.31 
   2  -2  13   17.90    0.85 
   2  -2  13   16.06    1.28 
   5   1 -13    0.83    0.13 
   5   1 -13    1.09    0.09 
  -5  -1  13    1.01    0.08 
  -5  -1  13    0.96    0.07 
   4   1 -13    4.38    0.38 
   4   1 -13    4.24    0.24 
  -4  -1  13    4.57    0.24 
  -4  -1  13    4.26    0.25 
   3   1 -13   39.71    3.27 
  -3  -1  13   44.05    2.25 
  -3  -1  13   46.64    2.13 
   2   1 -13   47.43    3.49 
   2   1 -13   44.59    2.47 
  -2  -1  13   46.30    2.41 
  -2  -1  13   47.26    2.28 
   1   1 -13   10.82    0.59 
   1   1 -13   10.83    0.86 
   1   1 -13   10.70    0.61 
  -1  -1  13   10.86    0.83 
  -1  -1  13   10.54    0.61 
  -1  -1  13   11.07    0.55 
   0   1 -13    9.88    0.58 
   0   1 -13   10.11    0.55 
   0  -1  13   10.39    0.51 
   0  -1  13    9.91    0.78 
  -1   1 -13    1.99    0.15 
   1  -1  13    2.00    0.22 
  -2   1 -13    7.95    0.44 
  -2   1 -13    7.85    0.64 
   2  -1  13    8.40    0.64 
  -3   1 -13   -0.04    0.05 
  -3   1 -13    0.03    0.10 
   3  -1  13   -0.01    0.08 
   5   0 -13    0.47    0.10 
   5   0 -13    0.35    0.04 
   5   0 -13    0.44    0.06 
  -5   0  13    0.41    0.10 
  -5   0  13    0.35    0.04 
  -5   0  13    0.40    0.05 
   4   0 -13   13.10    0.73 
   4   0 -13   14.54    0.72 
  -4   0  13   15.15    0.76 
  -4   0  13   14.78    0.72 
   3   0 -13    0.36    0.06 
   3   0 -13    0.25    0.05 
  -3   0  13    0.33    0.05 
  -3   0  13    0.33    0.05 
   2   0 -13    0.73    0.10 
   2   0 -13    0.67    0.08 
  -2   0  13    0.57    0.06 
  -2   0  13    0.57    0.08 
  -2   0  13    0.63    0.07 
   1   0 -13   48.46    2.55 
   1   0 -13   54.01    2.78 
  -1   0  13   52.72    2.78 
  -1   0  13   51.04    3.79 
  -1   0  13   54.59    2.56 
  -1   0  13   52.21    2.70 
   0   0 -13   12.21    0.69 
   0   0  13   12.07    0.93 
   0   0  13   11.84    0.61 
   0   0  13   11.69    0.65 
   0   0  13   12.93    0.69 
  -1   0 -13   13.64    0.77 
   1   0  13   14.26    0.69 
   1   0  13   13.88    0.73 
   1   0  13   12.99    0.76 
   1   0  13   13.69    1.05 
  -2   0 -13   16.33    0.88 
   2   0  13   16.75    1.24 
   2   0  13   16.42    0.82 
  -3   0 -13    7.72    0.44 
  -3   0 -13    8.00    0.64 
   3   0  13    8.32    0.63 
  -4   0 -13    8.59    0.45 
  -4   0 -13    8.37    0.65 
   4   0  13    7.76    0.62 
  -5   1  13   47.13    2.34 
  -5   1  13   47.84    2.33 
  -5   1  13   40.37    3.67 
   4  -1 -13    2.13    0.13 
  -4   1  13    2.02    0.13 
  -4   1  13    2.16    0.23 
  -4   1  13    2.27    0.14 
   3  -1 -13    0.06    0.04 
  -3   1  13    0.06    0.04 
  -3   1  13    0.10    0.04 
   2  -1 -13   11.94    0.58 
   2  -1 -13   11.54    0.65 
  -2   1  13   10.23    0.64 
  -2   1  13   12.16    0.61 
  -2   1  13   11.27    0.58 
   1  -1 -13    5.03    0.28 
   1  -1 -13    4.92    0.32 
  -1   1  13    5.26    0.28 
  -1   1  13    5.43    0.44 
  -1   1  13    4.97    0.29 
  -1   1  13    4.78    0.31 
   0  -1 -13   64.33    3.26 
   0  -1 -13   61.61    2.99 
   0   1  13   61.89    3.00 
   0   1  13   59.95    3.17 
   0   1  13   59.95    4.45 
   0   1  13   60.38    3.27 
  -1  -1 -13    2.59    0.20 
  -1  -1 -13    2.26    0.15 
   1   1  13    2.44    0.16 
   1   1  13    2.34    0.18 
   1   1  13    2.43    0.16 
   1   1  13    2.78    0.26 
  -2  -1 -13    6.71    0.39 
  -2  -1 -13    6.02    0.33 
   2   1  13    6.40    0.36 
   2   1  13    6.71    0.34 
   2   1  13    6.46    0.38 
   2   1  13    5.97    0.52 
   3   1  13    5.65    0.32 
   3   1  13    5.41    0.46 
  -4  -1 -13    2.22    0.15 
   4   1  13    2.07    0.21 
   4   1  13    2.09    0.14 
  -5  -1 -13    1.37    0.10 
  -5  -1 -13    1.11    0.15 
   4  -2 -13    0.05    0.03 
  -4   2  13    0.03    0.07 
  -4   2  13    0.04    0.03 
  -4   2  13    0.02    0.03 
   3  -2 -13   72.89    3.48 
  -3   2  13   71.01    3.71 
  -3   2  13   70.55    3.69 
   2  -2 -13   30.63    1.68 
   2  -2 -13   33.96    1.55 
  -2   2  13   31.88    1.63 
  -2   2  13   32.12    1.71 
  -2   2  13   31.09    1.64 
  -2   2  13   28.64    1.54 
   1  -2 -13   30.28    1.57 
   1  -2 -13   30.71    1.44 
  -1   2  13   30.85    1.60 
  -1   2  13   27.91    1.44 
  -1   2  13   30.35    1.52 
  -1   2  13   25.52    2.15 
  -1   2  13   28.41    1.57 
   0  -2 -13   56.56    2.64 
   0  -2 -13   54.08    2.87 
   0   2  13   52.78    2.88 
   0   2  13   52.48    2.64 
   0   2  13   55.34    3.92 
   0   2  13   52.18    2.79 
  -1  -2 -13   36.78    2.15 
  -1  -2 -13   39.47    1.97 
   1   2  13   45.79    2.95 
   1   2  13   40.35    1.98 
   1   2  13   37.84    2.16 
   1   2  13   41.49    2.09 
  -2  -2 -13  122.16    6.81 
  -2  -2 -13  129.67    6.28 
   2   2  13  128.14    6.84 
   2   2  13  133.95    6.67 
   2   2  13  138.72    6.30 
   2   2  13  122.87    9.32 
  -3  -2 -13   34.23    1.75 
  -3  -2 -13   34.07    1.91 
   3   2  13   38.27    1.77 
   3   2  13   35.25    2.62 
   3   2  13   36.96    1.87 
   4   2  13    5.90    0.32 
   4   2  13    5.15    0.45 
   5   2  13    0.06    0.04 
   4  -3 -13   60.74    2.99 
  -4   3  13   63.05    3.19 
  -4   3  13   60.47    4.99 
   3  -3 -13    3.63    0.20 
  -3   3  13    3.61    0.21 
  -3   3  13    3.70    0.34 
   2  -3 -13    0.48    0.06 
  -2   3  13    0.62    0.08 
  -2   3  13    0.60    0.06 
   1  -3 -13    4.44    0.29 
   1  -3 -13    4.80    0.26 
  -1   3  13    4.65    0.27 
  -1   3  13    5.03    0.30 
  -1   3  13    4.76    0.27 
  -1   3  13    4.93    0.42 
   0  -3 -13   11.93    0.70 
   0  -3 -13   12.58    0.64 
   0   3  13   12.65    0.71 
   0   3  13   13.41    0.72 
   0   3  13   12.55    0.68 
   0   3  13   12.53    0.97 
   0   3  13   12.79    0.67 
   0   3  13   12.41    0.64 
  -1  -3 -13    9.16    0.45 
  -1  -3 -13    7.91    0.50 
   1   3  13    8.58    0.45 
   1   3  13    9.01    0.51 
   1   3  13    8.86    0.47 
  -2  -3 -13    6.28    0.34 
   2   3  13    5.85    0.38 
   2   3  13    6.19    0.39 
   2   3  13    6.42    0.36 
   2   3  13    6.85    0.53 
   2   3  13    6.42    0.34 
  -3  -3 -13    2.42    0.15 
   3   3  13    2.74    0.26 
   3   3  13    2.33    0.18 
   3   3  13    2.51    0.17 
   3   3  13    2.35    0.16 
  -4  -3 -13   70.68    3.33 
   4   3  13   61.62    4.94 
   4   3  13   72.74    3.54 
   5   3  13    2.42    0.16 
   6   3  13    4.17    0.23 
  -4   4  13    4.38    0.24 
   3  -4 -13    0.24    0.04 
  -3   4  13    0.30    0.09 
  -3   4  13    0.25    0.05 
   2  -4 -13   18.31    0.91 
  -2   4  13   17.57    1.52 
  -2   4  13   19.35    0.97 
   1  -4 -13    0.17    0.04 
  -1   4  13    0.16    0.05 
  -1   4  13    0.20    0.09 
   0  -4 -13    8.73    0.46 
   0   4  13    8.21    0.53 
   0   4  13    8.91    0.49 
   0   4  13    9.03    0.52 
   0   4  13   10.13    0.72 
  -1  -4 -13   28.77    1.39 
   1   4  13   29.34    1.58 
   1   4  13   27.21    1.48 
   1   4  13   30.07    2.08 
   1   4  13   27.16    1.46 
   1   4  13   26.24    1.39 
  -2  -4 -13   16.84    0.84 
   2   4  13   16.80    0.85 
   2   4  13   17.96    0.96 
   2   4  13   16.00    0.88 
   2   4  13   16.73    1.27 
   2   4  13   16.52    0.89 
  -3  -4 -13   28.65    1.38 
   3   4  13   28.04    1.46 
   3   4  13   30.55    1.57 
   3   4  13   25.17    2.06 
   3   4  13   27.14    1.46 
  -4  -4 -13    1.95    0.13 
   4   4  13    2.10    0.22 
   4   4  13    1.97    0.14 
   4   4  13    2.01    0.15 
  -5  -4 -13    4.79    0.26 
   5   4  13    4.84    0.27 
   6   4  13    5.53    0.30 
  -3   5  13    9.91    0.52 
  -2   5  13    6.53    0.56 
  -2   5  13    6.49    0.36 
  -1   5  13    0.20    0.09 
  -1   5  13    0.22    0.05 
   0   5  13   15.14    0.79 
   0   5  13   13.84    0.83 
   0   5  13   15.13    1.11 
   1   5  13   24.09    1.36 
   1   5  13   23.58    1.79 
   1   5  13   24.79    1.27 
  -2  -5 -13   23.50    1.21 
   2   5  13   24.26    1.29 
   2   5  13   25.11    1.81 
   2   5  13   25.05    1.38 
  -3  -5 -13    7.93    0.40 
   3   5  13    7.65    0.42 
   3   5  13    7.28    0.61 
   3   5  13    7.73    0.46 
  -4  -5 -13   10.05    0.52 
   4   5  13   10.56    0.59 
   4   5  13   10.31    0.54 
   4   5  13    9.80    0.55 
  -5  -5 -13    3.64    0.19 
   5   5  13    3.30    0.22 
   5   5  13    3.76    0.20 
   5   5  13    3.18    0.20 
  -6  -5 -13    0.68    0.06 
   6   5  13    0.69    0.06 
  -1   6  13    7.05    0.54 
  -1   6  13    7.10    0.38 
  -1   6  13    6.98    0.60 
   0   6  13    0.05    0.04 
   0   6  13    0.05    0.07 
   1   6  13    0.26    0.09 
   1   6  13    0.65    0.07 
   1   6  13    0.45    0.06 
   2   6  13    1.00    0.11 
   2   6  13    1.21    0.15 
   2   6  13    1.19    0.10 
  -3  -6 -13   11.67    0.58 
   3   6  13   10.35    0.88 
   3   6  13   12.24    0.67 
   3   6  13   12.28    0.63 
  -4  -6 -13   10.15    0.53 
   4   6  13   10.80    0.61 
   4   6  13   10.65    0.57 
  -5  -6 -13   16.70    0.78 
   5   6  13   15.65    0.83 
   5   6  13   14.82    0.88 
  -6  -6 -13    0.10    0.03 
   0   7  13    1.39    0.14 
   0   7  13    1.47    0.09 
   1   7  13    1.47    0.10 
   1   7  13    1.55    0.15 
   2   7  13    7.02    0.58 
   2   7  13    7.51    0.43 
   2   7  13    8.00    0.41 
   3   7  13   16.40    0.84 
   3   7  13   14.92    1.17 
   3   7  13   16.17    0.89 
   4   7  13    1.62    0.11 
   4   7  13    1.58    0.12 
  -5  -7 -13    2.81    0.15 
   5   7  13    2.86    0.16 
   5   7  13    2.40    0.17 
   3   3 -14    3.58    0.33 
   3   3 -14    4.24    0.22 
   2   3 -14    0.13    0.04 
   1   3 -14    0.15    0.04 
   0   3 -14    5.80    0.31 
  -5  -2  14   20.13    0.99 
   4   2 -14    6.09    0.54 
   4   2 -14    6.68    0.37 
  -4  -2  14    7.09    0.37 
  -4  -2  14    7.42    0.35 
   3   2 -14    0.85    0.08 
   3   2 -14    0.54    0.13 
  -3  -2  14    0.77    0.07 
   2   2 -14    0.53    0.07 
   2   2 -14    0.40    0.12 
  -2  -2  14    0.60    0.06 
   1   2 -14   12.91    0.69 
   0   2 -14   22.99    1.12 
   0  -2  14   19.87    1.57 
  -1   2 -14    5.09    0.28 
   1  -2  14    4.93    0.40 
  -5  -1  14   22.36    1.13 
  -5  -1  14   21.05    1.07 
   4   1 -14    2.49    0.25 
  -4  -1  14    2.76    0.16 
  -4  -1  14    2.82    0.15 
   3   1 -14   44.01    3.56 
  -3  -1  14   49.99    2.33 
  -3  -1  14   48.45    2.46 
   2   1 -14    5.52    0.47 
  -2  -1  14    5.89    0.30 
  -2  -1  14    5.53    0.32 
   1   1 -14   10.71    0.85 
   1   1 -14   10.50    0.58 
  -1  -1  14   11.52    0.55 
  -1  -1  14   11.18    0.58 
  -1  -1  14   10.39    0.83 
   0   1 -14    3.12    0.20 
   0  -1  14    3.34    0.29 
   0  -1  14    3.07    0.18 
  -1   1 -14    9.91    0.57 
   1  -1  14   11.18    0.81 
  -2   1 -14   11.33    0.57 
  -2   1 -14   10.06    0.81 
   2  -1  14   10.25    0.80 
  -3   1 -14    0.17    0.04 
   3  -1  14    0.13    0.07 
  -5   0  14    2.64    0.15 
  -5   0  14    2.42    0.14 
   4   0 -14    1.36    0.09 
   4   0 -14    1.42    0.17 
  -4   0  14    1.44    0.09 
  -4   0  14    1.46    0.10 
  -3   0  14   30.84    1.49 
  -3   0  14   29.73    1.58 
   2   0 -14    2.76    0.17 
  -2   0  14    2.98    0.18 
  -2   0  14    2.89    0.17 
  -1   0  14    3.76    0.35 
  -1   0  14    4.11    0.24 
  -1   0  14    4.36    0.23 
   0   0  14    5.56    0.32 
   0   0  14    5.20    0.46 
   0   0  14    5.90    0.30 
   1   0  14    2.31    0.14 
   1   0  14    2.30    0.15 
   1   0  14    2.05    0.23 
  -2   0 -14    0.71    0.09 
  -2   0 -14    0.69    0.16 
   2   0  14    0.70    0.08 
   2   0  14    0.68    0.13 
  -3   0 -14    1.54    0.19 
  -3   0 -14    1.81    0.12 
   3   0  14    1.62    0.18 
   5  -1 -14    1.17    0.08 
   4  -1 -14    1.47    0.11 
   4  -1 -14    1.69    0.11 
  -4   1  14    1.75    0.11 
   3  -1 -14    0.17    0.05 
   3  -1 -14    0.04    0.04 
  -3   1  14    0.02    0.04 
  -3   1  14    0.04    0.04 
   2  -1 -14    9.69    0.51 
  -2   1  14   10.27    0.54 
  -2   1  14    9.94    0.51 
   1  -1 -14   33.42    1.63 
   1  -1 -14   32.96    1.78 
  -1   1  14   31.48    2.43 
  -1   1  14   34.52    1.73 
  -1   1  14   33.67    1.64 
   0  -1 -14    0.39    0.08 
   0  -1 -14    0.49    0.06 
   0   1  14    0.50    0.06 
   0   1  14    0.48    0.08 
   0   1  14    0.47    0.12 
   0   1  14    0.56    0.07 
  -1  -1 -14   50.60    2.60 
  -1  -1 -14   50.63    2.83 
   1   1  14   53.12    2.76 
   1   1  14   54.44    2.61 
   1   1  14   57.30    3.88 
   2   1  14    9.45    0.50 
   2   1  14    9.62    0.54 
   2   1  14   10.62    0.77 
   3   1  14    1.74    0.12 
   3   1  14    1.46    0.18 
  -4  -1 -14    0.10    0.11 
  -4  -1 -14    0.05    0.05 
   4   1  14    0.08    0.04 
   4   1  14    0.07    0.07 
   4  -2 -14   14.32    0.71 
  -4   2  14   14.26    0.75 
   3  -2 -14    7.93    0.40 
  -3   2  14    8.02    0.42 
  -3   2  14    7.35    0.42 
   2  -2 -14    6.90    0.36 
  -2   2  14    6.81    0.37 
  -2   2  14    6.74    0.35 
   1  -2 -14    5.00    0.26 
   1  -2 -14    4.63    0.30 
  -1   2  14    4.66    0.26 
  -1   2  14    5.13    0.42 
  -1   2  14    4.72    0.27 
   0  -2 -14   10.53    0.52 
   0  -2 -14   10.03    0.58 
   0   2  14   10.25    0.52 
   0   2  14    8.73    0.58 
   0   2  14   10.56    0.55 
   0   2  14   10.99    0.80 
  -1  -2 -14   15.56    0.85 
  -1  -2 -14   15.48    0.77 
   1   2  14   16.33    0.77 
   1   2  14   15.99    0.81 
   1   2  14   14.19    1.15 
   1   2  14   14.02    0.85 
  -2  -2 -14    0.46    0.06 
   2   2  14    0.40    0.12 
   2   2  14    0.46    0.06 
   2   2  14    0.34    0.07 
   2   2  14    0.50    0.06 
  -3  -2 -14   18.11    0.91 
   3   2  14   19.16    1.38 
   3   2  14   18.22    0.97 
   4   2  14    1.11    0.15 
   4   2  14    1.38    0.10 
   5   2  14    0.98    0.08 
   4  -3 -14   36.39    1.77 
  -4   3  14   36.25    1.89 
   3  -3 -14    2.11    0.13 
  -3   3  14    2.25    0.14 
   2  -3 -14    9.39    0.48 
  -2   3  14    9.40    0.51 
  -2   3  14    9.39    0.50 
   1  -3 -14    4.23    0.23 
  -1   3  14    4.06    0.23 
  -1   3  14    4.50    0.37 
  -1   3  14    3.75    0.22 
  -1   3  14    4.03    0.24 
   0  -3 -14   10.64    0.52 
   0  -3 -14   10.00    0.57 
   0   3  14    9.85    0.54 
   0   3  14    9.81    0.52 
   0   3  14   10.27    0.79 
   0   3  14   10.07    0.55 
  -1  -3 -14   56.61    2.66 
  -1  -3 -14   48.81    2.89 
   1   3  14   58.71    3.02 
   1   3  14   53.26    2.67 
   1   3  14   60.14    3.97 
   1   3  14   50.67    2.91 
   1   3  14   53.45    2.82 
  -2  -3 -14   18.26    0.96 
   2   3  14   18.09    1.45 
   2   3  14   19.87    1.02 
   2   3  14   20.49    1.10 
   2   3  14   20.04    0.97 
  -3  -3 -14    9.15    0.49 
   3   3  14    9.26    0.52 
   3   3  14    9.83    0.55 
   3   3  14    9.99    0.75 
  -4  -3 -14   10.95    0.52 
   4   3  14    9.71    0.79 
   4   3  14   10.51    0.56 
   5   3  14    0.28    0.05 
   3  -4 -14   59.45    2.77 
  -3   4  14   56.56    2.96 
  -3   4  14   54.85    4.62 
   2  -4 -14  128.26    6.27 
  -2   4  14  129.87    6.68 
   1  -4 -14    8.49    0.45 
  -1   4  14    9.93    0.70 
  -1   4  14    8.59    0.49 
   0  -4 -14    1.54    0.11 
   0   4  14    1.53    0.14 
   0   4  14    1.61    0.19 
   0   4  14    1.60    0.12 
  -1  -4 -14    0.10    0.04 
   1   4  14   -0.02    0.09 
   1   4  14    0.07    0.05 
   1   4  14    0.06    0.04 
   1   4  14   -0.01    0.04 
   1   4  14    0.26    0.05 
  -2  -4 -14   18.79    0.91 
   2   4  14   17.67    0.96 
   2   4  14   18.80    1.04 
   2   4  14   17.19    0.97 
   2   4  14   17.72    0.92 
   2   4  14   20.39    1.38 
  -3  -4 -14   10.11    0.52 
   3   4  14    9.91    0.55 
   3   4  14   10.34    0.59 
   3   4  14   10.57    0.79 
  -4  -4 -14    9.90    0.49 
   4   4  14    8.82    0.73 
   4   4  14    9.49    0.55 
   4   4  14   10.16    0.52 
  -5  -4 -14    1.38    0.09 
   5   4  14    1.29    0.10 
  -2   5  14   11.74    0.62 
  -1   5  14   78.83    4.09 
   0  -5 -14   39.82    2.03 
   0   5  14   41.44    3.03 
   0   5  14   43.56    2.17 
   0   5  14   41.62    2.30 
  -1  -5 -14   14.67    0.73 
   1   5  14   14.87    0.78 
   1   5  14   16.01    0.84 
   1   5  14   12.91    1.10 
  -2  -5 -14   10.45    0.53 
   2   5  14    9.88    0.56 
   2   5  14   10.74    0.80 
   2   5  14   10.68    0.61 
  -3  -5 -14   10.22    0.52 
   3   5  14   10.08    0.79 
   3   5  14   11.12    0.60 
   3   5  14    9.98    0.56 
  -4  -5 -14    3.51    0.19 
   4   5  14    3.33    0.20 
   4   5  14    3.49    0.22 
   4   5  14    3.59    0.20 
  -5  -5 -14    0.89    0.07 
   5   5  14    0.83    0.07 
  -1   6  14    0.89    0.07 
  -1   6  14    0.93    0.11 
   0   6  14    3.73    0.22 
   0   6  14    3.88    0.32 
   1   6  14    5.50    0.33 
   1   6  14    5.83    0.31 
   1   6  14    5.31    0.44 
   2   6  14   16.27    0.85 
   2   6  14   15.37    1.19 
   2   6  14   16.24    0.90 
  -3  -6 -14    7.12    0.36 
   3   6  14    7.16    0.39 
   3   6  14    6.67    0.54 
   3   6  14    7.11    0.41 
  -4  -6 -14    3.84    0.20 
   4   6  14    3.82    0.22 
   4   6  14    3.75    0.24 
  -5  -6 -14    9.19    0.43 
   5   6  14    8.21    0.45 
   5   6  14    8.02    0.48 
   1   7  14    6.42    0.48 
   1   7  14    6.31    0.34 
   2   7  14    8.69    0.63 
   2   7  14    8.72    0.45 
   2   7  14    7.64    0.47 
   3   7  14    0.22    0.06 
   3   7  14    0.27    0.04 
   3   7  14    0.20    0.04 
   4   7  14    0.05    0.03 
   4   7  14    0.01    0.03 
   3   2 -15    6.81    0.39 
  -3  -2  15    7.75    0.37 
   2   2 -15   15.61    0.84 
  -2  -2  15   16.54    0.79 
   1   2 -15    0.35    0.05 
   0   2 -15    4.71    0.24 
   0  -2  15    3.63    0.33 
   4   1 -15   27.09    2.16 
  -4  -1  15   29.07    1.49 
  -4  -1  15   30.09    1.41 
   3   1 -15    2.61    0.26 
  -3  -1  15    2.96    0.16 
  -3  -1  15    2.90    0.17 
   2   1 -15    0.02    0.08 
  -2  -1  15    0.03    0.03 
  -2  -1  15   -0.04    0.04 
   1   1 -15    0.39    0.06 
  -1  -1  15    0.36    0.05 
  -1  -1  15    0.30    0.05 
   0   1 -15    0.35    0.06 
   0  -1  15    0.31    0.09 
   0  -1  15    0.38    0.05 
  -1   1 -15    2.94    0.18 
   1  -1  15    3.08    0.26 
  -2   1 -15    0.05    0.04 
   2  -1  15    0.06    0.07 
   4   0 -15    7.08    0.61 
  -4   0  15    8.18    0.41 
  -4   0  15    8.06    0.39 
   3   0 -15    0.34    0.11 
  -3   0  15    0.22    0.04 
  -3   0  15    0.21    0.04 
   2   0 -15   14.91    1.17 
  -2   0  15   15.57    0.76 
  -2   0  15   15.07    0.80 
   1   0 -15    1.47    0.17 
  -1   0  15    1.30    0.17 
  -1   0  15    1.48    0.11 
  -1   0  15    1.55    0.11 
   0   0  15    8.55    0.47 
   0   0  15    8.96    0.45 
   0   0  15    8.50    0.67 
   1   0  15   30.48    1.44 
   1   0  15   29.35    1.52 
   1   0  15   27.59    2.13 
  -2   0 -15   15.31    0.80 
   2   0  15   15.46    0.80 
   2   0  15   14.63    1.13 
   3   0  15    8.43    0.64 
   4  -1 -15   12.40    0.98 
   4  -1 -15   12.71    0.63 
  -4   1  15   13.34    0.67 
   3  -1 -15   18.08    0.90 
  -3   1  15   18.67    0.95 
  -3   1  15   17.86    0.90 
   2  -1 -15   19.67    0.98 
  -2   1  15   19.30    0.98 
  -2   1  15   20.28    1.03 
   1  -1 -15    1.29    0.09 
  -1   1  15    1.15    0.16 
  -1   1  15    1.14    0.10 
  -1   1  15    1.11    0.10 
   0  -1 -15    1.16    0.09 
   0   1  15    1.11    0.10 
   0   1  15    0.96    0.16 
   0   1  15    1.13    0.10 
   1   1  15    9.48    0.49 
   1   1  15    9.74    0.74 
   1   1  15    9.57    0.52 
   2   1  15   20.70    1.02 
   2   1  15   20.82    1.08 
   2   1  15   20.39    1.53 
  -3  -1 -15   30.23    2.45 
   3   1  15   33.89    1.71 
   3   1  15   34.78    2.40 
   4  -2 -15    3.47    0.18 
   3  -2 -15    0.75    0.07 
  -3   2  15    0.75    0.07 
   2  -2 -15   12.64    0.62 
  -2   2  15   12.71    0.66 
  -2   2  15   11.89    0.62 
   1  -2 -15    4.89    0.26 
  -1   2  15    4.74    0.27 
  -1   2  15    5.15    0.41 
  -1   2  15    4.65    0.26 
   0  -2 -15   13.98    0.71 
   0   2  15   13.98    0.71 
   0   2  15   14.98    1.07 
   0   2  15   13.62    0.75 
  -1  -2 -15   59.99    2.85 
   1   2  15   61.19    3.02 
   1   2  15   62.93    2.86 
   1   2  15   49.49    4.23 
  -2  -2 -15   11.33    0.55 
   2   2  15   10.42    0.84 
   2   2  15   10.64    0.62 
   2   2  15   10.91    0.59 
   2   2  15   11.25    0.56 
   3   2  15    3.79    0.34 
   3   2  15    4.35    0.24 
   4   2  15    0.10    0.07 
   4   2  15    0.13    0.04 
   3  -3 -15    6.74    0.33 
  -3   3  15    6.05    0.34 
   2  -3 -15   10.45    0.50 
  -2   3  15    9.26    0.53 
   1  -3 -15    0.76    0.08 
  -1   3  15    0.73    0.09 
  -1   3  15    0.72    0.07 
  -1   3  15    0.85    0.13 
  -1   3  15    0.83    0.07 
  -1   3  15    0.63    0.07 
   0  -3 -15   -0.01    0.04 
   0   3  15    0.01    0.04 
   0   3  15    0.04    0.04 
   0   3  15    0.06    0.05 
   0   3  15   -0.03    0.08 
  -1  -3 -15    9.68    0.48 
   1   3  15    9.68    0.51 
   1   3  15    8.50    0.73 
   1   3  15    9.63    0.55 
   1   3  15    9.38    0.48 
  -2  -3 -15   52.88    2.61 
   2   3  15   49.90    3.89 
   2   3  15   55.15    2.77 
   2   3  15   53.78    2.96 
   2   3  15   56.01    2.62 
  -3  -3 -15   62.29    2.88 
   3   3  15   53.30    4.27 
   3   3  15   61.57    3.05 
   4   3  15    7.47    0.38 
   4   3  15    6.45    0.53 
   2  -4 -15    0.81    0.07 
  -2   4  15    0.77    0.07 
   1  -4 -15    0.33    0.05 
  -1   4  15    0.23    0.05 
  -1   4  15    0.31    0.09 
  -1   4  15    0.41    0.05 
   0  -4 -15    0.31    0.05 
   0   4  15    0.34    0.06 
   0   4  15    0.32    0.05 
   0   4  15    0.43    0.10 
  -1  -4 -15    9.17    0.45 
   1   4  15    9.36    0.52 
   1   4  15    7.80    0.69 
   1   4  15    9.19    0.45 
   1   4  15    8.96    0.47 
   1   4  15    8.68    0.48 
  -2  -4 -15    2.86    0.18 
   2   4  15    3.10    0.21 
   2   4  15    3.70    0.30 
   2   4  15    3.03    0.18 
  -3  -4 -15    1.13    0.09 
   3   4  15    0.99    0.15 
   3   4  15    1.22    0.10 
   3   4  15    1.16    0.09 
  -4  -4 -15    2.04    0.12 
   4   4  15    1.76    0.18 
   4   4  15    1.99    0.12 
   1  -5 -15    5.48    0.28 
  -1   5  15    5.30    0.42 
  -1   5  15    5.37    0.30 
   0  -5 -15   13.76    0.66 
   0   5  15   11.91    0.75 
   0   5  15   14.22    0.71 
   0   5  15   13.18    0.99 
  -1  -5 -15    5.31    0.28 
   1   5  15    5.24    0.32 
   1   5  15    5.31    0.30 
   1   5  15    5.42    0.43 
  -2  -5 -15   16.90    0.79 
   2   5  15   16.87    0.90 
   2   5  15   13.63    1.18 
   2   5  15   15.87    0.84 
  -3  -5 -15    9.97    0.47 
   3   5  15    8.94    0.50 
   3   5  15    9.44    0.54 
   3   5  15    9.03    0.71 
  -4  -5 -15    3.89    0.20 
   4   5  15    3.79    0.23 
   0   6  15    2.90    0.24 
   0   6  15    2.99    0.17 
   1   6  15    4.60    0.40 
   1   6  15    5.56    0.28 
   1   6  15    4.97    0.30 
  -2  -6 -15    5.06    0.25 
   2   6  15    4.76    0.39 
   2   6  15    4.77    0.29 
   2   6  15    5.08    0.27 
  -3  -6 -15    3.29    0.17 
   3   6  15    3.14    0.20 
   3   6  15    3.35    0.18 
   3   6  15    2.85    0.26 
  -4  -6 -15    4.63    0.23 
   4   6  15    4.03    0.26 
   4   6  15    4.44    0.24 
  -2  -1  16    0.55    0.05 
  -1  -1  16    0.78    0.06 
  -3   0  16    7.33    0.37 
  -3   0  16    7.51    0.40 
   2   0 -16    6.26    0.57 
  -2   0  16    7.86    0.37 
  -2   0  16    7.61    0.39 
  -1   0  16    0.04    0.03 
  -1   0  16    0.03    0.04 
   0   0  16    0.06    0.07 
   0   0  16    0.06    0.04 
   0   0  16    0.03    0.03 
   1   0  16    0.80    0.12 
   1   0  16    0.84    0.07 
   1   0  16    0.90    0.08 
   3  -1 -16    7.43    0.61 
  -3   1  16    8.24    0.41 
  -3   1  16    7.69    0.39 
   2  -1 -16    5.85    0.49 
   2  -1 -16    5.88    0.31 
  -2   1  16    6.50    0.34 
  -2   1  16    6.40    0.32 
   1  -1 -16    1.56    0.17 
   1  -1 -16    1.50    0.10 
  -1   1  16    1.77    0.11 
  -1   1  16    1.65    0.11 
   0   1  16    3.13    0.17 
   0   1  16    2.71    0.27 
   0   1  16    3.08    0.18 
   1   1  16    0.12    0.05 
   1   1  16    0.13    0.04 
   1   1  16    0.17    0.04 
   1   1  16    0.07    0.09 
   2   1  16    0.88    0.13 
   2   1  16    0.94    0.08 
   3  -2 -16    9.62    0.48 
   2  -2 -16    3.11    0.17 
  -2   2  16    3.07    0.17 
  -2   2  16    3.29    0.18 
   1  -2 -16    0.06    0.04 
  -1   2  16    0.13    0.04 
  -1   2  16    0.10    0.08 
  -1   2  16    0.15    0.04 
   0  -2 -16    6.30    0.32 
   0   2  16    6.40    0.33 
   0   2  16    6.19    0.34 
   0   2  16    6.00    0.50 
  -1  -2 -16    0.25    0.04 
   1   2  16    0.45    0.11 
   1   2  16    0.23    0.05 
   1   2  16    0.20    0.05 
   1   2  16    0.29    0.06 
   2   2  16   22.44    1.23 
   2   2  16   23.93    1.15 
   2   2  16   19.63    1.62 
   3   2  16   13.98    0.68 
   3   2  16   11.71    0.95 
   2  -3 -16   18.25    0.90 
   1  -3 -16    5.87    0.29 
  -1   3  16    5.10    0.28 
  -1   3  16    5.41    0.33 
  -1   3  16    5.58    0.44 
   0  -3 -16    4.61    0.24 
   0   3  16    4.75    0.27 
   0   3  16    3.85    0.36 
   0   3  16    4.49    0.24 
   0   3  16    4.13    0.23 
  -1  -3 -16    8.17    0.40 
   1   3  16    8.14    0.42 
   1   3  16    6.49    0.60 
   1   3  16    8.27    0.40 
   1   3  16    7.91    0.46 
  -2  -3 -16    0.28    0.05 
   2   3  16    0.31    0.06 
   2   3  16    0.38    0.10 
   2   3  16    0.32    0.05 
  -3  -3 -16    1.39    0.08 
   3   3  16    1.22    0.14 
   3   3  16    1.16    0.09 
   1  -4 -16    1.69    0.10 
  -1   4  16    1.57    0.10 
  -1   4  16    1.46    0.15 
   0  -4 -16    0.04    0.04 
   0   4  16    0.03    0.04 
   0   4  16    0.01    0.03 
   0   4  16    0.02    0.07 
  -1  -4 -16    2.31    0.14 
   1   4  16    2.27    0.16 
   1   4  16    2.28    0.22 
  -2  -4 -16   16.07    0.77 
   2   4  16   16.22    1.16 
   2   4  16   14.64    0.81 
   2   4  16   15.29    0.87 
  -3  -4 -16    9.20    0.44 
   3   4  16    9.35    0.47 
   3   4  16    8.65    0.50 
   3   4  16    8.04    0.67 
   0  -5 -16    0.66    0.06 
   0   5  16    0.63    0.06 
   0   5  16    0.57    0.09 
  -1  -5 -16    6.48    0.32 
   1   5  16    6.10    0.36 
   1   5  16    6.13    0.34 
  -2  -5 -16    1.91    0.11 
   2   5  16    1.83    0.18 
   2   5  16    1.78    0.11 
   2   5  16    1.78    0.13 
  -3  -5 -16    2.84    0.15 
   3   5  16    2.51    0.23 
  -1   1  17    1.58    0.10 
  -1   1  17    1.72    0.10 
   0   1  17    0.02    0.03 
   0   1  17    0.00    0.04 
   0   1  17    0.04    0.03 
   0   1  17    0.00    0.06 
   1  -2 -17   29.68    1.51 
  -1   2  17   30.85    1.51 
  -1   2  17   31.43    1.60 
  -1   2  17   31.66    1.71 
   0  -2 -17   18.92    0.94 
   0   2  17   16.39    1.40 
   0   2  17   19.98    1.07 
   0   2  17   19.93    0.95 
   0   2  17   20.50    1.00 
   1   2  17    0.97    0.13 
   1   2  17    1.13    0.08 
   1   2  17    1.10    0.08 
   1   2  17    1.14    0.09 
   2   2  17    0.03    0.06 
   1  -3 -17    8.36    0.42 
   0  -3 -17    0.76    0.06 
   0   3  17    0.81    0.08 
   0   3  17    0.78    0.11 
   0   3  17    0.77    0.06 
  -1  -3 -17   21.62    0.99 
   1   3  17   20.89    1.05 
   1   3  17   20.97    1.12 
   1   3  17   17.06    1.47 
   2   3  17    6.07    0.34 
   2   3  17    6.35    0.32 
   2   3  17    5.41    0.46 
   0  -4 -17    2.90    0.16 
  -1  -4 -17    0.79    0.06 
   1   4  17    0.61    0.07 
   1   4  17    0.72    0.11 
  -2  -4 -17    0.17    0.03 
   2   4  17    0.10    0.06 
   2   4  17    0.17    0.04 
   0   0   0    0.00    0.00 
;
_shelx_hkl_checksum              93006
#END Tags that were not found in dictionaries
loop_
_space_group_symop_operation_xyz
'x, y, z'
'-x, -y, -z'
loop_
_atom_site_label
_atom_site_type_symbol
_atom_site_fract_x
_atom_site_fract_y
_atom_site_fract_z
_atom_site_U_iso_or_equiv
_atom_site_adp_type
_atom_site_occupancy
_atom_site_site_symmetry_order
_atom_site_calc_flag
_atom_site_refinement_flags_posn
_atom_site_refinement_flags_adp
_atom_site_refinement_flags_occupancy
_atom_site_disorder_assembly
_atom_site_disorder_group
N1 N 0.47599(12) 0.56123(11) 0.61229(6) 0.0268(2) Uani 1 1 d . . . . .
C1 C 0.43820(19) 0.68308(16) 0.75129(8) 0.0401(3) Uani 1 1 d . . . . .
H1A H 0.4348 0.5608 0.7851 0.060 Uiso 1 1 calc R U . . .
H1B H 0.3395 0.7901 0.7725 0.060 Uiso 1 1 calc R U . . .
H1C H 0.5642 0.6753 0.7651 0.060 Uiso 1 1 calc R U . . .
C2 C 0.40155(15) 0.71847(14) 0.64567(7) 0.0284(2) Uani 1 1 d . . . . .
C3 C 0.30082(14) 0.90553(14) 0.58665(7) 0.0272(2) Uani 1 1 d . . . . .
H3A H 0.2488 1.0131 0.6133 0.033 Uiso 1 1 calc R U . . .
C4 C 0.27642(13) 0.93479(13) 0.48863(7) 0.0241(2) Uani 1 1 d . . . . .
C5 C 0.35559(13) 0.77073(13) 0.45399(7) 0.0250(2) Uani 1 1 d . . . . .
H5A H 0.3424 0.7833 0.3876 0.030 Uiso 1 1 calc R U . . .
C6 C 0.45406(13) 0.58858(13) 0.51757(7) 0.0244(2) Uani 1 1 d . . . . .
C7 C 0.17768(13) 1.13212(13) 0.42203(7) 0.0236(2) Uani 1 1 d . . . . .
C8 C 0.08687(15) 1.16036(14) 0.33400(8) 0.0292(2) Uani 1 1 d . . . . .
H8A H 0.0792 1.0542 0.3186 0.035 Uiso 1 1 calc R U . . .
C9 C 0.00847(16) 1.34175(15) 0.26941(8) 0.0318(3) Uani 1 1 d . . . . .
H9A H -0.0528 1.3590 0.2100 0.038 Uiso 1 1 calc R U . . .
C10 C 0.01827(14) 1.49998(13) 0.29033(7) 0.0256(2) Uani 1 1 d . . . . .
C11 C 0.10139(14) 1.47440(13) 0.37905(7) 0.0262(2) Uani 1 1 d . . . . .
H11A H 0.1049 1.5818 0.3952 0.031 Uiso 1 1 calc R U . . .
C12 C 0.17938(14) 1.29247(14) 0.44420(7) 0.0263(2) Uani 1 1 d . . . . .
H12A H 0.2348 1.2770 0.5048 0.032 Uiso 1 1 calc R U . . .
P1 P -0.06268(3) 1.73041(3) 0.20384(2) 0.02666(7) Uani 1 1 d . U . . .
O1 O -0.05918(11) 1.88314(10) 0.24168(6) 0.0352(2) Uani 1 1 d . . . . .
O2 O -0.26418(10) 1.77673(10) 0.15582(5) 0.03240(19) Uani 1 1 d . . . . .
C13 C -0.43181(16) 1.83541(18) 0.20881(9) 0.0412(3) Uani 1 1 d . . . . .
H13A H -0.4358 1.9352 0.2393 0.049 Uiso 0.745(4) 1 calc R U P A 1
H13B H -0.4256 1.7223 0.2596 0.049 Uiso 0.745(4) 1 calc R U P A 1
H13C H -0.4117 1.8806 0.2632 0.049 Uiso 0.255(4) 1 calc R U P A 2
H13D H -0.4715 1.7300 0.2320 0.049 Uiso 0.255(4) 1 calc R U P A 2
C14 C -0.6037(3) 1.9140(3) 0.14378(15) 0.0556(6) Uani 0.745(4) 1 d . . P A 1
H14A H -0.6165 2.0340 0.0978 0.083 Uiso 0.745(4) 1 calc R U P A 1
H14B H -0.7162 1.9417 0.1803 0.083 Uiso 0.745(4) 1 calc R U P A 1
H14C H -0.5939 1.8189 0.1096 0.083 Uiso 0.745(4) 1 calc R U P A 1
C14' C -0.5912(10) 2.0217(12) 0.1204(5) 0.084(3) Uani 0.255(4) 1 d . U P A 2
H14D H -0.5463 2.1222 0.0990 0.126 Uiso 0.255(4) 1 calc R U P A 2
H14E H -0.7167 2.0771 0.1449 0.126 Uiso 0.255(4) 1 calc R U P A 2
H14F H -0.6019 1.9725 0.0666 0.126 Uiso 0.255(4) 1 calc R U P A 2
O3 O 0.0645(2) 1.7147(2) 0.11965(11) 0.0315(4) Uani 0.5122(17) 1 d . U P B 1
C15 C 0.0805(3) 1.5873(3) 0.05955(16) 0.0392(6) Uani 0.5122(17) 1 d . U P B 1
H15A H -0.0454 1.6295 0.0255 0.047 Uiso 0.5122(17) 1 calc R U P B 1
H15D H 0.1237 1.4521 0.0992 0.047 Uiso 0.5122(17) 1 calc R U P B 1
C16 C 0.2234(4) 1.5986(4) -0.01088(19) 0.0529(8) Uani 0.5122(17) 1 d . . P B 1
H16A H 0.1774 1.7322 -0.0510 0.079 Uiso 0.5122(17) 1 calc R U P B 1
H16B H 0.2393 1.5117 -0.0511 0.079 Uiso 0.5122(17) 1 calc R U P B 1
H16C H 0.3466 1.5593 0.0235 0.079 Uiso 0.5122(17) 1 calc R U P B 1
O3' O 0.0689(2) 1.6666(2) 0.11830(11) 0.0274(3) Uani 0.4878(17) 1 d . U P B 2
C15' C 0.0477(4) 1.8104(4) 0.03048(17) 0.0450(8) Uani 0.4878(17) 1 d . . P B 2
H15B H 0.0514 1.9250 0.0440 0.054 Uiso 0.4878(17) 1 calc R U P B 2
H15C H -0.0767 1.8530 -0.0051 0.054 Uiso 0.4878(17) 1 calc R U P B 2
C16' C 0.2068(5) 1.7231(4) -0.0271(2) 0.0672(10) Uani 0.4878(17) 1 d . . P B 2
H16D H 0.3280 1.6980 0.0045 0.101 Uiso 0.4878(17) 1 calc R U P B 2
H16E H 0.1853 1.8130 -0.0906 0.101 Uiso 0.4878(17) 1 calc R U P B 2
H16F H 0.2121 1.6008 -0.0333 0.101 Uiso 0.4878(17) 1 calc R U P B 2
loop_
_atom_site_aniso_label
_atom_site_aniso_U_11
_atom_site_aniso_U_22
_atom_site_aniso_U_33
_atom_site_aniso_U_23
_atom_site_aniso_U_13
_atom_site_aniso_U_12
N1 0.0300(4) 0.0198(3) 0.0278(4) -0.0077(3) 0.0071(3) -0.0080(3)
C1 0.0542(7) 0.0236(5) 0.0290(5) -0.0092(4) 0.0025(5) -0.0035(4)
C2 0.0321(4) 0.0218(4) 0.0283(5) -0.0090(3) 0.0071(4) -0.0081(3)
C3 0.0305(4) 0.0190(4) 0.0297(5) -0.0099(3) 0.0075(4) -0.0072(3)
C4 0.0239(4) 0.0184(4) 0.0294(5) -0.0069(3) 0.0069(3) -0.0088(3)
C5 0.0282(4) 0.0201(4) 0.0269(4) -0.0081(3) 0.0081(4) -0.0101(3)
C6 0.0248(4) 0.0197(4) 0.0291(4) -0.0085(3) 0.0082(3) -0.0095(3)
C7 0.0224(4) 0.0196(4) 0.0270(4) -0.0071(3) 0.0080(3) -0.0074(3)
C8 0.0365(4) 0.0218(4) 0.0320(5) -0.0094(3) 0.0044(4) -0.0141(3)
C9 0.0404(5) 0.0275(4) 0.0274(5) -0.0067(4) -0.0005(4) -0.0150(3)
C10 0.0271(4) 0.0195(4) 0.0269(4) -0.0056(3) 0.0069(4) -0.0079(3)
C11 0.0292(4) 0.0183(4) 0.0309(5) -0.0100(3) 0.0064(4) -0.0085(3)
C12 0.0274(4) 0.0217(4) 0.0273(4) -0.0084(3) 0.0030(4) -0.0074(3)
P1 0.02949(11) 0.01940(10) 0.02652(12) -0.00430(9) 0.00503(9) -0.00779(8)
O1 0.0420(4) 0.0206(3) 0.0389(4) -0.0056(3) 0.0026(3) -0.0112(2)
O2 0.0306(3) 0.0281(3) 0.0316(3) -0.0068(3) 0.0045(3) -0.0075(2)
C13 0.0334(5) 0.0418(5) 0.0482(6) -0.0198(4) 0.0139(5) -0.0128(4)
C14 0.0321(8) 0.0686(11) 0.0595(11) -0.0218(9) 0.0058(7) -0.0137(7)
C14' 0.048(3) 0.090(4) 0.073(4) -0.046(3) -0.011(3) 0.022(3)
O3 0.0414(6) 0.0266(6) 0.0315(7) -0.0119(5) 0.0113(5) -0.0177(4)
C15 0.0457(10) 0.0397(9) 0.0326(9) -0.0149(8) 0.0093(8) -0.0167(7)
C16 0.0515(13) 0.0652(15) 0.0396(11) -0.0255(10) 0.0162(10) -0.0179(11)
O3' 0.0302(4) 0.0200(4) 0.0265(5) -0.0046(4) 0.0058(4) -0.0072(4)
C15' 0.0473(13) 0.0370(13) 0.0289(11) 0.0058(10) 0.0068(10) -0.0071(10)
C16' 0.103(2) 0.0412(14) 0.0477(14) -0.0124(11) 0.0420(13) -0.0249(13)
loop_
_atom_type_symbol
_atom_type_description
_atom_type_scat_dispersion_real
_atom_type_scat_dispersion_imag
_atom_type_scat_source
C C 0.0181 0.0091 'International Tables Vol C Tables 4.2.6.8 and 6.1.1.4'
H H 0.0000 0.0000 'International Tables Vol C Tables 4.2.6.8 and 6.1.1.4'
N N 0.0311 0.0180 'International Tables Vol C Tables 4.2.6.8 and 6.1.1.4'
O O 0.0492 0.0322 'International Tables Vol C Tables 4.2.6.8 and 6.1.1.4'
P P 0.2955 0.4335 'International Tables Vol C Tables 4.2.6.8 and 6.1.1.4'
loop_
_geom_angle_atom_site_label_1
_geom_angle_atom_site_label_2
_geom_angle_atom_site_label_3
_geom_angle
_geom_angle_site_symmetry_3
C2 N1 C6 117.68(8) .
C2 C1 H1A 109.5 .
C2 C1 H1B 109.5 .
H1A C1 H1B 109.5 .
C2 C1 H1C 109.5 .
H1A C1 H1C 109.5 .
H1B C1 H1C 109.5 .
N1 C2 C3 122.65(9) .
N1 C2 C1 116.12(8) .
C3 C2 C1 121.21(10) .
C4 C3 C2 119.98(9) .
C4 C3 H3A 120.0 .
C2 C3 H3A 120.0 .
C3 C4 C5 117.22(8) .
C3 C4 C7 122.12(9) .
C5 C4 C7 120.61(9) .
C6 C5 C4 119.39(9) .
C6 C5 H5A 120.3 .
C4 C5 H5A 120.3 .
N1 C6 C5 123.08(9) .
N1 C6 C6 116.27(9) 2_666
C5 C6 C6 120.64(11) 2_666
C12 C7 C8 118.42(8) .
C12 C7 C4 120.68(9) .
C8 C7 C4 120.86(9) .
C9 C8 C7 120.42(10) .
C9 C8 H8A 119.8 .
C7 C8 H8A 119.8 .
C8 C9 C10 120.83(10) .
C8 C9 H9A 119.6 .
C10 C9 H9A 119.6 .
C11 C10 C9 118.93(9) .
C11 C10 P1 119.43(8) .
C9 C10 P1 121.56(8) .
C12 C11 C10 120.26(10) .
C12 C11 H11A 119.9 .
C10 C11 H11A 119.9 .
C11 C12 C7 121.03(10) .
C11 C12 H12A 119.5 .
C7 C12 H12A 119.5 .
O1 P1 O3 107.04(8) .
O1 P1 O2 115.27(4) .
O3 P1 O2 103.00(7) .
O1 P1 O3' 119.72(8) .
O2 P1 O3' 98.95(7) .
O1 P1 C10 113.61(5) .
O3 P1 C10 110.31(6) .
O2 P1 C10 107.07(5) .
O3' P1 C10 100.09(6) .
C13 O2 P1 119.47(8) .
O2 C13 C14 109.31(12) .
O2 C13 C14' 99.1(3) .
O2 C13 H13A 109.8 .
C14 C13 H13A 109.8 .
O2 C13 H13B 109.8 .
C14 C13 H13B 109.8 .
H13A C13 H13B 108.3 .
O2 C13 H13C 112.0 .
C14' C13 H13C 112.0 .
O2 C13 H13D 112.0 .
C14' C13 H13D 112.0 .
H13C C13 H13D 109.6 .
C13 C14 H14A 109.5 .
C13 C14 H14B 109.5 .
H14A C14 H14B 109.5 .
C13 C14 H14C 109.5 .
H14A C14 H14C 109.5 .
H14B C14 H14C 109.5 .
C13 C14' H14D 109.5 .
C13 C14' H14E 109.5 .
H14D C14' H14E 109.5 .
C13 C14' H14F 109.5 .
H14D C14' H14F 109.5 .
H14E C14' H14F 109.5 .
C15 O3 P1 121.90(16) .
O3 C15 C16 107.9(2) .
O3 C15 H15A 110.1 .
C16 C15 H15A 110.1 .
O3 C15 H15D 110.1 .
C16 C15 H15D 110.1 .
H15A C15 H15D 108.4 .
C15 C16 H16A 109.5 .
C15 C16 H16B 109.5 .
H16A C16 H16B 109.5 .
C15 C16 H16C 109.5 .
H16A C16 H16C 109.5 .
H16B C16 H16C 109.5 .
C15' O3' P1 119.57(14) .
O3' C15' C16' 108.4(2) .
O3' C15' H15B 110.0 .
C16' C15' H15B 110.0 .
O3' C15' H15C 110.0 .
C16' C15' H15C 110.0 .
H15B C15' H15C 108.4 .
C15' C16' H16D 109.5 .
C15' C16' H16E 109.5 .
H16D C16' H16E 109.5 .
C15' C16' H16F 109.5 .
H16D C16' H16F 109.5 .
H16E C16' H16F 109.5 .
loop_
_geom_bond_atom_site_label_1
_geom_bond_atom_site_label_2
_geom_bond_distance
_geom_bond_site_symmetry_2
N1 C2 1.3389(14) .
N1 C6 1.3442(13) .
C1 C2 1.5038(15) .
C1 H1A 0.9800 .
C1 H1B 0.9800 .
C1 H1C 0.9800 .
C2 C3 1.3926(13) .
C3 C4 1.3911(15) .
C3 H3A 0.9500 .
C4 C5 1.3957(14) .
C4 C7 1.4871(12) .
C5 C6 1.3911(12) .
C5 H5A 0.9500 .
C6 C6 1.4903(19) 2_666
C7 C12 1.3945(15) .
C7 C8 1.4020(15) .
C8 C9 1.3827(14) .
C8 H8A 0.9500 .
C9 C10 1.3969(16) .
C9 H9A 0.9500 .
C10 C11 1.3904(15) .
C10 P1 1.7888(9) .
C11 C12 1.3890(13) .
C11 H11A 0.9500 .
C12 H12A 0.9500 .
P1 O1 1.4629(9) .
P1 O3 1.5457(16) .
P1 O2 1.5885(8) .
P1 O3' 1.6265(16) .
O2 C13 1.4515(14) .
C13 C14 1.461(2) .
C13 C14' 1.710(6) .
C13 H13A 0.9900 .
C13 H13B 0.9900 .
C13 H13C 0.9900 .
C13 H13D 0.9900 .
C14 H14A 0.9800 .
C14 H14B 0.9800 .
C14 H14C 0.9800 .
C14' H14D 0.9800 .
C14' H14E 0.9800 .
C14' H14F 0.9800 .
O3 C15 1.461(3) .
C15 C16 1.504(4) .
C15 H15A 0.9900 .
C15 H15D 0.9900 .
C16 H16A 0.9800 .
C16 H16B 0.9800 .
C16 H16C 0.9800 .
O3' C15' 1.438(3) .
C15' C16' 1.485(4) .
C15' H15B 0.9900 .
C15' H15C 0.9900 .
C16' H16D 0.9800 .
C16' H16E 0.9800 .
C16' H16F 0.9800 .
