#------------------------------------------------------------------------------
#$Date: 2016-03-25 15:53:25 +0200 (Fri, 25 Mar 2016) $
#$Revision: 179941 $
#$URL: svn://www.crystallography.net/cod/cif/7/02/36/7023630.cif $
#------------------------------------------------------------------------------
#
# This file is available in the Crystallography Open Database (COD),
# http://www.crystallography.net/
#
# All data on this site have been placed in the public domain by the
# contributors.
#
data_7023630
loop_
_publ_author_name
'Lindqvist-Reis, Patric'
'Apostolidis, Christos'
'Walter, Olaf'
'Marsac, Remi'
'Banik, Nidhu Lal'
'Skripkin, Mikhail Yu'
'Rothe, J\"org'
'Morgenstern, Alfred'
_publ_section_title
;
 Structure and spectroscopy of hydrated neptunyl(vi) nitrate complexes.
;
_journal_issue                   43
_journal_name_full
'Dalton transactions (Cambridge, England : 2003)'
_journal_page_first              15275
_journal_page_last               15279
_journal_paper_doi               10.1039/c3dt51650d
_journal_volume                  42
_journal_year                    2013
_chemical_formula_moiety         'H6 N2 Np O11'
_chemical_formula_sum            'H6 N2 Np O11'
_chemical_formula_weight         447.07
_chemical_name_common            Trisaqua-Neptunyl-dinitrate
_chemical_name_systematic        tris-aqua-Neptunyldinitrate
_space_group_crystal_system      triclinic
_space_group_IT_number           2
_space_group_name_Hall           '-P 1'
_space_group_name_H-M_alt        'P -1'
_symmetry_space_group_name_Hall  '-P 1'
_symmetry_space_group_name_H-M   'P -1'
_atom_sites_solution_hydrogens   geom
_atom_sites_solution_primary     direct
_atom_sites_solution_secondary   difmap
_audit_creation_method           SHELXL-2013
_cell_angle_alpha                82.3280(10)
_cell_angle_beta                 82.0830(10)
_cell_angle_gamma                64.4870(10)
_cell_formula_units_Z            2
_cell_length_a                   7.0076(6)
_cell_length_b                   7.0747(6)
_cell_length_c                   9.9225(8)
_cell_measurement_reflns_used    6725
_cell_measurement_temperature    173(2)
_cell_measurement_theta_max      59.15
_cell_measurement_theta_min      6.403
_cell_volume                     438.21(6)
_computing_cell_refinement       'APEX II (Bruker, 2007)'
_computing_data_collection       'APEX II (Bruker, 2007)'
_computing_data_reduction        'SAINT (Bruker, 2007)'
_computing_molecular_graphics
'XPMA (Zsolnai, 1996), ORTEP (Farrugia, 1997)'
_computing_structure_refinement  'SHELXL-2013 (Sheldrick, 2013)'
_computing_structure_solution    'SHELXL-2013 (Sheldrick, 2013)'
_diffrn_ambient_temperature      173(2)
_diffrn_detector_area_resol_mean 66
_diffrn_measured_fraction_theta_full 0.998
_diffrn_measured_fraction_theta_max 0.999
_diffrn_measurement_device_type  'Bruker Apex II Quazar'
_diffrn_measurement_method       'combined omega- and phi-scan'
_diffrn_radiation_type           MoK\a
_diffrn_radiation_wavelength     0.71073
_diffrn_reflns_av_R_equivalents  0.0441
_diffrn_reflns_av_unetI/netI     0.0340
_diffrn_reflns_Laue_measured_fraction_full 0.998
_diffrn_reflns_Laue_measured_fraction_max 0.999
_diffrn_reflns_limit_h_max       9
_diffrn_reflns_limit_h_min       -9
_diffrn_reflns_limit_k_max       9
_diffrn_reflns_limit_k_min       -9
_diffrn_reflns_limit_l_max       13
_diffrn_reflns_limit_l_min       -13
_diffrn_reflns_number            10954
_diffrn_reflns_point_group_measured_fraction_full 0.998
_diffrn_reflns_point_group_measured_fraction_max 0.999
_diffrn_reflns_theta_full        25.242
_diffrn_reflns_theta_max         29.582
_diffrn_reflns_theta_min         2.079
_diffrn_source                   'fine-focus sealed tube'
_exptl_absorpt_coefficient_mu    11.912
_exptl_absorpt_correction_T_max  0.7459
_exptl_absorpt_correction_T_min  0.2924
_exptl_absorpt_correction_type   multi-scan
_exptl_absorpt_process_details   (sadabs)
_exptl_crystal_colour            red
_exptl_crystal_density_diffrn    3.388
_exptl_crystal_description       quader
_exptl_crystal_F_000             402
_exptl_crystal_size_max          0.272
_exptl_crystal_size_mid          0.213
_exptl_crystal_size_min          0.145
_refine_diff_density_max         2.128
_refine_diff_density_min         -3.927
_refine_diff_density_rms         0.352
_refine_ls_extinction_coef       0.204(5)
_refine_ls_extinction_expression Fc^*^=kFc[1+0.001xFc^2^\l^3^/sin(2\q)]^-1/4^
_refine_ls_extinction_method     SHELXL
_refine_ls_goodness_of_fit_ref   1.191
_refine_ls_hydrogen_treatment    refall
_refine_ls_matrix_type           full
_refine_ls_number_parameters     155
_refine_ls_number_reflns         2464
_refine_ls_number_restraints     0
_refine_ls_restrained_S_all      1.191
_refine_ls_R_factor_all          0.0286
_refine_ls_R_factor_gt           0.0266
_refine_ls_shift/su_max          0.001
_refine_ls_shift/su_mean         0.000
_refine_ls_structure_factor_coef Fsqd
_refine_ls_weighting_details
;
 w=1/[\s^2^(Fo^2^)+(0.0378P)^2^+0.1087P]
 where P=(Fo^2^+2Fc^2^)/3
;
_refine_ls_weighting_scheme      calc
_refine_ls_wR_factor_gt          0.0719
_refine_ls_wR_factor_ref         0.0751
_reflns_Friedel_coverage         0.000
_reflns_number_gt                2159
_reflns_number_total             2464
_reflns_threshold_expression     'I > 2\s(I)'
_cod_data_source_file            c3dt51650d.cif
_cod_data_source_block           cait85z
_cod_database_code               7023630
#BEGIN Tags that were not found in dictionaries:
_shelx_space_group_comment
;
The symmetry employed for this shelxl refinement is uniquely defined
by the following loop, which should always be used as a source of
symmetry information in preference to the above space-group names.
They are only intended as comments.
;
_shelx_estimated_absorpt_t_min   0.140
_shelx_estimated_absorpt_t_max   0.277
_shelxl_version_number           2013-2
_shelx_res_file
;
TITL cait85z in P-1
CELL 0.71073   7.0076   7.0747   9.9225  82.328  82.083  64.487
ZERR    2.00   0.0006   0.0006   0.0008   0.001   0.001   0.001
LATT 1
SFAC H  N  O  Np
UNIT 12  4  22  2
L.S. 48
ACTA 50
BOND $H
FMAP 2
PLAN 40
ACTA
SIZE 0.145 0.213 0.272
TEMP -100.000
WGHT    0.037800    0.108700
EXTI    0.203615
FVAR       0.27226
NP1   4    0.500000    0.500000    0.500000    10.50000    0.00554    0.00940 =
         0.00956   -0.00179    0.00052   -0.00316
NP2   4    0.500000    0.000000    1.000000    10.50000    0.00600    0.01186 =
         0.00979   -0.00065   -0.00009   -0.00260
N1    2    0.174009    0.884348    0.610600    11.00000    0.01331    0.01680 =
         0.01497   -0.00246    0.00376   -0.00789
N2    2    0.257535   -0.233224    0.954247    11.00000    0.01801    0.01976 =
         0.01791   -0.00243    0.00095   -0.01037
O1    3    0.401196    0.589250    0.340385    11.00000    0.01677    0.02323 =
         0.01425   -0.00106   -0.00274   -0.00701
O2    3    0.349802    0.880015    0.553720    11.00000    0.01280    0.01864 =
         0.02274   -0.00476    0.00578   -0.00873
O3    3    0.036608    1.039808    0.659551    11.00000    0.01721    0.01472 =
         0.03548   -0.00985    0.01121   -0.00395
O4    3    0.149741    0.717073    0.612076    11.00000    0.01497    0.01599 =
         0.02873   -0.00720    0.00580   -0.00845
O5    3    0.259464    0.330934    0.560966    11.00000    0.01695    0.01576 =
         0.03405   -0.01008    0.01220   -0.01048
O6    3    0.311872    0.223738    0.919317    11.00000    0.01602    0.02221 =
         0.02603    0.00287   -0.00439   -0.00366
O7    3    0.234322   -0.153436    1.065720    11.00000    0.02436    0.03138 =
         0.01231   -0.00627    0.00467   -0.01770
O8    3    0.150722   -0.320724    0.932815    11.00000    0.03093    0.03668 =
         0.02948   -0.00710   -0.00069   -0.02467
O9    3    0.398934   -0.212064    0.866441    11.00000    0.02667    0.04202 =
         0.01865   -0.01165    0.00863   -0.02274
O10   3    0.291507    0.100099    1.217233    11.00000    0.01578    0.02285 =
         0.02103   -0.00641    0.00697   -0.00848
O11   3    0.933011    0.471589    0.767926    11.00000    0.01629    0.02191 =
         0.02096   -0.00212   -0.00092   -0.00967
H5A   1    0.293767    0.218007    0.552397    11.00000    0.03425
H5B   1    0.161288    0.370175    0.612033    11.00000    0.07392
H10A  1    0.190326    0.042681    1.266131    11.00000    0.07058
H10B  1    0.241492    0.221485    1.229964    11.00000    0.05133
H11A  1    0.866838    0.397149    0.782227    11.00000    0.07456
H11B  1    0.994071    0.446727    0.864452    11.00000    0.08328

HKLF      4 1 1 0 0 0 1 0 0 0 1

REM  cait85z in P-1
REM R1 =  0.0266 for    2159 Fo > 4sig(Fo)  and  0.0286 for all    2464 data
REM    155 parameters refined using      0 restraints

END

WGHT      0.0380      0.0990

REM Highest difference peak  2.128,  deepest hole -3.927,  1-sigma level  0.352
Q1    1   0.5057  0.0007  0.9168  11.00000  0.05    2.13
Q2    1   0.4982  0.4949  0.5858  11.00000  0.05    2.08
Q3    1   0.3276  0.5115  0.5384  11.00000  0.05    1.16
Q4    1   0.4988  0.4988  0.3192  11.00000  0.05    1.04
Q5    1   0.4992 -0.0028  1.1821  11.00000  0.05    0.98
Q6    1   0.4721  0.2071  0.8446  11.00000  0.05    0.85
Q7    1   0.4308  0.0870  0.8374  11.00000  0.05    0.84
Q8    1   0.3163  0.5776  0.7213  11.00000  0.05    0.82
Q9    1   0.4720  0.7006  0.3415  11.00000  0.05    0.79
Q10   1   0.4177  0.3439  0.5822  11.00000  0.05    0.78
Q11   1   0.6491 -0.3790  0.9420  11.00000  0.05    0.77
Q12   1   0.4171 -0.0264  1.1592  11.00000  0.05    0.77
Q13   1   0.4216 -0.1604  1.0856  11.00000  0.05    0.72
Q14   1   0.3481  0.0145  1.3195  11.00000  0.05    0.67
Q15   1   0.3245  0.1366  1.1358  11.00000  0.05    0.67
Q16   1   0.5276  0.5998  0.2643  11.00000  0.05    0.67
Q17   1   0.4708 -0.1067  1.2322  11.00000  0.05    0.67
Q18   1   0.3460 -0.4670  0.8179  11.00000  0.05    0.66
Q19   1   0.4555  0.6121  0.1775  11.00000  0.05    0.65
Q20   1   0.1276  0.1753  0.4514  11.00000  0.05    0.64
Q21   1   0.8160  0.6212  0.8971  11.00000  0.05    0.63
Q22   1   0.5386  0.6519  0.1995  11.00000  0.05    0.61
Q23   1   0.4745  0.2245  0.6422  11.00000  0.05    0.61
Q24   1   0.3410  0.2814  1.0451  11.00000  0.05    0.60
Q25   1   0.4884 -0.0083  1.2713  11.00000  0.05    0.60
Q26   1   0.4574  0.1099  0.6832  11.00000  0.05    0.60
Q27   1   0.5873  0.5270  0.3408  11.00000  0.05    0.59
Q28   1   0.5162  0.2663  0.8535  11.00000  0.05    0.59
Q29   1   0.2792  0.1191  0.9819  11.00000  0.05    0.59
Q30   1   0.5999  0.7221  0.6292  11.00000  0.05    0.57
Q31   1   0.5450  0.3965  0.3035  11.00000  0.05    0.57
Q32   1   0.1469 -0.5405  0.9620  11.00000  0.05    0.57
Q33   1   0.1901 -0.1480  1.0989  11.00000  0.05    0.56
Q34   1   0.4930  0.9334  0.4939  11.00000  0.05    0.56
Q35   1   0.1581  0.2205  1.1081  11.00000  0.05    0.56
Q36   1   0.4638 -0.1605  1.3013  11.00000  0.05    0.56
Q37   1   0.3753  0.8840  0.6342  11.00000  0.05    0.55
Q38   1   0.5274  0.4865  0.2225  11.00000  0.05    0.55
Q39   1   0.2795  0.4292  0.9746  11.00000  0.05    0.54
Q40   1   0.4992 -0.1780  0.7618  11.00000  0.05    0.54
;
_shelx_res_checksum              99947
_shelx_hkl_file
;
   1   0   0  449.93   26.34
   1   0   0  382.14   24.00
  -2   0   0  346.72   21.88
   2   0   0  348.70   20.27
   2   0   0  328.25   19.91
   2   0   0  345.77   21.71
   2   0   0  344.58   20.79
  -3   0   0  571.74   31.10
   3   0   0  522.82   31.80
   3   0   0  483.59   30.89
  -4   0   0  586.65   35.57
  -4   0   0  606.56   32.86
   4   0   0  541.21   32.91
   4   0   0  542.35   35.38
   4   0   0  516.80   33.84
  -5   0   0  497.92   28.31
   5   0   0  472.46   29.13
   5   0   0  475.27   30.58
   5   0   0  474.43   28.37
  -6   0   0  409.87   23.11
  -6   0   0  390.80   26.53
   6   0   0  371.42   25.06
   6   0   0  385.41   23.17
  -7   0   0  273.44   19.23
  -7   0   0  271.89   16.63
   7   0   0  289.44   18.30
   7   0   0  276.58   16.69
  -8   0   0  225.13   16.53
  -8   0   0  221.95   14.24
   8   0   0  250.19   15.84
   8   0   0  242.35   14.25
   8  -1   0    0.20    0.50
   8  -1   0    0.40    0.31
  -8   1   0    0.06    0.44
  -8   1   0    0.07    0.32
   7  -1   0    1.95    0.43
   7  -1   0    0.88    0.57
  -7   1   0    3.47    0.56
   6  -1   0   -0.16    0.18
   6  -1   0    1.59    0.58
  -6   1   0   -0.29    0.14
  -6   1   0    0.35    0.36
   5  -1   0    6.77    0.70
   5  -1   0    6.13    0.98
   5  -1   0    6.25    0.63
  -5   1   0    7.23    0.64
  -5   1   0    5.82    0.91
   4  -1   0   63.43    4.26
   4  -1   0   67.58    4.67
   4  -1   0   70.09    4.05
  -4   1   0   66.96    4.47
  -4   1   0   63.12    4.03
   3  -1   0    2.96    0.30
   3  -1   0    3.31    0.37
   3  -1   0    2.29    0.39
   3  -1   0    3.42    0.59
  -3   1   0    3.14    0.29
  -3   1   0    2.44    0.34
   2  -1   0   59.85    3.84
   2  -1   0   59.64    4.35
   2  -1   0   61.06    4.10
   1  -1   0   85.66    5.20
   1  -1   0   80.62    5.47
   1  -1   0   83.18    5.87
   0  -1   0   23.12    1.49
   0  -1   0   18.08    1.36
   0  -1   0   17.54    1.27
  -1  -1   0   65.24    3.77
  -1  -1   0   61.63    4.25
  -1  -1   0   58.62    4.08
  -1  -1   0   62.62    3.75
  -1  -1   0   66.50    3.85
   1   1   0   60.97    4.00
   1   1   0   66.49    3.79
   1   1   0   56.76    3.73
   1   1   0   59.23    3.69
  -3  -1   0  116.09    7.20
  -3  -1   0  116.08    6.72
   3   1   0   94.30    6.64
   3   1   0  121.15    6.74
   3   1   0  104.83    7.19
  -4  -1   0   29.31    1.88
  -4  -1   0   28.67    1.86
   4   1   0   30.21    1.89
   4   1   0   27.56    2.05
   4   1   0   22.82    1.80
   4   1   0   22.90    1.87
  -5  -1   0    8.66    0.83
  -5  -1   0   10.41    0.75
  -5  -1   0    8.01    1.00
   5   1   0    8.20    0.92
   5   1   0    9.83    1.00
   5   1   0   10.62    0.89
   5   1   0    9.86    0.82
  -6  -1   0   20.83    1.97
  -6  -1   0   21.50    1.62
   6   1   0   19.46    1.80
   6   1   0   21.06    1.85
   6   1   0   23.34    1.68
  -7  -1   0    2.17    0.63
  -7  -1   0    1.10    0.38
   7   1   0    2.03    0.63
   7   1   0    0.74    0.39
  -8  -1   0   -0.22    0.36
  -8  -1   0   -0.26    0.28
   8   1   0   -0.21    0.35
   8   1   0    0.02    0.32
  -9  -1   0    2.18    0.64
  -9  -1   0    2.74    0.91
   9   1   0    5.25    1.17
   9   1   0    3.52    0.70
   7  -2   0  267.36   15.84
   7  -2   0  296.88   17.70
  -7   2   0  246.37   15.84
  -7   2   0  250.11   18.40
   6  -2   0  294.87   17.80
   6  -2   0  263.73   16.01
  -6   2   0  259.14   15.98
  -6   2   0  260.15   18.55
   5  -2   0  354.91   21.67
   5  -2   0  363.05   23.72
   5  -2   0  359.88   22.44
  -5   2   0  366.63   24.95
  -5   2   0  388.26   21.63
   4  -2   0  469.85   32.41
   4  -2   0  529.49   30.93
   4  -2   0  553.25   29.87
  -4   2   0  444.62   29.88
  -4   2   0  540.91   29.80
   3  -2   0  340.87   23.57
   3  -2   0  367.14   22.49
   3  -2   0  390.38   21.63
  -3   2   0  372.98   21.57
   2  -2   0  841.22   48.35
   2  -2   0  745.11   54.37
   1  -2   0  523.48   34.76
   1  -2   0  448.96   32.12
   1  -2   0  552.53   30.82
   0  -2   0  399.01   24.89
   0  -2   0  407.23   28.99
   0  -2   0  446.90   25.93
   0   2   0  396.56   24.88
   0   2   0  470.75   24.95
  -1  -2   0  367.79   27.77
  -1  -2   0  407.93   24.06
  -1  -2   0  343.45   25.86
  -1  -2   0  446.19   24.61
   1   2   0  463.15   24.26
   1   2   0  406.91   23.59
  -2  -2   0  705.71   44.65
  -2  -2   0  659.34   40.81
  -2  -2   0  666.67   42.95
  -2  -2   0  671.15   39.64
   2   2   0  735.55   42.56
   2   2   0  613.89   39.14
   2   2   0  630.61   38.46
  -3  -2   0  532.20   34.11
  -3  -2   0  565.95   34.09
  -3  -2   0  648.04   36.95
  -3  -2   0  565.99   38.76
   3   2   0  523.85   34.17
   3   2   0  627.00   36.84
   3   2   0  608.92   34.02
   3   2   0  566.68   33.47
  -4  -2   0  533.81   35.64
  -4  -2   0  545.26   31.36
  -4  -2   0  594.33   33.87
  -4  -2   0  540.36   31.32
   4   2   0  507.66   30.78
   4   2   0  505.00   33.51
   4   2   0  527.48   31.41
   4   2   0  492.58   31.20
  -5  -2   0  499.08   29.31
  -5  -2   0  500.68   33.42
  -5  -2   0  539.93   31.62
   5   2   0  442.94   28.87
   5   2   0  516.14   29.44
   5   2   0  474.74   31.44
  -6  -2   0  510.31   34.11
  -6  -2   0  510.40   29.87
   6   2   0  468.66   32.07
   6   2   0  516.34   29.99
   6   2   0  516.00   29.49
  -7  -2   0  469.01   29.01
  -7  -2   0  482.49   33.21
   7   2   0  509.42   28.77
   7   2   0  498.97   29.15
   7   2   0  484.20   31.22
  -8  -2   0  176.79   11.28
  -8  -2   0  169.86   13.01
   8   2   0  191.60   11.32
   8   2   0  192.55   11.49
   8   2   0  183.47   12.24
  -9  -2   0  176.25   13.44
  -9  -2   0  176.01   11.62
   9   2   0  201.79   12.77
   9   2   0  192.97   11.63
   7  -3   0    0.76    0.37
   7  -3   0    0.76    0.66
  -7   3   0    0.88    0.62
  -7   3   0    0.90    0.37
   6  -3   0    1.14    0.63
   6  -3   0    0.55    0.26
  -6   3   0    0.59    0.45
  -6   3   0    0.87    0.30
   5  -3   0    2.52    0.57
   5  -3   0    2.74    0.73
   5  -3   0    2.59    0.37
  -5   3   0    2.13    0.61
  -5   3   0    2.90    0.39
   4  -3   0    0.25    0.12
   4  -3   0   -0.01    0.24
   4  -3   0    0.02    0.20
  -4   3   0    0.23    0.25
  -4   3   0    0.18    0.10
   3  -3   0    9.97    1.04
   3  -3   0   10.11    0.97
   3  -3   0   11.16    1.15
   2  -3   0   13.84    1.29
   2  -3   0   13.69    1.19
   2  -3   0   16.75    1.42
   1  -3   0   11.28    1.06
   1  -3   0    8.49    0.85
   1  -3   0    9.93    0.99
   0  -3   0   10.49    0.71
   0  -3   0    7.80    0.77
   0  -3   0    8.66    0.95
   0  -3   0    9.74    0.65
   0   3   0    9.71    0.65
   0   3   0    7.52    0.65
  -1  -3   0   20.71    1.44
  -1  -3   0   22.78    1.35
   1   3   0   18.76    1.36
   1   3   0   18.58    1.31
  -2  -3   0    4.93    0.51
  -2  -3   0    5.73    0.62
   2   3   0    5.32    0.52
   2   3   0    5.26    0.49
  -3  -3   0    4.51    0.52
  -3  -3   0    5.29    0.60
  -3  -3   0    4.77    0.55
  -3  -3   0    6.15    0.63
   3   3   0    3.91    0.45
   3   3   0    4.84    0.50
   3   3   0    6.63    0.64
   3   3   0    4.80    0.52
  -4  -3   0   -0.14    0.16
  -4  -3   0   -0.39    0.13
  -4  -3   0   -0.39    0.13
  -4  -3   0   -0.40    0.16
   4   3   0   -0.49    0.15
   4   3   0   -0.48    0.10
   4   3   0   -0.28    0.13
   4   3   0   -0.34    0.11
  -5  -3   0    3.14    0.60
  -5  -3   0    3.03    0.46
  -5  -3   0    4.28    0.57
  -5  -3   0    2.13    0.46
   5   3   0    2.77    0.48
   5   3   0    3.01    0.44
   5   3   0    3.61    0.58
   5   3   0    3.78    0.60
  -6  -3   0    9.61    0.99
  -6  -3   0    9.87    1.19
   6   3   0    7.44    0.96
   6   3   0   11.08    1.09
   6   3   0   10.53    1.08
  -7  -3   0   14.82    1.44
  -7  -3   0   15.97    1.76
   7   3   0   14.89    1.54
   7   3   0   17.30    1.57
   7   3   0   18.97    1.57
  -8  -3   0    2.41    0.74
  -8  -3   0    1.97    0.57
   8   3   0    1.22    0.50
   8   3   0    2.35    0.68
   8   3   0    2.06    0.59
  -9  -3   0    1.33    0.69
  -9  -3   0    1.96    0.64
   9   3   0    2.33    0.73
   9   3   0    1.69    0.60
   9   3   0    1.17    0.61
   6  -4   0  241.57   14.11
   6  -4   0  238.55   15.91
  -6   4   0  245.45   14.08
  -6   4   0  210.34   16.40
   5  -4   0  172.83   12.63
   5  -4   0  208.99   13.62
   5  -4   0  212.49   11.99
  -5   4   0  193.25   14.01
  -5   4   0  211.90   11.96
   4  -4   0  344.80   23.70
   4  -4   0  361.38   22.57
   4  -4   0  386.97   21.51
  -4   4   0  384.89   24.87
  -4   4   0  346.30   21.46
   3  -4   0  341.30   23.76
   3  -4   0  380.76   25.40
   3  -4   0  368.78   22.69
  -3   4   0  379.91   24.93
   2  -4   0  467.80   28.28
   2  -4   0  466.60   29.61
   2  -4   0  453.19   31.73
   1  -4   0  342.14   23.97
   1  -4   0  363.77   21.35
   1  -4   0  344.27   20.46
   1  -4   0  331.16   22.34
  -1   4   0  357.35   20.37
   0  -4   0  483.96   29.59
   0  -4   0  541.60   29.65
   0  -4   0  510.59   30.63
   0  -4   0  471.14   34.59
   0   4   0  508.80   29.54
  -1  -4   0  544.38   33.03
  -1  -4   0  579.76   32.04
   1   4   0  540.39   32.03
   1   4   0  511.86   31.46
  -2  -4   0  719.23   44.12
  -2  -4   0  631.75   49.71
  -2  -4   0  787.83   43.26
   2   4   0  768.61   43.08
   2   4   0  724.89   42.10
  -3  -4   0  439.21   29.28
  -3  -4   0  482.82   29.28
  -3  -4   0  525.28   30.11
   3   4   0  460.12   28.71
   3   4   0  517.59   29.20
   3   4   0  550.10   31.28
  -4  -4   0  417.38   28.39
  -4  -4   0  418.34   25.04
  -4  -4   0  451.28   25.01
  -4  -4   0  406.52   27.08
   4   4   0  446.63   25.10
   4   4   0  398.54   24.51
   4   4   0  432.60   26.64
   4   4   0  401.14   24.86
  -5  -4   0  639.17   44.21
  -5  -4   0  709.54   40.93
  -5  -4   0  781.16   46.56
  -5  -4   0  683.61   40.89
   5   4   0  655.57   40.10
   5   4   0  656.09   40.99
   5   4   0  743.03   43.69
   5   4   0  674.02   40.72
  -6  -4   0  334.03   20.86
  -6  -4   0  305.35   18.29
   6   4   0  303.04   18.33
   6   4   0  281.27   19.38
   6   4   0  295.41   17.92
  -7  -4   0  263.11   18.23
  -7  -4   0  267.30   16.01
   7   4   0  273.34   16.04
   7   4   0  255.18   17.00
   7   4   0  254.64   15.77
  -8  -4   0  268.01   16.23
  -8  -4   0  260.91   18.50
   8   4   0  251.68   17.24
   8   4   0  269.46   16.05
   8   4   0  273.85   16.23
  -9  -4   0  232.57   14.71
  -9  -4   0  229.33   16.83
   9   4   0  226.69   15.60
   9   4   0  246.26   14.57
   9   4   0  250.78   14.74
   5  -5   0    0.06    0.20
   5  -5   0    0.11    0.51
   5  -5   0   -0.29    0.30
  -5   5   0    0.21    0.27
  -5   5   0   -0.37    0.34
   4  -5   0    0.42    0.39
   4  -5   0    0.17    0.39
   4  -5   0    0.67    0.20
  -4   5   0    0.50    0.38
  -4   5   0    0.72    0.25
   3  -5   0    2.82    0.65
   3  -5   0    2.23    0.72
   3  -5   0    2.77    0.33
   3  -5   0    2.36    0.54
  -3   5   0    2.45    0.33
  -3   5   0    2.23    0.57
   2  -5   0    3.32    0.65
   2  -5   0    2.16    0.50
  -2   5   0    2.20    0.47
   1  -5   0    4.68    0.71
   1  -5   0    3.87    0.66
   1  -5   0    3.60    0.48
  -1   5   0    3.22    0.50
  -1   5   0    3.25    0.43
   0  -5   0   10.18    1.17
   0  -5   0    7.90    0.89
   0  -5   0    8.96    0.73
   0   5   0    9.68    0.71
   0   5   0    7.59    0.68
   0   5   0    6.33    0.80
   0   5   0    9.09    0.76
  -1  -5   0   11.33    0.88
  -1  -5   0   12.71    1.05
   1   5   0   10.14    0.96
   1   5   0   10.54    0.84
  -2  -5   0    5.07    0.53
  -2  -5   0    4.80    0.58
  -2  -5   0    7.24    1.11
   2   5   0    4.78    0.63
   2   5   0    5.68    0.52
  -3  -5   0   16.68    1.18
  -3  -5   0   18.34    1.80
  -3  -5   0   15.91    1.23
   3   5   0   13.95    1.17
   3   5   0   13.60    1.14
   3   5   0   13.59    1.11
  -4  -5   0    0.13    0.25
  -4  -5   0   -0.36    0.12
  -4  -5   0    0.57    0.42
  -4  -5   0   -0.05    0.23
   4   5   0    0.16    0.14
   4   5   0   -0.11    0.11
   4   5   0    0.07    0.16
  -5  -5   0   31.81    2.24
  -5  -5   0   28.21    2.03
  -5  -5   0   30.24    2.45
   5   5   0   24.83    1.93
   5   5   0   25.06    2.03
   5   5   0   25.58    2.01
   5   5   0   32.67    2.20
  -6  -5   0   31.97    2.23
  -6  -5   0   26.66    2.35
   6   5   0   23.25    1.92
   6   5   0   23.19    1.83
   6   5   0   27.87    2.11
   6   5   0   22.11    1.90
  -7  -5   0    6.01    1.06
  -7  -5   0    9.51    1.39
   7   5   0    6.82    1.03
   7   5   0    9.78    1.24
   7   5   0    8.93    0.98
  -8  -5   0    0.33    0.44
  -8  -5   0    0.48    0.53
   8   5   0    0.95    0.55
   8   5   0    1.20    0.55
   8   5   0    0.85    0.44
  -9  -5   0    0.11    0.55
  -9  -5   0    0.74    0.64
   9   5   0    1.09    0.59
   9   5   0    1.06    0.59
   9   5   0    1.46    0.56
   4  -6   0  204.89   12.95
   4  -6   0  211.06   13.85
  -4   6   0  230.37   12.96
   3  -6   0  207.64   13.39
   3  -6   0  225.58   14.28
  -3   6   0  237.10   13.34
   2  -6   0  338.31   22.15
   2  -6   0  352.20   21.22
  -2   6   0  376.56   21.12
   1  -6   0  226.89   12.80
   1  -6   0  200.80   13.43
   1  -6   0  211.04   14.94
  -1   6   0  211.37   12.69
   0  -6   0  313.34   20.10
   0  -6   0  350.86   22.71
   0  -6   0  333.24   19.32
   0   6   0  316.09   19.20
   0   6   0  311.83   19.20
  -1  -6   0  416.03   25.94
  -1  -6   0  431.00   25.06
  -1  -6   0  468.21   29.47
   1   6   0  395.14   24.73
   1   6   0  407.72   24.96
  -2  -6   0  291.19   17.15
  -2  -6   0  294.10   17.76
  -2  -6   0  293.86   20.41
   2   6   0  272.44   16.90
   2   6   0  286.05   17.05
  -3  -6   0  422.48   33.20
  -3  -6   0  490.77   28.27
  -3  -6   0  499.90   29.15
   3   6   0  473.28   27.76
   3   6   0  494.31   28.17
  -4  -6   0  379.72   22.48
  -4  -6   0  388.11   23.13
  -4  -6   0  344.33   26.56
   4   6   0  391.49   22.40
   4   6   0  384.85   23.91
   4   6   0  371.96   22.08
  -5  -6   0  293.24   17.50
  -5  -6   0  316.52   21.06
   5   6   0  281.74   17.36
   5   6   0  293.15   18.52
   5   6   0  274.13   17.17
  -6  -6   0  250.80   15.64
   6   6   0  272.71   16.60
   6   6   0  259.01   15.44
   6   6   0  250.97   15.52
   7   6   0  416.13   24.98
   7   6   0  432.11   27.05
   8   6   0  286.93   17.30
   8   6   0  286.33   18.58
   9   6   0  227.52   13.78
   9   6   0  216.16   14.62
   3  -7   0    0.51    0.36
   3  -7   0    0.99    0.57
  -3   7   0    0.85    0.32
   2  -7   0    0.09    0.38
   2  -7   0    0.63    0.31
  -2   7   0    0.50    0.26
   1  -7   0    2.87    0.51
   1  -7   0    2.52    0.67
  -1   7   0    3.25    0.79
  -1   7   0    2.61    0.45
   0  -7   0    0.64    0.36
   0  -7   0    0.68    0.43
   0  -7   0    0.09    0.20
   0   7   0    0.39    0.35
   0   7   0    0.55    0.23
  -1  -7   0    0.45    0.52
  -1  -7   0    0.03    0.27
  -1  -7   0    0.65    0.25
   1   7   0    0.52    0.24
   1   7   0    0.26    0.27
  -2  -7   0    0.31    0.51
  -2  -7   0    0.09    0.22
  -2  -7   0    0.20    0.27
   2   7   0    0.22    0.20
   2   7   0   -0.06    0.20
  -3  -7   0    1.15    0.41
  -3  -7   0    1.06    0.34
  -3  -7   0    1.22    0.76
   3   7   0    1.07    0.33
   3   7   0    1.00    0.39
  -4  -7   0    2.27    0.49
  -4  -7   0    1.63    0.47
  -4  -7   0    3.88    1.12
   4   7   0    2.73    0.47
   4   7   0    2.19    0.47
   4   7   0    1.62    0.49
  -5  -7   0    3.51    1.10
  -5  -7   0    2.23    0.54
   5   7   0    3.02    0.56
   5   7   0    2.44    0.57
  -6  -7   0    2.41    1.04
  -6  -7   0    0.80    0.39
   6   7   0    1.87    0.52
   6   7   0    0.62    0.32
  -7  -7   0    1.88    1.04
   7   7   0    1.00    0.44
   8   7   0    1.15    0.48
   1  -8   0  202.74   12.89
   1  -8   0  216.47   13.83
  -1   8   0  215.01   12.82
  -1   8   0  218.47   13.25
   0  -8   0  201.22   12.59
   0  -8   0  207.71   13.43
   0   8   0  206.03   12.55
   0   8   0  218.34   12.86
  -1  -8   0  213.16   14.35
  -1  -8   0  187.71   12.00
  -1  -8   0  186.89   12.69
   1   8   0  207.18   12.14
   1   8   0  194.42   11.94
  -2  -8   0  176.62   11.95
  -2  -8   0  212.33   13.78
  -2  -8   0  180.48   11.39
   2   8   0  184.37   11.39
   2   8   0  181.14   11.31
  -3  -8   0  294.28   20.43
  -3  -8   0  271.65   17.73
  -3  -8   0  280.36   17.09
   3   8   0  285.73   16.94
   3   8   0  285.34   17.03
  -4  -8   0  210.86   14.23
  -4  -8   0  224.61   13.77
  -4  -8   0  241.01   16.90
   4   8   0  227.95   13.70
   4   8   0  228.55   13.64
  -5  -8   0  258.39   18.95
  -5  -8   0  244.90   15.58
   5   8   0  259.19   15.36
   5   8   0  261.08   15.47
  -6  -8   0  178.94   11.45
  -6  -8   0  199.92   14.36
   6   8   0  180.61   11.33
   6   8   0  182.21   11.32
  -7  -8   0  281.46   19.86
   7   8   0  247.00   15.81
  -8  -8   0  196.62   14.13
   8   8   0  157.24   10.68
  -1  -9   0    0.18    0.41
  -1  -9   0    0.36    0.30
   1   9   0    0.15    0.25
   1   9   0    0.40    0.45
  -2  -9   0    6.36    0.92
  -2  -9   0    7.29    1.21
   2   9   0    7.26    1.17
   2   9   0    6.27    0.88
  -3  -9   0    1.01    0.48
  -3  -9   0    0.17    0.65
  -3  -9   0    0.26    0.31
   3   9   0    0.64    0.48
   3   9   0   -0.18    0.26
  -4  -9   0    1.07    0.83
  -4  -9   0    0.24    0.35
  -4  -9   0    0.12    0.31
   4   9   0    0.03    0.28
   4   9   0    0.34    0.39
  -5  -9   0    1.27    1.06
  -5  -9   0    0.25    0.39
   5   9   0    1.43    0.48
   5   9   0    0.80    0.47
  -6  -9   0    0.53    0.45
  -6  -9   0    0.98    0.99
   6   9   0    1.67    0.61
   6   9   0    1.02    0.49
  -7  -9   0    1.66    1.13
   7   9   0    2.08    0.66
   6   9  -1  173.04   10.94
   6   9  -1  179.41   10.95
  -6  -9   1  166.37   11.04
  -6  -9   1  183.15   13.86
   5   9  -1  141.81    8.84
   5   9  -1  141.53    8.77
  -5  -9   1  142.41   11.13
  -5  -9   1  133.22    8.86
  -5  -9   1  135.06    9.11
   4   9  -1  175.98   10.68
   4   9  -1  170.34   10.70
  -4  -9   1  166.09   10.71
  -4  -9   1  159.35   11.11
  -4  -9   1  187.86   13.20
   3   9  -1  184.39   11.33
   3   9  -1  191.23   11.47
  -3  -9   1  173.11   11.37
  -3  -9   1  184.68   11.97
   2   9  -1  187.39   11.36
   2   9  -1  200.41   11.61
  -2  -9   1  165.24   11.40
  -2  -9   1  185.94   12.11
   1   9  -1  178.86   11.21
   1   9  -1  211.10   11.66
  -1  -9   1  164.23   11.27
  -1  -9   1  181.19   12.09
   8   8  -1    2.66    0.71
  -8  -8   1    2.80    1.38
   7   8  -1    4.63    0.92
  -7  -8   1    3.61    1.40
   6   8  -1    3.22    0.68
   6   8  -1    3.24    0.74
  -6  -8   1    3.49    0.74
  -6  -8   1    2.87    1.15
   5   8  -1    0.14    0.31
   5   8  -1    0.32    0.30
  -5  -8   1    0.26    0.65
  -5  -8   1   -0.06    0.28
  -5  -8   1    0.06    0.28
   4   8  -1    4.67    0.75
   4   8  -1    4.78    0.87
  -4  -8   1    4.79    0.78
  -4  -8   1    5.62    0.91
  -4  -8   1    7.39    1.62
   3   8  -1   -0.07    0.27
   3   8  -1    0.30    0.29
  -3  -8   1    0.34    0.31
  -3  -8   1    1.22    0.73
  -3  -8   1    0.05    0.28
   2   8  -1    0.66    0.31
   2   8  -1    0.44    0.38
  -2  -8   1    0.70    0.43
  -2  -8   1    1.14    0.69
  -2  -8   1    0.42    0.32
   1   8  -1    1.32    0.56
   1   8  -1    1.41    0.39
  -1  -8   1    0.86    0.35
  -1  -8   1    0.86    0.48
   0   8  -1    2.11    0.49
   0   8  -1    1.95    0.69
   0  -8   1    1.92    0.49
   0  -8   1    1.81    0.65
  -1   8  -1    2.17    0.79
  -1   8  -1    2.25    0.49
   1  -8   1    3.82    0.95
   1  -8   1    1.86    0.50
   8   7  -1  276.75   17.39
   8   7  -1  256.61   16.12
   7   7  -1  274.33   16.83
   7   7  -1  243.24   15.63
   6   7  -1  264.11   16.25
   6   7  -1  260.09   16.12
   6   7  -1  273.81   17.35
  -6  -7   1  270.50   16.40
  -6  -7   1  280.79   19.98
   5   7  -1  254.97   15.44
   5   7  -1  261.87   16.47
   5   7  -1  245.80   15.29
  -5  -7   1  264.52   18.82
  -5  -7   1  255.45   15.57
   4   7  -1  305.85   18.37
   4   7  -1  317.09   19.63
   4   7  -1  304.15   18.18
  -4  -7   1  292.17   21.95
  -4  -7   1  313.96   18.47
  -4  -7   1  304.92   19.00
   3   7  -1  328.93   19.39
   3   7  -1  327.30   19.55
  -3  -7   1  334.04   19.68
  -3  -7   1  316.43   20.29
  -3  -7   1  331.79   23.33
   2   7  -1  279.58   16.86
   2   7  -1  270.40   16.92
  -2  -7   1  268.43   17.63
  -2  -7   1  325.94   20.18
  -2  -7   1  275.92   17.02
   1   7  -1  229.59   14.23
   1   7  -1  222.58   14.16
  -1  -7   1  227.02   14.86
  -1  -7   1  265.89   16.83
  -1  -7   1  236.38   14.25
   0   7  -1  155.02    9.81
   0   7  -1  156.54    9.53
   0  -7   1  160.21   10.24
   0  -7   1  155.15    9.64
  -1   7  -1  340.33   20.03
  -1   7  -1  333.22   19.86
   1  -7   1  339.97   20.01
   1  -7   1  317.97   20.91
  -2   7  -1  270.95   15.59
   2  -7   1  262.62   15.72
   2  -7   1  240.73   16.54
  -3   7  -1  216.58   11.48
   3  -7   1  171.06   11.58
   3  -7   1  171.31   12.31
   9   6  -1    4.35    0.95
   9   6  -1    5.98    1.14
   8   6  -1    0.65    0.47
   8   6  -1    1.27    0.48
   7   6  -1    0.21    0.26
   7   6  -1    0.14    0.29
   6   6  -1    1.89    0.50
   6   6  -1    0.37    0.28
   6   6  -1    0.36    0.28
  -6  -6   1    0.22    0.28
   5   6  -1    2.06    0.50
   5   6  -1    2.37    0.46
   5   6  -1    3.33    0.54
  -5  -6   1    2.50    0.51
   4   6  -1    8.77    0.95
   4   6  -1    9.69    0.89
   4   6  -1    9.06    0.92
  -4  -6   1    9.68    0.95
  -4  -6   1    9.45    0.92
  -4  -6   1    9.16    1.59
   3   6  -1    0.39    0.22
   3   6  -1    0.24    0.23
  -3  -6   1    0.88    0.53
  -3  -6   1    0.23    0.23
  -3  -6   1    0.05    0.19
   2   6  -1    8.54    0.83
   2   6  -1    9.51    0.96
  -2  -6   1   13.19    1.55
  -2  -6   1    8.63    0.96
  -2  -6   1    9.09    0.85
   1   6  -1    1.93    0.37
   1   6  -1    2.43    0.56
  -1  -6   1    2.20    0.42
  -1  -6   1    2.91    0.70
  -1  -6   1    2.26    0.53
   0   6  -1    4.33    0.58
   0   6  -1    3.12    0.69
   0  -6   1    4.10    0.78
   0  -6   1    5.33    0.68
   0  -6   1    4.40    0.79
  -1   6  -1    0.68    0.26
   1  -6   1    0.34    0.25
   1  -6   1    0.19    0.33
  -2   6  -1    1.37    0.39
   2  -6   1    0.08    0.29
   2  -6   1    1.47    0.56
  -3   6  -1    2.58    0.51
   3  -6   1    1.92    0.72
   3  -6   1    2.30    0.48
  -4   6  -1    1.13    0.39
   4  -6   1    0.97    0.38
   4  -6   1    0.81    0.58
   9   5  -1  193.86   11.75
   9   5  -1  181.57   12.41
   9   5  -1  187.10   11.63
  -9  -5   1  181.59   13.38
  -9  -5   1  178.53   11.73
   8   5  -1  318.19   19.15
   8   5  -1  304.34   20.59
   8   5  -1  329.10   19.48
  -8  -5   1  315.79   22.08
  -8  -5   1  324.11   19.46
   7   5  -1  306.18   18.31
   7   5  -1  280.96   19.25
   7   5  -1  290.59   17.83
  -7  -5   1  323.38   20.74
  -7  -5   1  297.53   18.24
   6   5  -1  385.52   23.63
   6   5  -1  402.74   25.64
   6   5  -1  413.76   24.26
  -6  -5   1  378.24   26.02
  -6  -5   1  432.56   27.41
   5   5  -1  449.43   26.81
   5   5  -1  458.04   27.48
   5   5  -1  460.59   29.12
   5   5  -1  458.88   27.17
  -5  -5   1  423.03   27.36
  -5  -5   1  436.46   29.66
  -5  -5   1  489.86   31.03
  -5  -5   1  497.93   27.35
   4   5  -1  321.16   20.59
   4   5  -1  367.68   20.92
   4   5  -1  371.10   22.41
  -4  -5   1  326.67   23.75
  -4  -5   1  339.19   22.92
  -4  -5   1  368.58   21.01
  -4  -5   1  347.14   21.10
  -4  -5   1  378.83   21.56
   3   5  -1  423.15   24.34
   3   5  -1  390.37   23.96
  -3  -5   1  411.43   25.12
  -3  -5   1  423.84   24.45
  -3  -5   1  410.57   26.69
   2   5  -1  312.57   18.50
   2   5  -1  300.72   18.27
  -2  -5   1  318.97   21.88
  -2  -5   1  318.22   18.57
  -2  -5   1  311.98   19.16
   1   5  -1  566.67   33.73
   1   5  -1  560.03   33.31
  -1  -5   1  585.45   33.88
  -1  -5   1  600.44   34.96
  -1  -5   1  556.57   39.48
   0   5  -1  453.72   28.61
   0   5  -1  502.12   32.80
   0   5  -1  482.43   28.93
   0  -5   1  505.29   28.94
   0  -5   1  481.22   33.76
   0  -5   1  519.62   29.06
  -1   5  -1  405.32   28.72
  -1   5  -1  448.80   25.33
   1  -5   1  421.98   25.45
   1  -5   1  424.14   26.34
   1  -5   1  440.77   29.40
  -2   5  -1  249.92   16.19
  -2   5  -1  233.00   14.14
   2  -5   1  241.36   16.42
   2  -5   1  222.03   14.20
   2  -5   1  240.56   14.97
  -3   5  -1  347.33   21.18
  -3   5  -1  358.25   24.29
   3  -5   1  358.34   21.22
   3  -5   1  367.48   22.32
  -4   5  -1  285.59   19.87
  -4   5  -1  297.19   17.23
   4  -5   1  288.36   17.23
   4  -5   1  284.11   19.14
   4  -5   1  289.39   18.27
  -5   5  -1  170.98   12.47
  -5   5  -1  178.01   10.68
   5  -5   1  180.89   10.66
   5  -5   1  180.93   12.22
   5  -5   1  167.14   11.48
   9   4  -1    0.10    0.32
   9   4  -1    0.18    0.36
   9   4  -1   -0.61    0.32
  -9  -4   1   -0.65    0.28
  -9  -4   1    0.04    0.42
   8   4  -1    6.47    1.09
   8   4  -1    6.48    1.06
   8   4  -1    4.92    0.92
  -8  -4   1    3.93    0.95
  -8  -4   1    3.30    0.78
   7   4  -1    4.66    0.85
   7   4  -1    4.28    0.76
   7   4  -1    4.07    0.79
  -7  -4   1    3.31    0.80
  -7  -4   1    3.69    0.72
   6   4  -1    0.38    0.34
   6   4  -1    0.91    0.31
   6   4  -1    1.03    0.38
  -6  -4   1    0.46    0.36
  -6  -4   1    0.26    0.26
   5   4  -1    2.08    0.43
   5   4  -1    1.79    0.49
   5   4  -1    1.87    0.46
   5   4  -1    1.92    0.38
  -5  -4   1    2.61    0.54
  -5  -4   1    2.49    0.54
  -5  -4   1    1.84    0.50
  -5  -4   1    3.17    0.52
   4   4  -1    4.49    0.62
   4   4  -1    7.16    0.84
   4   4  -1    4.73    0.55
   4   4  -1    4.06    0.49
  -4  -4   1    5.56    0.66
  -4  -4   1    5.08    0.77
  -4  -4   1    4.76    0.61
   3   4  -1    9.11    0.85
   3   4  -1    8.61    0.89
   3   4  -1   14.53    1.08
   3   4  -1    8.91    0.88
  -3  -4   1   10.44    0.90
  -3  -4   1   12.79    0.96
  -3  -4   1   10.17    0.89
  -3  -4   1   11.63    0.99
  -3  -4   1   12.63    1.17
   2   4  -1    2.24    0.40
   2   4  -1    2.41    0.36
  -2  -4   1    2.05    0.35
  -2  -4   1    3.13    0.68
  -2  -4   1    2.36    0.54
  -2  -4   1    1.95    0.37
   1   4  -1   16.81    1.26
   1   4  -1   16.63    1.35
  -1  -4   1   18.76    1.43
  -1  -4   1   20.54    1.34
   0   4  -1   48.85    3.48
   0   4  -1   42.34    3.10
   0   4  -1   49.15    3.07
   0  -4   1   54.28    3.21
   0  -4   1   54.95    3.80
   0  -4   1   46.45    3.36
   0  -4   1   53.53    3.10
  -1   4  -1    0.70    0.15
  -1   4  -1    0.97    0.23
  -1   4  -1    1.12    0.27
   1  -4   1    0.71    0.29
   1  -4   1    1.19    0.18
   1  -4   1    1.05    0.26
   1  -4   1    1.22    0.31
  -2   4  -1   18.29    1.31
  -2   4  -1   21.52    1.42
  -2   4  -1   20.74    1.72
   2  -4   1   20.49    1.68
   2  -4   1   22.05    1.41
   2  -4   1   22.19    1.97
   2  -4   1   21.47    1.33
   2  -4   1   20.99    1.73
  -3   4  -1    0.76    0.22
  -3   4  -1    0.55    0.31
   3  -4   1    2.38    0.68
   3  -4   1    0.38    0.30
   3  -4   1    0.43    0.17
   3  -4   1    0.39    0.25
  -4   4  -1    4.04    0.81
  -4   4  -1    5.54    0.59
   4  -4   1    5.48    0.55
   4  -4   1    4.18    0.80
   4  -4   1    3.88    0.96
  -5   4  -1    0.27    0.26
  -5   4  -1    0.11    0.37
   5  -4   1    0.52    0.40
   5  -4   1    0.29    0.22
   5  -4   1    0.24    0.50
  -6   4  -1   -0.38    0.35
  -6   4  -1   -0.25    0.24
   6  -4   1    0.20    0.26
   6  -4   1   -0.08    0.52
   9   3  -1  229.57   13.97
   9   3  -1  239.54   14.01
  -9  -3   1  209.43   15.99
  -9  -3   1  221.95   13.94
   8   3  -1  223.73   13.46
   8   3  -1  219.61   14.41
   8   3  -1  222.00   13.30
  -8  -3   1  213.94   15.33
  -8  -3   1  206.76   13.32
   7   3  -1  336.16   19.71
   7   3  -1  328.01   21.35
   7   3  -1  350.07   20.04
  -7  -3   1  324.80   19.88
  -7  -3   1  314.32   22.67
   6   3  -1  599.39   34.07
   6   3  -1  567.51   36.30
   6   3  -1  526.94   33.35
  -6  -3   1  588.98   33.94
  -6  -3   1  577.95   38.60
   5   3  -1  687.17   38.00
   5   3  -1  618.85   38.51
   5   3  -1  622.33   38.81
   5   3  -1  646.43   41.39
  -5  -3   1  685.68   41.91
  -5  -3   1  626.87   43.97
  -5  -3   1  694.16   38.70
  -5  -3   1  662.48   38.72
   4   3  -1  386.00   25.36
   4   3  -1  400.35   24.81
   4   3  -1  429.75   25.17
   4   3  -1  437.18   27.03
  -4  -3   1  429.17   27.44
  -4  -3   1  426.46   25.33
  -4  -3   1  477.09   25.31
   3   3  -1  584.17   31.08
   3   3  -1  533.30   30.55
   3   3  -1  478.27   31.24
  -3  -3   1  553.01   31.17
  -3  -3   1  598.87   32.12
  -3  -3   1  483.93   31.17
  -3  -3   1  464.93   33.82
   2   3  -1  435.42   25.44
   2   3  -1  445.56   24.87
   2   3  -1  450.03   25.28
  -2  -3   1  483.59   25.39
  -2  -3   1  369.28   25.33
  -2  -3   1  467.60   26.06
  -2  -3   1  354.69   27.55
   1   3  -1  705.62   39.63
   1   3  -1  691.71   40.35
  -1  -3   1  694.47   41.54
  -1  -3   1  709.04   40.63
  -1  -3   1  620.48   46.72
   0   3  -1  345.86   22.33
   0   3  -1  428.99   22.30
   0   3  -1  364.54   25.34
   0  -3   1  393.41   22.35
   0  -3   1  366.98   23.10
   0  -3   1  359.87   22.44
   0  -3   1  394.53   26.04
  -1   3  -1  562.47   29.86
  -1   3  -1  543.89   33.94
   1  -3   1  504.41   29.78
   1  -3   1  489.37   30.85
   1  -3   1  433.68   29.83
   1  -3   1  511.23   34.65
  -2   3  -1  504.30   29.11
  -2   3  -1  445.18   29.11
  -2   3  -1  552.47   33.35
   2  -3   1  500.68   31.69
   2  -3   1  516.52   30.33
   2  -3   1  461.60   29.18
   2  -3   1  494.10   33.94
   2  -3   1  504.61   29.15
  -3   3  -1  405.82   26.80
  -3   3  -1  472.68   26.84
  -3   3  -1  502.14   30.84
   3  -3   1  444.95   26.90
   3  -3   1  462.41   28.02
   3  -3   1  503.52   26.90
   3  -3   1  411.38   29.23
  -4   3  -1  356.19   20.41
  -4   3  -1  358.35   23.53
   4  -3   1  343.15   21.36
   4  -3   1  339.36   20.44
   4  -3   1  332.51   22.39
  -5   3  -1  351.18   19.18
  -5   3  -1  305.79   22.11
   5  -3   1  322.73   21.12
   5  -3   1  310.96   20.04
   5  -3   1  323.74   19.21
  -6   3  -1  382.51   21.20
  -6   3  -1  320.31   24.38
   6  -3   1  377.83   21.24
   6  -3   1  332.46   22.04
   6  -3   1  363.62   23.34
  -7   3  -1  184.00   15.43
  -7   3  -1  223.62   13.40
   7  -3   1  229.97   13.39
   7  -3   1  245.10   15.13
   9   2  -1    3.77    0.95
   9   2  -1    3.91    0.78
  -9  -2   1    2.55    0.69
  -9  -2   1    2.82    0.92
   8   2  -1   -0.01    0.34
   8   2  -1    0.22    0.36
   8   2  -1   -0.13    0.28
  -8  -2   1   -0.02    0.26
  -8  -2   1    0.18    0.40
   7   2  -1    3.09    0.65
   7   2  -1    3.02    0.72
   7   2  -1    4.37    0.83
  -7  -2   1    2.76    0.59
  -7  -2   1    3.13    0.75
   6   2  -1    0.45    0.31
   6   2  -1    0.50    0.31
   6   2  -1    0.15    0.24
  -6  -2   1    0.33    0.27
   5   2  -1    4.50    0.42
   5   2  -1    4.60    0.63
   5   2  -1    3.72    0.62
   5   2  -1    4.30    0.70
  -5  -2   1    4.83    0.66
  -5  -2   1    5.08    0.58
   4   2  -1   11.01    1.09
   4   2  -1   14.68    1.11
   4   2  -1   12.07    1.06
  -4  -2   1   14.15    1.11
  -4  -2   1   12.89    1.13
   3   2  -1   13.28    1.19
   3   2  -1   14.45    1.09
   3   2  -1   14.47    1.15
   3   2  -1   17.95    1.23
  -3  -2   1   15.27    1.13
  -3  -2   1   16.96    1.21
  -3  -2   1   17.18    1.32
   2   2  -1    4.80    0.49
   2   2  -1    6.16    0.56
   2   2  -1    4.27    0.51
   2   2  -1    4.74    0.47
  -2  -2   1    5.04    0.49
  -2  -2   1    6.75    0.66
  -2  -2   1    4.55    0.44
   1   2  -1    0.90    0.24
   1   2  -1    1.38    0.21
  -1  -2   1    1.77    0.25
  -1  -2   1    1.53    0.23
   0   2  -1   -0.31    0.12
   0   2  -1   -0.43    0.10
   0  -2   1   -0.54    0.13
   0  -2   1   -0.18    0.15
   0  -2   1   -0.27    0.14
  -1   2  -1   24.05    1.75
  -1   2  -1   23.19    1.48
  -1   2  -1   22.02    1.43
   1  -2   1   23.52    1.45
   1  -2   1   23.02    1.75
   1  -2   1   21.00    1.65
   1  -2   1   23.01    1.82
   1  -2   1   25.04    1.47
  -2   2  -1   -0.36    0.06
  -2   2  -1   -0.24    0.17
  -2   2  -1   -0.39    0.07
   2  -2   1    0.21    0.24
   2  -2   1   -0.40    0.21
   2  -2   1   -0.26    0.08
   2  -2   1   -0.20    0.15
   2  -2   1   -0.37    0.07
  -3   2  -1   11.40    0.82
  -3   2  -1   10.59    0.83
  -3   2  -1   12.65    1.15
   3  -2   1   10.68    1.14
   3  -2   1   10.76    1.06
   3  -2   1   11.32    0.81
   3  -2   1   14.63    0.91
  -4   2  -1    0.00    0.18
  -4   2  -1    0.14    0.12
  -4   2  -1    0.30    0.20
   4  -2   1    0.14    0.11
   4  -2   1    0.17    0.21
   4  -2   1    0.17    0.27
  -5   2  -1    2.37    0.62
  -5   2  -1    2.77    0.42
   5  -2   1    3.79    0.78
   5  -2   1    2.35    0.53
   5  -2   1    2.74    0.39
  -6   2  -1   -0.05    0.30
  -6   2  -1    0.12    0.20
   6  -2   1    0.27    0.21
   6  -2   1    0.02    0.34
   6  -2   1    0.18    0.28
  -7   2  -1    2.78    0.80
  -7   2  -1    2.98    0.56
   7  -2   1    2.94    0.85
   7  -2   1    2.49    0.55
   9   1  -1  200.17   12.56
   9   1  -1  191.03   11.23
  -9  -1   1  166.98   11.18
  -9  -1   1  163.55   13.01
   8   1  -1  296.11   17.58
   8   1  -1  302.33   19.13
  -8  -1   1  275.24   20.15
  -8  -1   1  285.62   17.49
   7   1  -1  401.86   24.25
   7   1  -1  418.70   26.17
  -7  -1   1  395.44   27.71
  -7  -1   1  406.80   24.18
   6   1  -1  320.81   18.79
   6   1  -1  312.63   20.28
   6   1  -1  295.44   18.64
  -6  -1   1  324.78   18.76
   5   1  -1  355.11   22.42
   5   1  -1  357.06   21.77
   5   1  -1  355.78   23.73
   5   1  -1  372.46   22.06
  -5  -1   1  374.60   23.77
  -5  -1   1  413.65   22.06
   4   1  -1  440.41   27.59
   4   1  -1  395.53   26.56
   4   1  -1  468.21   29.00
   4   1  -1  449.38   27.03
  -4  -1   1  474.16   29.22
  -4  -1   1  514.78   27.00
   3   1  -1  712.98   47.65
   3   1  -1  818.24   51.59
   3   1  -1  768.66   46.73
  -3  -1   1  920.48   52.07
  -3  -1   1  840.40   48.03
   2   1  -1  394.61   24.31
   2   1  -1  364.65   24.83
   2   1  -1  480.40   26.58
  -2  -1   1  431.33   26.92
  -2  -1   1  433.96   24.78
   1   1  -1  337.43   22.38
   1   1  -1  432.93   22.70
  -1  -1   1  339.56   24.27
  -1  -1   1  415.65   23.13
   0   1  -1  366.54   23.98
   0  -1   1  448.24   24.23
   0  -1   1  405.00   26.02
   0  -1   1  415.20   24.68
  -1   1  -1  648.92   34.19
   1  -1   1  594.26   35.03
   1  -1   1  530.35   36.48
   1  -1   1  525.49   36.86
   1  -1   1  596.76   39.62
   1  -1   1  564.44   34.10
   1  -1   1  590.25   34.21
  -2   1  -1  491.35   27.63
  -2   1  -1  461.77   27.48
  -2   1  -1  520.55   31.34
   2  -1   1  489.51   27.51
   2  -1   1  423.77   27.54
   2  -1   1  413.78   29.56
   2  -1   1  472.92   28.41
  -3   1  -1  429.97   23.41
  -3   1  -1  389.27   23.38
  -3   1  -1  431.33   26.71
   3  -1   1  371.91   23.34
   3  -1   1  352.56   25.22
   3  -1   1  403.61   24.20
  -4   1  -1  602.43   37.95
  -4   1  -1  501.10   33.21
  -4   1  -1  626.36   35.97
  -4   1  -1  609.85   33.14
   4  -1   1  494.70   35.81
   4  -1   1  545.16   33.21
   4  -1   1  569.39   34.33
  -5   1  -1  531.46   31.10
  -5   1  -1  547.67   35.66
   5  -1   1  528.69   31.15
   5  -1   1  494.69   33.70
   5  -1   1  537.78   32.23
  -6   1  -1  362.77   22.45
  -6   1  -1  371.01   25.83
   6  -1   1  396.70   22.49
   6  -1   1  393.86   24.53
   6  -1   1  369.36   23.25
  -7   1  -1  164.26   10.30
  -7   1  -1  154.00   11.98
   7  -1   1  183.98   11.55
   7  -1   1  173.43   10.31
  -8   1  -1  200.75   15.86
  -8   1  -1  226.69   13.72
   8  -1   1  225.13   13.75
   8  -1   1  249.89   15.26
   8   0  -1    2.07    0.77
   8   0  -1    1.24    0.44
  -8   0   1    0.79    0.41
  -8   0   1    0.71    0.55
   7   0  -1    0.43    0.47
   7   0  -1    0.10    0.27
  -7   0   1    0.51    0.40
  -7   0   1    0.45    0.29
   6   0  -1    3.69    0.56
   6   0  -1    3.70    0.77
  -6   0   1    3.66    0.56
   5   0  -1    2.30    0.38
   5   0  -1    2.35    0.55
   5   0  -1    2.46    0.30
  -5   0   1    2.26    0.40
  -5   0   1    1.75    0.35
   4   0  -1   18.93    1.57
   4   0  -1   17.12    1.22
   4   0  -1   15.81    1.47
   4   0  -1   19.58    1.31
  -4   0   1   18.45    1.43
  -4   0   1   17.17    1.26
   3   0  -1   -0.02    0.23
   3   0  -1   -0.08    0.11
   3   0  -1   -0.14    0.14
   3   0  -1    0.55    0.28
   3   0  -1   -0.07    0.15
  -3   0   1    0.39    0.26
  -3   0   1    0.08    0.15
   2   0  -1   33.93    2.37
   2   0  -1   30.46    2.18
   2   0  -1   37.60    2.16
  -2   0   1   34.17    2.14
  -2   0   1   33.96    2.43
   1   0  -1   20.49    1.56
   1   0  -1   20.73    1.28
   1   0  -1   18.36    1.27
   1   0  -1   21.92    1.40
  -1   0   1   18.38    1.44
  -1   0   1   20.47    1.27
   0   0  -1   -0.32    0.07
   0   0   1   -0.54    0.06
  -1   0  -1    3.32    0.29
  -1   0  -1    3.56    0.36
   1   0   1    3.47    0.34
   1   0   1    2.15    0.31
   1   0   1    3.47    0.29
  -2   0  -1    2.88    0.32
  -2   0  -1    2.66    0.41
   2   0   1    1.86    0.41
   2   0   1    3.57    0.44
   2   0   1    3.66    0.33
   2   0   1    2.38    0.37
  -3   0  -1   -0.41    0.14
  -3   0  -1   -0.31    0.11
   3   0   1   -0.42    0.14
   3   0   1   -0.44    0.10
   3   0   1    0.36    0.25
  -4   0  -1   -0.20    0.20
  -4   0  -1   -0.03    0.14
   4   0   1   -0.08    0.16
   4   0   1    0.02    0.20
   4   0   1   -0.20    0.20
  -5   0  -1   19.26    1.40
  -5   0  -1   16.91    1.73
   5   0   1   19.68    1.42
   5   0   1   20.22    1.55
   5   0   1   20.59    1.75
  -6   0  -1    2.38    0.45
  -6   0  -1    2.25    0.61
   6   0   1    2.07    0.60
   6   0   1    2.42    0.47
   6   0   1    2.79    0.46
  -7   0  -1    2.81    0.55
  -7   0  -1    2.15    0.68
   7   0   1    4.40    0.93
   7   0   1    3.10    0.54
  -8   0  -1   -0.28    0.25
  -8   0  -1    0.01    0.42
   8   0   1    0.27    0.31
   8   0   1    0.20    0.47
   8  -1  -1  219.64   14.02
   8  -1  -1  208.99   12.37
  -8   1   1  190.27   14.43
  -8   1   1  193.09   12.34
   7  -1  -1  242.49   15.80
   7  -1  -1  231.66   14.18
  -7   1   1  238.05   14.14
  -7   1   1  228.10   16.44
   6  -1  -1  195.78   11.73
   6  -1  -1  191.76   13.03
  -6   1   1  196.23   11.72
   5  -1  -1  595.06   38.65
   5  -1  -1  567.79   36.72
   5  -1  -1  633.55   35.76
  -5   1   1  631.59   35.68
   4  -1  -1  665.58   42.06
   4  -1  -1  639.49   40.12
   4  -1  -1  659.32   39.02
  -4   1   1  671.44   39.13
  -4   1   1  686.21   42.47
   3  -1  -1  608.15   35.41
   3  -1  -1  619.96   36.99
   3  -1  -1  542.84   34.31
   3  -1  -1  557.71   34.33
  -3   1   1  586.51   37.33
  -3   1   1  593.00   34.37
   2  -1  -1  436.90   32.01
   2  -1  -1  515.63   28.49
   2  -1  -1  450.82   29.55
   1  -1  -1  488.33   30.67
   1  -1  -1  548.56   29.60
   1  -1  -1  424.78   33.26
   0  -1  -1  357.35   19.24
   0  -1  -1  274.69   21.63
  -1  -1  -1  518.90   28.01
  -1  -1  -1  517.67   32.40
   1   1   1  407.87   27.35
   1   1   1  452.70   28.04
  -2  -1  -1  548.10   38.10
  -2  -1  -1  723.30   38.82
   2   1   1  679.45   41.01
   2   1   1  653.94   38.49
  -3  -1  -1  447.75   25.63
  -3  -1  -1  468.47   29.25
   3   1   1  417.14   27.49
   3   1   1  406.89   25.68
  -4  -1  -1  702.63   39.73
  -4  -1  -1  739.40   45.07
   4   1   1  669.42   42.39
   4   1   1  706.33   38.90
   4   1   1  633.96   39.57
   4   1   1  581.88   40.66
  -5  -1  -1  357.99   23.44
  -5  -1  -1  362.15   20.46
   5   1   1  353.45   20.30
   5   1   1  311.04   21.04
   5   1   1  349.71   20.52
   5   1   1  336.28   22.02
  -6  -1  -1  415.00   28.06
  -6  -1  -1  416.29   24.49
   6   1   1  402.26   26.41
   6   1   1  423.33   25.23
   6   1   1  406.37   24.53
  -7  -1  -1  413.90   25.14
  -7  -1  -1  415.67   28.84
   7   1   1  417.96   27.19
   7   1   1  441.14   25.19
  -8  -1  -1  282.77   17.86
  -8  -1  -1  279.98   20.55
   8   1   1  309.64   17.89
   8   1   1  311.28   19.51
  -9  -1  -1  147.47   11.73
  -9  -1  -1  156.26   10.10
   9   1   1  169.28   10.16
   9   1   1  172.37   11.25
   7  -2  -1    0.08    0.45
   7  -2  -1   -0.48    0.20
  -7   2   1    0.27    0.42
  -7   2   1   -0.29    0.19
   6  -2  -1    0.11    0.44
   6  -2  -1    0.25    0.23
  -6   2   1    0.38    0.23
  -6   2   1    0.52    0.42
   5  -2  -1    5.87    0.70
   5  -2  -1    8.02    1.23
   5  -2  -1    7.75    0.63
  -5   2   1    6.94    0.62
   4  -2  -1    3.28    0.39
   4  -2  -1    2.79    0.66
   4  -2  -1    2.66    0.43
   4  -2  -1    3.02    0.30
  -4   2   1    2.91    0.34
  -4   2   1    2.22    0.51
  -4   2   1    2.20    0.27
   3  -2  -1   11.41    0.99
   3  -2  -1   13.03    1.26
   3  -2  -1   14.34    1.30
   2  -2  -1    3.03    0.39
   2  -2  -1    3.78    0.59
   2  -2  -1    2.98    0.54
   1  -2  -1  226.35   12.73
   1  -2  -1  207.49   14.47
   1  -2  -1  190.14   13.32
   0  -2  -1  170.69   11.19
   0  -2  -1  178.44   10.73
   0  -2  -1  178.04   12.28
  -1  -2  -1   35.43    2.06
  -1  -2  -1   32.96    2.35
   1   2   1   30.56    2.03
   1   2   1   32.85    2.04
  -2  -2  -1   19.55    1.22
  -2  -2  -1   17.29    1.17
  -2  -2  -1   16.06    1.39
   2   2   1   14.62    1.12
   2   2   1   18.11    1.21
   2   2   1   16.40    1.15
   2   2   1   15.80    1.17
  -3  -2  -1   58.77    3.50
  -3  -2  -1   54.57    3.99
  -3  -2  -1   56.88    3.51
   3   2   1   54.10    3.66
   3   2   1   52.68    3.42
   3   2   1   58.47    3.51
   3   2   1   51.24    3.42
  -4  -2  -1    1.40    0.35
  -4  -2  -1    1.34    0.36
  -4  -2  -1    1.65    0.45
   4   2   1    1.83    0.43
   4   2   1    1.34    0.35
   4   2   1    1.37    0.31
   4   2   1    1.87    0.39
  -5  -2  -1   11.70    1.05
  -5  -2  -1   11.49    1.26
   5   2   1   12.76    1.14
   5   2   1   14.29    1.11
   5   2   1   11.77    1.11
  -6  -2  -1   14.30    1.26
  -6  -2  -1   13.04    1.50
   6   2   1   15.46    1.27
   6   2   1   14.13    1.33
   6   2   1   14.31    1.20
   6   2   1   14.74    1.36
  -7  -2  -1    0.80    0.51
  -7  -2  -1    0.99    0.42
   7   2   1    1.49    0.46
   7   2   1    1.55    0.56
   7   2   1    1.54    0.49
  -8  -2  -1    0.09    0.38
  -8  -2  -1   -0.10    0.25
   8   2   1   -0.04    0.29
   8   2   1   -0.05    0.40
   8   2   1    0.92    0.49
  -9  -2  -1    2.76    0.69
  -9  -2  -1    2.84    0.90
   9   2   1    3.42    0.75
   9   2   1    3.18    0.88
   7  -3  -1  245.09   14.75
   7  -3  -1  270.41   16.70
  -7   3   1  225.95   14.76
  -7   3   1  247.93   17.35
   6  -3  -1  275.33   17.08
  -6   3   1  289.94   19.92
  -6   3   1  296.51   17.06
   5  -3  -1  327.70   18.34
   5  -3  -1  275.85   19.05
   5  -3  -1  326.65   20.35
  -5   3   1  312.20   18.31
   4  -3  -1  213.88   13.81
   4  -3  -1  228.21   14.72
   4  -3  -1  234.63   13.14
  -4   3   1  215.99   13.10
   3  -3  -1  515.36   31.03
   3  -3  -1  526.17   35.06
   3  -3  -1  487.99   32.50
   2  -3  -1  534.44   30.23
   2  -3  -1  484.32   31.57
   2  -3  -1  471.87   34.12
   1  -3  -1  522.06   29.73
   1  -3  -1  500.36   33.64
   1  -3  -1  446.94   31.00
   0  -3  -1  444.13   35.63
   0  -3  -1  565.66   31.68
   0   3   1  548.18   30.48
  -1  -3  -1  527.58   31.74
   1   3   1  554.95   31.64
   1   3   1  524.24   31.30
  -2  -3  -1  880.19   62.26
  -2  -3  -1  928.22   60.87
  -2  -3  -1  878.10   55.63
  -2  -3  -1  860.62   54.00
   2   3   1  921.12   52.92
   2   3   1 1000.00   57.63
   2   3   1  907.95   53.98
  -3  -3  -1  616.62   36.87
  -3  -3  -1  562.71   41.95
  -3  -3  -1  620.49   36.88
   3   3   1  727.01   39.98
   3   3   1  663.28   37.10
   3   3   1  576.32   36.13
  -4  -3  -1  512.23   27.74
  -4  -3  -1  457.51   31.52
  -4  -3  -1  481.42   27.71
   4   3   1  430.35   27.56
   4   3   1  463.66   27.16
   4   3   1  492.58   27.76
   4   3   1  441.35   29.53
  -5  -3  -1  317.76   19.63
  -5  -3  -1  352.63   19.66
  -5  -3  -1  335.09   22.37
   5   3   1  322.25   19.64
   5   3   1  321.25   19.29
   5   3   1  335.87   20.93
   5   3   1  317.72   19.48
  -6  -3  -1  490.22   30.80
  -6  -3  -1  492.69   27.00
   6   3   1  434.06   26.55
   6   3   1  416.53   28.78
   6   3   1  434.27   26.97
  -7  -3  -1  345.75   23.09
  -7  -3  -1  353.89   20.21
   7   3   1  338.76   19.92
   7   3   1  332.06   20.18
   7   3   1  308.49   21.50
  -8  -3  -1  301.05   21.44
  -8  -3  -1  304.49   18.73
   8   3   1  311.10   18.73
   8   3   1  326.20   18.58
   8   3   1  302.80   20.03
  -9  -3  -1  225.01   16.38
  -9  -3  -1  217.35   14.18
   9   3   1  246.13   14.29
   9   3   1  246.79   14.31
   9   3   1  217.11   15.24
   6  -4  -1    0.18    0.20
   6  -4  -1    1.02    0.64
  -6   4   1    0.18    0.23
  -6   4   1    0.41    0.50
   5  -4  -1   -0.12    0.39
   5  -4  -1   -0.01    0.13
   5  -4  -1   -0.06    0.27
  -5   4   1    0.02    0.31
  -5   4   1    0.03    0.12
   4  -4  -1    0.44    0.30
   4  -4  -1    0.85    0.52
   3  -4  -1    8.06    0.97
   3  -4  -1    7.33    0.87
   3  -4  -1    8.35    1.18
   2  -4  -1    1.82    0.52
   2  -4  -1    1.65    0.39
   2  -4  -1    2.21    0.52
   1  -4  -1   23.86    2.04
   1  -4  -1   22.72    1.74
   1  -4  -1   23.99    1.99
   0  -4  -1    0.23    0.14
   0  -4  -1    0.58    0.39
   0  -4  -1    0.07    0.11
   0  -4  -1   -0.11    0.16
   0   4   1   -0.22    0.08
   0   4   1    0.20    0.20
   0   4   1    0.12    0.12
  -1  -4  -1    1.54    0.52
  -2  -4  -1   15.41    1.12
  -2  -4  -1   15.16    1.06
  -2  -4  -1   13.77    1.14
  -2  -4  -1   18.95    1.68
   2   4   1   12.04    1.06
   2   4   1   13.50    1.03
  -3  -4  -1   27.63    2.33
  -3  -4  -1   26.13    1.98
  -3  -4  -1   24.78    1.68
   3   4   1   22.87    1.65
   3   4   1   23.25    1.65
   3   4   1   21.50    1.60
  -4  -4  -1    4.01    0.50
  -4  -4  -1    2.56    0.62
  -4  -4  -1    4.32    0.63
   4   4   1    4.73    0.65
   4   4   1    3.70    0.43
   4   4   1    3.10    0.53
   4   4   1    2.93    0.46
  -5  -4  -1    7.95    0.78
  -5  -4  -1    6.09    0.96
  -5  -4  -1    6.33    0.87
   5   4   1    6.41    0.84
   5   4   1    5.88    0.71
   5   4   1    6.97    0.70
   5   4   1    7.97    0.72
  -6  -4  -1   10.79    1.09
  -6  -4  -1    9.05    1.21
   6   4   1    9.54    0.98
   6   4   1   10.74    1.09
   6   4   1    9.27    1.02
  -7  -4  -1   -0.11    0.28
  -7  -4  -1    3.26    0.78
   7   4   1    0.45    0.36
   7   4   1    0.68    0.39
   7   4   1    0.32    0.28
  -8  -4  -1    7.37    1.12
  -8  -4  -1    6.47    1.26
   8   4   1    6.50    1.10
   8   4   1    7.40    1.10
   8   4   1    7.14    1.04
  -9  -4  -1    0.56    0.56
  -9  -4  -1    0.14    0.44
   9   4   1    0.01    0.39
   9   4   1   -0.29    0.42
   9   4   1    0.37    0.41
   5  -5  -1  262.72   15.13
   5  -5  -1  235.12   17.05
  -5   5   1  262.00   15.08
  -5   5   1  252.80   17.74
   4  -5  -1  190.54   12.67
   4  -5  -1  173.20   11.75
  -4   5   1  193.41   13.03
   3  -5  -1  263.99   17.07
   3  -5  -1  274.64   19.13
   3  -5  -1  285.50   18.11
   2  -5  -1  379.74   26.08
   2  -5  -1  381.96   23.18
   2  -5  -1  367.35   24.34
   1  -5  -1  348.41   21.67
   1  -5  -1  338.56   24.44
   1  -5  -1  369.80   20.79
  -1   5   1  352.99   20.71
   0  -5  -1  641.16   35.33
   0  -5  -1  638.47   36.56
   0  -5  -1  574.80   41.38
   0  -5  -1  633.34   35.32
   0   5   1  528.53   35.22
   0   5   1  603.33   35.29
   0   5   1  586.89   34.82
  -1  -5  -1  501.96   31.46
  -1  -5  -1  507.68   35.73
  -1  -5  -1  510.40   30.43
   1   5   1  506.76   30.50
   1   5   1  579.17   30.44
   1   5   1  496.04   29.96
  -2  -5  -1  345.05   26.58
  -2  -5  -1  405.29   22.52
   2   5   1  389.59   22.44
   2   5   1  379.57   22.13
  -3  -5  -1  341.98   20.40
  -3  -5  -1  340.26   19.79
  -3  -5  -1  314.00   23.39
   3   5   1  341.80   21.04
   3   5   1  309.94   19.41
   3   5   1  350.36   19.72
  -4  -5  -1  474.63   36.47
  -4  -5  -1  569.14   32.14
  -4  -5  -1  531.41   37.73
   4   5   1  602.62   34.21
   4   5   1  568.50   32.00
   4   5   1  509.74   31.48
  -5  -5  -1  344.40   20.69
  -5  -5  -1  357.49   20.80
   5   5   1  345.25   20.57
   5   5   1  336.13   20.32
   5   5   1  350.36   21.96
  -6  -5  -1  478.48   31.25
  -6  -5  -1  434.47   27.23
  -6  -5  -1  476.06   27.37
   6   5   1  425.57   27.05
   6   5   1  471.17   27.41
   6   5   1  456.70   28.99
   6   5   1  462.82   26.75
  -7  -5  -1  356.11   21.07
  -7  -5  -1  367.23   24.11
   7   5   1  334.77   20.62
   7   5   1  340.27   22.27
   7   5   1  343.68   21.08
  -8  -5  -1  244.61   15.04
  -8  -5  -1  249.41   17.27
   8   5   1  227.52   15.82
   8   5   1  240.36   14.83
   8   5   1  257.92   15.13
  -9  -5  -1  304.59   20.28
  -9  -5  -1  290.92   17.58
   9   5   1  281.34   17.32
   9   5   1  253.51   18.50
   9   5   1  301.39   17.70
   4  -6  -1    0.86    0.52
   4  -6  -1    1.73    0.31
   4  -6  -1    0.93    0.70
  -4   6   1    2.19    0.35
   3  -6  -1    1.45    0.53
   2  -6  -1    0.94    0.43
   2  -6  -1    1.22    0.46
   2  -6  -1    0.19    0.19
  -2   6   1    0.42    0.21
   1  -6  -1    1.72    0.53
   1  -6  -1    0.19    0.16
   1  -6  -1    0.15    0.25
  -1   6   1    0.22    0.15
   0  -6  -1    2.28    0.35
   0  -6  -1    2.77    0.56
   0  -6  -1    2.38    0.68
   0   6   1    2.26    0.32
   0   6   1    1.90    0.49
  -1  -6  -1   17.88    1.49
  -1  -6  -1   15.30    1.21
  -1  -6  -1   20.35    1.96
   1   6   1   16.62    1.21
   1   6   1   15.44    1.34
  -2  -6  -1    4.53    1.03
  -2  -6  -1    3.50    0.49
  -2  -6  -1    3.88    0.63
   2   6   1    3.06    0.44
   2   6   1    3.57    0.57
  -3  -6  -1    2.72    0.42
  -3  -6  -1    0.09    0.20
  -3  -6  -1    1.00    0.61
   3   6   1    0.80    0.22
  -4  -6  -1   20.38    2.22
  -4  -6  -1   19.08    1.47
   4   6   1   17.60    1.37
   4   6   1   17.68    1.35
   4   6   1   17.63    1.45
  -5  -6  -1    0.56    0.30
  -5  -6  -1    1.58    0.74
   5   6   1    0.95    0.27
   5   6   1    0.82    0.34
   5   6   1    0.33    0.27
  -6  -6  -1   15.69    2.36
  -6  -6  -1   13.75    1.31
   6   6   1   13.96    1.36
   6   6   1   17.45    1.30
   6   6   1   13.57    1.25
  -7  -6  -1    2.08    0.89
   7   6   1    3.15    0.60
   7   6   1    3.22    0.65
  -8  -6  -1    0.35    0.69
   8   6   1    0.78    0.43
   8   6   1    0.47    0.44
  -9  -6  -1    1.86    1.02
   9   6   1    2.57    0.65
   9   6   1    1.70    0.69
   3  -7  -1  173.51   10.77
   3  -7  -1  167.01   11.62
  -3   7   1  192.09   10.69
   2  -7  -1  179.08   11.83
   2  -7  -1  184.07   10.99
  -2   7   1  181.83   10.92
  -2   7   1  186.25   11.37
   1  -7  -1  239.32   14.55
   1  -7  -1  245.37   17.23
   1  -7  -1  239.26   15.41
  -1   7   1  254.34   14.77
  -1   7   1  241.79   14.46
   0  -7  -1  306.65   20.16
   0  -7  -1  281.08   17.86
   0  -7  -1  289.14   16.99
   0   7   1  269.37   16.92
   0   7   1  282.29   17.03
  -1  -7  -1  187.06   12.64
  -1  -7  -1  165.58   10.35
  -1  -7  -1  175.02   10.97
   1   7   1  170.56   10.30
   1   7   1  161.90   10.37
  -2  -7  -1  352.95   22.07
  -2  -7  -1  407.50   26.26
  -2  -7  -1  364.82   22.92
   2   7   1  366.79   22.00
   2   7   1  368.85   21.80
  -3  -7  -1  280.18   17.59
  -3  -7  -1  293.17   16.98
  -3  -7  -1  289.64   20.47
   3   7   1  290.26   16.91
   3   7   1  263.59   16.72
  -4  -7  -1  387.68   30.14
  -4  -7  -1  437.27   25.45
   4   7   1  446.33   25.01
   4   7   1  432.10   25.31
  -5  -7  -1  367.76   22.26
  -5  -7  -1  367.20   26.59
   5   7   1  382.25   22.16
   5   7   1  369.06   21.88
  -6  -7  -1  237.35   16.81
  -6  -7  -1  221.24   13.69
   6   7   1  220.54   13.56
   6   7   1  221.05   13.48
  -7  -7  -1  251.01   17.90
   7   7   1  226.90   14.29
  -8  -7  -1  232.24   16.90
   8   7   1  210.92   13.39
  -9  -7  -1  155.50   12.45
   9   7   1  153.01    9.85
   1  -8  -1    0.23    0.22
   1  -8  -1   -0.07    0.35
  -1   8   1    0.47    0.25
  -1   8   1    0.83    0.54
   0  -8  -1   -0.01    0.30
   0  -8  -1    0.04    0.21
   0   8   1    0.17    0.35
   0   8   1   -0.06    0.19
  -1  -8  -1    0.02    0.24
  -1  -8  -1    0.40    0.41
  -1  -8  -1   -0.47    0.46
   1   8   1    0.43    0.34
   1   8   1    0.13    0.24
  -2  -8  -1    2.50    0.51
  -2  -8  -1    3.20    0.71
  -2  -8  -1    4.48    1.19
   2   8   1    2.35    0.58
   2   8   1    2.53    0.50
  -3  -8  -1    2.69    1.01
  -3  -8  -1    2.43    0.52
  -3  -8  -1    2.20    0.59
   3   8   1    1.92    0.47
   3   8   1    2.82    0.62
  -4  -8  -1    5.54    1.50
  -4  -8  -1    4.74    0.77
   4   8   1    5.18    0.86
   4   8   1    4.79    0.72
  -5  -8  -1    0.51    0.36
  -5  -8  -1    2.55    1.05
   5   8   1    0.71    0.38
   5   8   1    0.95    0.39
  -6  -8  -1    5.70    0.91
  -6  -8  -1    6.94    1.69
   6   8   1    6.41    0.98
   6   8   1    5.46    0.84
  -7  -8  -1   12.78    2.46
   7   8   1   13.88    1.45
  -8  -8  -1    3.96    1.44
   8   8   1    3.61    0.82
  -1  -9  -1  112.24    7.94
  -1  -9  -1  114.02    7.31
   1   9   1  124.04    7.58
   1   9   1  115.02    7.27
  -2  -9  -1  184.11   11.66
  -2  -9  -1  176.62   12.29
  -2  -9  -1  204.66   14.25
   2   9   1  205.17   11.80
   2   9   1  184.33   11.62
  -3  -9  -1  177.40   12.34
  -3  -9  -1  181.76   11.78
  -3  -9  -1  212.89   14.50
   3   9   1  196.38   11.77
   3   9   1  196.04   11.82
  -4  -9  -1  160.11   10.53
  -4  -9  -1  174.01   13.02
   4   9   1  175.01   10.51
   4   9   1  170.31   10.46
  -5  -9  -1  171.22   11.16
  -5  -9  -1  181.55   14.07
   5   9   1  169.37   11.05
   5   9   1  198.17   11.14
  -6  -9  -1  192.45   15.16
  -6  -9  -1  191.32   12.09
   6   9   1  190.01   11.97
   6   9   1  202.77   12.00
  -7  -9  -1  175.84   13.35
   7   9   1  154.89   10.18
   7   9   1  162.07   10.17
   6   9  -2   -0.13    0.33
   6   9  -2    0.35    0.44
  -6  -9   2   -0.18    0.34
  -6  -9   2    0.41    0.83
   5   9  -2    0.54    0.42
   5   9  -2    2.09    0.68
  -5  -9   2    0.47    0.72
  -5  -9   2    0.78    0.43
  -5  -9   2   -0.08    0.35
   4   9  -2    0.26    0.45
   4   9  -2    0.63    0.41
  -4  -9   2    0.30    0.37
  -4  -9   2    0.48    0.43
   3   9  -2    0.17    0.32
   3   9  -2    0.32    0.41
  -3  -9   2   -0.34    0.30
  -3  -9   2    0.19    0.34
   2   9  -2    3.50    0.91
   2   9  -2    2.71    0.63
  -2  -9   2    2.37    0.79
  -2  -9   2    2.51    0.66
   7   8  -2  207.39   13.22
  -7  -8   2  225.72   16.79
   6   8  -2  252.30   15.68
   6   8  -2  255.87   15.75
  -6  -8   2  260.00   15.96
  -6  -8   2  270.45   19.43
   5   8  -2  227.86   14.30
   5   8  -2  213.56   13.39
   5   8  -2  212.26   13.32
  -5  -8   2  210.73   13.84
  -5  -8   2  213.36   13.49
  -5  -8   2  240.11   16.49
   4   8  -2  206.68   12.51
   4   8  -2  195.74   12.45
   4   8  -2  216.82   13.37
  -4  -8   2  208.75   15.16
  -4  -8   2  196.16   12.57
  -4  -8   2  198.04   12.99
   3   8  -2  141.58    9.47
   3   8  -2  151.86    9.60
  -3  -8   2  143.24    9.60
  -3  -8   2  181.51   11.68
  -3  -8   2  153.83   10.01
   2   8  -2  275.96   16.93
   2   8  -2  288.94   16.97
  -2  -8   2  287.11   17.73
  -2  -8   2  270.82   17.03
   1   8  -2  195.46   11.89
   1   8  -2  189.12   11.69
  -1  -8   2  193.93   12.41
  -1  -8   2  184.18   11.75
   0   8  -2  197.83   11.68
   0   8  -2  202.06   12.06
   0  -8   2  180.60   11.77
   0  -8   2  180.47   12.45
  -1   8  -2  196.36   11.15
  -1   8  -2  193.96   11.63
   1  -8   2  169.34   11.99
   1  -8   2  162.68   11.23
   8   7  -2    0.66    0.45
   8   7  -2    0.26    0.34
   7   7  -2    1.16    0.52
   7   7  -2    1.50    0.52
   6   7  -2    3.82    0.69
   6   7  -2    3.16    0.73
   6   7  -2    3.09    0.65
  -6  -7   2    3.25    0.69
   5   7  -2    1.76    0.48
   5   7  -2    0.87    0.35
   5   7  -2    1.40    0.47
  -5  -7   2    1.75    0.88
  -5  -7   2    1.48    0.44
  -5  -7   2    1.16    0.40
   4   7  -2   15.37    1.31
   4   7  -2   12.51    1.33
   4   7  -2   14.78    1.37
  -4  -7   2   13.12    1.31
  -4  -7   2   14.70    1.40
  -4  -7   2   16.51    2.03
   3   7  -2    0.73    0.38
   3   7  -2    0.12    0.21
  -3  -7   2    0.50    0.33
  -3  -7   2    2.09    0.80
  -3  -7   2    1.51    0.43
   2   7  -2    1.03    0.42
   2   7  -2    0.55    0.28
  -2  -7   2   -0.04    0.22
  -2  -7   2    0.22    0.23
  -2  -7   2    0.89    0.59
   1   7  -2    4.94    0.92
   1   7  -2    4.74    0.70
  -1  -7   2    5.01    0.77
  -1  -7   2    6.40    1.02
   0   7  -2    1.24    0.38
   0   7  -2    1.19    0.56
   0  -7   2    1.59    0.46
   0  -7   2    0.97    0.50
  -1   7  -2    1.68    0.47
  -1   7  -2    2.86    0.79
   1  -7   2    2.18    0.72
   1  -7   2    2.04    0.54
  -2   7  -2    0.85    0.39
   2  -7   2    1.60    0.53
   2  -7   2    0.47    0.53
   9   6  -2  224.43   15.08
   9   6  -2  229.26   14.13
   8   6  -2  262.14   17.32
   8   6  -2  268.73   16.11
   7   6  -2  295.85   19.58
   7   6  -2  300.25   18.11
  -7  -6   2  313.32   20.00
   6   6  -2  350.54   21.76
   6   6  -2  330.51   20.08
  -6  -6   2  335.22   22.29
   5   6  -2  122.38    7.88
   5   6  -2  127.98    7.91
   5   6  -2  127.78    8.46
  -5  -6   2  127.47    8.09
  -5  -6   2  133.65    8.97
  -5  -6   2  128.53    8.00
   4   6  -2  350.80   20.95
   4   6  -2  345.92   22.45
   4   6  -2  332.66   20.66
  -4  -6   2  345.61   21.05
  -4  -6   2  359.78   21.62
  -4  -6   2  377.92   23.21
   3   6  -2  383.95   23.16
   3   6  -2  373.71   22.87
  -3  -6   2  410.07   27.40
  -3  -6   2  390.77   23.94
  -3  -6   2  394.42   23.30
   2   6  -2  313.40   19.50
   2   6  -2  323.65   19.71
  -2  -6   2  331.38   19.80
  -2  -6   2  362.02   23.30
  -2  -6   2  326.91   20.45
   1   6  -2  326.09   19.79
   1   6  -2  328.81   19.72
  -1  -6   2  338.19   19.95
  -1  -6   2  338.66   20.66
   0   6  -2  470.02   28.20
   0   6  -2  471.46   28.00
   0  -6   2  486.38   28.37
  -1   6  -2  317.02   17.88
   1  -6   2  276.42   18.72
   1  -6   2  298.88   18.01
  -2   6  -2  273.43   15.34
   2  -6   2  245.17   15.47
   2  -6   2  239.23   16.15
  -3   6  -2  243.69   14.12
   3  -6   2  238.16   15.10
   3  -6   2  216.54   14.13
  -4   6  -2  163.01    9.18
   4  -6   2  140.97    9.16
   4  -6   2  136.50    9.98
   9   5  -2    3.13    0.88
   9   5  -2    2.84    0.81
   9   5  -2    2.59    0.78
  -9  -5   2    1.98    0.74
  -9  -5   2    2.07    0.82
   8   5  -2    4.42    0.96
   8   5  -2    3.95    0.89
   8   5  -2    4.00    0.84
  -8  -5   2    3.59    0.95
  -8  -5   2    4.20    0.90
   7   5  -2    1.39    0.48
   7   5  -2    0.74    0.35
   7   5  -2    0.88    0.49
  -7  -5   2    0.48    0.40
  -7  -5   2    0.79    0.46
   6   5  -2   10.12    1.17
   6   5  -2   15.00    1.47
   6   5  -2   10.87    1.17
  -6  -5   2   13.67    1.41
  -6  -5   2   12.03    1.35
   5   5  -2   10.36    1.07
   5   5  -2   12.56    1.28
   5   5  -2   10.38    1.07
   5   5  -2   10.10    0.97
  -5  -5   2   12.13    1.33
  -5  -5   2   13.11    1.23
  -5  -5   2   11.25    1.20
  -5  -5   2   10.57    1.04
   4   5  -2   10.50    0.98
   4   5  -2    8.52    0.86
   4   5  -2    9.34    0.92
  -4  -5   2   11.33    0.96
  -4  -5   2    8.57    0.86
  -4  -5   2    8.59    1.28
   3   5  -2    0.34    0.21
   3   5  -2    0.08    0.14
  -3  -5   2    0.37    0.20
  -3  -5   2    0.18    0.27
  -3  -5   2    0.37    0.21
   2   5  -2    4.73    0.57
   2   5  -2    6.14    0.69
  -2  -5   2    5.85    0.62
  -2  -5   2    5.85    0.97
  -2  -5   2    4.45    0.67
  -2  -5   2    8.40    1.01
   1   5  -2   21.10    1.74
   1   5  -2   21.14    1.61
  -1  -5   2   24.38    1.86
  -1  -5   2   25.18    1.74
   0   5  -2    0.24    0.20
   0  -5   2    0.59    0.33
   0  -5   2    0.67    0.27
   0  -5   2    0.43    0.33
  -1   5  -2   26.31    1.99
  -1   5  -2   27.79    2.19
   1  -5   2   26.05    2.22
   1  -5   2   29.77    2.15
  -2   5  -2    3.24    0.53
  -2   5  -2    2.30    0.52
   2  -5   2    1.56    0.40
   2  -5   2    1.35    0.52
  -3   5  -2    5.37    0.89
  -3   5  -2    5.76    0.76
   3  -5   2    5.68    0.74
   3  -5   2    6.23    1.07
  -4   5  -2    1.70    0.59
  -4   5  -2    1.45    0.46
   4  -5   2    1.20    0.62
   4  -5   2    1.39    0.41
  -5   5  -2    2.54    0.76
  -5   5  -2    1.72    0.50
   5  -5   2    1.26    0.66
   5  -5   2    0.95    0.38
   9   4  -2  245.51   14.53
   9   4  -2  233.57   15.48
   9   4  -2  238.58   14.28
  -9  -4   2  217.96   14.36
  -9  -4   2  221.14   16.45
   8   4  -2  328.63   19.31
   8   4  -2  304.58   20.47
   8   4  -2  320.71   18.97
  -8  -4   2  304.71   21.80
   7   4  -2  216.59   13.34
   7   4  -2  233.98   13.66
   7   4  -2  208.61   14.33
  -7  -4   2  222.38   13.52
  -7  -4   2  216.52   15.31
   6   4  -2  386.16   23.36
   6   4  -2  391.83   22.77
   6   4  -2  384.28   24.78
  -6  -4   2  397.40   25.14
  -6  -4   2  388.33   23.28
  -6  -4   2  377.35   26.33
   5   4  -2  573.45   32.99
   5   4  -2  569.81   35.91
   5   4  -2  558.68   33.42
   5   4  -2  537.35   33.74
  -5  -4   2  564.09   33.68
  -5  -4   2  605.69   33.60
  -5  -4   2  559.07   36.50
   4   4  -2  557.36   35.37
   4   4  -2  594.06   34.56
   4   4  -2  636.85   37.71
   4   4  -2  611.12   35.11
  -4  -4   2  613.31   35.24
  -4  -4   2  539.27   38.32
  -4  -4   2  652.53   36.12
  -4  -4   2  562.51   35.30
   3   4  -2  233.49   14.75
   3   4  -2  241.19   14.56
   3   4  -2  227.64   15.84
   3   4  -2  279.34   15.02
  -3  -4   2  244.85   16.32
  -3  -4   2  262.55   14.97
  -3  -4   2  258.96   14.87
  -3  -4   2  239.66   15.18
   2   4  -2  530.29   29.16
   2   4  -2  460.03   28.65
  -2  -4   2  443.12   31.88
  -2  -4   2  515.40   29.25
  -2  -4   2  523.09   30.10
   1   4  -2  502.57   30.93
   1   4  -2  547.05   31.41
  -1  -4   2  540.33   36.63
  -1  -4   2  497.69   34.33
  -1  -4   2  551.40   31.55
  -1  -4   2  560.75   32.47
   0   4  -2  507.84   30.47
   0  -4   2  557.00   35.39
   0  -4   2  487.08   31.50
   0  -4   2  515.44   30.61
  -1   4  -2  371.13   22.16
  -1   4  -2  348.08   22.32
  -1   4  -2  409.81   25.36
   1  -4   2  378.43   23.19
   1  -4   2  363.80   22.42
   1  -4   2  390.52   25.79
  -2   4  -2  319.80   20.52
  -2   4  -2  265.04   17.98
   2  -4   2  306.89   20.74
   2  -4   2  300.76   18.83
   2  -4   2  322.28   18.07
  -3   4  -2  424.15   25.55
  -3   4  -2  433.81   29.20
   3  -4   2  453.58   26.74
   3  -4   2  419.61   25.58
  -4   4  -2  357.85   21.52
  -4   4  -2  350.64   24.68
   4  -4   2  384.96   23.69
   4  -4   2  359.58   22.60
  -5   4  -2  273.39   19.37
  -5   4  -2  277.93   16.81
   5  -4   2  291.81   18.66
   5  -4   2  279.43   17.75
   5  -4   2  281.28   16.81
  -6   4  -2  174.05   12.99
  -6   4  -2  189.73   11.21
   6  -4   2  186.81   12.64
   6  -4   2  169.84   11.88
   6  -4   2  190.16   11.17
   9   3  -2    0.69    0.53
   9   3  -2    1.00    0.59
   9   3  -2    1.79    0.73
  -9  -3   2    0.16    0.53
  -9  -3   2    0.77    0.49
   8   3  -2    0.21    0.34
   8   3  -2   -0.10    0.35
   8   3  -2   -0.32    0.24
  -8  -3   2    0.33    0.34
  -8  -3   2    0.12    0.37
   7   3  -2   14.28    1.56
   7   3  -2   16.90    1.59
   7   3  -2   18.43    1.62
  -7  -3   2   15.58    1.72
  -7  -3   2   15.93    1.52
   6   3  -2    2.02    0.55
   6   3  -2    2.77    0.61
   6   3  -2    2.24    0.53
  -6  -3   2    2.74    0.59
   5   3  -2    5.61    0.76
   5   3  -2    3.55    0.64
   5   3  -2    4.94    0.69
  -5  -3   2    5.90    0.83
  -5  -3   2    4.54    0.71
   4   3  -2   10.45    0.97
   4   3  -2    9.46    0.80
   4   3  -2    7.95    0.89
   4   3  -2    8.55    0.86
  -4  -3   2   10.55    0.98
  -4  -3   2   12.21    1.14
  -4  -3   2    9.24    0.86
   3   3  -2    0.24    0.19
   3   3  -2    0.28    0.23
   3   3  -2    0.32    0.18
   3   3  -2    0.21    0.19
  -3  -3   2    0.13    0.17
  -3  -3   2    0.40    0.30
  -3  -3   2    0.58    0.27
  -3  -3   2    0.19    0.15
   2   3  -2    8.38    0.81
   2   3  -2   12.69    0.95
   2   3  -2    9.63    0.81
  -2  -3   2   12.46    1.14
  -2  -3   2   10.39    0.85
  -2  -3   2    9.49    0.83
  -2  -3   2   13.18    0.98
   1   3  -2   22.45    1.75
   1   3  -2   24.52    1.74
  -1  -3   2   24.76    1.84
  -1  -3   2   29.39    1.83
  -1  -3   2   33.01    2.19
   0   3  -2    6.29    0.64
   0  -3   2    6.65    0.74
   0  -3   2    8.89    0.77
   0  -3   2    7.34    0.83
  -1   3  -2    0.12    0.19
  -1   3  -2    0.37    0.22
  -1   3  -2    0.49    0.15
   1  -3   2    0.54    0.24
   1  -3   2    0.35    0.25
   1  -3   2    0.90    0.19
   1  -3   2    0.65    0.21
  -2   3  -2   22.62    1.86
  -2   3  -2   23.38    1.60
   2  -3   2   21.88    1.73
   2  -3   2   23.28    2.02
   2  -3   2   26.15    1.61
   2  -3   2   21.92    1.86
  -3   3  -2    0.97    0.21
  -3   3  -2    1.58    0.32
  -3   3  -2    1.10    0.37
   3  -3   2    1.57    0.55
   3  -3   2    1.60    0.48
   3  -3   2    1.56    0.28
  -4   3  -2    7.33    1.02
  -4   3  -2    8.98    0.83
   4  -3   2    7.07    1.09
   4  -3   2   10.07    1.37
   4  -3   2    9.21    0.78
  -5   3  -2    0.97    0.50
  -5   3  -2    1.91    0.44
   5  -3   2    1.93    0.70
   5  -3   2    1.84    0.58
   5  -3   2    2.61    0.44
  -6   3  -2   -0.15    0.38
  -6   3  -2    0.15    0.29
   6  -3   2   -0.09    0.23
   6  -3   2    0.16    0.50
   6  -3   2    0.10    0.37
  -7   3  -2    0.06    0.32
  -7   3  -2    0.03    0.41
   7  -3   2    0.01    0.27
   7  -3   2   -0.35    0.47
   9   2  -2  192.58   11.60
   9   2  -2  198.86   12.64
  -9  -2   2  169.60   13.27
  -9  -2   2  175.30   11.47
   8   2  -2  296.43   17.39
   8   2  -2  283.11   17.41
   8   2  -2  289.45   18.81
  -8  -2   2  275.23   19.87
  -8  -2   2  283.50   17.33
   7   2  -2  342.36   20.55
   7   2  -2  345.13   20.29
   7   2  -2  338.46   22.11
  -7  -2   2  337.00   20.49
   6   2  -2  451.70   29.00
   6   2  -2  498.45   31.65
   6   2  -2  513.38   29.53
  -6  -2   2  520.33   29.50
   5   2  -2  369.30   22.43
   5   2  -2  339.78   22.03
   5   2  -2  366.68   23.99
  -5  -2   2  404.67   22.42
  -5  -2   2  400.63   24.29
   4   2  -2  671.15   39.98
   4   2  -2  637.09   36.58
   4   2  -2  558.06   37.34
  -4  -2   2  675.87   40.52
  -4  -2   2  620.04   37.27
   3   2  -2  565.49   33.79
   3   2  -2  556.60   30.93
   3   2  -2  504.34   31.42
  -3  -2   2  591.63   31.55
  -3  -2   2  537.41   32.39
  -3  -2   2  537.78   34.32
  -3  -2   2  452.03   31.50
   2   2  -2  510.63   29.36
   2   2  -2  569.35   32.12
   2   2  -2  428.97   30.02
   2   2  -2  516.98   29.88
  -2  -2   2  442.18   29.95
  -2  -2   2  550.82   31.20
  -2  -2   2  545.52   29.99
   1   2  -2  401.66   21.18
   1   2  -2  349.74   21.03
   1   2  -2  354.64   20.67
  -1  -2   2  354.73   21.12
  -1  -2   2  327.58   21.09
  -1  -2   2  357.14   21.70
   0   2  -2  169.32   12.80
   0   2  -2  174.82   11.28
   0  -2   2  192.92   11.69
   0  -2   2  193.04   12.35
   0  -2   2  185.07   11.36
   0  -2   2  219.86   13.04
  -1   2  -2  794.02   49.23
   1  -2   2  669.66   46.81
   1  -2   2  756.22   44.55
   1  -2   2  720.19   43.22
  -2   2  -2  847.53   45.66
  -2   2  -2  816.55   52.15
   2  -2   2  694.74   45.80
   2  -2   2  785.50   47.12
   2  -2   2  736.93   49.06
  -3   2  -2  509.46   33.26
  -3   2  -2  479.65   29.09
  -3   2  -2  485.26   29.09
   3  -2   2  480.13   31.50
   3  -2   2  502.81   29.15
   3  -2   2  511.08   30.28
  -4   2  -2  344.69   19.64
  -4   2  -2  305.16   22.51
   4  -2   2  322.41   20.55
   4  -2   2  325.06   21.41
   4  -2   2  359.87   19.71
  -5   2  -2  466.12   26.02
  -5   2  -2  409.75   29.79
   5  -2   2  458.17   26.08
   5  -2   2  435.59   27.11
   5  -2   2  426.53   28.27
  -6   2  -2  256.37   19.75
  -6   2  -2  310.48   17.23
   6  -2   2  300.39   17.25
   6  -2   2  294.21   18.90
   6  -2   2  272.87   17.95
  -7   2  -2  208.48   16.14
  -7   2  -2  234.22   14.04
   7  -2   2  233.24   14.02
   7  -2   2  247.72   15.57
   8   1  -2    1.20    0.49
   8   1  -2    1.58    0.63
  -8  -1   2    1.25    0.61
  -8  -1   2    1.33    0.48
   7   1  -2    0.63    0.43
   7   1  -2   -0.18    0.24
  -7  -1   2   -0.22    0.25
   6   1  -2    6.64    1.03
   6   1  -2    6.92    1.04
   6   1  -2    7.35    0.79
  -6  -1   2    6.66    0.78
   5   1  -2    1.95    0.47
   5   1  -2    2.10    0.41
   5   1  -2    2.24    0.50
  -5  -1   2    2.14    0.43
  -5  -1   2    2.45    0.42
   4   1  -2    8.27    0.85
   4   1  -2    8.68    0.89
   4   1  -2    9.25    0.82
  -4  -1   2    7.62    0.85
  -4  -1   2    8.95    0.79
   3   1  -2    4.94    0.57
   3   1  -2    6.56    0.59
   3   1  -2    4.98    0.60
  -3  -1   2    5.72    0.56
  -3  -1   2    5.05    0.65
   2   1  -2   44.50    2.77
   2   1  -2   43.94    2.67
   2   1  -2   42.87    2.94
  -2  -1   2   40.45    3.06
  -2  -1   2   44.28    2.76
   1   1  -2   40.13    2.75
   1   1  -2   41.93    2.70
   1   1  -2   45.63    2.84
  -1  -1   2   47.65    2.85
  -1  -1   2   46.66    2.82
  -1  -1   2   46.50    2.79
   0   1  -2   11.64    0.90
   0   1  -2   12.56    1.03
   0  -1   2   12.66    1.04
   0  -1   2   13.48    0.96
   0  -1   2   12.18    0.97
  -1   1  -2  132.31    9.49
  -1   1  -2  128.60    8.31
   1  -1   2  150.16    9.03
   1  -1   2  145.67    8.67
   1  -1   2  135.08    8.32
  -2   1  -2   10.00    1.05
  -2   1  -2   13.44    0.93
   2  -1   2   12.45    0.93
   2  -1   2   12.48    1.11
   2  -1   2   10.92    1.05
   2  -1   2   11.59    0.88
  -3   1  -2    6.23    0.58
  -3   1  -2    4.32    0.62
  -3   1  -2    3.46    0.43
   3  -1   2    4.33    0.47
   3  -1   2    3.51    0.65
  -4   1  -2    0.63    0.19
  -4   1  -2   -0.15    0.16
   4  -1   2    0.20    0.23
   4  -1   2    0.30    0.24
   4  -1   2    0.20    0.15
  -5   1  -2    6.51    0.64
  -5   1  -2    4.54    0.84
   5  -1   2    5.52    0.85
   5  -1   2    5.02    0.87
   5  -1   2    6.34    0.65
  -6   1  -2   19.44    2.03
  -6   1  -2   21.20    1.63
   6  -1   2   23.62    1.69
   6  -1   2   21.11    1.87
   6  -1   2   21.51    2.01
  -7   1  -2    1.72    0.63
  -7   1  -2    2.64    0.54
   7  -1   2    2.27    0.53
   7  -1   2    2.37    0.71
  -8   1  -2    0.02    0.45
  -8   1  -2   -0.19    0.27
   8  -1   2    0.48    0.54
   8  -1   2   -0.18    0.29
   8   0  -2  264.15   16.63
   8   0  -2  292.98   18.39
  -8   0   2  273.86   16.60
  -8   0   2  268.67   19.23
   7   0  -2  284.12   17.71
   7   0  -2  268.40   16.15
  -7   0   2  253.07   16.11
   6   0  -2  438.57   28.63
   6   0  -2  456.44   26.46
  -6   0   2  441.62   26.40
   5   0  -2  416.22   28.25
   5   0  -2  455.42   26.19
  -5   0   2  433.33   28.40
  -5   0   2  461.86   26.11
   4   0  -2  545.95   33.27
   4   0  -2  456.80   31.54
   4   0  -2  465.28   30.47
   4   0  -2  530.50   30.89
  -4   0   2  624.03   33.65
   3   0  -2  612.03   36.35
   3   0  -2  699.81   39.71
   3   0  -2  576.24   36.96
  -3   0   2  688.60   36.90
  -3   0   2  565.68   40.17
   2   0  -2  354.86   20.32
   2   0  -2  367.76   20.72
   2   0  -2  364.36   24.17
  -2   0   2  315.16   22.54
   1   0  -2  362.02   23.83
   1   0  -2  356.87   20.01
   1   0  -2  324.11   20.50
   0   0  -2  459.71   29.14
   0   0   2  411.81   27.82
  -1   0  -2  500.06   32.12
  -1   0  -2  527.02   37.43
   1   0   2  565.21   34.81
   1   0   2  599.20   32.78
  -2   0  -2  196.70   11.86
  -2   0  -2  200.39   13.55
   2   0   2  200.91   12.76
   2   0   2  197.41   11.87
  -3   0  -2  507.20   28.61
   3   0   2  487.90   29.61
   3   0   2  483.66   30.80
   3   0   2  466.14   28.68
  -4   0  -2  579.65   34.28
  -4   0  -2  503.85   29.94
   4   0   2  482.90   30.98
   4   0   2  503.96   30.00
   4   0   2  471.38   32.25
  -5   0  -2  470.12   27.93
  -5   0  -2  503.48   32.00
   5   0   2  443.98   30.14
   5   0   2  462.30   27.97
   5   0   2  485.02   28.98
  -6   0  -2  387.74   26.78
  -6   0  -2  394.20   23.35
   6   0   2  387.42   23.39
   6   0   2  396.51   25.31
   6   0   2  399.72   24.22
  -7   0  -2  334.51   23.63
  -7   0  -2  340.19   20.55
   7   0   2  369.74   22.39
   7   0   2  332.48   20.60
  -8   0  -2  257.96   19.48
  -8   0  -2  284.60   16.93
   8   0   2  261.76   16.94
   8   0   2  316.86   18.55
   8  -1  -2    0.02    0.53
   8  -1  -2    0.15    0.32
  -8   1   2    0.37    0.34
  -8   1   2    0.14    0.45
   7  -1  -2    0.80    0.35
   7  -1  -2    1.51    0.73
  -7   1   2    1.31    0.39
   6  -1  -2   14.47    1.59
   6  -1  -2   13.90    1.11
  -6   1   2   12.68    1.10
   5  -1  -2    2.65    0.63
   4  -1  -2    5.92    0.53
   4  -1  -2    6.96    0.58
   4  -1  -2    9.44    0.97
  -4   1   2    7.01    0.58
  -4   1   2    5.91    0.53
  -4   1   2    7.40    0.87
   3  -1  -2    4.02    0.37
   3  -1  -2    3.53    0.33
   3  -1  -2    4.25    0.73
   3  -1  -2    5.64    0.66
   3  -1  -2    2.79    0.33
  -3   1   2    2.55    0.53
  -3   1   2    2.93    0.31
  -3   1   2    3.81    0.35
   2  -1  -2    7.83    0.74
   2  -1  -2    6.42    0.56
   2  -1  -2    7.65    0.84
   2  -1  -2    7.99    0.51
   2  -1  -2    8.07    0.56
  -2   1   2    7.37    0.74
  -2   1   2    6.79    0.53
  -2   1   2    6.58    0.50
   1  -1  -2   12.21    0.89
   1  -1  -2   13.06    0.80
   1  -1  -2   13.11    1.20
   1  -1  -2   14.41    0.82
   1  -1  -2   11.95    0.97
  -1   1   2   11.93    0.80
   0  -1  -2    1.52    0.44
   0  -1  -2    0.84    0.21
   0  -1  -2    1.28    0.22
   0  -1  -2    1.38    0.28
   0   1   2    0.88    0.19
  -1  -1  -2   17.72    1.29
  -1  -1  -2   14.18    1.00
  -1  -1  -2   14.40    1.21
  -1  -1  -2   15.44    1.05
   1   1   2   12.21    0.95
   1   1   2   12.24    0.92
   1   1   2   15.43    1.03
  -2  -1  -2    5.15    0.54
  -2  -1  -2    5.25    0.70
  -2  -1  -2    6.63    0.59
   2   1   2    6.87    0.59
   2   1   2    5.01    0.50
   2   1   2    6.66    0.57
   2   1   2    5.06    0.54
  -3  -1  -2   25.78    1.77
  -3  -1  -2   26.07    2.09
   3   1   2   26.73    1.92
   3   1   2   27.67    1.80
   3   1   2   22.23    1.75
  -4  -1  -2   12.34    0.98
  -4  -1  -2    9.87    1.14
   4   1   2   13.89    1.01
   4   1   2    9.87    0.99
   4   1   2   11.18    1.03
   4   1   2   12.54    1.11
  -5  -1  -2    0.63    0.25
  -5  -1  -2    0.31    0.27
   5   1   2    1.39    0.33
   5   1   2    1.09    0.35
   5   1   2    1.22    0.34
   5   1   2    0.66    0.33
  -6  -1  -2    1.64    0.40
  -6  -1  -2    0.48    0.40
   6   1   2    1.10    0.39
   6   1   2    1.47    0.51
   6   1   2    1.51    0.38
  -7  -1  -2   11.33    1.47
  -7  -1  -2   12.18    1.18
   7   1   2   11.56    1.39
   7   1   2   14.42    1.25
  -8  -1  -2    5.40    0.85
  -8  -1  -2    4.86    1.08
   8   1   2    6.26    1.13
   8   1   2    5.73    0.90
  -9  -1  -2    3.28    0.98
  -9  -1  -2    2.95    0.69
   9   1   2    3.36    0.76
   9   1   2    2.22    0.78
   7  -2  -2  243.91   15.15
   7  -2  -2  217.45   13.30
  -7   2   2  213.03   13.27
  -7   2   2  211.78   15.57
   6  -2  -2  348.51   20.28
   6  -2  -2  348.17   22.44
  -6   2   2  329.02   20.25
   5  -2  -2  298.94   20.69
   5  -2  -2  327.86   18.85
  -5   2   2  325.21   18.79
   4  -2  -2  398.58   23.09
   4  -2  -2  392.61   23.82
   4  -2  -2  397.38   25.20
  -4   2   2  373.27   23.02
  -4   2   2  401.60   25.39
   3  -2  -2  528.74   31.72
   3  -2  -2  471.89   34.31
   3  -2  -2  496.52   30.19
   2  -2  -2  448.81   34.99
   2  -2  -2  536.90   30.98
   2  -2  -2  544.05   32.30
   1  -2  -2  640.48   49.27
   1  -2  -2  752.18   44.26
   1  -2  -2  773.27   45.72
   0  -2  -2  537.36   29.15
   0  -2  -2  408.92   31.06
   0  -2  -2  463.91   29.89
   0  -2  -2  525.45   29.14
   0   2   2  535.14   28.67
   0   2   2  462.12   29.04
   0   2   2  531.20   29.12
  -1  -2  -2  513.89   35.36
  -1  -2  -2  514.85   31.17
   1   2   2  512.87   31.06
   1   2   2  566.82   30.71
  -2  -2  -2  426.82   31.15
  -2  -2  -2  468.43   26.77
   2   2   2  429.96   26.19
   2   2   2  490.85   26.80
   2   2   2  452.03   26.66
  -3  -2  -2  710.75   43.18
  -3  -2  -2  798.32   49.17
  -3  -2  -2  656.30   43.05
   3   2   2  644.81   43.17
   3   2   2  808.48   46.56
   3   2   2  729.14   42.27
   3   2   2  789.02   43.19
  -4  -2  -2  452.48   27.31
  -4  -2  -2  479.69   31.20
  -4  -2  -2  524.59   27.43
   4   2   2  441.80   26.87
   4   2   2  446.48   29.21
   4   2   2  450.82   27.22
   4   2   2  441.36   27.38
  -5  -2  -2  402.67   25.64
  -5  -2  -2  378.10   22.41
   5   2   2  362.40   23.97
   5   2   2  366.53   22.44
  -6  -2  -2  519.57   33.94
  -6  -2  -2  500.61   29.67
   6   2   2  465.56   31.80
   6   2   2  492.51   29.72
   6   2   2  525.14   29.27
   6   2   2  500.56   30.52
  -7  -2  -2  414.30   25.94
  -7  -2  -2  464.69   29.79
   7   2   2  425.78   27.90
   7   2   2  445.31   25.73
   7   2   2  429.29   26.01
  -8  -2  -2  273.22   16.91
  -8  -2  -2  271.33   19.49
   8   2   2  285.84   17.01
   8   2   2  286.52   18.32
  -9  -2  -2  166.82   12.64
  -9  -2  -2  172.06   10.88
   9   2   2  184.33   11.91
   9   2   2  173.02   10.95
   6  -3  -2    0.79    0.62
   6  -3  -2    0.66    0.27
  -6   3   2    1.05    0.31
   5  -3  -2    2.86    0.37
   5  -3  -2    4.02    0.92
  -5   3   2    3.00    0.37
   4  -3  -2    0.25    0.19
   4  -3  -2    0.35    0.31
   4  -3  -2    0.01    0.29
  -4   3   2    0.29    0.09
   3  -3  -2   -0.03    0.19
   3  -3  -2    0.10    0.26
   3  -3  -2    0.15    0.16
   2  -3  -2    0.16    0.23
   2  -3  -2    0.53    0.28
   1  -3  -2   -0.42    0.08
   1  -3  -2    0.04    0.26
   1  -3  -2   -0.22    0.17
   0  -3  -2    0.37    0.09
   0  -3  -2   -0.05    0.29
   0  -3  -2    0.05    0.20
   0  -3  -2    0.01    0.16
   0  -3  -2    0.43    0.12
   0   3   2    0.06    0.15
   0   3   2    0.05    0.07
   0   3   2    0.32    0.11
  -1  -3  -2   18.35    1.35
  -1  -3  -2   22.12    1.82
  -1  -3  -2   19.08    1.23
  -1  -3  -2   19.56    1.45
   1   3   2   17.25    1.21
   1   3   2   16.24    1.23
  -2  -3  -2    7.97    0.93
  -2  -3  -2    5.40    0.66
  -2  -3  -2    6.36    0.53
   2   3   2    4.81    0.47
   2   3   2    5.14    0.50
  -3  -3  -2   42.47    2.92
  -3  -3  -2   50.17    3.02
  -3  -3  -2   45.44    3.63
   3   3   2   47.18    3.02
   3   3   2   49.32    3.02
   3   3   2   39.75    2.86
  -4  -3  -2   -0.35    0.12
  -4  -3  -2   -0.32    0.20
  -4  -3  -2   -0.14    0.17
   4   3   2   -0.11    0.16
   4   3   2   -0.32    0.15
   4   3   2   -0.23    0.13
   4   3   2   -0.35    0.10
  -5  -3  -2   10.35    0.99
  -5  -3  -2    9.50    0.97
  -5  -3  -2   12.90    1.26
   5   3   2   12.53    1.06
   5   3   2    8.58    0.86
   5   3   2   11.02    1.01
   5   3   2    9.90    0.93
  -6  -3  -2    3.96    0.67
  -6  -3  -2    5.23    0.91
   6   3   2    4.77    0.74
   6   3   2    3.64    0.69
  -7  -3  -2    3.63    0.68
  -7  -3  -2    2.85    0.78
   7   3   2    4.39    0.75
   7   3   2    3.96    0.73
   7   3   2    2.91    0.62
   7   3   2    2.13    0.54
  -8  -3  -2    1.55    0.53
  -8  -3  -2    2.54    0.79
   8   3   2    3.87    0.79
   8   3   2    3.39    0.76
   8   3   2    2.68    0.70
  -9  -3  -2    2.63    0.68
  -9  -3  -2    1.73    0.80
   9   3   2    1.77    0.66
   9   3   2    2.45    0.77
   9   3   2    1.73    0.73
   6  -4  -2  200.44   12.67
   6  -4  -2  226.32   14.54
  -6   4   2  210.69   15.04
  -6   4   2  214.77   12.66
   5  -4  -2  222.34   13.46
   5  -4  -2  239.83   15.30
  -5   4   2  224.16   13.45
   4  -4  -2  218.41   14.10
   4  -4  -2  229.42   16.10
   4  -4  -2  235.63   15.09
   3  -4  -2  392.22   26.94
   3  -4  -2  387.08   25.01
   3  -4  -2  386.94   23.77
   2  -4  -2  449.44   31.44
   2  -4  -2  439.53   29.02
   2  -4  -2  475.64   27.73
   1  -4  -2  832.83   47.53
   1  -4  -2  736.21   53.76
   0  -4  -2  453.97   25.78
   0  -4  -2  384.81   29.31
   0  -4  -2  373.23   24.90
   0  -4  -2  477.39   24.88
   0   4   2  419.41   24.51
   0   4   2  431.52   24.86
   0   4   2  418.73   24.83
  -1  -4  -2  525.37   29.93
  -1  -4  -2  505.57   30.71
  -1  -4  -2  460.07   29.84
  -1  -4  -2  469.16   34.89
   1   4   2  552.75   29.79
   1   4   2  501.85   29.90
   1   4   2  524.44   29.21
  -2  -4  -2  472.31   32.34
  -2  -4  -2  480.46   29.35
  -2  -4  -2  495.43   28.50
   2   4   2  482.95   27.94
   2   4   2  486.67   28.53
   2   4   2  482.43   30.37
  -3  -4  -2  546.01   30.31
  -3  -4  -2  478.18   34.47
  -3  -4  -2  475.34   35.45
   3   4   2  519.57   29.69
   3   4   2  545.38   30.20
  -4  -4  -2  455.23   30.75
  -4  -4  -2  425.83   26.16
   4   4   2  496.39   27.86
   4   4   2  411.48   26.04
   4   4   2  427.13   26.26
   4   4   2  433.33   25.66
  -5  -4  -2  443.69   28.06
  -5  -4  -2  490.77   28.08
   5   4   2  486.79   27.50
   5   4   2  440.72   27.89
   5   4   2  457.04   28.15
   5   4   2  517.20   29.90
  -6  -4  -2  426.58   27.24
  -6  -4  -2  386.64   23.71
   6   4   2  398.20   23.33
   6   4   2  390.15   23.81
   6   4   2  385.69   25.22
  -7  -4  -2  230.04   14.42
  -7  -4  -2  243.48   16.64
   7   4   2  217.44   15.24
   7   4   2  248.86   14.55
   7   4   2  245.36   14.31
  -8  -4  -2  343.99   22.88
  -8  -4  -2  317.86   19.83
   8   4   2  327.12   19.57
   8   4   2  342.38   19.99
   8   4   2  309.47   21.11
  -9  -4  -2  284.60   17.74
  -9  -4  -2  306.66   20.58
   9   4   2  271.78   18.92
   9   4   2  291.62   17.56
   9   4   2  298.72   17.90
   5  -5  -2    3.10    0.39
   5  -5  -2    4.19    1.10
  -5   5   2    4.40    0.42
  -5   5   2    3.46    0.89
   4  -5  -2    0.86    0.48
   4  -5  -2    1.01    0.59
   4  -5  -2    0.88    0.41
   3  -5  -2    0.92    0.38
   3  -5  -2    1.07    0.54
   3  -5  -2    1.21    0.46
   2  -5  -2    0.12    0.33
   2  -5  -2    0.08    0.29
   2  -5  -2   -0.18    0.17
   1  -5  -2    8.06    0.86
   1  -5  -2    7.97    1.07
   1  -5  -2    8.17    1.15
   0  -5  -2    3.84    0.37
   0  -5  -2    5.30    0.49
   0  -5  -2    3.30    0.81
   0  -5  -2    4.32    0.62
   0   5   2    4.16    0.37
   0   5   2    5.29    0.49
   0   5   2    3.93    0.58
  -1  -5  -2   33.93    2.78
  -1  -5  -2   30.86    1.92
   1   5   2   35.09    2.04
   1   5   2   25.74    1.87
   1   5   2   26.42    1.97
  -2  -5  -2   33.16    2.69
  -2  -5  -2   25.73    1.75
  -2  -5  -2   25.65    1.91
   2   5   2   24.39    1.78
   2   5   2   26.67    1.74
  -3  -5  -2    0.12    0.15
  -3  -5  -2    2.72    0.72
  -3  -5  -2    0.41    0.19
   3   5   2    0.19    0.09
   3   5   2   -0.07    0.11
   3   5   2    0.29    0.15
  -4  -5  -2    0.01    0.15
  -4  -5  -2   -0.09    0.27
  -4  -5  -2    1.22    0.55
   4   5   2   -0.07    0.14
   4   5   2    0.31    0.13
   4   5   2    0.19    0.17
  -5  -5  -2   19.74    1.57
  -5  -5  -2   17.52    2.04
  -5  -5  -2   20.07    1.47
   5   5   2   16.95    1.35
   5   5   2   17.30    1.43
   5   5   2   16.23    1.34
  -6  -5  -2    1.55    0.66
  -6  -5  -2    1.45    0.48
  -6  -5  -2    1.39    0.50
   6   5   2    2.36    0.44
   6   5   2    1.05    0.35
   6   5   2    1.88    0.46
   6   5   2    2.07    0.59
  -7  -5  -2    0.46    0.52
  -7  -5  -2    0.13    0.37
   7   5   2   -0.32    0.41
   7   5   2    0.42    0.29
   7   5   2    0.92    0.41
  -8  -5  -2   -0.15    0.31
  -8  -5  -2    2.00    0.82
   8   5   2   -0.03    0.26
   8   5   2   -0.18    0.36
   8   5   2   -0.17    0.27
  -9  -5  -2   -0.23    0.35
  -9  -5  -2    0.54    0.69
   9   5   2    0.80    0.51
   9   5   2   -0.04    0.34
   4  -6  -2  190.68   14.05
   4  -6  -2  195.46   13.16
  -4   6   2  232.69   14.64
   3  -6  -2  225.36   15.51
   3  -6  -2  239.65   16.37
   3  -6  -2  228.06   14.61
   2  -6  -2  168.92   11.72
   2  -6  -2  177.43   12.42
   2  -6  -2  170.98   11.02
   1  -6  -2  294.45   20.05
   1  -6  -2  289.54   17.71
   1  -6  -2  291.91   16.80
  -1   6   2  273.99   16.84
  -1   6   2  274.12   16.73
   0  -6  -2  268.46   16.72
   0  -6  -2  270.42   15.92
   0  -6  -2  286.16   19.12
   0   6   2  259.22   15.89
   0   6   2  263.63   15.88
  -1  -6  -2  498.50   36.01
  -1  -6  -2  523.22   30.51
  -1  -6  -2  515.78   31.61
   1   6   2  531.56   30.42
   1   6   2  516.97   30.05
  -2  -6  -2  454.57   31.62
  -2  -6  -2  462.04   26.74
  -2  -6  -2  446.06   27.66
   2   6   2  463.55   26.66
   2   6   2  436.10   26.29
  -3  -6  -2  306.57   23.04
  -3  -6  -2  341.65   19.30
   3   6   2  312.25   18.93
   3   6   2  332.55   19.19
  -4  -6  -2  426.25   24.84
  -4  -6  -2  395.72   29.40
   4   6   2  417.86   24.36
   4   6   2  429.06   24.73
  -5  -6  -2  365.75   27.71
  -5  -6  -2  410.94   28.94
  -5  -6  -2  414.30   24.40
   5   6   2  422.92   23.95
   5   6   2  432.81   24.28
  -6  -6  -2  294.62   18.20
  -6  -6  -2  330.38   21.91
   6   6   2  304.56   17.89
   6   6   2  285.18   18.04
  -7  -6  -2  228.86   15.53
   7   6   2  188.16   12.37
  -8  -6  -2  281.10   19.79
   8   6   2  255.21   16.11
  -9  -6  -2   79.71    6.82
   3  -7  -2    0.22    0.41
   2  -7  -2   -0.11    0.33
   2  -7  -2   -0.09    0.32
   2  -7  -2   -0.01    0.16
  -2   7   2    0.06    0.13
  -2   7   2    0.97    0.49
   1  -7  -2    7.97    1.29
   1  -7  -2    8.15    0.66
   1  -7  -2    7.44    1.11
  -1   7   2    6.01    0.99
  -1   7   2    6.61    0.63
   0  -7  -2    3.83    0.94
   0  -7  -2    3.86    0.75
   0  -7  -2    3.83    0.50
   0   7   2    4.54    0.75
   0   7   2    4.64    0.51
  -1  -7  -2   11.69    1.04
  -1  -7  -2   15.66    1.90
  -1  -7  -2   13.41    1.33
   1   7   2   13.25    1.04
   1   7   2   13.11    1.22
  -2  -7  -2    0.22    0.20
  -2  -7  -2   -0.41    0.41
  -2  -7  -2    0.09    0.22
   2   7   2    0.39    0.27
   2   7   2    0.54    0.24
  -3  -7  -2    3.84    0.66
  -3  -7  -2    4.56    1.19
   3   7   2    4.22    0.57
   3   7   2    4.07    0.67
  -4  -7  -2    7.26    0.79
  -4  -7  -2    5.42    1.35
   4   7   2    7.38    0.75
   4   7   2    4.27    0.74
  -5  -7  -2    1.71    0.45
  -5  -7  -2    2.21    0.94
   5   7   2    0.71    0.34
   5   7   2    1.11    0.42
  -6  -7  -2    5.50    1.42
  -6  -7  -2    4.62    0.74
   6   7   2    3.90    0.73
   6   7   2    4.18    0.67
  -7  -7  -2    0.44    0.63
   7   7   2   -0.09    0.22
  -8  -7  -2    0.44    0.70
   8   7   2    0.50    0.39
  -9  -7  -2    0.78    0.86
   9   7   2    2.67    0.76
   1  -8  -2  159.35   11.08
   1  -8  -2  163.65   10.23
  -1   8   2  181.84   10.20
  -1   8   2  171.90   10.58
   0  -8  -2  207.57   13.74
   0  -8  -2  210.69   12.91
   0  -8  -2  230.95   15.54
   0   8   2  211.01   13.02
   0   8   2  214.43   12.86
  -1  -8  -2  241.35   14.70
  -1  -8  -2  255.53   17.78
  -1  -8  -2  229.39   15.46
   1   8   2  260.80   14.74
   1   8   2  240.16   14.66
  -2  -8  -2  219.58   13.12
  -2  -8  -2  226.90   16.07
  -2  -8  -2  211.84   13.77
   2   8   2  207.97   13.04
   2   8   2  220.85   13.08
  -3  -8  -2  265.24   16.50
  -3  -8  -2  290.14   19.96
  -3  -8  -2  271.91   17.14
   3   8   2  260.79   16.29
   3   8   2  285.19   16.43
  -4  -8  -2  297.06   21.81
  -4  -8  -2  287.83   18.00
   4   8   2  309.63   17.75
   4   8   2  301.19   17.91
  -5  -8  -2  147.19    9.33
  -5  -8  -2  152.86   11.85
   5   8   2  154.42    9.24
   5   8   2  146.10    9.23
  -6  -8  -2  218.28   13.22
  -6  -8  -2  219.51   16.38
   6   8   2  216.29   13.08
   6   8   2  206.87   12.98
  -7  -8  -2  219.18   13.40
  -7  -8  -2  238.08   16.74
   7   8   2  202.62   13.13
   7   8   2  212.35   13.21
  -8  -8  -2  227.41   16.14
   8   8   2  190.24   12.51
  -1  -9  -2    0.06    0.37
  -1  -9  -2   -0.14    0.21
  -1  -9  -2   -0.09    0.55
   1   9   2    0.26    0.37
   1   9   2   -0.27    0.20
  -2  -9  -2    3.16    0.60
  -2  -9  -2    4.19    1.32
  -2  -9  -2    3.22    0.79
   2   9   2    4.67    0.86
   2   9   2    4.22    0.67
  -3  -9  -2    1.87    1.05
  -3  -9  -2    1.96    0.56
   3   9   2    2.43    0.65
   3   9   2    1.33    0.45
  -4  -9  -2    3.98    1.28
  -4  -9  -2    2.95    0.66
   4   9   2    3.68    0.69
   4   9   2    4.28    0.81
  -5  -9  -2    3.53    1.34
  -5  -9  -2    2.16    0.60
   5   9   2    1.79    0.61
   5   9   2    2.57    0.60
  -6  -9  -2    1.84    1.16
  -6  -9  -2    0.81    0.48
   6   9   2    1.40    0.54
   6   9   2    0.85    0.45
  -7  -9  -2    1.53    1.12
  -7  -9  -2   -0.05    0.38
   7   9   2   -0.34    0.26
   7   9   2    0.43    0.40
   5   9  -3  204.03   11.92
   5   9  -3  179.34   11.77
  -5  -9   3  200.53   14.44
  -5  -9   3  179.24   12.20
  -5  -9   3  183.82   11.90
   4   9  -3  141.62    9.09
   4   9  -3  156.34    9.29
  -4  -9   3  133.62    9.14
  -4  -9   3  138.71    9.51
   3   9  -3  154.67    9.65
   3   9  -3  157.79    9.84
  -3  -9   3  152.49   10.20
  -3  -9   3  143.35    9.75
   2   9  -3  185.11   11.09
   2   9  -3  173.63   10.80
  -2  -9   3  168.22   11.43
  -2  -9   3  162.11   10.89
   7   8  -3    0.75    0.50
   7   8  -3    1.19    0.54
  -7  -8   3    2.31    1.27
   6   8  -3   -0.20    0.37
   6   8  -3    0.12    0.35
  -6  -8   3    0.00    0.67
   5   8  -3    1.11    0.49
   5   8  -3    1.73    0.60
   5   8  -3    1.03    0.44
  -5  -8   3    1.84    0.89
  -5  -8   3    1.32    0.51
  -5  -8   3    0.64    0.42
   4   8  -3    3.20    0.75
   4   8  -3    2.46    0.73
   4   8  -3    3.36    0.71
  -4  -8   3    3.09    0.70
  -4  -8   3    4.37    1.18
  -4  -8   3    3.54    0.78
   3   8  -3    6.05    1.03
   3   8  -3    2.64    0.59
  -3  -8   3    2.25    0.61
  -3  -8   3    2.67    0.71
   2   8  -3    3.80    0.88
   2   8  -3    3.04    0.65
  -2  -8   3    2.95    0.79
  -2  -8   3    3.31    0.70
   1   8  -3    1.14    0.57
   1   8  -3    0.36    0.33
  -1  -8   3    0.83    0.43
  -1  -8   3    0.59    0.49
   0   8  -3    0.96    0.59
   0  -8   3   -0.10    0.31
   0  -8   3    0.48    0.51
  -1   8  -3   -0.04    0.47
  -1   8  -3    0.38    0.36
   1  -8   3    0.51    0.45
   1  -8   3   -0.40    0.43
   8   7  -3  117.93    8.14
   8   7  -3  116.22    7.62
   7   7  -3  216.03   13.45
   7   7  -3  214.96   14.43
  -7  -7   3  227.25   15.00
   6   7  -3  211.72   13.54
   6   7  -3  220.61   14.60
  -6  -7   3  238.26   15.32
   5   7  -3  220.95   14.60
   5   7  -3  228.09   13.64
   5   7  -3  221.08   13.52
  -5  -7   3  197.48   16.46
  -5  -7   3  258.21   15.49
  -5  -7   3  222.33   13.72
  -5  -7   3  218.93   13.99
   4   7  -3  240.90   15.49
   4   7  -3  220.58   14.28
   4   7  -3  231.60   14.41
  -4  -7   3  262.96   17.38
  -4  -7   3  232.05   14.90
  -4  -7   3  222.94   14.51
  -4  -7   3  259.79   16.34
   3   7  -3  334.34   20.16
   3   7  -3  327.35   19.99
  -3  -7   3  367.66   23.87
  -3  -7   3  317.89   20.28
  -3  -7   3  337.27   20.89
   2   7  -3  253.98   15.80
   2   7  -3  259.83   15.76
  -2  -7   3  266.02   16.49
  -2  -7   3  266.12   15.91
   1   7  -3  246.49   14.78
   1   7  -3  251.19   14.88
  -1  -7   3  239.49   15.51
  -1  -7   3  238.04   14.91
   0   7  -3  260.23   15.79
   0   7  -3  273.49   15.67
   0  -7   3  248.96   16.49
   0  -7   3  247.76   15.81
  -1   7  -3  223.90   13.13
  -1   7  -3  215.13   12.85
   1  -7   3  199.17   12.96
   1  -7   3  197.85   13.66
  -2   7  -3  256.27   13.87
   2  -7   3  209.42   13.92
   2  -7   3  205.42   14.72
   8   6  -3    4.14    0.87
   8   6  -3    4.38    0.93
   7   6  -3    0.38    0.36
   7   6  -3    0.21    0.35
  -7  -6   3   -0.05    0.38
   6   6  -3    8.11    1.12
   6   6  -3    6.73    1.01
  -6  -6   3    7.87    1.33
   5   6  -3    0.27    0.27
   5   6  -3    0.14    0.21
   5   6  -3   -0.16    0.23
  -5  -6   3    0.43    0.43
  -5  -6   3    1.05    0.33
  -5  -6   3    0.28    0.26
   4   6  -3    8.65    0.90
   4   6  -3    8.93    1.02
   4   6  -3    7.55    1.03
  -4  -6   3    8.67    0.96
  -4  -6   3    9.07    1.48
  -4  -6   3   10.30    0.99
   3   6  -3    0.68    0.33
   3   6  -3    1.40    0.38
  -3  -6   3    0.93    0.36
  -3  -6   3    1.30    0.62
  -3  -6   3    0.98    0.38
  -3  -6   3    1.31    0.61
   2   6  -3    5.24    0.76
   2   6  -3    6.23    0.92
  -2  -6   3    5.36    0.80
  -2  -6   3    8.69    0.97
  -2  -6   3    9.55    1.42
   1   6  -3    0.17    0.19
   1   6  -3    0.14    0.30
  -1  -6   3    0.49    0.37
  -1  -6   3    0.28    0.24
   0   6  -3   14.71    1.32
   0   6  -3   14.44    1.50
   0  -6   3   14.17    1.56
   0  -6   3   14.10    1.39
   1  -6   3    1.17    0.46
   1  -6   3    0.64    0.45
  -2   6  -3    1.86    0.51
   2  -6   3    1.75    0.59
   2  -6   3    1.48    0.64
  -3   6  -3    1.59    0.53
   3  -6   3    1.30    0.70
   3  -6   3    1.61    0.53
  -4   6  -3    0.46    0.40
   4  -6   3    0.54    0.37
   4  -6   3    0.75    0.61
   9   5  -3  196.41   11.91
  -9  -5   3  179.24   13.58
   8   5  -3  268.75   16.69
   8   5  -3  274.12   17.99
  -8  -5   3  280.19   16.99
  -8  -5   3  274.75   19.20
   7   5  -3  303.02   18.43
   7   5  -3  286.55   19.39
   7   5  -3  324.00   17.93
  -7  -5   3  299.04   19.76
  -7  -5   3  288.21   20.62
  -7  -5   3  294.87   18.31
   6   5  -3  175.19   10.73
   6   5  -3  153.12   11.11
   6   5  -3  162.92   10.33
  -6  -5   3  167.18   11.83
  -6  -5   3  179.31   10.71
  -6  -5   3  179.93   11.59
   5   5  -3  465.38   28.40
   5   5  -3  435.45   26.40
   5   5  -3  440.38   26.07
  -5  -5   3  436.25   29.05
  -5  -5   3  458.16   27.09
  -5  -5   3  448.43   26.73
  -5  -5   3  432.40   30.01
   4   5  -3  472.49   27.13
   4   5  -3  418.44   26.68
   4   5  -3  458.81   29.14
  -4  -5   3  498.08   27.91
  -4  -5   3  416.00   29.80
  -4  -5   3  480.52   27.26
   3   5  -3  343.88   20.30
   3   5  -3  336.35   20.01
  -3  -5   3  356.30   20.94
  -3  -5   3  324.49   22.46
  -3  -5   3  344.33   20.41
   2   5  -3  398.89   23.81
   2   5  -3  386.64   23.46
  -2  -5   3  403.61   27.86
  -2  -5   3  412.17   24.63
  -2  -5   3  406.47   23.93
   1   5  -3  296.13   18.94
   1   5  -3  327.89   19.16
  -1  -5   3  322.43   19.30
  -1  -5   3  331.11   19.89
  -1  -5   3  329.80   21.19
   0   5  -3  492.64   29.03
   0  -5   3  497.77   29.19
   0  -5   3  478.26   30.06
  -1   5  -3  452.57   25.11
   1  -5   3  393.76   25.26
   1  -5   3  416.27   26.05
  -2   5  -3  272.46   16.45
   2  -5   3  273.32   16.53
   2  -5   3  272.25   17.26
  -3   5  -3  245.80   16.17
  -3   5  -3  236.01   14.10
   3  -5   3  223.68   14.14
   3  -5   3  225.82   14.96
  -4   5  -3  281.51   17.08
  -4   5  -3  319.80   19.68
   4  -5   3  264.11   18.06
   4  -5   3  267.40   17.07
  -5   5  -3  153.65    9.11
   5  -5   3  137.90    9.85
   5  -5   3  142.11    9.04
   9   4  -3    1.37    0.69
   9   4  -3    1.92    0.70
   9   4  -3    2.49    0.80
  -9  -4   3    1.23    0.66
  -9  -4   3    1.69    0.65
   8   4  -3   -0.39    0.36
   8   4  -3    0.18    0.40
   8   4  -3    0.12    0.34
  -8  -4   3    0.23    0.43
  -8  -4   3    0.03    0.37
   7   4  -3    6.48    1.04
   7   4  -3    3.71    0.77
   7   4  -3    4.90    0.93
  -7  -4   3    4.54    0.86
  -7  -4   3    3.80    0.85
   6   4  -3    2.27    0.58
   6   4  -3    3.53    0.71
   6   4  -3    3.20    0.63
  -6  -4   3    2.27    0.62
  -6  -4   3    3.62    0.77
   5   4  -3   22.96    2.06
   5   4  -3   28.63    2.14
   5   4  -3   23.60    1.96
  -5  -4   3   30.65    2.21
  -5  -4   3   27.96    2.36
   4   4  -3    4.36    0.59
   4   4  -3    5.15    0.77
   4   4  -3    4.25    0.65
   4   4  -3    3.80    0.65
  -4  -4   3    5.70    0.63
  -4  -4   3    4.92    0.92
  -4  -4   3    5.38    0.79
  -4  -4   3    4.86    0.51
   3   4  -3    3.82    0.57
   3   4  -3    6.06    0.75
   3   4  -3    3.34    0.49
  -3  -4   3    5.48    0.76
  -3  -4   3    3.72    0.53
  -3  -4   3    3.61    0.50
  -3  -4   3    3.97    0.79
   2   4  -3    8.65    0.80
   2   4  -3    9.04    0.84
  -2  -4   3    8.07    0.84
  -2  -4   3   11.42    1.23
  -2  -4   3    9.74    0.86
   1   4  -3    3.51    0.58
   1   4  -3    2.55    0.45
  -1  -4   3    2.74    0.53
  -1  -4   3    4.20    0.81
  -1  -4   3    3.53    0.56
   0   4  -3    1.58    0.36
   0   4  -3    2.28    0.42
   0  -4   3    2.89    0.42
   0  -4   3    1.66    0.52
   0  -4   3    1.82    0.46
   0  -4   3    1.54    0.39
  -1   4  -3    1.07    0.35
  -1   4  -3    0.40    0.25
   1  -4   3    1.22    0.39
   1  -4   3    1.33    0.42
  -2   4  -3    2.47    0.48
  -2   4  -3    1.99    0.51
   2  -4   3    2.97    0.54
   2  -4   3    2.47    0.64
  -3   4  -3    0.89    0.41
  -3   4  -3    0.52    0.31
   3  -4   3    0.16    0.30
   3  -4   3    0.04    0.21
  -4   4  -3    0.49    0.34
  -4   4  -3   -0.29    0.28
   4  -4   3    0.58    0.31
   4  -4   3    0.41    0.40
  -5   4  -3    0.87    0.51
  -5   4  -3    0.58    0.39
   5  -4   3    0.75    0.51
   5  -4   3    0.75    0.35
  -6   4  -3    4.53    0.79
  -6   4  -3    4.30    1.04
   6  -4   3    4.52    0.73
   6  -4   3    5.23    1.11
   9   3  -3  324.22   18.11
   9   3  -3  294.32   19.59
  -9  -3   3  272.44   20.66
  -9  -3   3  290.51   18.09
   8   3  -3  236.29   13.71
   8   3  -3  218.28   14.87
   8   3  -3  223.30   13.88
  -8  -3   3  216.12   15.74
  -8  -3   3  220.81   13.82
   7   3  -3  388.89   24.89
   7   3  -3  390.60   23.28
   7   3  -3  376.39   22.88
  -7  -3   3  386.35   23.25
   6   3  -3  459.06   28.92
   6   3  -3  484.01   30.92
   6   3  -3  451.69   28.37
  -6  -3   3  493.19   28.93
  -6  -3   3  534.78   31.40
   5   3  -3  417.27   27.64
   5   3  -3  470.66   27.06
   5   3  -3  464.61   29.55
  -5  -3   3  502.68   30.11
  -5  -3   3  467.07   27.65
   4   3  -3  409.93   22.90
   4   3  -3  360.84   23.43
   4   3  -3  383.88   23.20
   4   3  -3  396.45   24.99
  -4  -3   3  374.28   23.39
  -4  -3   3  413.21   25.57
  -4  -3   3  410.80   23.77
   3   3  -3  286.63   16.78
   3   3  -3  265.55   16.54
   3   3  -3  283.40   17.85
   3   3  -3  269.04   16.30
  -3  -3   3  283.81   16.98
  -3  -3   3  273.02   16.72
  -3  -3   3  273.63   18.32
  -3  -3   3  296.55   16.66
   2   3  -3  367.20   23.21
   2   3  -3  420.92   23.65
   2   3  -3  445.48   23.86
  -2  -3   3  423.76   24.35
  -2  -3   3  336.30   25.91
  -2  -3   3  394.76   23.76
  -2  -3   3  413.15   23.73
   1   3  -3  482.18   28.13
   1   3  -3  486.86   28.62
   1   3  -3  536.70   32.48
  -1  -3   3  420.03   31.27
  -1  -3   3  487.73   29.55
  -1  -3   3  496.62   28.75
   0   3  -3  564.37   37.18
   0   3  -3  547.45   32.73
   0  -3   3  577.80   33.86
   0  -3   3  530.18   32.90
   0  -3   3  614.31   37.90
   0  -3   3  495.80   35.66
  -1   3  -3  422.98   27.17
   1  -3   3  460.78   29.60
   1  -3   3  455.28   27.28
   1  -3   3  501.33   28.23
  -2   3  -3  724.91   46.90
  -2   3  -3  610.99   41.16
   2  -3   3  721.48   42.74
   2  -3   3  742.52   41.30
  -3   3  -3  454.84   28.69
  -3   3  -3  414.36   25.11
   3  -3   3  415.15   25.13
   3  -3   3  411.32   26.22
  -4   3  -3  289.68   20.02
  -4   3  -3  283.10   17.46
   4  -3   3  317.24   19.20
   4  -3   3  281.87   18.42
  -5   3  -3  277.01   19.07
  -5   3  -3  279.81   16.61
   5  -3   3  280.18   18.24
   5  -3   3  266.88   17.51
   5  -3   3  276.49   16.58
  -6   3  -3  253.79   17.81
  -6   3  -3  260.64   15.49
   6  -3   3  267.16   17.09
   6  -3   3  239.19   16.26
   6  -3   3  254.91   15.42
   8   2  -3    1.36    0.61
   8   2  -3    1.78    0.68
   8   2  -3    1.17    0.53
  -8  -2   3    1.00    0.46
   7   2  -3    0.43    0.38
   7   2  -3    0.40    0.41
   7   2  -3    0.13    0.28
  -7  -2   3    0.39    0.33
   6   2  -3   15.92    1.60
   6   2  -3   18.61    1.53
   6   2  -3   18.59    1.58
  -6  -2   3   15.36    1.45
   5   2  -3    8.13    0.89
   5   2  -3    8.79    0.95
   5   2  -3    9.57    1.01
  -5  -2   3    8.91    0.91
  -5  -2   3    9.01    1.02
   4   2  -3   11.09    1.08
   4   2  -3    9.57    0.93
   4   2  -3   11.98    1.07
  -4  -2   3   11.45    1.18
  -4  -2   3   12.24    1.04
   3   2  -3    3.83    0.44
   3   2  -3    3.06    0.55
   3   2  -3    6.34    0.64
   3   2  -3    5.25    0.53
  -3  -2   3    4.28    0.74
  -3  -2   3    3.88    0.37
  -3  -2   3    4.12    0.48
  -3  -2   3    5.39    0.60
   2   2  -3   41.21    2.65
   2   2  -3   37.93    2.51
   2   2  -3   36.88    2.48
  -2  -2   3   40.66    2.56
  -2  -2   3   45.69    2.68
  -2  -2   3   35.71    2.95
  -2  -2   3   38.25    2.54
   1   2  -3   -0.20    0.12
   1   2  -3   -0.15    0.13
   1   2  -3    0.04    0.18
   1   2  -3    0.13    0.15
  -1  -2   3    0.11    0.19
  -1  -2   3   -0.01    0.18
  -1  -2   3   -0.11    0.22
  -1  -2   3    0.00    0.16
   0   2  -3   -0.09    0.19
   0   2  -3    0.39    0.26
   0  -2   3    0.43    0.27
   0  -2   3    0.07    0.23
   0  -2   3    0.18    0.29
  -1   2  -3   61.70    4.30
   1  -2   3   73.83    4.75
   1  -2   3   69.88    4.59
   1  -2   3   69.34    4.37
  -2   2  -3    7.04    0.86
  -2   2  -3    6.56    0.72
   2  -2   3    7.29    0.90
   2  -2   3    7.52    0.79
   2  -2   3    8.81    0.75
  -3   2  -3   47.64    3.21
  -3   2  -3   48.43    3.73
   3  -2   3   52.62    3.72
   3  -2   3   50.96    3.61
   3  -2   3   49.67    3.20
  -4   2  -3    1.05    0.32
  -4   2  -3    0.33    0.28
   4  -2   3    2.04    0.36
   4  -2   3    0.34    0.30
   4  -2   3    0.43    0.36
  -5   2  -3   13.47    1.52
  -5   2  -3   15.18    1.28
   5  -2   3   13.47    1.54
   5  -2   3   14.30    1.18
   5  -2   3   12.45    1.48
  -6   2  -3    5.12    1.02
  -6   2  -3    5.27    0.82
   6  -2   3    6.97    1.15
   6  -2   3    8.09    1.30
   6  -2   3    6.60    0.76
  -7   2  -3    1.36    0.62
  -7   2  -3    0.96    0.47
   7  -2   3    0.88    0.63
   7  -2   3    1.20    0.40
   8   1  -3  293.89   18.03
   8   1  -3  267.79   16.47
  -8  -1   3  250.36   16.41
   7   1  -3  388.29   22.96
   7   1  -3  388.54   24.90
  -7  -1   3  371.79   22.92
   6   1  -3  423.26   24.85
   6   1  -3  414.63   24.57
   6   1  -3  408.36   26.77
  -6  -1   3  418.50   24.78
   5   1  -3  289.36   18.03
   5   1  -3  319.89   19.72
   5   1  -3  315.51   18.34
  -5  -1   3  290.06   19.85
  -5  -1   3  314.97   18.28
   4   1  -3  381.73   23.15
   4   1  -3  342.21   21.53
   4   1  -3  311.16   21.13
  -4  -1   3  419.50   21.55
  -4  -1   3  356.71   23.45
   3   1  -3  518.48   32.30
   3   1  -3  575.51   31.63
  -2  -1   3  737.47   44.70
   1   1  -3  228.03   13.58
   1   1  -3  224.95   13.43
   1   1  -3  226.23   13.15
  -1  -1   3  246.40   13.51
  -1  -1   3  211.14   13.51
  -1  -1   3  225.12   13.88
   0   1  -3  467.78   30.17
   0   1  -3  420.76   26.49
   0  -1   3  506.89   26.65
   0  -1   3  489.89   27.39
   0  -1   3  419.55   26.51
   0  -1   3  395.40   28.81
  -1   1  -3  363.87   23.52
   1  -1   3  404.72   24.33
   1  -1   3  427.11   23.61
   1  -1   3  396.77   25.52
  -2   1  -3  469.74   28.17
  -2   1  -3  472.80   32.15
   2  -1   3  500.47   30.52
   2  -1   3  470.68   29.20
   2  -1   3  473.77   28.21
  -3   1  -3  645.09   39.65
  -3   1  -3  547.72   34.73
   3  -1   3  568.28   36.02
   3  -1   3  606.54   37.43
   3  -1   3  580.81   34.76
  -4   1  -3  431.70   26.18
  -4   1  -3  468.13   29.94
   4  -1   3  430.67   26.20
   4  -1   3  436.94   28.26
   4  -1   3  446.17   27.28
  -5   1  -3  426.10   25.22
  -5   1  -3  424.41   28.85
   5  -1   3  432.99   27.29
   5  -1   3  405.53   26.25
   5  -1   3  434.89   25.25
  -6   1  -3  380.92   23.04
  -6   1  -3  368.52   26.37
   6  -1   3  382.57   23.05
   6  -1   3  396.26   24.99
   6  -1   3  403.70   24.02
  -7   1  -3  216.71   15.78
  -7   1  -3  223.60   13.73
   7  -1   3  226.12   14.34
   7  -1   3  238.94   15.05
   7  -1   3  219.00   13.66
  -8   1  -3  180.00   13.38
  -8   1  -3  178.22   11.59
   8  -1   3  202.29   12.83
   8  -1   3  185.58   11.50
   8   0  -3    4.29    1.06
   8   0  -3    5.06    0.84
  -8   0   3    3.79    0.76
   7   0  -3    0.08    0.34
   7   0  -3    0.15    0.26
  -7   0   3    0.21    0.28
   6   0  -3    3.74    0.85
   6   0  -3    3.71    0.59
  -6   0   3    3.86    0.60
   5   0  -3   16.96    1.66
   5   0  -3   18.57    1.37
  -5   0   3   16.30    1.33
   4   0  -3    8.39    0.90
   4   0  -3    7.81    0.89
   4   0  -3    8.94    0.76
  -4   0   3    8.74    0.75
  -4   0   3    7.38    0.90
   3   0  -3   12.05    1.10
   3   0  -3   14.55    1.25
   3   0  -3   14.75    1.10
  -3   0   3   15.94    1.37
  -3   0   3   13.21    1.05
   2   0  -3   -0.19    0.17
   2   0  -3   -0.42    0.12
   2   0  -3   -0.29    0.14
   2   0  -3   -0.37    0.19
  -2   0   3   -0.20    0.22
  -2   0   3   -0.21    0.15
   1   0  -3  115.70    6.96
   1   0  -3  115.08    7.27
   1   0  -3  139.70    7.76
   1   0  -3  122.38    8.46
  -1   0   3  114.51    7.95
  -1   0   3  111.89    7.21
   0   0  -3   15.91    1.33
   0   0  -3   15.44    1.09
   0   0  -3   16.87    1.32
   0   0  -3   14.91    1.16
   0   0   3   14.65    1.27
   0   0   3   16.86    1.14
   0   0   3   15.94    1.14
  -1   0  -3  329.08   21.44
  -1   0  -3  311.11   18.78
  -1   0  -3  306.54   18.80
  -1   0  -3  331.93   21.72
   1   0   3  330.18   20.32
   1   0   3  320.15   18.74
   1   0   3  283.07   18.78
  -2   0  -3    6.02    0.60
  -2   0  -3    6.97    0.63
   2   0   3    4.96    0.54
   2   0   3    5.98    0.59
   2   0   3    5.86    0.66
  -3   0  -3    5.07    0.73
  -3   0  -3    6.03    0.62
   3   0   3    6.06    0.58
   3   0   3    5.33    0.46
   3   0   3    3.41    0.64
   3   0   3    5.55    0.68
  -4   0  -3   11.03    1.24
  -4   0  -3   11.94    1.03
   4   0   3   11.49    1.17
   4   0   3   12.77    1.20
   4   0   3   13.04    1.05
  -5   0  -3    1.04    0.31
  -5   0  -3   -0.18    0.18
   5   0   3    0.10    0.23
   5   0   3    0.38    0.30
   5   0   3    0.54    0.26
  -6   0  -3    1.78    0.43
  -6   0  -3    1.68    0.59
   6   0   3    2.23    0.48
   6   0   3    2.62    0.63
   6   0   3    2.44    0.62
  -7   0  -3    3.86    0.90
  -7   0  -3    4.71    0.75
   7   0   3    5.08    0.93
   7   0   3    4.39    0.89
   7   0   3    4.40    0.75
  -8   0  -3    3.81    0.76
  -8   0  -3    4.05    1.01
   8   0   3    3.00    0.67
   8   0   3    3.71    0.92
   7  -1  -3  293.34   17.75
   7  -1  -3  322.77   19.70
  -7   1   3  275.70   17.73
   6  -1  -3  334.27   20.50
   6  -1  -3  363.93   22.44
  -6   1   3  336.45   20.45
   5  -1  -3  416.70   26.97
   5  -1  -3  427.27   24.82
  -5   1   3  413.27   24.75
   4  -1  -3  638.35   40.47
   4  -1  -3  645.26   37.51
  -4   1   3  651.28   37.41
  -4   1   3  612.74   40.95
   3  -1  -3  330.16   19.69
   3  -1  -3  318.00   18.10
   3  -1  -3  305.48   21.41
   3  -1  -3  293.90   18.17
  -3   1   3  314.86   18.14
  -3   1   3  286.02   18.04
  -3   1   3  302.67   19.94
   2  -1  -3  432.70   32.32
   2  -1  -3  485.98   27.61
  -2   1   3  490.45   30.16
   1  -1  -3  479.73   27.41
   1  -1  -3  518.15   27.48
   1  -1  -3  397.60   31.94
   1  -1  -3  513.13   29.36
  -1   1   3  416.38   29.75
   0  -1  -3  504.56   30.05
   0  -1  -3  440.01   28.20
   0   1   3  400.16   26.31
  -1  -1  -3  339.17   22.02
  -1  -1  -3  329.13   22.45
  -1  -1  -3  302.26   19.28
   1   1   3  307.02   19.22
   1   1   3  316.60   20.86
   1   1   3  358.24   19.34
   1   1   3  331.05   18.82
  -2  -1  -3  447.80   30.89
  -2  -1  -3  486.07   26.66
  -2  -1  -3  426.78   26.60
   2   1   3  452.77   28.47
   2   1   3  452.38   26.65
   2   1   3  450.42   26.04
   2   1   3  439.12   28.83
  -3  -1  -3  491.58   35.96
  -3  -1  -3  501.60   31.53
  -3  -1  -3  522.82   31.51
   3   1   3  543.48   31.54
   3   1   3  540.24   31.42
   3   1   3  546.04   33.74
   3   1   3  549.46   33.97
   3   1   3  575.30   30.93
  -4  -1  -3  688.57   42.19
   4   1   3  699.14   45.25
   4   1   3  754.01   41.52
   4   1   3  662.89   42.28
   4   1   3  781.31   43.57
  -5  -1  -3  617.05   40.08
  -5  -1  -3  591.70   35.06
   5   1   3  546.66   35.13
   5   1   3  584.05   34.59
   5   1   3  591.63   37.66
   5   1   3  634.04   36.22
  -6  -1  -3  306.14   18.77
  -6  -1  -3  318.57   21.59
   6   1   3  318.57   19.44
   6   1   3  319.63   20.26
   6   1   3  307.28   18.84
  -7  -1  -3  338.44   23.83
  -7  -1  -3  334.76   20.73
   7   1   3  329.48   20.79
   7   1   3  353.74   22.39
   7   1   3  375.30   21.53
  -8  -1  -3  245.45   17.64
  -8  -1  -3  256.10   15.30
   8   1   3  242.61   15.31
   8   1   3  259.07   16.54
  -9  -1  -3  163.20   10.58
  -9  -1  -3  160.58   12.27
   9   1   3  181.63   11.53
   9   1   3  166.34   10.56
   7  -2  -3    0.26    0.57
   7  -2  -3   -0.24    0.19
  -7   2   3    0.44    0.31
   6  -2  -3    1.49    0.37
   6  -2  -3    1.55    0.72
  -6   2   3    1.27    0.35
   5  -2  -3    0.88    0.46
   5  -2  -3    1.43    0.29
  -5   2   3    1.29    0.29
   4  -2  -3    0.50    0.18
   4  -2  -3    0.62    0.36
   4  -2  -3    0.18    0.15
   4  -2  -3    1.67    0.48
  -4   2   3    0.51    0.16
  -4   2   3    0.91    0.38
   3  -2  -3    8.03    0.71
   3  -2  -3    8.83    0.61
   3  -2  -3   10.54    1.16
   3  -2  -3    9.34    1.00
   3  -2  -3   11.34    0.72
  -3   2   3    9.59    1.00
  -3   2   3    7.81    0.59
  -3   2   3    8.91    0.67
   2  -2  -3    1.83    0.31
   2  -2  -3    2.91    0.52
   2  -2  -3    1.49    0.50
   1  -2  -3   69.82    5.07
   1  -2  -3   68.77    4.47
   1  -2  -3   70.33    3.99
   1  -2  -3   71.64    3.98
  -1   2   3   62.33    3.97
  -1   2   3   59.64    3.96
   0  -2  -3   11.32    0.72
   0  -2  -3    8.60    0.83
   0  -2  -3   10.51    0.68
   0  -2  -3    8.92    1.05
   0  -2  -3    8.50    0.71
   0   2   3    8.89    0.64
   0   2   3    8.57    0.67
   0   2   3    7.66    0.61
  -1  -2  -3   44.50    2.63
  -1  -2  -3   43.38    3.05
   1   2   3   37.39    2.55
   1   2   3   39.61    2.48
  -2  -2  -3   73.26    4.36
  -2  -2  -3   70.52    4.38
  -2  -2  -3   71.04    5.18
  -2  -2  -3   67.02    5.07
   2   2   3   66.92    4.27
   2   2   3   71.71    4.35
   2   2   3   65.64    4.17
  -3  -2  -3    2.91    0.60
  -3  -2  -3    2.37    0.46
  -3  -2  -3    1.96    0.40
   3   2   3    2.38    0.38
   3   2   3    2.49    0.43
   3   2   3    2.48    0.37
   3   2   3    2.70    0.44
  -4  -2  -3    9.24    0.91
  -4  -2  -3   10.06    0.95
  -4  -2  -3    8.08    1.13
   4   2   3   11.15    0.97
   4   2   3   12.15    0.99
   4   2   3   10.68    0.94
   4   2   3    9.91    0.85
  -5  -2  -3   20.36    1.87
  -5  -2  -3   20.26    1.52
   5   2   3   16.46    1.46
   5   2   3   18.64    1.42
   5   2   3   22.01    1.59
   5   2   3   18.14    1.58
  -6  -2  -3   -0.35    0.23
  -6  -2  -3   -0.28    0.17
   6   2   3   -0.01    0.21
   6   2   3   -0.08    0.21
   6   2   3    0.15    0.25
   6   2   3    0.05    0.23
  -7  -2  -3    4.73    0.78
  -7  -2  -3    5.51    1.07
   7   2   3    5.23    0.85
   7   2   3    4.03    0.86
   7   2   3    5.41    0.83
   7   2   3    6.08    0.98
  -8  -2  -3    6.84    1.28
  -8  -2  -3    6.66    0.98
   8   2   3    7.85    1.20
   8   2   3    6.98    1.05
  -9  -2  -3    1.00    0.66
  -9  -2  -3    1.34    0.55
   9   2   3    1.33    0.61
   9   2   3    0.55    0.46
   6  -3  -3  261.01   16.98
   6  -3  -3  249.66   14.98
  -6   3   3  245.27   14.96
   5  -3  -3  295.29   19.30
   5  -3  -3  305.84   17.29
  -5   3   3  275.53   17.24
   4  -3  -3  456.96   30.00
   4  -3  -3  408.32   26.20
   4  -3  -3  419.02   27.74
   4  -3  -3  469.49   25.34
  -4   3   3  444.50   28.01
  -4   3   3  388.92   25.25
   3  -3  -3  373.57   24.75
   3  -3  -3  361.52   21.65
   3  -3  -3  330.25   22.81
   2  -3  -3  481.83   31.57
   2  -3  -3  515.43   30.16
   2  -3  -3  493.84   34.34
   1  -3  -3  462.13   31.46
   1  -3  -3  507.26   34.36
   1  -3  -3  523.35   30.18
   0  -3  -3  688.39   40.60
   0  -3  -3  727.65   42.21
   0  -3  -3  608.68   40.76
   0   3   3  714.87   40.77
   0   3   3  694.73   40.61
   0   3   3  717.36   39.94
  -1  -3  -3  423.58   31.15
  -1  -3  -3  466.90   26.68
  -1  -3  -3  473.43   30.27
   1   3   3  451.65   26.00
   1   3   3  439.39   26.63
  -2  -3  -3  470.93   37.10
  -2  -3  -3  504.51   36.15
  -2  -3  -3  553.17   31.76
   2   3   3  563.74   31.08
   2   3   3  600.32   31.82
  -3  -3  -3  580.52   35.26
  -3  -3  -3  579.15   35.26
  -3  -3  -3  563.19   41.06
   3   3   3  616.54   35.12
   3   3   3  632.00   35.27
   3   3   3  611.34   34.49
  -4  -3  -3  301.02   18.33
  -4  -3  -3  316.96   21.43
  -4  -3  -3  306.25   18.33
   4   3   3  315.52   19.44
   4   3   3  306.17   17.91
   4   3   3  319.75   18.34
   4   3   3  280.21   18.15
  -5  -3  -3  494.80   26.85
  -5  -3  -3  432.34   26.74
   5   3   3  426.35   26.81
   5   3   3  430.19   26.58
   5   3   3  441.10   26.29
   5   3   3  479.21   28.57
  -6  -3  -3  372.06   25.14
  -6  -3  -3  360.92   21.86
   6   3   3  365.15   23.35
   6   3   3  366.71   21.96
   6   3   3  364.16   21.53
  -7  -3  -3  362.64   22.47
  -7  -3  -3  385.67   25.88
   7   3   3  380.63   22.60
   7   3   3  368.40   24.06
   7   3   3  374.93   23.07
   7   3   3  379.12   22.16
  -8  -3  -3  389.14   26.16
  -8  -3  -3  372.66   22.69
   8   3   3  370.60   22.78
   8   3   3  358.22   24.28
   8   3   3  396.14   22.48
  -9  -3  -3  255.72   17.75
  -9  -3  -3  231.80   15.21
   9   3   3  255.03   16.36
   9   3   3  244.68   15.31
   9   3   3  252.50   15.28
   6  -4  -3   -0.12    0.18
   6  -4  -3    0.18    0.48
  -6   4   3   -0.12    0.20
   5  -4  -3    1.57    0.28
   5  -4  -3    1.73    0.72
  -5   4   3    1.61    0.28
   4  -4  -3    5.02    0.98
   4  -4  -3    4.88    1.01
   4  -4  -3    4.10    0.66
   3  -4  -3   12.12    1.38
   3  -4  -3   10.95    1.05
   3  -4  -3   12.71    1.42
   2  -4  -3    4.19    0.85
   2  -4  -3    3.64    0.55
   2  -4  -3    3.96    0.74
   1  -4  -3    0.80    0.41
   1  -4  -3    0.99    0.34
   1  -4  -3    0.62    0.23
  -1  -4  -3    9.63    0.81
  -1  -4  -3    8.37    0.64
  -1  -4  -3    7.97    1.13
   1   4   3    8.25    0.62
   1   4   3    6.52    0.64
   1   4   3   10.41    0.86
  -2  -4  -3    4.17    0.89
  -2  -4  -3    2.40    0.46
  -2  -4  -3    2.25    0.35
   2   4   3    2.48    0.37
   2   4   3    2.10    0.32
  -3  -4  -3   42.42    3.31
  -3  -4  -3   39.12    2.49
  -3  -4  -3   36.22    2.94
   3   4   3   35.49    2.42
   3   4   3   36.51    2.43
  -4  -4  -3   18.23    1.44
  -4  -4  -3   14.93    1.82
  -4  -4  -3   18.97    1.91
  -4  -4  -3   19.71    1.55
   4   4   3   19.64    1.40
   4   4   3   16.05    1.32
   4   4   3   20.09    1.36
   4   4   3   21.11    1.50
  -5  -4  -3    2.80    0.57
  -5  -4  -3    0.97    0.51
  -5  -4  -3    1.69    0.43
  -5  -4  -3    2.16    0.69
   5   4   3    1.80    0.38
   5   4   3    2.13    0.39
   5   4   3    3.41    0.61
   5   4   3    3.55    0.54
  -6  -4  -3   18.78    1.64
   6   4   3   18.77    1.57
   6   4   3   18.29    1.60
   6   4   3   21.36    1.75
  -7  -4  -3    0.95    0.60
  -7  -4  -3    1.35    0.49
   7   4   3    0.88    0.41
   7   4   3    1.98    0.58
   7   4   3    0.96    0.50
  -8  -4  -3   -0.20    0.33
  -8  -4  -3    1.01    0.65
   8   4   3   -0.05    0.27
   8   4   3   -0.21    0.27
   8   4   3   -0.36    0.35
  -9  -4  -3   -0.30    0.33
  -9  -4  -3    1.20    0.80
   9   4   3   -0.15    0.38
   9   4   3   -0.70    0.34
   9   4   3   -0.10    0.42
   5  -5  -3  210.82   14.42
   4  -5  -3  219.35   15.41
   4  -5  -3  205.13   13.45
   4  -5  -3  221.54   14.51
   3  -5  -3  196.25   12.74
   3  -5  -3  214.94   14.56
   3  -5  -3  199.44   13.58
   2  -5  -3  386.79   26.33
   2  -5  -3  418.97   25.12
   2  -5  -3  422.99   28.57
   1  -5  -3  338.04   22.56
   1  -5  -3  306.71   20.69
   1  -5  -3  327.71   19.74
  -1   5   3  312.32   18.76
   0  -5  -3  400.29   25.10
   0  -5  -3  413.19   24.17
   0  -5  -3  392.55   28.68
   0   5   3  404.62   24.10
   0   5   3  445.30   24.26
   0   5   3  409.20   23.87
  -1  -5  -3  647.45   37.83
  -1  -5  -3  563.30   44.45
  -1  -5  -3  649.91   39.09
   1   5   3  667.09   37.16
   1   5   3  686.73   37.74
  -2  -5  -3  352.67   24.32
  -2  -5  -3  356.93   20.48
  -2  -5  -3  346.75   23.23
   2   5   3  338.66   20.39
   2   5   3  335.81   20.09
  -3  -5  -3  327.09   24.65
  -3  -5  -3  361.79   20.80
  -3  -5  -3  322.79   23.61
   3   5   3  363.11   20.70
   3   5   3  374.34   20.39
  -4  -5  -3  346.55   20.33
  -4  -5  -3  348.37   24.09
  -4  -5  -3  304.98   23.17
   4   5   3  352.74   20.22
   4   5   3  353.74   19.93
  -5  -5  -3  418.67   27.82
  -5  -5  -3  393.47   23.57
  -5  -5  -3  354.22   27.01
   5   5   3  409.30   23.08
   5   5   3  399.56   23.41
  -6  -5  -3  402.26   25.82
  -6  -5  -3  459.11   30.47
   6   5   3  446.20   27.38
   6   5   3  438.72   25.29
   6   5   3  416.50   25.61
  -7  -5  -3  388.05   23.00
  -7  -5  -3  386.21   27.08
   7   5   3  371.90   22.51
   7   5   3  378.80   24.30
  -8  -5  -3  206.02   14.99
   8   5   3  198.79   13.17
   8   5   3  199.16   12.34
   9   5   3  229.21   14.95
   9   5   3  224.35   13.88
   4  -6  -3    2.77    0.81
   4  -6  -3    2.49    0.88
   3  -6  -3    0.39    0.53
   3  -6  -3    0.13    0.30
   2  -6  -3   -0.05    0.40
   2  -6  -3    0.08    0.26
   2  -6  -3    0.46    0.44
   1  -6  -3   17.86    1.81
   1  -6  -3   13.37    0.95
   1  -6  -3   14.76    1.36
  -1   6   3   14.37    0.95
  -1   6   3   14.34    1.27
   0  -6  -3    2.26    0.73
   0  -6  -3    1.03    0.21
   0  -6  -3    1.70    0.43
   0   6   3    0.88    0.30
   0   6   3    1.24    0.22
  -1  -6  -3    0.34    0.52
  -1  -6  -3    0.44    0.27
  -1  -6  -3    0.15    0.14
   1   6   3    0.14    0.14
   1   6   3    0.38    0.22
  -2  -6  -3    0.78    0.26
  -2  -6  -3    0.31    0.50
   2   6   3    0.28    0.18
   2   6   3    0.49    0.25
  -3  -6  -3    0.72    0.24
  -3  -6  -3    0.95    0.28
  -3  -6  -3    3.06    0.96
   3   6   3    1.00    0.31
   3   6   3    1.09    0.28
  -4  -6  -3    9.29    1.62
  -4  -6  -3    6.55    0.73
  -4  -6  -3    7.76    0.88
   4   6   3    7.67    0.76
   4   6   3    6.39    0.69
  -5  -6  -3    3.68    1.03
  -5  -6  -3    0.16    0.43
  -5  -6  -3    1.08    0.37
   5   6   3    0.87    0.32
   5   6   3    3.78    0.60
  -6  -6  -3   12.10    1.91
  -6  -6  -3   11.47    1.74
  -6  -6  -3    9.96    1.13
   6   6   3   10.73    1.04
   6   6   3   11.88    1.11
  -7  -6  -3    0.83    0.65
  -7  -6  -3    0.89    0.83
   7   6   3    0.25    0.28
  -8  -6  -3   13.49    2.33
   8   6   3   17.78    1.66
  -9  -6  -3    1.44    1.04
  -9  -6  -3    1.85    0.96
   9   6   3    1.41    0.60
   2  -7  -3  144.29    9.22
   2  -7  -3  147.20   10.06
   2  -7  -3  166.68   11.45
  -2   7   3  155.37    9.62
  -2   7   3  164.33    9.21
   1  -7  -3  203.33   12.10
   1  -7  -3  197.37   12.91
   1  -7  -3  219.92   14.81
  -1   7   3  199.96   12.28
  -1   7   3  199.29   12.05
   0  -7  -3  335.75   22.55
   0  -7  -3  305.92   19.71
   0  -7  -3  322.70   18.81
   0   7   3  317.54   18.75
   0   7   3  306.26   18.70
  -1  -7  -3  364.76   26.83
  -1  -7  -3  370.67   23.38
  -1  -7  -3  382.61   22.45
   1   7   3  394.45   22.40
   1   7   3  380.05   22.19
  -2  -7  -3  291.08   17.26
  -2  -7  -3  284.11   17.93
  -2  -7  -3  299.57   20.84
   2   7   3  274.13   17.00
   2   7   3  298.27   17.18
  -3  -7  -3  309.66   18.59
  -3  -7  -3  319.38   22.35
   3   7   3  310.81   18.28
   3   7   3  306.71   18.50
  -4  -7  -3  252.30   18.54
  -4  -7  -3  258.05   15.20
   4   7   3  255.65   14.93
   4   7   3  243.07   15.09
  -5  -7  -3  317.88   19.42
  -5  -7  -3  308.36   23.34
   5   7   3  330.05   19.08
   5   7   3  335.51   19.32
  -6  -7  -3  217.58   16.01
   6   7   3  214.48   12.94
   6   7   3  209.64   12.84
  -7  -7  -3  243.35   16.65
   7   7   3  202.20   13.17
  -8  -7  -3  224.33   16.49
   8   7   3  211.72   13.25
  -9  -7  -3  162.10   12.80
   1  -8  -3   -0.15    0.17
   1  -8  -3   -0.08    0.34
   1  -8  -3    0.30    0.48
  -1   8   3    0.51    0.40
  -1   8   3    0.15    0.20
   0  -8  -3    2.40    0.85
   0  -8  -3    0.37    0.25
   0  -8  -3    0.71    0.45
   0   8   3    0.80    0.28
   0   8   3    1.03    0.43
  -1  -8  -3    2.55    0.46
  -1  -8  -3    2.49    0.64
  -1  -8  -3    3.68    1.09
   1   8   3    1.89    0.52
   1   8   3    2.79    0.47
  -2  -8  -3    3.75    0.59
  -2  -8  -3    4.62    1.27
   2   8   3    3.23    0.65
   2   8   3    3.64    0.55
  -3  -8  -3    2.49    0.51
  -3  -8  -3    1.15    0.77
   3   8   3    1.26    0.39
   3   8   3    1.61    0.46
  -4  -8  -3    1.86    0.47
  -4  -8  -3    1.91    0.98
   4   8   3    1.28    0.46
   4   8   3    1.89    0.45
  -5  -8  -3    0.87    0.38
  -5  -8  -3    1.92    1.02
   5   8   3    1.35    0.47
   5   8   3    0.84    0.35
  -6  -8  -3    1.79    0.52
  -6  -8  -3    3.92    1.32
   6   8   3    3.65    0.69
   6   8   3    2.09    0.52
  -7  -8  -3    3.53    1.39
  -7  -8  -3    1.15    0.54
   7   8   3    0.14    0.37
   7   8   3    1.71    0.54
  -8  -8  -3    1.75    1.08
   8   8   3    2.91    0.70
  -1  -9  -3  125.42    9.57
  -1  -9  -3  119.88    8.25
  -1  -9  -3  119.14    7.64
   1   9   3  128.36    7.60
   1   9   3  120.18    7.75
  -2  -9  -3  141.69    9.06
  -2  -9  -3  144.70   11.39
   2   9   3  154.10    9.11
   2   9   3  144.63    8.99
  -3  -9  -3  270.73   17.58
  -3  -9  -3  291.78   21.42
   3   9   3  302.15   17.41
   3   9   3  302.59   17.55
  -4  -9  -3  179.28   14.00
  -4  -9  -3  177.01   11.29
   4   9   3  178.98   11.22
   4   9   3  196.95   11.21
  -5  -9  -3  157.46   12.57
  -5  -9  -3  150.01    9.92
   5   9   3  162.79    9.87
   5   9   3  165.78    9.85
  -6  -9  -3  196.72   15.38
   6   9   3  176.73   11.87
   6   9   3  212.79   12.07
  -7  -9  -3  165.01   10.81
  -7  -9  -3  186.71   13.99
   7   9   3  167.66   10.61
   6   8  -4  248.64   15.36
   6   8  -4  234.22   14.27
  -6  -8   4  208.02   17.36
   5   8  -4  261.86   15.84
   5   8  -4  266.54   17.12
   5   8  -4  256.07   15.93
  -5  -8   4  248.45   16.03
  -5  -8   4  291.82   19.24
  -5  -8   4  241.28   16.36
   4   8  -4  178.07   11.30
   4   8  -4  172.72   10.52
   4   8  -4  165.30   10.45
  -4  -8   4  152.79   10.53
  -4  -8   4  164.19   10.83
   3   8  -4  148.97    9.20
   3   8  -4  156.43    9.36
  -3  -8   4  135.75    9.29
  -3  -8   4  140.40    9.58
   2   8  -4  191.40   11.92
   2   8  -4  197.10   12.03
  -2  -8   4  196.37   12.55
  -2  -8   4  181.10   11.99
   1   8  -4  213.94   13.21
   1   8  -4  220.52   13.09
  -1  -8   4  198.63   13.75
  -1  -8   4  207.08   13.21
   0   8  -4  156.31    9.02
   0   8  -4  146.30    9.36
   0  -8   4  129.82    9.11
   0  -8   4  127.43    9.62
   7   7  -4    3.58    0.88
   7   7  -4    4.67    0.95
  -7  -7   4    4.26    1.14
   6   7  -4    0.65    0.43
   6   7  -4    0.48    0.44
  -6  -7   4    0.05    0.48
   5   7  -4    0.60    0.35
   5   7  -4    0.48    0.38
   5   7  -4   -0.18    0.24
  -5  -7   4    0.15    0.54
  -5  -7   4    0.27    0.33
  -5  -7   4    0.40    0.33
   4   7  -4    0.52    0.37
   4   7  -4    1.29    0.52
   4   7  -4    2.09    0.51
  -4  -7   4    0.64    0.40
  -4  -7   4    0.72    0.37
  -4  -7   4    2.09    0.87
  -4  -7   4    0.97    0.64
   3   7  -4    5.45    0.97
   3   7  -4    5.13    0.85
  -3  -7   4    5.89    0.94
  -3  -7   4    6.66    1.42
  -3  -7   4    6.25    1.00
  -3  -7   4    9.57    1.47
   2   7  -4    0.35    0.31
   2   7  -4    1.41    0.54
  -2  -7   4    0.38    0.39
  -2  -7   4    0.42    0.35
   1   7  -4    3.10    0.63
   1   7  -4    2.31    0.70
  -1  -7   4    2.67    0.76
  -1  -7   4    2.52    0.67
   0   7  -4    1.37    0.47
   0   7  -4    0.43    0.44
   0  -7   4   -0.19    0.40
   0  -7   4    0.63    0.46
  -1   7  -4    9.89    1.55
  -1   7  -4    8.70    1.21
   1  -7   4    7.65    1.48
   1  -7   4    9.55    1.33
  -2   7  -4    0.56    0.43
   2  -7   4    1.24    0.72
   2  -7   4    0.85    0.45
   8   6  -4  256.46   14.82
   8   6  -4  233.77   15.92
  -8  -6   4  232.28   16.26
   7   6  -4  229.52   15.33
   7   6  -4  229.98   14.14
  -7  -6   4  237.59   15.85
   6   6  -4  215.38   14.45
   6   6  -4  214.15   13.33
  -6  -6   4  231.65   15.15
   5   6  -4  210.65   13.02
   5   6  -4  211.47   14.14
   5   6  -4  211.83   13.12
  -5  -6   4  211.56   13.21
  -5  -6   4  217.53   13.43
  -5  -6   4  234.05   14.95
   4   6  -4  284.26   18.61
   4   6  -4  289.43   17.30
   4   6  -4  279.65   17.08
  -4  -6   4  284.01   17.42
  -4  -6   4  285.74   19.41
  -4  -6   4  300.02   17.79
   3   6  -4  466.92   27.93
   3   6  -4  476.15   28.33
  -3  -6   4  462.70   31.36
  -3  -6   4  501.30   29.27
  -3  -6   4  466.53   33.19
  -3  -6   4  484.44   28.49
   2   6  -4  300.20   18.25
   2   6  -4  300.66   18.44
  -2  -6   4  312.49   18.60
  -2  -6   4  314.68   20.63
  -2  -6   4  307.54   19.15
   1   6  -4  245.99   14.94
   1   6  -4  239.87   14.91
  -1  -6   4  244.98   15.62
  -1  -6   4  240.15   15.12
  -1  -6   4  264.32   16.78
   0   6  -4  321.87   19.57
   0   6  -4  331.28   19.68
   0  -6   4  326.12   19.86
   0  -6   4  325.18   20.51
  -1   6  -4  377.58   21.43
   1  -6   4  355.45   21.59
   1  -6   4  330.35   22.31
  -2   6  -4  200.36   11.77
   2  -6   4  185.85   12.55
   2  -6   4  181.22   11.96
  -3   6  -4  140.20    8.35
   3  -6   4  126.18    9.05
   3  -6   4  120.90    8.38
   8   5  -4    2.12    0.66
   8   5  -4    1.12    0.59
  -8  -5   4    1.46    0.69
  -8  -5   4    1.58    0.65
   7   5  -4    0.43    0.39
   7   5  -4    0.59    0.48
   7   5  -4    2.04    0.61
  -7  -5   4    0.19    0.43
  -7  -5   4   -0.06    0.39
  -7  -5   4    0.18    0.41
   6   5  -4    0.80    0.40
   6   5  -4    0.71    0.39
  -6  -5   4    1.54    0.59
  -6  -5   4    0.97    0.55
   5   5  -4    7.06    0.99
   5   5  -4    7.01    1.01
  -5  -5   4    8.37    1.39
   4   5  -4    0.92    0.38
   4   5  -4    0.58    0.26
   4   5  -4    1.24    0.43
  -4  -5   4    0.87    0.29
  -4  -5   4    0.52    0.28
  -4  -5   4    3.36    0.88
   3   5  -4    3.62    0.58
   3   5  -4    4.19    0.67
  -3  -5   4    5.30    1.08
  -3  -5   4    3.90    0.64
  -3  -5   4    4.27    0.66
   2   5  -4    0.41    0.25
   2   5  -4    0.94    0.35
  -2  -5   4    0.68    0.32
  -2  -5   4    0.54    0.44
  -2  -5   4    1.45    0.50
  -2  -5   4    0.64    0.29
   1   5  -4    1.70    0.50
   1   5  -4    2.01    0.44
  -1  -5   4    1.73    0.66
  -1  -5   4    1.63    0.47
  -1  -5   4    1.23    0.43
  -1  -5   4    2.97    0.58
   0   5  -4    3.89    0.67
   0   5  -4    3.05    0.70
   0  -5   4    3.64    0.75
   0  -5   4    3.33    0.65
   0  -5   4    3.61    0.87
  -1   5  -4    1.70    0.46
   1  -5   4    0.47    0.39
   1  -5   4    1.73    0.56
  -2   5  -4    4.45    0.80
   2  -5   4    4.29    0.95
   2  -5   4    5.64    0.91
  -3   5  -4    9.89    1.11
   3  -5   4    9.89    1.09
   3  -5   4    7.88    1.42
  -4   5  -4   -0.02    0.31
   4  -5   4    0.10    0.31
   4  -5   4    0.30    0.51
   8   4  -4  273.07   17.31
   8   4  -4  283.69   18.41
   8   4  -4  290.10   17.02
  -8  -4   4  273.50   19.52
  -8  -4   4  275.04   17.26
   7   4  -4  314.64   21.02
   7   4  -4  316.27   19.37
   7   4  -4  318.22   19.78
  -7  -4   4  314.75   19.77
  -7  -4   4  354.78   21.44
   6   4  -4  290.43   17.03
   6   4  -4  274.57   18.57
   6   4  -4  278.90   17.48
  -6  -4   4  303.03   19.09
  -6  -4   4  285.98   17.51
   5   4  -4  343.80   22.31
   5   4  -4  345.26   20.99
   5   4  -4  344.39   20.45
  -5  -4   4  353.01   21.01
  -5  -4   4  350.63   22.93
   4   4  -4  344.80   22.04
   4   4  -4  329.95   20.13
   4   4  -4  359.08   20.74
   4   4  -4  341.69   20.44
  -4  -4   4  337.18   22.69
  -4  -4   4  334.89   20.52
  -4  -4   4  351.39   20.72
  -4  -4   4  351.72   20.92
   3   4  -4  439.42   25.53
   3   4  -4  476.96   26.23
   3   4  -4  425.99   25.94
  -3  -4   4  441.59   26.70
  -3  -4   4  441.00   26.07
  -3  -4   4  406.94   26.13
   2   4  -4  314.26   19.79
   2   4  -4  348.02   20.15
  -2  -4   4  357.01   20.33
  -2  -4   4  345.09   20.78
  -2  -4   4  317.93   22.28
  -2  -4   4  350.61   20.27
   1   4  -4  606.01   36.43
   1   4  -4  574.11   35.80
   1   4  -4  655.28   41.18
  -1  -4   4  717.71   42.32
  -1  -4   4  621.28   37.63
  -1  -4   4  529.61   39.80
  -1  -4   4  612.01   36.61
   0   4  -4  484.80   28.14
   0   4  -4  476.99   31.81
   0  -4   4  477.34   29.14
   0  -4   4  477.13   28.30
   0  -4   4  453.10   30.75
  -1   4  -4  242.81   18.72
  -1   4  -4  273.70   16.61
   1  -4   4  296.73   17.37
   1  -4   4  265.82   16.74
   1  -4   4  300.87   18.18
  -2   4  -4  344.10   20.84
   2  -4   4  352.16   20.91
   2  -4   4  348.16   21.84
  -3   4  -4  389.74   22.80
   3  -4   4  377.47   22.83
   3  -4   4  376.04   23.95
  -4   4  -4  231.20   19.17
  -4   4  -4  299.08   16.87
   4  -4   4  278.99   17.86
   4  -4   4  303.73   16.86
  -5   4  -4  172.36   13.07
  -5   4  -4  194.19   11.41
   5  -4   4  170.88   12.15
   5  -4   4  193.22   11.33
   8   3  -4    0.74    0.50
   8   3  -4   -0.05    0.37
   8   3  -4    0.29    0.41
  -8  -3   4    0.21    0.39
   7   3  -4    0.75    0.46
   7   3  -4    0.50    0.39
   7   3  -4    0.73    0.41
  -7  -3   4    0.57    0.42
   6   3  -4    0.02    0.25
   6   3  -4   -0.10    0.20
   6   3  -4    0.37    0.33
  -6  -3   4   -0.02    0.24
  -6  -3   4    1.00    0.49
   5   3  -4    6.57    0.91
   5   3  -4    4.29    0.75
   5   3  -4    4.84    0.72
  -5  -3   4    5.80    1.01
  -5  -3   4    5.46    0.83
   4   3  -4    0.39    0.19
   4   3  -4    0.69    0.27
   4   3  -4    0.67    0.28
   4   3  -4    0.26    0.25
  -4  -3   4    0.42    0.35
  -4  -3   4    0.37    0.14
  -4  -3   4    0.13    0.21
  -4  -3   4    0.50    0.22
   3   3  -4   -0.16    0.10
   3   3  -4    0.15    0.17
   3   3  -4    0.19    0.21
   3   3  -4    0.01    0.09
  -3  -3   4    1.13    0.35
  -3  -3   4   -0.07    0.19
  -3  -3   4    0.03    0.12
  -3  -3   4    0.26    0.14
   2   3  -4    0.57    0.25
   2   3  -4    0.54    0.24
   2   3  -4    1.34    0.38
  -2  -3   4    1.54    0.34
  -2  -3   4    0.84    0.28
  -2  -3   4    1.00    0.36
  -2  -3   4    1.32    0.52
   1   3  -4   13.17    1.14
   1   3  -4   13.14    1.18
   1   3  -4   16.64    1.27
   1   3  -4   13.98    1.16
  -1  -3   4   13.66    1.21
  -1  -3   4   17.36    1.30
  -1  -3   4   16.80    1.60
  -1  -3   4   15.21    1.28
   0   3  -4   35.34    2.66
   0   3  -4   40.48    2.99
   0  -3   4   36.90    2.76
   0  -3   4   41.86    2.92
   0  -3   4   44.36    3.18
  -1   3  -4    0.00    0.23
  -1   3  -4    0.17    0.23
   1  -3   4    0.10    0.19
   1  -3   4   -0.02    0.20
   1  -3   4   -0.09    0.19
  -2   3  -4   -0.10    0.18
  -2   3  -4    0.33    0.26
   2  -3   4    0.33    0.28
   2  -3   4    0.51    0.27
   2  -3   4    0.30    0.30
  -3   3  -4    4.58    0.70
  -3   3  -4    2.28    0.65
   3  -3   4    4.33    0.64
   3  -3   4    5.67    1.00
  -4   3  -4    2.36    0.55
  -4   3  -4    2.38    0.64
   4  -3   4    2.05    0.69
   4  -3   4    2.18    0.48
  -5   3  -4    1.52    0.61
  -5   3  -4    3.55    0.65
   5  -3   4    0.94    0.59
   5  -3   4    3.37    0.57
  -6   3  -4    1.72    0.68
  -6   3  -4    1.13    0.45
   6  -3   4    1.76    0.72
   6  -3   4    1.66    0.47
   6  -3   4    1.61    0.73
   8   2  -4  209.63   14.61
   8   2  -4  233.54   13.53
   8   2  -4  213.25   13.42
  -8  -2   4  210.30   13.44
   7   2  -4  304.36   18.83
   7   2  -4  335.30   18.65
   7   2  -4  309.28   20.30
  -7  -2   4  294.33   18.81
   6   2  -4  307.45   20.37
   6   2  -4  321.81   18.73
   6   2  -4  317.94   19.04
  -6  -2   4  318.67   20.65
  -6  -2   4  308.01   18.96
   5   2  -4  485.64   28.98
   5   2  -4  448.55   27.04
   5   2  -4  448.89   26.48
  -5  -2   4  430.38   29.33
  -5  -2   4  450.66   26.97
   4   2  -4  291.29   18.88
   4   2  -4  327.00   20.21
   4   2  -4  323.12   18.42
  -4  -2   4  295.08   20.57
  -4  -2   4  338.15   18.91
   3   2  -4  509.53   29.65
   3   2  -4  444.30   29.85
   3   2  -4  555.89   31.98
   3   2  -4  501.73   29.15
  -3  -2   4  496.12   29.84
  -3  -2   4  423.63   32.44
  -3  -2   4  570.40   30.43
  -3  -2   4  521.94   29.76
   2   2  -4  531.57   32.02
   2   2  -4  530.66   32.23
   2   2  -4  556.17   31.43
  -2  -2   4  549.66   32.98
  -2  -2   4  553.55   32.12
   1   2  -4  503.44   29.81
   1   2  -4  586.98   30.60
   1   2  -4  563.65   34.56
   1   2  -4  485.14   30.40
  -1  -2   4  460.78   30.48
  -1  -2   4  530.90   31.41
  -1  -2   4  483.36   30.51
   0   2  -4  373.40   25.14
   0   2  -4  358.25   22.11
   0  -2   4  393.16   22.16
   0  -2   4  360.53   24.17
   0  -2   4  397.04   22.94
   0  -2   4  356.69   22.25
  -1   2  -4  450.36   29.48
  -1   2  -4  511.45   33.61
   1  -2   4  510.75   32.10
   1  -2   4  522.01   29.61
  -2   2  -4  603.20   39.00
   2  -2   4  642.49   42.30
   2  -2   4  684.87   40.49
   2  -2   4  716.07   39.13
  -3   2  -4  473.96   28.69
   3  -2   4  498.68   28.73
   3  -2   4  479.62   29.89
  -4   2  -4  317.63   22.49
  -4   2  -4  339.06   19.67
   4  -2   4  310.20   20.61
   4  -2   4  348.48   21.37
  -5   2  -4  303.01   18.07
  -5   2  -4  301.21   20.73
   5  -2   4  280.31   18.96
   5  -2   4  306.35   18.06
   5  -2   4  311.82   19.69
  -6   2  -4  274.84   19.32
  -6   2  -4  267.65   16.80
   6  -2   4  295.12   18.39
   6  -2   4  281.20   16.77
   6  -2   4  270.07   17.71
  -7   2  -4  174.60   13.03
  -7   2  -4  185.93   11.30
   7  -2   4  166.88   11.88
   7  -2   4  192.06   12.48
   7  -2   4  185.44   11.21
   8   1  -4    2.66    0.86
   8   1  -4    3.48    0.72
  -8  -1   4    2.26    0.65
   7   1  -4    7.44    1.28
   7   1  -4    6.63    0.95
  -7  -1   4    6.33    0.94
   6   1  -4    0.59    0.33
   6   1  -4    0.45    0.38
   6   1  -4    0.49    0.38
  -6  -1   4    0.62    0.31
   5   1  -4    1.23    0.44
   5   1  -4    1.41    0.42
   5   1  -4    1.58    0.41
  -5  -1   4    1.74    0.51
  -5  -1   4    1.76    0.42
   4   1  -4   12.07    1.06
   4   1  -4   11.30    1.16
   4   1  -4   12.87    1.10
  -4  -1   4   12.96    1.09
  -4  -1   4   10.86    1.26
   3   1  -4   20.94    1.57
   3   1  -4   23.68    1.72
   3   1  -4   23.84    1.83
  -3  -1   4   25.04    1.72
  -3  -1   4   20.76    1.96
   2   1  -4    1.00    0.24
   2   1  -4    0.58    0.29
   2   1  -4    0.35    0.25
   2   1  -4    0.44    0.19
  -2  -1   4    0.41    0.20
  -2  -1   4    0.53    0.27
  -2  -1   4    0.72    0.38
  -2  -1   4    0.33    0.20
   1   1  -4   26.07    1.79
   1   1  -4   26.03    2.06
   1   1  -4   24.80    1.69
   1   1  -4   29.68    1.96
  -1  -1   4   24.00    2.14
  -1  -1   4   27.95    1.84
  -1  -1   4   28.16    1.93
  -1  -1   4   30.24    1.95
   0   1  -4   34.15    2.45
   0   1  -4   31.36    2.11
   0   1  -4   31.90    2.15
   0   1  -4   31.03    2.35
   0  -1   4   32.61    2.18
   0  -1   4   26.87    2.34
   0  -1   4   28.63    2.22
   0  -1   4   32.19    2.16
  -1   1  -4    2.41    0.47
  -1   1  -4    3.84    0.46
  -1   1  -4    3.14    0.64
   1  -1   4    4.31    0.56
   1  -1   4    4.53    0.55
   1  -1   4    2.92    0.49
  -2   1  -4   11.41    1.09
   2  -1   4   11.70    1.09
   2  -1   4   12.72    1.08
  -3   1  -4    0.69    0.39
  -3   1  -4    0.96    0.34
  -3   1  -4    1.16    0.25
   3  -1   4    0.55    0.36
   3  -1   4    1.79    0.35
   3  -1   4    1.17    0.33
   3  -1   4    0.61    0.39
  -4   1  -4    1.08    0.35
  -4   1  -4    1.18    0.45
   4  -1   4    1.14    0.45
   4  -1   4    0.92    0.43
   4  -1   4    1.95    0.40
  -5   1  -4    0.07    0.32
  -5   1  -4    2.43    0.51
   5  -1   4    0.33    0.22
   5  -1   4    0.06    0.32
   5  -1   4   -0.07    0.30
  -6   1  -4    2.37    0.69
  -6   1  -4    2.32    0.57
   6  -1   4    2.17    0.71
   6  -1   4    2.04    0.67
   6  -1   4    2.65    0.52
  -7   1  -4    0.15    0.35
  -7   1  -4    0.59    0.53
   7  -1   4   -0.36    0.18
   7  -1   4    0.08    0.42
   7  -1   4    0.21    0.43
  -8   1  -4   18.27    1.73
  -8   1  -4   14.16    1.96
   8  -1   4   16.13    1.93
   8  -1   4   18.46    1.58
   8   0  -4  191.13   12.96
   8   0  -4  200.99   11.68
  -8   0   4  171.89   11.62
   7   0  -4  389.42   24.87
   7   0  -4  380.42   22.78
  -7   0   4  370.50   22.74
   6   0  -4  361.54   21.18
   6   0  -4  351.44   23.01
  -6   0   4  346.81   21.10
   5   0  -4  521.35   31.57
   5   0  -4  558.92   34.06
  -5   0   4  488.36   34.37
  -5   0   4  562.74   31.54
   4   0  -4  414.71   24.26
   4   0  -4  411.84   24.60
   4   0  -4  433.10   26.47
  -4   0   4  382.96   26.81
  -4   0   4  428.60   24.54
   3   0  -4  397.66   23.72
   3   0  -4  437.57   26.03
   3   0  -4  390.06   24.24
  -3   0   4  419.80   24.17
  -3   0   4  396.06   26.41
   2   0  -4  291.39   17.76
   2   0  -4  290.39   20.74
   2   0  -4  331.07   17.32
  -2   0   4  294.04   17.73
  -2   0   4  282.61   19.38
   1   0  -4  357.31   21.20
  -1   0   4  349.52   21.09
  -1   0   4  362.15   23.03
   0   0  -4  338.26   24.02
   0   0  -4  339.90   20.61
   0   0  -4  362.13   20.79
   0   0  -4  369.39   23.58
   0   0   4  337.04   22.48
  -1   0  -4  537.36   35.09
  -1   0  -4  478.82   35.62
  -1   0  -4  570.89   30.86
  -1   0  -4  477.81   30.72
   1   0   4  526.99   33.33
   1   0   4  503.68   30.70
   1   0   4  552.71   30.83
  -2   0  -4  583.60   37.12
  -2   0  -4  564.78   42.93
  -2   0  -4  681.51   37.20
   2   0   4  673.25   37.05
   2   0   4  658.40   37.20
   2   0   4  632.35   40.16
   2   0   4  615.15   38.30
  -3   0  -4  454.95   31.73
  -3   0  -4  441.05   27.45
   3   0   4  478.09   27.52
   3   0   4  500.89   29.53
   3   0   4  441.51   28.39
   3   0   4  468.28   29.62
  -4   0  -4  685.63   47.69
  -4   0  -4  671.90   41.77
   4   0   4  767.50   43.20
   4   0   4  705.94   41.80
   4   0   4  712.97   44.87
  -5   0  -4  502.63   30.35
  -5   0  -4  520.67   34.69
   5   0   4  516.44   30.33
   5   0   4  512.29   31.42
   5   0   4  505.59   32.62
  -6   0  -4  252.58   17.74
  -6   0  -4  259.33   15.48
   6   0   4  260.70   16.69
   6   0   4  249.24   16.12
   6   0   4  253.28   15.40
  -7   0  -4  269.19   18.63
  -7   0  -4  262.40   16.20
   7   0   4  270.94   16.89
   7   0   4  265.56   17.49
   7   0   4  262.84   16.11
  -8   0  -4  235.59   16.41
  -8   0  -4  223.86   14.19
   8   0   4  234.81   15.38
   8   0   4  225.77   14.05
   7  -1  -4   -0.15    0.42
   7  -1  -4   -0.16    0.25
  -7   1   4   -0.05    0.26
   6  -1  -4    2.07    0.45
   6  -1  -4    2.35    0.72
  -6   1   4    2.12    0.45
   5  -1  -4    9.22    1.33
   5  -1  -4   10.18    0.87
  -5   1   4    8.41    1.27
  -5   1   4    8.59    0.84
   4  -1  -4   37.85    2.91
   4  -1  -4   40.05    2.51
  -4   1   4   39.61    3.06
  -4   1   4   32.27    2.41
   3  -1  -4   29.89    2.09
   3  -1  -4   28.66    2.41
   3  -1  -4   26.98    1.79
  -3   1   4   22.99    1.63
  -3   1   4   26.28    2.18
  -3   1   4   24.04    1.75
   2  -1  -4    0.21    0.22
   2  -1  -4   -0.08    0.25
   2  -1  -4   -0.03    0.12
   2  -1  -4    0.02    0.21
  -2   1   4   -0.05    0.11
  -2   1   4    0.43    0.22
  -2   1   4    0.72    0.36
   1  -1  -4   13.07    1.00
   1  -1  -4   10.97    0.94
   1  -1  -4   13.03    1.28
  -1   1   4    9.35    1.02
  -1   1   4   11.78    0.90
   0  -1  -4    4.08    0.48
   0  -1  -4    3.50    0.52
   0  -1  -4    4.00    0.71
   0   1   4    3.58    0.42
   0   1   4    3.23    0.49
  -1  -1  -4  158.91   10.30
  -1  -1  -4  147.26    8.75
  -1  -1  -4  154.56   10.07
   1   1   4  144.94    8.75
   1   1   4  128.88    9.42
   1   1   4  136.82    8.68
  -2  -1  -4   44.09    2.79
  -2  -1  -4   33.25    2.65
  -2  -1  -4   42.43    3.26
  -2  -1  -4   44.35    3.18
   2   1   4   41.63    2.64
   2   1   4   37.74    2.81
   2   1   4   44.21    2.74
   2   1   4   39.44    2.58
  -3  -1  -4    3.50    0.58
  -3  -1  -4    4.93    0.55
  -3  -1  -4    3.17    0.53
   3   1   4    4.31    0.45
   3   1   4    1.78    0.42
   3   1   4    2.31    0.39
   3   1   4    2.84    0.51
   3   1   4    2.57    0.47
  -4  -1  -4    7.61    0.80
  -4  -1  -4    6.09    0.77
   4   1   4    6.60    0.76
   4   1   4    5.22    0.79
   4   1   4    5.27    0.49
   4   1   4    6.70    0.69
   4   1   4    5.19    0.76
  -5  -1  -4   17.38    1.48
  -5  -1  -4   17.11    1.80
   5   1   4   18.45    1.43
   5   1   4   18.03    1.55
   5   1   4   15.55    1.50
  -6  -1  -4    0.77    0.44
  -6  -1  -4    0.10    0.27
   6   1   4    0.09    0.26
   6   1   4   -0.07    0.28
   6   1   4    0.43    0.29
  -7  -1  -4    0.04    0.28
  -7  -1  -4   -0.07    0.33
   7   1   4    0.11    0.34
   7   1   4    0.42    0.39
   7   1   4    0.57    0.34
  -8  -1  -4   -0.38    0.28
  -8  -1  -4   -0.10    0.38
   8   1   4    0.02    0.28
   8   1   4   -0.09    0.31
  -9  -1  -4    0.09    0.57
   7  -2  -4  210.49   12.46
   7  -2  -4  214.14   14.21
  -7   2   4  192.65   12.43
   6  -2  -4  281.10   17.51
   6  -2  -4  261.15   15.69
  -6   2   4  246.22   15.63
   5  -2  -4  425.77   25.08
   5  -2  -4  454.13   27.41
  -5   2   4  394.45   25.01
   4  -2  -4  376.18   22.93
   4  -2  -4  361.76   21.00
   4  -2  -4  357.41   24.87
  -4   2   4  346.05   23.17
  -4   2   4  332.61   20.93
   3  -2  -4  438.26   29.44
   3  -2  -4  440.09   27.09
   3  -2  -4  381.26   25.03
   3  -2  -4  422.01   24.89
  -3   2   4  479.58   27.45
  -3   2   4  386.38   24.92
   2  -2  -4  303.56   22.50
   2  -2  -4  331.15   20.61
   2  -2  -4  339.04   18.98
  -2   2   4  305.65   20.88
  -2   2   4  323.72   19.01
  -2   2   4  328.65   18.93
   1  -2  -4  378.37   30.03
   1  -2  -4  424.98   27.47
  -1   2   4  496.90   25.56
   0  -2  -4  788.55   48.86
   0  -2  -4  741.80   56.67
   0  -2  -4  701.93   51.97
   0  -2  -4  930.05   55.81
   0   2   4  957.23   47.79
   0   2   4  854.52   48.94
  -1  -2  -4  538.83   38.77
  -1  -2  -4  554.50   37.85
  -1  -2  -4  586.11   33.24
   1   2   4  579.52   33.51
   1   2   4  559.39   32.57
  -2  -2  -4  387.93   25.99
  -2  -2  -4  434.72   22.76
  -2  -2  -4  358.10   22.73
  -2  -2  -4  357.39   26.48
   2   2   4  350.99   22.71
   2   2   4  382.69   22.59
   2   2   4  409.79   22.18
  -3  -2  -4  433.61   30.07
  -3  -2  -4  449.70   25.87
   3   2   4  428.07   25.73
   3   2   4  446.61   25.29
   3   2   4  435.60   27.57
   3   2   4  424.28   25.87
  -4  -2  -4  497.75   34.97
  -4  -2  -4  539.28   30.16
  -4  -2  -4  501.58   30.14
   4   2   4  520.13   29.50
   4   2   4  484.36   29.98
   4   2   4  520.69   32.17
   4   2   4  523.95   30.13
   4   2   4  481.16   32.36
  -5  -2  -4  488.09   28.92
   5   2   4  480.41   28.34
   5   2   4  488.78   30.86
   5   2   4  489.36   28.91
  -6  -2  -4  467.28   28.84
  -6  -2  -4  477.57   33.09
   6   2   4  515.52   29.72
   6   2   4  468.39   28.85
   6   2   4  482.00   30.83
   6   2   4  496.89   28.39
  -7  -2  -4  348.86   24.22
  -7  -2  -4  344.62   21.04
   7   2   4  348.13   22.48
   7   2   4  368.43   21.64
   7   2   4  336.89   21.02
  -8  -2  -4  235.92   14.42
  -8  -2  -4  229.22   16.68
   8   2   4  228.50   14.35
   8   2   4  241.54   15.39
  -9  -2  -4  172.87   12.98
  -9  -2  -4  166.76   11.08
   9   2   4  176.05   11.02
   9   2   4  185.81   11.90
   6  -3  -4    8.71    1.54
   6  -3  -4    6.01    0.70
  -6   3   4    6.01    0.68
   5  -3  -4    8.94    0.74
   5  -3  -4    7.39    1.33
  -5   3   4    7.26    0.70
   4  -3  -4    0.88    0.48
   4  -3  -4    0.94    0.24
   4  -3  -4    1.19    0.55
  -4   3   4    0.99    0.23
  -4   3   4    2.27    0.63
   3  -3  -4    8.60    0.67
   3  -3  -4    7.75    1.23
   3  -3  -4    8.09    1.00
  -3   3   4    6.92    1.08
  -3   3   4    7.40    0.60
   2  -3  -4   28.91    2.61
   2  -3  -4   27.48    1.73
   2  -3  -4   29.85    1.78
   2  -3  -4   29.33    2.23
  -2   3   4   28.42    1.75
   1  -3  -4    8.34    0.57
   1  -3  -4    7.89    0.80
   1  -3  -4    8.39    1.11
   1  -3  -4    8.52    0.59
  -1   3   4    6.79    0.54
  -1   3   4    6.71    0.55
   0  -3  -4    8.09    0.77
   0  -3  -4    9.44    0.70
   0  -3  -4   10.91    0.78
   0  -3  -4    9.13    1.18
   0   3   4    8.44    0.63
   0   3   4    8.63    0.66
   0   3   4    8.47    0.71
  -1  -3  -4   23.87    1.55
  -1  -3  -4   22.91    2.14
  -1  -3  -4   21.89    1.83
   1   3   4   21.86    1.42
   1   3   4   20.88    1.47
  -2  -3  -4   -0.28    0.20
  -2  -3  -4    0.11    0.18
  -2  -3  -4    1.31    0.50
   2   3   4   -0.02    0.14
   2   3   4    0.22    0.17
  -3  -3  -4   52.99    3.33
  -3  -3  -4   50.98    3.30
  -3  -3  -4   48.83    3.92
  -3  -3  -4   50.89    4.01
   3   3   4   45.72    3.17
   3   3   4   53.37    3.28
   3   3   4   47.77    3.11
  -4  -3  -4    7.59    0.78
  -4  -3  -4    5.11    0.89
  -4  -3  -4    3.16    0.85
  -4  -3  -4    5.32    0.65
   4   3   4    5.81    0.65
   4   3   4    5.31    0.62
   4   3   4    6.29    0.60
   4   3   4    4.70    0.55
  -5  -3  -4    0.46    0.39
  -5  -3  -4    0.02    0.27
  -5  -3  -4    0.60    0.28
  -5  -3  -4    1.42    0.41
   5   3   4    1.64    0.41
   5   3   4    0.32    0.20
   5   3   4    0.58    0.26
   5   3   4    0.38    0.25
  -6  -3  -4    1.16    0.61
  -6  -3  -4    3.29    0.79
  -6  -3  -4    2.71    0.61
   6   3   4    4.13    0.66
   6   3   4    2.60    0.53
   6   3   4    2.92    0.59
  -7  -3  -4    2.36    0.62
  -7  -3  -4    1.41    0.69
   7   3   4    1.00    0.49
   7   3   4    2.58    0.63
   7   3   4    2.26    0.56
  -8  -3  -4   -0.38    0.30
  -8  -3  -4   -0.30    0.45
   8   3   4    0.59    0.41
   8   3   4   -0.07    0.40
   8   3   4    0.14    0.38
   8   3   4    0.10    0.33
  -9  -3  -4    0.94    0.73
  -9  -3  -4    2.49    0.74
   9   3   4    3.03    0.74
   9   3   4    3.00    0.78
   5  -4  -4  260.22   16.56
   5  -4  -4  249.62   14.54
  -5   4   4  229.29   14.50
   4  -4  -4  277.26   18.64
   4  -4  -4  290.11   20.08
  -4   4   4  279.44   18.75
   3  -4  -4  362.52   21.43
   3  -4  -4  319.57   22.65
   3  -4  -4  367.23   24.57
   2  -4  -4  521.85   35.07
   2  -4  -4  552.59   30.71
   2  -4  -4  438.84   32.13
   1  -4  -4  416.67   24.93
   1  -4  -4  411.56   29.58
  -1   4   4  458.43   24.90
  -1   4   4  397.89   24.86
  -1   4   4  439.90   24.59
   0  -4  -4  413.21   22.40
   0  -4  -4  325.99   24.08
   0  -4  -4  368.27   26.59
   0   4   4  389.21   21.98
   0   4   4  380.98   22.32
   0   4   4  403.11   22.47
  -1  -4  -4  331.61   18.47
  -1  -4  -4  306.86   21.07
  -1  -4  -4  297.60   21.97
   1   4   4  324.53   18.39
   1   4   4  297.51   18.06
  -2  -4  -4  445.43   26.44
  -2  -4  -4  418.69   31.05
  -2  -4  -4  428.50   30.14
   2   4   4  471.87   25.85
   2   4   4  469.32   26.34
  -3  -4  -4  408.61   30.00
  -3  -4  -4  452.11   25.57
  -3  -4  -4  376.06   29.09
   3   4   4  448.44   24.95
   3   4   4  464.78   25.42
  -4  -4  -4  498.33   29.83
  -4  -4  -4  464.95   34.79
  -4  -4  -4  470.97   34.06
  -4  -4  -4  519.46   29.82
   4   4   4  507.07   29.80
   4   4   4  550.64   31.63
   4   4   4  510.09   29.11
   4   4   4  493.89   29.63
  -5  -4  -4  360.42   22.59
  -5  -4  -4  382.24   22.65
  -5  -4  -4  356.73   26.38
   5   4   4  416.26   23.95
   5   4   4  409.17   22.60
   5   4   4  373.01   22.09
   5   4   4  345.68   22.37
  -6  -4  -4  532.94   31.21
  -6  -4  -4  502.96   36.34
   6   4   4  520.53   31.16
   6   4   4  515.04   30.54
   6   4   4  542.70   33.15
  -7  -4  -4  483.88   28.04
  -7  -4  -4  463.45   32.68
   7   4   4  462.91   29.75
   7   4   4  473.76   27.44
   7   4   4  452.27   27.98
  -8  -4  -4  225.08   13.94
  -8  -4  -4  218.02   16.31
   8   4   4  227.87   14.68
   8   4   4  237.43   13.94
   8   4   4  213.71   13.58
  -9  -4  -4  206.62   15.43
  -9  -4  -4  206.59   13.18
   9   4   4  219.73   13.16
   9   4   4  213.28   13.87
   9   4   4  202.32   12.93
   4  -5  -4    4.33    1.02
   4  -5  -4    4.18    1.00
  -4   5   4    4.54    1.03
   3  -5  -4    0.48    0.28
   3  -5  -4    0.66    0.46
   3  -5  -4    0.16    0.37
   2  -5  -4    1.00    0.44
   2  -5  -4    0.90    0.54
   2  -5  -4    1.46    0.39
   1  -5  -4    1.74    0.40
   1  -5  -4    1.60    0.64
   1  -5  -4    2.51    0.59
   1  -5  -4    1.75    0.21
  -1   5   4    1.94    0.38
  -1   5   4    1.48    0.19
   0  -5  -4    2.63    0.28
   0  -5  -4    1.98    0.71
   0   5   4    2.19    0.36
   0   5   4    1.92    0.26
  -1  -5  -4   27.64    2.52
  -1  -5  -4   23.18    1.51
   1   5   4   22.01    1.52
   1   5   4   20.48    1.47
  -2  -5  -4    0.03    0.12
  -2  -5  -4    0.09    0.17
  -2  -5  -4    0.47    0.43
   2   5   4   -0.17    0.11
   2   5   4    0.03    0.11
  -3  -5  -4   33.16    2.95
  -3  -5  -4   29.70    2.40
  -3  -5  -4   28.40    2.01
   3   5   4   28.39    1.95
   3   5   4   28.24    1.95
  -4  -5  -4    3.56    0.77
  -4  -5  -4    5.78    1.15
  -4  -5  -4    5.05    0.67
   4   5   4    4.19    0.59
   4   5   4    3.70    0.52
  -5  -5  -4    3.51    0.91
  -5  -5  -4    5.61    0.78
  -5  -5  -4    5.12    1.10
   5   5   4    3.97    0.61
   5   5   4    4.28    0.60
  -6  -5  -4   14.61    1.38
  -6  -5  -4    9.51    1.81
  -6  -5  -4   14.75    1.82
   6   5   4   14.14    1.28
   6   5   4   14.19    1.20
  -7  -5  -4   22.49    2.51
   7   5   4   22.60    1.92
  -8  -5  -4    1.22    0.76
  -8  -5  -4    4.35    1.14
   8   5   4    4.27    0.84
  -9  -5  -4    0.71    0.71
  -9  -5  -4    0.97    0.85
   9   5   4    0.64    0.46
   3  -6  -4  230.60   15.77
   3  -6  -4  245.34   16.87
   3  -6  -4  228.91   14.71
   2  -6  -4  251.33   15.69
   2  -6  -4  258.96   18.02
  -2   6   4  244.62   14.91
   1  -6  -4  256.75   17.99
   1  -6  -4  243.22   14.80
   1  -6  -4  250.49   15.60
  -1   6   4  263.73   14.76
  -1   6   4  239.69   14.79
   0  -6  -4  323.74   20.11
   0  -6  -4  320.87   19.28
   0  -6  -4  334.90   23.16
   0   6   4  322.48   19.21
   0   6   4  331.55   19.06
  -1  -6  -4  318.61   18.62
  -1  -6  -4  301.07   22.41
   1   6   4  315.18   18.55
   1   6   4  319.85   18.34
  -2  -6  -4  526.62   38.26
  -2  -6  -4  563.98   32.38
   2   6   4  542.75   31.74
   2   6   4  558.58   32.27
  -3  -6  -4  279.24   20.22
  -3  -6  -4  287.91   16.86
  -3  -6  -4  275.80   19.13
   3   6   4  283.04   16.77
   3   6   4  284.99   16.51
  -4  -6  -4  216.69   16.38
  -4  -6  -4  246.99   14.43
   4   6   4  250.48   14.32
   4   6   4  242.61   14.11
  -5  -6  -4  362.62   28.18
  -5  -6  -4  421.68   24.77
  -5  -6  -4  418.40   29.35
   5   6   4  435.21   24.60
   5   6   4  433.57   24.23
  -6  -6  -4  264.92   19.03
  -6  -6  -4  277.94   19.72
  -6  -6  -4  273.03   16.54
   6   6   4  270.79   16.08
   6   6   4  272.56   16.32
  -7  -6  -4  194.77   14.28
  -7  -6  -4  189.61   14.01
   7   6   4  187.90   11.59
  -8  -6  -4  261.00   18.51
   8   6   4  242.24   15.18
  -9  -6  -4  211.21   15.50
   9   6   4  200.44   12.66
   2  -7  -4   -0.17    0.34
   2  -7  -4    0.24    0.15
   2  -7  -4   -0.04    0.29
  -2   7   4   -0.06    0.28
  -2   7   4    0.18    0.13
   1  -7  -4    1.89    0.77
   1  -7  -4    2.21    0.56
   1  -7  -4    2.27    0.33
  -1   7   4    1.72    0.28
  -1   7   4    1.98    0.52
   0  -7  -4   13.05    1.30
   0  -7  -4   15.92    1.89
   0  -7  -4   12.29    1.00
   0   7   4   12.00    0.97
   0   7   4   13.76    1.19
  -1  -7  -4    0.21    0.19
  -1  -7  -4   -0.33    0.50
   1   7   4    0.23    0.20
   1   7   4    0.32    0.24
  -2  -7  -4    7.60    1.57
  -2  -7  -4    6.48    0.69
   2   7   4    7.61    0.70
   2   7   4    6.11    0.80
  -3  -7  -4   11.24    1.01
  -3  -7  -4   10.78    1.86
   3   7   4   10.48    0.95
   3   7   4   11.78    1.04
  -4  -7  -4    0.78    0.33
  -4  -7  -4    1.77    0.88
   4   7   4    1.29    0.35
   4   7   4    1.99    0.45
  -5  -7  -4    6.97    0.88
  -5  -7  -4    7.11    1.60
   5   7   4    6.47    0.81
   5   7   4    5.01    0.77
  -6  -7  -4    3.31    0.69
  -6  -7  -4    3.86    1.24
   6   7   4    2.73    0.57
   6   7   4    3.76    0.68
  -7  -7  -4    1.61    0.94
  -8  -7  -4    1.00    0.86
   8   7   4    0.07    0.33
  -9  -7  -4    2.18    1.06
   9   7   4    1.78    0.66
   1  -8  -4  133.25    8.36
   1  -8  -4  141.94   10.53
  -1   8   4  137.25    8.32
  -1   8   4  142.66    8.60
   0  -8  -4  249.28   17.47
   0  -8  -4  226.33   14.33
   0   8   4  240.86   14.33
   0   8   4  244.85   14.30
  -1  -8  -4  189.27   12.23
  -1  -8  -4  213.54   15.16
   1   8   4  205.78   12.20
   1   8   4  207.08   12.20
  -2  -8  -4  193.86   11.90
  -2  -8  -4  212.55   14.93
   2   8   4  187.22   11.76
   2   8   4  196.65   11.84
  -3  -8  -4  257.39   15.96
  -3  -8  -4  268.30   19.50
   3   8   4  272.49   15.73
   3   8   4  263.90   15.89
  -4  -8  -4  259.64   20.03
  -4  -8  -4  281.19   16.57
   4   8   4  275.92   16.45
   4   8   4  277.33   16.26
  -5  -8  -4  158.75   12.20
   5   8   4  157.94    9.51
   5   8   4  147.87    9.40
  -6  -8  -4  143.45    9.22
  -6  -8  -4  154.12   11.82
   6   8   4  144.75    9.07
   6   8   4  145.24    9.02
  -7  -8  -4  223.04   13.57
  -7  -8  -4  227.28   16.75
   7   8   4  214.11   13.14
   7   8   4  210.18   13.29
  -8  -8  -4  249.70   18.15
   8   8   4  227.40   14.34
  -1  -9  -4    8.34    1.68
  -1  -9  -4    7.00    0.83
   1   9   4    6.90    0.81
   1   9   4    8.90    1.15
  -2  -9  -4    0.23    0.76
  -2  -9  -4    1.51    0.41
   2   9   4    1.38    0.48
   2   9   4    0.57    0.33
  -3  -9  -4    2.99    1.27
  -3  -9  -4    2.23    0.53
   3   9   4    2.22    0.59
   3   9   4    2.00    0.51
  -4  -9  -4   -0.27    0.69
  -4  -9  -4   -0.28    0.23
   4   9   4   -0.09    0.28
   4   9   4   -0.32    0.24
  -5  -9  -4    1.52    0.50
  -5  -9  -4    1.19    1.02
   5   9   4    0.98    0.46
   5   9   4    1.44    0.47
  -6  -9  -4    1.02    1.01
  -6  -9  -4    0.92    0.48
   6   9   4    0.33    0.35
   6   9   4    0.81    0.43
  -7  -9  -4    0.42    0.48
  -7  -9  -4    0.56    0.95
   7   9   4    0.23    0.39
   7   9   4    1.04    0.46
   5   8  -5    1.14    0.61
   5   8  -5    0.86    0.56
  -5  -8   5    3.30    1.16
   4   8  -5    4.96    1.03
   4   8  -5    5.42    1.13
   4   8  -5    4.41    0.89
  -4  -8   5    6.01    1.50
  -4  -8   5    5.44    1.03
  -4  -8   5    5.66    1.04
   3   8  -5    0.17    0.41
   3   8  -5    0.54    0.40
  -3  -8   5    0.70    0.47
  -3  -8   5    0.17    0.42
   2   8  -5    2.59    0.83
   2   8  -5    3.28    0.77
  -2  -8   5    2.94    0.76
  -2  -8   5    2.03    0.78
   1   8  -5    0.40    0.51
   1   8  -5    0.28    0.39
  -1  -8   5    0.16    0.43
  -1  -8   5    0.68    0.58
   7   7  -5  146.93    9.60
   7   7  -5  145.38   10.29
  -7  -7   5  160.21   11.06
   6   7  -5  254.16   15.91
   6   7  -5  258.65   17.24
  -6  -7   5  275.39   18.23
   5   7  -5  154.48   10.86
   5   7  -5  162.14   10.03
  -5  -7   5  165.96   11.77
   4   7  -5  210.14   13.18
   4   7  -5  222.36   14.28
   4   7  -5  209.84   13.09
  -4  -7   5  203.77   13.33
  -4  -7   5  228.84   15.73
  -4  -7   5  207.64   13.55
  -4  -7   5  218.61   15.17
   3   7  -5  327.01   18.80
   3   7  -5  313.62   18.94
  -3  -7   5  306.82   19.08
  -3  -7   5  307.99   21.30
  -3  -7   5  305.21   19.58
   2   7  -5  273.11   16.50
   2   7  -5  280.33   16.43
  -2  -7   5  266.40   17.18
  -2  -7   5  261.70   16.62
  -2  -7   5  267.24   18.54
   1   7  -5  189.29   11.54
   1   7  -5  198.02   11.70
  -1  -7   5  179.63   11.74
  -1  -7   5  172.51   12.13
   0   7  -5  193.00   11.94
   0   7  -5  203.63   11.82
   0  -7   5  179.46   12.46
   0  -7   5  173.22   11.94
  -1   7  -5  171.03   10.02
  -1   7  -5  155.44    9.70
   1  -7   5  142.94    9.83
   1  -7   5  136.44   10.35
   2  -7   5  135.78    8.98
   7   6  -5    0.80    0.50
   7   6  -5    0.67    0.48
  -7  -6   5    1.70    0.80
   6   6  -5    3.49    0.77
   6   6  -5    1.93    0.64
  -6  -6   5    3.01    0.98
   5   6  -5    6.34    1.08
   5   6  -5    6.99    1.07
  -5  -6   5    7.27    1.52
   4   6  -5   11.38    1.30
   4   6  -5   10.46    1.09
   4   6  -5    9.77    1.12
  -4  -6   5   11.53    1.87
  -4  -6   5    8.65    1.20
  -4  -6   5   10.44    1.10
   3   6  -5    0.20    0.27
   3   6  -5    0.53    0.34
  -3  -6   5    0.12    0.30
  -3  -6   5    0.37    0.30
  -3  -6   5    0.41    0.51
  -3  -6   5    0.48    0.57
   2   6  -5    0.87    0.39
   2   6  -5    2.72    0.65
  -2  -6   5    1.61    0.55
  -2  -6   5    1.19    0.46
  -2  -6   5    1.10    0.69
   1   6  -5    3.07    0.64
   1   6  -5    3.51    0.83
  -1  -6   5    5.05    0.92
  -1  -6   5    3.84    1.05
  -1  -6   5    3.13    0.75
   0   6  -5    0.24    0.33
   0   6  -5   -0.12    0.36
   0  -6   5    0.33    0.36
   0  -6   5    0.09    0.32
  -1   6  -5    1.54    0.55
   1  -6   5    0.93    0.58
   1  -6   5    1.14    0.52
  -2   6  -5    7.18    1.06
   2  -6   5    5.96    1.11
   2  -6   5    5.73    1.27
  -3   6  -5    0.16    0.38
   3  -6   5    0.61    0.59
   3  -6   5    0.18    0.41
   8   5  -5  219.53   16.11
   8   5  -5  270.48   15.13
   7   5  -5  268.19   18.23
   7   5  -5  285.19   16.74
  -7  -5   5  279.19   18.74
   6   5  -5  229.35   13.69
   6   5  -5  216.84   14.85
  -6  -5   5  231.73   15.51
   5   5  -5  272.51   16.59
   5   5  -5  267.23   18.10
  -5  -5   5  298.71   18.94
   4   5  -5  449.65   26.72
   4   5  -5  444.43   26.32
   4   5  -5  454.65   28.81
  -4  -5   5  431.24   29.65
  -4  -5   5  437.65   26.86
  -4  -5   5  476.49   27.46
   3   5  -5  338.66   20.53
   3   5  -5  341.61   20.22
  -3  -5   5  331.96   20.62
  -3  -5   5  361.33   23.01
  -3  -5   5  345.82   21.16
   2   5  -5  348.62   21.07
   2   5  -5  356.35   21.40
  -2  -5   5  359.46   21.56
  -2  -5   5  347.11   23.79
  -2  -5   5  376.58   22.14
   1   5  -5  305.06   18.04
   1   5  -5  301.22   17.83
  -1  -5   5  299.67   18.70
  -1  -5   5  286.13   18.19
  -1  -5   5  304.18   20.07
   0   5  -5  252.54   15.57
   0   5  -5  261.18   15.75
   0  -5   5  251.07   17.37
   0  -5   5  264.88   16.43
   0  -5   5  262.07   15.89
  -1   5  -5  326.14   18.97
   1  -5   5  309.13   19.85
   1  -5   5  322.55   20.80
   1  -5   5  294.29   19.12
  -2   5  -5  235.23   14.81
   2  -5   5  238.43   14.99
   2  -5   5  251.41   15.73
  -3   5  -5  222.10   13.36
   3  -5   5  199.80   14.21
   3  -5   5  223.46   13.40
  -4   5  -5  237.23   13.50
   4  -5   5  191.23   14.35
   4  -5   5  221.30   13.45
   8   4  -5    0.28    0.46
   8   4  -5    0.18    0.39
   8   4  -5    0.45    0.49
  -8  -4   5   -0.17    0.37
   7   4  -5    1.95    0.64
   7   4  -5    1.63    0.61
   7   4  -5    0.95    0.53
  -7  -4   5    1.70    0.69
  -7  -4   5    0.47    0.46
   6   4  -5    6.54    1.05
   6   4  -5    5.67    0.89
   6   4  -5    4.69    0.89
  -6  -4   5    5.12    1.15
  -6  -4   5    4.74    0.94
   5   4  -5    0.66    0.38
   5   4  -5    0.63    0.35
   5   4  -5    0.85    0.37
  -5  -4   5    1.06    0.47
  -5  -4   5    0.92    0.52
   4   4  -5    8.30    0.88
   4   4  -5    7.32    0.81
   4   4  -5    8.17    1.01
   4   4  -5   10.53    1.12
  -4  -4   5    8.23    0.76
  -4  -4   5    6.89    1.31
  -4  -4   5    8.08    1.13
  -4  -4   5    6.78    0.83
   3   4  -5   31.53    2.22
   3   4  -5   23.56    1.89
   3   4  -5   23.61    1.90
  -3  -4   5   25.15    1.93
  -3  -4   5   32.03    2.24
  -3  -4   5   29.76    2.68
  -3  -4   5   25.10    1.96
   2   4  -5    2.90    0.51
   2   4  -5    2.83    0.53
  -2  -4   5    2.96    0.55
  -2  -4   5    3.53    0.60
  -2  -4   5    3.55    0.89
   1   4  -5    4.92    0.72
   1   4  -5    4.36    0.72
   1   4  -5    5.19    0.62
  -1  -4   5    7.22    1.20
  -1  -4   5    6.02    0.86
  -1  -4   5    5.51    0.84
   0   4  -5    0.35    0.27
   0   4  -5    0.60    0.30
   0  -4   5    0.50    0.40
   0  -4   5    0.50    0.32
   0  -4   5    0.43    0.34
  -1   4  -5    7.25    0.97
  -1   4  -5    6.79    0.98
   1  -4   5    6.15    1.09
   1  -4   5    6.08    1.09
   1  -4   5    6.91    1.06
  -2   4  -5    3.47    0.79
  -2   4  -5    2.29    0.58
   2  -4   5    4.16    0.73
   2  -4   5    3.43    0.78
   2  -4   5    3.80    0.93
  -3   4  -5   12.47    1.25
   3  -4   5   13.21    1.26
   3  -4   5    9.55    1.61
  -4   4  -5    0.42    0.40
  -4   4  -5   -0.21    0.32
   4  -4   5    0.64    0.38
   4  -4   5    0.43    0.55
  -5   4  -5   -0.24    0.30
  -5   4  -5    0.22    0.43
   5  -4   5   -0.21    0.48
   5  -4   5    0.34    0.36
   8   3  -5  224.03   14.10
   8   3  -5  227.16   15.18
   8   3  -5  242.17   13.91
  -8  -3   5  208.63   14.09
   7   3  -5  201.00   13.83
   7   3  -5  209.47   12.98
   7   3  -5  220.40   12.80
  -7  -3   5  200.05   12.97
   6   3  -5  397.46   23.25
   6   3  -5  372.18   23.74
   6   3  -5  401.58   25.42
  -6  -3   5  392.63   23.73
  -6  -3   5  402.93   25.91
   5   3  -5  390.54   21.56
   5   3  -5  332.63   22.11
   5   3  -5  393.88   23.64
  -5  -3   5  365.25   22.10
  -5  -3   5  350.05   24.16
   4   3  -5  336.98   20.69
   4   3  -5  345.73   22.02
   4   3  -5  358.06   20.09
  -4  -3   5  347.52   20.66
  -4  -3   5  323.51   22.60
   3   3  -5  250.38   15.57
   3   3  -5  250.07   16.85
   3   3  -5  262.22   15.33
   3   3  -5  270.67   15.89
  -3  -3   5  283.33   15.99
  -3  -3   5  221.15   17.33
  -3  -3   5  281.36   15.90
  -3  -3   5  268.29   15.69
   2   3  -5  393.13   23.93
   2   3  -5  446.53   24.66
   2   3  -5  414.39   24.40
  -2  -3   5  429.22   24.54
  -2  -3   5  347.31   26.85
  -2  -3   5  405.59   24.60
  -2  -3   5  446.08   25.20
   1   3  -5  654.33   37.85
   1   3  -5  706.56   42.94
   1   3  -5  636.79   37.12
  -1  -3   5  636.13   38.01
  -1  -3   5  596.47   37.91
  -1  -3   5  568.62   41.38
  -1  -3   5  687.86   39.13
   0   3  -5  546.32   35.33
   0   3  -5  544.04   31.15
   0  -3   5  520.40   31.29
   0  -3   5  533.31   32.23
   0  -3   5  480.54   33.98
  -1   3  -5  372.07   24.06
  -1   3  -5  415.41   27.31
   1  -3   5  406.20   26.22
   1  -3   5  397.59   24.22
   1  -3   5  424.42   25.04
  -2   3  -5  388.95   24.25
   2  -3   5  415.73   24.35
   2  -3   5  415.68   26.40
  -3   3  -5  319.50   19.40
   3  -3   5  298.63   20.34
   3  -3   5  348.04   19.46
  -4   3  -5  296.62   17.12
   4  -3   5  293.10   17.07
   4  -3   5  252.92   17.99
  -5   3  -5  227.73   13.79
   5  -3   5  238.76   13.74
   5  -3   5  202.52   14.58
  -6   3  -5  182.10   10.83
   6  -3   5  154.36   11.48
   6  -3   5  175.43   10.70
   8   2  -5    0.18    0.41
   8   2  -5    0.23    0.36
   8   2  -5   -0.12    0.51
  -8  -2   5    0.38    0.41
   7   2  -5    1.10    0.52
   7   2  -5    1.45    0.53
   7   2  -5    1.17    0.53
  -7  -2   5    0.20    0.34
   6   2  -5    0.96    0.42
   6   2  -5    0.36    0.32
   6   2  -5    0.02    0.28
  -6  -2   5    1.08    0.44
  -6  -2   5   -0.10    0.31
   5   2  -5    3.55    0.67
   5   2  -5    4.26    0.74
   5   2  -5    3.39    0.73
  -5  -2   5    4.15    0.74
  -5  -2   5    4.10    0.88
   4   2  -5   15.21    1.35
   4   2  -5   13.64    1.36
   4   2  -5   15.00    1.18
  -4  -2   5   15.39    1.35
  -4  -2   5   12.92    1.51
   3   2  -5   20.81    1.59
   3   2  -5   20.16    1.41
   3   2  -5   18.99    1.63
   3   2  -5   17.56    1.36
  -3  -2   5   21.21    1.63
  -3  -2   5   19.36    1.33
  -3  -2   5   16.70    1.79
  -3  -2   5   18.89    1.42
   2   2  -5    6.40    0.64
   2   2  -5    8.43    0.85
   2   2  -5    6.74    0.68
  -2  -2   5    6.62    1.08
  -2  -2   5    6.70    0.80
  -2  -2   5    7.48    0.71
  -2  -2   5    8.31    0.75
   1   2  -5    6.75    0.81
   1   2  -5    8.66    0.88
   1   2  -5    6.88    0.69
   1   2  -5    9.75    0.81
  -1  -2   5    7.73    1.01
  -1  -2   5    8.01    0.82
  -1  -2   5    8.68    0.90
  -1  -2   5    9.73    0.91
   0   2  -5    2.99    0.52
   0   2  -5    3.31    0.61
   0   2  -5    3.30    0.55
   0  -2   5    2.32    0.57
   0  -2   5    4.37    0.66
   0  -2   5    2.96    0.67
   0  -2   5    3.99    0.62
  -1   2  -5    6.86    0.87
  -1   2  -5    8.11    1.02
   1  -2   5    7.77    0.97
   1  -2   5    8.68    1.05
   1  -2   5    7.67    0.89
  -2   2  -5   10.83    1.12
   2  -2   5   13.82    1.20
   2  -2   5   10.87    1.35
   2  -2   5   14.10    1.29
  -3   2  -5   16.47    1.53
   3  -2   5   18.37    1.51
   3  -2   5   15.54    1.77
   3  -2   5   20.40    1.60
  -4   2  -5    1.04    0.42
   4  -2   5    0.04    0.36
   4  -2   5    1.27    0.40
  -5   2  -5    9.87    1.06
  -5   2  -5    5.66    1.20
   5  -2   5   12.09    1.06
   5  -2   5    7.65    1.35
  -6   2  -5    0.05    0.29
  -6   2  -5   -0.11    0.42
   6  -2   5   -0.27    0.39
   6  -2   5    0.06    0.26
  -7   2  -5    0.80    0.61
  -7   2  -5    3.28    0.73
   7  -2   5    3.01    0.63
   7  -2   5    2.67    0.91
   8   1  -5  271.42   16.21
   8   1  -5  272.11   17.81
  -8  -1   5  247.84   16.18
   7   1  -5  225.01   14.66
   7   1  -5  218.65   13.39
  -7  -1   5  207.43   13.33
   6   1  -5  395.97   24.14
   6   1  -5  426.11   23.83
   6   1  -5  409.12   25.99
  -6  -1   5  377.15   24.04
   5   1  -5  401.05   25.26
   5   1  -5  435.58   23.09
   5   1  -5  373.00   23.48
  -5  -1   5  349.64   25.58
  -5  -1   5  403.04   23.48
   4   1  -5  317.16   18.47
   4   1  -5  299.45   18.87
   4   1  -5  342.22   20.30
  -4  -1   5  344.72   18.91
  -4  -1   5  268.85   20.59
   3   1  -5  428.65   25.58
   3   1  -5  494.73   28.17
   3   1  -5  385.09   26.26
  -3  -1   5  410.15   26.21
  -3  -1   5  488.76   26.70
   2   1  -5  366.51   25.03
   2   1  -5  475.88   26.80
   2   1  -5  434.53   24.31
   2   1  -5  452.68   24.81
  -2  -1   5  419.18   25.58
  -2  -1   5  373.35   24.95
   1   1  -5  380.43   22.50
   1   1  -5  410.74   25.67
   1   1  -5  407.87   21.99
   1   1  -5  412.13   22.75
  -1  -1   5  417.64   22.62
  -1  -1   5  359.62   23.25
  -1  -1   5  320.89   22.61
  -1  -1   5  334.70   24.64
   0   1  -5  456.87   28.80
   0   1  -5  413.25   25.22
   0   1  -5  484.06   29.25
   0  -1   5  389.31   26.05
   0  -1   5  441.89   25.35
   0  -1   5  427.00   27.52
   0  -1   5  369.58   25.25
  -1   1  -5  633.65   38.82
  -1   1  -5  524.35   33.68
  -1   1  -5  599.61   38.41
   1  -1   5  531.25   36.51
   1  -1   5  605.57   33.81
   1  -1   5  521.36   34.75
  -2   1  -5  418.85   25.20
  -2   1  -5  415.07   28.78
   2  -1   5  474.15   25.29
   2  -1   5  371.98   26.02
   2  -1   5  436.50   27.27
  -3   1  -5  452.09   32.18
  -3   1  -5  483.13   28.12
   3  -1   5  417.99   29.06
   3  -1   5  526.00   28.16
   3  -1   5  485.60   30.33
  -4   1  -5  437.25   24.94
   4  -1   5  382.70   25.91
   4  -1   5  432.76   24.93
  -5   1  -5  340.09   20.37
   5  -1   5  358.22   22.04
   5  -1   5  319.30   21.33
  -6   1  -5  329.92   20.34
   6  -1   5  345.27   22.03
   6  -1   5  337.37   20.32
   6  -1   5  339.31   21.34
  -7   1  -5  237.97   14.56
   7  -1   5  237.76   15.31
   7  -1   5  233.91   14.49
   7  -1   5  238.26   15.81
   7   0  -5    6.03    1.22
   7   0  -5    4.57    0.80
  -7   0   5    4.99    0.81
   6   0  -5    3.01    0.82
   6   0  -5    3.68    0.66
  -6   0   5    3.64    0.65
   5   0  -5    1.67    0.55
   5   0  -5    1.18    0.37
  -5   0   5    1.33    0.39
  -5   0   5    0.96    0.47
   4   0  -5    0.08    0.18
   4   0  -5   -0.12    0.16
  -4   0   5    0.10    0.16
  -4   0   5    0.24    0.29
   3   0  -5    0.20    0.18
   3   0  -5    0.32    0.21
   3   0  -5    0.58    0.25
  -3   0   5   -0.07    0.16
  -3   0   5    0.40    0.21
  -3   0   5    0.23    0.13
   2   0  -5    7.07    0.76
   2   0  -5    6.65    0.95
   2   0  -5    6.81    0.79
   2   0  -5    8.13    0.63
  -2   0   5    7.55    0.92
  -2   0   5    6.68    0.75
   1   0  -5    0.35    0.26
   1   0  -5    0.90    0.30
   1   0  -5    0.38    0.30
   1   0  -5    0.36    0.13
  -1   0   5    0.10    0.21
  -1   0   5    0.43    0.31
   0   0  -5    3.66    0.64
   0   0  -5    3.36    0.48
   0   0  -5    3.81    0.64
   0   0  -5    3.79    0.58
   0   0   5    3.07    0.47
   0   0   5    3.11    0.49
   0   0   5    3.41    0.60
  -1   0  -5   28.79    2.45
  -1   0  -5   34.19    2.28
  -1   0  -5   32.81    2.27
  -1   0  -5   32.33    2.63
   1   0   5   33.51    2.18
   1   0   5   28.00    2.33
   1   0   5   30.39    2.30
   1   0   5   34.51    2.26
  -2   0  -5   45.95    3.39
  -2   0  -5   40.57    3.10
  -2   0  -5   41.95    2.86
  -2   0  -5   36.62    2.77
   2   0   5   39.24    2.93
   2   0   5   47.75    2.87
   2   0   5   40.50    2.72
   2   0   5   38.53    2.93
  -3   0  -5   21.89    1.66
  -3   0  -5   20.36    1.61
   3   0   5   17.32    1.47
   3   0   5   14.99    1.58
   3   0   5   21.61    1.57
  -4   0  -5   -0.20    0.16
  -4   0  -5    0.12    0.24
   4   0   5    0.15    0.17
   4   0   5    0.13    0.27
   4   0   5    0.55    0.31
   4   0   5    0.24    0.20
  -5   0  -5    9.21    0.98
  -5   0  -5    7.96    0.93
   5   0   5    9.79    0.97
   5   0   5    9.78    1.15
   5   0   5    7.67    1.15
  -6   0  -5   -0.06    0.32
  -6   0  -5    0.65    0.37
   6   0   5    0.92    0.38
   6   0   5    0.81    0.44
   6   0   5    0.86    0.47
  -7   0  -5    0.61    0.54
  -7   0  -5    0.72    0.43
   7   0   5    0.66    0.36
   7   0   5    0.44    0.48
   7   0   5    0.46    0.43
  -8   0  -5    0.43    0.43
  -8   0  -5   -0.39    0.40
   8   0   5    0.50    0.50
   8   0   5    0.11    0.32
   8   0   5    0.36    0.52
   7  -1  -5  249.15   15.35
   7  -1  -5  275.91   17.09
  -7   1   5  236.89   15.29
   6  -1  -5  306.49   19.83
   6  -1  -5  309.50   18.03
  -6   1   5  283.63   17.97
   5  -1  -5  247.39   14.96
   5  -1  -5  246.18   16.41
  -5   1   5  259.49   16.63
  -5   1   5  241.93   14.93
   4  -1  -5  396.49   23.73
   4  -1  -5  398.29   21.99
  -4   1   5  332.32   24.03
  -4   1   5  344.41   21.83
   3  -1  -5  391.37   24.46
   3  -1  -5  436.93   28.79
  -3   1   5  400.19   26.78
  -3   1   5  421.15   24.42
   2  -1  -5  232.22   16.01
   2  -1  -5  293.56   18.85
  -2   1   5  282.76   17.54
  -2   1   5  263.34   15.93
   1  -1  -5  353.18   22.88
   1  -1  -5  387.70   26.73
  -1   1   5  409.96   24.89
  -1   1   5  389.87   22.80
   0  -1  -5  459.97   28.11
   0  -1  -5  464.54   32.70
   0   1   5  482.38   30.46
   0   1   5  490.55   27.98
  -1  -1  -5  603.61   42.61
  -1  -1  -5  530.24   36.56
  -1  -1  -5  624.08   41.76
  -1  -1  -5  622.74   36.71
   1   1   5  659.45   36.69
   1   1   5  626.06   39.70
   1   1   5  680.16   36.54
  -2  -1  -5  500.08   34.87
  -2  -1  -5  503.58   34.37
  -2  -1  -5  505.11   30.12
  -2  -1  -5  496.57   30.09
   2   1   5  513.45   29.94
   2   1   5  549.03   32.54
   2   1   5  487.85   30.10
  -3  -1  -5  480.95   35.28
  -3  -1  -5  521.78   30.50
  -3  -1  -5  507.38   30.47
   3   1   5  507.79   30.48
   3   1   5  534.17   32.84
   3   1   5  531.71   30.31
  -4  -1  -5  594.10   35.65
  -4  -1  -5  582.74   41.24
  -4  -1  -5  576.01   35.60
   4   1   5  575.41   38.13
   4   1   5  641.78   35.48
   4   1   5  627.25   36.76
   4   1   5  618.27   38.34
  -5  -1  -5  511.57   30.83
  -5  -1  -5  504.86   35.64
   5   1   5  536.12   33.05
   5   1   5  537.02   31.82
   5   1   5  506.18   30.81
  -6  -1  -5  341.25   24.45
  -6  -1  -5  342.85   21.23
   6   1   5  371.14   21.91
   6   1   5  364.75   21.18
   6   1   5  345.22   22.73
  -7  -1  -5  208.29   13.21
   7   1   5  212.60   14.16
   7   1   5  227.93   13.69
   7   1   5  207.91   13.07
  -8  -1  -5  174.34   11.41
   8   1   5  181.92   12.26
   8   1   5  193.38   11.92
   8   1   5  178.31   11.27
   6  -2  -5    3.27    0.55
   6  -2  -5    2.94    0.88
  -6   2   5    3.21    0.56
   5  -2  -5   18.92    1.88
   5  -2  -5   16.48    1.35
  -5   2   5   18.98    2.00
  -5   2   5   15.73    1.32
   4  -2  -5    6.88    0.69
   4  -2  -5    5.45    1.00
   4  -2  -5    7.37    1.30
  -4   2   5    6.52    1.16
  -4   2   5    5.52    0.66
   3  -2  -5    7.23    1.24
   3  -2  -5   11.13    0.93
   3  -2  -5    9.08    1.04
  -3   2   5    7.95    0.77
  -3   2   5    8.68    1.09
   2  -2  -5    1.32    0.53
   2  -2  -5    2.26    0.39
   2  -2  -5    2.76    0.50
  -2   2   5    2.03    0.48
  -2   2   5    1.63    0.32
  -2   2   5    2.19    0.27
   1  -2  -5    0.44    0.39
   1  -2  -5    0.03    0.18
   1  -2  -5    0.03    0.17
   1  -2  -5    0.57    0.19
  -1   2   5    0.45    0.17
  -1   2   5    0.25    0.08
  -1   2   5    0.38    0.28
  -1   2   5    0.49    0.20
   0  -2  -5    1.81    0.58
   0  -2  -5    1.89    0.46
   0  -2  -5    1.38    0.34
   0  -2  -5    2.04    0.37
   0   2   5    2.09    0.36
   0   2   5    1.80    0.45
  -1  -2  -5   26.52    2.06
  -1  -2  -5   28.96    2.65
  -1  -2  -5   32.05    2.54
   1   2   5   30.08    2.27
   1   2   5   32.79    2.06
   1   2   5   31.78    1.88
  -2  -2  -5    8.26    0.84
  -2  -2  -5    7.31    0.76
  -2  -2  -5    8.31    1.01
  -2  -2  -5    7.64    1.03
   2   2   5    7.33    0.78
   2   2   5    9.33    0.77
   2   2   5    8.61    0.66
   2   2   5    8.36    0.80
  -3  -2  -5    2.15    0.65
  -3  -2  -5    2.90    0.66
  -3  -2  -5    1.35    0.38
  -3  -2  -5    1.58    0.45
   3   2   5    2.12    0.44
   3   2   5    1.82    0.36
   3   2   5    1.75    0.38
   3   2   5    1.62    0.35
  -4  -2  -5   65.88    4.10
  -4  -2  -5   54.05    4.00
  -4  -2  -5   64.41    4.72
   4   2   5   62.84    3.95
   4   2   5   64.88    4.25
   4   2   5   63.02    3.91
   4   2   5   58.90    4.13
  -5  -2  -5    3.39    0.64
  -5  -2  -5    3.61    0.70
   5   2   5    4.01    0.63
   5   2   5    3.44    0.61
   5   2   5    2.92    0.59
  -6  -2  -5    0.02    0.35
  -6  -2  -5    0.22    0.30
  -6  -2  -5    0.01    0.30
   6   2   5   -0.22    0.23
   6   2   5    0.48    0.29
   6   2   5   -0.24    0.22
   6   2   5    0.32    0.30
  -7  -2  -5   -0.11    0.35
  -7  -2  -5    0.05    0.34
  -7  -2  -5   -0.20    0.26
   7   2   5   -0.17    0.30
   7   2   5    0.33    0.26
   7   2   5   -0.56    0.23
  -8  -2  -5    0.42    0.61
  -8  -2  -5    1.58    0.62
  -8  -2  -5    1.36    0.57
   8   2   5    1.47    0.48
   8   2   5    0.39    0.46
   8   2   5    1.36    0.57
  -9  -2  -5   -0.34    0.43
  -9  -2  -5    0.62    0.53
   9   2   5    0.53    0.43
   9   2   5   -0.26    0.37
   6  -3  -5  180.84   11.57
   6  -3  -5  166.48    9.89
  -6   3   5  145.69    9.83
   5  -3  -5  340.17   19.24
   5  -3  -5  346.05   21.34
  -5   3   5  286.90   19.12
   4  -3  -5  433.33   31.43
   4  -3  -5  441.67   28.92
   4  -3  -5  462.90   26.59
  -4   3   5  456.81   29.33
   3  -3  -5  446.26   31.89
   3  -3  -5  462.37   29.32
   3  -3  -5  455.15   27.11
  -3   3   5  467.41   29.70
   2  -3  -5  317.81   17.30
   2  -3  -5  325.72   17.18
   2  -3  -5  270.01   18.70
   2  -3  -5  301.68   20.62
  -2   3   5  293.05   17.11
  -2   3   5  268.09   18.99
  -2   3   5  258.35   17.17
   1  -3  -5  400.56   30.13
   1  -3  -5  383.91   27.44
   1  -3  -5  411.49   25.55
  -1   3   5  491.04   25.45
  -1   3   5  475.13   24.93
  -1   3   5  430.86   25.45
   0  -3  -5  336.68   23.24
   0  -3  -5  365.64   21.78
   0  -3  -5  347.69   25.68
   0   3   5  390.65   21.66
   0   3   5  364.21   21.17
   0   3   5  400.76   21.75
  -1  -3  -5  403.22   24.87
  -1  -3  -5  404.30   29.25
  -1  -3  -5  444.01   28.40
   1   3   5  402.85   24.19
   1   3   5  446.17   24.75
  -2  -3  -5  502.06   29.16
  -2  -3  -5  456.35   33.22
   2   3   5  501.00   28.38
   2   3   5  507.93   28.98
  -3  -3  -5  503.13   35.18
  -3  -3  -5  507.21   34.47
  -3  -3  -5  505.30   30.15
   3   3   5  517.82   29.95
   3   3   5  470.36   30.10
   3   3   5  545.45   29.43
  -4  -3  -5  454.82   34.10
  -4  -3  -5  503.16   33.65
  -4  -3  -5  506.76   29.32
  -4  -3  -5  536.71   29.37
   4   3   5  457.97   29.11
   4   3   5  499.88   29.30
   4   3   5  498.58   28.66
  -5  -3  -5  439.39   24.68
  -5  -3  -5  404.85   28.63
  -5  -3  -5  423.30   24.66
   5   3   5  420.85   26.20
   5   3   5  373.32   26.32
   5   3   5  410.03   24.46
   5   3   5  426.08   24.63
   5   3   5  405.23   24.05
  -6  -3  -5  388.68   28.09
  -6  -3  -5  400.11   24.23
   6   3   5  406.73   25.74
   6   3   5  427.56   24.18
   6   3   5  394.83   23.65
  -7  -3  -5  377.96   23.37
  -7  -3  -5  370.59   27.09
   7   3   5  391.59   24.84
   7   3   5  400.97   23.30
   7   3   5  389.53   23.93
   7   3   5  394.68   22.91
  -8  -3  -5  275.69   20.45
  -8  -3  -5  283.70   17.68
   8   3   5  307.27   17.61
   8   3   5  292.71   18.76
   8   3   5  288.18   18.03
   8   3   5  282.70   17.40
  -9  -3  -5  166.96   12.99
  -9  -3  -5  178.91   11.33
   9   3   5  182.09   11.95
   9   3   5  182.13   11.16
   5  -4  -5   -0.02    0.48
   5  -4  -5    0.31    0.21
  -5   4   5    0.41    0.21
   4  -4  -5    1.99    0.38
   4  -4  -5    1.17    0.62
   4  -4  -5    2.18    0.78
  -4   4   5    1.31    0.28
  -4   4   5    2.27    0.72
   3  -4  -5    0.73    0.49
   3  -4  -5    0.73    0.25
   3  -4  -5    0.02    0.33
  -3   4   5    0.51    0.19
  -3   4   5    0.40    0.37
   2  -4  -5    2.60    0.77
   2  -4  -5    2.71    0.62
   2  -4  -5    2.43    0.33
  -2   4   5    2.16    0.28
   1  -4  -5    0.11    0.22
   1  -4  -5    0.30    0.15
   1  -4  -5   -0.19    0.25
  -1   4   5    0.21    0.14
  -1   4   5    0.15    0.10
   0  -4  -5   21.09    1.32
   0  -4  -5   17.98    1.44
   0  -4  -5   18.87    2.00
   0   4   5   17.79    1.23
   0   4   5   16.34    1.18
  -1  -4  -5    1.88    0.33
  -1  -4  -5    1.21    0.57
  -1  -4  -5    2.00    0.27
  -1  -4  -5    1.14    0.34
   1   4   5    1.25    0.22
   1   4   5    1.58    0.27
  -2  -4  -5    1.62    0.59
  -2  -4  -5    1.98    0.37
  -2  -4  -5    1.17    0.40
   2   4   5    1.70    0.28
   2   4   5    1.58    0.29
  -3  -4  -5   34.55    3.14
  -3  -4  -5   34.41    2.92
  -3  -4  -5   36.70    2.46
   3   4   5   34.43    2.33
   3   4   5   35.16    2.26
  -4  -4  -5   10.48    0.98
  -4  -4  -5    9.29    1.44
  -4  -4  -5    8.18    1.32
  -4  -4  -5    9.77    1.02
   4   4   5    9.24    0.92
   4   4   5    8.44    0.82
   4   4   5    8.95    0.82
  -5  -4  -5    6.19    1.09
  -5  -4  -5    4.40    0.74
  -5  -4  -5    4.83    1.09
  -5  -4  -5    3.07    0.61
   5   4   5    4.06    0.57
   5   4   5    4.41    0.67
   5   4   5    4.96    0.58
   5   4   5    4.73    0.73
  -6  -4  -5   13.43    1.41
  -6  -4  -5   11.93    1.62
   6   4   5   13.85    1.29
   6   4   5   13.99    1.32
   6   4   5   13.74    1.24
  -7  -4  -5   -0.19    0.34
  -7  -4  -5    0.38    0.53
  -7  -4  -5    0.29    0.44
   7   4   5    0.27    0.31
   7   4   5    0.45    0.39
   7   4   5    0.32    0.33
  -8  -4  -5    2.26    0.81
  -8  -4  -5    1.44    0.61
  -8  -4  -5    0.16    0.56
   8   4   5    3.16    0.68
   8   4   5    2.15    0.63
   8   4   5    1.80    0.60
  -9  -4  -5   -0.02    0.48
  -9  -4  -5    0.71    0.58
  -9  -4  -5    1.31    0.69
   9   4   5    1.16    0.62
   9   4   5    1.08    0.53
   9   4   5    0.35    0.41
   4  -5  -5  152.73   11.71
   4  -5  -5  150.60   10.87
  -4   5   5  168.67   11.05
   3  -5  -5  257.85   18.39
   3  -5  -5  272.62   15.26
   3  -5  -5  238.82   16.93
  -3   5   5  259.15   15.18
  -3   5   5  251.41   17.19
   2  -5  -5  342.60   23.06
   2  -5  -5  351.92   19.15
   2  -5  -5  296.06   20.96
  -2   5   5  306.35   19.04
   1  -5  -5  408.44   22.97
   1  -5  -5  368.62   24.90
   1  -5  -5  379.95   27.39
  -1   5   5  411.80   22.88
  -1   5   5  374.57   22.58
   0  -5  -5  228.80   13.19
   0  -5  -5  218.52   16.00
   0   5   5  224.94   13.11
   0   5   5  213.35   12.91
  -1  -5  -5  355.04   20.69
  -1  -5  -5  334.50   24.72
   1   5   5  374.71   20.61
   1   5   5  330.11   20.21
  -2  -5  -5  554.54   36.94
  -2  -5  -5  542.40   32.45
  -2  -5  -5  504.17   38.17
   2   5   5  575.49   32.32
   2   5   5  565.61   31.70
  -3  -5  -5  426.35   25.64
  -3  -5  -5  405.69   29.22
  -3  -5  -5  439.85   30.22
   3   5   5  436.94   24.99
   3   5   5  447.69   25.49
  -4  -5  -5  283.37   21.67
  -4  -5  -5  323.59   22.54
  -4  -5  -5  332.39   19.01
   4   5   5  319.95   18.46
   4   5   5  321.74   18.81
  -5  -5  -5  321.28   19.20
  -5  -5  -5  301.28   22.04
  -5  -5  -5  323.64   22.65
   5   5   5  337.61   18.69
   5   5   5  308.10   18.97
  -6  -5  -5  359.12   21.58
  -6  -5  -5  366.43   25.37
  -6  -5  -5  377.90   25.01
   6   5   5  356.23   21.07
   6   5   5  334.88   21.29
  -7  -5  -5  331.30   24.12
   7   5   5  347.05   20.14
  -8  -5  -5  239.94   17.62
   8   5   5  244.59   14.63
  -9  -5  -5  191.09   13.87
   9   5   5  179.42   11.43
   3  -6  -5    9.76    1.65
   3  -6  -5   11.62    0.88
   2  -6  -5    0.38    0.47
   2  -6  -5    0.07    0.16
  -2   6   5    0.27    0.14
   1  -6  -5    2.70    0.91
   1  -6  -5    2.34    0.33
  -1   6   5    2.63    0.47
  -1   6   5    2.60    0.33
   0  -6  -5    4.42    1.11
   0  -6  -5    5.46    0.52
   0   6   5    4.65    0.48
   0   6   5    4.72    0.60
  -1  -6  -5   10.78    1.83
  -1  -6  -5   13.05    0.93
   1   6   5    9.01    0.87
   1   6   5   11.12    0.87
  -2  -6  -5    0.88    0.27
  -2  -6  -5    1.12    0.74
   2   6   5    0.91    0.25
   2   6   5    0.82    0.26
  -3  -6  -5    0.76    0.29
  -3  -6  -5    0.63    0.33
  -3  -6  -5    1.99    0.77
   3   6   5    0.73    0.25
   3   6   5    0.28    0.21
  -4  -6  -5    2.22    0.60
  -4  -6  -5    3.63    1.05
  -4  -6  -5    3.09    0.56
   4   6   5    1.79    0.39
   4   6   5    2.77    0.48
  -5  -6  -5    1.29    0.44
  -5  -6  -5    0.17    0.43
  -5  -6  -5    1.15    0.71
   5   6   5    0.67    0.31
   5   6   5    0.25    0.24
  -6  -6  -5    5.89    1.30
  -6  -6  -5    9.06    1.67
  -6  -6  -5    6.85    1.01
   6   6   5    6.76    0.90
   6   6   5    6.90    0.87
  -7  -6  -5    0.25    0.77
  -7  -6  -5    2.67    0.97
   7   6   5    2.09    0.59
  -8  -6  -5   -0.58    0.99
  -8  -6  -5    0.31    0.64
   8   6   5   -0.02    0.33
  -9  -6  -5    2.91    1.52
  -9  -6  -5    3.34    1.18
   9   6   5    3.00    0.76
   2  -7  -5  185.32   13.24
   2  -7  -5  173.19   10.64
  -2   7   5  177.90   10.58
   1  -7  -5  206.49   15.21
   0  -7  -5  331.52   23.26
   0  -7  -5  325.33   19.27
   0   7   5  332.82   19.21
   0   7   5  310.12   19.00
  -1  -7  -5  335.59   24.39
  -1  -7  -5  351.38   20.21
   1   7   5  318.09   19.84
   1   7   5  353.23   20.13
  -2  -7  -5  171.16   13.25
  -2  -7  -5  174.44   10.60
   2   7   5  170.92   10.40
   2   7   5  182.07   10.55
  -3  -7  -5  176.58   12.85
  -3  -7  -5  165.35   10.31
   3   7   5  169.66   10.24
   3   7   5  167.29   10.08
  -4  -7  -5  289.44   21.42
  -4  -7  -5  294.06   17.84
   4   7   5  290.69   17.42
   4   7   5  310.66   17.73
  -5  -7  -5  260.34   19.22
  -5  -7  -5  262.98   15.87
   5   7   5  249.26   15.67
   5   7   5  271.47   15.47
  -6  -7  -5  216.75   16.45
  -6  -7  -5  238.16   14.45
   6   7   5  246.14   14.01
   6   7   5  237.25   14.22
  -7  -7  -5  218.28   16.18
  -7  -7  -5  248.24   17.07
   7   7   5  215.88   13.57
  -8  -7  -5  236.33   17.25
  -8  -7  -5  243.08   16.80
   8   7   5  211.53   13.87
   0  -8  -5    0.86    0.30
   0  -8  -5    1.31    0.72
   0   8   5    0.91    0.29
  -1  -8  -5    1.74    0.40
  -1  -8  -5    1.86    0.95
   1   8   5    2.22    0.42
   1   8   5    2.13    0.51
  -2  -8  -5   13.06    1.12
  -2  -8  -5   11.01    2.15
   2   8   5   12.65    1.17
   2   8   5   11.87    1.07
  -3  -8  -5    0.51    0.30
  -3  -8  -5    0.62    0.76
   3   8   5    0.45    0.29
   3   8   5    0.11    0.25
  -4  -8  -5   -0.20    0.23
  -4  -8  -5    0.00    0.63
   4   8   5   -0.05    0.22
   4   8   5    0.26    0.29
  -5  -8  -5   -0.29    0.23
  -5  -8  -5    0.92    0.77
   5   8   5    0.40    0.30
   5   8   5   -0.20    0.23
  -6  -8  -5    1.75    1.01
  -6  -8  -5    0.34    0.39
   6   8   5    0.45    0.31
   6   8   5    0.11    0.28
  -7  -8  -5    1.93    0.68
  -7  -8  -5    3.85    1.40
   7   8   5    2.31    0.58
   7   8   5    2.67    0.62
  -8  -8  -5    0.20    0.79
   8   8   5    0.12    0.39
  -2  -9  -5  153.08    9.69
  -2  -9  -5  149.62   12.26
   2   9   5  156.96    9.59
   2   9   5  165.89    9.66
  -3  -9  -5  171.97   14.98
   3   9   5  202.05   12.01
   3   9   5  210.19   11.90
  -4  -9  -5  231.84   17.47
   4   9   5  229.65   13.82
  -5  -9  -5  147.54    9.43
  -5  -9  -5  157.33   12.01
   5   9   5  146.07    9.18
  -6  -9  -5  134.10   11.31
  -6  -9  -5  142.18    8.98
   6   9   5  141.88    8.79
   6   9   5  138.73    8.70
   4   8  -6  127.69    8.42
   4   8  -6  123.15    8.43
   4   8  -6  143.31    9.30
  -4  -8   6  130.70   10.08
  -4  -8   6  131.08    8.70
  -4  -8   6  118.64    8.57
   3   8  -6  149.13    9.25
   3   8  -6  141.76    9.13
  -3  -8   6  139.44    9.52
  -3  -8   6  143.66   10.76
  -3  -8   6  128.76    9.23
   2   8  -6  208.21   11.43
   2   8  -6  167.23   11.15
  -2  -8   6  166.66   11.29
  -2  -8   6  161.39   11.66
   6   7  -6    0.12    0.46
   6   7  -6    0.18    0.44
  -6  -7   6    0.33    0.61
   5   7  -6    0.47    0.40
   5   7  -6   -0.46    0.27
  -5  -7   6   -0.23    0.52
   4   7  -6    1.57    0.67
   4   7  -6    2.33    0.65
   4   7  -6    0.90    0.54
  -4  -7   6    2.34    0.64
  -4  -7   6    1.74    0.62
  -4  -7   6    2.06    0.99
   3   7  -6    0.28    0.35
   3   7  -6    0.49    0.43
  -3  -7   6    0.21    0.56
  -3  -7   6    0.09    0.36
  -3  -7   6    0.00    0.33
   2   7  -6    1.34    0.54
   2   7  -6    1.08    0.55
  -2  -7   6    0.91    0.75
  -2  -7   6    1.45    0.65
  -2  -7   6    1.10    0.54
   1   7  -6    2.98    0.73
   1   7  -6    2.66    0.82
  -1  -7   6    1.96    0.70
  -1  -7   6    2.14    0.99
  -1  -7   6    2.82    0.87
   0   7  -6    0.59    0.45
   0   7  -6    0.42    0.58
   0  -7   6    0.25    0.49
   0  -7   6    0.30    0.56
  -1   7  -6    0.14    0.47
  -1   7  -6    0.36    0.44
   1  -7   6   -0.22    0.43
   1  -7   6   -0.23    0.35
   7   6  -6  246.33   17.70
   7   6  -6  276.04   16.32
  -7  -6   6  284.46   18.57
   6   6  -6  236.05   14.51
   6   6  -6  237.96   15.84
  -6  -6   6  241.58   16.69
   5   6  -6  274.17   16.76
   5   6  -6  272.19   18.32
  -5  -6   6  292.62   19.33
   4   6  -6  261.23   16.80
   4   6  -6  244.26   15.44
   4   6  -6  263.60   15.33
  -4  -6   6  261.11   17.70
  -4  -6   6  235.86   15.60
  -4  -6   6  259.48   15.90
   3   6  -6  222.77   13.30
   3   6  -6  214.10   13.43
  -3  -6   6  205.79   13.51
  -3  -6   6  223.42   13.92
  -3  -6   6  229.77   15.45
   2   6  -6  285.04   16.67
   2   6  -6  275.86   16.86
  -2  -6   6  280.46   17.49
  -2  -6   6  268.40   17.02
  -2  -6   6  271.48   18.97
   1   6  -6  199.37   11.95
   1   6  -6  202.11   11.94
  -1  -6   6  175.88   13.41
  -1  -6   6  181.40   12.12
  -1  -6   6  196.79   12.51
   0   6  -6  199.24   12.02
   0   6  -6  196.52   11.99
   0  -6   6  177.03   12.51
   0  -6   6  193.49   13.37
   0  -6   6  187.42   12.18
  -1   6  -6  268.76   16.19
  -1   6  -6  278.89   16.18
   1  -6   6  243.45   16.96
   1  -6   6  255.66   16.32
  -2   6  -6  166.24    9.92
   2  -6   6  147.07    9.98
   2  -6   6  147.50   10.64
  -3   6  -6  126.54    7.72
   3  -6   6  104.77    8.40
   3  -6   6  116.22    7.88
   7   5  -6    0.39    0.42
   7   5  -6    0.31    0.41
  -7  -5   6    0.87    0.68
   6   5  -6    0.41    0.38
   6   5  -6   -0.01    0.31
  -6  -5   6    0.00    0.46
   5   5  -6    3.66    0.82
   5   5  -6    4.11    0.81
  -5  -5   6    5.37    1.32
   4   5  -6   28.98    2.30
   4   5  -6   34.00    2.73
   4   5  -6   29.48    2.34
  -4  -5   6   30.30    2.31
  -4  -5   6   35.74    3.30
   3   5  -6    0.26    0.30
   3   5  -6    0.38    0.29
  -3  -5   6    0.38    0.32
  -3  -5   6    0.67    0.58
  -3  -5   6    0.44    0.32
   2   5  -6    0.31    0.28
   2   5  -6    1.13    0.42
  -2  -5   6    0.69    0.57
  -2  -5   6    1.09    0.43
  -2  -5   6    0.20    0.31
   1   5  -6    0.41    0.31
   1   5  -6    0.40    0.38
  -1  -5   6    0.47    0.38
  -1  -5   6    0.48    0.38
  -1  -5   6    0.57    0.48
   0   5  -6    4.82    0.88
   0   5  -6    5.89    1.01
   0  -5   6    6.46    1.05
   0  -5   6    6.45    1.15
   0  -5   6    4.45    1.10
  -1   5  -6    0.67    0.39
   1  -5   6    0.16    0.45
   1  -5   6    1.00    0.50
   1  -5   6    0.09    0.42
  -2   5  -6    5.00    0.90
   2  -5   6    3.15    0.84
  -3   5  -6    1.18    0.53
   3  -5   6    0.34    0.42
   3  -5   6    0.18    0.53
  -4   5  -6    1.51    0.61
   4  -5   6    1.21    0.75
   4  -5   6    2.20    0.64
   8   4  -6  192.59   12.21
   8   4  -6  187.83   12.93
  -8  -4   6  188.14   12.27
   7   4  -6  236.59   14.33
   7   4  -6  243.89   13.99
   7   4  -6  210.09   15.13
  -7  -4   6  228.92   15.67
  -7  -4   6  216.49   14.31
   6   4  -6  273.94   18.92
   6   4  -6  309.35   17.32
   6   4  -6  282.81   17.84
  -6  -4   6  292.49   19.66
  -6  -4   6  288.84   17.88
   5   4  -6  248.12   15.20
   5   4  -6  258.07   14.69
   5   4  -6  229.54   16.02
  -5  -4   6  241.64   15.18
  -5  -4   6  247.10   16.82
   4   4  -6  328.85   19.05
   4   4  -6  296.80   20.88
   4   4  -6  346.69   19.77
  -4  -4   6  290.42   21.63
  -4  -4   6  352.32   19.76
   3   4  -6  365.38   21.92
   3   4  -6  372.74   21.54
  -3  -4   6  396.60   22.56
  -3  -4   6  355.22   22.00
  -3  -4   6  343.40   24.45
   2   4  -6  350.78   20.15
   2   4  -6  326.14   19.74
  -2  -4   6  334.19   20.27
  -2  -4   6  304.13   22.39
  -2  -4   6  363.50   20.86
   1   4  -6  428.62   25.26
   1   4  -6  466.12   28.48
   1   4  -6  435.55   24.81
  -1  -4   6  441.52   26.19
  -1  -4   6  367.47   27.74
  -1  -4   6  391.05   25.38
   0   4  -6  460.10   26.51
   0  -4   6  443.42   26.64
   0  -4   6  460.89   27.53
   0  -4   6  404.57   28.94
  -1   4  -6  230.55   14.64
  -1   4  -6  250.21   16.54
   1  -4   6  241.63   16.10
   1  -4   6  236.87   15.44
   1  -4   6  237.82   14.89
  -2   4  -6  245.76   16.00
  -2   4  -6  214.44   14.12
   2  -4   6  229.99   14.27
   2  -4   6  240.62   15.43
   2  -4   6  215.44   14.93
  -3   4  -6  300.40   17.16
  -3   4  -6  251.78   19.44
   3  -4   6  308.67   17.19
   3  -4   6  260.28   18.11
  -4   4  -6  241.43   14.02
   4  -4   6  239.29   14.02
   4  -4   6  196.62   14.93
  -5   4  -6  186.58   10.86
   5  -4   6  145.07   11.63
   5  -4   6  179.85   10.83
   8   3  -6    3.50    0.94
   8   3  -6    2.58    0.78
  -8  -3   6    3.22    0.89
   7   3  -6    2.98    0.83
   7   3  -6    4.77    0.90
   7   3  -6    3.14    0.77
  -7  -3   6    2.54    0.75
  -7  -3   6    2.02    0.79
   6   3  -6    5.98    0.95
   6   3  -6    3.48    0.81
   6   3  -6    4.22    0.89
  -6  -3   6    3.56    1.00
  -6  -3   6    3.18    0.79
   5   3  -6    1.21    0.51
   5   3  -6    0.93    0.37
  -5  -3   6    0.75    0.54
  -5  -3   6    1.01    0.44
   4   3  -6    1.64    0.51
   4   3  -6    2.31    0.48
   4   3  -6    2.25    0.59
  -4  -3   6    2.34    0.77
  -4  -3   6    1.50    0.52
   3   3  -6    0.19    0.25
   3   3  -6    0.31    0.20
   3   3  -6    1.37    0.46
   3   3  -6    0.74    0.27
  -3  -3   6    0.23    0.21
  -3  -3   6    1.46    0.46
  -3  -3   6    0.13    0.30
  -3  -3   6    0.19    0.19
   2   3  -6    0.43    0.21
   2   3  -6    0.35    0.21
   2   3  -6    0.04    0.22
  -2  -3   6   -0.06    0.21
  -2  -3   6    0.19    0.23
  -2  -3   6   -0.17    0.25
  -2  -3   6    0.05    0.17
   1   3  -6    9.40    0.87
   1   3  -6    6.83    0.82
   1   3  -6    8.30    0.94
   1   3  -6    8.28    0.90
  -1  -3   6    9.89    1.05
  -1  -3   6    7.24    0.98
  -1  -3   6    6.43    1.20
  -1  -3   6    7.12    1.01
   0   3  -6    0.38    0.27
   0   3  -6    1.62    0.47
   0  -3   6    0.57    0.34
   0  -3   6    1.31    0.49
   0  -3   6    0.51    0.42
  -1   3  -6    3.11    0.70
  -1   3  -6    3.24    0.67
   1  -3   6    3.90    0.76
   1  -3   6    3.60    0.83
   1  -3   6    2.67    0.74
  -2   3  -6    2.00    0.59
  -2   3  -6    1.90    0.54
   2  -3   6    0.90    0.46
   2  -3   6    1.68    0.49
   2  -3   6    0.96    0.49
  -3   3  -6    4.00    0.74
  -3   3  -6    2.50    0.77
   3  -3   6    4.42    1.00
   3  -3   6    5.07    0.80
   3  -3   6    5.35    0.89
  -4   3  -6    6.91    1.03
   4  -3   6    6.37    1.30
   4  -3   6    7.41    1.01
  -5   3  -6    0.24    0.42
  -5   3  -6   -0.10    0.31
   5  -3   6    0.26    0.35
   5  -3   6    0.21    0.55
  -6   3  -6    0.44    0.48
  -6   3  -6   -0.12    0.36
   6  -3   6   -0.11    0.57
   6  -3   6    0.11    0.36
   8   2  -6  192.99   11.91
   8   2  -6  190.83   12.98
  -8  -2   6  177.91   11.90
   7   2  -6  171.51   11.40
   7   2  -6  167.12   10.56
  -7  -2   6  164.84   11.55
  -7  -2   6  158.77   10.50
   6   2  -6  246.17   15.67
   6   2  -6  285.04   15.33
   6   2  -6  249.04   16.78
  -6  -2   6  236.15   17.07
  -6  -2   6  254.67   15.66
   5   2  -6  428.48   27.10
   5   2  -6  490.82   24.81
   5   2  -6  371.55   25.27
  -5  -2   6  431.32   25.34
  -5  -2   6  382.88   27.56
   4   2  -6  473.90   28.19
   4   2  -6  480.85   25.61
   4   2  -6  407.64   26.31
  -4  -2   6  374.97   28.62
  -4  -2   6  457.62   26.38
   3   2  -6  387.77   24.26
   3   2  -6  417.79   23.54
   3   2  -6  410.03   25.93
  -3  -2   6  434.75   24.63
  -3  -2   6  371.03   24.23
   2   2  -6  470.01   28.04
   2   2  -6  459.80   28.32
   2   2  -6  506.09   27.48
  -2  -2   6  456.85   28.13
  -2  -2   6  461.58   28.27
  -2  -2   6  492.23   28.98
   1   2  -6  401.21   26.77
   1   2  -6  378.79   23.00
   1   2  -6  383.93   23.54
   1   2  -6  415.75   23.77
  -1  -2   6  419.52   23.74
  -1  -2   6  377.54   23.65
  -1  -2   6  402.95   24.44
   0   2  -6  456.33   29.06
   0   2  -6  517.23   33.14
   0   2  -6  543.73   29.23
   0  -2   6  436.79   31.69
   0  -2   6  478.50   29.22
   0  -2   6  514.12   29.16
   0  -2   6  485.19   30.17
  -1   2  -6  379.29   24.52
  -1   2  -6  425.71   27.91
   1  -2   6  385.96   25.45
   1  -2   6  425.60   24.71
   1  -2   6  436.94   26.73
  -2   2  -6  300.99   18.42
  -2   2  -6  326.65   21.04
   2  -2   6  265.84   19.19
   2  -2   6  321.11   20.04
   2  -2   6  312.54   18.46
  -3   2  -6  382.94   22.64
   3  -2   6  316.17   23.57
   3  -2   6  396.33   22.69
   3  -2   6  410.64   24.51
  -4   2  -6  322.54   18.82
   4  -2   6  337.14   18.80
   4  -2   6  269.11   19.64
  -5   2  -6  277.65   16.77
   5  -2   6  264.96   17.66
   5  -2   6  279.98   16.69
  -6   2  -6  297.24   17.71
   6  -2   6  288.80   17.60
   6  -2   6  281.17   18.59
  -7   2  -6  150.50    9.61
   7  -2   6  153.83    9.49
   7  -2   6  142.08   10.23
   7   1  -6    1.36    0.52
   7   1  -6    2.07    0.76
  -7  -1   6    1.32    0.50
   6   1  -6    1.34    0.49
   6   1  -6    1.03    0.52
  -6  -1   6    1.69    0.65
  -6  -1   6    2.07    0.56
   5   1  -6    6.39    1.09
   5   1  -6    8.88    0.98
   5   1  -6    7.00    0.95
  -5  -1   6    7.12    1.01
  -5  -1   6    5.71    1.13
   4   1  -6   20.30    1.66
   4   1  -6   21.76    1.55
   4   1  -6   17.57    1.71
  -4  -1   6   17.14    1.92
  -4  -1   6   17.96    1.63
   3   1  -6   14.24    1.10
   3   1  -6   14.89    1.35
   3   1  -6   13.80    1.37
  -3  -1   6   14.58    1.58
  -3  -1   6   14.86    1.33
  -3  -1   6   14.55    1.09
   2   1  -6   59.64    3.71
   2   1  -6   51.19    3.24
   2   1  -6   53.59    3.80
   2   1  -6   51.00    3.36
  -2  -1   6   49.99    3.37
  -2  -1   6   49.47    4.00
  -2  -1   6   54.20    3.54
  -2  -1   6   57.65    3.65
   1   1  -6   60.33    4.45
   1   1  -6   58.37    4.30
   1   1  -6   54.90    3.70
   1   1  -6   57.74    3.52
   1   1  -6   57.43    3.91
  -1  -1   6   57.49    4.32
  -1  -1   6   59.71    3.79
  -1  -1   6   56.13    3.93
  -1  -1   6   61.89    3.94
   0   1  -6    2.58    0.63
   0   1  -6    3.15    0.56
   0   1  -6    3.20    0.58
   0   1  -6    3.37    0.58
   0  -1   6    2.27    0.53
   0  -1   6    3.19    0.67
   0  -1   6    3.72    0.59
   0  -1   6    2.39    0.55
  -1   1  -6   34.47    2.36
  -1   1  -6   29.53    2.31
  -1   1  -6   34.28    2.68
  -1   1  -6   26.14    2.15
   1  -1   6   29.84    2.39
   1  -1   6   36.87    2.41
   1  -1   6   28.48    2.20
   1  -1   6   29.18    2.42
  -2   1  -6   31.89    2.63
  -2   1  -6   34.91    2.28
  -2   1  -6   26.19    2.10
  -2   1  -6   26.13    2.06
   2  -1   6   28.12    2.37
   2  -1   6   35.23    2.26
   2  -1   6   30.81    2.34
   2  -1   6   28.23    2.11
  -3   1  -6    0.88    0.38
  -3   1  -6    0.65    0.46
   3  -1   6    1.72    0.52
   3  -1   6    0.97    0.37
   3  -1   6    1.49    0.42
  -4   1  -6    0.45    0.36
  -4   1  -6   -0.05    0.26
   4  -1   6    0.26    0.34
   4  -1   6   -0.08    0.21
  -5   1  -6    3.20    0.69
   5  -1   6    3.45    0.64
   5  -1   6    2.42    0.78
  -6   1  -6    0.84    0.53
  -6   1  -6    1.49    0.54
   6  -1   6    4.07    1.01
   6  -1   6    2.25    0.55
  -7   1  -6    1.81    0.63
  -7   1  -6    0.42    0.51
   7  -1   6    1.96    0.79
   7  -1   6    2.18    0.59
   7   0  -6  274.71   18.02
   7   0  -6  271.78   16.40
  -7   0   6  256.72   16.32
   6   0  -6  288.43   17.45
   6   0  -6  290.65   18.99
  -6   0   6  301.33   19.29
  -6   0   6  270.15   17.39
   5   0  -6  235.97   15.05
   5   0  -6  227.51   13.89
  -5   0   6  228.26   13.89
  -5   0   6  217.76   15.29
   4   0  -6  429.72   26.65
   4   0  -6  432.34   24.85
  -4   0   6  400.26   27.04
  -4   0   6  396.45   24.72
   3   0  -6  298.42   19.61
   3   0  -6  364.58   21.03
  -3   0   6  332.98   19.60
  -3   0   6  310.14   21.35
   2   0  -6  358.11   22.88
   2   0  -6  438.92   24.53
   2   0  -6  352.75   26.66
  -2   0   6  354.73   22.84
  -2   0   6  374.23   23.35
  -2   0   6  424.69   24.98
   1   0  -6  379.90   28.41
   1   0  -6  430.70   27.80
   1   0  -6  449.86   23.66
   1   0  -6  353.44   24.48
   1   0  -6  444.44   26.19
  -1   0   6  425.54   26.62
  -1   0   6  391.52   24.40
   0   0  -6  265.10   20.30
   0   0  -6  310.58   20.04
   0   0  -6  276.39   17.43
   0   0  -6  263.27   17.57
   0   0   6  309.71   18.05
   0   0   6  304.44   17.51
   0   0   6  304.31   17.50
   0   0   6  310.18   19.07
  -1   0  -6  491.70   39.65
  -1   0  -6  572.78   34.39
  -1   0  -6  601.57   39.14
  -1   0  -6  535.42   34.28
   1   0   6  643.26   35.38
   1   0   6  594.86   37.16
   1   0   6  582.77   34.41
   1   0   6  617.63   34.21
  -2   0  -6  832.79   51.32
  -2   0  -6  840.55   58.54
  -2   0  -6  793.66   59.40
  -2   0  -6  841.57   51.42
   2   0   6  950.20   55.63
   2   0   6  829.53   51.42
   2   0   6  901.60   52.95
   2   0   6  979.61   51.23
  -3   0  -6  477.32   31.51
  -3   0  -6  473.63   27.54
  -3   0  -6  446.92   27.47
  -3   0  -6  424.71   31.61
   3   0   6  474.20   27.53
   3   0   6  452.60   28.36
   3   0   6  502.22   27.33
   3   0   6  447.88   29.60
  -4   0  -6  349.29   20.95
  -4   0  -6  335.50   23.98
   4   0   6  344.82   21.63
   4   0   6  344.23   20.91
   4   0   6  369.52   22.43
  -5   0  -6  350.24   20.97
   5   0   6  348.14   20.92
   5   0   6  347.26   21.73
  -6   0  -6  255.50   15.81
   6   0   6  262.29   16.51
   6   0   6  263.85   17.03
   6   0   6  256.40   15.75
  -7   0  -6  216.05   13.95
   7   0   6  245.18   14.78
   7   0   6  221.05   15.05
  -8   0  -6  220.34   14.06
   8   0   6  249.24   14.86
   8   0   6  212.82   15.12
   7  -1  -6    1.79    0.52
   7  -1  -6    2.00    0.82
  -7   1   6    1.37    0.49
   6  -1  -6    0.94    0.56
   6  -1  -6    0.66    0.34
  -6   1   6    0.84    0.37
   5  -1  -6    0.51    0.29
   5  -1  -6    0.76    0.48
  -5   1   6    0.92    0.34
  -5   1   6    1.27    0.60
   4  -1  -6    3.01    0.69
   4  -1  -6    3.10    0.59
  -4   1   6    2.43    0.51
  -4   1   6    3.96    0.88
   3  -1  -6    3.87    0.73
   3  -1  -6    4.86    0.69
   3  -1  -6    4.11    0.94
  -3   1   6    5.32    0.71
  -3   1   6    5.85    1.00
   2  -1  -6   52.38    3.80
   2  -1  -6   54.02    3.63
   2  -1  -6   51.66    4.33
  -2   1   6   57.97    4.08
  -2   1   6   53.23    3.52
   1  -1  -6    9.52    1.16
   1  -1  -6    6.50    0.80
   1  -1  -6    8.33    0.87
  -1   1   6    8.76    0.81
  -1   1   6    7.14    0.93
   0  -1  -6    4.79    0.93
   0  -1  -6    5.89    0.81
   0  -1  -6    5.98    0.72
   0   1   6    6.94    0.83
   0   1   6    6.32    0.68
  -1  -1  -6   -0.25    0.18
  -1  -1  -6   -0.12    0.28
  -1  -1  -6   -0.21    0.24
  -1  -1  -6   -0.22    0.20
   1   1   6    0.05    0.25
   1   1   6   -0.09    0.23
   1   1   6   -0.01    0.19
  -2  -1  -6   15.58    1.63
  -2  -1  -6   14.29    1.48
  -2  -1  -6   13.63    1.28
  -2  -1  -6   13.13    1.24
   2   1   6   14.77    1.19
   2   1   6   16.75    1.30
   2   1   6   15.49    1.32
  -3  -1  -6   18.59    1.64
  -3  -1  -6   14.25    1.41
  -3  -1  -6   18.97    1.58
  -3  -1  -6   18.51    1.89
   3   1   6   19.70    1.41
   3   1   6   19.08    1.50
   3   1   6   18.03    1.44
  -4  -1  -6    0.43    0.32
  -4  -1  -6    0.18    0.37
  -4  -1  -6    2.53    0.55
   4   1   6    0.92    0.34
   4   1   6    0.56    0.31
   4   1   6    0.85    0.26
  -5  -1  -6    8.77    0.99
  -5  -1  -6    6.79    0.96
   5   1   6    6.82    0.91
  -6  -1  -6   -0.08    0.25
  -6  -1  -6    0.20    0.35
  -6  -1  -6    1.45    0.47
   6   1   6    0.51    0.40
   6   1   6    0.07    0.32
  -7  -1  -6    5.51    0.92
   7   1   6    5.58    0.89
   7   1   6    4.92    0.97
   7   1   6    4.80    0.96
  -8  -1  -6   -0.25    0.36
  -8  -1  -6    0.21    0.39
   8   1   6    0.46    0.50
   8   1   6    0.38    0.36
   8   1   6   -0.45    0.34
   6  -2  -6  264.54   14.92
  -6   2   6  226.94   14.84
   5  -2  -6  256.39   17.04
   5  -2  -6  263.01   15.46
  -5   2   6  235.38   15.35
  -5   2   6  271.00   17.35
   4  -2  -6  326.03   22.75
   4  -2  -6  329.81   20.82
   4  -2  -6  322.40   19.11
  -4   2   6  310.50   21.14
  -4   2   6  306.20   19.05
   3  -2  -6  377.99   21.91
   3  -2  -6  323.57   20.30
   3  -2  -6  339.46   23.94
  -3   2   6  322.87   20.16
  -3   2   6  332.46   22.23
   2  -2  -6  351.23   24.30
   2  -2  -6  302.29   20.62
   2  -2  -6  397.40   22.16
  -2   2   6  367.41   22.54
  -2   2   6  312.84   20.51
   1  -2  -6  338.74   23.24
   1  -2  -6  320.51   21.03
   1  -2  -6  297.27   19.69
  -1   2   6  356.80   21.45
  -1   2   6  339.39   19.58
   0  -2  -6  563.63   42.05
   0  -2  -6  547.94   38.45
   0  -2  -6  587.29   36.08
   0  -2  -6  664.38   41.05
   0   2   6  650.50   39.10
   0   2   6  646.67   35.92
  -1  -2  -6  587.09   39.19
  -1  -2  -6  576.08   40.07
   1   2   6  593.98   34.19
   1   2   6  564.66   37.14
  -2  -2  -6  378.08   23.14
  -2  -2  -6  382.28   26.97
  -2  -2  -6  387.38   23.09
  -2  -2  -6  390.05   26.48
   2   2   6  396.55   22.46
   2   2   6  387.14   22.99
   2   2   6  409.99   23.12
   2   2   6  374.16   24.93
  -3  -2  -6  410.42   24.61
  -3  -2  -6  428.44   28.23
  -3  -2  -6  395.10   24.59
  -3  -2  -6  404.57   28.52
   3   2   6  382.52   24.55
   3   2   6  420.18   23.94
   3   2   6  433.83   24.44
   3   2   6  427.07   26.47
  -4  -2  -6  433.33   26.99
  -4  -2  -6  454.48   27.01
  -4  -2  -6  484.95   31.06
  -4  -2  -6  430.86   31.31
   4   2   6  472.24   26.81
   4   2   6  443.11   26.97
   4   2   6  436.08   26.35
   4   2   6  471.17   29.01
  -5  -2  -6  432.12   25.15
  -5  -2  -6  406.20   29.09
   5   2   6  423.73   25.11
  -6  -2  -6  380.92   22.02
  -6  -2  -6  352.89   25.41
   6   2   6  360.58   23.48
   6   2   6  382.69   22.68
   6   2   6  352.59   21.96
  -7  -2  -6  249.93   15.42
  -7  -2  -6  242.99   17.72
   7   2   6  253.62   15.85
   7   2   6  248.20   15.36
   7   2   6  263.79   16.48
  -8  -2  -6  255.30   16.50
   8   2   6  300.31   17.09
   8   2   6  256.06   17.61
   8   2   6  265.76   16.45
   5  -3  -6    2.60    0.82
   5  -3  -6    2.08    0.46
  -5   3   6    2.18    0.44
  -5   3   6    3.02    0.96
   4  -3  -6    0.91    0.59
   4  -3  -6    2.19    0.68
   4  -3  -6    1.94    0.42
  -4   3   6    2.76    0.81
  -4   3   6    1.16    0.34
   3  -3  -6    0.20    0.25
   3  -3  -6    0.21    0.37
   3  -3  -6    0.17    0.34
  -3   3   6    0.49    0.38
  -3   3   6    0.24    0.21
   2  -3  -6    0.90    0.30
   2  -3  -6    0.17    0.36
   2  -3  -6    0.67    0.33
  -2   3   6    0.45    0.19
  -2   3   6    0.64    0.35
   1  -3  -6    1.68    0.36
   1  -3  -6    1.81    0.41
   1  -3  -6    2.69    0.76
  -1   3   6    1.43    0.45
  -1   3   6    1.66    0.32
   0  -3  -6   10.53    1.40
   0  -3  -6   11.20    0.96
   0  -3  -6    9.91    0.94
   0   3   6   12.69    0.93
   0   3   6   11.27    0.71
   0   3   6   11.30    1.16
  -1  -3  -6   15.85    1.81
  -1  -3  -6   16.05    1.29
  -1  -3  -6   14.53    1.19
  -1  -3  -6   18.75    1.64
   1   3   6   17.20    1.06
  -2  -3  -6   -0.13    0.20
  -2  -3  -6   -0.02    0.14
   2   3   6   -0.02    0.11
  -3  -3  -6   39.74    2.55
  -3  -3  -6   32.76    2.93
  -3  -3  -6   31.84    2.41
  -3  -3  -6   31.72    2.96
   3   3   6   35.45    2.41
   3   3   6   33.99    2.23
  -4  -3  -6    1.92    0.68
  -4  -3  -6    1.11    0.36
  -4  -3  -6    3.36    0.78
  -4  -3  -6    2.02    0.52
   4   3   6    1.65    0.37
   4   3   6    2.22    0.48
   4   3   6    1.71    0.37
   4   3   6    1.95    0.41
  -5  -3  -6    4.28    0.87
  -5  -3  -6    1.94    0.52
  -5  -3  -6    1.28    0.45
  -5  -3  -6    2.04    0.79
   5   3   6    2.84    0.52
   5   3   6    2.75    0.42
   5   3   6    2.53    0.53
   5   3   6    2.79    0.50
  -6  -3  -6    2.44    0.68
  -6  -3  -6    1.64    0.53
  -6  -3  -6    0.77    0.58
   6   3   6    1.44    0.46
   6   3   6    1.64    0.50
   6   3   6    1.61    0.49
  -7  -3  -6   12.64    1.39
  -7  -3  -6   13.54    1.60
   7   3   6   11.99    1.38
   7   3   6   14.80    1.41
   7   3   6   13.57    1.42
   7   3   6   13.00    1.40
  -8  -3  -6    0.57    0.47
  -8  -3  -6   -0.22    0.34
  -8  -3  -6    1.05    0.58
   8   3   6    0.62    0.44
   8   3   6    0.09    0.38
   8   3   6    0.16    0.39
  -9  -3  -6    2.01    0.70
  -9  -3  -6   -0.11    0.46
   9   3   6    1.80    0.66
   9   3   6    1.50    0.58
   5  -4  -6  218.15   14.68
   5  -4  -6  223.76   12.87
  -5   4   6  234.47   14.89
  -5   4   6  184.23   12.74
   4  -4  -6  273.41   14.29
   4  -4  -6  256.33   17.33
   4  -4  -6  209.26   15.75
  -4   4   6  197.24   14.07
  -4   4   6  252.02   16.07
   3  -4  -6  186.65   12.95
   3  -4  -6  196.64   14.23
   3  -4  -6  222.78   11.84
  -3   4   6  171.21   11.64
  -3   4   6  194.88   13.14
   2  -4  -6  367.17   25.69
   2  -4  -6  356.33   23.32
   2  -4  -6  402.74   21.61
  -2   4   6  339.93   21.43
  -2   4   6  347.70   23.71
   1  -4  -6  379.99   24.15
   1  -4  -6  401.07   26.78
   1  -4  -6  374.88   22.44
  -1   4   6  361.79   22.32
   0  -4  -6  302.07   17.91
   0  -4  -6  293.72   21.33
   0   4   6  316.14   17.79
   0   4   6  290.20   17.34
  -1  -4  -6  345.65   23.59
  -1  -4  -6  348.11   24.57
  -1  -4  -6  340.21   20.67
   1   4   6  349.79   20.04
   1   4   6  352.95   20.53
  -2  -4  -6  369.58   23.18
  -2  -4  -6  384.11   27.35
  -2  -4  -6  383.42   26.53
   2   4   6  409.25   22.51
   2   4   6  399.81   23.02
  -3  -4  -6  546.51   38.33
  -3  -4  -6  510.68   37.43
  -3  -4  -6  565.21   32.82
   3   4   6  563.99   31.94
   3   4   6  577.10   32.60
  -4  -4  -6  493.71   37.17
  -4  -4  -6  576.87   32.56
  -4  -4  -6  520.86   37.99
   4   4   6  604.01   31.77
   4   4   6  539.05   32.29
  -5  -4  -6  283.55   16.86
  -5  -4  -6  266.11   19.71
  -5  -4  -6  282.61   19.50
   5   4   6  269.89   16.62
   5   4   6  288.23   16.40
  -6  -4  -6  365.70   20.65
  -6  -4  -6  329.64   24.02
  -6  -4  -6  337.35   23.90
   6   4   6  337.56   20.06
   6   4   6  336.18   21.76
  -7  -4  -6  405.26   23.07
  -7  -4  -6  387.93   26.83
   7   4   6  364.47   24.37
   7   4   6  372.65   22.45
   7   4   6  377.74   22.98
  -8  -4  -6  201.46   15.13
  -8  -4  -6  217.92   13.10
   8   4   6  199.03   12.71
   8   4   6  216.93   13.00
  -9  -4  -6  115.27    9.36
   9   4   6  132.76    8.23
   9   4   6  120.66    8.00
   4  -5  -6    5.12    1.23
   4  -5  -6    4.85    1.26
   4  -5  -6    7.53    0.76
  -4   5   6    6.51    1.30
  -4   5   6    5.09    0.59
   3  -5  -6    6.60    0.75
   3  -5  -6    6.08    1.19
   3  -5  -6    8.03    1.44
  -3   5   6    4.73    0.57
  -3   5   6    5.22    1.10
   2  -5  -6    8.72    1.57
   2  -5  -6    8.65    0.81
   1  -5  -6    0.38    0.50
   1  -5  -6    0.42    0.22
  -1   5   6    0.19    0.15
   0  -5  -6    9.68    1.60
   0  -5  -6    8.64    0.83
   0   5   6    9.22    0.77
  -1  -5  -6   10.30    1.72
  -1  -5  -6   10.89    0.92
   1   5   6    9.02    0.73
   1   5   6    9.00    0.80
  -2  -5  -6    4.09    0.61
  -2  -5  -6    4.97    1.17
  -2  -5  -6    3.66    0.71
   2   5   6    3.81    0.52
   2   5   6    4.40    0.46
  -3  -5  -6   11.47    1.77
  -3  -5  -6   11.63    1.11
  -3  -5  -6   10.51    1.35
   3   5   6   11.76    0.94
   3   5   6   11.94    1.00
  -4  -5  -6    0.81    0.34
  -4  -5  -6    0.22    0.39
  -4  -5  -6    1.77    0.72
   4   5   6    0.66    0.24
   4   5   6    0.70    0.27
  -5  -5  -6    5.83    0.87
  -5  -5  -6    8.17    1.50
  -5  -5  -6    5.40    1.21
   5   5   6    7.01    0.75
   5   5   6    5.76    0.68
  -6  -5  -6    2.61    0.98
  -6  -5  -6    3.32    0.68
  -6  -5  -6    5.62    1.20
   6   5   6    4.48    0.74
   6   5   6    3.20    0.57
  -7  -5  -6    2.55    0.88
  -7  -5  -6    1.44    0.93
   7   5   6    1.36    0.47
  -8  -5  -6    8.15    1.57
  -8  -5  -6    6.47    1.71
   8   5   6    7.82    1.11
  -9  -5  -6    5.08    1.28
  -9  -5  -6    3.52    1.44
   9   5   6    3.92    0.90
   3  -6  -6  272.19   14.84
   3  -6  -6  241.04   17.86
  -3   6   6  240.97   16.70
  -3   6   6  230.33   14.64
   2  -6  -6  256.19   14.69
   2  -6  -6  240.69   17.85
  -2   6   6  238.78   14.56
   1  -6  -6  268.49   15.99
   1  -6  -6  269.01   19.42
  -1   6   6  265.82   15.87
   0  -6  -6  266.66   19.50
   0  -6  -6  273.34   16.14
   0   6   6  269.10   16.02
  -1  -6  -6  262.62   15.79
  -1  -6  -6  259.22   19.13
   1   6   6  264.80   15.35
   1   6   6  265.45   15.67
  -2  -6  -6  289.92   17.47
   2   6   6  290.76   17.33
   2   6   6  293.03   16.97
  -3  -6  -6  293.83   17.15
  -3  -6  -6  297.60   20.55
  -3  -6  -6  272.49   19.50
   3   6   6  289.21   16.98
   3   6   6  272.17   16.60
  -4  -6  -6  251.33   15.49
  -4  -6  -6  237.96   17.72
  -4  -6  -6  263.27   18.52
   4   6   6  268.56   15.02
   4   6   6  255.47   15.30
  -5  -6  -6  379.33   26.49
  -5  -6  -6  347.84   25.52
  -5  -6  -6  364.24   22.32
   5   6   6  388.16   22.11
   5   6   6  374.52   21.67
  -6  -6  -6  338.59   23.24
  -6  -6  -6  321.46   22.54
  -6  -6  -6  311.71   19.49
   6   6   6  323.92   19.00
   6   6   6  316.04   19.24
  -7  -6  -6  167.39   12.56
  -7  -6  -6  176.21   12.84
   7   6   6  163.71   10.32
  -8  -6  -6  221.24   14.78
  -8  -6  -6  193.54   14.67
   8   6   6  179.19   11.92
  -9  -6  -6  285.38   18.05
  -9  -6  -6  227.97   17.62
   9   6   6  215.97   14.44
   2  -7  -6    1.90    0.82
   2  -7  -6    1.68    0.39
  -2   7   6    1.85    0.34
   1  -7  -6    1.28    0.35
   1  -7  -6    0.60    0.68
  -1   7   6    1.26    0.30
   0  -7  -6    0.45    0.25
   0  -7  -6   -0.21    0.48
   0   7   6    0.50    0.23
  -1  -7  -6    0.72    0.70
  -1  -7  -6    1.11    0.34
   1   7   6    0.76    0.28
  -2  -7  -6    0.71    0.30
  -2  -7  -6    0.79    0.75
   2   7   6    1.05    0.30
   2   7   6    0.84    0.29
  -3  -7  -6    1.33    0.40
  -3  -7  -6    1.83    0.96
   3   7   6    1.07    0.33
   3   7   6    1.41    0.36
  -4  -7  -6    1.32    0.43
  -4  -7  -6    1.22    0.78
  -4  -7  -6    1.31    0.51
   4   7   6    0.98    0.34
   4   7   6    1.44    0.38
  -5  -7  -6    3.08    1.06
  -5  -7  -6    1.99    0.57
  -5  -7  -6    2.87    0.81
   5   7   6    1.86    0.48
   5   7   6    2.43    0.51
  -6  -7  -6    7.20    1.07
  -6  -7  -6    7.29    1.72
  -6  -7  -6    6.25    1.27
   6   7   6    6.05    0.86
   6   7   6    7.72    0.86
  -7  -7  -6    1.12    0.81
  -7  -7  -6    1.60    0.96
   7   7   6    1.56    0.52
  -8  -7  -6    4.53    1.38
  -8  -7  -6    3.45    1.37
   8   7   6    3.50    0.78
   0  -8  -6  170.01   10.50
   0  -8  -6  173.29   13.10
   0   8   6  172.68   10.40
  -1  -8  -6  202.38   12.77
  -1  -8  -6  217.30   15.83
   1   8   6  213.75   12.69
  -2  -8  -6  157.02   12.65
  -2  -8  -6  161.30   10.04
   2   8   6  168.56    9.95
  -3  -8  -6  204.16   12.37
  -3  -8  -6  196.14   15.35
   3   8   6  204.40   12.01
   3   8   6  200.16   12.22
  -4  -8  -6  218.62   13.46
  -4  -8  -6  219.12   16.50
   4   8   6  208.22   13.02
   4   8   6  231.32   13.32
  -5  -8  -6  208.64   15.84
  -5  -8  -6  205.60   12.98
   5   8   6  213.19   12.80
   5   8   6  212.03   12.58
  -6  -8  -6  170.11   11.07
  -6  -8  -6  176.93   13.67
   6   8   6  177.90   10.85
   6   8   6  179.44   10.66
  -7  -8  -6  172.60   12.81
  -7  -8  -6  144.92   10.06
   7   8   6  162.06    9.77
   7   8   6  159.16    9.86
  -2  -9  -6   -0.18    0.26
  -2  -9  -6    0.99    0.98
   2   9   6    0.19    0.27
  -3  -9  -6    0.00    0.83
  -3  -9  -6    0.34    0.34
   3   9   6    0.37    0.30
  -4  -9  -6    6.66    1.00
  -4  -9  -6    7.79    1.97
   4   9   6    7.39    0.96
   4   9   6    6.27    0.94
  -5  -9  -6   -0.55    0.61
  -5  -9  -6    0.06    0.35
   5   9   6    0.15    0.31
   5   9   6    0.09    0.30
  -6  -9  -6    4.26    1.51
  -6  -9  -6    2.32    0.69
   6   9   6    3.53    0.70
   6   9   6    3.81    0.72
   5   7  -7  195.86   11.80
   5   7  -7  182.19   12.88
  -5  -7   7  185.87   13.89
   4   7  -7  126.80    8.32
   4   7  -7  133.48    9.22
  -4  -7   7  124.67   10.01
   3   7  -7  170.10   10.72
   3   7  -7  177.49   10.68
  -3  -7   7  160.47   12.43
  -3  -7   7  164.52   10.85
  -3  -7   7  164.97   11.12
   2   7  -7  221.87   13.08
   2   7  -7  219.50   13.20
  -2  -7   7  197.66   13.68
  -2  -7   7  194.54   14.90
  -2  -7   7  207.04   13.34
   1   7  -7  185.40   10.92
   1   7  -7  186.01   10.94
  -1  -7   7  153.58   12.20
  -1  -7   7  166.03   11.48
  -1  -7   7  153.46   11.02
   0   7  -7  153.88   10.26
   0   7  -7  168.53   10.25
   0  -7   7  149.32   10.43
   0  -7   7  155.04   10.90
   6   6  -7   -0.07    0.40
   6   6  -7    0.09    0.38
  -6  -6   7    0.17    0.65
   5   6  -7    0.43    0.44
   5   6  -7    1.82    0.70
  -5  -6   7    0.55    0.74
   4   6  -7    0.65    0.40
   4   6  -7    0.72    0.50
  -4  -6   7    0.56    0.70
   3   6  -7    0.13    0.32
   3   6  -7    0.19    0.35
  -3  -6   7   -0.13    0.52
  -3  -6   7    0.19    0.33
  -3  -6   7   -0.04    0.34
   2   6  -7    2.41    0.66
   2   6  -7    3.88    0.83
  -2  -6   7    3.28    1.13
  -2  -6   7    2.88    0.77
  -2  -6   7    2.25    0.71
   1   6  -7    0.07    0.33
   1   6  -7    0.47    0.42
  -1  -6   7    0.64    0.51
  -1  -6   7   -0.21    0.43
  -1  -6   7    0.43    0.48
   0   6  -7    0.60    0.49
   0   6  -7    0.89    0.51
   0  -6   7    0.92    0.54
   0  -6   7    0.88    0.65
   0  -6   7    0.36    0.62
  -1   6  -7    0.71    0.50
  -1   6  -7    0.45    0.49
   1  -6   7    0.51    0.59
   1  -6   7    0.17    0.41
  -2   6  -7    5.09    1.00
   2  -6   7    4.41    1.26
   2  -6   7    4.56    1.02
   7   5  -7  242.82   14.33
  -7  -5   7  221.80   16.30
   6   5  -7  199.09   14.43
   6   5  -7  225.72   13.23
  -6  -5   7  224.10   15.37
   5   5  -7  235.57   14.14
   5   5  -7  225.36   15.53
  -5  -5   7  241.49   16.50
   4   5  -7  286.08   19.70
   4   5  -7  311.55   17.93
  -4  -5   7  305.01   20.71
   3   5  -7  319.40   17.78
   3   5  -7  294.02   18.05
  -3  -5   7  283.51   20.38
  -3  -5   7  303.84   18.59
  -3  -5   7  286.81   18.14
   2   5  -7  199.04   11.76
   2   5  -7  196.99   11.97
  -2  -5   7  196.76   12.42
  -2  -5   7  183.02   12.09
  -2  -5   7  187.44   13.62
   1   5  -7  214.71   12.87
   1   5  -7  218.76   13.08
  -1  -5   7  193.16   14.59
  -1  -5   7  210.64   13.27
  -1  -5   7  213.27   13.65
   0   5  -7  262.31   15.81
   0   5  -7  265.45   16.06
   0  -5   7  262.06   16.23
   0  -5   7  257.35   17.73
   0  -5   7  253.38   16.79
  -1   5  -7  240.77   14.31
   1  -5   7  228.35   14.44
   1  -5   7  239.66   15.76
   1  -5   7  207.86   15.03
  -2   5  -7  220.73   13.19
   2  -5   7  212.28   13.39
   2  -5   7  196.84   14.09
  -3   5  -7  206.48   12.01
   3  -5   7  203.35   12.15
   3  -5   7  153.24   12.69
   7   4  -7    1.73    0.72
   7   4  -7    0.74    0.57
  -7  -4   7    2.97    1.08
  -7  -4   7    2.04    0.76
   6   4  -7    1.25    0.59
   6   4  -7    0.98    0.50
   6   4  -7    1.90    0.58
  -6  -4   7    1.38    0.63
  -6  -4   7    2.36    0.92
   5   4  -7    4.53    0.82
   5   4  -7    4.39    0.95
   5   4  -7    3.87    0.87
  -5  -4   7    5.43    1.33
  -5  -4   7    4.67    1.01
   4   4  -7    0.27    0.32
   4   4  -7   -0.11    0.26
  -4  -4   7    0.78    0.68
   3   4  -7    0.84    0.37
   3   4  -7    0.58    0.32
  -3  -4   7    0.53    0.33
  -3  -4   7    0.22    0.27
  -3  -4   7    2.93    0.98
   2   4  -7    1.84    0.46
   2   4  -7    1.33    0.42
  -2  -4   7    2.79    0.91
  -2  -4   7    1.52    0.49
  -2  -4   7    2.34    0.61
   1   4  -7    7.55    1.05
   1   4  -7    9.18    1.02
  -1  -4   7    8.78    1.22
  -1  -4   7   10.16    1.68
  -1  -4   7    7.76    1.22
   0   4  -7    2.62    0.66
   0   4  -7    3.22    0.70
   0   4  -7    3.68    0.75
   0  -4   7    2.39    0.64
   0  -4   7    3.79    0.99
   0  -4   7    2.48    0.76
  -1   4  -7    2.10    0.63
  -1   4  -7    1.60    0.53
   1  -4   7    2.03    0.73
   1  -4   7    2.50    0.79
   1  -4   7    2.38    0.68
  -2   4  -7    1.12    0.50
  -2   4  -7    2.20    0.69
   2  -4   7    1.38    0.58
   2  -4   7    0.85    0.62
   2  -4   7    1.75    0.69
  -3   4  -7    1.27    0.57
  -3   4  -7    2.21    0.71
   3  -4   7    1.74    0.84
   3  -4   7    1.37    0.58
  -4   4  -7    1.15    0.71
  -4   4  -7    0.81    0.53
   4  -4   7    0.95    0.49
   4  -4   7    1.40    0.78
   5  -4   7    1.43    0.56
   7   3  -7  230.90   14.21
   7   3  -7  218.83   15.10
  -7  -3   7  222.58   15.57
  -7  -3   7  224.74   14.21
   6   3  -7  206.45   12.75
   6   3  -7  192.73   13.45
  -6  -3   7  209.51   12.74
  -6  -3   7  192.16   13.98
   5   3  -7  417.62   22.12
   5   3  -7  358.36   22.86
   5   3  -7  374.18   24.33
  -5  -3   7  353.01   25.01
  -5  -3   7  368.74   22.84
   4   3  -7  460.87   24.43
   4   3  -7  424.38   25.24
   4   3  -7  403.73   26.84
  -4  -3   7  365.11   27.50
  -4  -3   7  426.00   25.26
   3   3  -7  357.33   23.69
   3   3  -7  374.49   22.26
   3   3  -7  368.43   21.46
  -3  -3   7  377.24   22.53
  -3  -3   7  357.64   22.25
   2   3  -7  344.65   19.81
   2   3  -7  382.71   20.59
   2   3  -7  330.73   20.24
  -2  -3   7  287.09   22.39
  -2  -3   7  373.65   21.03
  -2  -3   7  311.59   20.33
  -2  -3   7  339.10   20.57
   1   3  -7  350.65   20.46
   1   3  -7  352.52   23.71
   1   3  -7  352.19   20.95
  -1  -3   7  368.95   21.77
  -1  -3   7  338.93   21.08
  -1  -3   7  330.64   23.12
   0   3  -7  373.03   23.80
   0   3  -7  337.12   20.93
   0  -3   7  355.27   21.82
   0  -3   7  332.90   22.96
   0  -3   7  338.15   21.04
  -1   3  -7  326.32   20.13
  -1   3  -7  356.96   22.89
   1  -3   7  316.75   21.04
   1  -3   7  337.71   22.06
   1  -3   7  327.95   20.36
  -2   3  -7  288.60   19.68
  -2   3  -7  274.31   17.36
   2  -3   7  295.50   18.87
   2  -3   7  265.20   18.20
   2  -3   7  297.76   17.50
  -3   3  -7  286.96   17.61
  -3   3  -7  313.34   20.13
   3  -3   7  240.94   18.44
   3  -3   7  291.90   17.61
   3  -3   7  308.93   19.11
  -4   3  -7  215.43   16.44
  -4   3  -7  257.03   14.40
   4  -3   7  208.73   15.20
   4  -3   7  247.30   14.36
  -5   3  -7  253.79   14.75
   5  -3   7  231.85   14.66
   5  -3   7  227.54   15.72
   7   2  -7    0.63    0.49
   7   2  -7    0.36    0.43
  -7  -2   7    0.42    0.43
  -7  -2   7    2.87    0.93
   6   2  -7    0.20    0.38
   6   2  -7   -0.10    0.34
  -6  -2   7   -0.07    0.28
  -6  -2   7    0.04    0.43
   5   2  -7    0.84    0.48
   5   2  -7    1.83    0.59
  -5  -2   7    1.90    0.62
  -5  -2   7    1.64    0.70
   4   2  -7    1.10    0.33
   4   2  -7    0.34    0.30
   4   2  -7   -0.10    0.22
  -4  -2   7    0.01    0.29
  -4  -2   7    1.40    0.62
   3   2  -7    0.50    0.33
   3   2  -7    0.65    0.37
   3   2  -7    0.26    0.21
  -3  -2   7    0.67    0.27
  -3  -2   7    0.17    0.34
  -3  -2   7    0.06    0.26
   2   2  -7   35.83    2.50
   2   2  -7   34.00    2.35
   2   2  -7   40.22    2.79
  -2  -2   7   41.72    2.82
  -2  -2   7   32.56    2.50
  -2  -2   7   31.89    3.00
  -2  -2   7   38.42    2.70
   1   2  -7    0.22    0.25
   1   2  -7    0.36    0.28
   1   2  -7    0.89    0.30
   1   2  -7    0.56    0.23
  -1  -2   7    0.50    0.30
  -1  -2   7    0.98    0.44
  -1  -2   7    0.75    0.39
  -1  -2   7    0.41    0.30
   0   2  -7    0.43    0.28
   0   2  -7    0.25    0.30
   0   2  -7    0.32    0.27
   0  -2   7    0.74    0.35
   0  -2   7    0.37    0.28
   0  -2   7    0.30    0.29
   0  -2   7    0.42    0.33
  -1   2  -7   16.75    1.62
  -1   2  -7   19.44    1.90
   1  -2   7   17.71    1.84
   1  -2   7   20.48    1.90
   1  -2   7   20.25    1.78
  -2   2  -7    0.49    0.38
  -2   2  -7    0.15    0.37
   2  -2   7    0.21    0.35
   2  -2   7   -0.05    0.28
   2  -2   7    0.44    0.32
  -3   2  -7    0.58    0.39
  -3   2  -7    1.26    0.57
   3  -2   7   -0.28    0.33
   3  -2   7    0.98    0.44
   3  -2   7    0.46    0.33
  -4   2  -7    0.08    0.44
  -4   2  -7    0.87    0.46
   4  -2   7    0.78    0.42
   4  -2   7    0.00    0.43
  -5   2  -7    1.01    0.52
  -5   2  -7    0.06    0.44
   5  -2   7    0.86    0.66
   5  -2   7    0.83    0.43
  -6   2  -7    0.37    0.52
  -6   2  -7    0.78    0.56
   6  -2   7    0.91    0.46
   6  -2   7    1.17    0.68
   7   1  -7  251.74   15.29
   7   1  -7  247.97   16.55
  -7  -1   7  235.52   15.21
   6   1  -7  268.72   15.52
   6   1  -7  250.91   16.63
  -6  -1   7  235.37   16.91
  -6  -1   7  244.68   15.45
   5   1  -7  334.39   21.95
   5   1  -7  339.03   20.46
  -5  -1   7  311.06   22.33
  -5  -1   7  361.98   20.53
   4   1  -7  320.48   19.79
   4   1  -7  305.41   18.51
  -4  -1   7  281.73   20.19
  -4  -1   7  307.73   18.49
   3   1  -7  295.95   18.83
   3   1  -7  278.29   17.66
  -3  -1   7  301.33   17.66
  -3  -1   7  286.24   19.28
   2   1  -7  326.48   22.00
   2   1  -7  393.94   23.51
   2   1  -7  414.98   21.19
  -2  -1   7  351.54   22.41
  -2  -1   7  325.34   21.91
  -2  -1   7  378.02   23.99
   1   1  -7  416.53   24.93
   1   1  -7  430.57   24.31
   1   1  -7  446.13   28.51
   1   1  -7  408.08   25.21
  -1  -1   7  427.59   25.06
  -1  -1   7  421.42   25.82
  -1  -1   7  463.00   27.46
  -1  -1   7  354.42   25.08
   0   1  -7  322.32   23.67
   0   1  -7  324.36   20.49
   0   1  -7  341.96   20.60
   0   1  -7  366.14   23.50
   0  -1   7  348.01   21.21
   0  -1   7  394.01   22.48
   0  -1   7  309.44   20.53
  -1   1  -7  465.10   29.23
  -1   1  -7  390.64   29.33
  -1   1  -7  430.45   25.56
  -1   1  -7  401.86   25.56
   1  -1   7  426.60   25.73
   1  -1   7  447.39   27.75
   1  -1   7  442.35   26.44
   1  -1   7  428.62   25.53
  -2   1  -7  507.59   30.29
  -2   1  -7  495.96   34.50
   2  -1   7  519.11   31.30
   2  -1   7  509.92   32.73
  -3   1  -7  393.73   26.64
  -3   1  -7  386.27   23.29
   3  -1   7  404.80   25.16
   3  -1   7  383.34   23.31
   3  -1   7  372.87   24.14
  -4   1  -7  208.83   17.53
  -4   1  -7  268.90   15.41
   4  -1   7  269.89   15.36
   4  -1   7  257.85   16.08
  -5   1  -7  313.79   19.36
   5  -1   7  311.99   19.28
   5  -1   7  331.80   20.30
  -6   1  -7  240.65   15.50
   6  -1   7  246.41   15.40
   6  -1   7  270.43   16.42
  -7   1  -7  264.48   16.51
   7  -1   7  291.28   17.44
   7  -1   7  249.41   16.34
   7   0  -7    0.03    0.47
   7   0  -7    0.13    0.33
  -7   0   7    0.37    0.37
   6   0  -7    0.64    0.41
   6   0  -7    0.80    0.56
  -6   0   7    0.71    0.62
  -6   0   7    0.34    0.37
   5   0  -7    2.49    0.60
   5   0  -7    2.61    0.70
  -5   0   7    1.97    0.56
  -5   0   7    1.90    0.72
   4   0  -7   24.05    1.99
   4   0  -7   21.15    2.08
  -4   0   7   25.27    2.29
  -4   0   7   22.60    1.93
   3   0  -7    2.55    0.58
   3   0  -7    1.83    0.51
  -3   0   7    2.00    0.59
  -3   0   7    1.42    0.45
   2   0  -7    3.33    0.63
   2   0  -7    2.92    0.74
   2   0  -7    2.15    0.51
  -2   0   7    3.42    0.63
  -2   0   7    2.98    0.67
   1   0  -7    6.02    0.84
   1   0  -7    6.93    0.82
   1   0  -7    6.22    1.00
   1   0  -7    6.71    0.86
  -1   0   7    5.38    0.76
  -1   0   7    6.84    0.76
  -1   0   7    5.81    0.94
   0   0  -7   38.49    2.58
   0   0  -7   35.44    2.28
   0   0  -7   39.47    2.72
   0   0  -7   36.90    3.07
   0   0  -7   34.62    3.00
   0   0   7   39.92    2.61
   0   0   7   37.45    2.87
   0   0   7   36.53    2.56
   0   0   7   38.63    2.70
  -1   0  -7    8.42    0.98
  -1   0  -7    9.16    1.06
  -1   0  -7    9.67    1.01
  -1   0  -7    9.96    1.25
   1   0   7   10.78    1.07
   1   0   7    9.73    1.04
   1   0   7    9.96    0.92
   1   0   7   10.74    1.08
  -2   0  -7    3.26    0.57
  -2   0  -7    2.55    0.59
  -2   0  -7    2.33    0.52
  -2   0  -7    2.30    0.67
   2   0   7    2.32    0.52
   2   0   7    2.93    0.51
   2   0   7    2.72    0.59
   2   0   7    3.35    0.61
  -3   0  -7    0.99    0.37
  -3   0  -7    0.64    0.39
  -3   0  -7    1.55    0.59
   3   0   7    0.44    0.34
   3   0   7    0.28    0.24
   3   0   7    0.65    0.32
  -4   0  -7    4.67    1.05
  -4   0  -7    6.30    0.96
   4   0   7    5.44    0.93
   4   0   7    5.76    0.72
   4   0   7    5.91    0.85
  -5   0  -7    9.26    1.26
   5   0   7   12.84    1.40
   5   0   7    9.43    1.10
  -6   0  -7   -0.03    0.36
  -6   0  -7    0.97    0.51
   6   0   7    0.39    0.46
   6   0   7    0.27    0.35
  -7   0  -7    1.61    0.62
  -7   0  -7    0.37    0.50
   7   0   7    1.86    0.77
   7   0   7    1.22    0.48
   6  -1  -7  236.97   14.51
   6  -1  -7  242.14   16.05
  -6   1   7  260.74   16.26
  -6   1   7  210.65   14.45
   5  -1  -7  204.03   12.68
   5  -1  -7  216.29   13.88
  -5   1   7  221.12   14.12
  -5   1   7  184.49   12.58
   4  -1  -7  183.30   11.98
   4  -1  -7  193.67   11.20
  -4   1   7  159.39   11.00
  -4   1   7  181.21   12.26
   3  -1  -7  420.08   26.56
   3  -1  -7  438.08   31.19
   3  -1  -7  470.63   28.53
  -3   1   7  449.37   29.00
  -3   1   7  445.48   26.54
   2  -1  -7  453.42   31.98
   2  -1  -7  516.59   37.31
   2  -1  -7  618.32   34.27
  -2   1   7  550.35   31.88
  -2   1   7  551.98   34.83
   1  -1  -7  298.02   20.81
   1  -1  -7  348.98   24.32
   1  -1  -7  350.05   22.19
  -1   1   7  365.83   22.66
  -1   1   7  373.33   20.71
   0  -1  -7  422.73   28.16
   0  -1  -7  435.06   32.74
   0  -1  -7  508.57   32.09
   0   1   7  509.09   28.05
   0   1   7  490.86   30.56
  -1  -1  -7  472.80   28.33
  -1  -1  -7  430.63   32.95
  -1  -1  -7  454.05   28.47
  -1  -1  -7  473.07   32.50
   1   1   7  528.43   28.35
   1   1   7  540.83   30.86
   1   1   7  448.49   28.41
  -2  -1  -7  356.68   21.65
  -2  -1  -7  347.24   25.06
  -2  -1  -7  367.31   24.83
  -2  -1  -7  327.03   21.64
   2   1   7  370.28   21.65
   2   1   7  391.14   21.55
   2   1   7  373.46   23.37
  -3  -1  -7  458.50   28.15
  -3  -1  -7  447.33   32.19
  -3  -1  -7  486.76   28.17
  -3  -1  -7  462.45   32.53
   3   1   7  487.23   30.30
   3   1   7  494.07   27.99
   3   1   7  469.13   28.15
  -4  -1  -7  331.15   25.08
  -4  -1  -7  392.20   25.17
  -4  -1  -7  373.50   21.91
   4   1   7  363.14   23.38
   4   1   7  351.77   21.81
   4   1   7  375.43   22.52
  -5  -1  -7  333.10   20.32
  -5  -1  -7  332.51   23.32
   5   1   7  337.64   20.91
   5   1   7  341.70   20.28
  -6  -1  -7  319.57   19.41
   6   1   7  334.48   20.02
   6   1   7  305.60   19.31
  -7  -1  -7  230.88   13.87
   7   1   7  215.81   13.74
   7   1   7  224.11   14.32
   8   1   7  180.57   11.91
   8   1   7  203.84   12.61
   6  -2  -7    1.21    0.70
   6  -2  -7    1.82    0.50
  -6   2   7    1.63    0.48
   5  -2  -7    0.73    0.38
   5  -2  -7    0.32    0.48
  -5   2   7    1.02    0.62
  -5   2   7    0.22    0.26
   4  -2  -7    2.70    0.77
   4  -2  -7    4.27    0.70
   4  -2  -7    2.54    0.89
  -4   2   7    3.60    0.96
  -4   2   7    2.26    0.54
   3  -2  -7   31.76    3.02
   3  -2  -7   27.69    2.44
   3  -2  -7   32.04    2.31
  -3   2   7   30.27    2.67
  -3   2   7   26.87    2.14
   2  -2  -7    1.69    0.48
   2  -2  -7    2.87    0.81
   2  -2  -7    2.09    0.51
  -2   2   7    1.86    0.42
  -2   2   7    2.71    0.67
   1  -2  -7    2.99    0.85
   1  -2  -7    2.79    0.54
   1  -2  -7    3.08    0.58
  -1   2   7    3.94    0.58
  -1   2   7    3.84    0.74
   0  -2  -7    1.84    0.45
   0  -2  -7    2.24    0.54
   0  -2  -7    1.93    0.41
   0  -2  -7    2.26    0.69
   0   2   7    2.64    0.57
   0   2   7    2.48    0.43
  -1  -2  -7   43.06    3.79
  -1  -2  -7   51.56    3.83
  -1  -2  -7   42.31    3.14
   1   2   7   47.91    3.04
   1   2   7   46.58    3.38
  -2  -2  -7   10.83    1.18
  -2  -2  -7   13.26    1.56
  -2  -2  -7   14.18    1.27
  -2  -2  -7   13.43    1.57
   2   2   7   13.51    1.11
   2   2   7   15.52    1.30
   2   2   7   15.02    1.22
  -3  -2  -7    3.19    0.72
  -3  -2  -7    1.81    0.65
  -3  -2  -7    2.28    0.52
  -3  -2  -7    1.53    0.43
   3   2   7    2.55    0.45
   3   2   7    2.23    0.49
   3   2   7    2.10    0.46
  -4  -2  -7   10.96    1.25
  -4  -2  -7   11.09    1.20
  -4  -2  -7   15.38    1.46
  -4  -2  -7   12.51    1.62
   4   2   7   11.66    1.05
   4   2   7   11.93    1.12
   4   2   7   13.18    1.20
  -5  -2  -7    4.52    1.11
  -5  -2  -7    7.27    1.11
  -5  -2  -7    6.09    0.96
   5   2   7    5.66    0.84
  -6  -2  -7    5.30    0.93
  -6  -2  -7    2.53    0.65
  -6  -2  -7    1.31    0.74
   6   2   7    2.86    0.62
   6   2   7    2.44    0.63
  -7  -2  -7    3.64    0.78
  -7  -2  -7    1.51    0.77
   7   2   7    5.12    0.83
   7   2   7    3.63    0.81
  -8  -2  -7    0.52    0.45
  -8  -2  -7    0.01    0.44
   8   2   7    0.21    0.37
   8   2   7    0.43    0.49
   8   2   7    0.73    0.52
   5  -3  -7  266.85   15.32
   5  -3  -7  263.89   16.94
  -5   3   7  262.35   17.29
  -5   3   7  219.42   15.14
   4  -3  -7  352.51   23.97
   4  -3  -7  346.91   20.02
   4  -3  -7  350.75   21.88
  -4   3   7  311.22   22.13
  -4   3   7  306.02   19.91
   3  -3  -7  213.10   15.32
   3  -3  -7  240.69   16.94
   3  -3  -7  241.20   14.25
  -3   3   7  245.52   15.69
  -3   3   7  225.13   14.01
   2  -3  -7  227.35   15.15
   2  -3  -7  241.19   16.88
   2  -3  -7  226.93   14.11
  -2   3   7  222.93   13.98
  -2   3   7  245.99   15.47
   1  -3  -7  400.33   26.64
   1  -3  -7  337.03   22.44
   1  -3  -7  363.99   23.97
  -1   3   7  384.35   24.44
  -1   3   7  397.80   22.31
   0  -3  -7  449.05   31.68
   0  -3  -7  452.71   26.97
   0   3   7  459.20   29.26
   0   3   7  452.52   26.80
  -1  -3  -7  402.97   24.18
  -1  -3  -7  429.96   27.65
  -1  -3  -7  383.95   28.35
   1   3   7  401.53   24.01
   1   3   7  409.11   26.17
  -2  -3  -7  343.60   21.34
  -2  -3  -7  357.19   25.06
  -2  -3  -7  341.21   24.47
   2   3   7  358.95   21.18
   2   3   7  375.20   20.61
   2   3   7  361.23   23.02
  -3  -3  -7  468.20   32.86
  -3  -3  -7  473.25   28.24
  -3  -3  -7  443.88   32.28
   3   3   7  488.09   27.40
   3   3   7  482.44   30.39
   3   3   7  483.66   28.04
  -4  -3  -7  541.21   32.94
  -4  -3  -7  565.70   32.94
  -4  -3  -7  574.43   37.77
  -4  -3  -7  552.23   38.24
   4   3   7  578.71   32.73
   4   3   7  481.80   32.82
   4   3   7  566.96   35.40
   4   3   7  567.39   32.06
  -5  -3  -7  374.75   26.43
  -5  -3  -7  389.67   26.21
  -5  -3  -7  380.13   22.76
   5   3   7  391.48   24.29
   5   3   7  364.36   22.67
   5   3   7  363.70   22.10
   5   3   7  382.56   22.50
  -6  -3  -7  210.15   15.80
  -6  -3  -7  207.38   15.91
  -6  -3  -7  242.98   13.74
   6   3   7  228.05   13.62
   6   3   7  219.54   13.30
  -7  -3  -7  247.99   18.08
  -7  -3  -7  258.76   15.66
   7   3   7  250.34   16.03
   7   3   7  261.18   15.59
  -8  -3  -7  223.43   13.61
  -8  -3  -7  208.85   15.62
   8   3   7  209.39   13.87
   8   3   7  230.52   14.43
   4  -4  -7    0.08    0.42
   4  -4  -7    0.03    0.51
   4  -4  -7    0.00    0.23
  -4   4   7    0.26    0.45
  -4   4   7    0.13    0.22
   3  -4  -7    0.59    0.45
   3  -4  -7    0.99    0.61
   3  -4  -7    0.69    0.38
  -3   4   7    0.87    0.49
  -3   4   7    0.62    0.30
   2  -4  -7    4.93    1.21
   2  -4  -7    5.93    0.97
   2  -4  -7    7.68    0.84
  -2   4   7    5.29    1.00
  -2   4   7    5.83    0.66
   1  -4  -7    1.38    0.46
   1  -4  -7    1.26    0.38
   1  -4  -7    2.31    0.85
  -1   4   7    2.26    0.60
  -1   4   7    1.91    0.38
   0  -4  -7    0.79    0.30
   0  -4  -7    1.61    0.71
   0   4   7    0.82    0.27
   0   4   7    0.81    0.40
  -1  -4  -7    2.52    0.87
  -1  -4  -7    2.50    0.48
  -1  -4  -7    2.20    0.57
  -2  -4  -7   -0.05    0.28
  -2  -4  -7   -0.34    0.36
  -2  -4  -7    0.29    0.22
   2   4   7    0.34    0.24
   2   4   7    0.34    0.16
  -3  -4  -7    2.32    0.76
  -3  -4  -7    1.71    0.45
  -3  -4  -7    1.67    0.63
   3   4   7    1.82    0.40
   3   4   7    2.20    0.39
  -4  -4  -7    1.62    0.68
  -4  -4  -7    3.01    0.84
  -4  -4  -7    1.38    0.44
   4   4   7    1.74    0.39
  -5  -4  -7   23.37    2.61
  -5  -4  -7   25.85    2.57
  -5  -4  -7   26.50    2.05
   5   4   7   23.65    1.90
   5   4   7   24.15    1.80
  -6  -4  -7    0.93    0.72
  -6  -4  -7    1.99    0.76
   6   4   7    2.12    0.52
  -7  -4  -7    0.87    0.79
  -7  -4  -7    4.30    1.04
   7   4   7    2.03    0.56
  -8  -4  -7    2.10    0.80
  -8  -4  -7    0.45    0.88
   8   4   7   -0.25    0.33
   8   4   7    0.01    0.38
   3  -5  -7  231.62   12.41
   3  -5  -7  206.26   14.95
  -3   5   7  182.34   12.16
  -3   5   7  186.94   13.69
   2  -5  -7  244.57   17.48
   2  -5  -7  249.11   14.44
  -2   5   7  235.76   14.26
  -2   5   7  223.69   15.95
   1  -5  -7  259.33   17.58
   1  -5  -7  307.84   21.30
  -1   5   7  313.90   17.53
  -1   5   7  298.49   19.45
   0  -5  -7  312.33   23.12
   0  -5  -7  315.50   19.35
   0   5   7  341.50   19.22
  -1  -5  -7  272.86   16.41
  -1  -5  -7  268.56   19.70
   1   5   7  276.61   16.24
  -2  -5  -7  481.41   33.16
  -2  -5  -7  475.13   29.07
  -2  -5  -7  471.58   34.35
   2   5   7  503.15   28.87
   2   5   7  510.23   28.23
  -3  -5  -7  449.47   31.33
  -3  -5  -7  441.18   26.59
  -3  -5  -7  410.27   30.41
   3   5   7  457.93   25.79
   3   5   7  466.80   26.37
  -4  -5  -7  201.09   12.82
  -4  -5  -7  206.38   15.22
  -4  -5  -7  203.37   14.86
   4   5   7  223.24   12.41
   4   5   7  212.86   12.64
  -5  -5  -7  286.09   20.74
  -5  -5  -7  269.92   20.29
  -5  -5  -7  293.65   17.61
   5   5   7  308.24   17.11
   5   5   7  289.47   17.37
  -6  -5  -7  325.35   21.82
  -6  -5  -7  301.11   18.75
  -6  -5  -7  307.68   22.10
   6   5   7  302.05   18.20
  -7  -5  -7  220.59   14.74
  -7  -5  -7  189.49   14.58
   7   5   7  190.00   11.95
  -8  -5  -7  272.57   17.58
  -8  -5  -7  221.67   17.20
   8   5   7  223.78   14.25
   2  -6  -7    1.62    0.79
   2  -6  -7    1.44    0.43
  -2   6   7    1.72    0.40
  -2   6   7    1.60    0.70
   1  -6  -7    2.82    0.51
   1  -6  -7    2.57    0.97
  -1   6   7    2.87    0.46
   0  -6  -7   -0.21    0.48
   0  -6  -7   -0.08    0.18
   0   6   7    0.00    0.15
  -1  -6  -7    0.59    0.29
  -1  -6  -7    0.55    0.64
   1   6   7    0.48    0.23
  -2  -6  -7    1.82    0.88
  -2  -6  -7    2.86    0.55
   2   6   7    2.88    0.48
  -3  -6  -7   43.99    3.83
  -3  -6  -7   48.98    3.33
  -3  -6  -7   47.51    4.45
   3   6   7   47.47    3.17
   3   6   7   49.28    3.04
  -4  -6  -7    0.78    0.66
  -4  -6  -7    1.24    0.44
  -4  -6  -7    0.79    0.55
   4   6   7    1.97    0.42
   4   6   7    1.11    0.31
  -5  -6  -7    0.02    0.27
  -5  -6  -7    0.04    0.46
  -5  -6  -7    1.14    0.76
   5   6   7    0.31    0.27
   5   6   7   -0.15    0.20
  -6  -6  -7    2.72    0.96
  -6  -6  -7    2.37    0.59
  -6  -6  -7    4.48    1.23
   6   6   7    2.09    0.55
   6   6   7    2.22    0.51
  -7  -6  -7    2.06    0.92
  -7  -6  -7    0.43    0.77
   7   6   7    1.34    0.48
  -8  -6  -7   -0.82    0.70
  -8  -6  -7    0.62    0.72
   8   6   7    0.57    0.40
   1  -7  -7  126.70   10.32
  -1   7   7  133.93    8.00
   0  -7  -7  194.86   12.25
   0  -7  -7  204.52   15.15
   0   7   7  205.46   12.12
  -1  -7  -7  298.55   21.88
  -1  -7  -7  291.55   18.10
   1   7   7  311.43   17.95
  -2  -7  -7  189.42   11.71
  -2  -7  -7  185.23   14.46
   2   7   7  195.80   11.56
  -3  -7  -7  156.20   11.73
  -3  -7  -7  150.84    9.32
   3   7   7  149.28    9.14
   3   7   7  143.03    8.88
  -4  -7  -7  269.27   19.24
  -4  -7  -7  234.50   18.11
  -4  -7  -7  260.37   15.96
   4   7   7  270.02   15.76
   4   7   7  274.36   15.41
  -5  -7  -7  282.69   19.61
  -5  -7  -7  246.04   18.71
  -5  -7  -7  259.00   16.31
   5   7   7  265.18   15.74
   5   7   7  284.30   16.12
  -6  -7  -7  255.30   15.93
  -6  -7  -7  280.19   19.22
  -6  -7  -7  241.08   18.34
   6   7   7  256.35   15.65
   6   7   7  267.43   15.45
  -7  -7  -7  215.66   15.77
  -7  -7  -7  208.39   15.18
   7   7   7  200.74   12.54
  -8  -7  -7  174.89   12.50
  -8  -7  -7  171.78   12.81
   8   7   7  146.95    9.99
  -1  -8  -7    1.13    0.83
  -1  -8  -7    1.03    0.42
   1   8   7    0.68    0.30
  -2  -8  -7   -0.01    0.29
  -2  -8  -7    0.38    0.76
   2   8   7    0.08    0.23
  -3  -8  -7    2.03    1.12
  -3  -8  -7    1.70    0.52
   3   8   7    1.43    0.42
  -4  -8  -7    2.96    1.24
  -4  -8  -7    1.20    0.48
   4   8   7    1.62    0.44
   4   8   7    0.87    0.37
  -5  -8  -7    2.40    1.18
  -5  -8  -7    3.12    0.72
   5   8   7    3.08    0.62
   5   8   7    3.41    0.61
  -6  -8  -7   -0.44    0.62
  -6  -8  -7    0.04    0.34
   6   8   7    0.22    0.30
   6   8   7    0.30    0.29
  -7  -8  -7    0.77    0.84
   7   8   7    0.56    0.40
   7   8   7    0.93    0.41
  -4  -9  -7  148.44   12.59
  -4  -9  -7  153.38    9.97
   4   9   7  166.74    9.81
  -5  -9  -7  133.25    8.86
   5   9   7  141.90    8.68
   3   7  -8    0.39    0.44
   3   7  -8    0.92    0.56
  -3  -7   8    0.13    0.53
  -3  -7   8    0.46    0.73
   2   7  -8    0.54    0.49
   2   7  -8    1.01    0.60
  -2  -7   8    1.35    0.76
  -2  -7   8    0.67    0.54
  -2  -7   8    0.16    0.71
   1   7  -8    0.67    0.51
   1   7  -8    0.55    0.50
  -1  -7   8    0.69    0.61
  -1  -7   8    0.64    0.83
   5   6  -8  207.62   12.68
   5   6  -8  198.04   13.97
  -5  -6   8  210.75   15.03
   4   6  -8  204.24   13.71
   4   6  -8  209.30   12.38
  -4  -6   8  183.23   14.45
   3   6  -8  136.90    8.34
  -3  -6   8  119.24    9.88
  -3  -6   8  129.80    8.73
   2   6  -8  159.78   10.19
   2   6  -8  163.55   10.01
  -2  -6   8  158.70   10.37
  -2  -6   8  146.20   11.62
  -2  -6   8  160.30   10.60
   1   6  -8  193.37   11.93
   1   6  -8  211.45   12.16
  -1  -6   8  174.04   12.25
  -1  -6   8  179.92   13.61
  -1  -6   8  190.77   12.68
   0   6  -8  177.63   11.32
   0   6  -8  180.54   11.43
   0  -6   8  168.76   11.61
   0  -6   8  179.69   12.13
   0  -6   8  181.57   12.79
  -1   6  -8  177.27   12.00
  -1   6  -8  189.71   11.96
   1  -6   8  181.11   12.87
   1  -6   8  181.18   12.18
   1  -6   8  213.44   13.44
   6   5  -8    1.97    0.76
  -6  -5   8    2.92    1.18
   5   5  -8    0.90    0.53
   5   5  -8   -0.20    0.34
  -5  -5   8    1.68    0.93
   4   5  -8    0.26    0.35
   4   5  -8    0.58    0.52
  -4  -5   8    3.48    1.20
   3   5  -8    4.22    0.83
  -3  -5   8    3.92    1.27
  -3  -5   8    5.51    0.95
   2   5  -8    2.44    0.68
   2   5  -8    2.96    0.71
  -2  -5   8    2.62    0.74
  -2  -5   8    2.11    0.92
  -2  -5   8    3.32    0.83
   1   5  -8    1.04    0.54
   1   5  -8    0.85    0.45
  -1  -5   8    0.56    0.45
  -1  -5   8    1.49    0.78
  -1  -5   8    1.66    0.66
   0   5  -8    2.19    0.69
   0   5  -8    2.07    0.68
   0  -5   8    1.05    0.69
   0  -5   8    1.76    0.79
   0  -5   8    2.41    0.75
  -1   5  -8    2.12    0.68
   1  -5   8    1.62    0.80
   1  -5   8    2.22    0.73
   1  -5   8    2.84    0.95
  -2   5  -8    0.34    0.44
   2  -5   8    0.70    0.52
   2  -5   8    0.61    0.66
   2  -5   8    0.11    0.54
  -3   5  -8    0.94    0.55
   3  -5   8    1.31    0.83
   3  -5   8    0.61    0.57
   6   4  -8  207.18   13.97
  -6  -4   8  204.82   14.76
   5   4  -8  184.31   12.56
  -5  -4   8  185.88   13.37
   4   4  -8  255.32   14.06
   4   4  -8  229.11   15.56
  -4  -4   8  211.23   16.23
   3   4  -8  340.62   21.86
   3   4  -8  346.02   19.72
  -3  -4   8  345.46   20.73
  -3  -4   8  297.99   22.52
   2   4  -8  296.31   17.32
   2   4  -8  299.12   16.92
  -2  -4   8  302.97   18.00
  -2  -4   8  249.74   19.31
  -2  -4   8  270.05   17.40
   1   4  -8  217.76   13.38
   1   4  -8  224.09   13.07
  -1  -4   8  224.58   14.05
  -1  -4   8  202.60   13.51
  -1  -4   8  212.08   15.03
   0   4  -8  253.02   15.78
   0   4  -8  249.03   15.40
   0  -4   8  260.46   16.57
   0  -4   8  261.97   17.48
   0  -4   8  255.96   15.92
  -1   4  -8  250.17   15.74
   1  -4   8  268.90   17.33
   1  -4   8  262.01   15.93
   1  -4   8  238.41   16.56
  -2   4  -8  308.20   19.43
  -2   4  -8  264.99   17.08
   2  -4   8  292.66   18.74
   2  -4   8  245.94   18.04
   2  -4   8  277.67   17.34
  -3   4  -8  203.56   12.29
  -3   4  -8  205.64   13.85
   3  -4   8  204.90   12.39
   3  -4   8  157.71   12.94
  -4   4  -8  189.88   11.22
   4  -4   8  146.85   11.89
   4  -4   8  183.28   11.15
   7   3  -8    0.90    0.60
   7   3  -8    1.29    0.67
  -7  -3   8    1.84    0.74
  -7  -3   8   -0.03    0.65
   6   3  -8    0.01    0.40
   6   3  -8    0.45    0.46
  -6  -3   8   -0.23    0.34
  -6  -3   8    0.37    0.60
   5   3  -8   19.45    2.04
   5   3  -8   19.80    2.05
  -5  -3   8   19.93    2.39
  -5  -3   8   18.92    2.03
   4   3  -8    0.31    0.41
   4   3  -8   -0.11    0.27
  -4  -3   8   -0.27    0.33
  -4  -3   8    0.17    0.45
   3   3  -8    0.56    0.29
   3   3  -8    0.17    0.35
   3   3  -8    0.63    0.41
  -3  -3   8    0.45    0.46
  -3  -3   8    0.31    0.48
   2   3  -8   16.37    1.38
  -2  -3   8   17.64    2.05
  -2  -3   8   17.64    1.69
   1   3  -8    1.09    0.45
   1   3  -8    0.05    0.21
   1   3  -8    0.01    0.24
  -1  -3   8    0.07    0.41
  -1  -3   8    0.76    0.46
  -1  -3   8   -0.03    0.27
   0   3  -8    1.03    0.40
   0   3  -8    1.63    0.54
   0   3  -8    1.28    0.54
   0  -3   8    0.77    0.43
   0  -3   8    2.46    0.74
   0  -3   8    1.47    0.63
  -1   3  -8   -0.06    0.23
  -1   3  -8    0.66    0.48
   1  -3   8    0.05    0.37
   1  -3   8    0.95    0.60
   1  -3   8    0.77    0.45
  -2   3  -8    1.48    0.53
  -2   3  -8    0.70    0.54
   2  -3   8    1.04    0.52
   2  -3   8    0.50    0.52
   2  -3   8    1.48    0.61
  -3   3  -8    0.35    0.46
  -3   3  -8    0.04    0.44
   3  -3   8    0.25    0.43
   3  -3   8   -0.22    0.29
   3  -3   8   -0.04    0.44
  -4   3  -8    0.23    0.50
  -4   3  -8   -0.21    0.38
   4  -3   8    0.14    0.56
   4  -3   8    0.06    0.35
  -5   3  -8    0.18    0.56
  -5   3  -8   -0.19    0.44
   5  -3   8    0.10    0.39
   5  -3   8   -0.46    0.51
   7   2  -8  200.46   13.61
  -7  -2   8  198.31   12.73
  -7  -2   8  195.46   14.01
   6   2  -8  229.40   16.08
   6   2  -8  242.67   15.12
  -6  -2   8  247.44   16.61
  -6  -2   8  241.41   15.13
   5   2  -8  301.18   19.87
   5   2  -8  284.27   18.60
  -5  -2   8  316.86   18.73
  -5  -2   8  308.71   20.44
   4   2  -8  298.59   18.88
   4   2  -8  309.43   20.12
  -4  -2   8  314.25   20.69
  -4  -2   8  310.63   18.97
   3   2  -8  289.96   18.04
   3   2  -8  295.62   19.24
  -3  -2   8  293.11   18.08
  -3  -2   8  299.83   19.74
   2   2  -8  328.10   20.41
   2   2  -8  334.61   19.57
  -2  -2   8  323.05   22.20
  -2  -2   8  343.08   20.84
  -2  -2   8  349.64   20.44
   1   2  -8  307.52   20.85
   1   2  -8  299.63   18.29
   1   2  -8  305.24   17.77
   1   2  -8  298.41   18.51
  -1  -2   8  287.59   18.39
  -1  -2   8  306.18   19.08
  -1  -2   8  325.50   18.54
   0   2  -8  352.22   23.41
   0   2  -8  330.76   19.91
   0   2  -8  338.98   20.51
   0  -2   8  316.49   21.27
   0  -2   8  349.09   22.42
   0  -2   8  353.52   20.61
  -1   2  -8  265.91   16.09
  -1   2  -8  276.08   18.37
   1  -2   8  226.89   16.69
   1  -2   8  270.63   16.26
   1  -2   8  278.78   17.59
  -2   2  -8  264.21   16.63
  -2   2  -8  272.47   18.89
   2  -2   8  282.86   18.03
   2  -2   8  254.03   17.34
   2  -2   8  283.34   16.75
  -3   2  -8  359.04   25.19
  -3   2  -8  365.40   22.13
   3  -2   8  354.37   23.15
   3  -2   8  364.82   22.11
   3  -2   8  383.98   23.94
  -4   2  -8  410.68   27.31
  -4   2  -8  409.05   23.86
   4  -2   8  389.98   25.03
   4  -2   8  372.58   23.79
  -5   2  -8  236.35   16.74
  -5   2  -8  233.64   14.49
   5  -2   8  230.76   14.46
   5  -2   8  236.72   15.43
  -6   2  -8  197.83   12.41
   6  -2   8  215.01   13.35
   6  -2   8  182.67   12.26
   6   1  -8    0.54    0.49
   6   1  -8    0.23    0.39
  -6  -1   8    0.62    0.61
  -6  -1   8    0.35    0.41
   5   1  -8    4.39    0.99
   5   1  -8    4.78    0.92
  -5  -1   8    4.32    0.91
  -5  -1   8    4.76    1.14
   4   1  -8    0.21    0.31
   4   1  -8    0.29    0.35
  -4  -1   8    0.07    0.38
  -4  -1   8    0.11    0.29
   3   1  -8    4.15    0.83
   3   1  -8    4.94    0.89
  -3  -1   8    6.93    1.04
  -3  -1   8    4.31    1.01
   2   1  -8    1.37    0.50
   2   1  -8    2.30    0.60
  -2  -1   8    0.99    0.52
  -2  -1   8    1.62    0.52
  -2  -1   8    1.94    0.49
   1   1  -8    0.07    0.13
   1   1  -8    0.26    0.32
   1   1  -8    0.02    0.20
  -1  -1   8   -0.12    0.22
  -1  -1   8    0.20    0.34
  -1  -1   8    0.12    0.26
   0   1  -8    4.57    0.77
   0   1  -8    4.98    0.55
   0   1  -8    4.82    0.93
   0   1  -8    5.33    0.78
   0   1  -8    3.82    0.72
   0  -1   8    5.15    0.85
   0  -1   8    4.46    0.79
   0  -1   8    4.86    0.76
   0  -1   8    5.13    0.93
  -1   1  -8    0.11    0.24
  -1   1  -8    0.45    0.38
  -1   1  -8    1.36    0.42
   1  -1   8    0.49    0.30
   1  -1   8    1.05    0.42
   1  -1   8    1.27    0.45
   1  -1   8    1.03    0.44
  -2   1  -8    0.17    0.31
  -2   1  -8   -0.15    0.35
   2  -1   8    0.00    0.29
   2  -1   8    0.17    0.29
   2  -1   8    0.55    0.39
  -3   1  -8   25.08    2.07
  -3   1  -8   22.47    2.38
   3  -1   8   20.34    2.10
   3  -1   8   24.70    1.98
   3  -1   8   24.91    2.09
  -4   1  -8    0.75    0.56
  -4   1  -8    1.52    0.56
   4  -1   8    0.86    0.45
   4  -1   8    1.43    0.61
  -5   1  -8    0.60    0.49
  -5   1  -8    0.36    0.53
   5  -1   8    0.29    0.37
   5  -1   8    0.43    0.53
  -6   1  -8   -0.19    0.43
  -6   1  -8   -0.24    0.49
   6  -1   8    0.02    0.34
   6  -1   8    0.38    0.59
   6   0  -8  268.04   16.35
   6   0  -8  280.48   17.79
  -6   0   8  242.91   16.30
  -6   0   8  266.99   18.07
   5   0  -8  240.71   16.41
   5   0  -8  259.10   15.32
  -5   0   8  240.72   15.29
  -5   0   8  248.01   16.85
   4   0  -8  279.93   17.18
   4   0  -8  281.28   18.36
  -4   0   8  266.70   17.08
  -4   0   8  290.18   18.73
   3   0  -8  385.74   23.93
   3   0  -8  331.61   22.40
  -3   0   8  396.29   24.37
  -3   0   8  368.26   22.38
   2   0  -8  356.76   28.83
   2   0  -8  365.52   24.78
   2   0  -8  429.50   26.54
  -2   0   8  468.35   27.03
  -2   0   8  402.59   24.80
  -2   0   8  457.29   25.33
   1   0  -8  375.25   24.20
   1   0  -8  366.40   28.05
   1   0  -8  419.25   25.89
  -1   0   8  403.21   24.13
  -1   0   8  453.99   24.82
   0   0  -8  279.02   21.11
   0   0  -8  286.29   18.16
   0   0  -8  306.62   20.92
   0   0  -8  292.57   18.33
   0   0   8  327.04   19.88
   0   0   8  331.41   18.83
  -1   0  -8  253.85   20.17
  -1   0  -8  275.71   17.58
  -1   0  -8  303.40   17.56
  -1   0  -8  286.06   20.18
   1   0   8  295.32   17.64
   1   0   8  294.45   19.00
   1   0   8  317.55   17.47
   1   0   8  302.89   18.10
  -2   0  -8  521.10   31.48
  -2   0  -8  458.58   36.19
  -2   0  -8  512.36   35.94
  -2   0  -8  524.36   31.51
   2   0   8  572.18   34.06
   2   0   8  504.10   31.52
   2   0   8  579.29   31.30
   2   0   8  556.84   32.43
  -3   0  -8  449.94   25.85
  -3   0  -8  401.81   29.52
   3   0   8  444.48   27.82
   3   0   8  426.98   26.62
   3   0   8  432.45   25.83
  -4   0  -8  266.52   16.47
  -4   0  -8  265.86   18.91
   4   0   8  265.61   16.44
   4   0   8  263.48   16.99
   4   0   8  287.64   17.61
  -5   0  -8  269.95   16.34
  -5   0  -8  275.00   18.85
   5   0   8  267.79   16.90
   5   0   8  253.49   16.22
  -6   0  -8  275.62   16.52
   6   0   8  259.97   16.35
   6   0   8  267.17   17.09
  -7   0  -8  226.42   14.45
   7   0   8  249.12   15.17
   7   0   8  220.96   14.29
   6  -1  -8    3.60    0.78
   6  -1  -8    5.81    1.32
  -6   1   8    3.82    0.82
  -6   1   8    4.83    1.24
   5  -1  -8    0.66    0.42
   5  -1  -8    0.63    0.51
  -5   1   8    0.10    0.45
  -5   1   8    1.07    0.46
   4  -1  -8    0.78    0.46
   4  -1  -8    2.45    0.65
  -4   1   8    1.29    0.47
  -4   1   8    1.13    0.56
   3  -1  -8    0.95    0.41
   3  -1  -8    0.73    0.54
   3  -1  -8    1.25    0.52
  -3   1   8    1.18    0.53
  -3   1   8    0.97    0.41
   2  -1  -8    0.07    0.24
   2  -1  -8    0.15    0.37
   2  -1  -8    0.36    0.30
  -2   1   8    0.21    0.23
  -2   1   8    0.13    0.30
   1  -1  -8    0.40    0.31
   1  -1  -8    0.09    0.34
   1  -1  -8   -0.12    0.17
  -1   1   8    0.36    0.24
  -1   1   8    0.37    0.31
   0  -1  -8   15.89    1.83
   0  -1  -8   16.44    1.56
   0  -1  -8   19.77    1.84
   0   1   8   17.82    1.67
   0   1   8   18.06    1.44
  -1  -1  -8   -0.17    0.26
  -1  -1  -8   -0.04    0.27
  -1  -1  -8   -0.01    0.23
   1   1   8    0.56    0.30
   1   1   8    0.21    0.22
  -2  -1  -8    0.11    0.36
  -2  -1  -8   -0.02    0.31
  -2  -1  -8   -0.17    0.20
  -2  -1  -8    0.05    0.25
   2   1   8    0.03    0.20
   2   1   8   -0.11    0.24
   2   1   8   -0.14    0.16
  -3  -1  -8    8.96    1.17
  -3  -1  -8   10.55    1.13
  -3  -1  -8    8.32    1.39
  -3  -1  -8    8.85    1.06
   3   1   8    9.77    1.10
   3   1   8    9.03    0.96
   3   1   8   10.12    1.04
   3   1   8    9.20    0.93
  -4  -1  -8    1.02    0.44
  -4  -1  -8    1.19    0.64
  -4  -1  -8    1.80    0.57
   4   1   8    1.13    0.37
   4   1   8    1.79    0.48
   4   1   8    0.73    0.39
  -5  -1  -8    1.44    0.56
  -5  -1  -8    1.19    0.65
   5   1   8    1.11    0.49
   5   1   8    0.94    0.41
  -6  -1  -8    1.02    0.53
  -6  -1  -8    1.36    0.76
   6   1   8    1.46    0.57
   6   1   8    1.09    0.47
  -7  -1  -8    1.17    0.59
  -7  -1  -8    1.46    0.85
   7   1   8    1.69    0.66
   7   1   8    2.26    0.64
   5  -2  -8  249.12   14.54
   5  -2  -8  242.14   15.96
  -5   2   8  209.68   14.35
  -5   2   8  242.04   16.11
   4  -2  -8  319.89   19.31
   4  -2  -8  317.92   20.83
   4  -2  -8  327.50   23.00
  -4   2   8  303.80   21.16
  -4   2   8  318.58   19.26
   3  -2  -8  316.41   19.79
   3  -2  -8  314.21   21.91
   3  -2  -8  292.57   18.42
  -3   2   8  302.73   20.20
  -3   2   8  294.19   18.30
   2  -2  -8  254.84   16.20
   2  -2  -8  250.78   17.22
   2  -2  -8  274.58   19.09
  -2   2   8  277.28   16.01
  -2   2   8  270.06   17.65
   1  -2  -8  307.47   20.75
   1  -2  -8  330.29   22.99
   1  -2  -8  311.44   19.55
  -1   2   8  329.11   21.23
  -1   2   8  340.96   19.40
   0  -2  -8  472.99   29.08
   0  -2  -8  360.34   27.04
   0  -2  -8  423.11   25.50
   0  -2  -8  411.02   29.79
   0   2   8  459.94   25.35
   0   2   8  432.23   27.62
  -1  -2  -8  418.02   29.93
  -1  -2  -8  431.74   29.43
  -1  -2  -8  420.02   25.73
   1   2   8  431.32   27.81
   1   2   8  449.17   25.53
  -2  -2  -8  324.61   23.11
  -2  -2  -8  322.36   20.13
  -2  -2  -8  347.87   23.45
   2   2   8  347.11   21.72
   2   2   8  329.57   19.90
  -3  -2  -8  259.64   16.99
  -3  -2  -8  291.91   17.00
  -3  -2  -8  286.11   19.63
  -3  -2  -8  286.13   19.76
   3   2   8  293.87   18.28
   3   2   8  260.64   16.76
   3   2   8  287.83   16.94
  -4  -2  -8  404.32   27.41
  -4  -2  -8  412.78   23.86
  -4  -2  -8  387.82   27.53
  -4  -2  -8  400.67   23.85
   4   2   8  373.96   23.75
   4   2   8  407.46   25.54
   4   2   8  391.40   23.58
  -5  -2  -8  438.07   31.10
  -5  -2  -8  468.01   27.04
  -5  -2  -8  467.78   31.04
   5   2   8  427.61   27.70
  -6  -2  -8  236.62   14.14
   6   2   8  224.81   14.44
   6   2   8  221.72   13.98
  -7  -2  -8  164.65   13.79
  -7  -2  -8  198.80   11.94
   7   2   8  202.45   12.20
   7   2   8  186.33   11.78
  -8  -2  -8  196.29   12.82
   8   2   8  205.41   12.74
   8   2   8  209.38   13.20
   5  -3  -8    1.15    0.47
   5  -3  -8    1.57    0.74
  -5   3   8    1.33    0.45
  -5   3   8    1.08    0.78
   4  -3  -8    0.51    0.61
   4  -3  -8    0.62    0.37
   4  -3  -8    0.52    0.55
  -4   3   8    0.58    0.57
  -4   3   8    0.28    0.29
   3  -3  -8    5.96    1.11
   3  -3  -8    5.36    1.30
   3  -3  -8    6.91    1.00
  -3   3   8    5.68    1.15
  -3   3   8    5.28    0.80
   2  -3  -8   17.30    2.16
   2  -3  -8   16.65    1.68
   2  -3  -8   18.53    1.64
  -2   3   8   17.34    1.81
  -2   3   8   17.78    1.49
   1  -3  -8    0.29    0.27
   1  -3  -8    0.20    0.49
   1  -3  -8    0.38    0.28
  -1   3   8    0.67    0.38
  -1   3   8    0.11    0.20
   0  -3  -8    0.17    0.25
   0  -3  -8    0.46    0.27
   0  -3  -8    1.43    0.72
   0   3   8   -0.01    0.18
   0   3   8    0.85    0.38
  -1  -3  -8   12.86    1.65
  -1  -3  -8   11.28    1.10
  -1  -3  -8   11.64    1.21
  -1  -3  -8   14.32    1.57
   1   3   8   13.20    1.29
   1   3   8   15.49    1.16
  -2  -3  -8   12.19    1.18
  -2  -3  -8    9.32    1.51
  -2  -3  -8   12.10    1.57
   2   3   8   10.94    1.13
   2   3   8   11.98    1.04
  -3  -3  -8    0.45    0.52
  -3  -3  -8    0.48    0.31
  -3  -3  -8    0.07    0.38
   3   3   8    0.33    0.26
   3   3   8    0.67    0.27
  -4  -3  -8    0.06    0.48
  -4  -3  -8    1.22    0.44
  -4  -3  -8    1.24    0.58
   4   3   8    1.01    0.34
   4   3   8    1.14    0.38
  -5  -3  -8    7.36    1.18
  -5  -3  -8    4.56    1.14
   5   3   8    6.27    0.78
  -6  -3  -8    0.12    0.41
  -6  -3  -8    0.15    0.51
  -6  -3  -8    1.29    0.60
  -7  -3  -8    0.25    0.42
  -7  -3  -8    2.06    0.75
  -7  -3  -8   -0.33    0.59
   7   3   8    0.28    0.39
   7   3   8    0.67    0.46
  -8  -3  -8   -0.01    0.65
   8   3   8    0.08    0.47
   4  -4  -8  189.37   13.18
   4  -4  -8  203.67   14.64
   4  -4  -8  211.36   11.91
  -4   4   8  164.88   11.71
  -4   4   8  197.44   13.48
   3  -4  -8  190.97   11.33
   3  -4  -8  166.26   12.17
   3  -4  -8  182.55   13.59
  -3   4   8  173.91   11.03
  -3   4   8  191.46   12.55
   2  -4  -8  191.30   14.38
   2  -4  -8  225.45   13.44
   2  -4  -8  227.41   16.18
  -2   4   8  218.51   13.26
  -2   4   8  232.96   14.75
   1  -4  -8  372.73   25.81
   1  -4  -8  333.33   21.64
  -1   4   8  376.85   21.47
   0  -4  -8  427.94   24.42
   0  -4  -8  421.11   28.86
   0   4   8  366.96   26.42
   0   4   8  415.89   24.20
  -1  -4  -8  395.45   27.24
  -1  -4  -8  394.40   23.88
  -1  -4  -8  393.10   28.14
   1   4   8  394.53   23.68
   1   4   8  416.48   25.89
  -2  -4  -8  366.82   25.26
  -2  -4  -8  346.93   24.51
  -2  -4  -8  332.62   21.33
   2   4   8  360.43   23.08
   2   4   8  372.19   21.21
  -3  -4  -8  363.47   25.22
  -3  -4  -8  338.25   21.40
  -3  -4  -8  336.37   24.64
   3   4   8  352.34   23.05
   3   4   8  381.83   20.67
   3   4   8  361.87   21.24
  -4  -4  -8  267.57   19.52
  -4  -4  -8  274.18   16.93
  -4  -4  -8  278.61   19.79
   4   4   8  269.72   18.06
   4   4   8  282.53   16.28
   4   4   8  296.05   16.74
  -5  -4  -8  247.54   15.12
  -5  -4  -8  257.97   17.59
  -5  -4  -8  257.25   17.62
   5   4   8  244.46   14.86
   5   4   8  235.66   14.51
   5   4   8  238.46   15.98
  -6  -4  -8  226.72   16.32
  -6  -4  -8  242.09   16.41
   6   4   8  213.46   13.48
  -7  -4  -8  294.56   21.51
  -7  -4  -8  342.38   21.67
   7   4   8  276.29   17.94
  -8  -4  -8  165.94   12.26
   8   4   8  163.91   10.74
   3  -5  -8    1.95    0.90
   3  -5  -8    1.58    0.54
  -3   5   8    1.83    0.75
  -3   5   8    1.37    0.42
   2  -5  -8   -0.09    0.27
   2  -5  -8    1.25    0.77
  -2   5   8    0.44    0.43
  -2   5   8    0.03    0.21
   1  -5  -8    1.47    0.81
   1  -5  -8    2.06    0.52
  -1   5   8    2.47    0.47
  -1   5   8    1.26    0.58
   0  -5  -8    6.66    0.90
   0  -5  -8    6.59    1.47
   0   5   8    7.84    0.81
   0   5   8    8.62    1.25
  -1  -5  -8    1.15    0.80
  -1  -5  -8    1.85    0.46
  -2  -5  -8    5.15    0.78
  -2  -5  -8    6.88    1.44
  -2  -5  -8    4.83    0.97
  -3  -5  -8    4.62    0.76
  -3  -5  -8    5.52    1.31
  -3  -5  -8    5.20    1.09
   3   5   8    4.79    0.68
  -4  -5  -8    6.14    0.93
  -4  -5  -8    5.88    1.25
  -4  -5  -8    4.51    1.19
   4   5   8    7.77    0.73
  -5  -5  -8    0.15    0.30
  -5  -5  -8    0.80    0.65
  -5  -5  -8    0.37    0.53
   5   5   8    0.83    0.31
   5   5   8    0.41    0.29
   5   5   8    0.36    0.26
  -6  -5  -8    2.40    0.87
  -6  -5  -8    1.79    0.87
   6   5   8    1.88    0.48
  -7  -5  -8    1.51    0.82
  -7  -5  -8    0.62    0.75
   7   5   8    0.88    0.41
  -8  -5  -8   -0.30    0.75
  -8  -5  -8    0.48    0.66
   8   5   8    0.16    0.35
   2  -6  -8  242.41   14.56
   2  -6  -8  254.29   17.71
  -2   6   8  220.64   16.05
  -2   6   8  235.90   14.31
   1  -6  -8  182.63   11.57
   1  -6  -8  190.44   14.31
  -1   6   8  196.61   12.95
  -1   6   8  185.52   11.42
   0  -6  -8  180.67   13.29
   0  -6  -8  168.90   10.70
  -1  -6  -8  261.35   19.57
  -1  -6  -8  258.90   16.22
   1   6   8  282.87   16.09
  -2  -6  -8  249.01   18.84
  -2  -6  -8  254.25   15.59
   2   6   8  265.45   15.41
  -3  -6  -8  253.98   18.31
  -3  -6  -8  259.79   19.24
  -3  -6  -8  259.09   15.96
   3   6   8  276.28   15.77
  -4  -6  -8  229.16   17.81
  -4  -6  -8  252.98   15.45
  -4  -6  -8  263.00   18.50
   4   6   8  253.66   15.22
   4   6   8  264.89   14.89
  -5  -6  -8  254.43   15.94
  -5  -6  -8  247.64   18.47
  -5  -6  -8  273.55   18.97
   5   6   8  257.23   15.71
   5   6   8  270.77   15.42
  -6  -6  -8  259.94   18.29
  -6  -6  -8  240.27   15.66
  -6  -6  -8  258.89   18.56
   6   6   8  261.42   15.16
  -7  -6  -8  226.46   16.54
  -7  -6  -8  244.85   16.47
   7   6   8  205.03   13.34
  -8  -6  -8  108.58    8.97
  -8  -6  -8  118.98    9.15
   8   6   8  108.96    7.05
   1  -7  -8   -0.22    0.58
   1  -7  -8    0.00    0.28
  -1   7   8   -0.30    0.36
  -1   7   8    0.43    0.30
   0  -7  -8    1.96    0.50
   0  -7  -8    1.05    0.84
   0   7   8    1.65    0.45
  -1  -7  -8    0.80    0.78
  -1  -7  -8    2.22    0.53
   1   7   8    2.24    0.44
  -2  -7  -8    6.98    0.97
  -2  -7  -8    9.02    1.91
   2   7   8    7.37    0.80
  -3  -7  -8    1.22    0.44
  -3  -7  -8    0.59    0.76
   3   7   8    0.93    0.32
  -4  -7  -8    0.78    0.53
  -4  -7  -8   -0.19    0.60
  -4  -7  -8    0.04    0.31
   4   7   8    0.18    0.23
  -5  -7  -8    2.41    0.85
  -5  -7  -8    2.56    0.64
  -5  -7  -8    0.79    0.82
   5   7   8    2.51    0.53
   5   7   8    1.83    0.46
  -6  -7  -8    0.35    0.40
  -6  -7  -8    0.16    0.64
  -6  -7  -8    0.45    0.65
   6   7   8    0.61    0.35
   6   7   8    0.52    0.36
  -7  -7  -8    3.78    1.22
  -7  -7  -8    4.59    1.36
   7   7   8    5.87    0.91
  -1  -8  -8  149.92   12.07
  -1  -8  -8  151.20    9.60
   1   8   8  157.74    9.41
  -2  -8  -8  194.65   12.46
  -2  -8  -8  195.79   15.41
   2   8   8  213.18   12.30
  -3  -8  -8  203.58   15.89
  -3  -8  -8  199.06   12.80
   3   8   8  217.51   12.64
  -4  -8  -8  170.00   10.80
  -4  -8  -8  168.00   13.46
   4   8   8  176.75   10.59
  -5  -8  -8  184.83   12.13
  -5  -8  -8  202.00   14.97
   5   8   8  198.47   11.91
  -6  -8  -8  139.06   10.77
  -6  -8  -8  127.40    8.60
   6   8   8  136.51    8.24
   6   8   8  132.60    8.35
   4   6  -9    3.90    1.08
   4   6  -9    1.84    0.68
  -4  -6   9    2.62    1.21
   3   6  -9    0.27    0.45
  -3  -6   9   -0.32    0.37
  -3  -6   9    0.46    0.66
   2   6  -9    0.97    0.56
   2   6  -9    0.29    0.48
  -2  -6   9    0.21    0.69
  -2  -6   9    0.22    0.48
  -2  -6   9    0.28    0.50
   1   6  -9    1.43    0.66
   1   6  -9    1.56    0.70
  -1  -6   9    0.79    0.76
  -1  -6   9    1.46    0.80
  -1  -6   9    0.94    0.63
   0   6  -9    0.67    0.57
   0   6  -9   -0.30    0.37
   0  -6   9    0.52    0.67
   0  -6   9   -0.23    0.61
   0  -6   9    0.01    0.53
   5   5  -9  136.68   10.10
  -5  -5   9  151.14   11.12
   4   5  -9  144.92    9.96
  -4  -5   9  132.46   10.64
   3   5  -9  266.77   15.37
  -3  -5   9  238.29   17.85
   2   5  -9  218.24   12.60
  -2  -5   9  192.82   14.62
  -2  -5   9  201.69   13.40
   1   5  -9  191.40   11.58
   1   5  -9  189.85   11.86
  -1  -5   9  181.71   13.36
  -1  -5   9  169.65   11.99
  -1  -5   9  201.87   12.60
   0   5  -9  205.78   12.07
   0   5  -9  189.79   12.26
   0  -5   9  203.51   13.71
   0  -5   9  185.04   12.44
   0  -5   9  177.24   12.91
  -1   5  -9  176.57   11.71
  -1   5  -9  186.44   11.52
   1  -5   9  186.21   11.86
   1  -5   9  158.14   12.38
   1  -5   9  206.56   13.09
  -2   5  -9  158.41   10.51
   2  -5   9  177.28   11.62
   2  -5   9  153.39   10.59
   6   4  -9    0.04    0.38
  -6  -4   9   -0.71    0.57
   5   4  -9    0.65    0.54
  -5  -4   9    0.81    0.76
   4   4  -9    0.66    0.55
  -4  -4   9    0.14    0.62
   3   4  -9   10.54    1.60
  -3  -4   9    8.07    1.75
   2   4  -9    1.56    0.51
  -2  -4   9    1.18    0.57
  -2  -4   9    0.71    0.71
   1   4  -9    0.63    0.41
   1   4  -9    0.53    0.38
  -1  -4   9    0.36    0.39
  -1  -4   9    0.10    0.48
  -1  -4   9    0.47    0.50
   0   4  -9    1.98    0.66
   0   4  -9    3.59    0.79
   0  -4   9    2.76    0.88
   0  -4   9    2.16    0.73
   0  -4   9    3.56    1.07
  -1   4  -9    6.50    1.14
   1  -4   9    5.85    1.32
   1  -4   9    7.63    1.46
   1  -4   9    7.45    1.26
  -2   4  -9    4.07    0.88
   2  -4   9    2.53    0.79
   2  -4   9    0.82    0.77
   2  -4   9    3.88    1.02
  -3   4  -9    0.14    0.41
   3  -4   9    0.56    0.53
   3  -4   9   -0.09    0.60
   6   3  -9  215.39   13.27
  -6  -3   9  194.62   14.51
  -6  -3   9  199.28   13.21
   5   3  -9  225.84   14.24
   5   3  -9  214.49   15.00
  -5  -3   9  225.20   15.72
  -5  -3   9  225.80   14.30
   4   3  -9  263.18   17.99
   4   3  -9  279.43   16.99
  -4  -3   9  280.35   17.06
  -4  -3   9  262.33   18.63
   3   3  -9  260.87   17.19
  -3  -3   9  255.94   17.75
   2   3  -9  236.23   14.26
  -2  -3   9  231.18   16.49
  -2  -3   9  253.94   15.35
   1   3  -9  221.10   13.66
   1   3  -9  226.07   15.51
   1   3  -9  221.11   13.22
  -1  -3   9  230.99   15.31
  -1  -3   9  199.17   13.74
  -1  -3   9  233.88   14.36
   0   3  -9  207.39   13.12
   0   3  -9  221.72   13.60
   0   3  -9  225.57   15.41
   0  -3   9  221.55   14.27
   0  -3   9  204.95   13.63
   0  -3   9  232.33   15.06
  -1   3  -9  295.80   20.32
  -1   3  -9  293.50   17.89
   1  -3   9  325.04   19.69
   1  -3   9  298.71   18.01
   1  -3   9  244.45   18.55
  -2   3  -9  279.14   18.72
  -2   3  -9  267.07   16.46
   2  -3   9  280.29   17.98
   2  -3   9  261.93   16.64
   2  -3   9  245.53   17.30
  -3   3  -9  296.76   20.34
  -3   3  -9  298.26   17.97
   3  -3   9  292.93   19.34
   3  -3   9  273.49   18.85
   3  -3   9  291.88   18.02
  -4   3  -9  262.04   18.35
  -4   3  -9  269.96   16.18
   4  -3   9  259.05   17.10
   4  -3   9  248.63   16.05
   6   2  -9    0.01    0.38
   6   2  -9   -0.04    0.42
  -6  -2   9   -0.30    0.40
  -6  -2   9   -0.20    0.53
   5   2  -9    0.49    0.50
   5   2  -9   -0.02    0.37
  -5  -2   9   -0.14    0.50
  -5  -2   9   -0.15    0.37
   4   2  -9    1.90    0.67
   4   2  -9    0.86    0.50
  -4  -2   9    1.89    0.70
  -4  -2   9    1.77    0.75
   3   2  -9    1.18    0.52
   3   2  -9    1.16    0.57
  -3  -2   9    2.87    0.84
  -3  -2   9    0.94    0.54
   2   2  -9    1.60    0.58
   2   2  -9    0.44    0.40
  -2  -2   9    1.02    0.45
  -2  -2   9    0.91    0.52
  -2  -2   9    0.81    0.46
   1   2  -9   -0.12    0.29
   1   2  -9    0.04    0.28
  -1  -2   9    0.01    0.31
  -1  -2   9    0.14    0.33
  -1  -2   9    0.22    0.38
   0   2  -9   21.23    1.69
   0   2  -9   21.36    1.92
   0   2  -9   21.24    2.22
   0  -2   9   22.47    1.96
   0  -2   9   22.80    2.18
   0  -2   9   22.73    2.22
  -1   2  -9    8.23    1.11
  -1   2  -9    2.87    0.85
   1  -2   9    3.79    0.92
   1  -2   9    2.91    0.85
   1  -2   9    4.63    0.88
  -2   2  -9   -0.27    0.39
  -2   2  -9    0.16    0.35
   2  -2   9    0.54    0.53
   2  -2   9   -0.07    0.34
   2  -2   9    0.20    0.40
  -3   2  -9    0.31    0.56
  -3   2  -9    0.86    0.52
   3  -2   9    1.26    0.54
   3  -2   9    0.31    0.58
   3  -2   9    1.40    0.59
  -4   2  -9   -0.76    0.36
  -4   2  -9    0.34    0.55
   4  -2   9    0.64    0.64
   4  -2   9   -0.43    0.29
  -5   2  -9    0.78    0.63
  -5   2  -9   -0.70    0.34
   5  -2   9    0.03    0.37
   5  -2   9   -0.01    0.52
   6   1  -9  253.34   15.99
   6   1  -9  244.99   17.08
  -6  -1   9  246.01   16.00
  -6  -1   9  275.11   17.66
   5   1  -9  273.17   19.56
   5   1  -9  307.84   18.39
  -5  -1   9  312.54   20.10
  -5  -1   9  291.68   18.41
   4   1  -9  275.92   19.10
   4   1  -9  282.10   18.00
  -4  -1   9  297.11   18.03
  -4  -1   9  310.74   19.68
   3   1  -9  169.20   11.57
   3   1  -9  174.13   12.27
  -3  -1   9  191.57   12.68
  -3  -1   9  198.90   11.68
   2   1  -9  198.97   14.16
   2   1  -9  209.49   13.41
  -2  -1   9  219.97   14.54
  -2  -1   9  215.02   13.50
  -2  -1   9  228.39   13.39
   1   1  -9  404.04   27.64
   1   1  -9  451.82   31.33
  -1  -1   9  530.45   30.12
  -1  -1   9  481.03   28.34
  -1  -1   9  434.54   27.57
   0   1  -9  346.79   26.25
   0   1  -9  350.06   23.09
   0  -1   9  420.90   23.14
   0  -1   9  399.56   23.78
   0  -1   9  399.89   25.09
  -1   1  -9  251.48   18.91
  -1   1  -9  274.52   16.52
   1  -1   9  277.53   17.07
   1  -1   9  261.95   16.55
   1  -1   9  288.22   17.92
  -2   1  -9  380.90   23.26
  -2   1  -9  396.36   26.55
   2  -1   9  402.77   24.03
   2  -1   9  360.45   23.31
   2  -1   9  384.90   25.07
  -3   1  -9  293.61   21.69
  -3   1  -9  318.84   19.07
   3  -1   9  325.88   20.51
   3  -1   9  310.69   19.01
   3  -1   9  312.00   19.71
  -4   1  -9  316.08   17.99
  -4   1  -9  281.52   20.52
   4  -1   9  286.74   18.69
   4  -1   9  289.67   17.88
  -5   1  -9  257.73   17.75
  -5   1  -9  250.89   15.40
   5  -1   9  242.86   15.34
   5  -1   9  246.55   16.17
  -6   1  -9  218.51   15.36
  -6   1  -9  211.06   13.25
   6  -1   9  228.95   14.13
   6  -1   9  191.25   13.11
   6   0  -9    6.18    1.12
   6   0  -9    4.15    1.12
  -6   0   9    6.56    1.44
  -6   0   9    4.09    0.99
   5   0  -9    2.55    0.71
   5   0  -9    1.16    0.65
  -5   0   9    1.18    0.75
  -5   0   9    2.20    0.70
   4   0  -9    0.26    0.36
   4   0  -9    0.49    0.46
  -4   0   9    1.10    0.50
  -4   0   9    0.47    0.50
   3   0  -9   23.31    2.28
   3   0  -9   26.05    2.33
  -3   0   9   26.57    2.26
  -3   0   9   25.20    2.42
   2   0  -9    6.88    1.11
   2   0  -9    6.14    1.01
   2   0  -9    7.15    1.35
  -2   0   9    6.57    1.04
  -2   0   9    5.43    1.04
  -2   0   9    8.77    0.93
   1   0  -9    3.77    0.89
   1   0  -9    3.68    0.70
   1   0  -9    3.65    0.77
  -1   0   9    3.88    0.73
  -1   0   9    3.14    0.62
  -1   0   9    2.58    0.67
   0   0  -9    1.64    0.48
   0   0  -9    1.36    0.50
   0   0  -9    2.06    0.66
   0   0   9    1.57    0.47
   0   0   9    1.35    0.49
   0   0   9    1.95    0.48
  -1   0  -9    2.83    0.86
  -1   0  -9    2.55    0.60
  -1   0  -9    2.56    0.58
   1   0   9    2.77    0.54
   1   0   9    1.82    0.52
   1   0   9    3.20    0.70
  -2   0  -9    3.12    0.89
  -2   0  -9    2.63    0.67
  -2   0  -9    3.22    0.62
   2   0   9    3.25    0.70
   2   0   9    4.03    0.79
   2   0   9    3.01    0.69
  -3   0  -9   13.47    1.71
  -3   0  -9   11.18    1.46
   3   0   9   12.60    1.30
   3   0   9   10.62    1.34
   3   0   9   14.15    1.36
  -4   0  -9    1.29    0.69
  -4   0  -9    2.15    0.64
   4   0   9    1.49    0.50
   4   0   9    1.06    0.53
  -5   0  -9   -0.10    0.38
  -5   0  -9    1.11    0.65
   5   0   9    0.21    0.43
   5   0   9   -0.44    0.26
  -6   0  -9   -0.04    0.44
  -6   0  -9    0.38    0.52
   6   0   9    0.56    0.45
   6   0   9    0.44    0.54
  -7   0  -9    2.75    1.00
  -7   0  -9    3.25    0.87
   7   0   9    2.27    0.68
   7   0   9    1.81    0.88
   5  -1  -9  270.75   15.92
   5  -1  -9  252.91   17.11
  -5   1   9  257.92   17.38
  -5   1   9  238.52   15.75
   4  -1  -9  212.46   15.46
   4  -1  -9  245.65   14.65
  -4   1   9  238.99   15.82
  -4   1   9  235.87   14.50
   3  -1  -9  324.84   24.55
   3  -1  -9  335.64   22.36
   3  -1  -9  337.70   20.92
  -3   1   9  376.27   20.97
   2  -1  -9  401.65   29.87
   2  -1  -9  415.64   25.58
   2  -1  -9  425.02   27.31
  -2   1   9  455.76   25.51
   1  -1  -9  232.50   16.37
   1  -1  -9  243.96   17.96
   1  -1  -9  243.54   15.46
  -1   1   9  259.77   16.71
  -1   1   9  280.00   15.31
   0  -1  -9  255.48   19.61
   0  -1  -9  266.05   16.95
   0  -1  -9  255.41   17.97
   0  -1  -9  284.26   19.33
   0   1   9  300.57   18.33
   0   1   9  307.11   16.77
  -1  -1  -9  359.46   25.42
  -1  -1  -9  358.69   25.18
  -1  -1  -9  358.04   21.99
   1   1   9  378.33   21.74
   1   1   9  365.55   23.66
  -2  -1  -9  307.24   22.24
  -2  -1  -9  340.86   22.31
  -2  -1  -9  301.51   19.33
   2   1   9  315.29   19.80
   2   1   9  323.82   20.77
   2   1   9  329.19   19.11
  -3  -1  -9  235.79   17.79
  -3  -1  -9  263.24   17.99
  -3  -1  -9  267.68   15.63
   3   1   9  249.77   16.63
   3   1   9  267.09   15.56
   3   1   9  248.37   15.97
  -4  -1  -9  366.64   20.99
  -4  -1  -9  344.70   24.12
   4   1   9  339.51   22.43
   4   1   9  351.58   20.94
   4   1   9  332.17   21.57
  -5  -1  -9  317.64   21.93
  -5  -1  -9  318.80   19.04
   5   1   9  299.38   18.94
   5   1   9  313.64   19.57
  -6  -1  -9  346.73   21.37
  -6  -1  -9  375.17   24.68
   6   1   9  367.74   22.02
   6   1   9  318.09   21.23
  -7  -1  -9  197.32   13.83
  -7  -1  -9  187.57   11.83
   7   1   9  190.19   12.19
   7   1   9  170.88   11.62
   5  -2  -9    1.28    0.56
   5  -2  -9    1.80    0.80
  -5   2   9    1.10    0.48
  -5   2   9    3.59    1.04
   4  -2  -9    0.62    0.52
   4  -2  -9    0.67    0.46
   4  -2  -9    1.02    0.77
  -4   2   9    1.73    0.72
  -4   2   9    1.26    0.52
   3  -2  -9    0.59    0.63
   3  -2  -9    1.18    0.52
   3  -2  -9    0.95    0.46
  -3   2   9    1.27    0.59
  -3   2   9    1.00    0.44
   2  -2  -9    0.20    0.35
   2  -2  -9    0.09    0.41
   2  -2  -9    0.11    0.29
  -2   2   9   -0.41    0.27
  -2   2   9    0.22    0.26
   1  -2  -9   12.48    1.34
   1  -2  -9   14.58    1.46
   1  -2  -9   11.96    1.90
  -1   2   9   14.77    1.29
  -1   2   9   13.94    1.54
   0  -2  -9    2.48    0.70
   0  -2  -9    2.79    0.64
   0  -2  -9    2.68    0.86
   0  -2  -9    2.43    0.57
   0   2   9    2.79    0.55
   0   2   9    3.14    0.75
  -1  -2  -9    0.90    0.41
  -1  -2  -9    0.83    0.50
  -1  -2  -9    1.01    0.58
  -1  -2  -9    1.07    0.38
   1   2   9    1.27    0.39
   1   2   9    0.68    0.40
  -2  -2  -9    0.29    0.40
  -2  -2  -9    0.28    0.31
  -2  -2  -9    0.01    0.39
   2   2   9   -0.37    0.19
   2   2   9    0.10    0.28
  -3  -2  -9   -0.01    0.39
  -3  -2  -9   -0.06    0.40
  -3  -2  -9    0.42    0.34
   3   2   9    0.06    0.25
   3   2   9    0.62    0.31
  -4  -2  -9    2.71    0.92
  -4  -2  -9    2.35    0.77
   4   2   9    2.50    0.54
  -5  -2  -9    8.72    1.59
  -5  -2  -9   11.18    1.40
  -5  -2  -9    9.87    1.32
   5   2   9   11.02    1.19
   5   2   9    7.31    1.15
  -6  -2  -9    3.09    0.79
  -6  -2  -9    2.25    0.89
   6   2   9    2.75    0.72
   6   2   9    1.70    0.58
  -7  -2  -9    5.28    1.30
  -7  -2  -9    3.36    0.86
   7   2   9    2.78    0.73
   7   2   9    2.85    0.81
   4  -3  -9  232.68   17.13
   4  -3  -9  265.27   15.80
   4  -3  -9  264.05   19.07
  -4   3   9  269.59   17.55
  -4   3   9  250.08   15.71
   3  -3  -9  263.37   18.83
   3  -3  -9  227.53   16.84
   3  -3  -9  271.01   15.77
  -3   3   9  261.90   17.31
  -3   3   9  253.12   15.51
   2  -3  -9  224.16   15.76
   2  -3  -9  253.54   17.66
   2  -3  -9  236.56   14.87
  -2   3   9  255.17   14.64
  -2   3   9  233.60   16.15
   1  -3  -9  302.19   17.58
   1  -3  -9  239.75   18.51
   1  -3  -9  305.96   20.82
  -1   3   9  308.47   17.36
  -1   3   9  285.83   19.02
   0  -3  -9  374.94   27.38
   0  -3  -9  404.17   23.35
   0   3   9  385.31   25.23
   0   3   9  383.73   23.07
  -1  -3  -9  370.16   26.17
  -1  -3  -9  387.25   25.60
  -1  -3  -9  370.94   22.38
   1   3   9  356.23   24.12
   1   3   9  372.07   22.10
  -2  -3  -9  272.11   19.87
  -2  -3  -9  290.93   20.18
  -2  -3  -9  284.21   17.25
   2   3   9  291.22   16.97
   2   3   9  276.86   18.51
  -3  -3  -9  244.59   17.06
  -3  -3  -9  236.10   14.58
  -3  -3  -9  236.66   16.89
   3   3   9  241.84   15.59
   3   3   9  228.53   14.28
  -4  -3  -9  447.54   26.28
  -4  -3  -9  447.26   30.18
  -4  -3  -9  448.21   30.50
   4   3   9  454.50   28.19
   4   3   9  388.08   25.87
  -5  -3  -9  272.42   20.03
  -5  -3  -9  293.89   20.15
   5   3   9  287.45   18.46
  -6  -3  -9  229.36   15.83
  -6  -3  -9  207.74   15.49
  -7  -3  -9  222.85   15.80
   7   3   9  209.90   13.81
  -8  -3  -9  170.59   12.61
   8   3   9  162.10   10.85
   3  -4  -9   -0.37    0.43
   3  -4  -9    0.60    0.44
  -3   4   9   -0.06    0.41
  -3   4   9    0.08    0.30
   2  -4  -9    1.56    0.56
   2  -4  -9    0.85    0.65
  -2   4   9    1.69    0.64
  -2   4   9    1.31    0.46
   1  -4  -9   16.58    1.62
   1  -4  -9   18.14    2.32
  -1   4   9   16.58    1.78
  -1   4   9   18.24    1.49
   0  -4  -9    0.19    0.52
   0  -4  -9   -0.04    0.27
   0   4   9    0.82    0.42
   0   4   9   -0.21    0.18
  -1  -4  -9    0.26    0.33
  -1  -4  -9    0.57    0.57
  -1  -4  -9   -0.20    0.24
   1   4   9    0.25    0.28
   1   4   9   -0.01    0.19
  -2  -4  -9    0.23    0.29
  -2  -4  -9    2.45    0.90
  -2  -4  -9    0.13    0.38
   2   4   9    0.44    0.27
   2   4   9    1.09    0.41
  -3  -4  -9    2.08    0.90
  -3  -4  -9    3.62    1.03
  -3  -4  -9    4.17    0.76
   3   4   9    3.63    0.67
   3   4   9    2.75    0.53
  -4  -4  -9    1.86    0.56
  -4  -4  -9    1.63    0.73
  -4  -4  -9    1.86    0.75
   4   4   9    1.57    0.45
   4   4   9    2.10    0.48
  -5  -4  -9    4.84    1.19
  -5  -4  -9    4.18    1.02
  -5  -4  -9    3.14    0.74
   5   4   9    4.41    0.73
   5   4   9    3.75    0.64
   5   4   9    3.99    0.66
  -6  -4  -9   -0.09    0.61
  -6  -4  -9    0.60    0.56
  -7  -4  -9   -0.25    0.59
  -7  -4  -9    2.02    0.78
  -8  -4  -9    4.32    1.34
   8   4   9    4.65    0.98
   2  -5  -9  208.70   16.45
   2  -5  -9  232.09   13.75
  -2   5   9  226.34   15.07
  -2   5   9  217.47   13.51
   1  -5  -9  215.18   13.69
   1  -5  -9  225.34   16.61
  -1   5   9  229.35   14.98
  -1   5   9  219.90   13.44
   0  -5  -9  249.26   19.29
   0  -5  -9  250.37   16.07
   0   5   9  280.89   17.58
   0   5   9  273.85   15.91
  -1  -5  -9  203.04   15.38
  -1  -5  -9  209.83   12.82
   1   5   9  208.00   13.90
   1   5   9  210.03   12.62
  -2  -5  -9  331.80   23.16
  -2  -5  -9  315.54   20.19
  -2  -5  -9  347.54   24.04
   2   5   9  343.23   21.87
   2   5   9  335.81   20.01
  -3  -5  -9  304.70   19.33
  -3  -5  -9  297.65   22.28
  -3  -5  -9  345.55   23.06
   3   5   9  319.50   20.83
   3   5   9  330.77   19.17
  -4  -5  -9  179.85   13.46
  -4  -5  -9  198.49   13.78
  -4  -5  -9  172.60   11.45
   4   5   9  189.67   11.29
   4   5   9  181.43   12.20
  -5  -5  -9  158.80   11.71
  -5  -5  -9  167.61   11.76
  -5  -5  -9  153.55    9.92
   5   5   9  158.54    9.68
   5   5   9  155.19    9.36
   5   5   9  148.16   10.37
  -6  -5  -9  244.91   18.14
  -6  -5  -9  273.21   18.27
   6   5   9  242.29   14.94
  -7  -5  -9  215.62   15.89
  -7  -5  -9  246.63   16.23
   7   5   9  200.11   13.09
  -8  -5  -9  168.73   13.35
  -8  -5  -9  194.22   13.74
   1  -6  -9    1.64    0.56
   1  -6  -9    1.38    0.88
  -1   6   9    0.73    0.35
  -1   6   9    1.01    0.57
   0  -6  -9    3.37    1.19
   0  -6  -9    2.57    0.62
   0   6   9    3.06    0.81
   0   6   9    3.54    0.60
  -1  -6  -9    6.78    0.97
  -1  -6  -9    8.06    1.68
   1   6   9    7.17    0.82
   1   6   9    5.70    1.09
  -2  -6  -9    0.14    0.64
  -2  -6  -9    0.30    0.30
   2   6   9    0.34    0.39
   2   6   9    0.17    0.26
  -3  -6  -9    0.61    0.51
  -3  -6  -9    0.67    0.37
  -3  -6  -9    0.80    0.78
  -4  -6  -9    2.64    1.10
  -4  -6  -9    2.26    0.60
  -4  -6  -9    2.35    0.88
  -5  -6  -9    1.02    0.71
  -5  -6  -9    0.85    0.76
  -5  -6  -9    0.57    0.40
   5   6   9    0.99    0.40
   5   6   9    0.75    0.39
  -6  -6  -9    1.70    0.60
  -6  -6  -9    1.41    0.87
  -6  -6  -9    1.27    0.83
   6   6   9    1.86    0.52
   6   6   9    1.28    0.46
   6   6   9    1.21    0.40
  -7  -6  -9    0.12    0.69
  -7  -6  -9    0.68    0.65
   7   6   9   -0.08    0.28
   0  -7  -9  135.79    9.39
   0  -7  -9  147.73   11.89
   0   7   9  159.24   10.60
   0   7   9  157.52    9.31
  -1  -7  -9  202.35   14.22
  -1  -7  -9  169.70   11.35
  -2  -7  -9  249.18   17.78
  -2  -7  -9  227.08   14.53
   2   7   9  237.34   14.35
  -3  -7  -9  199.62   15.33
  -3  -7  -9  192.57   12.47
   3   7   9  211.23   12.31
  -4  -7  -9  188.28   14.51
  -4  -7  -9  186.85   11.85
  -4  -7  -9  186.05   13.68
   4   7   9  197.42   11.66
  -5  -7  -9  188.53   13.31
  -5  -7  -9  169.51   10.83
  -5  -7  -9  162.06   12.65
   5   7   9  169.58   10.59
  -6  -7  -9  145.97    9.71
  -6  -7  -9  154.87   11.77
  -6  -7  -9  155.93   11.59
  -7  -7  -9  141.59   10.77
  -7  -7  -9  149.84   10.79
   7   7   9  125.53    8.38
  -3  -8  -9    0.65    0.42
  -3  -8  -9   -0.35    0.65
   3   8   9    0.44    0.32
  -4  -8  -9    5.99    1.00
  -4  -8  -9    6.95    1.81
   4   8   9    5.91    0.86
  -5  -8  -9    0.48    0.43
  -5  -8  -9    0.38    0.89
   5   8   9    0.71    0.37
   4   5 -10   -0.04    0.44
  -4  -5  10   -0.13    0.65
   3   5 -10    0.30    0.57
  -3  -5  10    1.84    0.99
   2   5 -10    2.58    0.74
  -2  -5  10    3.17    1.19
  -2  -5  10    2.17    0.86
   1   5 -10    2.08    0.71
  -1  -5  10    2.77    0.98
  -1  -5  10    2.50    1.11
   0   5 -10    1.46    0.66
   0   5 -10    0.43    0.53
   0  -5  10    0.50    0.62
   0  -5  10    1.34    0.68
   0  -5  10    1.98    0.90
  -1   5 -10   -0.15    0.43
  -1   5 -10   -0.14    0.40
   1  -5  10   -0.85    0.44
   1  -5  10    0.00    0.59
   1  -5  10    0.33    0.54
   5   4 -10  165.09   11.63
  -5  -4  10  166.54   12.42
   4   4 -10  181.42   12.22
  -4  -4  10  166.19   12.77
   3   4 -10  178.93   12.38
  -3  -4  10  177.16   12.98
  -2  -4  10  228.03   14.54
  -2  -4  10  217.73   15.74
   1   4 -10  209.46   12.26
  -1  -4  10  191.64   13.27
  -1  -4  10  200.12   14.25
   0   4 -10  171.47   11.25
   0   4 -10  172.35   10.88
   0  -4  10  178.91   11.44
   0  -4  10  188.37   12.62
   0  -4  10  167.71   11.86
  -1   4 -10  243.23   14.41
  -1   4 -10  217.82   14.74
   1  -4  10  245.68   14.92
   1  -4  10  204.54   15.45
   1  -4  10  266.68   16.36
  -2   4 -10  203.19   12.47
   2  -4  10  205.53   12.58
   2  -4  10  205.85   13.60
   2  -4  10  164.53   13.10
   5   3 -10    0.85    0.62
  -5  -3  10    0.16    0.64
  -5  -3  10    0.43    0.64
   4   3 -10    4.08    1.02
  -4  -3  10    2.93    1.07
   3   3 -10    1.36    0.66
  -3  -3  10    1.04    0.72
  -2  -3  10    0.06    0.48
  -2  -3  10   -0.01    0.38
  -1  -3  10    0.29    0.47
  -1  -3  10    0.48    0.56
   0   3 -10    2.01    0.59
   0   3 -10    0.45    0.42
   0   3 -10    0.39    0.51
   0  -3  10    0.80    0.60
   0  -3  10    0.78    0.49
   0  -3  10    1.86    0.78
  -1   3 -10    3.43    0.85
  -1   3 -10   -0.10    0.51
   1  -3  10   -0.16    0.44
   1  -3  10    0.35    0.42
   1  -3  10   -0.37    0.39
  -2   3 -10    1.27    0.74
  -2   3 -10    1.12    0.57
   2  -3  10    1.69    0.76
   2  -3  10    1.04    0.57
   2  -3  10    0.79    0.69
  -3   3 -10   -0.13    0.48
  -3   3 -10    0.47    0.50
   3  -3  10    0.67    0.71
   3  -3  10   -0.14    0.44
  -4   3 -10    1.74    0.80
  -4   3 -10    1.81    0.73
   4  -3  10    1.96    0.89
   4  -3  10    1.04    0.64
   5   2 -10  179.85   13.06
   5   2 -10  185.86   12.37
  -5  -2  10  192.08   12.50
  -5  -2  10  205.90   13.64
   4   2 -10  240.31   15.13
   4   2 -10  219.01   15.97
  -4  -2  10  240.73   15.24
  -4  -2  10  257.85   16.56
   3   2 -10  189.85   12.72
   3   2 -10  184.30   13.53
  -3  -2  10  224.63   14.03
  -3  -2  10  205.90   12.88
   2   2 -10  207.66   14.38
   2   2 -10  198.13   13.43
  -2  -2  10  225.06   13.53
  -2  -2  10  233.52   14.75
  -2  -2  10  206.63   13.68
  -1  -2  10  373.31   23.21
  -1  -2  10  324.92   21.87
   0   2 -10  346.55   25.14
   0  -2  10  388.26   24.15
   0  -2  10  358.66   22.94
  -1   2 -10  283.12   18.29
  -1   2 -10  282.58   20.92
   1  -2  10  309.10   19.13
   1  -2  10  328.73   20.03
   1  -2  10  293.52   18.38
  -2   2 -10  186.45   12.23
  -2   2 -10  192.01   14.03
   2  -2  10  201.91   13.35
   2  -2  10  190.84   12.38
   2  -2  10  207.32   13.01
  -3   2 -10  293.30   20.27
  -3   2 -10  276.53   17.78
   3  -2  10  296.58   19.22
   3  -2  10  287.68   17.88
   3  -2  10  289.64   18.67
  -4   2 -10  254.09   18.45
  -4   2 -10  274.00   16.29
   4  -2  10  241.34   16.13
   4  -2  10  278.78   17.16
  -5   2 -10  198.64   14.35
  -5   2 -10  199.12   12.53
   5  -2  10  193.12   12.40
   5  -2  10  200.11   13.32
   5   1 -10    2.65    0.82
   5   1 -10    0.64    0.56
  -5  -1  10    0.94    0.75
  -5  -1  10    2.18    0.82
   4   1 -10    0.20    0.42
   4   1 -10    0.16    0.41
  -4  -1  10   -0.41    0.31
  -4  -1  10   -0.35    0.42
   3   1 -10    0.58    0.48
   3   1 -10    0.36    0.38
  -3  -1  10    0.19    0.38
  -3  -1  10    0.50    0.50
   2   1 -10   -0.01    0.32
   2   1 -10   -0.07    0.29
  -2  -1  10   -0.14    0.33
  -2  -1  10   -0.10    0.27
   1   1 -10   10.90    1.52
  -1  -1  10   13.95    1.45
  -1  -1  10   12.57    1.40
  -1  -1  10   11.33    1.47
   0   1 -10    0.31    0.45
   0   1 -10    1.37    0.54
   0  -1  10    1.59    0.53
   0  -1  10    0.98    0.47
   0  -1  10    0.40    0.43
  -1   1 -10    0.11    0.48
   1  -1  10    1.34    0.53
   1  -1  10   -0.16    0.26
  -2   1 -10    6.49    1.06
  -2   1 -10    4.83    1.17
   2  -1  10    4.39    0.93
   2  -1  10    5.15    1.03
   2  -1  10    6.09    1.05
  -3   1 -10    4.98    1.19
  -3   1 -10    7.00    1.16
   3  -1  10    6.42    1.16
   3  -1  10    5.07    1.01
   3  -1  10    6.39    1.10
  -4   1 -10    1.08    0.62
  -4   1 -10    0.92    0.66
   4  -1  10    1.17    0.66
   4  -1  10    0.70    0.49
  -5   1 -10   -0.09    0.48
  -5   1 -10    0.67    0.64
   5  -1  10   -0.08    0.57
   5  -1  10   -0.31    0.34
   5   0 -10  284.15   17.17
   5   0 -10  260.57   18.29
  -5   0  10  268.14   17.17
  -5   0  10  281.87   18.76
   4   0 -10  211.01   15.97
   4   0 -10  235.22   15.10
  -4   0  10  260.71   15.16
  -4   0  10  253.61   16.46
   3   0 -10  303.76   18.80
   3   0 -10  284.68   19.84
  -3   0  10  323.29   18.71
  -3   0  10  299.63   20.21
   2   0 -10  262.48   21.20
   2   0 -10  283.33   19.51
   2   0 -10  291.07   18.38
  -2   0  10  327.34   18.39
  -2   0  10  329.98   19.91
   1   0 -10  228.95   17.09
   1   0 -10  218.71   15.74
   1   0 -10  226.20   14.74
  -1   0  10  257.26   14.78
  -1   0  10  244.13   16.00
  -1   0  10  259.89   15.01
   0   0 -10  213.45   15.96
   0   0 -10  208.90   13.86
   0   0 -10  217.05   15.90
   0   0  10  250.65   13.87
   0   0  10  231.34   15.07
   0   0  10  230.54   14.18
  -1   0 -10  317.70   20.10
  -1   0 -10  316.55   23.15
  -1   0 -10  316.89   23.07
   1   0  10  330.50   20.64
   1   0  10  345.32   20.00
   1   0  10  367.07   21.86
  -2   0 -10  293.60   19.75
   2   0  10  280.94   18.39
   2   0  10  265.43   17.49
  -3   0 -10  402.79   24.14
  -3   0 -10  424.90   27.65
   3   0  10  376.44   24.08
   3   0  10  389.28   24.74
   3   0  10  400.84   25.87
  -4   0 -10  252.61   14.66
  -4   0 -10  229.15   16.76
   4   0  10  230.44   14.50
   4   0  10  230.25   15.03
  -5   0 -10  231.07   13.79
  -5   0 -10  221.60   15.91
   5   0  10  220.20   14.29
   5   0  10  212.26   13.67
  -6   0 -10  257.89   18.80
  -6   0 -10  272.37   16.33
   6   0  10  271.32   17.00
   6   0  10  253.02   16.23
   5  -1 -10    0.03    0.47
   5  -1 -10    0.46    0.50
  -5   1  10    0.62    0.49
  -5   1  10   -0.22    0.47
   4  -1 -10   -0.06    0.40
   4  -1 -10    0.56    0.50
  -4   1  10    0.29    0.48
  -4   1  10    0.46    0.42
   3  -1 -10   14.46    1.81
   3  -1 -10   16.12    1.78
   3  -1 -10   18.77    2.35
  -3   1  10   19.08    1.84
  -3   1  10   17.60    1.91
   2  -1 -10    4.32    0.86
   2  -1 -10    4.59    0.95
   2  -1 -10    4.18    1.15
  -2   1  10    4.99    0.91
   1  -1 -10    8.50    1.39
   1  -1 -10    6.03    1.04
   1  -1 -10    5.44    0.96
  -1   1  10    6.77    0.92
  -1   1  10    7.09    0.96
  -1   1  10    5.32    1.01
   0  -1 -10    0.26    0.39
   0  -1 -10   -0.10    0.23
   0  -1 -10    0.20    0.31
   0  -1 -10   -0.34    0.26
   0   1  10    0.17    0.26
   0   1  10   -0.11    0.21
   0   1  10    0.56    0.35
  -1  -1 -10   -0.04    0.30
  -1  -1 -10   -0.09    0.37
  -1  -1 -10    0.07    0.40
   1   1  10    0.39    0.33
   1   1  10    0.37    0.30
   1   1  10    0.31    0.32
  -2  -1 -10    8.56    1.27
  -2  -1 -10    6.27    1.08
  -2  -1 -10    8.75    1.56
   2   1  10    9.06    0.93
   2   1  10    9.77    1.10
   2   1  10    9.03    1.08
  -3  -1 -10    0.72    0.59
   3   1  10    0.36    0.36
   3   1  10    0.79    0.43
  -4  -1 -10    3.53    1.03
   4   1  10    3.68    0.80
   4   1  10    3.66    0.72
  -5  -1 -10    0.21    0.43
  -5  -1 -10    0.77    0.71
   5   1  10    0.36    0.46
   5   1  10    0.72    0.44
  -6  -1 -10    1.36    0.64
  -6  -1 -10    0.72    0.74
   6   1  10    0.67    0.49
   6   1  10    1.01    0.59
  -7  -1 -10    1.34    0.79
  -7  -1 -10    0.65    0.61
   7   1  10    0.19    0.55
   7   1  10    0.10    0.40
   4  -2 -10  237.90   17.45
   4  -2 -10  273.62   16.45
  -4   2  10  258.92   16.25
  -4   2  10  278.37   17.82
   3  -2 -10  285.50   21.48
   3  -2 -10  299.24   18.15
   3  -2 -10  266.44   19.30
  -3   2  10  327.87   18.16
   2  -2 -10  217.11   13.10
   2  -2 -10  178.46   13.80
   2  -2 -10  220.41   15.49
  -2   2  10  231.25   12.92
  -2   2  10  198.78   14.12
   1  -2 -10  258.34   18.05
   1  -2 -10  217.71   16.22
   1  -2 -10  238.00   15.38
  -1   2  10  273.76   15.17
  -1   2  10  259.31   16.67
   0  -2 -10  209.97   12.75
   0  -2 -10  204.64   14.87
   0  -2 -10  199.93   14.51
   0  -2 -10  181.07   13.34
   0   2  10  224.36   12.49
   0   2  10  203.60   13.68
  -1  -2 -10  352.87   23.26
  -1  -2 -10  335.06   20.24
  -1  -2 -10  333.45   23.52
  -1  -2 -10  284.97   21.37
   1   2  10  342.74   19.97
   1   2  10  352.19   21.83
  -2  -2 -10  367.59   25.55
  -2  -2 -10  353.65   22.07
  -2  -2 -10  348.87   25.41
   2   2  10  386.66   23.77
  -3  -2 -10  310.32   21.08
  -3  -2 -10  291.77   18.21
  -3  -2 -10  298.74   20.99
   3   2  10  294.55   19.46
  -4  -2 -10  284.48   19.80
  -4  -2 -10  300.04   19.95
   4   2  10  269.71   18.27
   4   2  10  272.73   17.60
  -5  -2 -10  309.88   21.25
   5   2  10  291.28   18.83
  -6  -2 -10  210.51   14.81
   6   2  10  194.39   12.96
  -7  -2 -10  139.53   11.03
   7   2  10  150.58    9.70
   3  -3 -10    2.53    0.71
   3  -3 -10    1.69    0.71
   3  -3 -10    3.29    1.19
  -3   3  10    2.16    0.61
  -3   3  10    2.01    0.82
   2  -3 -10    0.15    0.39
   2  -3 -10   -0.44    0.46
  -2   3  10    0.04    0.29
  -2   3  10    0.03    0.38
   1  -3 -10    0.13    0.33
   1  -3 -10    0.18    0.37
   1  -3 -10   -0.01    0.51
  -1   3  10   -0.28    0.32
  -1   3  10    0.30    0.29
   0  -3 -10    2.06    0.60
   0  -3 -10    1.14    0.68
   0   3  10    0.95    0.40
   0   3  10    0.77    0.47
  -1  -3 -10    1.44    0.64
  -1  -3 -10    1.97    0.58
  -1  -3 -10    2.29    0.88
   1   3  10    1.07    0.49
   1   3  10    1.62    0.47
  -2  -3 -10    2.52    0.87
  -2  -3 -10    2.50    0.65
  -2  -3 -10    2.36    0.81
   2   3  10    1.78    0.46
   2   3  10    1.99    0.59
  -3  -3 -10   -0.13    0.26
  -3  -3 -10    0.01    0.46
  -3  -3 -10    0.90    0.62
   3   3  10    0.18    0.31
   3   3  10   -0.07    0.22
  -4  -3 -10    0.09    0.38
  -4  -3 -10   -0.08    0.50
  -4  -3 -10    0.09    0.50
   4   3  10    0.06    0.25
   4   3  10    0.52    0.36
  -5  -3 -10    8.97    1.47
  -5  -3 -10    6.80    1.49
  -6  -3 -10    2.29    1.02
   6   3  10    1.66    0.66
  -7  -3 -10   -0.43    0.52
   7   3  10   -0.56    0.36
   3  -4 -10  204.26   15.65
   3  -4 -10  207.47   12.94
  -3   4  10  203.94   14.29
  -3   4  10  206.35   12.69
   2  -4 -10  203.19   12.92
   2  -4 -10  213.71   15.48
  -2   4  10  206.42   12.61
  -2   4  10  197.81   14.04
   1  -4 -10  293.56   20.97
   1  -4 -10  294.59   17.64
  -1   4  10  277.90   19.09
  -1   4  10  282.03   17.34
   0  -4 -10  306.35   22.35
   0  -4 -10  313.80   18.87
   0   4  10  307.68   18.57
   0   4  10  307.89   20.40
  -1  -4 -10  244.08   14.81
  -1  -4 -10  248.99   17.54
  -1  -4 -10  228.43   16.94
   1   4  10  243.31   14.49
   1   4  10  234.43   15.91
  -2  -4 -10  217.61   15.67
  -2  -4 -10  218.69   13.56
  -2  -4 -10  227.86   16.01
   2   4  10  218.61   13.25
   2   4  10  211.76   14.50
  -3  -4 -10  224.14   17.81
  -3  -4 -10  278.11   18.20
  -3  -4 -10  252.96   15.43
   3   4  10  259.20   15.11
   3   4  10  236.61   16.44
  -4  -4 -10  204.27   14.26
  -4  -4 -10  201.01   12.16
  -4  -4 -10  184.46   14.12
   4   4  10  191.21   12.83
   4   4  10  186.29   11.77
  -5  -4 -10  202.36   15.05
  -5  -4 -10  218.05   15.16
   5   4  10  201.94   13.65
  -6  -4 -10  244.48   18.62
  -6  -4 -10  280.84   18.89
  -7  -4 -10  223.01   15.63
  -7  -4 -10  200.95   15.21
   2  -5 -10    1.16    0.59
   2  -5 -10    1.21    0.81
  -2   5  10    0.97    0.44
  -2   5  10    0.47    0.52
   1  -5 -10    0.13    0.38
   1  -5 -10    0.47    0.65
  -1   5  10   -0.03    0.28
  -1   5  10    0.40    0.48
   0  -5 -10    3.19    1.16
   0  -5 -10    1.29    0.53
   0   5  10    3.37    0.79
   0   5  10    1.18    0.42
  -1  -5 -10    6.42    1.00
  -1  -5 -10    4.53    1.33
   1   5  10    7.20    0.81
   1   5  10    4.36    0.92
  -2  -5 -10    3.52    1.13
  -2  -5 -10    2.59    0.67
  -2  -5 -10    3.13    0.91
   2   5  10    2.92    0.71
   2   5  10    5.48    0.75
  -3  -5 -10    5.21    1.34
  -3  -5 -10    4.84    0.89
  -3  -5 -10    5.67    1.30
   3   5  10    6.34    0.84
   3   5  10    5.08    0.89
  -4  -5 -10    0.43    0.41
  -4  -5 -10   -0.09    0.47
  -4  -5 -10    0.61    0.66
   4   5  10    0.16    0.24
   4   5  10    0.04    0.29
  -5  -5 -10    1.71    0.85
  -5  -5 -10    1.54    0.84
  -5  -5 -10    1.95    0.64
   5   5  10    1.57    0.50
   5   5  10    2.84    0.58
  -6  -5 -10    0.21    0.75
  -6  -5 -10    0.32    0.61
  -7  -5 -10    0.13    0.73
  -7  -5 -10    0.14    0.58
   0  -6 -10  139.05    9.40
   0  -6 -10  135.76   11.58
   0   6  10  155.92    9.19
   0   6  10  157.01   10.34
  -1  -6 -10  194.72   14.80
  -1  -6 -10  188.91   12.17
   1   6  10  197.29   13.24
   1   6  10  199.78   11.97
  -2  -6 -10  192.52   14.34
  -2  -6 -10  169.94   11.78
   2   6  10  202.11   12.83
   2   6  10  193.51   11.63
  -3  -6 -10  178.52   13.55
  -3  -6 -10  209.21   14.35
  -3  -6 -10  172.76   11.70
   3   6  10  188.29   11.52
   3   6  10  192.11   12.61
  -4  -6 -10  235.14   17.56
  -4  -6 -10  258.87   18.14
  -4  -6 -10  230.71   15.08
   4   6  10  253.26   16.16
  -5  -6 -10  151.38   11.29
  -5  -6 -10  149.53   11.36
  -5  -6 -10  140.96    9.41
   5   6  10  145.63    9.87
  -6  -6 -10  168.60   12.57
  -6  -6 -10  163.03   12.57
  -7  -6 -10  190.28   13.65
  -7  -6 -10  169.95   13.38
  -1  -7 -10    5.50    1.56
  -1  -7 -10    4.64    0.91
   1   7  10    5.92    1.16
   1   7  10    6.79    0.91
  -2  -7 -10    6.37    1.64
  -2  -7 -10    3.85    0.82
   2   7  10    5.15    0.80
   2   7  10    4.04    0.94
  -3  -7 -10    0.82    0.45
  -3  -7 -10   -0.05    0.75
   3   7  10    0.66    0.48
   3   7  10    0.19    0.31
  -4  -7 -10    2.91    0.95
  -4  -7 -10    2.42    1.21
  -4  -7 -10    2.79    0.71
   4   7  10    2.69    0.61
   4   7  10    2.89    0.75
  -5  -7 -10    0.51    0.86
  -5  -7 -10    0.34    0.62
  -5  -7 -10    0.87    0.46
   5   7  10    0.94    0.48
   5   7  10    1.02    0.43
  -6  -7 -10    2.50    1.10
  -6  -7 -10    1.11    0.85
  -6  -7 -10    0.56    0.51
   6   7  10    0.95    0.43
   6   7  10    0.69    0.43
   3   4 -11    1.65    0.81
  -3  -4  11    0.11    0.60
  -2  -4  11    0.05    0.64
  -1  -4  11    2.73    1.09
  -1  -4  11    1.83    0.87
   0  -4  11    0.87    0.75
   0  -4  11    1.11    0.76
  -1   4 -11    1.08    0.64
  -1   4 -11    1.21    0.60
   1  -4  11    0.70    0.74
   1  -4  11   -0.25    0.57
   1  -4  11    0.60    0.56
   4   3 -11  196.26   14.93
  -4  -3  11  247.10   15.76
   3   3 -11  216.01   16.16
  -3  -3  11  265.88   16.87
   2   3 -11  198.52   14.64
  -2  -3  11  233.94   15.21
  -1  -3  11  150.64   10.30
  -1  -3  11  154.99   11.05
   0   3 -11  242.47   18.13
   0  -3  11  270.76   17.70
   0  -3  11  262.14   16.79
  -1   3 -11  224.98   17.23
   1  -3  11  253.89   16.71
   1  -3  11  251.71   16.00
  -2   3 -11  197.66   13.12
  -2   3 -11  205.56   15.01
   2  -3  11  223.52   14.41
   2  -3  11  217.49   14.00
   2  -3  11  197.02   13.17
  -3   3 -11  153.15   10.25
  -3   3 -11  161.93   11.75
   3  -3  11  153.02   10.36
   3  -3  11  170.29   11.15
   4   2 -11    2.47    0.86
   4   2 -11    2.14    0.84
  -4  -2  11    2.80    0.95
  -4  -2  11    3.08    1.08
   3   2 -11    1.59    0.70
   3   2 -11    1.23    0.65
  -3  -2  11    1.55    0.80
  -3  -2  11    1.33    0.72
   2   2 -11   -0.12    0.42
  -2  -2  11    1.44    0.70
  -1  -2  11    1.01    0.62
  -1  -2  11    1.52    0.70
   0   2 -11    0.58    0.55
   0  -2  11    0.29    0.53
   0  -2  11    0.65    0.59
  -1   2 -11    0.03    0.47
   1  -2  11    0.75    0.61
   1  -2  11   -0.03    0.44
  -2   2 -11    2.60    0.96
   2  -2  11    2.15    0.86
   2  -2  11    1.87    0.75
  -3   2 -11    2.12    0.72
  -3   2 -11    1.32    0.77
   3  -2  11    0.48    0.63
   3  -2  11    0.93    0.61
   3  -2  11    2.89    0.85
  -4   2 -11    1.02    0.72
  -4   2 -11    0.28    0.53
   4  -2  11    0.12    0.54
   4  -2  11    0.49    0.56
   4   1 -11  228.63   17.52
   4   1 -11  261.86   16.63
  -4  -1  11  281.89   16.76
  -4  -1  11  282.93   18.05
   3   1 -11  184.69   12.94
   3   1 -11  184.68   12.22
  -3  -1  11  198.27   13.20
   2   1 -11  188.74   13.00
   2   1 -11  190.74   13.85
  -2  -1  11  209.16   14.06
  -2  -1  11  232.28   13.09
   1   1 -11  250.44   17.06
   1   1 -11  261.20   18.24
  -1  -1  11  278.53   18.44
  -1  -1  11  294.76   17.04
  -1  -1  11  291.99   17.44
   0   1 -11  317.10   23.98
   0  -1  11  358.41   21.68
   0  -1  11  361.59   22.86
  -1   1 -11  193.88   15.14
   1  -1  11  224.72   14.27
   1  -1  11  212.67   13.57
  -2   1 -11  270.16   19.74
   2  -1  11  277.06   17.73
   2  -1  11  288.61   18.54
  -3   1 -11  283.46   19.70
   3  -1  11  270.02   17.76
   3  -1  11  281.01   18.48
  -4   1 -11  188.60   13.55
  -4   1 -11  195.83   11.90
   4  -1  11  184.34   12.32
   4  -1  11  174.02   11.75
  -5   1 -11  160.11   10.36
  -5   1 -11  165.44   11.93
   5  -1  11  153.69   10.86
   4   0 -11    3.45    1.02
   4   0 -11    3.51    0.99
  -4   0  11    3.76    0.96
  -4   0  11    3.18    1.02
   3   0 -11    0.12    0.44
   3   0 -11   -0.27    0.39
  -3   0  11    0.17    0.46
  -3   0  11    0.01    0.40
   2   0 -11    0.80    0.53
   2   0 -11    0.94    0.57
  -2   0  11    0.59    0.52
  -2   0  11    0.98    0.50
   1   0 -11    3.41    0.88
   1   0 -11    0.82    0.55
   1   0 -11    1.44    0.57
  -1   0  11    1.00    0.53
  -1   0  11    0.41    0.37
  -1   0  11    1.21    0.52
   0   0 -11    2.81    0.69
   0   0 -11    4.14    0.93
   0   0 -11    3.10    0.90
   0   0  11    3.42    0.76
   0   0  11    3.58    0.75
   0   0  11    3.58    0.87
  -1   0 -11   -0.45    0.34
   1   0  11   -0.10    0.31
   1   0  11   -0.13    0.31
  -2   0 -11    0.31    0.58
   2   0  11    0.10    0.40
   2   0  11    0.54    0.44
  -3   0 -11    0.71    0.67
   3   0  11    0.62    0.45
   3   0  11    0.93    0.52
  -4   0 -11    5.79    1.33
   4   0  11    4.48    0.96
  -5   0 -11    0.29    0.61
   5   0  11    0.28    0.49
   4  -1 -11  199.60   12.48
   4  -1 -11  161.46   13.00
  -4   1  11  210.82   12.41
  -4   1  11  196.66   13.37
   3  -1 -11  193.82   12.03
   3  -1 -11  159.49   12.54
  -3   1  11  215.26   12.01
  -3   1  11  175.81   12.72
   2  -1 -11  274.04   16.17
   2  -1 -11  235.44   17.11
   2  -1 -11  237.18   18.78
  -2   1  11  298.25   16.16
  -2   1  11  253.33   17.33
   1  -1 -11  206.61   13.19
   1  -1 -11  208.60   15.39
   1  -1 -11  185.96   14.00
  -1   1  11  213.84   14.21
  -1   1  11  207.37   13.28
  -1   1  11  245.52   13.17
   0  -1 -11  183.85   13.36
   0  -1 -11  191.61   14.43
   0  -1 -11  203.16   14.52
   0  -1 -11  200.22   12.57
   0   1  11  203.64   12.73
   0   1  11  199.24   13.49
   0   1  11  223.90   12.41
  -1  -1 -11  292.40   17.67
  -1  -1 -11  289.42   20.31
  -1  -1 -11  295.66   20.39
   1   1  11  282.78   18.94
   1   1  11  280.50   17.97
  -2  -1 -11  362.99   25.62
  -2  -1 -11  359.36   25.74
   2   1  11  383.61   24.00
   2   1  11  363.47   22.82
  -3  -1 -11  293.28   20.24
   3   1  11  274.61   17.87
   3   1  11  286.92   18.71
  -4  -1 -11  183.10   13.05
   4   1  11  180.02   11.82
   4   1  11  168.52   11.42
  -5  -1 -11  256.65   17.76
   5   1  11  238.07   15.71
  -6  -1 -11  176.06   13.25
   6   1  11  182.11   11.79
   3  -2 -11    1.40    0.62
   3  -2 -11    1.19    0.89
   3  -2 -11    0.60    0.53
  -3   2  11    1.32    0.66
  -3   2  11    1.86    0.66
   2  -2 -11    1.61    0.61
   2  -2 -11    1.35    0.81
   2  -2 -11    1.45    0.66
  -2   2  11    1.96    0.59
  -2   2  11    1.84    0.68
   1  -2 -11    6.45    1.14
   1  -2 -11    6.52    1.42
   1  -2 -11    8.57    1.26
  -1   2  11    9.28    1.02
  -1   2  11    6.00    1.14
   0  -2 -11    1.84    0.60
   0  -2 -11    5.09    1.18
   0  -2 -11    0.52    0.44
   0   2  11    0.92    0.50
   0   2  11    1.07    0.40
  -1  -2 -11    1.01    0.52
  -1  -2 -11    1.43    0.55
  -1  -2 -11    1.36    0.70
  -1  -2 -11    1.41    0.68
   1   2  11    0.84    0.44
   1   2  11    1.00    0.40
  -2  -2 -11    0.67    0.58
  -2  -2 -11    0.14    0.45
  -2  -2 -11    0.71    0.48
   2   2  11    0.35    0.37
   2   2  11    0.03    0.31
  -3  -2 -11    0.80    0.71
  -3  -2 -11    1.10    0.58
   3   2  11    0.84    0.41
  -4  -2 -11   -0.44    0.43
   4   2  11    0.34    0.41
   4   2  11    0.59    0.41
  -5  -2 -11    0.81    0.76
   5   2  11    0.90    0.57
  -6  -2 -11    2.68    1.04
   6   2  11    1.77    0.69
   3  -3 -11  207.48   16.01
   3  -3 -11  212.07   13.30
  -3   3  11  208.21   14.48
  -3   3  11  212.35   13.19
   2  -3 -11  293.94   17.49
   2  -3 -11  269.46   20.51
  -2   3  11  292.33   17.16
  -2   3  11  267.63   18.86
   1  -3 -11  243.48   15.19
   1  -3 -11  249.30   17.87
  -1   3  11  228.76   16.33
  -1   3  11  250.47   14.83
   0  -3 -11  243.33   17.68
   0  -3 -11  246.04   15.05
   0   3  11  237.80   16.19
   0   3  11  239.50   14.70
  -1  -3 -11  239.78   16.90
  -1  -3 -11  211.72   16.45
  -1  -3 -11  237.31   14.42
   1   3  11  228.65   15.47
   1   3  11  238.54   14.12
  -2  -3 -11  181.34   11.19
  -2  -3 -11  171.95   13.00
  -2  -3 -11  177.27   12.99
   2   3  11  174.50   10.88
   2   3  11  176.71   11.93
  -3  -3 -11  267.62   18.30
  -3  -3 -11  253.02   18.40
  -3  -3 -11  250.03   15.77
   3   3  11  255.17   16.86
   3   3  11  251.10   15.49
  -4  -3 -11  279.45   19.49
  -4  -3 -11  280.95   19.62
   4   3  11  262.19   17.90
  -5  -3 -11  292.06   20.81
  -6  -3 -11  160.45   11.15
   6   3  11  131.54    9.47
   2  -4 -11   -0.42    0.53
   2  -4 -11   -0.16    0.42
  -2   4  11    0.24    0.34
  -2   4  11    1.58    0.71
   1  -4 -11    0.93    0.78
   1  -4 -11    1.44    0.63
  -1   4  11    1.07    0.47
  -1   4  11    0.86    0.58
   0  -4 -11    1.97    0.69
   0  -4 -11    1.94    0.99
   0   4  11    1.86    0.56
   0   4  11    2.15    0.70
  -1  -4 -11    0.40    0.64
  -1  -4 -11    0.18    0.37
   1   4  11    0.17    0.36
   1   4  11   -0.27    0.22
  -2  -4 -11    2.58    0.94
  -2  -4 -11    1.92    0.81
  -2  -4 -11    2.08    0.65
   2   4  11    2.18    0.50
   2   4  11    2.30    0.67
  -3  -4 -11    0.39    0.62
  -3  -4 -11    0.62    0.42
  -3  -4 -11   -0.45    0.42
   3   4  11    0.19    0.28
   3   4  11    1.31    0.52
  -4  -4 -11    0.27    0.63
  -4  -4 -11    0.91    0.78
  -4  -4 -11   -0.03    0.36
   4   4  11    0.73    0.43
   4   4  11    0.08    0.29
  -5  -4 -11    0.50    0.72
  -5  -4 -11    0.86    0.76
   5   4  11    0.20    0.35
  -6  -4 -11    0.37    0.72
  -6  -4 -11    0.09    0.64
   1  -5 -11  163.50   12.49
   1  -5 -11  172.08   10.34
  -1   5  11  150.08   11.11
  -1   5  11  152.45    9.94
   0  -5 -11  177.66   11.18
   0  -5 -11  176.74   13.56
   0   5  11  174.78   12.10
   0   5  11  174.32   10.89
  -1  -5 -11  195.49   14.66
  -1  -5 -11  197.54   12.23
   1   5  11  198.49   11.88
   1   5  11  183.10   13.09
  -2  -5 -11  129.25   10.68
  -2  -5 -11  150.33    9.32
  -2  -5 -11  154.23   11.17
   2   5  11  141.71    9.87
   2   5  11  143.80    8.94
  -3  -5 -11  257.72   16.96
  -3  -5 -11  227.87   14.28
  -3  -5 -11  227.80   16.58
   3   5  11  201.94   15.13
   3   5  11  234.00   13.93
  -4  -5 -11  227.33   16.25
  -4  -5 -11  229.50   13.83
  -4  -5 -11  220.25   16.19
   4   5  11  214.58   13.40
   4   5  11  210.71   14.59
  -5  -5 -11  202.96   15.40
  -5  -5 -11  219.72   15.55
   5   5  11  205.23   13.86
  -6  -5 -11  149.14   12.24
  -6  -5 -11  182.23   12.64
  -1  -6 -11    0.14    0.79
  -1  -6 -11   -0.05    0.36
   1   6  11    0.42    0.45
   1   6  11    0.47    0.33
  -2  -6 -11    1.14    0.94
  -2  -6 -11    0.83    0.51
   2   6  11    0.98    0.50
   2   6  11    0.92    0.40
  -3  -6 -11    1.57    0.60
  -3  -6 -11    2.61    1.08
  -3  -6 -11    1.16    0.74
   3   6  11    1.91    0.61
  -4  -6 -11    0.06    0.56
  -4  -6 -11    1.40    0.58
  -4  -6 -11    1.11    0.92
   4   6  11    1.34    0.54
   4   6  11    1.40    0.47
  -5  -6 -11    3.16    1.20
  -5  -6 -11    3.40    1.25
   5   6  11    3.33    0.74
   5   6  11    3.37    0.70
   2   3 -12    0.20    0.56
  -2  -3  12    0.22    0.56
  -1  -3  12    2.92    1.12
  -1  -3  12    4.99    1.16
   0   3 -12    0.19    0.57
   0  -3  12    0.84    0.69
   0  -3  12    0.89    0.72
  -1   3 -12    3.80    1.12
   1  -3  12    4.31    1.14
   1  -3  12    2.80    1.03
   3   2 -12  224.11   16.42
  -3  -2  12  260.34   16.79
   2   2 -12  172.11   13.36
  -2  -2  12  218.77   13.74
  -1  -2  12  272.91   18.25
  -1  -2  12  264.62   17.23
   0   2 -12  225.12   17.73
   0  -2  12  271.97   17.15
   0  -2  12  256.21   16.25
  -1   2 -12  164.59   12.90
   1  -2  12  175.22   11.79
   1  -2  12  188.88   12.37
  -2   2 -12  171.00   13.63
   2  -2  12  194.60   12.94
   2  -2  12  193.72   12.54
  -3   2 -12  151.25   10.99
   3  -2  12  138.89   10.02
   3   1 -12    1.11    0.69
   3   1 -12    0.94    0.66
  -3  -1  12    0.56    0.58
  -3  -1  12    2.25    0.82
   2   1 -12    4.74    1.07
   2   1 -12    3.01    0.96
  -2  -1  12    3.29    0.99
  -2  -1  12    4.35    1.01
   1   1 -12    0.95    0.61
  -1  -1  12    0.91    0.58
  -1  -1  12    0.48    0.51
   0   1 -12    4.66    1.21
   0  -1  12    5.41    1.13
   0  -1  12    5.09    1.04
  -1   1 -12    3.25    1.09
   1  -1  12    3.31    0.89
   1  -1  12    3.40    0.87
  -2   1 -12   -0.69    0.44
   2  -1  12    0.75    0.54
   2  -1  12    0.77    0.52
  -3   1 -12   -0.11    0.63
   3  -1  12    0.05    0.47
   3  -1  12    0.06    0.47
  -4   1 -12    1.58    0.88
   4  -1  12    2.24    0.82
   3   0 -12  148.80   11.54
   3   0 -12  172.16   11.10
  -3   0  12  156.75   11.72
  -3   0  12  194.30   11.09
   2   0 -12  249.01   17.20
   2   0 -12  249.39   16.22
  -2   0  12  245.89   17.33
  -2   0  12  283.59   16.13
   1   0 -12  202.30   15.17
   1   0 -12  227.42   14.30
  -1   0  12  216.08   15.30
  -1   0  12  234.97   14.18
  -1   0  12  249.36   14.41
   0   0 -12  184.54   15.05
   0   0 -12  202.80   14.15
   0   0  12  232.68   13.43
   0   0  12  212.56   13.07
   0   0  12  213.85   14.24
  -1   0 -12  218.81   15.94
   1   0  12  215.84   14.80
   1   0  12  225.78   14.04
  -2   0 -12  218.57   17.00
   2   0  12  239.07   15.76
   2   0  12  248.69   15.08
  -3   0 -12  232.02   16.24
   3   0  12  235.79   14.93
   3   0  12  201.81   14.24
  -4   0 -12  243.39   16.66
   4   0  12  217.08   14.76
   3  -1 -12   -0.38    0.42
   3  -1 -12    0.29    0.50
  -3   1  12    0.20    0.46
  -3   1  12    0.01    0.42
   2  -1 -12    0.74    0.54
   2  -1 -12    0.49    0.47
   2  -1 -12    0.21    0.58
  -2   1  12    0.17    0.41
  -2   1  12    0.09    0.44
   1  -1 -12    3.40    0.81
   1  -1 -12    3.92    1.11
   1  -1 -12    2.93    0.86
  -1   1  12    2.81    0.80
  -1   1  12    2.54    0.73
   0  -1 -12    0.35    0.39
   0  -1 -12    0.46    0.53
   0  -1 -12    0.11    0.40
   0   1  12   -0.04    0.33
   0   1  12    0.30    0.38
   0   1  12    0.29    0.36
  -1  -1 -12    0.44    0.41
  -1  -1 -12    0.49    0.49
  -1  -1 -12    0.51    0.54
   1   1  12    0.43    0.43
   1   1  12    0.31    0.38
   1   1  12   -0.05    0.33
  -2  -1 -12   -0.31    0.47
   2   1  12    0.08    0.42
   2   1  12    0.82    0.48
  -3  -1 -12    1.67    0.90
   3   1  12    0.81    0.53
   3   1  12    1.16    0.54
  -4  -1 -12   -0.25    0.60
   4   1  12    0.33    0.51
  -5  -1 -12    0.12    0.61
   5   1  12   -0.27    0.38
   2  -2 -12  210.26   12.62
   2  -2 -12  201.83   14.92
   2  -2 -12  169.99   13.30
  -2   2  12  184.82   13.43
  -2   2  12  220.40   12.53
   1  -2 -12  212.84   14.97
   1  -2 -12  197.22   12.71
  -1   2  12  212.68   12.52
  -1   2  12  183.40   13.58
   0  -2 -12  245.79   17.35
   0  -2 -12  246.55   14.99
   0   2  12  217.24   15.93
   0   2  12  248.93   14.64
  -1  -2 -12  209.53   13.04
  -1  -2 -12  212.34   15.06
  -1  -2 -12  206.00   15.06
   1   2  12  209.70   12.68
   1   2  12  196.80   13.83
  -2  -2 -12  299.62   17.74
  -2  -2 -12  293.34   20.55
  -2  -2 -12  299.47   20.42
   2   2  12  274.16   17.28
   2   2  12  289.10   18.89
   2   2  12  268.68   17.93
  -3  -2 -12  219.98   15.28
   3   2  12  199.74   13.68
   3   2  12  200.39   13.13
  -4  -2 -12  231.14   15.72
   4   2  12  197.19   13.59
   4   2  12  213.86   14.15
  -5  -2 -12  171.58   11.60
   5   2  12  134.81    9.86
   2  -3 -12    2.90    0.80
   2  -3 -12    2.51    1.10
  -2   3  12    2.33    0.67
  -2   3  12    2.15    0.78
   1  -3 -12    0.73    0.68
   1  -3 -12    0.14    0.47
  -1   3  12    0.38    0.48
  -1   3  12    0.55    0.37
   0  -3 -12    0.39    0.48
   0  -3 -12   -0.16    0.56
   0   3  12   -0.17    0.25
   0   3  12    0.23    0.41
  -1  -3 -12    0.08    0.57
  -1  -3 -12    0.08    0.46
  -1  -3 -12   -0.01    0.42
   1   3  12    0.58    0.37
   1   3  12    0.03    0.32
  -2  -3 -12    4.24    0.93
  -2  -3 -12    3.91    1.16
  -2  -3 -12    5.56    1.26
   2   3  12    4.16    0.90
   2   3  12    4.01    0.74
  -3  -3 -12    0.08    0.45
  -3  -3 -12   -0.05    0.58
  -3  -3 -12    0.33    0.61
   3   3  12   -0.10    0.28
   3   3  12   -0.04    0.28
  -4  -3 -12    0.21    0.68
  -4  -3 -12   -0.63    0.41
   4   3  12    0.21    0.35
  -5  -3 -12    2.86    1.08
   5   3  12    1.27    0.62
   1  -4 -12  131.82   10.31
   1  -4 -12  135.48    8.67
  -1   4  12  125.11    8.19
  -1   4  12  125.55    9.27
   0  -4 -12  233.83   14.06
   0  -4 -12  228.70   16.62
   0   4  12  205.65   15.04
  -1  -4 -12  176.91   12.86
  -1  -4 -12  175.60   10.84
   1   4  12  161.97   11.55
   1   4  12  159.90   10.44
  -2  -4 -12  191.37   11.56
  -2  -4 -12  190.00   13.56
  -2  -4 -12  178.72   13.39
   2   4  12  166.99   11.16
   2   4  12  178.84   12.31
  -3  -4 -12  172.50   13.28
  -3  -4 -12  188.47   13.22
  -3  -4 -12  188.23   11.36
   3   4  12  168.89   10.96
   3   4  12  170.11   12.00
  -4  -4 -12  196.15   14.89
  -4  -4 -12  209.28   14.67
   4   4  12  193.59   13.35
  -5  -4 -12  212.34   15.97
  -5  -4 -12  229.15   16.33
  -1  -5 -12    1.76    0.69
  -1  -5 -12    1.44    0.98
   1   5  12    1.60    0.66
   1   5  12    0.85    0.45
  -2  -5 -12    0.15    0.41
  -2  -5 -12    0.58    0.65
  -2  -5 -12   -0.14    0.66
   2   5  12   -0.10    0.26
   2   5  12    0.84    0.52
  -3  -5 -12    3.20    1.12
  -3  -5 -12    3.04    0.82
  -3  -5 -12    2.72    1.06
   3   5  12    2.79    0.62
   3   5  12    2.24    0.70
  -4  -5 -12    2.75    0.84
  -4  -5 -12    5.57    1.36
  -4  -5 -12    3.67    1.21
   4   5  12    2.35    0.71
   4   5  12    3.11    0.65
  -5  -5 -12    0.24    0.72
  -5  -5 -12    0.43    0.74
   5   5  12    0.66    0.47
   0  -2  13    0.22    0.59
   1   1 -13  201.08   14.43
  -1  -1  13  218.51   14.47
   0   1 -13  153.90   12.46
   0  -1  13  179.01   11.19
   0  -1  13  171.24   11.72
  -1   1 -13  171.91   13.03
   1  -1  13  174.53   11.61
   1  -1  13  180.54   12.17
  -2   1 -13  124.66    9.97
   2  -1  13  131.48    9.19
   2  -1  13  129.97    8.86
   1   0 -13    1.00    0.69
  -1   0  13    2.58    0.80
   0   0 -13    1.94    0.82
   0   0  13    1.69    0.71
   0   0  13    1.43    0.66
  -1   0 -13    0.95    0.72
   1   0  13   -0.01    0.41
   1   0  13    0.29    0.49
  -2   0 -13    0.00    0.60
   2   0  13   -0.38    0.37
   2   0  13    0.41    0.49
  -3   0 -13    2.12    0.99
   3   0  13    2.43    0.81
   1  -1 -13  264.46   15.91
   1  -1 -13  240.83   16.93
   1  -1 -13  255.32   18.40
  -1   1  13  282.60   15.82
  -1   1  13  223.51   16.93
   0  -1 -13  228.77   14.07
   0  -1 -13  239.50   16.31
   0  -1 -13  202.81   15.04
   0   1  13  236.22   13.94
   0   1  13  230.59   14.20
   0   1  13  205.82   15.06
  -1  -1 -13  206.42   15.19
  -1  -1 -13  208.95   14.05
   1   1  13  202.90   14.01
   1   1  13  210.24   13.22
  -2  -1 -13  200.65   14.75
   2   1  13  200.21   13.47
   2   1  13  196.38   12.76
  -3  -1 -13  157.14   11.66
   3   1  13  147.06    9.92
   3   1  13  150.68   10.36
  -4  -1 -13  124.31    9.21
   4   1  13  106.99    7.72
   1  -2 -13    1.74    0.67
   1  -2 -13    0.82    0.80
  -1   2  13    1.51    0.62
  -1   2  13    1.59    0.65
   0  -2 -13   -0.17    0.38
   0  -2 -13   -0.47    0.42
   0   2  13   -0.14    0.37
   0   2  13   -0.49    0.28
   0   2  13    0.26    0.42
  -1  -2 -13    0.02    0.45
  -1  -2 -13    0.63    0.65
  -1  -2 -13    0.58    0.59
   1   2  13   -0.34    0.28
   1   2  13    0.31    0.42
   1   2  13    0.06    0.39
  -2  -2 -13   -0.01    0.59
   2   2  13    0.74    0.51
   2   2  13    1.55    0.59
  -3  -2 -13    3.80    1.25
   3   2  13    3.19    0.80
   3   2  13    2.94    0.77
  -4  -2 -13    0.22    0.63
   4   2  13   -0.77    0.29
   4   2  13    0.15    0.44
   0  -3 -13  166.59   11.87
   0  -3 -13  166.04   10.18
   0   3  13  153.27    9.73
   0   3  13  136.06   10.63
  -1  -3 -13  194.69   12.15
  -1  -3 -13  204.61   14.15
   1   3  13  181.85   12.83
   1   3  13  178.78   11.65
  -2  -3 -13  180.28   12.67
  -2  -3 -13  172.44   12.78
  -2  -3 -13  182.86   11.01
   2   3  13  156.91   11.45
   2   3  13  157.61   10.44
  -3  -3 -13  167.89   11.97
  -3  -3 -13  162.60   11.50
   3   3  13  135.86   10.37
  -4  -3 -13  181.97   12.33
   4   3  13  152.79   10.57
   4   3  13  142.54   10.18
  -1  -4 -13    0.63    0.79
  -1  -4 -13    1.33    0.69
   1   4  13    1.86    0.55
   1   4  13    1.02    0.60
  -2  -4 -13   -0.08    0.69
  -2  -4 -13    0.09    0.54
  -2  -4 -13   -0.12    0.45
   2   4  13   -0.01    0.38
   2   4  13   -0.02    0.32
  -3  -4 -13    2.00    0.77
  -3  -4 -13    2.07    1.04
  -3  -4 -13    2.63    0.98
   3   4  13    1.69    0.56
   3   4  13    1.19    0.60
   0   0   0    0.00    0.00
;
_shelx_hkl_checksum              24422
#END Tags that were not found in dictionaries
loop_
_space_group_symop_operation_xyz
'x, y, z'
'-x, -y, -z'
loop_
_atom_site_label
_atom_site_type_symbol
_atom_site_fract_x
_atom_site_fract_y
_atom_site_fract_z
_atom_site_U_iso_or_equiv
_atom_site_adp_type
_atom_site_occupancy
_atom_site_site_symmetry_order
_atom_site_calc_flag
_atom_site_refinement_flags_posn
_atom_site_refinement_flags_occupancy
Np1 Np 0.5000 0.5000 0.5000 0.00818(12) Uani 1 2 d S P
Np2 Np 0.5000 0.0000 1.0000 0.00971(12) Uani 1 2 d S P
N1 N 0.1740(3) 0.8843(3) 0.6106(2) 0.0149(5) Uani 1 1 d . .
N2 N 0.2575(4) -0.2332(4) 0.9542(3) 0.0179(5) Uani 1 1 d . .
O1 O 0.4012(3) 0.5893(3) 0.34039(19) 0.0185(4) Uani 1 1 d . .
O2 O 0.3498(3) 0.8800(3) 0.5537(2) 0.0178(4) Uani 1 1 d . .
O3 O 0.0366(5) 1.0398(4) 0.6596(4) 0.0241(6) Uani 1 1 d . .
O4 O 0.1497(3) 0.7171(3) 0.6121(2) 0.0195(4) Uani 1 1 d . .
O5 O 0.2595(7) 0.3309(7) 0.5610(5) 0.0217(8) Uani 1 1 d . .
O6 O 0.3119(3) 0.2237(3) 0.9193(2) 0.0232(5) Uani 1 1 d . .
O7 O 0.2343(8) -0.1534(8) 1.0657(4) 0.0208(8) Uani 1 1 d . .
O8 O 0.1507(4) -0.3207(4) 0.9328(2) 0.0284(5) Uani 1 1 d . .
O9 O 0.3989(3) -0.2121(4) 0.8664(2) 0.0263(5) Uani 1 1 d . .
O10 O 0.2915(3) 0.1001(3) 1.2172(2) 0.0202(5) Uani 1 1 d . .
O11 O 0.9330(4) 0.4716(4) 0.7679(3) 0.0192(5) Uani 1 1 d . .
H5A H 0.294(7) 0.218(7) 0.552(4) 0.034(11) Uiso 1 1 d . .
H5B H 0.161(10) 0.370(10) 0.612(6) 0.07(2) Uiso 1 1 d . .
H10A H 0.190(9) 0.043(9) 1.266(5) 0.071(15) Uiso 1 1 d . .
H10B H 0.241(8) 0.221(8) 1.230(5) 0.051(13) Uiso 1 1 d . .
H11A H 0.867(9) 0.397(9) 0.782(6) 0.075(18) Uiso 1 1 d . .
H11B H 0.994(12) 0.447(12) 0.864(8) 0.08(3) Uiso 1 1 d . .
loop_
_atom_site_aniso_label
_atom_site_aniso_U_11
_atom_site_aniso_U_22
_atom_site_aniso_U_33
_atom_site_aniso_U_23
_atom_site_aniso_U_13
_atom_site_aniso_U_12
Np1 0.00554(14) 0.00940(15) 0.00956(15) -0.00179(8) 0.00052(8) -0.00316(9)
Np2 0.00600(14) 0.01186(15) 0.00979(16) -0.00065(8) -0.00009(9) -0.00260(10)
N1 0.0133(10) 0.0168(10) 0.0150(11) -0.0025(8) 0.0038(8) -0.0079(8)
N2 0.0180(10) 0.0198(11) 0.0179(12) -0.0024(9) 0.0009(9) -0.0104(9)
O1 0.0168(9) 0.0232(10) 0.0143(10) -0.0011(8) -0.0027(7) -0.0070(8)
O2 0.0128(8) 0.0186(9) 0.0227(11) -0.0048(8) 0.0058(8) -0.0087(7)
O3 0.0172(11) 0.0147(10) 0.0355(17) -0.0099(11) 0.0112(12) -0.0039(8)
O4 0.0150(9) 0.0160(9) 0.0287(11) -0.0072(8) 0.0058(8) -0.0085(7)
O5 0.0169(14) 0.0158(14) 0.034(2) -0.0101(13) 0.0122(13) -0.0105(12)
O6 0.0160(9) 0.0222(10) 0.0260(12) 0.0029(8) -0.0044(8) -0.0037(8)
O7 0.0244(18) 0.0314(18) 0.0123(16) -0.0063(13) 0.0047(13) -0.0177(15)
O8 0.0309(12) 0.0367(12) 0.0295(13) -0.0071(10) -0.0007(10) -0.0247(10)
O9 0.0267(11) 0.0420(13) 0.0186(11) -0.0116(9) 0.0086(9) -0.0227(10)
O10 0.0158(9) 0.0228(10) 0.0210(11) -0.0064(8) 0.0070(8) -0.0085(8)
O11 0.0163(10) 0.0219(10) 0.0210(13) -0.0021(9) -0.0009(9) -0.0097(8)
loop_
_atom_type_symbol
_atom_type_description
_atom_type_scat_dispersion_real
_atom_type_scat_dispersion_imag
_atom_type_scat_source
H H 0.0000 0.0000 'International Tables Vol C Tables 4.2.6.8 and 6.1.1.4'
N N 0.0061 0.0033 'International Tables Vol C Tables 4.2.6.8 and 6.1.1.4'
O O 0.0106 0.0060 'International Tables Vol C Tables 4.2.6.8 and 6.1.1.4'
Np Np -11.4937 4.1493 'International Tables Vol C Tables 4.2.6.8 and 6.1.1.4'
loop_
_geom_angle_atom_site_label_1
_geom_angle_atom_site_label_2
_geom_angle_atom_site_label_3
_geom_angle
_geom_angle_site_symmetry_1
_geom_angle_site_symmetry_3
O1 Np1 O1 180.00(5) . 2_666
O1 Np1 O5 89.54(14) . 2_666
O1 Np1 O5 90.46(14) 2_666 2_666
O1 Np1 O5 90.46(14) . .
O1 Np1 O5 89.54(14) 2_666 .
O5 Np1 O5 180.0 2_666 .
O1 Np1 O4 89.74(8) . 2_666
O1 Np1 O4 90.26(8) 2_666 2_666
O5 Np1 O4 64.20(11) 2_666 2_666
O5 Np1 O4 115.80(11) . 2_666
O1 Np1 O4 90.26(8) . .
O1 Np1 O4 89.74(8) 2_666 .
O5 Np1 O4 115.80(11) 2_666 .
O5 Np1 O4 64.20(11) . .
O4 Np1 O4 180.0 2_666 .
O1 Np1 O2 88.06(8) . .
O1 Np1 O2 91.94(8) 2_666 .
O5 Np1 O2 64.91(11) 2_666 .
O5 Np1 O2 115.09(11) . .
O4 Np1 O2 129.07(6) 2_666 .
O4 Np1 O2 50.93(6) . .
O1 Np1 O2 91.94(8) . 2_666
O1 Np1 O2 88.06(8) 2_666 2_666
O5 Np1 O2 115.09(11) 2_666 2_666
O5 Np1 O2 64.91(11) . 2_666
O4 Np1 O2 50.93(6) 2_666 2_666
O4 Np1 O2 129.07(6) . 2_666
O2 Np1 O2 180.0 . 2_666
O1 Np1 N1 90.44(8) . 2_666
O1 Np1 N1 89.56(8) 2_666 2_666
O5 Np1 N1 89.48(11) 2_666 2_666
O5 Np1 N1 90.52(11) . 2_666
O4 Np1 N1 25.29(6) 2_666 2_666
O4 Np1 N1 154.71(6) . 2_666
O2 Np1 N1 154.35(6) . 2_666
O2 Np1 N1 25.65(6) 2_666 2_666
O1 Np1 N1 89.56(8) . .
O1 Np1 N1 90.44(8) 2_666 .
O5 Np1 N1 90.52(11) 2_666 .
O5 Np1 N1 89.48(11) . .
O4 Np1 N1 154.71(6) 2_666 .
O4 Np1 N1 25.29(6) . .
O2 Np1 N1 25.65(6) . .
O2 Np1 N1 154.35(6) 2_666 .
N1 Np1 N1 180.00(7) 2_666 .
O6 Np2 O6 180.0 2_657 .
O6 Np2 O10 89.02(9) 2_657 2_657
O6 Np2 O10 90.98(9) . 2_657
O6 Np2 O10 90.98(9) 2_657 .
O6 Np2 O10 89.02(9) . .
O10 Np2 O10 180.00(11) 2_657 .
O6 Np2 O9 87.52(9) 2_657 2_657
O6 Np2 O9 92.48(9) . 2_657
O10 Np2 O9 115.95(7) 2_657 2_657
O10 Np2 O9 64.05(7) . 2_657
O6 Np2 O9 92.48(9) 2_657 .
O6 Np2 O9 87.52(9) . .
O10 Np2 O9 64.05(7) 2_657 .
O10 Np2 O9 115.95(7) . .
O9 Np2 O9 180.0 2_657 .
O6 Np2 O7 91.29(14) 2_657 2_657
O6 Np2 O7 88.71(14) . 2_657
O10 Np2 O7 65.45(11) 2_657 2_657
O10 Np2 O7 114.55(11) . 2_657
O9 Np2 O7 50.75(11) 2_657 2_657
O9 Np2 O7 129.25(11) . 2_657
O6 Np2 O7 88.72(14) 2_657 .
O6 Np2 O7 91.29(14) . .
O10 Np2 O7 114.55(11) 2_657 .
O10 Np2 O7 65.45(11) . .
O9 Np2 O7 129.25(11) 2_657 .
O9 Np2 O7 50.75(11) . .
O7 Np2 O7 180.0 2_657 .
O6 Np2 N2 91.35(9) 2_657 .
O6 Np2 N2 88.65(9) . .
O10 Np2 N2 89.40(7) 2_657 .
O10 Np2 N2 90.60(7) . .
O9 Np2 N2 154.58(6) 2_657 .
O9 Np2 N2 25.42(6) . .
O7 Np2 N2 154.65(11) 2_657 .
O7 Np2 N2 25.35(11) . .
O6 Np2 N2 88.65(9) 2_657 2_657
O6 Np2 N2 91.35(9) . 2_657
O10 Np2 N2 90.60(7) 2_657 2_657
O10 Np2 N2 89.40(7) . 2_657
O9 Np2 N2 25.42(6) 2_657 2_657
O9 Np2 N2 154.58(6) . 2_657
O7 Np2 N2 25.35(11) 2_657 2_657
O7 Np2 N2 154.65(11) . 2_657
N2 Np2 N2 180.0 . 2_657
O3 N1 O4 121.8(2) . .
O3 N1 O2 122.3(2) . .
O4 N1 O2 115.9(2) . .
O3 N1 Np1 177.9(2) . .
O4 N1 Np1 56.43(11) . .
O2 N1 Np1 59.51(12) . .
O8 N2 O7 122.2(3) . .
O8 N2 O9 122.7(2) . .
O7 N2 O9 115.1(3) . .
O8 N2 Np2 177.0(2) . .
O7 N2 Np2 57.9(2) . .
O9 N2 Np2 57.24(13) . .
N1 O2 Np1 94.84(14) . .
N1 O4 Np1 98.28(14) . .
Np1 O5 H5A 122(3) . .
Np1 O5 H5B 125(5) . .
H5A O5 H5B 110(5) . .
N2 O7 Np2 96.8(3) . .
N2 O9 Np2 97.35(15) . .
Np2 O10 H10A 127(3) . .
Np2 O10 H10B 117(3) . .
H10A O10 H10B 107(4) . .
H11A O11 H11B 100(5) . .
loop_
_geom_bond_atom_site_label_1
_geom_bond_atom_site_label_2
_geom_bond_distance
_geom_bond_site_symmetry_2
Np1 O1 1.7450(19) .
Np1 O1 1.7450(19) 2_666
Np1 O5 2.429(4) 2_666
Np1 O5 2.429(4) .
Np1 O4 2.4651(18) 2_666
Np1 O4 2.4651(18) .
Np1 O2 2.5319(18) .
Np1 O2 2.5319(18) 2_666
Np1 N1 2.928(2) 2_666
Np1 N1 2.928(2) .
Np2 O6 1.7433(19) 2_657
Np2 O6 1.7433(19) .
Np2 O10 2.435(2) 2_657
Np2 O10 2.435(2) .
Np2 O9 2.493(2) 2_657
Np2 O9 2.493(2) .
Np2 O7 2.507(4) 2_657
Np2 O7 2.507(4) .
Np2 N2 2.940(2) .
Np2 N2 2.940(2) 2_657
N1 O3 1.214(3) .
N1 O4 1.264(3) .
N1 O2 1.272(3) .
N2 O8 1.211(3) .
N2 O7 1.268(5) .
N2 O9 1.272(3) .
O5 H5A 0.74(5) .
O5 H5B 0.76(6) .
O10 H10A 1.00(6) .
O10 H10B 0.80(5) .
O11 H11A 0.83(6) .
O11 H11B 1.07(8) .
