#------------------------------------------------------------------------------
#$Date: 2016-03-25 22:48:39 +0200 (Fri, 25 Mar 2016) $
#$Revision: 180016 $
#$URL: svn://www.crystallography.net/cod/cif/7/03/10/7031033.cif $
#------------------------------------------------------------------------------
#
# This file is available in the Crystallography Open Database (COD),
# http://www.crystallography.net/
#
# All data on this site have been placed in the public domain by the
# contributors.
#
data_7031033
loop_
_publ_author_name
'Dauer, David-R'
'Stalke, Dietmar'
_publ_section_title
;
 Heterocyclic substituted methanides as promising alternatives to the
 ubiquitous nacnac ligand.
;
_journal_issue                   38
_journal_name_full
'Dalton transactions (Cambridge, England : 2003)'
_journal_page_first              14432
_journal_page_last               14439
_journal_paper_doi               10.1039/c4dt01008f
_journal_volume                  43
_journal_year                    2014
_chemical_formula_moiety         'C17 H15 Al N2 S2'
_chemical_formula_sum            'C17 H15 Al N2 S2'
_chemical_formula_weight         338.41
_chemical_name_systematic
;
 ?
;
_space_group_crystal_system      triclinic
_space_group_IT_number           2
_space_group_name_Hall           '-P 1'
_space_group_name_H-M_alt        'P -1'
_symmetry_space_group_name_Hall  '-P 1'
_symmetry_space_group_name_H-M   'P -1'
_atom_sites_solution_hydrogens   geom
_audit_creation_method           SHELXL-2013
_cell_angle_alpha                90.500(10)
_cell_angle_beta                 93.120(10)
_cell_angle_gamma                93.44(2)
_cell_formula_units_Z            2
_cell_length_a                   7.1260(10)
_cell_length_b                   7.6960(10)
_cell_length_c                   14.730(2)
_cell_measurement_reflns_used    3319
_cell_measurement_temperature    100(2)
_cell_measurement_theta_max      26.381
_cell_measurement_theta_min      2.652
_cell_volume                     805.11(19)
_computing_structure_refinement  'SHELXL-2013 (Sheldrick, 2013)'
_diffrn_ambient_temperature      100(2)
_diffrn_measured_fraction_theta_full 0.999
_diffrn_measured_fraction_theta_max 0.998
_diffrn_measurement_device_type  'Bruker SMART APEXII Ultra'
_diffrn_measurement_method       omega-scans
_diffrn_radiation_monochromator  mirror
_diffrn_radiation_source         'Mo rotating-anode'
_diffrn_radiation_type           MoK\a
_diffrn_radiation_wavelength     0.71073
_diffrn_reflns_av_R_equivalents  0.0421
_diffrn_reflns_av_unetI/netI     0.0270
_diffrn_reflns_Laue_measured_fraction_full 0.999
_diffrn_reflns_Laue_measured_fraction_max 0.998
_diffrn_reflns_limit_h_max       8
_diffrn_reflns_limit_h_min       -8
_diffrn_reflns_limit_k_max       9
_diffrn_reflns_limit_k_min       -9
_diffrn_reflns_limit_l_max       18
_diffrn_reflns_limit_l_min       0
_diffrn_reflns_number            34844
_diffrn_reflns_point_group_measured_fraction_full 0.999
_diffrn_reflns_point_group_measured_fraction_max 0.998
_diffrn_reflns_theta_full        25.242
_diffrn_reflns_theta_max         26.471
_diffrn_reflns_theta_min         1.385
_exptl_absorpt_coefficient_mu    0.382
_exptl_absorpt_correction_T_max  0.745381
_exptl_absorpt_correction_T_min  0.683677
_exptl_absorpt_correction_type   multi-scan
_exptl_absorpt_process_details   TWINABS-2008/2
_exptl_crystal_colour            yellow
_exptl_crystal_density_diffrn    1.396
_exptl_crystal_description       plate
_exptl_crystal_F_000             352
_exptl_crystal_size_max          0.120
_exptl_crystal_size_mid          0.100
_exptl_crystal_size_min          0.100
_refine_diff_density_max         0.435
_refine_diff_density_min         -0.308
_refine_diff_density_rms         0.060
_refine_ls_extinction_method     none
_refine_ls_goodness_of_fit_ref   1.034
_refine_ls_hydrogen_treatment    constr
_refine_ls_matrix_type           full
_refine_ls_number_parameters     201
_refine_ls_number_reflns         3313
_refine_ls_number_restraints     231
_refine_ls_restrained_S_all      1.001
_refine_ls_R_factor_all          0.0354
_refine_ls_R_factor_gt           0.0320
_refine_ls_shift/su_max          0.001
_refine_ls_shift/su_mean         0.000
_refine_ls_structure_factor_coef Fsqd
_refine_ls_weighting_details
;
 w=1/[\s^2^(Fo^2^)+(0.0545P)^2^+0.1787P]
 where P=(Fo^2^+2Fc^2^)/3
;
_refine_ls_weighting_scheme      calc
_refine_ls_wR_factor_gt          0.0867
_refine_ls_wR_factor_ref         0.0897
_reflns_Friedel_coverage         0.000
_reflns_number_gt                2997
_reflns_number_total             3313
_reflns_threshold_expression     'I > 2\s(I)'
_cod_data_source_file            c4dt01008f2.cif
_cod_data_source_block           ddauer_4
_cod_depositor_comments
'Adding full bibliography for 7031030--7031038.cif.'
_cod_database_code               7031033
#BEGIN Tags that were not found in dictionaries:
_shelx_space_group_comment
;
The symmetry employed for this shelxl refinement is uniquely defined
by the following loop, which should always be used as a source of
symmetry information in preference to the above space-group names.
They are only intended as comments.
;
_shelx_estimated_absorpt_t_min   0.956
_shelx_estimated_absorpt_t_max   0.963
_shelxl_version_number           2013-2
_shelx_res_file
;
REM Solution 1  R1  0.079,  Alpha = 0.0976  in P-1
REM C17 N2 Al S2
TITL twin4 in P-1
CELL  0.71073   7.126   7.696  14.730   90.50   93.12   93.44
ZERR    2.00   0.001   0.001   0.002   0.01   0.01   0.02
LATT  1
SFAC C H N AL S
UNIT 34 30 4 2 4
TEMP -173.00
SIZE 0.12 0.10 0.10
L.S. 10
BOND $H
LIST 4
ACTA
FMAP 2
PLAN 40
RIGU
omit 0   3   0
omit  7   0   0
omit 8   0   7
mpla 10 c2 s1 c3 c4 c5 c6 c7 c8 n1 c1
mpla c2 c1 c9
mpla 10 c9 s2 c10 c11 c12 c13 c14 c15 n2 c1
mpla 5 n2 c9 c1 c2 n2 al1
conf
SAME c1 al1 c9 > n2
WGHT    0.054500    0.178700
FVAR       0.71317
C1    1    0.229499   -0.192117    0.216667    11.00000    0.02150    0.01256 =
         0.01843    0.00163    0.00173    0.00133
AFIX  43
H1    2    0.217112   -0.314816    0.207984    11.00000   -1.20000
AFIX   0
AL1   4    0.251202    0.233517    0.246429    11.00000    0.01482    0.01179 =
         0.01469    0.00116    0.00128    0.00050
C2    1    0.235762   -0.126393    0.305115    11.00000    0.01573    0.01486 =
         0.01973    0.00509    0.00222    0.00159
S1    5    0.227143   -0.267414    0.397302    11.00000    0.02696    0.01527 =
         0.01737    0.00479    0.00240    0.00172
C3    1    0.241555   -0.091650    0.472814    11.00000    0.01745    0.01978 =
         0.01945    0.00197    0.00074    0.00119
C4    1    0.242726   -0.093418    0.566910    11.00000    0.02574    0.02791 =
         0.01862    0.00704    0.00137    0.00124
AFIX  43
H4    2    0.235488   -0.200209    0.598760    11.00000   -1.20000
AFIX   0
C5    1    0.254740    0.064753    0.613412    11.00000    0.02750    0.03600 =
         0.01456    0.00150    0.00110    0.00001
AFIX  43
H5    2    0.256549    0.066485    0.677951    11.00000   -1.20000
AFIX   0
C6    1    0.264171    0.220937    0.566451    11.00000    0.02407    0.02886 =
         0.02029   -0.00463    0.00042   -0.00048
AFIX  43
H6    2    0.271725    0.328019    0.599404    11.00000   -1.20000
AFIX   0
C7    1    0.262704    0.222546    0.472406    11.00000    0.02050    0.02044 =
         0.02049    0.00011    0.00128   -0.00035
AFIX  43
H7    2    0.269000    0.329579    0.440750    11.00000   -1.20000
AFIX   0
C8    1    0.251831    0.064405    0.425010    11.00000    0.01490    0.01914 =
         0.01645    0.00276    0.00125    0.00030
N1    3    0.248456    0.043231    0.330246    11.00000    0.01693    0.01525 =
         0.01522    0.00177    0.00097    0.00014

C9    1    0.240383   -0.087994    0.140346    11.00000    0.01610    0.01449 =
         0.01656   -0.00069    0.00152    0.00144
S2    5    0.232648   -0.181231    0.031722    11.00000    0.02432    0.01320 =
         0.01620   -0.00089    0.00176    0.00009
C10   1    0.252941    0.023885   -0.016614    11.00000    0.01628    0.01630 =
         0.01706    0.00051    0.00114    0.00008
C11   1    0.256388    0.066687   -0.108378    11.00000    0.02347    0.02024 =
         0.01667   -0.00117    0.00128   -0.00109
AFIX  43
H11   2    0.249079   -0.021298   -0.154288    11.00000   -1.20000
AFIX   0
C12   1    0.270821    0.241723   -0.130557    11.00000    0.02434    0.02556 =
         0.01446    0.00317    0.00111   -0.00062
AFIX  43
H12   2    0.272243    0.274171   -0.192605    11.00000   -1.20000
AFIX   0
C13   1    0.283222    0.370164   -0.063208    11.00000    0.02223    0.01726 =
         0.02054    0.00425    0.00126   -0.00064
AFIX  43
H13   2    0.293627    0.489116   -0.079995    11.00000   -1.20000
AFIX   0
C14   1    0.280682    0.327839    0.027985    11.00000    0.02148    0.01545 =
         0.01637    0.00028    0.00111    0.00081
AFIX  43
H14   2    0.289804    0.416560    0.073533    11.00000   -1.20000
AFIX   0
C15   1    0.264493    0.152645    0.051771    11.00000    0.01390    0.01743 =
         0.01460    0.00180    0.00120    0.00128
N2    3    0.257031    0.088089    0.139905    11.00000    0.01794    0.01235 =
         0.01502    0.00272    0.00199    0.00135
SADI c16 al1 c17 al1
C16   1    0.483177    0.382923    0.264152    11.00000    0.01762    0.01945 =
         0.02168    0.00280    0.00022   -0.00046
AFIX 137
H16A  2    0.588163    0.323835    0.239968    11.00000   -1.50000
H16B  2    0.509325    0.406908    0.329207    11.00000   -1.50000
H16C  2    0.468017    0.492721    0.232141    11.00000   -1.50000
AFIX   0
C17   1    0.010304    0.344821    0.243452    11.00000    0.01790    0.01815 =
         0.02367    0.00073    0.00159    0.00164
AFIX 137
H17A  2   -0.005903    0.408767    0.186596    11.00000   -1.50000
H17B  2    0.009421    0.425751    0.295142    11.00000   -1.50000
H17C  2   -0.092900    0.255526    0.247132    11.00000   -1.50000
AFIX   0
HKLF 5

REM  twin4 in P-1
REM R1 =  0.0320 for    2997 Fo > 4sig(Fo)  and  0.0354 for all    3313 data
REM    201 parameters refined using    231 restraints

END

WGHT      0.0545      0.1787

REM Highest difference peak  0.435,  deepest hole -0.308,  1-sigma level  0.060
Q1    1   0.1282  0.2966  0.2618  11.00000  0.05    0.44
Q2    1   0.2355  0.1470  0.1846  11.00000  0.05    0.31
Q3    1   0.3883  0.2951  0.2700  11.00000  0.05    0.28
Q4    1   0.3306 -0.2536  0.0172  11.00000  0.05    0.28
Q5    1   0.2351  0.0916  0.0145  11.00000  0.05    0.27
Q6    1   0.1302 -0.1204  0.0607  11.00000  0.05    0.26
Q7    1   0.2577  0.2354  0.0405  11.00000  0.05    0.26
Q8    1   0.2465 -0.1319  0.0934  11.00000  0.05    0.25
Q9    1   0.1781 -0.1788  0.4338  11.00000  0.05    0.25
Q10   1   0.2168 -0.1367  0.1791  11.00000  0.05    0.25
Q11   1   0.2340 -0.1767  0.4430  11.00000  0.05    0.25
Q12   1   0.2588  0.0319 -0.0588  11.00000  0.05    0.25
Q13   1   0.2448  0.0581  0.3735  11.00000  0.05    0.24
Q14   1   0.2403  0.2206  0.5222  11.00000  0.05    0.23
Q15   1   0.2297 -0.0182  0.4527  11.00000  0.05    0.23
Q16   1   0.2453 -0.0006  0.1457  11.00000  0.05    0.22
Q17   1   0.3097 -0.0148  0.5829  11.00000  0.05    0.22
Q18   1   0.2685  0.1259  0.1056  11.00000  0.05    0.22
Q19   1   0.2450 -0.0882  0.5196  11.00000  0.05    0.22
Q20   1  -0.0734  0.3049  0.2011  11.00000  0.05    0.22
Q21   1   0.2234  0.3047 -0.0918  11.00000  0.05    0.21
Q22   1   0.2081  0.1511  0.4465  11.00000  0.05    0.21
Q23   1   0.3396 -0.3247  0.3777  11.00000  0.05    0.21
Q24   1   0.5933  0.3628  0.2927  11.00000  0.05    0.21
Q25   1   0.4719  0.4950  0.2982  11.00000  0.05    0.20
Q26   1   0.2924  0.3085 -0.0922  11.00000  0.05    0.20
Q27   1   0.2891 -0.1626  0.2615  11.00000  0.05    0.20
Q28   1   0.2858  0.3272 -0.0187  11.00000  0.05    0.20
Q29   1   0.2082 -0.1579  0.2620  11.00000  0.05    0.19
Q30   1   0.2773  0.1088  0.2953  11.00000  0.05    0.19
Q31   1   0.2121  0.1623 -0.1187  11.00000  0.05    0.18
Q32   1   0.3027  0.2325 -0.1453  11.00000  0.05    0.18
Q33   1   0.2059  0.3964  0.0561  11.00000  0.05    0.17
Q34   1   0.2305 -0.1821  0.3423  11.00000  0.05    0.17
Q35   1   0.2085 -0.0125  0.5891  11.00000  0.05    0.16
Q36   1   0.4286 -0.3497  0.3783  11.00000  0.05    0.16
Q37   1   0.2845  0.1421  0.5827  11.00000  0.05    0.16
Q38   1  -0.0023  0.4600  0.2326  11.00000  0.05    0.15
Q39   1   0.2961  0.1572 -0.1163  11.00000  0.05    0.15
Q40   1   0.4748  0.0976 -0.0617  11.00000  0.05    0.15
;
_shelx_res_checksum              20294
_shelx_hkl_file
;
   1   0   0 -0.0713 0.04537   2
   2   0   0 9999.99 157.651   2
   3   0   0 0.95789 0.13087   2
   4   0   0 4559.96 72.4174   2
   5   0   0 14.1423 0.37558   2
   6   0   0 1064.45 17.1820   2
   7   0   0 26.7021 1.10104   2
   8   0   0 453.162 10.3328  -1
  -8   1   2 453.162 10.3328   2
  -8   1   0 402.790 9.27223  -1
  -8   0   2 402.790 9.27223   2
  -7   1   0 11.8489 0.58425   2
  -6   1   0 1092.01 17.5147   2
  -5   1   0 49.1739 0.99898   2
  -4   1   0 1647.33 23.7653   2
  -3   1   0 65.2031 0.97391   2
  -2   1   0 4560.11 59.7714   2
  -1   1   0 132.761 1.49116   2
   0   1   0 4193.33 72.7545  -1
   0   1   0 4193.33 72.7545   2
   1   1   0 21.7481 0.38988   2
   2   1   0 1292.70 19.8935   2
   3   1   0 1.70672 0.16110   2
   4   1   0 26.8945 0.59923   2
   5   1   0 -0.1051 0.15339   2
   6   1   0 4.28489 0.35052   2
   7   1   0 1.71895 0.34586   2
   8   1   0 12.1382 0.92731  -1
  -8   2   2 12.1382 0.92731   2
  -8   2   0 0.02500 0.74158  -1
  -8  -1   2 0.02500 0.74158   2
  -7   2   0 1.49704 0.29391   2
  -6   2   0 18.4569 0.48637   2
  -5   2   0 42.3223 0.77116   2
  -4   2   0 89.3064 1.31625   2
  -3   2   0 17.8780 0.34186   2
  -2   2   0 338.497 3.92884   2
  -1   2   0 137.027 1.96373   2
  -1   2   0 132.321 7.51797  -1
   1   2   0 132.321 7.51797   2
   0   2   0 1383.23 22.5734  -1
   0   2   0 1383.23 22.5734   2
   2   2   0 528.115 8.06576   2
   3   2   0 0.47424 0.14196   2
   4   2   0 269.736 4.44284   2
   5   2   0 4.57048 0.28334   2
   6   2   0 122.802 2.56677   2
   7   2   0 18.8635 0.75879   2
   8   2   0 52.5191 1.91901  -1
  -8   3   2 52.5191 1.91901   2
  -8   3   0 24.1572 1.20327  -1
  -8  -2   2 24.1572 1.20327   2
  -7   3   0 30.9365 0.93052   2
  -6   3   0 92.6543 1.52853   2
  -5   3   0 3.61845 0.22293   2
  -4   3   0 53.3414 0.88682   2
  -3   3   0 6.94377 0.21894   2
  -2   3   0 186.118 2.43447   2
  -1   3   0 48.6247 0.76771   2
   0   3   0 26.9134 0.61184  -1
   0   3   0 26.9134 0.61184   2
   1   3   0 63.3632 1.12007   2
   2   3   0 85.8585 1.44989   2
   3   3   0 60.0572 1.02192   2
   4   3   0 0.07668 0.14788   2
   5   3   0 24.4483 0.66571   2
   6   3   0 13.5178 0.63364   2
   7   3   0 9.17676 0.67546   2
   8   3   0 2.24712 0.82859  -1
  -8   4   2 2.24712 0.82859   2
  -8   4   0 6.72928 0.88692  -1
  -8  -3   2 6.72928 0.88692   2
  -7   4   0 20.4981 0.67164   2
  -6   4   0 28.9389 0.77869   2
  -5   4   0 50.0550 1.00641   2
  -4   4   0 15.3608 0.38049   2
  -3   4   0 104.099 1.60853   2
  -2   4   0 121.425 1.80408   2
  -1   4   0 178.957 2.76868   2
   0   4   0 35.6142 0.71958  -1
   0   4   0 35.6142 0.71958   2
   1   4   0 106.102 1.87853   2
   2   4   0 151.035 2.32525   2
   3   4   0 43.0408 0.85334   2
   4   4   0 13.9485 0.47729   2
   5   4   0 9.87823 0.52960   2
   6   4   0 55.8862 1.43481   2
   7   4   0 2.70218 0.48244   2
  -7   5   0 70.9251 1.65444   2
  -6   5   0 0.46649 0.25637   2
  -5   5   0 54.0269 1.26239   2
  -4   5   0 6.81041 0.36357   2
  -3   5   0 171.891 2.73015   2
  -2   5   0 0.03056 0.11167   2
  -1   5   0 334.061 18.8800  -1
   1   5   0 334.061 18.8800   2
   0   5   0 9.54841 0.31716  -1
   0   5   0 9.54841 0.31716   2
   1   5   0 331.872 18.6241  -1
  -1   5   0 331.872 18.6241   2
   2   5   0 0.59270 0.16000   2
   3   5   0 122.512 2.08711   2
   4   5   0 4.39106 0.34096   2
   5   5   0 101.641 2.48047   2
   6   5   0 0.38897 0.31007   2
   7   5   0 58.4850 1.78081   2
  -7   6   0 17.1934 1.59178   2
  -6   6   0 45.1904 2.10513   2
  -5   6   0 116.729 3.61138   2
  -4   6   0 61.1451 1.79451   2
  -3   6   0 96.2626 2.12359   2
  -2   6   0 124.007 2.65439   2
  -1   6   0 259.676 4.79692   2
  -1   6   0 405.586 22.9106  -1
   1   6   0 405.586 22.9106   2
   0   6   0 221.095 4.02765  -1
   0   6   0 221.095 4.02765   2
   2   6   0 147.648 2.74138   2
   3   6   0 177.789 3.53267   2
   4   6   0 73.2801 1.61557   2
   5   6   0 74.8740 1.98998   2
   6   6   0 72.1691 2.04109   2
  -6   7   0 35.8505 3.07677   2
  -5   7   0 2.96228 0.60384   2
  -4   7   0 83.5308 3.29622   2
  -3   7   0 4.54279 0.57593   2
  -2   7   0 69.6973 2.35181   2
  -1   7   0 0.46369 0.37717   2
   0   7   0 251.464 5.91464  -1
   0   7   0 251.464 5.91464   2
   1   7   0 3.80056 0.38500   2
   2   7   0 52.2381 1.19563   2
   3   7   0 14.1233 0.63466   2
   4   7   0 83.8095 2.08087   2
   5   7   0 13.3339 0.85175   2
  -5   8   0 30.5545 2.91534   2
  -4   8   0 0.75255 0.90472   2
  -3   8   0 31.7059 1.68425   2
  -2   8   0 3.29418 0.64728   2
  -1   8   0 73.2452 2.99046   2
  -1   8   0 98.2862 5.02032  -1
   1   8   0 98.2862 5.02032   2
   0   8   0 0.69671 0.49267  -1
   0   8   0 0.69671 0.49267   2
   2   8   0 8.27749 0.72634   2
   3   8   0 29.8860 1.32889   2
   4   8   0 0.28650 0.47801   2
  -3   9   0 2.21682 1.06105   2
  -2   9   0 6.68543 0.88702   2
  -1   9   0 98.2264 5.15368  -1
   1   9   0 98.2264 5.15368   2
   0   9   0 18.0368 1.32071  -1
   0   9   0 18.0368 1.32071   2
   1   9   0 95.4875 3.88353  -1
  -1   9   0 95.4875 3.88353   2
   2   9   0 4.70992 0.85471   2
  -2  -9   1 0.83505 0.59787   2
  -1  -9   1 77.1248 3.31386  -1
   1  -9   1 77.1248 3.31386   2
   0  -9   1 4.37725 0.76430  -1
   0  -9   1 4.37725 0.76430   2
   1  -9   1 79.1084 3.39922  -1
  -1  -9   1 79.1084 3.39922   2
   2  -9   1 2.89114 1.13432   2
   3  -9   1 33.3067 3.06111   2
  -4  -8   1 65.7031 2.64938   2
  -3  -8   1 5.32224 0.62727   2
  -2  -8   1 68.7495 2.44297   2
   0  -8   1 234.608 8.05428  -1
   0  -8   1 234.608 8.05428   2
   1  -8   1 12.7062 1.07587   2
   1  -8   1 15.3265 1.68555  -1
  -1  -8   1 15.3265 1.68555   2
   2  -8   1 82.3123 3.27311   2
   3  -8   1 6.24370 0.78404   2
   4  -8   1 60.8231 4.38276   2
   5  -8   1 48.0593 3.77836   2
  -5  -7   1 15.1012 1.04305   2
  -4  -7   1 29.8906 1.37632   2
  -3  -7   1 30.5231 1.04991   2
  -2  -7   1 13.1706 0.67629   2
   0  -7   1 9.94895 0.56420  -1
   0  -7   1 9.94895 0.56420   2
   1  -7   1 185.807 11.0892  -1
  -1  -7   1 185.807 11.0892   2
   1  -7   1 74.0332 2.01433   2
   2  -7   1 2.48347 0.45249   2
   3  -7   1 125.062 3.81599   2
   4  -7   1 14.2805 1.03477   2
   5  -7   1 23.0938 2.38847   2
   6  -7   1 27.6750 2.06753   2
  -6  -6   1 39.9702 1.37609   2
  -5  -6   1 45.0347 1.38412   2
  -4  -6   1 223.386 4.72995   2
  -3  -6   1 64.1856 1.48073   2
  -2  -6   1 237.542 4.22837   2
  -1  -6   1 46.2034 3.34471  -1
   1  -6   1 46.2034 3.34471   2
   0  -6   1 1006.83 17.3964  -1
   0  -6   1 1006.83 17.3964   2
   1  -6   1 47.1720 3.57092  -1
  -1  -6   1 47.1720 3.57092   2
   2  -6   1 352.921 6.94870   2
   3  -6   1 0.24784 0.20745   2
   4  -6   1 328.697 8.17349   2
   5  -6   1 2.45785 0.41739   2
   6  -6   1 137.612 6.11681   2
   7  -6   1 13.1693 1.19400   2
  -7  -5   1 12.7877 0.83237   2
  -6  -5   1 210.192 4.22347   2
  -5  -5   1 8.98955 0.60463   2
  -4  -5   1 173.315 3.26866   2
  -3  -5   1 1.32051 0.19961   2
  -2  -5   1 385.025 5.88416   2
  -1  -5   1 30.6604 2.39494  -1
   1  -5   1 30.6604 2.39494   2
   0  -5   1 260.027 4.10244  -1
   0  -5   1 260.027 4.10244   2
   1  -5   1 27.5188 2.38434  -1
  -1  -5   1 27.5188 2.38434   2
   2  -5   1 158.917 2.28284   2
   3  -5   1 57.8466 1.11258   2
   4  -5   1 15.5020 0.54373   2
   5  -5   1 25.9814 0.75382   2
   6  -5   1 11.4740 0.57767   2
   7  -5   1 36.4309 1.59081   2
  -7  -4   1 3.66889 0.49270   2
  -6  -4   1 10.2150 0.59876   2
  -5  -4   1 17.7948 0.61996   2
  -4  -4   1 26.4254 0.67918   2
  -3  -4   1 62.2686 1.13523   2
  -2  -4   1 99.0511 1.63801   2
  -1  -4   1 104.702 2.02723   2
  -1  -4   1 265.147 14.9754  -1
   1  -4   1 265.147 14.9754   2
   0  -4   1 192.278 3.04109  -1
   0  -4   1 192.278 3.04109   2
   2  -4   1 124.609 1.79700   2
   3  -4   1 28.4628 0.55137   2
   4  -4   1 56.3258 0.90985   2
   5  -4   1 34.1677 0.80046   2
   6  -4   1 26.4638 0.67803   2
   7  -4   1 0.28101 0.23588   2
   8  -4   1 28.7072 1.34504  -1
  -8  -3   3 28.7072 1.34504   2
  -8  -3   1 43.7056 1.47361  -1
  -8   4   1 43.7056 1.47361   2
  -7  -3   1 65.8818 1.85829   2
  -6  -3   1 70.6721 1.66579   2
  -5  -3   1 88.7012 1.78307   2
  -4  -3   1 32.3540 0.69232   2
  -3  -3   1 158.150 2.41546   2
  -2  -3   1 115.814 1.70821   2
  -1  -3   1 274.781 3.97614   2
   0  -3   1 0.08233 0.10525  -1
   0  -3   1 0.08233 0.10525   2
   1  -3   1 99.6012 1.50193   2
   2  -3   1 36.3576 0.58283   2
   3  -3   1 47.2271 0.67037   2
   4  -3   1 0.30498 0.11990   2
   5  -3   1 0.66859 0.14458   2
   6  -3   1 17.5869 0.48056   2
   7  -3   1 2.41631 0.33786   2
   8  -3   1 24.2225 1.22884  -1
  -8  -2   3 24.2225 1.22884   2
  -8  -2   1 2.40014 0.64521  -1
  -8   3   1 2.40014 0.64521   2
  -7  -2   1 19.5477 0.78040   2
  -6  -2   1 26.3165 0.76421   2
  -5  -2   1 31.9294 0.80515   2
  -4  -2   1 0.27339 0.13131   2
  -3  -2   1 35.4603 0.71599   2
  -2  -2   1 154.892 2.31254   2
  -1  -2   1 19.2153 0.35491   2
   0  -2   1 231.022 3.57265  -1
   0  -2   1 231.022 3.57265   2
   1  -2   1 11.9796 0.21710   2
   2  -2   1 31.5831 0.46051   2
   3  -2   1 15.2648 0.32995   2
   4  -2   1 48.3462 0.81372   2
   5  -2   1 8.26246 0.30416   2
   6  -2   1 -0.0035 0.16744   2
   7  -2   1 5.83967 0.43688   2
   8  -2   1 72.1653 2.21376  -1
  -8  -1   3 72.1653 2.21376   2
  -8  -1   1 30.7873 1.29862  -1
  -8   2   1 30.7873 1.29862   2
  -7  -1   1 5.30540 0.45376   2
  -6  -1   1 12.9760 0.60389   2
  -5  -1   1 3.21536 0.23765   2
  -4  -1   1 2.73890 0.19766   2
  -3  -1   1 20.0466 0.47423   2
  -2  -1   1 447.731 6.29769   2
  -1  -1   1 27.1706 0.36567   2
   0  -1   1 52.3367 0.74469  -1
   0  -1   1 52.3367 0.74469   2
   1  -1   1 24.5515 0.32035   2
   2  -1   1 243.088 3.16191   2
   3  -1   1 56.6958 0.84154   2
   4  -1   1 11.6328 0.35743   2
   5  -1   1 25.6468 0.62837   2
   6  -1   1 3.70919 0.35788   2
   7  -1   1 48.2341 1.26349   2
   8  -1   1 34.6106 1.39464  -1
  -8   0   3 34.6106 1.39464   2
  -8   0   1 22.8819 1.17240  -1
  -8   1   1 22.8819 1.17240   2
  -7   0   1 28.5820 0.91552   2
  -6   0   1 25.8791 0.75354   2
  -5   0   1 165.250 2.46750   2
  -4   0   1 34.2006 0.66202   2
  -3   0   1 301.869 4.82196   2
  -2   0   1 1.17814 0.09968   2
  -1   0   1 1111.32 14.7793   2
   0   0   1 65.8817 0.98790  -1
   0   0   1 65.8817 0.98790   2
   1   0   1 1390.49 20.0419   2
   2   0   1 103.776 1.52267   2
   3   0   1 829.169 12.4890   2
   4   0   1 80.3842 1.29703   2
   5   0   1 417.507 6.87893   2
   6   0   1 39.5081 0.87443   2
   7   0   1 131.888 2.62587   2
   8   0   1 123.899 3.61555  -1
  -8   1   3 123.899 3.61555   2
  -8   1   1 25.7784 1.23891  -1
  -8   0   1 25.7784 1.23891   2
  -7   1   1 99.4476 2.18629   2
  -6   1   1 6.43350 0.37340   2
  -5   1   1 137.408 2.08333   2
  -4   1   1 3.05344 0.18649   2
  -3   1   1 493.923 6.83371   2
  -2   1   1 251.056 3.17465   2
  -1   1   1 518.460 6.50659   2
   0   1   1 0.36203 0.07977  -1
   0   1   1 0.36203 0.07977   2
   1   1   1 415.339 6.45299   2
   2   1   1 182.021 2.90382   2
   3   1   1 41.8707 0.70582   2
   4   1   1 3.44674 0.16829   2
   5   1   1 0.26896 0.16373   2
   6   1   1 2.61834 0.28921   2
   7   1   1 3.19172 0.38686   2
   8   1   1 17.1939 1.09930  -1
  -8   2   3 17.1939 1.09930   2
  -8   2   1 24.7137 1.20292  -1
  -8  -1   1 24.7137 1.20292   2
  -7   2   1 14.3447 0.61990   2
  -6   2   1 9.33967 0.35396   2
  -5   2   1 58.1380 0.98697   2
  -4   2   1 82.5765 1.22792   2
  -3   2   1 236.813 3.17162   2
  -2   2   1 5.10875 0.16476   2
  -1   2   1 548.389 7.64679   2
   0   2   1 446.976 6.76699  -1
   0   2   1 446.976 6.76699   2
   1   2   1 673.061 10.0800   2
   2   2   1 71.3931 1.16524   2
   3   2   1 406.733 6.41470   2
   4   2   1 1.18530 0.17942   2
   5   2   1 191.583 3.27308   2
   6   2   1 48.0951 1.13856   2
   7   2   1 63.4017 1.57748   2
   8   2   1 50.1975 1.88901  -1
  -8   3   3 50.1975 1.88901   2
  -8   3   1 3.75931 0.80435  -1
  -8  -2   1 3.75931 0.80435   2
  -7   3   1 76.5882 1.67490   2
  -6   3   1 9.20049 0.39874   2
  -5   3   1 62.1373 1.05115   2
  -4   3   1 6.67705 0.27649   2
  -3   3   1 106.383 1.52795   2
  -2   3   1 1.06166 0.11804   2
  -1   3   1 6.81232 0.22565   2
  -1   3   1 11.7050 1.43880  -1
   1   3   1 11.7050 1.43880   2
   0   3   1 334.496 5.34099  -1
   0   3   1 334.496 5.34099   2
   2   3   1 33.9932 0.74501   2
   3   3   1 23.5784 0.55383   2
   4   3   1 102.919 1.88048   2
   5   3   1 30.4156 0.71505   2
   6   3   1 13.6411 0.63465   2
   7   3   1 27.7731 1.06434   2
   8   3   1 35.9471 1.45415  -1
  -8   4   3 35.9471 1.45415   2
  -8   4   1 41.9925 1.61604  -1
  -8  -3   1 41.9925 1.61604   2
  -7   4   1 71.4717 1.67911   2
  -6   4   1 62.0907 1.32368   2
  -5   4   1 91.9105 1.55685   2
  -4   4   1 109.636 1.69437   2
  -3   4   1 383.254 5.44488   2
  -2   4   1 144.976 2.15660   2
  -1   4   1 871.367 48.0512  -1
   1   4   1 871.367 48.0512   2
  -1   4   1 360.511 5.72842   2
   0   4   1 300.081 5.13464  -1
   0   4   1 300.081 5.13464   2
   2   4   1 38.7958 0.90965   2
   3   4   1 274.652 4.61152   2
   4   4   1 3.23965 0.28207   2
   5   4   1 164.237 3.37388   2
   6   4   1 5.05353 0.45875   2
   7   4   1 55.1415 1.67975   2
  -7   5   1 28.2229 1.00403   2
  -6   5   1 23.9170 0.76306   2
  -5   5   1 78.3993 1.69478   2
  -4   5   1 -0.0905 0.15316   2
  -3   5   1 33.0016 0.69781   2
  -2   5   1 0.03919 0.12129   2
  -1   5   1 33.4849 0.76533   2
  -1   5   1 28.3563 2.25227  -1
   1   5   1 28.3563 2.25227   2
   0   5   1 135.050 2.45497  -1
   0   5   1 135.050 2.45497   2
   2   5   1 36.5961 0.96896   2
   3   5   1 0.16413 0.17120   2
   4   5   1 121.114 2.39674   2
   5   5   1 8.35797 0.53279   2
   6   5   1 26.2133 0.91921   2
   7   5   1 9.69330 0.73214   2
  -7   6   1 50.5080 1.88259   2
  -6   6   1 84.7520 2.68930   2
  -5   6   1 88.1155 2.86561   2
  -4   6   1 103.861 2.76596   2
  -3   6   1 203.748 4.43275   2
  -2   6   1 182.773 3.39305   2
  -1   6   1 226.941 4.47943   2
  -1   6   1 518.234 28.9802  -1
   1   6   1 518.234 28.9802   2
   0   6   1 142.137 2.70331  -1
   0   6   1 142.137 2.70331   2
   2   6   1 88.4031 1.96370   2
   3   6   1 199.583 3.93510   2
   4   6   1 1.11703 0.27776   2
   5   6   1 135.954 3.20320   2
   6   6   1 2.98324 0.58833   2
  -6   7   1 31.9715 2.86645   2
  -5   7   1 148.567 5.39165   2
  -4   7   1 22.5603 1.36742   2
  -3   7   1 93.7905 3.02464   2
  -2   7   1 4.62870 0.58018   2
  -1   7   1 195.964 5.66025   2
   0   7   1 0.03564 0.27227  -1
   0   7   1 0.03564 0.27227   2
   1   7   1 82.4871 2.02076   2
   2   7   1 7.39002 0.50689   2
   3   7   1 93.7322 2.21140   2
   4   7   1 4.42309 0.46172   2
   5   7   1 20.4133 1.18904   2
  -5   8   1 1.85819 1.06220   2
  -4   8   1 6.68492 0.89092   2
  -3   8   1 0.36162 0.46476   2
  -2   8   1 8.79602 0.95886   2
  -1   8   1 22.6804 1.98767  -1
   1   8   1 22.6804 1.98767   2
   0   8   1 3.26919 0.50784  -1
   0   8   1 3.26919 0.50784   2
   1   8   1 28.0089 2.18624  -1
  -1   8   1 28.0089 2.18624   2
   2   8   1 2.10279 0.47321   2
   3   8   1 44.0624 1.72220   2
   4   8   1 0.52562 0.51393   2
  -3   9   1 46.7472 2.28682   2
  -2   9   1 5.80266 0.82277   2
  -1   9   1 98.8509 5.22499  -1
   1   9   1 98.8509 5.22499   2
   0   9   1 23.1494 1.51701  -1
   0   9   1 23.1494 1.51701   2
   1   9   1 101.645 5.26776  -1
  -1   9   1 101.645 5.26776   2
   2   9   1 2.93171 0.72456   2
  -2  -9   2 5.40019 0.87304   2
  -1  -9   2 14.7535 2.48731  -1
   1  -9   2 14.7535 2.48731   2
   0  -9   2 4.99843 0.79812  -1
   0  -9   2 4.99843 0.79812   2
   1  -9   2 14.3252 1.45719  -1
  -1  -9   2 14.3252 1.45719   2
   2  -9   2 2.12072 1.04553   2
   3  -9   2 0.24944 0.85642   2
  -4  -8   2 8.36797 1.10675   2
  -3  -8   2 47.7934 3.02334   2
  -2  -8   2 0.71824 0.40970   2
  -1  -8   2 116.926 7.07094  -1
   1  -8   2 116.926 7.07094   2
   0  -8   2 35.2002 1.79616  -1
   0  -8   2 35.2002 1.79616   2
   1  -8   2 119.421 5.83620  -1
  -1  -8   2 119.421 5.83620   2
   2  -8   2 9.32417 0.92710   2
   3  -8   2 45.6639 3.55101   2
   4  -8   2 18.4307 2.17390   2
   5  -8   2 47.5903 2.89414   2
  -5  -7   2 54.8238 2.09535   2
  -4  -7   2 0.82368 0.44380   2
  -3  -7   2 73.0342 1.92447   2
  -2  -7   2 52.4736 1.46543   2
  -1  -7   2 109.302 6.89309  -1
   1  -7   2 109.302 6.89309   2
   0  -7   2 40.2681 1.39858  -1
   0  -7   2 40.2681 1.39858   2
   1  -7   2 114.680 7.30927  -1
  -1  -7   2 114.680 7.30927   2
   2  -7   2 67.7548 2.04774   2
   3  -7   2 17.5329 0.95850   2
   4  -7   2 25.1505 2.40325   2
   5  -7   2 8.06342 1.19356   2
   6  -7   2 23.9532 1.91984   2
  -6  -6   2 9.09068 0.69933   2
  -5  -6   2 5.78603 0.57372   2
  -4  -6   2 38.1506 1.25728   2
  -3  -6   2 30.1003 0.86116   2
  -2  -6   2 13.8100 0.49181   2
  -1  -6   2 139.551 8.43388  -1
   1  -6   2 139.551 8.43388   2
   0  -6   2 34.6341 0.84351  -1
   0  -6   2 34.6341 0.84351   2
   1  -6   2 135.677 8.36161  -1
  -1  -6   2 135.677 8.36161   2
   2  -6   2 -0.0751 0.18235   2
   3  -6   2 55.8577 1.49886   2
   4  -6   2 0.76367 0.31333   2
   5  -6   2 90.1001 2.93183   2
   6  -6   2 6.98609 0.89182   2
   7  -6   2 12.9432 1.03380   2
  -7  -5   2 37.1206 1.33827   2
  -6  -5   2 1.62135 0.35700   2
  -5  -5   2 76.0013 1.77128   2
  -4  -5   2 3.06516 0.34007   2
  -3  -5   2 104.922 1.80647   2
  -2  -5   2 8.37805 0.33146   2
  -1  -5   2 144.690 2.32585   2
  -1  -5   2 167.454 9.82366  -1
   1  -5   2 167.454 9.82366   2
   0  -5   2 6.73166 0.29314  -1
   0  -5   2 6.73166 0.29314   2
   2  -5   2 20.6261 0.46255   2
   3  -5   2 40.8716 0.81346   2
   4  -5   2 4.51532 0.31579   2
   5  -5   2 0.23362 0.24221   2
   6  -5   2 7.18853 0.86080   2
   7  -5   2 -0.1878 0.40279   2
  -7  -4   2 8.79916 0.67590   2
  -6  -4   2 4.34589 0.41722   2
  -5  -4   2 38.7836 0.98462   2
  -4  -4   2 6.65611 0.34081   2
  -3  -4   2 139.991 2.11626   2
  -2  -4   2 43.4891 0.77801   2
  -1  -4   2 363.753 5.51095   2
   0  -4   2 0.18076 0.11808  -1
   0  -4   2 0.18076 0.11808   2
   1  -4   2 421.843 6.99185   2
   2  -4   2 98.5750 1.48597   2
   3  -4   2 361.050 5.35484   2
   4  -4   2 20.3950 0.46401   2
   5  -4   2 201.997 3.10033   2
   6  -4   2 68.3664 1.26594   2
   7  -4   2 97.0317 2.98450   2
   8  -4   2 27.2403 1.31809  -1
  -8  -3   4 27.2403 1.31809   2
  -8  -3   2 6.32702 1.00622  -1
  -8   4   0 6.32702 1.00622   2
  -7  -3   2 176.026 4.08324   2
  -6  -3   2 -0.1191 0.23957   2
  -5  -3   2 326.322 5.37089   2
  -4  -3   2 52.6878 0.96490   2
  -3  -3   2 565.083 7.96170   2
  -2  -3   2 9.40221 0.26517   2
  -1  -3   2 718.837 10.2083   2
   0  -3   2 537.102 7.80409  -1
   0  -3   2 537.102 7.80409   2
   1  -3   2 408.304 5.32905   2
   2  -3   2 37.6575 0.63236   2
   3  -3   2 186.148 2.29683   2
   4  -3   2 129.276 1.98722   2
   5  -3   2 23.4288 0.54065   2
   6  -3   2 32.9846 0.72723   2
   7  -3   2 10.1082 0.61721   2
   8  -3   2 135.183 3.59518  -1
  -8  -2   4 135.183 3.59518   2
  -8  -2   2 30.2825 1.19238  -1
  -8   3   0 30.2825 1.19238   2
  -7  -2   2 0.61688 0.30180   2
  -6  -2   2 17.6937 0.67713   2
  -5  -2   2 0.11058 0.17330   2
  -4  -2   2 17.9614 0.48096   2
  -3  -2   2 44.5870 0.81567   2
  -2  -2   2 53.6171 0.76236   2
  -1  -2   2 186.444 2.31264   2
   0  -2   2 63.9435 0.96898  -1
   0  -2   2 63.9435 0.96898   2
   1  -2   2 220.555 2.81680   2
   2  -2   2 22.7551 0.34205   2
   3  -2   2 217.235 2.76411   2
   4  -2   2 -0.1705 0.09821   2
   5  -2   2 63.3546 1.16276   2
   6  -2   2 7.57188 0.37397   2
   7  -2   2 56.9755 1.39644   2
   8  -2   2 18.9403 1.08274  -1
  -8  -1   4 18.9403 1.08274   2
  -8  -1   2 1.25727 0.75663  -1
  -8   2   0 1.25727 0.75663   2
  -7  -1   2 59.7000 1.49870   2
  -6  -1   2 8.95952 0.48331   2
  -5  -1   2 191.604 3.43947   2
  -4  -1   2 9.28899 0.37042   2
  -3  -1   2 175.028 3.20111   2
  -2  -1   2 4.80192 0.14021   2
  -1  -1   2 182.406 2.07864   2
   0  -1   2 854.209 10.4329  -1
   0  -1   2 854.209 10.4329   2
   1  -1   2 69.8879 1.02240   2
   2  -1   2 63.4871 0.86977   2
   3  -1   2 24.7003 0.45563   2
   4  -1   2 276.769 4.29665   2
   5  -1   2 20.4350 0.54307   2
   6  -1   2 77.9267 1.63246   2
   7  -1   2 1.35309 0.26461   2
   8  -1   2 85.4345 2.72387  -1
  -8   0   4 85.4345 2.72387   2
  -8   0   2 459.427 10.4490  -1
  -8   1   0 459.427 10.4490   2
  -7   0   2 0.47778 0.27751   2
  -6   0   2 77.9642 1.64681   2
  -5   0   2 12.7507 0.34295   2
  -4   0   2 65.2860 1.15357   2
  -3   0   2 40.4457 0.74571   2
  -2   0   2 1245.79 16.5213   2
  -1   0   2 77.9532 1.18442   2
   0   0   2 513.485 8.07727  -1
   0   0   2 513.485 8.07727   2
   1   0   2 25.9852 0.52713   2
   2   0   2 1044.30 15.6623   2
   3   0   2 2.21415 0.15638   2
   4   0   2 24.1493 0.53635   2
   5   0   2 0.42251 0.14499   2
   6   0   2 33.1050 0.80106   2
   7   0   2 -0.2084 0.25197   2
   8   0   2 4.72462 0.85207  -1
  -8   1   4 4.72462 0.85207   2
  -8   1   2 505.311 11.4498  -1
   8   0   0 505.311 11.4498   2
  -7   1   2 17.4833 0.70058   2
  -6   1   2 36.0329 0.86474   2
  -5   1   2 42.5631 0.76806   2
  -4   1   2 162.470 2.29453   2
  -3   1   2 0.81993 0.11156   2
  -2   1   2 4.65572 0.14309   2
  -1   1   2 0.12880 0.07135   2
   0   1   2 415.024 6.32658  -1
   0   1   2 415.024 6.32658   2
   1   1   2 28.4742 0.53437   2
   2   1   2 70.2370 1.43235   2
   3   1   2 5.49498 0.23296   2
   4   1   2 0.08977 0.11468   2
   5   1   2 12.3733 0.35844   2
   6   1   2 25.0062 0.66582   2
   7   1   2 4.68318 0.41104   2
   8   1   2 11.2913 1.01981  -1
  -8   2   4 11.2913 1.01981   2
  -8   2   2 13.1271 0.97087  -1
   8   1   0 13.1271 0.97087   2
  -7   2   2 1.42960 0.30623   2
  -6   2   2 7.89592 0.34033   2
  -5   2   2 8.31104 0.29845   2
  -4   2   2 2.48200 0.15206   2
  -3   2   2 14.4383 0.36238   2
  -2   2   2 7.57166 0.20065   2
  -1   2   2 0.24479 0.08241   2
   0   2   2 51.0985 0.79591  -1
   0   2   2 51.0985 0.79591   2
   1   2   2 108.796 1.82722   2
   2   2   2 45.8854 0.88473   2
   3   2   2 28.7207 0.60080   2
   4   2   2 41.1454 0.78528   2
   5   2   2 23.1800 0.60341   2
   6   2   2 30.1799 0.84309   2
   7   2   2 16.5562 0.73911   2
   8   2   2 20.4721 1.23220  -1
  -8   3   4 20.4721 1.23220   2
  -8   3   2 63.7460 2.04914  -1
   8   2   0 63.7460 2.04914   2
  -7   3   2 8.02240 0.48594   2
  -6   3   2 23.4889 0.57355   2
  -5   3   2 2.34443 0.20101   2
  -4   3   2 23.3450 0.52318   2
  -3   3   2 0.60707 0.12607   2
  -2   3   2 155.247 2.20693   2
  -1   3   2 62.2643 1.00046   2
  -1   3   2 73.4446 4.57643  -1
   1   3   2 73.4446 4.57643   2
   0   3   2 46.4773 0.86864  -1
   0   3   2 46.4773 0.86864   2
   2   3   2 118.382 2.04035   2
   3   3   2 18.4128 0.48100   2
   4   3   2 3.71012 0.27674   2
   5   3   2 1.92028 0.24948   2
   6   3   2 16.6310 0.63396   2
   7   3   2 0.72094 0.36199   2
   8   3   2 1.54509 0.88450  -1
  -8   4   4 1.54509 0.88450   2
  -8   4   2 2.01942 0.74388  -1
   8   3   0 2.01942 0.74388   2
  -7   4   2 6.09122 0.54090   2
  -6   4   2 10.0063 0.45605   2
  -5   4   2 15.4168 0.43401   2
  -4   4   2 6.67366 0.28378   2
  -3   4   2 39.2770 0.75514   2
  -2   4   2 101.742 1.68522   2
  -1   4   2 133.111 5.50145  -1
   1   4   2 133.111 5.50145   2
  -1   4   2 85.0579 1.48856   2
   0   4   2 62.7708 1.22874  -1
   0   4   2 62.7708 1.22874   2
   2   4   2 166.898 3.15982   2
   3   4   2 23.9269 0.63088   2
   4   4   2 21.1294 0.66100   2
   5   4   2 4.55262 0.36987   2
   6   4   2 51.8797 1.36881   2
   7   4   2 0.53442 0.36054   2
  -7   5   2 39.2899 1.33142   2
  -6   5   2 16.1272 0.63238   2
  -5   5   2 16.7416 0.60873   2
  -4   5   2 30.1084 0.70671   2
  -3   5   2 73.6390 1.37281   2
  -2   5   2 7.55654 0.31020   2
  -1   5   2 14.2670 0.44529   2
  -1   5   2 41.2712 2.90487  -1
   1   5   2 41.2712 2.90487   2
   0   5   2 5.88141 0.31092  -1
   0   5   2 5.88141 0.31092   2
   2   5   2 13.5668 0.51411   2
   3   5   2 0.20397 0.20737   2
   4   5   2 11.1686 0.51843   2
   5   5   2 0.10519 0.27890   2
   6   5   2 40.4214 1.56564   2
   7   5   2 0.64626 0.40487   2
  -7   6   2 11.5645 0.91334   2
  -6   6   2 75.6058 2.17765   2
  -5   6   2 0.38408 0.38625   2
  -4   6   2 159.796 4.71038   2
  -3   6   2 43.7903 1.40617   2
  -2   6   2 293.271 6.24650   2
  -1   6   2 8.65329 0.59451   2
  -1   6   2 46.3782 3.32329  -1
   1   6   2 46.3782 3.32329   2
   0   6   2 593.787 15.9232  -1
   0   6   2 593.787 15.9232   2
   2   6   2 323.603 6.94558   2
   3   6   2 2.09836 0.29861   2
   4   6   2 156.286 3.04945   2
   5   6   2 3.12170 0.44110   2
   6   6   2 90.1412 2.77614   2
  -6   7   2 96.1508 6.08132   2
  -5   7   2 23.7763 1.47402   2
  -4   7   2 137.663 5.04150   2
  -3   7   2 2.43718 0.49974   2
  -2   7   2 82.5942 2.72398   2
  -1   7   2 0.13683 0.36024   2
   0   7   2 141.623 3.55196  -1
   0   7   2 141.623 3.55196   2
   1   7   2 12.8151 0.65154   2
   2   7   2 7.28690 0.51738   2
   3   7   2 20.1022 0.79601   2
   4   7   2 8.84925 0.59747   2
   5   7   2 26.7574 1.38173   2
  -5   8   2 22.5561 1.49824   2
  -4   8   2 25.7176 1.55619   2
  -3   8   2 57.5539 2.57312   2
  -2   8   2 42.3783 2.07236   2
  -1   8   2 65.1146 3.74626  -1
   1   8   2 65.1146 3.74626   2
   0   8   2 184.465 5.12498  -1
   0   8   2 184.465 5.12498   2
   1   8   2 66.2682 3.73645  -1
  -1   8   2 66.2682 3.73645   2
   2   8   2 67.5378 2.27732   2
   3   8   2 1.66849 0.47733   2
   4   8   2 78.3226 3.08512   2
  -3   9   2 11.2284 1.15381   2
  -2   9   2 70.1632 3.06713   2
  -1   9   2 98.5632 5.25475  -1
   1   9   2 98.5632 5.25475   2
   0   9   2 128.684 4.92389  -1
   0   9   2 128.684 4.92389   2
   1   9   2 91.0100 3.84172  -1
  -1   9   2 91.0100 3.84172   2
   2   9   2 50.5092 1.92338   2
  -2  -9   3 46.9806 2.28188   2
   0  -9   3 263.988 10.8864  -1
   0  -9   3 263.988 10.8864   2
   1  -9   3 155.827 6.10202  -1
  -1  -9   3 155.827 6.10202   2
   1  -9   3 69.4802 4.85348   2
   2  -9   3 97.3688 4.78502   2
   3  -9   3 51.4955 3.06729   2
  -4  -8   3 16.5701 1.46255   2
  -3  -8   3 37.7658 2.06822   2
  -2  -8   3 36.5972 1.40387   2
   0  -8   3 8.55459 0.77480  -1
   0  -8   3 8.55459 0.77480   2
   1  -8   3 19.0635 1.22385   2
   1  -8   3 28.9745 1.78132  -1
  -1  -8   3 28.9745 1.78132   2
   2  -8   3 1.48031 0.69226   2
   3  -8   3 0.11907 0.57780   2
   4  -8   3 7.59630 1.20490   2
   5  -8   3 4.67660 1.05156   2
  -5  -7   3 11.0192 0.92439   2
  -4  -7   3 60.9656 2.17412   2
  -3  -7   3 43.2440 1.45048   2
  -2  -7   3 111.192 2.50189   2
  -1  -7   3 85.9770 5.76148  -1
   1  -7   3 85.9770 5.76148   2
   0  -7   3 353.356 8.76475  -1
   0  -7   3 353.356 8.76475   2
   1  -7   3 80.5997 5.58971  -1
  -1  -7   3 80.5997 5.58971   2
   2  -7   3 183.899 4.78637   2
   3  -7   3 7.72191 0.73125   2
   4  -7   3 172.317 6.06889   2
   5  -7   3 21.0051 1.76106   2
   6  -7   3 87.2222 4.32219   2
  -6  -6   3 67.1624 2.08785   2
  -5  -6   3 18.3452 0.78891   2
  -4  -6   3 30.3638 1.08204   2
  -3  -6   3 14.3544 0.57876   2
  -2  -6   3 108.640 1.98847   2
  -1  -6   3 13.7789 0.42320   2
  -1  -6   3 12.5777 1.75347  -1
   1  -6   3 12.5777 1.75347   2
   0  -6   3 39.6877 0.92754  -1
   0  -6   3 39.6877 0.92754   2
   2  -6   3 39.5658 1.31822   2
   3  -6   3 2.71388 0.33524   2
   4  -6   3 -0.0477 0.35186   2
   5  -6   3 -0.2142 0.42465   2
   6  -6   3 0.63651 0.53911   2
   7  -6   3 0.68420 0.50904   2
  -7  -5   3 7.37320 0.66585   2
  -6  -5   3 6.26011 0.50512   2
  -5  -5   3 21.4054 0.72541   2
  -4  -5   3 0.37447 0.22773   2
  -3  -5   3 40.3753 0.80081   2
  -2  -5   3 74.0922 1.20986   2
  -1  -5   3 59.5530 1.03709   2
  -1  -5   3 96.4886 6.07736  -1
   1  -5   3 96.4886 6.07736   2
   0  -5   3 42.5932 0.76045  -1
   0  -5   3 42.5932 0.76045   2
   2  -5   3 131.713 2.52559   2
   3  -5   3 37.6401 0.73923   2
   4  -5   3 35.7779 1.14034   2
   5  -5   3 42.2106 1.94682   2
   6  -5   3 48.0440 2.17959   2
   7  -5   3 11.8929 0.97373   2
  -7  -4   3 40.1731 1.36162   2
  -6  -4   3 0.41161 0.27936   2
  -5  -4   3 63.3978 1.33449   2
  -4  -4   3 0.36937 0.18277   2
  -3  -4   3 156.894 2.24176   2
  -2  -4   3 2.69227 0.16577   2
  -1  -4   3 295.987 4.21880   2
   0  -4   3 0.16267 0.09074  -1
   0  -4   3 0.16267 0.09074   2
   1  -4   3 283.547 4.18258   2
   2  -4   3 29.2387 0.51969   2
   3  -4   3 294.739 4.15931   2
   4  -4   3 20.2957 0.44039   2
   5  -4   3 113.712 1.94416   2
   6  -4   3 27.1464 0.96223   2
   7  -4   3 106.520 5.13275   2
   8  -4   3 25.1205 1.26895  -1
  -8  -3   5 25.1205 1.26895   2
  -8  -3   3 26.2241 2.14433  -1
   8  -4   1 26.2241 2.14433   2
  -7  -3   3 14.1918 0.79381   2
  -6  -3   3 93.6381 1.83941   2
  -5  -3   3 73.4188 1.46646   2
  -4  -3   3 126.822 2.01790   2
  -3  -3   3 153.080 2.19254   2
  -2  -3   3 498.987 6.11604   2
  -1  -3   3 316.774 4.11850   2
   0  -3   3 809.559 11.3519  -1
   0  -3   3 809.559 11.3519   2
   1  -3   3 350.283 5.04470   2
   2  -3   3 503.212 6.60537   2
   3  -3   3 123.441 1.57229   2
   4  -3   3 142.229 2.07172   2
   5  -3   3 70.9075 1.22243   2
   6  -3   3 100.706 1.86865   2
   7  -3   3 9.78958 0.70940   2
   8  -3   3 23.2320 1.20841  -1
  -8  -2   5 23.2320 1.20841   2
  -8  -2   3 25.2957 1.37628  -1
   8  -3   1 25.2957 1.37628   2
  -7  -2   3 5.64988 0.47763   2
  -6  -2   3 2.85591 0.30788   2
  -5  -2   3 2.81632 0.23372   2
  -4  -2   3 73.3276 1.30221   2
  -3  -2   3 2.23434 0.13229   2
  -2  -2   3 3.79244 0.13288   2
  -1  -2   3 0.07563 0.06872   2
   0  -2   3 289.479 3.65960  -1
   0  -2   3 289.479 3.65960   2
   1  -2   3 14.0266 0.32331   2
   2  -2   3 85.5299 1.19210   2
   3  -2   3 44.5408 0.66707   2
   4  -2   3 2.62390 0.17867   2
   5  -2   3 43.5592 0.85792   2
   6  -2   3 56.3062 1.16508   2
   7  -2   3 34.9792 1.12391   2
   8  -2   3 4.94374 0.91525  -1
  -8  -1   5 4.94374 0.91525   2
  -8  -1   3 64.4123 1.84754  -1
   8  -2   1 64.4123 1.84754   2
  -7  -1   3 0.06659 0.27992   2
  -6  -1   3 78.1452 1.75984   2
  -5  -1   3 21.7951 0.60890   2
  -4  -1   3 361.910 6.33341   2
  -3  -1   3 40.5004 0.71534   2
  -2  -1   3 215.005 3.08405   2
  -1  -1   3 147.059 1.97527   2
   0  -1   3 2515.02 35.4023  -1
   0  -1   3 2515.02 35.4023   2
   1  -1   3 140.889 2.63951   2
   2  -1   3 146.149 2.29205   2
   3  -1   3 77.4262 1.28977   2
   4  -1   3 193.264 3.05244   2
   5  -1   3 62.3567 1.13888   2
   6  -1   3 16.1107 0.56817   2
   7  -1   3 19.6594 0.70228   2
   8  -1   3 12.0733 1.04550  -1
  -8   0   5 12.0733 1.04550   2
  -8   0   3 36.0681 1.32993  -1
   8  -1   1 36.0681 1.32993   2
  -7   0   3 10.8615 0.59803   2
  -6   0   3 11.6368 0.53700   2
  -5   0   3 0.51962 0.12873   2
  -4   0   3 0.10223 0.11479   2
  -3   0   3 13.4687 0.39725   2
  -2   0   3 5.70703 0.18719   2
  -1   0   3 24.6057 0.38342   2
   0   0   3 241.845 3.65235  -1
   0   0   3 241.845 3.65235   2
   1   0   3 4.31547 0.20432   2
   2   0   3 148.863 2.84692   2
   3   0   3 27.9393 0.59642   2
   4   0   3 114.613 1.89779   2
   5   0   3 25.0795 0.59010   2
   6   0   3 72.3708 1.48735   2
   7   0   3 11.0604 0.52037   2
   8   0   3 24.9453 1.33025  -1
  -8   1   5 24.9453 1.33025   2
  -8   1   3 110.809 3.01535  -1
   8   0   1 110.809 3.01535   2
  -7   1   3 0.69657 0.27645   2
  -6   1   3 181.162 3.16644   2
  -5   1   3 0.42851 0.13376   2
  -4   1   3 463.779 6.67326   2
  -3   1   3 62.1436 0.95688   2
  -2   1   3 390.427 4.84819   2
  -1   1   3 70.7885 0.98779   2
   0   1   3 2216.09 33.9116  -1
   0   1   3 2216.09 33.9116   2
   1   1   3 319.962 5.26907   2
   2   1   3 174.975 3.37825   2
   3   1   3 175.158 2.83871   2
   4   1   3 208.610 3.16750   2
   5   1   3 118.128 1.90285   2
   6   1   3 19.8377 0.59042   2
   7   1   3 71.2834 1.78650   2
   8   1   3 21.6481 1.24163  -1
  -8   2   5 21.6481 1.24163   2
  -8   2   3 15.9138 0.99858  -1
   8   1   1 15.9138 0.99858   2
  -7   2   3 2.56419 0.35392   2
  -6   2   3 29.8007 0.76320   2
  -5   2   3 24.1593 0.48717   2
  -4   2   3 0.47241 0.11527   2
  -3   2   3 38.8266 0.60963   2
  -2   2   3 30.8593 0.48844   2
  -1   2   3 90.8571 1.32799   2
   0   2   3 245.452 3.62120  -1
   0   2   3 245.452 3.62120   2
   1   2   3 53.7605 1.03169   2
   2   2   3 5.40642 0.26779   2
   3   2   3 2.01633 0.19764   2
   4   2   3 62.1991 1.11401   2
   5   2   3 2.33764 0.25333   2
   6   2   3 1.20924 0.23981   2
   7   2   3 10.9333 0.62532   2
   8   2   3 17.0315 1.17049  -1
  -8   3   5 17.0315 1.17049   2
  -8   3   3 42.3914 1.48353  -1
   8   2   1 42.3914 1.48353   2
  -7   3   3 -0.7446 0.29517   2
  -6   3   3 137.939 2.61679   2
  -5   3   3 -0.2353 0.13123   2
  -4   3   3 138.122 2.24082   2
  -3   3   3 78.5268 1.14773   2
  -2   3   3 329.619 4.54056   2
  -1   3   3 148.484 2.31977   2
   0   3   3 308.651 4.51955  -1
   0   3   3 308.651 4.51955   2
   1   3   3 500.769 7.56295   2
   2   3   3 273.304 4.75843   2
   3   3   3 275.822 4.82959   2
   4   3   3 56.4775 1.17618   2
   5   3   3 198.605 3.98030   2
   6   3   3 58.8333 1.35976   2
   7   3   3 99.0825 2.53477   2
   8   3   3 12.3999 1.10980  -1
  -8   4   5 12.3999 1.10980   2
  -8   4   3 33.5481 1.35125  -1
   8   3   1 33.5481 1.35125   2
  -7   4   3 4.30618 0.51931   2
  -6   4   3 31.1518 0.77397   2
  -5   4   3 96.2598 1.59914   2
  -4   4   3 31.7868 0.67397   2
  -3   4   3 58.5784 1.00020   2
  -2   4   3 23.2616 0.52095   2
  -1   4   3 255.187 10.1522  -1
   1   4   3 255.187 10.1522   2
  -1   4   3 231.461 3.92759   2
   0   4   3 0.89144 0.19259  -1
   0   4   3 0.89144 0.19259   2
   2   4   3 0.46258 0.18615   2
   3   4   3 33.2182 0.87329   2
   4   4   3 9.19859 0.46270   2
   5   4   3 -0.0960 0.23090   2
   6   4   3 7.59433 0.53771   2
   7   4   3 0.81241 0.40294   2
  -7   5   3 5.70066 0.64188   2
  -6   5   3 67.4830 1.63143   2
  -5   5   3 3.52918 0.36262   2
  -4   5   3 128.558 2.33327   2
  -3   5   3 1.91318 0.21743   2
  -2   5   3 353.966 5.70178   2
  -1   5   3 53.8090 1.11022   2
  -1   5   3 98.2992 5.86018  -1
   1   5   3 98.2992 5.86018   2
   0   5   3 657.263 11.0866  -1
   0   5   3 657.263 11.0866   2
   2   5   3 499.634 9.01714   2
   3   5   3 69.4083 1.67270   2
   4   5   3 237.287 4.40132   2
   5   5   3 27.9526 0.85945   2
   6   5   3 227.166 5.87615   2
   7   5   3 12.4276 0.89664   2
  -7   6   3 0.68703 0.44369   2
  -6   6   3 137.693 3.57037   2
  -5   6   3 0.22627 0.39224   2
  -4   6   3 264.804 7.44781   2
  -3   6   3 5.86699 0.47096   2
  -2   6   3 301.580 8.21525   2
  -1   6   3 7.79811 0.57928   2
   0   6   3 720.823 19.2444  -1
   0   6   3 720.823 19.2444   2
   1   6   3 45.6595 1.41437   2
   2   6   3 189.601 4.58833   2
   3   6   3 45.0472 1.25463   2
   4   6   3 174.356 3.36928   2
   5   6   3 55.1117 1.47341   2
   6   6   3 37.1628 1.52528   2
  -6   7   3 13.2098 1.20876   2
  -5   7   3 90.7884 3.61983   2
  -4   7   3 10.6439 1.04969   2
  -3   7   3 69.2387 2.40776   2
  -2   7   3 5.95678 0.65697   2
   0   7   3 0.03120 0.28386  -1
   0   7   3 0.03120 0.28386   2
   1   7   3 254.612 11.2401  -1
  -1   7   3 254.612 11.2401   2
   1   7   3 80.8577 2.24670   2
   2   7   3 0.14569 0.32183   2
   3   7   3 94.2453 2.25930   2
   4   7   3 1.18331 0.35837   2
   5   7   3 16.4291 1.15801   2
  -5   8   3 2.12009 0.66616   2
  -4   8   3 1.52301 0.59144   2
  -3   8   3 0.06017 0.48735   2
  -2   8   3 0.49327 0.47156   2
  -1   8   3 36.4072 2.59703  -1
   1   8   3 36.4072 2.59703   2
   0   8   3 7.05991 0.67515  -1
   0   8   3 7.05991 0.67515   2
   1   8   3 38.6750 2.68845  -1
  -1   8   3 38.6750 2.68845   2
   2   8   3 1.22952 0.45016   2
   3   8   3 44.5713 1.75254   2
   4   8   3 5.39558 0.83802   2
  -3   9   3 49.7216 3.89774   2
  -2   9   3 0.41043 0.56389   2
  -1   9   3 73.6544 4.28518  -1
   1   9   3 73.6544 4.28518   2
   0   9   3 6.30329 0.94085  -1
   0   9   3 6.30329 0.94085   2
   1   9   3 73.1322 4.18040  -1
  -1   9   3 73.1322 4.18040   2
   2   9   3 19.0907 1.14563   2
  -2  -9   4 99.3625 5.14569   2
  -1  -9   4 122.451 8.96089  -1
   1  -9   4 122.451 8.96089   2
   0  -9   4 153.737 6.78326  -1
   0  -9   4 153.737 6.78326   2
   1  -9   4 120.480 8.54192  -1
  -1  -9   4 120.480 8.54192   2
   2  -9   4 59.0061 3.31837   2
   3  -9   4 38.6102 2.55496   2
  -4  -8   4 18.8041 1.49366   2
  -3  -8   4 16.9340 1.40165   2
  -2  -8   4 -0.4305 0.32841   2
  -1  -8   4 23.3189 3.18030  -1
   1  -8   4 23.3189 3.18030   2
   0  -8   4 9.23803 0.74730  -1
   0  -8   4 9.23803 0.74730   2
   1  -8   4 36.6092 2.55090  -1
  -1  -8   4 36.6092 2.55090   2
   2  -8   4 0.87367 0.63118   2
   3  -8   4 4.57028 0.91700   2
   4  -8   4 0.40131 0.70503   2
  -5  -7   4 7.49137 0.68453   2
  -4  -7   4 63.2736 2.23199   2
  -3  -7   4 44.5023 2.21535   2
  -2  -7   4 16.3696 0.77944   2
  -1  -7   4 272.321 15.9730  -1
   1  -7   4 272.321 15.9730   2
   0  -7   4 98.8441 2.59008  -1
   0  -7   4 98.8441 2.59008   2
   1  -7   4 260.859 15.4358  -1
  -1  -7   4 260.859 15.4358   2
   2  -7   4 1.60658 0.44618   2
   3  -7   4 183.770 6.38288   2
   4  -7   4 3.36485 0.66360   2
   5  -7   4 200.357 6.98032   2
   6  -7   4 4.24728 0.97884   2
  -6  -6   4 2.84990 0.52266   2
  -5  -6   4 103.927 2.43771   2
  -4  -6   4 6.80254 0.56521   2
  -3  -6   4 159.877 3.18370   2
  -2  -6   4 9.09241 0.45200   2
  -1  -6   4 309.223 17.8487  -1
   1  -6   4 309.223 17.8487   2
  -1  -6   4 218.965 4.12557   2
   0  -6   4 150.039 2.96690  -1
   0  -6   4 150.039 2.96690   2
   2  -6   4 62.4361 2.42709   2
   3  -6   4 114.978 3.21256   2
   4  -6   4 106.317 3.05548   2
   5  -6   4 12.7764 1.10403   2
   6  -6   4 55.2805 2.49778   2
  -7  -5   4 16.0610 0.92545   2
  -6  -5   4 142.453 3.41550   2
  -5  -5   4 15.2990 0.66915   2
  -4  -5   4 349.153 6.54963   2
  -3  -5   4 2.37120 0.20608   2
  -2  -5   4 444.068 6.30791   2
  -1  -5   4 6.84810 0.27230   2
  -1  -5   4 28.0376 2.52579  -1
   1  -5   4 28.0376 2.52579   2
   0  -5   4 986.658 14.4834  -1
   0  -5   4 986.658 14.4834   2
   2  -5   4 309.372 5.36189   2
   3  -5   4 98.8140 1.94920   2
   4  -5   4 189.995 6.47517   2
   5  -5   4 58.0579 2.45738   2
   6  -5   4 45.9088 2.16834   2
   7  -5   4 76.1976 3.28821   2
  -7  -4   4 0.67345 0.37822   2
  -6  -4   4 155.408 3.21215   2
  -5  -4   4 12.6416 0.52701   2
  -4  -4   4 61.8769 1.18302   2
  -3  -4   4 26.7591 0.54369   2
  -2  -4   4 149.136 2.12257   2
  -1  -4   4 43.5706 0.70883   2
   0  -4   4 0.30005 0.10147  -1
   0  -4   4 0.30005 0.10147   2
   1  -4   4 60.1747 1.05216   2
   2  -4   4 10.4955 0.32031   2
   3  -4   4 28.8257 0.66395   2
   4  -4   4 25.3761 0.59629   2
   5  -4   4 14.7467 0.67987   2
   6  -4   4 1.76887 0.57324   2
   7  -4   4 1.46421 0.58985   2
  -8  -3   4 28.8688 2.29354  -1
   8  -4   2 28.8688 2.29354   2
  -7  -3   4 0.25411 0.34456   2
  -6  -3   4 114.027 2.76636   2
  -5  -3   4 -0.0837 0.19323   2
  -4  -3   4 126.778 2.12109   2
  -3  -3   4 14.7442 0.31846   2
  -2  -3   4 639.368 7.80801   2
  -1  -3   4 53.7789 0.74659   2
   0  -3   4 716.490 10.3576  -1
   0  -3   4 716.490 10.3576   2
   1  -3   4 119.052 1.81673   2
   2  -3   4 654.513 8.95414   2
   3  -3   4 160.584 2.22757   2
   4  -3   4 139.717 1.98934   2
   5  -3   4 88.1634 1.52770   2
   6  -3   4 105.602 2.35691   2
   7  -3   4 79.0374 2.29255   2
   8  -3   4 50.0100 1.94723  -1
  -8  -2   6 50.0100 1.94723   2
  -8  -2   4 129.065 4.37151  -1
   8  -3   2 129.065 4.37151   2
  -7  -2   4 -0.0238 0.29877   2
  -6  -2   4 161.566 3.10882   2
  -5  -2   4 31.0994 0.77379   2
  -4  -2   4 356.477 5.85276   2
  -3  -2   4 53.0639 0.86500   2
  -2  -2   4 441.406 5.49753   2
  -1  -2   4 218.178 2.53632   2
   0  -2   4 1247.65 16.7298  -1
   0  -2   4 1247.65 16.7298   2
   1  -2   4 244.531 4.05327   2
   2  -2   4 217.653 3.14257   2
   3  -2   4 101.191 1.57750   2
   4  -2   4 93.2665 1.49215   2
   5  -2   4 65.6609 1.19619   2
   6  -2   4 31.3371 0.83875   2
   7  -2   4 9.59623 0.72188   2
   8  -2   4 12.1195 1.07484  -1
  -8  -1   6 12.1195 1.07484   2
  -8  -1   4 17.7578 1.07556  -1
   8  -2   2 17.7578 1.07556   2
  -7  -1   4 3.22594 0.38877   2
  -6  -1   4 1.56200 0.28392   2
  -5  -1   4 1.11450 0.21116   2
  -4  -1   4 23.2582 0.53282   2
  -3  -1   4 10.5355 0.32623   2
  -2  -1   4 0.00042 0.07623   2
  -1  -1   4 3.78707 0.13439   2
   0  -1   4 216.015 3.17388  -1
   0  -1   4 216.015 3.17388   2
   1  -1   4 4.21869 0.22101   2
   2  -1   4 0.94244 0.12523   2
   3  -1   4 4.90589 0.20531   2
   4  -1   4 21.8707 0.50443   2
   5  -1   4 15.8208 0.44660   2
   6  -1   4 -0.0145 0.19329   2
   7  -1   4 4.92119 0.43731   2
   8  -1   4 46.0054 1.83737  -1
  -8   0   6 46.0054 1.83737   2
  -8   0   4 95.7275 2.85611  -1
   8  -1   2 95.7275 2.85611   2
  -7   0   4 0.12025 0.26699   2
  -6   0   4 0.15319 0.22190   2
  -5   0   4 3.55101 0.29882   2
  -4   0   4 28.7629 0.71861   2
  -3   0   4 4.13898 0.23535   2
  -2   0   4 51.8691 0.76078   2
  -1   0   4 16.6935 0.37039   2
   0   0   4 181.765 2.80000  -1
   0   0   4 181.765 2.80000   2
   1   0   4 12.1264 0.33468   2
   2   0   4 61.3776 1.18229   2
   3   0   4 7.99608 0.27699   2
   4   0   4 30.1593 0.63551   2
   5   0   4 5.55121 0.28699   2
   6   0   4 0.06778 0.19874   2
   7   0   4 3.00970 0.33842   2
   8   0   4 15.6595 1.11066  -1
  -8   1   6 15.6595 1.11066   2
  -8   1   4 4.28933 0.69579  -1
   8   0   2 4.28933 0.69579   2
  -7   1   4 28.3603 0.90519   2
  -6   1   4 -0.3947 0.20444   2
  -5   1   4 111.171 1.70875   2
  -4   1   4 32.8792 0.60136   2
  -3   1   4 103.206 1.46440   2
  -2   1   4 0.15928 0.08125   2
  -1   1   4 262.557 3.47090   2
   0   1   4 340.294 5.33520  -1
   0   1   4 340.294 5.33520   2
   1   1   4 73.4432 1.37719   2
   2   1   4 1.46984 0.16379   2
   3   1   4 62.3792 1.12741   2
   4   1   4 9.91362 0.33131   2
   5   1   4 12.5213 0.39927   2
   6   1   4 6.82223 0.38970   2
   7   1   4 -0.0050 0.24922   2
   8   1   4 101.022 3.12857  -1
  -8   2   6 101.022 3.12857   2
  -8   2   4 9.27128 0.83221  -1
   8   1   2 9.27128 0.83221   2
  -7   2   4 5.69974 0.47858   2
  -6   2   4 25.4522 0.76093   2
  -5   2   4 24.9256 0.54242   2
  -4   2   4 27.6188 0.54987   2
  -3   2   4 24.3708 0.44315   2
  -2   2   4 50.9455 0.74585   2
  -1   2   4 459.323 5.90818   2
  -1   2   4 723.155 43.9183  -1
   1   2   4 723.155 43.9183   2
   0   2   4 90.7066 1.43433  -1
   0   2   4 90.7066 1.43433   2
   2   2   4 21.5622 0.56050   2
   3   2   4 357.550 6.65165   2
   4   2   4 10.9857 0.37571   2
   5   2   4 154.183 2.71003   2
   6   2   4 7.97645 0.41346   2
   7   2   4 70.3766 1.79974   2
   8   2   4 13.0161 1.08052  -1
  -8   3   6 13.0161 1.08052   2
  -8   3   4 20.7883 1.08559  -1
   8   2   2 20.7883 1.08559   2
  -7   3   4 252.887 5.98740   2
  -6   3   4 0.49882 0.23370   2
  -5   3   4 345.173 5.78931   2
  -4   3   4 0.50473 0.14705   2
  -3   3   4 972.188 12.4984   2
  -2   3   4 12.7165 0.32284   2
  -1   3   4 970.466 14.5479   2
   0   3   4 0.99291 0.16744  -1
   0   3   4 0.99291 0.16744   2
   1   3   4 977.682 17.6154   2
   2   3   4 64.7281 1.22979   2
   3   3   4 392.053 6.86654   2
   4   3   4 16.2824 0.50431   2
   5   3   4 166.815 3.03383   2
   6   3   4 58.2001 1.35581   2
   7   3   4 47.7289 1.48454   2
  -8   4   4 1.18945 0.73148  -1
   8   3   2 1.18945 0.73148   2
  -7   4   4 75.8147 2.18316   2
  -6   4   4 0.46436 0.24360   2
  -5   4   4 87.6935 1.62014   2
  -4   4   4 9.08429 0.32911   2
  -3   4   4 76.1172 1.29840   2
  -2   4   4 1.18095 0.16971   2
  -1   4   4 30.5653 0.70463   2
  -1   4   4 35.2748 1.80582  -1
   1   4   4 35.2748 1.80582   2
   0   4   4 71.0101 1.40045  -1
   0   4   4 71.0101 1.40045   2
   2   4   4 0.21956 0.16128   2
   3   4   4 0.07308 0.18641   2
   4   4   4 8.63242 0.43184   2
   5   4   4 2.03633 0.31024   2
   6   4   4 11.7955 0.60274   2
   7   4   4 2.82553 0.47075   2
  -7   5   4 46.2699 2.09365   2
  -6   5   4 0.85942 0.32203   2
  -5   5   4 46.6721 1.36907   2
  -4   5   4 4.01281 0.32238   2
  -3   5   4 189.699 3.57629   2
  -2   5   4 28.3314 0.67637   2
  -1   5   4 122.024 2.22349   2
   0   5   4 243.478 4.49968  -1
   0   5   4 243.478 4.49968   2
   1   5   4 211.260 4.19458   2
   2   5   4 158.875 3.33547   2
   3   5   4 82.4797 1.93426   2
   4   5   4 241.231 4.48073   2
   5   5   4 72.8802 1.65418   2
   6   5   4 136.486 3.81878   2
  -7   6   4 14.2333 1.22029   2
  -6   6   4 50.6246 1.87827   2
  -5   6   4 74.5648 2.16126   2
  -4   6   4 139.544 4.21053   2
  -3   6   4 16.9959 0.73911   2
  -2   6   4 206.484 5.10041   2
  -1   6   4 67.4795 1.96095   2
   0   6   4 502.869 13.6088  -1
   0   6   4 502.869 13.6088   2
   1   6   4 9.74044 0.62425   2
   2   6   4 165.492 4.07780   2
   3   6   4 24.3431 0.93261   2
   4   6   4 99.2346 2.10070   2
   5   6   4 1.63565 0.42665   2
   6   6   4 18.5616 1.13860   2
  -6   7   4 37.1532 1.99286   2
  -5   7   4 17.4338 1.27588   2
  -4   7   4 22.9994 1.44868   2
  -3   7   4 17.8979 1.04155   2
  -2   7   4 11.2177 0.85995   2
   0   7   4 6.52753 0.67776  -1
   0   7   4 6.52753 0.67776   2
   1   7   4 37.1731 1.30380   2
   1   7   4 82.9575 4.36479  -1
  -1   7   4 82.9575 4.36479   2
   2   7   4 7.71969 0.63950   2
   3   7   4 41.2143 1.61950   2
   4   7   4 46.5665 1.65000   2
   5   7   4 20.5133 1.23333   2
  -5   8   4 27.6261 1.72552   2
  -4   8   4 7.61949 0.98316   2
  -3   8   4 17.7127 1.29805   2
  -2   8   4 16.7755 1.23669   2
  -1   8   4 27.4480 2.28009  -1
   1   8   4 27.4480 2.28009   2
   0   8   4 18.8813 1.03040  -1
   0   8   4 18.8813 1.03040   2
   1   8   4 35.2180 2.62912  -1
  -1   8   4 35.2180 2.62912   2
   2   8   4 12.9848 0.96554   2
   3   8   4 4.46359 0.54170   2
   4   8   4 0.23776 0.57459   2
  -3   9   4 23.9839 1.61906   2
  -2   9   4 5.09945 0.87717   2
  -1   9   4 148.728 7.37683  -1
   1   9   4 148.728 7.37683   2
   0   9   4 22.7021 1.20037  -1
   0   9   4 22.7021 1.20037   2
   1   9   4 150.182 5.71816  -1
  -1   9   4 150.182 5.71816   2
  -1  -9   5 -0.2402 1.37831  -1
   1  -9   5 -0.2402 1.37831   2
   0  -9   5 0.05730 0.59787  -1
   0  -9   5 0.05730 0.59787   2
   1  -9   5 0.48205 1.37743  -1
  -1  -9   5 0.48205 1.37743   2
   2  -9   5 7.32609 1.21964   2
  -4  -8   5 60.1874 2.93411   2
  -3  -8   5 2.53739 0.72482   2
  -2  -8   5 38.0184 1.44609   2
  -1  -8   5 6.70159 1.17924  -1
   1  -8   5 6.70159 1.17924   2
   0  -8   5 138.812 5.02077  -1
   0  -8   5 138.812 5.02077   2
   1  -8   5 5.00808 1.47046  -1
  -1  -8   5 5.00808 1.47046   2
   2  -8   5 28.6736 1.64505   2
   3  -8   5 1.11800 0.66101   2
   4  -8   5 26.1143 2.02208   2
  -5  -7   5 17.4026 1.24094   2
  -4  -7   5 32.1343 1.90038   2
  -3  -7   5 26.2482 1.60373   2
  -2  -7   5 32.5367 1.15411   2
  -1  -7   5 8.10138 0.58701   2
  -1  -7   5 21.5542 2.58856  -1
   1  -7   5 21.5542 2.58856   2
   0  -7   5 82.7149 2.23997  -1
   0  -7   5 82.7149 2.23997   2
   2  -7   5 32.6010 1.40803   2
   3  -7   5 0.00409 0.43808   2
   4  -7   5 27.9195 1.62090   2
   5  -7   5 1.20218 0.58599   2
  -6  -6   5 6.73402 0.67878   2
  -5  -6   5 0.05365 0.34560   2
  -4  -6   5 -0.2468 0.29689   2
  -3  -6   5 3.10699 0.41565   2
  -2  -6   5 26.5558 0.75390   2
  -1  -6   5 9.52196 0.50941   2
  -1  -6   5 37.5508 3.22441  -1
   1  -6   5 37.5508 3.22441   2
   0  -6   5 -0.3299 0.19311  -1
   0  -6   5 -0.3299 0.19311   2
   2  -6   5 10.9836 0.79079   2
   3  -6   5 20.7220 1.07252   2
   4  -6   5 2.69327 0.53690   2
   5  -6   5 27.5671 1.58755   2
   6  -6   5 0.17137 0.52224   2
  -7  -5   5 52.4884 1.79014   2
  -6  -5   5 13.8162 0.74306   2
  -5  -5   5 116.128 2.62604   2
  -4  -5   5 3.34243 0.33308   2
  -3  -5   5 189.174 3.12501   2
  -2  -5   5 122.939 1.88696   2
  -1  -5   5 262.591 3.85727   2
   0  -5   5 127.283 2.03469  -1
   0  -5   5 127.283 2.03469   2
   1  -5   5 215.798 3.81085   2
   2  -5   5 275.825 5.24646   2
   3  -5   5 99.6011 2.66494   2
   4  -5   5 126.902 4.05215   2
   5  -5   5 49.0419 2.61391   2
   6  -5   5 146.633 5.29957   2
   7  -5   5 3.39500 0.72827   2
  -7  -4   5 60.1994 1.90952   2
  -6  -4   5 37.6978 1.05451   2
  -5  -4   5 55.6837 1.21354   2
  -4  -4   5 141.574 2.63696   2
  -3  -4   5 62.6385 0.94976   2
  -2  -4   5 166.466 2.25870   2
  -1  -4   5 15.1743 0.33825   2
   0  -4   5 656.580 11.3146  -1
   0  -4   5 656.580 11.3146   2
   1  -4   5 1.68975 0.15322   2
   2  -4   5 126.599 2.33328   2
   3  -4   5 6.20766 0.25829   2
   4  -4   5 90.6931 2.13731   2
   5  -4   5 42.0752 1.93167   2
   6  -4   5 13.9934 1.17156   2
   7  -4   5 15.7991 1.28733   2
  -8  -3   5 29.8677 2.35166  -1
   8  -4   3 29.8677 2.35166   2
  -7  -3   5 73.5880 2.03148   2
  -6  -3   5 6.67786 0.46403   2
  -5  -3   5 144.929 2.60105   2
  -4  -3   5 11.5607 0.43334   2
  -3  -3   5 454.761 6.09614   2
  -2  -3   5 7.72289 0.21030   2
  -1  -3   5 774.017 9.19170   2
   0  -3   5 41.5031 0.73944  -1
   0  -3   5 41.5031 0.73944   2
   1  -3   5 800.962 14.6160   2
   2  -3   5 156.518 2.75426   2
   3  -3   5 528.127 7.63336   2
   4  -3   5 106.847 1.91739   2
   5  -3   5 215.122 4.39609   2
   6  -3   5 134.744 2.92355   2
   7  -3   5 110.632 5.26990   2
   8  -3   5 53.9714 2.07263  -1
  -8  -2   7 53.9714 2.07263   2
  -8  -2   5 24.5152 2.15680  -1
   8  -3   3 24.5152 2.15680   2
  -7  -2   5 225.003 5.05675   2
  -6  -2   5 7.81192 0.48374   2
  -5  -2   5 423.397 6.95248   2
  -4  -2   5 141.936 2.23091   2
  -3  -2   5 566.776 9.15451   2
  -2  -2   5 111.980 1.50125   2
  -1  -2   5 714.476 9.56792   2
   0  -2   5 1262.81 15.9277  -1
   0  -2   5 1262.81 15.9277   2
   1  -2   5 382.696 7.07482   2
   2  -2   5 111.930 2.07345   2
   3  -2   5 111.026 1.71740   2
   4  -2   5 164.063 2.43993   2
   5  -2   5 13.3918 0.48490   2
   6  -2   5 11.0081 0.55777   2
   7  -2   5 0.01527 0.34562   2
   8  -2   5 27.8788 1.42791  -1
  -8  -1   7 27.8788 1.42791   2
  -8  -1   5 3.55675 0.99651  -1
   8  -2   3 3.55675 0.99651   2
  -7  -1   5 0.09860 0.27887   2
  -6  -1   5 13.0102 0.58712   2
  -5  -1   5 5.24507 0.32601   2
  -4  -1   5 3.19001 0.21076   2
  -3  -1   5 89.0643 1.51006   2
  -2  -1   5 10.4782 0.23829   2
  -1  -1   5 230.862 3.10373   2
   0  -1   5 373.137 6.67551  -1
   0  -1   5 373.137 6.67551   2
   1  -1   5 370.993 7.14671   2
   2  -1   5 25.5499 0.63320   2
   3  -1   5 245.124 3.98539   2
   4  -1   5 158.456 2.47435   2
   5  -1   5 103.960 1.88372   2
   6  -1   5 52.8809 1.23895   2
   7  -1   5 52.9943 1.67881   2
   8  -1   5 83.9654 2.74546  -1
  -8   0   7 83.9654 2.74546   2
  -8   0   5 11.7986 0.95562  -1
   8  -1   3 11.7986 0.95562   2
  -7   0   5 91.4907 2.06940   2
  -6   0   5 23.5602 0.74295   2
  -5   0   5 304.142 5.42417   2
  -4   0   5 57.0978 1.14323   2
  -3   0   5 272.112 4.25364   2
  -2   0   5 224.443 3.11238   2
  -1   0   5 532.732 8.04527   2
   0   0   5 554.182 8.74569  -1
   0   0   5 554.182 8.74569   2
   1   0   5 157.698 3.00940   2
   2   0   5 226.689 4.54739   2
   3   0   5 64.6080 1.09455   2
   4   0   5 94.5437 1.61214   2
   5   0   5 13.6354 0.41103   2
   6   0   5 36.1277 0.86863   2
   7   0   5 0.01482 0.25460   2
   8   0   5 41.3454 1.73310  -1
  -8   1   7 41.3454 1.73310   2
  -8   1   5 28.7698 1.26816  -1
   8   0   3 28.7698 1.26816   2
  -7   1   5 3.18192 0.41284   2
  -6   1   5 5.10189 0.37826   2
  -5   1   5 25.3047 0.60206   2
  -4   1   5 0.73846 0.11105   2
  -3   1   5 29.7081 0.55861   2
  -2   1   5 0.91475 0.12442   2
  -1   1   5 307.521 4.06096   2
   0   1   5 301.018 4.55742  -1
   0   1   5 301.018 4.55742   2
   1   1   5 243.812 4.29116   2
   2   1   5 43.0239 0.92045   2
   3   1   5 186.307 3.30199   2
   4   1   5 146.428 2.29738   2
   5   1   5 85.5094 1.55215   2
   6   1   5 40.7927 0.95971   2
   7   1   5 35.4134 1.03901   2
   8   1   5 57.1346 2.11459  -1
  -8   2   7 57.1346 2.11459   2
  -8   2   5 23.1034 1.02519  -1
   8   1   3 23.1034 1.02519   2
  -7   2   5 123.764 3.21878   2
  -6   2   5 30.1622 0.94392   2
  -5   2   5 222.260 3.64606   2
  -4   2   5 38.7159 0.73662   2
  -3   2   5 464.997 6.12932   2
  -2   2   5 287.391 3.81872   2
   0   2   5 175.867 2.78595  -1
   0   2   5 175.867 2.78595   2
   1   2   5 498.248 9.23892   2
   1   2   5 1060.68 57.2473  -1
  -1   2   5 1060.68 57.2473   2
   2   2   5 258.330 4.64331   2
   3   2   5 247.990 5.24951   2
   4   2   5 18.9978 0.51351   2
   5   2   5 80.2280 1.56167   2
   6   2   5 41.8631 0.95771   2
   7   2   5 23.7763 0.90915   2
   8   2   5 3.18097 0.93016  -1
  -8   3   7 3.18097 0.93016   2
  -8   3   5 19.2318 1.06055  -1
   8   2   3 19.2318 1.06055   2
  -7   3   5 40.5061 1.39802   2
  -6   3   5 3.68550 0.36365   2
  -5   3   5 13.6375 0.49074   2
  -4   3   5 4.60173 0.23757   2
  -3   3   5 43.7214 0.76831   2
  -2   3   5 66.4679 1.01639   2
  -1   3   5 0.61107 0.15262   2
   0   3   5 115.689 2.11010  -1
   0   3   5 115.689 2.11010   2
   1   3   5 3.17693 0.22051   2
   2   3   5 153.470 2.81359   2
   3   3   5 13.7965 0.51543   2
   4   3   5 37.1449 0.85003   2
   5   3   5 3.67029 0.34007   2
   6   3   5 51.0242 1.12432   2
   7   3   5 5.93887 0.57573   2
  -8   4   5 10.5943 0.96948  -1
   8   3   3 10.5943 0.96948   2
  -7   4   5 60.1914 2.03885   2
  -6   4   5 16.5476 0.85043   2
  -5   4   5 32.8671 0.88437   2
  -4   4   5 28.5509 0.66625   2
  -3   4   5 202.750 3.13385   2
  -2   4   5 46.3114 0.97266   2
  -1   4   5 95.0365 1.69061   2
  -1   4   5 276.730 15.4581  -1
   1   4   5 276.730 15.4581   2
   0   4   5 43.3054 1.02886  -1
   0   4   5 43.3054 1.02886   2
   2   4   5 18.3770 0.53101   2
   3   4   5 59.3505 1.37364   2
   4   4   5 4.62993 0.34449   2
   5   4   5 52.6716 1.27972   2
   6   4   5 4.28763 0.50296   2
   7   4   5 14.6940 0.86886   2
  -7   5   5 6.04720 0.67967   2
  -6   5   5 15.9473 0.76725   2
  -5   5   5 39.2474 1.22225   2
  -4   5   5 21.0667 0.66303   2
  -3   5   5 11.5570 0.53048   2
  -2   5   5 49.8560 1.14397   2
  -1   5   5 41.0946 1.05740   2
  -1   5   5 53.4529 3.83467  -1
   1   5   5 53.4529 3.83467   2
   0   5   5 26.1596 0.86513  -1
   0   5   5 26.1596 0.86513   2
   2   5   5 30.1103 0.85778   2
   3   5   5 31.0280 0.89886   2
   4   5   5 -0.1849 0.24602   2
   5   5   5 13.3669 0.62123   2
   6   5   5 2.28734 0.50806   2
  -6   6   5 0.44336 0.43379   2
  -5   6   5 0.27280 0.33589   2
  -4   6   5 1.39849 0.38877   2
  -3   6   5 -0.0931 0.26078   2
  -2   6   5 21.8128 0.92847   2
  -1   6   5 7.51404 0.59615   2
   0   6   5 45.8898 1.72720  -1
   0   6   5 45.8898 1.72720   2
   1   6   5 3.19287 0.41217   2
   2   6   5 69.8412 1.85465   2
   3   6   5 7.74778 0.58882   2
   4   6   5 20.4420 0.78684   2
   5   6   5 0.29621 0.39536   2
   6   6   5 35.3185 1.87058   2
  -6   7   5 94.2596 3.84439   2
  -5   7   5 -0.0688 0.45352   2
  -4   7   5 141.331 5.22721   2
  -3   7   5 10.5280 0.87886   2
  -2   7   5 167.866 5.01707   2
  -1   7   5 9.13426 1.52863  -1
   1   7   5 9.13426 1.52863   2
   0   7   5 302.040 8.50226  -1
   0   7   5 302.040 8.50226   2
   1   7   5 10.7910 1.50901  -1
  -1   7   5 10.7910 1.50901   2
   2   7   5 92.8357 2.90203   2
   3   7   5 42.9504 1.69043   2
   4   7   5 52.2881 1.79119   2
   5   7   5 20.0156 1.24676   2
  -4   8   5 28.9358 1.74568   2
  -3   8   5 50.5236 2.39765   2
  -2   8   5 16.4035 1.24780   2
  -1   8   5 110.507 5.70681  -1
   1   8   5 110.507 5.70681   2
   0   8   5 13.2420 0.95069  -1
   0   8   5 13.2420 0.95069   2
   1   8   5 101.318 5.30659  -1
  -1   8   5 101.318 5.30659   2
   2   8   5 0.95365 0.44406   2
   3   8   5 23.2059 1.23048   2
  -2   9   5 63.9956 2.95038   2
  -1   9   5 4.66612 1.63174  -1
   1   9   5 4.66612 1.63174   2
   0   9   5 165.879 4.82252  -1
   0   9   5 165.879 4.82252   2
   1   9   5 8.08739 1.39455  -1
  -1   9   5 8.08739 1.39455   2
  -1  -9   6 85.6170 4.43943  -1
   1  -9   6 85.6170 4.43943   2
   0  -9   6 36.7510 2.39466  -1
   0  -9   6 36.7510 2.39466   2
   1  -9   6 83.4844 4.28558  -1
  -1  -9   6 83.4844 4.28558   2
  -3  -8   6 118.819 4.77693   2
  -2  -8   6 47.8623 4.08672   2
  -1  -8   6 186.655 6.58379  -1
   1  -8   6 186.655 6.58379   2
   0  -8   6 262.263 8.83907  -1
   0  -8   6 262.263 8.83907   2
   1  -8   6 180.230 6.34948  -1
  -1  -8   6 180.230 6.34948   2
   2  -8   6 88.2150 3.54480   2
   3  -8   6 27.8855 1.67625   2
   4  -8   6 91.5481 4.60000   2
  -5  -7   6 13.0249 1.09450   2
  -4  -7   6 3.68982 0.63473   2
  -3  -7   6 1.72060 0.63301   2
  -2  -7   6 37.0589 1.25067   2
  -1  -7   6 1.37369 0.34352   2
  -1  -7   6 11.3916 2.09231  -1
   1  -7   6 11.3916 2.09231   2
   0  -7   6 0.44312 0.37013  -1
   0  -7   6 0.44312 0.37013   2
   2  -7   6 9.63571 0.98326   2
   3  -7   6 28.4335 1.61344   2
   4  -7   6 2.89099 0.68446   2
   5  -7   6 21.8291 1.48959   2
  -6  -6   6 8.04542 0.73254   2
  -5  -6   6 84.0955 2.38852   2
  -4  -6   6 3.25814 0.45483   2
  -3  -6   6 133.636 3.88010   2
  -2  -6   6 35.8221 1.04824   2
  -1  -6   6 255.353 15.0958  -1
   1  -6   6 255.353 15.0958   2
  -1  -6   6 145.789 3.19675   2
   0  -6   6 26.6842 0.86614  -1
   0  -6   6 26.6842 0.86614   2
   2  -6   6 42.0662 1.63413   2
   3  -6   6 46.9361 2.14272   2
   4  -6   6 13.7242 1.01618   2
   5  -6   6 41.1502 2.06913   2
   6  -6   6 15.3028 1.33079   2
  -6  -5   6 1.40120 0.35967   2
  -5  -5   6 33.5953 1.06111   2
  -4  -5   6 3.58725 0.34653   2
  -3  -5   6 40.9312 0.89762   2
  -2  -5   6 0.72018 0.14935   2
  -1  -5   6 31.7647 0.63382   2
   0  -5   6 9.92619 0.39130  -1
   0  -5   6 9.92619 0.39130   2
   1  -5   6 12.3041 0.50263   2
   2  -5   6 1.46751 0.32515   2
   3  -5   6 18.1323 1.37510   2
   4  -5   6 5.21938 0.65293   2
   5  -5   6 1.85251 0.51298   2
   6  -5   6 0.07943 0.64578   2
   7  -5   6 13.2555 1.30832   2
  -7  -4   6 2.51145 0.47628   2
  -6  -4   6 28.6409 1.01181   2
  -5  -4   6 1.41214 0.29758   2
  -4  -4   6 5.35510 0.35509   2
  -3  -4   6 2.35415 0.17271   2
  -2  -4   6 73.3600 0.98361   2
  -1  -4   6 0.23438 0.10985   2
   0  -4   6 11.5238 0.34876  -1
   0  -4   6 11.5238 0.34876   2
   1  -4   6 0.70220 0.13242   2
   2  -4   6 60.8143 1.53187   2
   3  -4   6 0.30508 0.28607   2
   4  -4   6 0.91619 0.31726   2
   5  -4   6 0.88351 0.52167   2
   6  -4   6 14.4639 1.22655   2
   7  -4   6 0.69508 0.57570   2
  -7  -3   6 4.02399 0.50698   2
  -6  -3   6 18.5531 0.70214   2
  -5  -3   6 4.50712 0.36350   2
  -4  -3   6 1.65146 0.23175   2
  -3  -3   6 22.0440 0.43922   2
  -2  -3   6 78.9976 1.10149   2
  -1  -3   6 44.5035 0.63856   2
   0  -3   6 9.17658 0.29985  -1
   0  -3   6 9.17658 0.29985   2
   1  -3   6 81.5557 1.60880   2
   2  -3   6 95.7358 2.00956   2
   3  -3   6 121.225 2.44664   2
   4  -3   6 5.59743 0.30292   2
   5  -3   6 78.7839 2.09219   2
   6  -3   6 29.2121 1.63076   2
   7  -3   6 66.5266 3.61228   2
  -8  -2   6 45.1647 2.92860  -1
   8  -3   4 45.1647 2.92860   2
  -7  -2   6 2.21065 0.43214   2
  -6  -2   6 50.6987 1.24139   2
  -5  -2   6 62.4877 1.37552   2
  -4  -2   6 130.385 2.06632   2
  -3  -2   6 100.305 1.63366   2
  -2  -2   6 144.845 1.91341   2
  -1  -2   6 351.368 4.72626   2
   0  -2   6 559.120 7.81908  -1
   0  -2   6 559.120 7.81908   2
   1  -2   6 370.575 7.67929   2
   2  -2   6 105.641 1.96991   2
   3  -2   6 166.538 2.79043   2
   4  -2   6 68.6876 1.27292   2
   5  -2   6 81.1618 1.85328   2
   6  -2   6 17.1553 0.67629   2
   7  -2   6 12.2177 0.80675   2
   8  -2   6 25.7442 1.40849  -1
  -8  -1   8 25.7442 1.40849   2
  -8  -1   6 14.2052 1.11516  -1
   8  -2   4 14.2052 1.11516   2
  -7  -1   6 19.8663 0.83137   2
  -6  -1   6 0.27437 0.23809   2
  -5  -1   6 2.65794 0.29352   2
  -4  -1   6 0.68417 0.14573   2
  -3  -1   6 25.5658 0.58164   2
  -2  -1   6 13.0213 0.30026   2
  -1  -1   6 0.09990 0.08819   2
   0  -1   6 0.51131 0.10999  -1
   0  -1   6 0.51131 0.10999   2
   1  -1   6 10.4826 0.40683   2
   2  -1   6 69.4019 1.42514   2
   3  -1   6 58.8029 1.05227   2
   4  -1   6 10.2917 0.34784   2
   5  -1   6 69.9845 1.48101   2
   6  -1   6 27.4303 0.79817   2
   7  -1   6 36.4683 1.22959   2
   8  -1   6 0.95091 0.85063  -1
  -8   0   8 0.95091 0.85063   2
  -8   0   6 39.9802 1.97108  -1
   8  -1   4 39.9802 1.97108   2
  -7   0   6 6.95273 0.53644   2
  -6   0   6 53.5288 1.26996   2
  -5   0   6 22.5981 0.67762   2
  -4   0   6 187.113 3.41093   2
  -3   0   6 90.5081 1.58799   2
  -2   0   6 70.4184 1.13515   2
  -1   0   6 147.981 2.20898   2
   0   0   6 623.954 10.9699  -1
   0   0   6 623.954 10.9699   2
   1   0   6 148.311 2.85723   2
   2   0   6 4.84000 0.25580   2
   3   0   6 80.4485 1.43954   2
   4   0   6 38.1190 0.74066   2
   5   0   6 30.2494 0.66118   2
   6   0   6 4.19833 0.35744   2
   7   0   6 6.06559 0.45100   2
   8   0   6 12.7270 1.09423  -1
  -8   1   8 12.7270 1.09423   2
  -8   1   6 16.9424 1.09598  -1
   8   0   4 16.9424 1.09598   2
  -7   1   6 5.51887 0.48832   2
  -6   1   6 4.65850 0.39820   2
  -5   1   6 1.08841 0.25915   2
  -4   1   6 89.1253 1.42774   2
  -3   1   6 2.39899 0.15563   2
  -2   1   6 127.471 1.96315   2
  -1   1   6 121.067 1.83150   2
   0   1   6 1035.67 14.9111  -1
   0   1   6 1035.67 14.9111   2
   1   1   6 137.234 2.49694   2
   2   1   6 193.356 3.51987   2
   3   1   6 254.563 4.29922   2
   4   1   6 197.325 3.25455   2
   5   1   6 190.217 3.14859   2
   6   1   6 33.3586 0.84726   2
   7   1   6 135.385 3.30682   2
   8   1   6 24.8559 1.37109  -1
  -8   2   8 24.8559 1.37109   2
  -8   2   6 85.9752 2.48674  -1
   8   1   4 85.9752 2.48674   2
  -7   2   6 70.7255 2.07944   2
  -6   2   6 220.177 4.86128   2
  -5   2   6 91.1160 1.87066   2
  -4   2   6 312.817 4.58097   2
  -3   2   6 514.156 7.03997   2
  -2   2   6 417.696 5.52962   2
   0   2   6 676.582 10.4052  -1
   0   2   6 676.582 10.4052   2
   1   2   6 1156.75 21.3449   2
   1   2   6 1219.99 65.8215  -1
  -1   2   6 1219.99 65.8215   2
   2   2   6 159.403 2.75389   2
   3   2   6 574.281 10.5852   2
   4   2   6 51.4232 1.03640   2
   5   2   6 351.636 6.04935   2
   6   2   6 9.02141 0.46754   2
   7   2   6 139.017 3.20980   2
  -8   3   6 13.4165 0.88247  -1
   8   2   4 13.4165 0.88247   2
  -7   3   6 59.3370 1.83394   2
  -6   3   6 7.08984 0.54791   2
  -5   3   6 209.578 3.92302   2
  -4   3   6 0.28244 0.14019   2
  -3   3   6 146.617 2.12573   2
  -2   3   6 -0.0632 0.10344   2
  -1   3   6 264.226 4.19209   2
   0   3   6 88.3397 1.51831  -1
   0   3   6 88.3397 1.51831   2
   1   3   6 49.8115 1.01338   2
   2   3   6 11.5302 0.39910   2
   3   3   6 5.27875 0.35166   2
   4   3   6 59.7326 1.32565   2
   5   3   6 11.2351 0.52814   2
   6   3   6 9.95432 0.49750   2
   7   3   6 20.3909 0.93003   2
  -7   4   6 0.01704 0.49425   2
  -6   4   6 105.976 3.77875   2
  -5   4   6 10.5090 0.55096   2
  -4   4   6 144.370 2.72145   2
  -3   4   6 76.6892 1.47152   2
  -2   4   6 222.207 3.67526   2
  -1   4   6 199.226 3.46622   2
  -1   4   6 529.570 29.1760  -1
   1   4   6 529.570 29.1760   2
   0   4   6 241.675 4.57130  -1
   0   4   6 241.675 4.57130   2
   2   4   6 174.269 3.18247   2
   3   4   6 272.736 5.23359   2
   4   4   6 25.8138 0.81709   2
   5   4   6 186.514 3.58724   2
   6   4   6 31.3842 1.16827   2
   7   4   6 88.8523 2.57652   2
  -7   5   6 15.7470 1.29150   2
  -6   5   6 19.1399 0.90150   2
  -5   5   6 100.310 2.49516   2
  -4   5   6 12.2626 0.66193   2
  -3   5   6 63.0940 1.51450   2
  -2   5   6 0.24168 0.23481   2
  -1   5   6 157.308 3.46380   2
  -1   5   6 188.374 11.0123  -1
   1   5   6 188.374 11.0123   2
   0   5   6 3.90141 0.40565  -1
   0   5   6 3.90141 0.40565   2
   2   5   6 29.0878 0.91850   2
   3   5   6 49.4538 1.25222   2
   4   5   6 21.3522 0.81865   2
   5   5   6 3.54814 0.43958   2
   6   5   6 38.2263 1.53396   2
  -6   6   6 76.8039 2.57948   2
  -5   6   6 0.83779 0.39018   2
  -4   6   6 135.288 3.71409   2
  -3   6   6 18.9325 0.80583   2
  -2   6   6 209.697 5.19521   2
  -1   6   6 2.50070 0.48246   2
   0   6   6 366.003 10.0945  -1
   0   6   6 366.003 10.0945   2
   1   6   6 2.12841 0.39010   2
   2   6   6 200.903 4.53411   2
   3   6   6 7.41008 0.58482   2
   4   6   6 110.953 3.09383   2
   5   6   6 0.10908 0.39522   2
  -5   7   6 28.0038 1.68817   2
  -4   7   6 72.2024 3.07226   2
  -3   7   6 13.8116 1.22145   2
  -2   7   6 55.3032 2.08196   2
  -1   7   6 35.3816 2.53628  -1
   1   7   6 35.3816 2.53628   2
   0   7   6 114.101 3.62686  -1
   0   7   6 114.101 3.62686   2
   1   7   6 38.2603 2.64654  -1
  -1   7   6 38.2603 2.64654   2
   2   7   6 20.1791 1.07692   2
   3   7   6 13.7033 0.89306   2
   4   7   6 25.3118 1.16789   2
  -4   8   6 0.62004 0.58438   2
  -3   8   6 3.64443 0.76225   2
  -2   8   6 1.52972 0.61457   2
  -1   8   6 8.44463 1.65382  -1
   1   8   6 8.44463 1.65382   2
   0   8   6 4.27424 0.61188  -1
   0   8   6 4.27424 0.61188   2
   1   8   6 10.7200 1.82932  -1
  -1   8   6 10.7200 1.82932   2
   2   8   6 -0.3843 0.39705   2
   3   8   6 2.31389 0.56578   2
  -1   9   6 28.7698 1.78697   2
   0   9   6 8.88929 0.83165  -1
   0   9   6 8.88929 0.83165   2
  -3  -8   7 38.1577 3.78941   2
  -2  -8   7 21.5464 2.71567   2
  -1  -8   7 182.328 6.51516  -1
   1  -8   7 182.328 6.51516   2
   0  -8   7 74.7717 3.11585  -1
   0  -8   7 74.7717 3.11585   2
   1  -8   7 189.358 8.02820  -1
  -1  -8   7 189.358 8.02820   2
   2  -8   7 6.88598 0.90870   2
   3  -8   7 88.8754 3.64843   2
  -4  -7   7 -0.2714 0.38705   2
  -3  -7   7 56.8259 2.09317   2
  -2  -7   7 3.59241 0.49213   2
  -1  -7   7 58.7691 2.08792   2
  -1  -7   7 64.3334 4.97910  -1
   1  -7   7 64.3334 4.97910   2
   0  -7   7 18.2389 1.03981  -1
   0  -7   7 18.2389 1.03981   2
   2  -7   7 22.6382 1.42641   2
   3  -7   7 11.3449 1.11180   2
   4  -7   7 18.4073 1.36630   2
   5  -7   7 1.82546 0.63751   2
  -5  -6   7 5.95800 0.75064   2
  -4  -6   7 149.271 4.47066   2
  -3  -6   7 32.2962 1.40110   2
  -2  -6   7 113.034 2.56771   2
  -1  -6   7 89.2338 2.10073   2
   0  -6   7 407.515 11.0148  -1
   0  -6   7 407.515 11.0148   2
   1  -6   7 98.5341 3.09892   2
   2  -6   7 65.6755 2.72075   2
   3  -6   7 96.6421 4.39000   2
   4  -6   7 77.7955 2.82297   2
   5  -6   7 37.5150 1.73728   2
   6  -6   7 8.68105 1.35928   2
  -6  -5   7 60.3320 1.64939   2
  -5  -5   7 6.43865 0.50390   2
  -4  -5   7 9.08338 0.54248   2
  -3  -5   7 5.55934 0.34328   2
  -2  -5   7 35.3421 0.72842   2
  -1  -5   7 0.56607 0.18856   2
   0  -5   7 23.3042 0.71505  -1
   0  -5   7 23.3042 0.71505   2
   1  -5   7 4.18345 0.48375   2
   2  -5   7 0.78462 0.41078   2
   3  -5   7 15.7071 1.12765   2
   4  -5   7 55.7454 2.15096   2
   5  -5   7 26.7878 1.67812   2
   6  -5   7 9.35009 1.33674   2
  -7  -4   7 39.1837 1.46345   2
  -6  -4   7 98.1030 2.33465   2
  -5  -4   7 63.2646 1.51878   2
  -4  -4   7 133.321 2.63027   2
  -3  -4   7 178.089 2.68697   2
  -2  -4   7 323.543 4.26069   2
  -1  -4   7 248.133 3.25622   2
   0  -4   7 396.310 7.25408  -1
   0  -4   7 396.310 7.25408   2
   1  -4   7 262.725 5.15415   2
   2  -4   7 204.288 4.49087   2
   3  -4   7 229.388 6.30514   2
   4  -4   7 52.9921 2.45093   2
   5  -4   7 85.4345 3.55335   2
   6  -4   7 19.8013 1.37170   2
   7  -4   7 77.7976 3.39115   2
  -7  -3   7 15.6331 0.84412   2
  -6  -3   7 63.5874 1.65876   2
  -5  -3   7 60.4392 1.44388   2
  -4  -3   7 39.8744 0.93827   2
  -3  -3   7 36.2121 0.70011   2
  -2  -3   7 37.3764 0.68420   2
  -1  -3   7 56.6646 0.89422   2
   0  -3   7 1.88822 0.12812  -1
   0  -3   7 1.88822 0.12812   2
   1  -3   7 30.1494 0.69655   2
   2  -3   7 0.07112 0.15284   2
   3  -3   7 7.68138 0.36821   2
   4  -3   7 13.9058 0.64760   2
   5  -3   7 4.77691 0.63859   2
   6  -3   7 0.72490 0.51748   2
   7  -3   7 0.00953 0.66534   2
  -8  -2   7 56.1865 3.43611  -1
   8  -3   5 56.1865 3.43611   2
  -7  -2   7 1.01270 0.41493   2
  -6  -2   7 58.4304 1.38270   2
  -5  -2   7 16.1094 0.60061   2
  -4  -2   7 36.3164 0.75452   2
  -3  -2   7 28.8172 0.57470   2
  -2  -2   7 139.069 2.08269   2
  -1  -2   7 75.8817 1.06598   2
   0  -2   7 4.01726 0.17908  -1
   0  -2   7 4.01726 0.17908   2
   1  -2   7 92.0118 1.83797   2
   2  -2   7 29.9870 0.83490   2
   3  -2   7 112.965 2.15560   2
   4  -2   7 15.1083 0.54184   2
   5  -2   7 89.1568 1.94234   2
   6  -2   7 0.20663 0.28122   2
   7  -2   7 52.0588 3.04481   2
  -8  -1   7 29.2762 2.39138  -1
   8  -2   5 29.2762 2.39138   2
  -7  -1   7 6.30353 0.61601   2
  -6  -1   7 0.42917 0.25754   2
  -5  -1   7 45.3021 1.08293   2
  -4  -1   7 -0.1265 0.16507   2
  -3  -1   7 68.7728 1.41843   2
  -2  -1   7 123.208 1.70115   2
  -1  -1   7 199.814 3.03424   2
   0  -1   7 123.937 1.99397  -1
   0  -1   7 123.937 1.99397   2
   1  -1   7 228.889 4.24549   2
   2  -1   7 226.488 4.35345   2
   3  -1   7 156.906 2.89264   2
   4  -1   7 24.9245 0.63883   2
   5  -1   7 83.8149 1.95316   2
   6  -1   7 40.1010 1.16521   2
   7  -1   7 30.9839 1.12074   2
   8  -1   7 6.63183 0.99545  -1
  -8   0   9 6.63183 0.99545   2
  -8   0   7 88.1710 3.30697  -1
   8  -1   5 88.1710 3.30697   2
  -7   0   7 22.0778 1.00333   2
  -6   0   7 55.1062 1.38502   2
  -5   0   7 5.86987 0.41872   2
  -4   0   7 131.073 2.41135   2
  -3   0   7 93.9806 1.73427   2
  -2   0   7 170.535 2.89540   2
  -1   0   7 76.4777 1.21449   2
   0   0   7 396.238 7.16682  -1
   0   0   7 396.238 7.16682   2
   1   0   7 123.857 2.46466   2
   2   0   7 88.3356 1.54638   2
   3   0   7 19.1129 0.51601   2
   4   0   7 37.4103 0.71998   2
   5   0   7 4.42203 0.30434   2
   6   0   7 11.3954 0.54267   2
   7   0   7 2.89406 0.46652   2
   8   0   7 24.3283 1.36237  -1
  -8   1   9 24.3283 1.36237   2
  -8   1   7 33.8414 1.82777  -1
   8   0   5 33.8414 1.82777   2
  -7   1   7 8.62445 0.66845   2
  -6   1   7 40.7187 1.35852   2
  -5   1   7 69.7756 1.67254   2
  -4   1   7 92.9060 1.48636   2
  -3   1   7 49.0216 0.88392   2
  -2   1   7 86.4467 1.44549   2
  -1   1   7 202.180 3.08242   2
   0   1   7 494.117 7.85707  -1
   0   1   7 494.117 7.85707   2
   1   1   7 99.5075 2.00325   2
   2   1   7 81.6352 1.55689   2
   3   1   7 58.5866 1.16698   2
   4   1   7 123.192 2.13866   2
   5   1   7 15.5299 0.50424   2
   6   1   7 30.9810 0.90057   2
   7   1   7 2.68372 0.44986   2
  -8   2   7 55.9446 1.80529  -1
   8   1   5 55.9446 1.80529   2
  -7   2   7 65.8528 1.99251   2
  -6   2   7 22.5532 0.96389   2
  -5   2   7 90.3534 2.21295   2
  -4   2   7 27.0962 0.60954   2
  -3   2   7 145.127 2.35088   2
  -2   2   7 132.277 1.91397   2
  -1   2   7 123.680 1.89847   2
   0   2   7 89.9741 1.59302  -1
   0   2   7 89.9741 1.59302   2
   1   2   7 44.0541 1.02361   2
   2   2   7 159.912 2.77562   2
   3   2   7 14.7107 0.54333   2
   4   2   7 27.5682 0.74087   2
   5   2   7 0.13366 0.21788   2
   6   2   7 59.9575 1.42742   2
   7   2   7 1.28417 0.41328   2
  -8   3   7 1.38192 0.79368  -1
   8   2   5 1.38192 0.79368   2
  -7   3   7 0.40422 0.37566   2
  -6   3   7 2.22369 0.42244   2
  -5   3   7 20.6809 0.81639   2
  -4   3   7 7.24301 0.38939   2
  -3   3   7 24.3954 0.56105   2
  -2   3   7 0.45677 0.13744   2
  -1   3   7 186.521 3.30536   2
   0   3   7 2.20943 0.19992  -1
   0   3   7 2.20943 0.19992   2
   1   3   7 100.941 1.96771   2
   2   3   7 16.3768 0.52145   2
   3   3   7 138.832 2.80593   2
   4   3   7 6.31840 0.42450   2
   5   3   7 45.0832 1.09189   2
   6   3   7 33.4685 0.93921   2
   7   3   7 24.9914 1.10333   2
  -7   4   7 149.978 5.17012   2
  -6   4   7 6.79346 0.65226   2
  -5   4   7 121.830 2.83660   2
  -4   4   7 34.5562 0.97055   2
  -3   4   7 333.691 5.73062   2
  -2   4   7 128.743 2.38548   2
  -1   4   7 155.999 2.99142   2
   0   4   7 388.845 6.89407  -1
   0   4   7 388.845 6.89407   2
   1   4   7 210.070 4.42989   2
   2   4   7 283.065 5.08662   2
   3   4   7 30.4849 0.83162   2
   4   4   7 195.108 3.69370   2
   5   4   7 16.2919 0.67339   2
   6   4   7 134.263 3.35131   2
  -7   5   7 3.43127 0.59714   2
  -6   5   7 59.0432 2.00494   2
  -5   5   7 11.4892 0.74806   2
  -4   5   7 132.174 3.12854   2
  -3   5   7 6.62122 0.50002   2
  -2   5   7 159.638 3.34166   2
  -1   5   7 8.66791 0.55656   2
  -1   5   7 71.3675 4.83113  -1
   1   5   7 71.3675 4.83113   2
   0   5   7 364.596 8.03162  -1
   0   5   7 364.596 8.03162   2
   2   5   7 76.7524 1.85929   2
   3   5   7 50.7992 1.39010   2
   4   5   7 65.5857 1.83794   2
   5   5   7 62.9104 1.83908   2
   6   5   7 4.78003 0.64121   2
  -6   6   7 20.5402 1.16226   2
  -5   6   7 125.549 3.78619   2
  -4   6   7 16.1126 0.91518   2
  -3   6   7 215.798 5.60229   2
  -2   6   7 3.57151 0.47275   2
  -1   6   7 385.622 16.6395  -1
   1   6   7 385.622 16.6395   2
  -1   6   7 208.375 6.02086   2
   0   6   7 6.68910 0.69060  -1
   0   6   7 6.68910 0.69060   2
   2   6   7 4.32284 0.47366   2
   3   6   7 89.2019 2.57450   2
   4   6   7 24.9610 1.13324   2
   5   6   7 44.0312 1.62855   2
  -5   7   7 45.3588 2.28428   2
  -4   7   7 0.25771 0.55172   2
  -3   7   7 2.63009 0.67009   2
  -2   7   7 1.62338 0.59414   2
  -1   7   7 5.46588 0.80040   2
  -1   7   7 24.1589 2.12825  -1
   1   7   7 24.1589 2.12825   2
   0   7   7 3.53564 0.69776  -1
   0   7   7 3.53564 0.69776   2
   2   7   7 1.19253 0.42816   2
   3   7   7 6.94645 0.67639   2
   4   7   7 0.68267 0.41924   2
  -4   8   7 5.16699 0.88249   2
  -3   8   7 107.284 4.29846   2
  -2   8   7 13.0298 1.23133   2
  -1   8   7 321.611 14.3358  -1
   1   8   7 321.611 14.3358   2
   0   8   7 39.2358 1.63511  -1
   0   8   7 39.2358 1.63511   2
   1   8   7 325.560 14.4796  -1
  -1   8   7 325.560 14.4796   2
   2   8   7 20.2227 1.14830   2
  -2  -8   8 37.6677 3.72222   2
  -1  -8   8 23.5016 1.72142  -1
   1  -8   8 23.5016 1.72142   2
   0  -8   8 22.7195 1.46646  -1
   0  -8   8 22.7195 1.46646   2
   1  -8   8 22.6637 2.02094  -1
  -1  -8   8 22.6637 2.02094   2
   2  -8   8 19.4108 1.44851   2
   3  -8   8 11.1411 1.19602   2
  -4  -7   8 39.2410 1.70530   2
  -3  -7   8 33.3336 1.46303   2
  -2  -7   8 1.72837 0.71710   2
  -1  -7   8 49.2717 1.86051   2
   0  -7   8 48.7090 1.86918  -1
   0  -7   8 48.7090 1.86918   2
   1  -7   8 54.3494 2.04095   2
   2  -7   8 -0.2531 0.42898   2
   3  -7   8 40.9216 2.07841   2
   4  -7   8 14.7902 1.18767   2
  -5  -6   8 0.48866 0.46079   2
  -4  -6   8 28.8084 1.37059   2
  -3  -6   8 0.04554 0.37190   2
  -2  -6   8 122.493 2.71860   2
  -1  -6   8 0.24131 0.32771   2
   0  -6   8 185.909 5.33518  -1
   0  -6   8 185.909 5.33518   2
   1  -6   8 4.56443 0.69872   2
   2  -6   8 184.214 6.37197   2
   3  -6   8 0.74397 0.51926   2
   4  -6   8 105.383 3.60754   2
   5  -6   8 12.8480 1.31717   2
  -6  -5   8 44.5513 1.57144   2
  -5  -5   8 20.1051 0.93512   2
  -4  -5   8 65.5274 1.87881   2
  -3  -5   8 69.4957 1.71166   2
  -2  -5   8 84.6971 1.66254   2
  -1  -5   8 93.2193 1.91631   2
   0  -5   8 82.5743 2.24439  -1
   0  -5   8 82.5743 2.24439   2
   1  -5   8 90.7801 2.81315   2
   2  -5   8 15.8756 1.14267   2
   3  -5   8 85.1864 3.31691   2
   4  -5   8 0.06341 0.46896   2
   5  -5   8 32.6431 1.90355   2
   6  -5   8 2.17934 0.85206   2
  -7  -4   8 1.69895 0.48939   2
  -6  -4   8 28.6798 1.02169   2
  -5  -4   8 6.95015 0.47996   2
  -4  -4   8 50.3337 1.23524   2
  -3  -4   8 3.11855 0.22069   2
  -2  -4   8 306.595 4.87730   2
  -1  -4   8 4.56461 0.22728   2
   0  -4   8 556.452 9.38078  -1
   0  -4   8 556.452 9.38078   2
   1  -4   8 1.28952 0.20581   2
   2  -4   8 523.308 16.0997   2
   3  -4   8 0.13732 0.48807   2
   4  -4   8 257.884 11.6434   2
   5  -4   8 0.69860 0.54678   2
   6  -4   8 208.432 9.08531   2
   7  -4   8 0.58537 0.61400   2
  -7  -3   8 3.74470 0.57026   2
  -6  -3   8 92.2276 2.20392   2
  -5  -3   8 2.99401 0.33407   2
  -4  -3   8 277.619 5.25438   2
  -3  -3   8 2.15744 0.20221   2
  -2  -3   8 193.486 2.87806   2
  -1  -3   8 0.98274 0.11289   2
   0  -3   8 672.300 9.31196  -1
   0  -3   8 672.300 9.31196   2
   1  -3   8 8.77417 0.38166   2
   2  -3   8 52.2415 1.36209   2
   3  -3   8 12.7000 0.62459   2
   4  -3   8 71.2336 2.44679   2
   5  -3   8 19.3780 1.15435   2
   6  -3   8 0.27585 0.49067   2
   7  -3   8 6.55798 1.18322   2
  -7  -2   8 57.7815 1.85206   2
  -6  -2   8 0.06418 0.29672   2
  -5  -2   8 73.3854 1.68381   2
  -4  -2   8 23.2362 0.61443   2
  -3  -2   8 240.223 3.65333   2
  -2  -2   8 41.7111 0.73764   2
  -1  -2   8 289.906 4.08221   2
   0  -2   8 331.079 5.82373  -1
   0  -2   8 331.079 5.82373   2
   1  -2   8 272.344 5.95776   2
   2  -2   8 128.404 3.33520   2
   3  -2   8 131.405 3.56310   2
   4  -2   8 156.749 3.40141   2
   5  -2   8 33.7676 1.21121   2
   6  -2   8 78.2727 2.46494   2
   7  -2   8 8.40113 1.29279   2
  -8  -1   8 24.1458 2.18217  -1
   8  -2   6 24.1458 2.18217   2
  -7  -1   8 63.8085 1.95543   2
  -6  -1   8 41.6835 1.22892   2
  -5  -1   8 158.945 3.60492   2
  -4  -1   8 104.389 2.09223   2
  -3  -1   8 74.5003 1.43065   2
  -2  -1   8 94.3306 1.52162   2
  -1  -1   8 71.5183 1.15698   2
   0  -1   8 313.150 5.54668  -1
   0  -1   8 313.150 5.54668   2
   1  -1   8 1.56378 0.15762   2
   2  -1   8 53.9159 1.08965   2
   3  -1   8 3.05174 0.24180   2
   4  -1   8 67.6594 1.75460   2
   5  -1   8 11.6305 0.58693   2
   6  -1   8 7.01500 0.50643   2
   7  -1   8 11.4659 0.86283   2
  -8   0   8 0.74276 0.81608  -1
   8  -1   6 0.74276 0.81608   2
  -7   0   8 11.3025 0.78767   2
  -6   0   8 0.82367 0.35173   2
  -5   0   8 63.8307 1.67838   2
  -4   0   8 14.3674 0.53675   2
  -3   0   8 98.6089 1.70583   2
  -2   0   8 1.99370 0.17413   2
  -1   0   8 160.934 2.42780   2
   0   0   8 241.245 4.10931  -1
   0   0   8 241.245 4.10931   2
   1   0   8 112.815 2.24787   2
   2   0   8 27.4946 0.61120   2
   3   0   8 49.0636 0.94901   2
   4   0   8 149.878 2.61667   2
   5   0   8 15.4477 0.54793   2
   6   0   8 39.5942 1.24585   2
   7   0   8 1.73233 0.47830   2
  -8   1   8 11.3807 1.22863  -1
   8   0   6 11.3807 1.22863   2
  -7   1   8 43.5522 1.50071   2
  -6   1   8 51.1465 1.60088   2
  -5   1   8 87.1743 2.01249   2
  -4   1   8 75.2397 1.48738   2
  -3   1   8 32.0627 0.69877   2
  -2   1   8 233.553 4.33964   2
  -1   1   8 46.5366 0.85687   2
   0   1   8 299.765 5.59723  -1
   0   1   8 299.765 5.59723   2
   1   1   8 0.97297 0.18453   2
   2   1   8 255.214 4.45966   2
   3   1   8 5.04723 0.27049   2
   4   1   8 66.9371 1.40459   2
   5   1   8 -0.0655 0.21414   2
   6   1   8 61.7688 1.44826   2
   7   1   8 -0.1698 0.41011   2
  -8   2   8 29.5774 2.06672  -1
   8   1   6 29.5774 2.06672   2
  -7   2   8 1.26049 0.40783   2
  -6   2   8 4.12049 0.49491   2
  -5   2   8 20.7969 0.76452   2
  -4   2   8 1.21617 0.23045   2
  -3   2   8 -0.2240 0.13581   2
  -2   2   8 2.81317 0.17895   2
  -1   2   8 37.6024 0.77250   2
   0   2   8 60.1372 1.21833  -1
   0   2   8 60.1372 1.21833   2
   1   2   8 -0.0745 0.15041   2
   2   2   8 48.6464 1.01270   2
   3   2   8 9.06224 0.40923   2
   4   2   8 54.0859 1.20462   2
   5   2   8 -0.1465 0.23027   2
   6   2   8 36.5362 1.03147   2
   7   2   8 0.45341 0.35318   2
  -7   3   8 44.5025 1.69465   2
  -6   3   8 26.8660 1.47600   2
  -5   3   8 16.5949 0.74464   2
  -4   3   8 46.8487 1.06064   2
  -3   3   8 77.2931 1.34780   2
  -2   3   8 117.769 2.00896   2
   0   3   8 127.993 2.23181  -1
   0   3   8 127.993 2.23181   2
   1   3   8 50.3361 1.09440   2
   1   3   8 71.6345 4.14249  -1
  -1   3   8 71.6345 4.14249   2
   2   3   8 113.413 2.07689   2
   3   3   8 14.6550 0.58137   2
   4   3   8 24.2139 0.79363   2
   5   3   8 16.2160 0.65854   2
   6   3   8 32.3518 1.10636   2
   7   3   8 5.11019 0.64814   2
  -7   4   8 4.13506 0.60557   2
  -6   4   8 2.24743 0.47956   2
  -5   4   8 7.24492 0.54475   2
  -4   4   8 5.23787 0.46649   2
  -3   4   8 10.0091 0.47887   2
  -2   4   8 27.6715 0.85937   2
  -1   4   8 10.4408 0.50256   2
   0   4   8 33.4664 0.96890  -1
   0   4   8 33.4664 0.96890   2
   1   4   8 23.1816 0.80432   2
   2   4   8 50.8171 1.16219   2
   3   4   8 12.6060 0.53376   2
   4   4   8 8.27935 0.47631   2
   5   4   8 13.2523 0.77470   2
   6   4   8 26.4342 1.08813   2
  -7   5   8 2.65916 0.55285   2
  -6   5   8 23.5813 1.42335   2
  -5   5   8 0.71500 0.42430   2
  -4   5   8 28.8388 1.02247   2
  -3   5   8 5.88758 0.58087   2
  -2   5   8 26.6119 0.87712   2
  -1   5   8 8.03573 1.69113  -1
   1   5   8 8.03573 1.69113   2
   0   5   8 42.9532 1.32189  -1
   0   5   8 42.9532 1.32189   2
   1   5   8 10.7463 2.03889  -1
  -1   5   8 10.7463 2.03889   2
   2   5   8 4.37213 0.42633   2
   3   5   8 0.51720 0.30147   2
   4   5   8 5.18267 0.58529   2
   5   5   8 4.84795 0.60240   2
   6   5   8 0.01381 0.47890   2
  -6   6   8 6.55537 0.86659   2
  -5   6   8 8.69473 0.82422   2
  -4   6   8 15.4927 0.92799   2
  -3   6   8 0.05561 0.34014   2
  -2   6   8 34.0932 1.48106   2
  -1   6   8 31.5731 1.91127  -1
   1   6   8 31.5731 1.91127   2
  -1   6   8 28.0314 1.30905   2
   0   6   8 65.7601 2.10329  -1
   0   6   8 65.7601 2.10329   2
   2   6   8 37.4979 1.27299   2
   3   6   8 34.9570 1.24535   2
   4   6   8 15.7551 0.96862   2
   5   6   8 6.45262 0.69488   2
  -5   7   8 1.19105 0.60605   2
  -4   7   8 12.9121 1.22892   2
  -3   7   8 3.99081 0.77821   2
  -2   7   8 10.3863 1.08486   2
  -1   7   8 -1.9407 1.20502  -1
   1   7   8 -1.9407 1.20502   2
   0   7   8 12.7787 1.19794  -1
   0   7   8 12.7787 1.19794   2
   1   7   8 -0.1749 1.31149  -1
  -1   7   8 -0.1749 1.31149   2
   2   7   8 -0.1409 0.38542   2
   3   7   8 3.64240 0.55467   2
   4   7   8 -0.2112 0.38848   2
  -3   8   8 24.3268 1.63744   2
  -2   8   8 53.6333 2.58807   2
  -1   8   8 122.430 3.81743  -1
   1   8   8 122.430 3.81743   2
   0   8   8 108.752 3.42780  -1
   0   8   8 108.752 3.42780   2
   1   8   8 114.541 4.60947  -1
  -1   8   8 114.541 4.60947   2
   2   8   8 42.3036 1.79190   2
  -2  -8   9 10.9440 2.26203   2
  -1  -8   9 123.242 5.76318  -1
   1  -8   9 123.242 5.76318   2
   0  -8   9 138.779 5.14250  -1
   0  -8   9 138.779 5.14250   2
   1  -8   9 124.846 5.68642  -1
  -1  -8   9 124.846 5.68642   2
   2  -8   9 65.7074 2.93884   2
  -4  -7   9 146.330 9.91955   2
  -3  -7   9 110.091 4.54930   2
  -2  -7   9 198.149 6.33205   2
  -1  -7   9 83.4429 3.95741   2
   0  -7   9 453.857 14.7416  -1
   0  -7   9 453.857 14.7416   2
   1  -7   9 51.8037 2.37389   2
   2  -7   9 181.121 6.43069   2
   3  -7   9 5.97423 0.88582   2
   4  -7   9 111.185 4.63213   2
  -5  -6   9 5.15829 0.72460   2
  -4  -6   9 11.9417 0.94505   2
  -3  -6   9 1.37161 0.43441   2
  -2  -6   9 35.8309 1.62878   2
  -1  -6   9 -0.2228 0.29724   2
   0  -6   9 2.35208 0.57230  -1
   0  -6   9 2.35208 0.57230   2
   1  -6   9 -0.3558 0.36684   2
   2  -6   9 7.33581 0.88198   2
   3  -6   9 4.02595 0.69326   2
   4  -6   9 2.29163 0.72641   2
   5  -6   9 6.41001 1.00968   2
  -6  -5   9 14.9497 0.93450   2
  -5  -5   9 -0.2367 0.33502   2
  -4  -5   9 4.53714 0.63201   2
  -3  -5   9 4.96703 0.58435   2
  -2  -5   9 83.3203 2.09100   2
  -1  -5   9 29.3677 1.00351   2
   0  -5   9 53.0832 2.21623  -1
   0  -5   9 53.0832 2.21623   2
   1  -5   9 68.8217 3.58374   2
   2  -5   9 78.9923 5.57078   2
   3  -5   9 90.0842 4.52222   2
   4  -5   9 30.5353 1.81717   2
   5  -5   9 61.9853 2.96262   2
   6  -5   9 56.9835 3.41336   2
  -6  -4   9 0.26166 0.33887   2
  -5  -4   9 55.3178 1.38990   2
  -4  -4   9 16.8361 0.64778   2
  -3  -4   9 51.8918 1.19264   2
  -2  -4   9 3.48601 0.25949   2
  -1  -4   9 73.4111 1.46610   2
   0  -4   9 41.7620 1.09766  -1
   0  -4   9 41.7620 1.09766   2
   1  -4   9 39.4444 1.57715   2
   2  -4   9 0.24459 0.52805   2
   3  -4   9 9.27168 1.20828   2
   4  -4   9 0.30549 0.51096   2
   5  -4   9 2.30157 0.71056   2
   6  -4   9 8.03423 0.99904   2
  -7  -3   9 35.6656 1.39355   2
  -6  -3   9 17.9833 0.81202   2
  -5  -3   9 11.5436 0.58813   2
  -4  -3   9 36.3057 1.11742   2
  -3  -3   9 23.4227 0.62645   2
  -2  -3   9 99.8818 1.63048   2
  -1  -3   9 1.78516 0.14939   2
   0  -3   9 239.926 4.01348  -1
   0  -3   9 239.926 4.01348   2
   1  -3   9 0.90648 0.25861   2
   2  -3   9 158.553 3.72046   2
   3  -3   9 0.49950 0.38346   2
   4  -3   9 79.1950 3.36094   2
   5  -3   9 0.00539 0.41076   2
   6  -3   9 63.3844 2.84029   2
   7  -3   9 1.38070 0.84233   2
  -7  -2   9 8.50415 0.72534   2
  -6  -2   9 0.97373 0.32308   2
  -5  -2   9 36.1806 1.15624   2
  -4  -2   9 19.0188 0.61838   2
  -3  -2   9 48.9017 0.95548   2
  -2  -2   9 0.22177 0.10612   2
  -1  -2   9 107.786 1.83082   2
   0  -2   9 23.5200 0.53765  -1
   0  -2   9 23.5200 0.53765   2
   1  -2   9 113.944 2.72905   2
   2  -2   9 21.2179 0.79647   2
   3  -2   9 96.1412 2.49593   2
   4  -2   9 -0.0240 0.25918   2
   5  -2   9 58.4461 1.80696   2
   6  -2   9 21.3373 1.42033   2
   7  -2   9 28.5339 2.15420   2
  -7  -1   9 6.27639 0.65357   2
  -6  -1   9 39.8918 1.39034   2
  -5  -1   9 24.4916 0.91427   2
  -4  -1   9 156.807 2.81128   2
  -3  -1   9 16.5669 0.45207   2
  -2  -1   9 142.314 2.39037   2
  -1  -1   9 21.9465 0.48814   2
   0  -1   9 609.548 10.3371  -1
   0  -1   9 609.548 10.3371   2
   1  -1   9 3.28508 0.22529   2
   2  -1   9 92.7349 1.90851   2
   3  -1   9 0.39806 0.18531   2
   4  -1   9 97.9205 2.11086   2
   5  -1   9 1.61345 0.30658   2
   6  -1   9 10.7535 0.63949   2
   7  -1   9 2.76161 0.55226   2
  -8   0   9 2.93435 1.95366  -1
   8  -1   7 2.93435 1.95366   2
  -7   0   9 12.4585 0.83676   2
  -6   0   9 6.63341 0.59349   2
  -5   0   9 109.859 2.62922   2
  -4   0   9 1.08150 0.24434   2
  -3   0   9 126.731 2.33192   2
  -2   0   9 2.70908 0.19866   2
  -1   0   9 387.035 5.94625   2
   0   0   9 1.80959 0.18225  -1
   0   0   9 1.80959 0.18225   2
   1   0   9 280.891 5.34300   2
   2   0   9 0.44148 0.15524   2
   3   0   9 269.870 4.72980   2
   4   0   9 1.02197 0.22172   2
   5   0   9 129.776 2.68645   2
   6   0   9 0.28354 0.31890   2
   7   0   9 61.2557 2.38060   2
  -8   1   9 24.5536 1.88770  -1
   8   0   7 24.5536 1.88770   2
  -7   1   9 81.3221 2.35583   2
  -6   1   9 27.2143 1.09419   2
  -5   1   9 71.4056 1.73646   2
  -4   1   9 35.9709 1.03054   2
  -3   1   9 214.215 3.58246   2
  -2   1   9 4.87963 0.24079   2
  -1   1   9 146.539 2.45533   2
   0   1   9 11.3044 0.39122  -1
   0   1   9 11.3044 0.39122   2
   1   1   9 167.896 3.30111   2
   2   1   9 22.8807 0.61424   2
   3   1   9 58.3445 1.19109   2
   4   1   9 8.22738 0.44062   2
   5   1   9 27.5654 0.78609   2
   6   1   9 36.9885 1.24930   2
   7   1   9 3.81885 0.62940   2
  -7   2   9 -0.0326 0.34638   2
  -6   2   9 38.3529 1.35211   2
  -5   2   9 1.48411 0.35112   2
  -4   2   9 137.120 3.02723   2
  -3   2   9 20.9612 0.53085   2
  -2   2   9 158.591 2.53468   2
  -1   2   9 58.8977 1.18031   2
   0   2   9 617.883 11.3980  -1
   0   2   9 617.883 11.3980   2
   1   2   9 98.8906 2.06172   2
   2   2   9 116.825 2.20606   2
   3   2   9 138.066 2.49880   2
   4   2   9 130.960 2.71618   2
   5   2   9 110.253 2.16896   2
   6   2   9 16.6791 0.83354   2
   7   2   9 73.9197 2.49543   2
  -7   3   9 57.1368 2.49440   2
  -6   3   9 148.347 5.06734   2
  -5   3   9 77.0737 2.91532   2
  -4   3   9 176.431 3.39144   2
  -3   3   9 254.993 5.20662   2
  -2   3   9 194.268 3.43775   2
  -1   3   9 235.144 4.13326   2
   0   3   9 193.284 3.27374  -1
   0   3   9 193.284 3.27374   2
   1   3   9 394.981 7.40088   2
   2   3   9 78.8223 1.65392   2
   3   3   9 180.655 3.60067   2
   4   3   9 11.2194 0.58303   2
   5   3   9 136.688 2.95459   2
   6   3   9 17.1735 0.82615   2
  -7   4   9 3.61052 0.60598   2
  -6   4   9 3.72899 0.57874   2
  -5   4   9 37.3397 1.28060   2
  -4   4   9 0.46018 0.26939   2
  -3   4   9 0.36286 0.25994   2
  -2   4   9 -0.1619 0.21761   2
  -1   4   9 4.46841 0.42151   2
  -1   4   9 39.6693 3.12407  -1
   1   4   9 39.6693 3.12407   2
   0   4   9 1.32739 0.31593  -1
   0   4   9 1.32739 0.31593   2
   2   4   9 0.46363 0.27388   2
   3   4   9 16.1674 0.69366   2
   4   4   9 1.27401 0.28986   2
   5   4   9 60.6420 1.80888   2
   6   4   9 5.80451 0.55124   2
  -6   5   9 13.4209 1.19553   2
  -5   5   9 100.338 3.14003   2
  -4   5   9 16.3002 0.81618   2
  -3   5   9 113.742 2.95050   2
  -2   5   9 13.9165 0.80788   2
  -1   5   9 268.609 6.06968   2
  -1   5   9 448.844 25.0240  -1
   1   5   9 448.844 25.0240   2
   0   5   9 2.08824 0.39276  -1
   0   5   9 2.08824 0.39276   2
   2   5   9 1.73745 0.33987   2
   3   5   9 194.006 4.55253   2
   4   5   9 3.55800 0.52027   2
   5   5   9 80.1578 2.45432   2
  -5   6   9 22.3899 1.21769   2
  -4   6   9 2.67402 0.56048   2
  -3   6   9 12.4436 0.83382   2
  -2   6   9 4.00667 0.60275   2
  -1   6   9 6.79326 1.13385  -1
   1   6   9 6.79326 1.13385   2
   0   6   9 4.37294 0.57341  -1
   0   6   9 4.37294 0.57341   2
   1   6   9 7.17764 2.05084  -1
  -1   6   9 7.17764 2.05084   2
   2   6   9 5.30327 0.54117   2
   3   6   9 5.29980 0.55833   2
   4   6   9 0.10503 0.38457   2
  -4   7   9 14.4150 1.32739   2
  -3   7   9 44.3570 2.25488   2
  -2   7   9 13.4862 1.23891   2
  -1   7   9 189.580 6.86027  -1
   1   7   9 189.580 6.86027   2
   0   7   9 15.0086 1.31435  -1
   0   7   9 15.0086 1.31435   2
   1   7   9 201.545 9.39723  -1
  -1   7   9 201.545 9.39723   2
   2   7   9 2.01725 0.53029   2
   3   7   9 105.480 3.68285   2
  -3   8   9 24.5466 2.64820   2
  -2   8   9 -0.0874 0.54661   2
  -1   8   9 8.33376 1.08527  -1
   1   8   9 8.33376 1.08527   2
   0   8   9 0.50130 0.56842  -1
   0   8   9 0.50130 0.56842   2
   1   8   9 7.28846 1.36243  -1
  -1   8   9 7.28846 1.36243   2
  -1  -8  10 86.0135 4.48708  -1
   1  -8  10 86.0135 4.48708   2
   0  -8  10 7.91414 0.99652  -1
   0  -8  10 7.91414 0.99652   2
   1  -8  10 81.3151 6.51971  -1
  -1  -8  10 81.3151 6.51971   2
  -3  -7  10 133.598 5.32474   2
  -2  -7  10 2.32992 1.31618   2
  -1  -7  10 154.707 5.55233   2
   0  -7  10 50.8012 2.34881  -1
   0  -7  10 50.8012 2.34881   2
   1  -7  10 132.827 4.92880   2
   2  -7  10 0.42403 0.52355   2
   3  -7  10 76.6230 4.20714   2
  -5  -6  10 1.12006 0.50791   2
  -4  -6  10 6.65626 0.76093   2
  -3  -6  10 -0.1101 0.49262   2
  -2  -6  10 2.73053 0.54298   2
  -1  -6  10 12.4385 1.44620   2
   0  -6  10 58.3912 4.62924  -1
   0  -6  10 58.3912 4.62924   2
   1  -6  10 28.8119 2.09913   2
   2  -6  10 13.5954 1.57071   2
   3  -6  10 25.4437 2.01670   2
   4  -6  10 26.5614 2.11601   2
   5  -6  10 30.1664 1.96164   2
  -5  -5  10 50.6369 1.99588   2
  -4  -5  10 58.0545 2.10703   2
  -3  -5  10 111.081 3.39144   2
  -2  -5  10 40.9357 1.73775   2
  -1  -5  10 106.810 3.56688   2
   0  -5  10 21.6580 1.69750  -1
   0  -5  10 21.6580 1.69750   2
   1  -5  10 80.0173 5.67178   2
   2  -5  10 3.46820 0.86488   2
   3  -5  10 49.0372 2.93045   2
   4  -5  10 18.8448 1.75207   2
   5  -5  10 6.54892 1.02693   2
  -6  -4  10 10.5981 0.77720   2
  -5  -4  10 0.24677 0.33238   2
  -4  -4  10 114.290 2.93116   2
  -3  -4  10 15.1495 0.67220   2
  -2  -4  10 165.908 3.76911   2
  -1  -4  10 27.9757 0.94088   2
   0  -4  10 820.885 24.8872  -1
   0  -4  10 820.885 24.8872   2
   1  -4  10 56.1990 3.05660   2
   2  -4  10 242.661 14.5395   2
   3  -4  10 70.6667 3.72527   2
   4  -4  10 293.213 12.6067   2
   5  -4  10 47.0828 2.42697   2
   6  -4  10 87.7738 3.30653   2
  -7  -3  10 57.9856 1.90710   2
  -6  -3  10 302.127 7.10412   2
  -5  -3  10 110.799 2.69427   2
  -4  -3  10 316.384 6.73597   2
  -3  -3  10 197.216 3.72019   2
  -2  -3  10 516.003 8.04214   2
  -1  -3  10 257.200 4.62722   2
   0  -3  10 383.829 9.48336  -1
   0  -3  10 383.829 9.48336   2
   1  -3  10 259.698 8.23272   2
   2  -3  10 194.732 8.50194   2
   3  -3  10 199.928 8.75651   2
   4  -3  10 11.9881 1.38986   2
   5  -3  10 92.7130 3.33364   2
   6  -3  10 13.0816 1.26227   2
  -7  -2  10 7.73176 0.70366   2
  -6  -2  10 22.1056 1.01724   2
  -5  -2  10 48.5219 1.41809   2
  -4  -2  10 16.3923 0.65813   2
  -3  -2  10 16.4490 0.53012   2
  -2  -2  10 1.42368 0.17630   2
  -1  -2  10 21.9085 0.59348   2
   0  -2  10 3.17816 0.21126  -1
   0  -2  10 3.17816 0.21126   2
   1  -2  10 0.16417 0.19744   2
   2  -2  10 23.1438 1.00427   2
   3  -2  10 2.49838 0.42280   2
   4  -2  10 4.40968 0.47388   2
   5  -2  10 11.5139 0.99511   2
   6  -2  10 4.90991 0.82029   2
   7  -2  10 19.1246 2.52928   2
  -7  -1  10 11.3818 0.80173   2
  -6  -1  10 55.6635 1.75530   2
  -5  -1  10 108.640 2.62558   2
  -4  -1  10 69.9459 1.53152   2
  -3  -1  10 148.902 2.51913   2
  -2  -1  10 100.317 1.66873   2
  -1  -1  10 395.242 7.07420   2
   0  -1  10 75.5020 1.41616  -1
   0  -1  10 75.5020 1.41616   2
   1  -1  10 368.703 6.79779   2
   2  -1  10 37.8762 0.97973   2
   3  -1  10 333.957 7.72789   2
   4  -1  10 0.99848 0.26483   2
   5  -1  10 190.096 4.02356   2
   6  -1  10 3.23526 0.50206   2
   7  -1  10 86.0085 4.21472   2
  -7   0  10 63.4944 1.99892   2
  -6   0  10 33.3561 1.25441   2
  -5   0  10 85.8481 2.16995   2
  -4   0  10 67.8138 1.63979   2
  -3   0  10 147.265 2.88748   2
  -2   0  10 24.1629 0.63621   2
  -1   0  10 108.591 1.67120   2
   0   0  10 153.682 2.68903  -1
   0   0  10 153.682 2.68903   2
   1   0  10 61.1076 1.35847   2
   2   0  10 4.26392 0.27101   2
   3   0  10 12.0790 0.52120   2
   4   0  10 29.1154 0.93226   2
   5   0  10 -0.3580 0.24013   2
   6   0  10 -0.2247 0.31723   2
   7   0  10 0.65471 0.63965   2
  -7   1  10 3.31980 0.53011   2
  -6   1  10 1.28903 0.40169   2
  -5   1  10 43.0872 1.29415   2
  -4   1  10 0.92428 0.31013   2
  -3   1  10 61.7503 1.28948   2
  -2   1  10 -0.0154 0.14401   2
  -1   1  10 183.234 2.94009   2
   0   1  10 27.2542 0.67486  -1
   0   1  10 27.2542 0.67486   2
   1   1  10 119.893 2.44630   2
   2   1  10 0.36972 0.18913   2
   3   1  10 124.949 2.28138   2
   4   1  10 20.3003 0.62779   2
   5   1  10 41.3200 1.14078   2
   6   1  10 0.69479 0.44158   2
   7   1  10 20.0271 1.26701   2
  -7   2  10 23.8049 1.21364   2
  -6   2  10 33.9706 1.50691   2
  -5   2  10 0.76856 0.34029   2
  -4   2  10 54.9049 1.43672   2
  -3   2  10 20.7610 0.62275   2
  -2   2  10 73.0005 1.48222   2
  -1   2  10 9.28661 0.36003   2
   0   2  10 120.902 2.42292  -1
   0   2  10 120.902 2.42292   2
   1   2  10 0.58861 0.20017   2
   2   2  10 43.8699 1.00809   2
   3   2  10 29.7483 0.83489   2
   4   2  10 21.5816 0.75479   2
   5   2  10 8.30408 0.52199   2
   6   2  10 6.82758 0.72746   2
  -7   3  10 51.1697 2.35002   2
  -6   3  10 2.49232 0.63903   2
  -5   3  10 45.8185 1.51307   2
  -4   3  10 0.53255 0.26620   2
  -3   3  10 154.197 3.32315   2
  -2   3  10 -0.0931 0.22403   2
  -1   3  10 95.5921 2.32348   2
   0   3  10 24.1724 0.70880  -1
   0   3  10 24.1724 0.70880   2
   1   3  10 114.225 2.40226   2
   2   3  10 3.69139 0.32562   2
   3   3  10 31.7257 0.92715   2
   4   3  10 21.7915 0.77564   2
   5   3  10 20.1790 0.90073   2
   6   3  10 3.23707 0.50221   2
  -6   4  10 46.0963 2.13975   2
  -5   4  10 0.42794 0.44802   2
  -4   4  10 81.5561 2.19714   2
  -3   4  10 3.41010 0.38748   2
  -2   4  10 145.425 3.60005   2
  -1   4  10 12.4341 0.64834   2
   0   4  10 248.412 5.62332  -1
   0   4  10 248.412 5.62332   2
   1   4  10 8.33918 0.53944   2
   2   4  10 167.778 3.61388   2
   3   4  10 9.09333 0.61941   2
   4   4  10 68.0339 1.94074   2
   5   4  10 0.46959 0.35380   2
   6   4  10 60.7117 4.79760   2
  -6   5  10 46.4400 2.19918   2
  -5   5  10 32.1499 1.42615   2
  -4   5  10 70.7894 2.38171   2
  -3   5  10 61.7766 1.84363   2
  -2   5  10 105.644 3.05539   2
  -1   5  10 5.26127 0.58275   2
  -1   5  10 14.4116 1.69559  -1
   1   5  10 14.4116 1.69559   2
   0   5  10 204.225 5.37321  -1
   0   5  10 204.225 5.37321   2
   2   5  10 63.6343 1.81897   2
   3   5  10 8.39668 0.65361   2
   4   5  10 49.4969 1.72193   2
   5   5  10 2.14827 0.52775   2
  -5   6  10 5.10542 0.71199   2
  -4   6  10 0.60226 0.54794   2
  -3   6  10 75.2144 2.64405   2
  -2   6  10 1.47608 0.46064   2
  -1   6  10 138.724 5.23772  -1
   1   6  10 138.724 5.23772   2
   0   6  10 19.6833 1.19096  -1
   0   6  10 19.6833 1.19096   2
   1   6  10 126.512 5.13105  -1
  -1   6  10 126.512 5.13105   2
   2   6  10 23.6349 1.09972   2
   3   6  10 26.7000 1.09653   2
   4   6  10 27.0085 1.24098   2
  -4   7  10 62.3507 2.90484   2
  -3   7  10 58.3567 4.27696   2
  -2   7  10 107.433 4.31199   2
  -1   7  10 53.0630 2.68261  -1
   1   7  10 53.0630 2.68261   2
   0   7  10 238.081 8.37540  -1
   0   7  10 238.081 8.37540   2
   1   7  10 65.4508 3.03558  -1
  -1   7  10 65.4508 3.03558   2
   2   7  10 104.827 3.35713   2
   3   7  10 1.87771 0.57750   2
  -1   8  10 39.9240 2.21147   2
   0   8  10 13.1466 1.35407  -1
   0   8  10 13.1466 1.35407   2
  -3  -7  11 0.70673 1.13797   2
  -2  -7  11 -1.2641 0.84250   2
  -1  -7  11 2.19544 0.85176   2
   0  -7  11 1.95332 0.84871  -1
   0  -7  11 1.95332 0.84871   2
   1  -7  11 8.73753 1.39763   2
   2  -7  11 4.32841 1.08085   2
   3  -7  11 5.09280 1.15194   2
  -4  -6  11 0.59911 0.64413   2
  -3  -6  11 32.2678 1.90670   2
  -2  -6  11 5.84362 1.08409   2
  -1  -6  11 34.7498 2.38924   2
   0  -6  11 1.47732 0.76314  -1
   0  -6  11 1.47732 0.76314   2
   1  -6  11 34.5053 2.37652   2
   2  -6  11 2.45534 0.79519   2
   3  -6  11 27.9229 2.18493   2
   4  -6  11 4.35794 1.10114   2
  -5  -5  11 0.43341 0.45733   2
  -4  -5  11 18.0828 1.10678   2
  -3  -5  11 -0.3421 0.45893   2
  -2  -5  11 114.383 3.83972   2
  -1  -5  11 0.04007 0.54818   2
   0  -5  11 99.2664 4.85826  -1
   0  -5  11 99.2664 4.85826   2
   1  -5  11 1.76047 0.70879   2
   2  -5  11 127.855 8.84048   2
   3  -5  11 0.70594 0.67615   2
   4  -5  11 29.2270 2.22040   2
   5  -5  11 -0.5402 0.52281   2
  -6  -4  11 11.9859 0.84842   2
  -5  -4  11 2.35243 0.44751   2
  -4  -4  11 38.3122 1.57311   2
  -3  -4  11 11.2516 0.70933   2
  -2  -4  11 12.7208 0.91358   2
  -1  -4  11 1.95667 0.39217   2
   0  -4  11 35.0568 3.17593  -1
   0  -4  11 35.0568 3.17593   2
   1  -4  11 1.84954 0.70065   2
   2  -4  11 0.15331 0.56139   2
   3  -4  11 0.68690 0.63324   2
   4  -4  11 1.91335 0.80761   2
   5  -4  11 0.20645 0.58119   2
   6  -4  11 1.27010 0.65497   2
  -6  -3  11 8.00217 0.67670   2
  -5  -3  11 0.87342 0.36052   2
  -4  -3  11 15.6471 0.71619   2
  -3  -3  11 13.9074 0.59655   2
  -2  -3  11 29.3482 0.97335   2
  -1  -3  11 -0.1858 0.24751   2
   0  -3  11 41.2808 1.77036  -1
   0  -3  11 41.2808 1.77036   2
   1  -3  11 0.95413 0.54891   2
   2  -3  11 23.8392 1.75569   2
   3  -3  11 15.7694 1.47034   2
   4  -3  11 3.73793 0.91615   2
   5  -3  11 24.6535 1.38510   2
   6  -3  11 2.34080 0.63775   2
  -7  -2  11 7.82291 0.74645   2
  -6  -2  11 1.99065 0.46973   2
  -5  -2  11 12.5265 0.79070   2
  -4  -2  11 0.44247 0.24971   2
  -3  -2  11 75.6149 1.61284   2
  -2  -2  11 33.9513 0.81382   2
  -1  -2  11 109.372 1.91422   2
   0  -2  11 31.5434 1.42723  -1
   0  -2  11 31.5434 1.42723   2
   1  -2  11 154.661 5.10715   2
   2  -2  11 114.850 5.35167   2
   3  -2  11 130.201 6.01285   2
   4  -2  11 44.9107 1.91511   2
   5  -2  11 65.9076 2.57267   2
   6  -2  11 85.6682 3.59962   2
  -7  -1  11 115.549 3.16253   2
  -6  -1  11 98.9517 2.71408   2
  -5  -1  11 144.534 3.62739   2
  -4  -1  11 296.996 5.96907   2
  -3  -1  11 204.530 4.26592   2
  -2  -1  11 396.730 7.21373   2
  -1  -1  11 119.359 2.17646   2
   0  -1  11 1416.28 26.1329  -1
   0  -1  11 1416.28 26.1329   2
   1  -1  11 56.9196 1.43162   2
   2  -1  11 458.508 9.54690   2
   3  -1  11 1.98845 0.31850   2
   4  -1  11 470.502 9.29412   2
   5  -1  11 2.67634 0.43582   2
   6  -1  11 175.853 6.23932   2
  -7   0  11 4.43756 0.60880   2
  -6   0  11 200.021 4.89307   2
  -5   0  11 9.84509 0.70538   2
  -4   0  11 318.273 7.24499   2
  -3   0  11 13.6584 0.54194   2
  -2   0  11 463.370 8.35138   2
  -1   0  11 10.7210 0.35828   2
   0   0  11 744.160 11.6828  -1
   0   0  11 744.160 11.6828   2
   1   0  11 66.3244 1.47001   2
   2   0  11 254.904 4.94699   2
   3   0  11 23.8301 0.85760   2
   4   0  11 85.3040 2.03585   2
   5   0  11 22.0718 0.81143   2
   6   0  11 25.6722 1.36594   2
  -7   1  11 9.91358 0.78531   2
  -6   1  11 7.66851 0.65498   2
  -5   1  11 51.8045 1.71790   2
  -4   1  11 0.81468 0.32948   2
  -3   1  11 7.99895 0.44106   2
  -2   1  11 24.7909 0.59028   2
  -1   1  11 13.4066 0.46609   2
   0   1  11 311.493 5.49801  -1
   0   1  11 311.493 5.49801   2
   1   1  11 9.64537 0.44610   2
   2   1  11 189.122 3.41814   2
   3   1  11 12.2436 0.48206   2
   4   1  11 276.127 5.68214   2
   5   1  11 36.6222 1.23952   2
   6   1  11 147.958 4.24242   2
  -7   2  11 0.14018 0.54321   2
  -6   2  11 160.743 5.46117   2
  -5   2  11 11.0801 0.86033   2
  -4   2  11 308.636 6.44644   2
  -3   2  11 31.5681 0.81368   2
  -2   2  11 546.882 9.41442   2
  -1   2  11 78.3827 1.75961   2
   0   2  11 918.553 16.6158  -1
   0   2  11 918.553 16.6158   2
   1   2  11 102.837 2.18403   2
   2   2  11 487.697 8.42002   2
   3   2  11 74.1761 1.62433   2
   4   2  11 182.585 3.53994   2
   5   2  11 54.0622 1.52423   2
   6   2  11 131.647 3.85851   2
  -7   3  11 30.4121 1.73995   2
  -6   3  11 75.9296 3.00810   2
  -5   3  11 92.1996 2.55282   2
  -4   3  11 69.3655 1.80914   2
  -3   3  11 77.6134 1.87663   2
  -2   3  11 32.8754 0.99374   2
  -1   3  11 151.437 4.44762   2
   0   3  11 30.0128 1.02168  -1
   0   3  11 30.0128 1.02168   2
   1   3  11 75.3758 1.84246   2
   2   3  11 0.46427 0.23149   2
   3   3  11 89.8422 1.91740   2
   4   3  11 0.09248 0.29875   2
   5   3  11 23.7225 0.99236   2
   6   3  11 4.06394 0.66662   2
  -6   4  11 0.12390 0.40164   2
  -5   4  11 45.5451 2.07481   2
  -4   4  11 0.30096 0.36107   2
  -3   4  11 134.015 2.99586   2
  -2   4  11 0.59436 0.33709   2
   0   4  11 0.16841 0.34949  -1
   0   4  11 0.16841 0.34949   2
   1   4  11 81.7093 2.83694   2
   1   4  11 111.849 7.81839  -1
  -1   4  11 111.849 7.81839   2
   2   4  11 1.07076 0.31721   2
   3   4  11 11.4849 0.78584   2
   4   4  11 2.41935 0.43930   2
   5   4  11 17.6295 1.12545   2
  -5   5  11 9.29091 1.00134   2
  -4   5  11 54.5138 2.00656   2
  -3   5  11 -0.1272 0.34926   2
  -2   5  11 74.3761 2.34595   2
  -1   5  11 5.65758 1.18650  -1
   1   5  11 5.65758 1.18650   2
   0   5  11 130.999 3.68345  -1
   0   5  11 130.999 3.68345   2
   1   5  11 7.35688 1.22372  -1
  -1   5  11 7.35688 1.22372   2
   2   5  11 72.3313 2.21078   2
   3   5  11 -0.3813 0.32110   2
   4   5  11 26.4549 1.43031   2
  -5   6  11 14.7253 1.34580   2
  -4   6  11 20.4681 1.46070   2
  -3   6  11 23.0670 1.55079   2
  -2   6  11 26.5943 1.41016   2
  -1   6  11 31.4493 2.02379  -1
   1   6  11 31.4493 2.02379   2
   0   6  11 36.3089 1.70924  -1
   0   6  11 36.3089 1.70924   2
   1   6  11 32.4096 1.72771  -1
  -1   6  11 32.4096 1.72771   2
   2   6  11 9.23124 0.76942   2
   3   6  11 7.10089 0.72963   2
  -3   7  11 7.13060 1.01301   2
  -2   7  11 0.66677 0.61846   2
  -1   7  11 37.9318 1.94839  -1
   1   7  11 37.9318 1.94839   2
   0   7  11 2.94973 0.65139  -1
   0   7  11 2.94973 0.65139   2
   1   7  11 33.6723 2.09627  -1
  -1   7  11 33.6723 2.09627   2
   2   7  11 3.72124 0.60909   2
  -2  -7  12 26.7213 3.21720   2
  -1  -7  12 28.1790 2.22603   2
   0  -7  12 218.125 14.1938  -1
   0  -7  12 218.125 14.1938   2
   1  -7  12 13.4135 1.70870   2
   2  -7  12 52.6692 4.58294   2
  -3  -6  12 1.34696 1.19042   2
  -2  -6  12 203.182 9.18145   2
  -1  -6  12 13.8505 1.59895   2
   0  -6  12 235.022 10.4050  -1
   0  -6  12 235.022 10.4050   2
   1  -6  12 37.9794 2.53453   2
   2  -6  12 136.070 9.51737   2
   3  -6  12 56.2683 3.38833   2
  -5  -5  12 28.6215 1.43411   2
  -4  -5  12 4.70344 0.90680   2
  -3  -5  12 26.7397 1.69836   2
  -2  -5  12 -0.0887 0.59266   2
  -1  -5  12 40.4246 2.53789   2
   0  -5  12 16.0635 1.56683  -1
   0  -5  12 16.0635 1.56683   2
   1  -5  12 17.7583 1.62751   2
   2  -5  12 17.5843 1.72636   2
   3  -5  12 5.65927 1.11070   2
   4  -5  12 42.2590 2.82049   2
  -5  -4  12 3.04979 0.60984   2
  -4  -4  12 124.730 3.80779   2
  -3  -4  12 5.62949 0.70651   2
  -2  -4  12 321.006 9.68982   2
  -1  -4  12 -0.1550 0.55279   2
   0  -4  12 458.368 19.0496  -1
   0  -4  12 458.368 19.0496   2
   1  -4  12 1.78906 0.73218   2
   2  -4  12 314.358 13.4274   2
   3  -4  12 5.79539 1.10646   2
   4  -4  12 123.367 8.68022   2
   5  -4  12 5.86207 0.83647   2
  -6  -3  12 51.6736 1.73383   2
  -5  -3  12 3.07145 0.48429   2
  -4  -3  12 120.817 2.85383   2
  -3  -3  12 6.37911 0.52039   2
  -2  -3  12 51.6254 1.55740   2
  -1  -3  12 5.30171 0.94381   2
   0  -3  12 204.543 6.63232  -1
   0  -3  12 204.543 6.63232   2
   1  -3  12 7.01263 1.03933   2
   2  -3  12 9.44006 1.23830   2
   3  -3  12 3.22643 0.83057   2
   4  -3  12 27.1303 2.94830   2
   5  -3  12 1.78933 0.58581   2
   6  -3  12 -0.5634 0.57384   2
  -6  -2  12 -0.5112 0.35639   2
  -5  -2  12 1.49278 0.40815   2
  -4  -2  12 7.20936 0.53788   2
  -3  -2  12 6.77867 0.46486   2
  -2  -2  12 3.93805 0.36649   2
  -1  -2  12 1.21808 0.23622   2
   0  -2  12 38.4081 1.39061  -1
   0  -2  12 38.4081 1.39061   2
   1  -2  12 16.4936 1.44909   2
   2  -2  12 5.29944 0.94180   2
   3  -2  12 14.8598 1.50470   2
   4  -2  12 11.3776 1.10107   2
   5  -2  12 22.1317 1.33684   2
   6  -2  12 2.73189 0.56990   2
  -6  -1  12 1.28955 0.44393   2
  -5  -1  12 121.516 3.15418   2
  -4  -1  12 2.09970 0.37928   2
  -3  -1  12 114.641 2.56292   2
  -2  -1  12 5.22018 0.33667   2
  -1  -1  12 249.624 4.49640   2
   0  -1  12 0.32005 0.26500  -1
   0  -1  12 0.32005 0.26500   2
   1  -1  12 192.167 5.34404   2
   2  -1  12 0.66952 0.27361   2
   3  -1  12 203.534 5.24098   2
   4  -1  12 6.58147 0.55749   2
   5  -1  12 107.204 3.25822   2
   6  -1  12 2.20174 0.62525   2
  -7   0  12 74.3954 2.27384   2
  -6   0  12 4.43463 0.56863   2
  -5   0  12 89.9977 2.92717   2
  -4   0  12 4.61044 0.47230   2
  -3   0  12 156.004 4.05377   2
  -2   0  12 6.93757 0.34362   2
  -1   0  12 151.309 2.91093   2
   0   0  12 3.79404 0.24451  -1
   0   0  12 3.79404 0.24451   2
   1   0  12 142.678 2.88167   2
   2   0  12 47.6440 1.33161   2
   3   0  12 94.7840 2.31512   2
   4   0  12 9.16157 0.62907   2
   5   0  12 54.2428 1.64852   2
   6   0  12 25.4752 1.94968   2
  -7   1  12 10.6829 0.97738   2
  -6   1  12 35.2754 1.57112   2
  -5   1  12 2.17613 0.46327   2
  -4   1  12 68.4815 2.09512   2
  -3   1  12 7.06312 0.43335   2
  -2   1  12 37.2972 0.91032   2
  -1   1  12 1.00250 0.22208   2
   0   1  12 80.7646 1.62714  -1
   0   1  12 80.7646 1.62714   2
   1   1  12 0.23676 0.20868   2
   2   1  12 -0.0708 0.19929   2
   3   1  12 13.2633 0.65025   2
   4   1  12 -0.1135 0.29698   2
   5   1  12 6.86583 0.56881   2
   6   1  12 24.3414 1.22479   2
  -6   2  12 4.84844 0.79372   2
  -5   2  12 3.77391 0.59621   2
  -4   2  12 0.25493 0.30631   2
  -3   2  12 74.4775 1.76487   2
  -2   2  12 18.9297 0.67434   2
  -1   2  12 33.4928 0.95448   2
   0   2  12 106.510 2.41944  -1
   0   2  12 106.510 2.41944   2
   1   2  12 116.266 2.70810   2
   2   2  12 72.4673 1.65687   2
   3   2  12 42.5488 1.08458   2
   4   2  12 57.6775 1.67728   2
   5   2  12 51.3303 1.71241   2
   6   2  12 27.6096 1.34104   2
  -6   3  12 35.5651 1.49767   2
  -5   3  12 9.85204 0.72107   2
  -4   3  12 52.0416 1.69776   2
  -3   3  12 2.98244 0.45290   2
  -2   3  12 42.5254 1.21054   2
  -1   3  12 0.08896 0.32572   2
   0   3  12 54.9874 1.56212  -1
   0   3  12 54.9874 1.56212   2
   1   3  12 31.4806 1.09304   2
   2   3  12 1.60835 0.31252   2
   3   3  12 20.7439 0.78749   2
   4   3  12 0.32557 0.31449   2
   5   3  12 41.9751 1.66170   2
  -6   4  12 4.30058 0.62900   2
  -5   4  12 50.1256 2.53933   2
  -4   4  12 1.85214 0.44091   2
  -3   4  12 92.0640 2.64592   2
  -2   4  12 0.63493 0.36983   2
  -1   4  12 217.013 9.75290  -1
   1   4  12 217.013 9.75290   2
   0   4  12 21.3284 1.04144  -1
   0   4  12 21.3284 1.04144   2
   1   4  12 216.648 7.52833  -1
  -1   4  12 216.648 7.52833   2
   2   4  12 5.48065 0.57967   2
   3   4  12 56.4914 1.85581   2
   4   4  12 17.4455 0.99732   2
   5   4  12 19.9889 1.17090   2
  -5   5  12 0.27843 0.53651   2
  -4   5  12 11.8174 0.86142   2
  -3   5  12 20.0003 1.02153   2
  -2   5  12 9.03313 0.74466   2
  -1   5  12 145.422 5.72953  -1
   1   5  12 145.422 5.72953   2
   0   5  12 7.94934 0.82826  -1
   0   5  12 7.94934 0.82826   2
   1   5  12 130.042 4.34578  -1
  -1   5  12 130.042 4.34578   2
   2   5  12 1.80713 0.43091   2
   3   5  12 86.5653 2.60621   2
   4   5  12 1.33324 0.48293   2
  -4   6  12 4.67891 0.86773   2
  -3   6  12 184.115 5.89218   2
  -2   6  12 0.46260 0.47123   2
  -1   6  12 483.375 16.9658  -1
   1   6  12 483.375 16.9658   2
   0   6  12 2.82512 0.69590  -1
   0   6  12 2.82512 0.69590   2
   1   6  12 475.195 13.8750  -1
  -1   6  12 475.195 13.8750   2
   2   6  12 7.61395 0.73304   2
   3   6  12 188.276 4.98348   2
  -2   7  12 23.4017 1.62976   2
  -1   7  12 6.28254 1.20197  -1
   1   7  12 6.28254 1.20197   2
   0   7  12 66.2378 2.67221  -1
   0   7  12 66.2378 2.67221   2
   1   7  12 5.11388 1.30717  -1
  -1   7  12 5.11388 1.30717   2
  -3  -6  13 112.302 8.02594   2
  -2  -6  13 1.35178 0.81364   2
  -1  -6  13 117.952 5.82129   2
   0  -6  13 6.07573 1.01963  -1
   0  -6  13 6.07573 1.01963   2
   1  -6  13 88.6152 4.63405   2
   2  -6  13 2.62669 0.92888   2
   3  -6  13 57.0546 3.48950   2
  -4  -5  13 7.41905 1.07169   2
  -3  -5  13 2.98703 1.38521   2
  -2  -5  13 0.56439 0.66366   2
  -1  -5  13 21.9311 1.83433   2
   0  -5  13 50.4791 3.03672  -1
   0  -5  13 50.4791 3.03672   2
   1  -5  13 45.9863 2.84990   2
   2  -5  13 0.16944 0.63410   2
   3  -5  13 60.6896 3.54856   2
   4  -5  13 5.85847 1.19531   2
  -5  -4  13 111.921 3.57208   2
  -4  -4  13 9.27767 1.09713   2
  -3  -4  13 236.431 7.37184   2
  -2  -4  13 19.0926 1.71540   2
  -1  -4  13 251.270 10.9361   2
   0  -4  13 0.16395 0.58734  -1
   0  -4  13 0.16395 0.58734   2
   1  -4  13 279.066 12.0484   2
   2  -4  13 0.31655 0.62645   2
   3  -4  13 163.482 7.58157   2
   4  -4  13 5.70979 1.14748   2
   5  -4  13 75.7898 3.49917   2
  -5  -3  13 55.8606 2.12386   2
  -4  -3  13 0.40351 0.41492   2
  -3  -3  13 10.4316 0.78338   2
  -2  -3  13 1.60404 0.54906   2
  -1  -3  13 9.40648 1.21070   2
   0  -3  13 0.51750 0.58012  -1
   0  -3  13 0.51750 0.58012   2
   1  -3  13 2.62292 0.78849   2
   2  -3  13 4.83511 0.98513   2
   3  -3  13 8.83757 1.28840   2
   4  -3  13 3.52684 0.76097   2
   5  -3  13 15.0874 1.23197   2
  -6  -2  13 -0.1083 0.39391   2
  -5  -2  13 100.877 2.72987   2
  -4  -2  13 7.50912 0.73380   2
  -3  -2  13 154.526 3.74090   2
  -2  -2  13 1.67512 0.30421   2
  -1  -2  13 274.357 7.52875   2
   0  -2  13 65.6635 2.66261  -1
   0  -2  13 65.6635 2.66261   2
   1  -2  13 225.404 6.36444   2
   2  -2  13 9.57677 0.96381   2
   3  -2  13 183.111 6.60926   2
   4  -2  13 43.3560 2.17865   2
   5  -2  13 94.9747 3.02786   2
  -6  -1  13 2.59032 0.50493   2
  -5  -1  13 51.0852 1.95212   2
  -4  -1  13 0.41615 0.33570   2
  -3  -1  13 29.3284 1.05156   2
  -2  -1  13 8.48390 0.51661   2
  -1  -1  13 17.7529 0.76999   2
   0  -1  13 2.03300 0.46294  -1
   0  -1  13 2.03300 0.46294   2
   1  -1  13 0.10659 0.36402   2
   2  -1  13 4.15391 0.52536   2
   3  -1  13 2.34954 0.47342   2
   4  -1  13 5.91973 0.67461   2
   5  -1  13 10.4338 1.01482   2
  -6   0  13 2.01426 0.58186   2
  -5   0  13 113.501 3.54346   2
  -4   0  13 2.81757 0.46044   2
  -3   0  13 96.6262 2.50275   2
  -2   0  13 -0.0125 0.20284   2
  -1   0  13 239.823 4.48143   2
   0   0  13 1.49419 0.29591  -1
   0   0  13 1.49419 0.29591   2
   1   0  13 129.309 3.35568   2
   2   0  13 1.37296 0.32456   2
   3   0  13 129.029 3.03554   2
   4   0  13 0.03094 0.37967   2
   5   0  13 33.2834 1.21553   2
  -6   1  13 10.2210 1.03923   2
  -5   1  13 1.96974 0.45374   2
  -4   1  13 15.0184 0.74843   2
  -3   1  13 9.84373 0.54665   2
  -2   1  13 8.70688 0.47980   2
  -1   1  13 10.0945 0.49236   2
   0   1  13 23.9501 0.73432  -1
   0   1  13 23.9501 0.73432   2
   1   1  13 6.76897 0.42873   2
   2   1  13 0.12292 0.27746   2
   3   1  13 42.1849 1.55780   2
   4   1  13 1.86538 0.41067   2
   5   1  13 18.4052 0.96169   2
  -6   2  13 1.56480 0.65480   2
  -5   2  13 114.059 3.06075   2
  -4   2  13 6.01795 0.57802   2
  -3   2  13 186.814 4.74066   2
  -2   2  13 8.12356 0.52785   2
  -1   2  13 187.217 5.59758   2
   0   2  13 47.4036 1.44662  -1
   0   2  13 47.4036 1.44662   2
   1   2  13 140.650 3.50005   2
   2   2  13 5.89729 0.43781   2
   3   2  13 76.9031 2.08021   2
   4   2  13 19.1567 0.91440   2
   5   2  13 34.1350 1.34214   2
  -6   3  13 40.8483 1.67265   2
  -5   3  13 10.4833 0.77511   2
  -4   3  13 63.8812 2.29248   2
  -3   3  13 20.1378 0.95967   2
  -2   3  13 81.5053 2.11915   2
  -1   3  13 0.56930 0.37951   2
   0   3  13 102.816 2.95223  -1
   0   3  13 102.816 2.95223   2
   1   3  13 8.18193 0.70078   2
   2   3  13 71.2228 2.18096   2
   3   3  13 0.31022 0.29947   2
   4   3  13 21.0068 1.13238   2
   5   3  13 3.85041 0.75808   2
  -5   4  13 2.13891 0.55718   2
  -4   4  13 27.4173 1.19266   2
  -3   4  13 21.3355 1.03735   2
  -2   4  13 34.8389 1.37358   2
  -1   4  13 9.33207 1.23497  -1
   1   4  13 9.33207 1.23497   2
   0   4  13 61.9134 2.05213  -1
   0   4  13 61.9134 2.05213   2
   1   4  13 9.71746 1.30801  -1
  -1   4  13 9.71746 1.30801   2
   2   4  13 22.5714 1.16893   2
   3   4  13 0.54900 0.38538   2
   4   4  13 10.9327 0.84535   2
  -4   5  13 7.17203 0.85291   2
  -3   5  13 4.58698 0.71725   2
  -2   5  13 18.8166 1.01930   2
  -1   5  13 1.61857 0.96868  -1
   1   5  13 1.61857 0.96868   2
   0   5  13 72.6459 2.71474  -1
   0   5  13 72.6459 2.71474   2
   1   5  13 2.39597 1.17104  -1
  -1   5  13 2.39597 1.17104   2
   2   5  13 60.6078 1.99659   2
   3   5  13 5.41726 0.65922   2
  -3   6  13 2.11018 0.60695   2
  -2   6  13 150.942 4.98705   2
  -1   6  13 0.09032 1.00288  -1
   1   6  13 0.09032 1.00288   2
   0   6  13 285.704 8.68646  -1
   0   6  13 285.704 8.68646   2
   1   6  13 0.24444 1.01846  -1
  -1   6  13 0.24444 1.01846   2
   2   6  13 108.616 3.17566   2
  -1  -6  14 42.5368 2.83823   2
   0  -6  14 19.6564 1.86617  -1
   0  -6  14 19.6564 1.86617   2
   1  -6  14 35.4286 2.56473   2
  -3  -5  14 38.4243 3.74177   2
  -2  -5  14 0.58321 0.72110   2
  -1  -5  14 20.8863 1.85336   2
   0  -5  14 -0.2131 0.61895  -1
   0  -5  14 -0.2131 0.61895   2
   1  -5  14 20.8687 1.90471   2
   2  -5  14 0.22964 0.65031   2
   3  -5  14 10.6314 1.51336   2
  -4  -4  14 5.04645 0.93809   2
  -3  -4  14 1.44231 1.17563   2
  -2  -4  14 37.9887 2.50275   2
  -1  -4  14 0.28266 0.60272   2
   0  -4  14 34.9313 2.39294  -1
   0  -4  14 34.9313 2.39294   2
   1  -4  14 0.17576 0.63313   2
   2  -4  14 54.0835 3.20345   2
   3  -4  14 0.95677 0.74347   2
   4  -4  14 15.6842 1.79518   2
  -5  -3  14 0.53567 0.49467   2
  -4  -3  14 10.5631 1.14533   2
  -3  -3  14 0.21715 0.42118   2
  -2  -3  14 0.27925 0.69292   2
  -1  -3  14 0.43273 0.47055   2
   0  -3  14 33.6938 2.27425  -1
   0  -3  14 33.6938 2.27425   2
   1  -3  14 0.53901 0.59643   2
   2  -3  14 -0.1322 0.55461   2
   3  -3  14 -0.6732 0.54493   2
   4  -3  14 11.1274 1.18836   2
  -5  -2  14 0.55114 0.45765   2
  -4  -2  14 15.2503 0.99775   2
  -3  -2  14 0.26762 0.32764   2
  -2  -2  14 11.7948 0.88187   2
  -1  -2  14 20.1087 1.28039   2
   0  -2  14 68.3506 2.32686  -1
   0  -2  14 68.3506 2.32686   2
   1  -2  14 16.6348 1.00924   2
   2  -2  14 15.2050 1.02340   2
   3  -2  14 44.6859 1.85543   2
   4  -2  14 17.9594 1.18383   2
   5  -2  14 34.7442 1.55025   2
  -6  -1  14 -0.4345 0.46427   2
  -5  -1  14 14.2704 1.03988   2
  -4  -1  14 1.36092 0.41405   2
  -3  -1  14 77.5318 2.28196   2
  -2  -1  14 0.05269 0.25166   2
  -1  -1  14 39.3783 1.53766   2
   0  -1  14 -0.1938 0.37040  -1
   0  -1  14 -0.1938 0.37040   2
   1  -1  14 77.9167 2.31484   2
   2  -1  14 6.73306 0.62873   2
   3  -1  14 25.6821 1.32794   2
   4  -1  14 2.47851 0.54309   2
   5  -1  14 19.0906 1.15792   2
  -6   0  14 31.8549 1.53849   2
  -5   0  14 46.0850 1.85265   2
  -4   0  14 90.2762 2.64858   2
  -3   0  14 19.8713 0.80814   2
  -2   0  14 98.3816 2.51304   2
  -1   0  14 13.2029 0.60674   2
   0   0  14 328.993 8.99028  -1
   0   0  14 328.993 8.99028   2
   1   0  14 0.36519 0.41237   2
   2   0  14 97.1960 2.56333   2
   3   0  14 0.33435 0.41501   2
   4   0  14 106.593 3.26460   2
   5   0  14 1.37759 0.51707   2
  -6   1  14 25.5688 1.56982   2
  -5   1  14 4.69140 0.74446   2
  -4   1  14 28.5985 1.04452   2
  -3   1  14 0.21228 0.24398   2
  -2   1  14 30.3758 1.15325   2
  -1   1  14 2.17563 0.29323   2
   0   1  14 2.44839 0.41622  -1
   0   1  14 2.44839 0.41622   2
   1   1  14 0.50119 0.38997   2
   2   1  14 0.17947 0.30362   2
   3   1  14 7.36301 0.61676   2
   4   1  14 18.0504 0.97496   2
   5   1  14 2.59187 0.57792   2
  -5   2  14 0.25591 0.36840   2
  -4   2  14 132.162 3.42101   2
  -3   2  14 17.9905 0.89097   2
  -2   2  14 247.655 6.12823   2
  -1   2  14 2.58775 0.45462   2
   0   2  14 541.416 13.3114  -1
   0   2  14 541.416 13.3114   2
   1   2  14 48.8358 1.68470   2
   2   2  14 276.350 7.29776   2
   3   2  14 17.7131 0.85282   2
   4   2  14 156.973 4.96088   2
   5   2  14 35.0893 1.93282   2
  -5   3  14 9.78339 0.92797   2
  -4   3  14 104.772 3.37764   2
  -3   3  14 1.79303 0.44644   2
  -2   3  14 88.0721 3.07107   2
   0   3  14 42.6030 2.30434  -1
   0   3  14 42.6030 2.30434   2
   1   3  14 16.1811 1.24404   2
   1   3  14 61.7892 2.75692  -1
  -1   3  14 61.7892 2.75692   2
   2   3  14 12.5776 0.83678   2
   3   3  14 40.8895 1.90707   2
   4   3  14 0.19484 0.51470   2
  -5   4  14 21.8624 1.29237   2
  -4   4  14 49.5042 1.99392   2
  -3   4  14 32.9324 1.61911   2
  -2   4  14 83.6256 2.57813   2
  -1   4  14 49.4740 2.46251  -1
   1   4  14 49.4740 2.46251   2
   0   4  14 175.932 5.55943  -1
   0   4  14 175.932 5.55943   2
   1   4  14 46.8865 2.52530  -1
  -1   4  14 46.8865 2.52530   2
   2   4  14 91.3972 3.01196   2
   3   4  14 5.86821 0.65537   2
  -4   5  14 30.1069 1.59567   2
  -3   5  14 14.3005 1.17238   2
  -2   5  14 36.0377 1.71637   2
  -1   5  14 1.10465 1.00549  -1
   1   5  14 1.10465 1.00549   2
   0   5  14 42.7197 1.92909  -1
   0   5  14 42.7197 1.92909   2
   1   5  14 1.26819 1.44936  -1
  -1   5  14 1.26819 1.44936   2
   2   5  14 12.1310 0.90234   2
  -2   6  14 2.70117 0.67558   2
  -1   6  14 1.92199 0.61248   2
   0   6  14 5.51811 0.83027  -1
   0   6  14 5.51811 0.83027   2
  -2  -5  15 63.8006 3.70312   2
  -1  -5  15 10.1781 1.44731   2
   0  -5  15 14.2865 1.70585  -1
   0  -5  15 14.2865 1.70585   2
   1  -5  15 24.7993 2.09738   2
   2  -5  15 9.32187 1.45343   2
  -3  -4  15 4.12415 1.57505   2
  -2  -4  15 97.8214 7.07055   2
  -1  -4  15 10.4369 1.42836   2
   0  -4  15 179.711 8.27009  -1
   0  -4  15 179.711 8.27009   2
   1  -4  15 0.25912 0.65203   2
   2  -4  15 132.487 6.42319   2
   3  -4  15 -0.2108 0.64818   2
  -4  -3  15 137.236 5.43270   2
  -3  -3  15 0.10994 0.67555   2
  -2  -3  15 131.043 6.24473   2
  -1  -3  15 26.2396 1.54681   2
   0  -3  15 229.769 6.55294  -1
   0  -3  15 229.769 6.55294   2
   1  -3  15 18.8010 1.30527   2
   2  -3  15 72.0768 3.97734   2
   3  -3  15 36.5208 2.55046   2
   4  -3  15 23.5217 1.62829   2
  -5  -2  15 0.20239 0.47545   2
  -4  -2  15 2.77931 0.73285   2
  -3  -2  15 7.53431 1.15828   2
  -2  -2  15 2.12131 0.80582   2
  -1  -2  15 1.07004 0.57519   2
   0  -2  15 1.38057 0.48254  -1
   0  -2  15 1.38057 0.48254   2
   1  -2  15 2.28353 0.54801   2
   2  -2  15 21.2566 1.20198   2
   3  -2  15 -0.3877 0.45775   2
   4  -2  15 1.53514 0.58013   2
  -5  -1  15 -0.2519 0.45927   2
  -4  -1  15 41.0360 1.50122   2
  -3  -1  15 0.36912 0.35459   2
  -2  -1  15 20.1985 1.29831   2
  -1  -1  15 3.10373 0.65189   2
   0  -1  15 69.5380 2.37769  -1
   0  -1  15 69.5380 2.37769   2
   1  -1  15 2.84864 0.57273   2
   2  -1  15 5.15785 0.68696   2
   3  -1  15 9.52735 0.91246   2
   4  -1  15 13.6806 1.02644   2
  -5   0  15 5.09291 0.71434   2
  -4   0  15 0.53518 0.32852   2
  -3   0  15 1.72071 0.35562   2
  -2   0  15 0.23751 0.31012   2
  -1   0  15 4.12895 0.68981   2
   0   0  15 4.03110 0.59210  -1
   0   0  15 4.03110 0.59210   2
   1   0  15 1.99250 0.51613   2
   2   0  15 0.34521 0.67609   2
   3   0  15 2.10872 0.54005   2
   4   0  15 0.63021 0.46036   2
  -5   1  15 9.60614 0.80027   2
  -4   1  15 4.11107 0.52833   2
  -3   1  15 0.34119 0.38200   2
  -2   1  15 1.66340 0.35328   2
  -1   1  15 14.3508 0.75404   2
   0   1  15 5.69955 0.64065  -1
   0   1  15 5.69955 0.64065   2
   1   1  15 -0.0011 0.40733   2
   2   1  15 0.31562 0.36994   2
   3   1  15 10.1424 0.82128   2
   4   1  15 3.50763 0.60265   2
  -5   2  15 34.7814 1.36054   2
  -4   2  15 0.05883 0.39569   2
  -3   2  15 80.6127 2.37604   2
  -2   2  15 4.65991 0.54175   2
   0   2  15 10.4650 0.76566  -1
   0   2  15 10.4650 0.76566   2
   1   2  15 89.6479 4.35412   2
   1   2  15 169.994 7.84103  -1
  -1   2  15 169.994 7.84103   2
   2   2  15 25.1353 1.36114   2
   3   2  15 63.9879 2.24685   2
   4   2  15 11.3028 0.85402   2
  -4   3  15 3.54438 0.65632   2
  -3   3  15 60.1307 1.95073   2
  -2   3  15 6.52201 0.77473   2
  -1   3  15 36.0645 2.49183  -1
   1   3  15 36.0645 2.49183   2
   0   3  15 20.0656 1.19169  -1
   0   3  15 20.0656 1.19169   2
   1   3  15 41.5058 2.18963  -1
  -1   3  15 41.5058 2.18963   2
   2   3  15 2.09493 0.53273   2
   3   3  15 -0.2946 0.41734   2
  -4   4  15 1.69365 0.53948   2
  -3   4  15 108.771 3.75309   2
  -2   4  15 0.18913 0.46702   2
  -1   4  15 264.333 9.18954  -1
   1   4  15 264.333 9.18954   2
   0   4  15 5.83372 0.78966  -1
   0   4  15 5.83372 0.78966   2
   1   4  15 251.209 7.70624  -1
  -1   4  15 251.209 7.70624   2
   2   4  15 7.85473 0.72940   2
  -2   5  15 17.0170 1.28742   2
  -1   5  15 128.773 4.42145  -1
   1   5  15 128.773 4.42145   2
   0   5  15 48.3572 2.11608  -1
   0   5  15 48.3572 2.11608   2
   1   5  15 150.851 5.05165  -1
  -1   5  15 150.851 5.05165   2
  -2  -4  16 1.04259 0.79204   2
  -1  -4  16 40.6149 2.72773   2
   0  -4  16 10.1093 1.46716  -1
   0  -4  16 10.1093 1.46716   2
   1  -4  16 65.1986 3.76177   2
   2  -4  16 2.57254 0.91480   2
  -3  -3  16 128.895 6.24591   2
  -2  -3  16 13.7130 1.64535   2
  -1  -3  16 115.449 4.35782   2
   0  -3  16 111.146 4.27483  -1
   0  -3  16 111.146 4.27483   2
   1  -3  16 92.4892 3.72147   2
   2  -3  16 31.8249 1.82909   2
   3  -3  16 33.7018 1.66667   2
  -4  -2  16 14.9802 2.49507   2
  -3  -2  16 9.93579 1.38106   2
  -2  -2  16 22.1136 1.85958   2
  -1  -2  16 8.89247 1.00138   2
   0  -2  16 8.71252 1.00885  -1
   0  -2  16 8.71252 1.00885   2
   1  -2  16 55.9384 2.54999   2
   2  -2  16 1.38574 0.53605   2
   3  -2  16 34.9556 1.67667   2
  -4  -1  16 4.91723 0.76506   2
  -3  -1  16 136.666 6.49964   2
  -2  -1  16 16.2505 1.56612   2
   0  -1  16 81.1799 2.73009  -1
   0  -1  16 81.1799 2.73009   2
   1  -1  16 117.509 4.45254   2
   1  -1  16 376.831 19.6063  -1
  -1  -1  16 376.831 19.6063   2
   2  -1  16 44.8928 2.23812   2
   3  -1  16 99.6938 3.44027   2
   4  -1  16 51.9867 3.21700   2
  -4   0  16 10.9494 0.71248   2
  -3   0  16 6.86304 0.77842   2
  -2   0  16 16.1362 1.19538   2
  -1   0  16 2.85522 0.65704   2
   0   0  16 4.17367 0.61760  -1
   0   0  16 4.17367 0.61760   2
   1   0  16 6.52116 0.88300   2
   2   0  16 4.18022 0.81104   2
   3   0  16 21.2621 1.47803   2
   4   0  16 3.38971 0.63055   2
  -4   1  16 1.36852 0.41674   2
  -3   1  16 112.684 3.53531   2
  -2   1  16 13.0141 0.90759   2
   0   1  16 37.1601 1.59360  -1
   0   1  16 37.1601 1.59360   2
   1   1  16 114.548 4.32969   2
   1   1  16 257.912 13.9564  -1
  -1   1  16 257.912 13.9564   2
   2   1  16 47.3370 2.26469   2
   3   1  16 97.8907 3.88884   2
  -4   2  16 6.33534 0.75519   2
  -3   2  16 47.4908 1.89175   2
  -2   2  16 10.0830 0.73669   2
   0   2  16 16.7223 1.54751  -1
   0   2  16 16.7223 1.54751   2
   1   2  16 22.1796 1.62207  -1
  -1   2  16 22.1796 1.62207   2
   1   2  16 24.5002 1.92557   2
   2   2  16 4.11007 0.72117   2
   3   2  16 -0.1941 0.44510   2
  -4   3  16 -0.0574 0.63334   2
  -3   3  16 25.0793 1.17317   2
  -2   3  16 1.52579 0.54811   2
  -1   3  16 33.5165 3.39091  -1
   1   3  16 33.5165 3.39091   2
   0   3  16 9.36653 0.87701  -1
   0   3  16 9.36653 0.87701   2
   1   3  16 38.1179 2.15809  -1
  -1   3  16 38.1179 2.15809   2
   2   3  16 14.3466 1.35653   2
  -3   4  16 19.4680 1.29229   2
  -2   4  16 0.53071 0.51042   2
  -1   4  16 57.6222 2.80205  -1
   1   4  16 57.6222 2.80205   2
   0   4  16 0.55680 0.57678  -1
   0   4  16 0.55680 0.57678   2
   1   4  16 59.3344 2.84906  -1
  -1   4  16 59.3344 2.84906   2
  -2  -3  17 15.6370 1.79281   2
  -1  -3  17 11.8464 1.56850   2
   0  -3  17 27.6283 1.67684  -1
   0  -3  17 27.6283 1.67684   2
   1  -3  17 2.70832 0.79692   2
  -3  -2  17 4.33728 1.05346   2
  -2  -2  17 2.56818 0.85833   2
   0  -2  17 -0.1235 0.53658  -1
   0  -2  17 -0.1235 0.53658   2
   1  -2  17 8.56478 2.28113  -1
  -1  -2  17 8.56478 2.28113   2
   1  -2  17 4.71448 0.87735   2
   2  -2  17 4.09872 0.85885   2
  -3  -1  17 0.77714 0.75045   2
  -2  -1  17 11.3744 1.46876   2
  -1  -1  17 12.4158 1.18280   2
   0  -1  17 34.4732 1.88670  -1
   0  -1  17 34.4732 1.88670   2
   1  -1  17 17.2322 1.44188   2
   2  -1  17 1.87930 0.72189   2
  -3   0  17 29.4323 2.17246   2
  -2   0  17 9.65531 1.32238   2
  -1   0  17 4.94950 0.79783   2
   0   0  17 45.7111 2.21708  -1
   0   0  17 45.7111 2.21708   2
   1   0  17 18.2298 1.39073   2
   2   0  17 20.9349 1.49776   2
   3   0  17 -0.1130 0.58632   2
  -3   1  17 21.0069 1.57401   2
  -2   1  17 117.025 8.37969   2
   0   1  17 171.895 7.40247  -1
   0   1  17 171.895 7.40247   2
   1   1  17 80.7729 5.51605  -1
  -1   1  17 80.7729 5.51605   2
   1   1  17 87.8032 4.38882   2
   2   1  17 60.0848 3.38748   2
  -3   2  17 50.1166 1.97770   2
  -2   2  17 8.57010 0.90413   2
  -1   2  17 95.2018 6.38706  -1
   1   2  17 95.2018 6.38706   2
   0   2  17 1.09330 0.78797  -1
   0   2  17 1.09330 0.78797   2
   1   2  17 91.3560 6.05500  -1
  -1   2  17 91.3560 6.05500   2
   2   2  17 0.45737 0.53843   2
  -2   3  17 43.0068 1.94798   2
  -1   3  17 35.4053 3.64717  -1
   1   3  17 35.4053 3.64717   2
   0   3  17 59.6674 3.39142  -1
   0   3  17 59.6674 3.39142   2
   1   3  17 42.1279 3.94868  -1
  -1   3  17 42.1279 3.94868   2
  -1  -2  18 107.639 5.44327   2
   0  -2  18 69.0772 3.05092  -1
   0  -2  18 69.0772 3.05092   2
  -2  -1  18 10.6597 1.48312   2
   0  -1  18 24.2579 1.58288  -1
   0  -1  18 24.2579 1.58288   2
   1  -1  18 0.83309 2.07271  -1
  -1  -1  18 0.83309 2.07271   2
   1  -1  18 -0.0108 0.59038   2
  -2   0  18 38.1516 3.80094   2
   0   0  18 81.3313 3.38694  -1
   0   0  18 81.3313 3.38694   2
   1   0  18 1.17428 0.63268   2
   1   0  18 -0.0528 2.06496  -1
  -1   0  18 -0.0528 2.06496   2
  -2   1  18 1.28006 1.32595   2
   0   1  18 0.63008 0.76517  -1
   0   1  18 0.63008 0.76517   2
   1   1  18 4.81889 1.11421   2
   1   1  18 21.4589 2.91122  -1
  -1   1  18 21.4589 2.91122   2
  -1   2  18 11.1761 2.26690   2
   0   2  18 7.21956 1.24136  -1
   0   2  18 7.21956 1.24136   2
   0   0   0    0.00    0.00   0
;
_shelx_hkl_checksum              1636
#END Tags that were not found in dictionaries
loop_
_space_group_symop_operation_xyz
'x, y, z'
'-x, -y, -z'
loop_
_atom_site_label
_atom_site_type_symbol
_atom_site_fract_x
_atom_site_fract_y
_atom_site_fract_z
_atom_site_U_iso_or_equiv
_atom_site_adp_type
_atom_site_occupancy
_atom_site_site_symmetry_order
_atom_site_calc_flag
_atom_site_refinement_flags_posn
_atom_site_refinement_flags_adp
C1 C 0.2295(2) -0.1921(2) 0.21667(10) 0.0174(3) Uani 1 1 d D U
H1 H 0.2171 -0.3148 0.2080 0.021 Uiso 1 1 calc R U
Al1 Al 0.25120(6) 0.23352(6) 0.24643(3) 0.01375(12) Uani 1 1 d D U
C2 C 0.2358(2) -0.12639(19) 0.30512(10) 0.0167(3) Uani 1 1 d D U
S1 S 0.22714(6) -0.26741(5) 0.39730(3) 0.01978(12) Uani 1 1 d D U
C3 C 0.2416(2) -0.0916(2) 0.47281(11) 0.0189(3) Uani 1 1 d D U
C4 C 0.2427(2) -0.0934(2) 0.56691(11) 0.0241(3) Uani 1 1 d D U
H4 H 0.2355 -0.2002 0.5988 0.029 Uiso 1 1 calc R U
C5 C 0.2547(2) 0.0648(2) 0.61341(11) 0.0261(4) Uani 1 1 d D U
H5 H 0.2565 0.0665 0.6780 0.031 Uiso 1 1 calc R U
C6 C 0.2642(2) 0.2209(2) 0.56645(11) 0.0245(4) Uani 1 1 d D U
H6 H 0.2717 0.3280 0.5994 0.029 Uiso 1 1 calc R U
C7 C 0.2627(2) 0.2225(2) 0.47241(11) 0.0205(3) Uani 1 1 d D U
H7 H 0.2690 0.3296 0.4408 0.025 Uiso 1 1 calc R U
C8 C 0.2518(2) 0.0644(2) 0.42501(10) 0.0168(3) Uani 1 1 d D U
N1 N 0.24846(17) 0.04323(16) 0.33025(9) 0.0158(3) Uani 1 1 d D U
C9 C 0.2404(2) -0.08799(19) 0.14035(10) 0.0157(3) Uani 1 1 d D U
S2 S 0.23265(5) -0.18123(5) 0.03172(3) 0.01793(12) Uani 1 1 d D U
C10 C 0.2529(2) 0.0239(2) -0.01661(10) 0.0166(3) Uani 1 1 d D U
C11 C 0.2564(2) 0.0667(2) -0.10838(11) 0.0202(3) Uani 1 1 d D U
H11 H 0.2491 -0.0213 -0.1543 0.024 Uiso 1 1 calc R U
C12 C 0.2708(2) 0.2417(2) -0.13056(11) 0.0215(3) Uani 1 1 d D U
H12 H 0.2722 0.2742 -0.1926 0.026 Uiso 1 1 calc R U
C13 C 0.2832(2) 0.3702(2) -0.06321(11) 0.0201(3) Uani 1 1 d D U
H13 H 0.2936 0.4891 -0.0800 0.024 Uiso 1 1 calc R U
C14 C 0.2807(2) 0.3278(2) 0.02798(10) 0.0178(3) Uani 1 1 d D U
H14 H 0.2898 0.4166 0.0735 0.021 Uiso 1 1 calc R U
C15 C 0.2645(2) 0.15265(19) 0.05177(10) 0.0153(3) Uani 1 1 d D U
N2 N 0.25703(17) 0.08809(16) 0.13991(8) 0.0150(3) Uani 1 1 d D U
C16 C 0.4832(2) 0.3829(2) 0.26415(11) 0.0197(3) Uani 1 1 d D U
H16A H 0.5882 0.3238 0.2400 0.029 Uiso 1 1 calc R U
H16B H 0.5093 0.4069 0.3292 0.029 Uiso 1 1 calc R U
H16C H 0.4680 0.4927 0.2321 0.029 Uiso 1 1 calc R U
C17 C 0.0103(2) 0.3448(2) 0.24345(11) 0.0199(3) Uani 1 1 d D U
H17A H -0.0059 0.4088 0.1866 0.030 Uiso 1 1 calc R U
H17B H 0.0094 0.4258 0.2951 0.030 Uiso 1 1 calc R U
H17C H -0.0929 0.2555 0.2471 0.030 Uiso 1 1 calc R U
loop_
_atom_site_aniso_label
_atom_site_aniso_U_11
_atom_site_aniso_U_22
_atom_site_aniso_U_33
_atom_site_aniso_U_23
_atom_site_aniso_U_13
_atom_site_aniso_U_12
C1 0.0215(8) 0.0126(7) 0.0184(7) 0.0016(6) 0.0017(6) 0.0013(6)
Al1 0.0148(2) 0.0118(2) 0.0147(2) 0.00116(17) 0.00128(17) 0.00050(16)
C2 0.0157(7) 0.0149(7) 0.0197(8) 0.0051(6) 0.0022(6) 0.0016(6)
S1 0.0270(2) 0.0153(2) 0.0174(2) 0.00479(15) 0.00240(16) 0.00172(15)
C3 0.0174(7) 0.0198(8) 0.0194(8) 0.0020(6) 0.0007(6) 0.0012(6)
C4 0.0257(8) 0.0279(9) 0.0186(8) 0.0070(7) 0.0014(6) 0.0012(7)
C5 0.0275(8) 0.0360(9) 0.0146(7) 0.0015(7) 0.0011(6) 0.0000(7)
C6 0.0241(8) 0.0289(9) 0.0203(8) -0.0046(7) 0.0004(6) -0.0005(7)
C7 0.0205(7) 0.0204(8) 0.0205(8) 0.0001(6) 0.0013(6) -0.0003(6)
C8 0.0149(7) 0.0191(7) 0.0164(7) 0.0028(6) 0.0013(6) 0.0003(6)
N1 0.0169(6) 0.0153(6) 0.0152(6) 0.0018(5) 0.0010(5) 0.0001(5)
C9 0.0161(7) 0.0145(7) 0.0166(7) -0.0007(6) 0.0015(6) 0.0014(5)
S2 0.0243(2) 0.01320(19) 0.0162(2) -0.00089(15) 0.00176(15) 0.00009(15)
C10 0.0163(7) 0.0163(7) 0.0171(8) 0.0005(6) 0.0011(6) 0.0001(6)
C11 0.0235(8) 0.0202(8) 0.0167(8) -0.0012(6) 0.0013(6) -0.0011(6)
C12 0.0243(8) 0.0256(8) 0.0145(7) 0.0032(6) 0.0011(6) -0.0006(6)
C13 0.0222(8) 0.0173(7) 0.0205(8) 0.0042(6) 0.0013(6) -0.0006(6)
C14 0.0215(7) 0.0154(7) 0.0164(7) 0.0003(6) 0.0011(6) 0.0008(6)
C15 0.0139(7) 0.0174(7) 0.0146(7) 0.0018(6) 0.0012(5) 0.0013(5)
N2 0.0179(6) 0.0123(6) 0.0150(6) 0.0027(5) 0.0020(5) 0.0013(5)
C16 0.0176(7) 0.0195(8) 0.0217(8) 0.0028(6) 0.0002(6) -0.0005(6)
C17 0.0179(7) 0.0182(8) 0.0237(8) 0.0007(7) 0.0016(6) 0.0016(6)
loop_
_atom_type_symbol
_atom_type_description
_atom_type_scat_dispersion_real
_atom_type_scat_dispersion_imag
_atom_type_scat_source
C C 0.0033 0.0016 'International Tables Vol C Tables 4.2.6.8 and 6.1.1.4'
H H 0.0000 0.0000 'International Tables Vol C Tables 4.2.6.8 and 6.1.1.4'
N N 0.0061 0.0033 'International Tables Vol C Tables 4.2.6.8 and 6.1.1.4'
Al Al 0.0645 0.0514 'International Tables Vol C Tables 4.2.6.8 and 6.1.1.4'
S S 0.1246 0.1234 'International Tables Vol C Tables 4.2.6.8 and 6.1.1.4'
loop_
_geom_angle_atom_site_label_1
_geom_angle_atom_site_label_2
_geom_angle_atom_site_label_3
_geom_angle
C9 C1 C2 123.53(14)
C9 C1 H1 118.2
C2 C1 H1 118.2
N2 Al1 N1 94.79(6)
N2 Al1 C16 111.16(6)
N1 Al1 C16 111.26(7)
N2 Al1 C17 108.76(6)
N1 Al1 C17 110.46(7)
C16 Al1 C17 117.96(7)
N1 C2 C1 126.48(14)
N1 C2 S1 113.12(12)
C1 C2 S1 120.40(12)
C3 S1 C2 90.72(7)
C4 C3 C8 121.50(15)
C4 C3 S1 128.48(13)
C8 C3 S1 110.02(11)
C3 C4 C5 118.30(16)
C3 C4 H4 120.8
C5 C4 H4 120.8
C4 C5 C6 120.66(15)
C4 C5 H5 119.7
C6 C5 H5 119.7
C7 C6 C5 120.98(15)
C7 C6 H6 119.5
C5 C6 H6 119.5
C6 C7 C8 118.85(15)
C6 C7 H7 120.6
C8 C7 H7 120.6
C7 C8 C3 119.70(14)
C7 C8 N1 126.02(14)
C3 C8 N1 114.28(13)
C2 N1 C8 111.86(12)
C2 N1 Al1 124.26(11)
C8 N1 Al1 123.84(10)
N2 C9 C1 126.23(14)
N2 C9 S2 113.19(11)
C1 C9 S2 120.58(12)
C10 S2 C9 90.72(7)
C11 C10 C15 121.51(14)
C11 C10 S2 128.59(12)
C15 C10 S2 109.90(11)
C12 C11 C10 117.98(15)
C12 C11 H11 121.0
C10 C11 H11 121.0
C11 C12 C13 120.89(15)
C11 C12 H12 119.6
C13 C12 H12 119.6
C14 C13 C12 121.19(15)
C14 C13 H13 119.4
C12 C13 H13 119.4
C13 C14 C15 118.87(14)
C13 C14 H14 120.6
C15 C14 H14 120.6
C14 C15 N2 126.12(14)
C14 C15 C10 119.55(14)
N2 C15 C10 114.32(13)
C9 N2 C15 111.87(12)
C9 N2 Al1 124.35(10)
C15 N2 Al1 123.62(10)
Al1 C16 H16A 109.5
Al1 C16 H16B 109.5
H16A C16 H16B 109.5
Al1 C16 H16C 109.5
H16A C16 H16C 109.5
H16B C16 H16C 109.5
Al1 C17 H17A 109.5
Al1 C17 H17B 109.5
H17A C17 H17B 109.5
Al1 C17 H17C 109.5
H17A C17 H17C 109.5
H17B C17 H17C 109.5
loop_
_geom_bond_atom_site_label_1
_geom_bond_atom_site_label_2
_geom_bond_distance
C1 C9 1.389(2)
C1 C2 1.391(2)
C1 H1 0.9500
Al1 N2 1.9231(13)
Al1 N1 1.9235(14)
Al1 C16 1.9602(16)
Al1 C17 1.9625(16)
C2 N1 1.3502(19)
C2 S1 1.7471(16)
S1 C3 1.7384(16)
C3 C4 1.386(2)
C3 C8 1.398(2)
C4 C5 1.387(2)
C4 H4 0.9500
C5 C6 1.392(3)
C5 H5 0.9500
C6 C7 1.385(2)
C6 H6 0.9500
C7 C8 1.394(2)
C7 H7 0.9500
C8 N1 1.4027(19)
C9 N2 1.3533(19)
C9 S2 1.7446(15)
S2 C10 1.7387(16)
C10 C11 1.395(2)
C10 C15 1.403(2)
C11 C12 1.388(2)
C11 H11 0.9500
C12 C13 1.390(2)
C12 H12 0.9500
C13 C14 1.386(2)
C13 H13 0.9500
C14 C15 1.396(2)
C14 H14 0.9500
C15 N2 1.3966(19)
C16 H16A 0.9800
C16 H16B 0.9800
C16 H16C 0.9800
C17 H17A 0.9800
C17 H17B 0.9800
C17 H17C 0.9800
loop_
_geom_torsion_atom_site_label_1
_geom_torsion_atom_site_label_2
_geom_torsion_atom_site_label_3
_geom_torsion_atom_site_label_4
_geom_torsion
C9 C1 C2 N1 1.6(3)
C9 C1 C2 S1 -178.36(12)
N1 C2 S1 C3 -0.10(12)
C1 C2 S1 C3 179.90(13)
C2 S1 C3 C4 179.81(16)
C2 S1 C3 C8 0.10(12)
C8 C3 C4 C5 -0.1(2)
S1 C3 C4 C5 -179.78(12)
C3 C4 C5 C6 0.4(2)
C4 C5 C6 C7 -0.3(3)
C5 C6 C7 C8 -0.1(2)
C6 C7 C8 C3 0.4(2)
C6 C7 C8 N1 179.84(14)
C4 C3 C8 C7 -0.3(2)
S1 C3 C8 C7 179.45(11)
C4 C3 C8 N1 -179.81(14)
S1 C3 C8 N1 -0.08(16)
C1 C2 N1 C8 -179.93(14)
S1 C2 N1 C8 0.07(16)
C1 C2 N1 Al1 2.5(2)
S1 C2 N1 Al1 -177.54(7)
C7 C8 N1 C2 -179.48(14)
C3 C8 N1 C2 0.01(18)
C7 C8 N1 Al1 -1.9(2)
C3 C8 N1 Al1 177.63(10)
C2 C1 C9 N2 -0.4(3)
C2 C1 C9 S2 179.67(12)
N2 C9 S2 C10 0.10(12)
C1 C9 S2 C10 180.00(13)
C9 S2 C10 C11 -179.36(15)
C9 S2 C10 C15 -0.02(11)
C15 C10 C11 C12 -0.3(2)
S2 C10 C11 C12 178.98(12)
C10 C11 C12 C13 0.6(2)
C11 C12 C13 C14 -0.3(2)
C12 C13 C14 C15 -0.3(2)
C13 C14 C15 N2 -179.00(14)
C13 C14 C15 C10 0.6(2)
C11 C10 C15 C14 -0.3(2)
S2 C10 C15 C14 -179.69(11)
C11 C10 C15 N2 179.33(13)
S2 C10 C15 N2 -0.06(16)
C1 C9 N2 C15 179.95(14)
S2 C9 N2 C15 -0.15(16)
C1 C9 N2 Al1 -4.7(2)
S2 C9 N2 Al1 175.24(7)
C14 C15 N2 C9 179.73(14)
C10 C15 N2 C9 0.14(19)
C14 C15 N2 Al1 4.3(2)
C10 C15 N2 Al1 -175.29(10)
