#------------------------------------------------------------------------------
#$Date: 2016-02-16 03:10:39 +0200 (Tue, 16 Feb 2016) $
#$Revision: 176453 $
#$URL: svn://www.crystallography.net/cod/cif/7/03/13/7031394.cif $
#------------------------------------------------------------------------------
#
# This file is available in the Crystallography Open Database (COD),
# http://www.crystallography.net/
#
# All data on this site have been placed in the public domain by the
# contributors.
#
data_7031394
loop_
_publ_author_name
'Southworth, Faye Y.'
'Wilson, Claire'
'Coles, Simon J.'
'Fogg, Andrew M.'
_publ_section_title
;
 Synthesis and characterisation of a new anion exchangeable layered
 hydroxyiodide.
;
_journal_issue                   27
_journal_name_full
'Dalton transactions (Cambridge, England : 2003)'
_journal_page_first              10451
_journal_page_last               10455
_journal_paper_doi               10.1039/c4dt00123k
_journal_volume                  43
_journal_year                    2014
_chemical_formula_sum            'H7.5 I0.5 Lu2 O6.5'
_chemical_formula_weight         524.95
_chemical_name_systematic
;
 ?
;
_space_group_crystal_system      orthorhombic
_space_group_IT_number           57
_space_group_name_Hall           '-P 2c 2b'
_space_group_name_H-M_alt        'P b c m'
_symmetry_space_group_name_Hall  '-P 2c 2b'
_symmetry_space_group_name_H-M   'P b c m'
_audit_creation_method           SHELXL-2012
_cell_angle_alpha                90
_cell_angle_beta                 90
_cell_angle_gamma                90
_cell_formula_units_Z            8
_cell_length_a                   9.399(7)
_cell_length_b                   12.413(9)
_cell_length_c                   13.5909(10)
_cell_measurement_reflns_used    3408
_cell_measurement_temperature    100
_cell_measurement_theta_max      26.8
_cell_measurement_theta_min      2.6
_cell_volume                     1585.6(17)
_computing_structure_refinement  'SHELXL-2012 (Sheldrick, 2012)'
_diffrn_ambient_temperature      100(2)
_diffrn_detector                 'CCD plate'
_diffrn_detector_area_resol_mean 28.5714
_diffrn_detector_type            'Rigaku Saturn724+ (2x2 bin mode)'
_diffrn_measured_fraction_theta_full 0.910
_diffrn_measured_fraction_theta_max 0.992
_diffrn_measurement_device       'four-circle \k goniometer'
_diffrn_measurement_device_type  CrystalLogic
_diffrn_measurement_method       'profile data from \w-scans'
_diffrn_measurement_specimen_support 'MiTeGen MicroMesh'
_diffrn_radiation_collimation    'Confocal mirrors'
_diffrn_radiation_monochromator  'double crystal silicon'
_diffrn_radiation_wavelength     0.68890
_diffrn_reflns_av_R_equivalents  0.1397
_diffrn_reflns_av_unetI/netI     0.1226
_diffrn_reflns_Laue_measured_fraction_full 0.910
_diffrn_reflns_Laue_measured_fraction_max 0.992
_diffrn_reflns_limit_h_max       11
_diffrn_reflns_limit_h_min       -12
_diffrn_reflns_limit_k_max       14
_diffrn_reflns_limit_k_min       -16
_diffrn_reflns_limit_l_max       11
_diffrn_reflns_limit_l_min       -17
_diffrn_reflns_number            8292
_diffrn_reflns_point_group_measured_fraction_full 0.910
_diffrn_reflns_point_group_measured_fraction_max 0.992
_diffrn_reflns_theta_full        27.500
_diffrn_reflns_theta_max         26.643
_diffrn_reflns_theta_min         2.635
_diffrn_source                   synchrotron
_diffrn_source_type              'DLS beamline I19'
_exptl_absorpt_coefficient_mu    24.440
_exptl_absorpt_correction_T_max  1.000
_exptl_absorpt_correction_T_min  0.561
_exptl_absorpt_correction_type   multi-scan
_exptl_absorpt_process_details
;
CrystalClear 2.0 r5
;
_exptl_crystal_colour            Colorless
_exptl_crystal_density_diffrn    4.398
_exptl_crystal_description       rod
_exptl_crystal_F_000             1824
_exptl_crystal_size_max          0.06
_exptl_crystal_size_mid          0.01
_exptl_crystal_size_min          0.01
_refine_diff_density_max         9.746
_refine_diff_density_min         -5.078
_refine_diff_density_rms         0.936
_refine_ls_extinction_method     none
_refine_ls_goodness_of_fit_ref   0.988
_refine_ls_hydrogen_treatment    undef
_refine_ls_matrix_type           full
_refine_ls_number_parameters     61
_refine_ls_number_reflns         1898
_refine_ls_number_restraints     0
_refine_ls_restrained_S_all      0.988
_refine_ls_R_factor_all          0.1148
_refine_ls_R_factor_gt           0.0833
_refine_ls_shift/su_max          0.000
_refine_ls_shift/su_mean         0.000
_refine_ls_structure_factor_coef Fsqd
_refine_ls_weighting_details
;
 w=1/[\s^2^(Fo^2^)+(0.1332P)^2^]
 where P=(Fo^2^+2Fc^2^)/3
;
_refine_ls_weighting_scheme      calc
_refine_ls_wR_factor_gt          0.2135
_refine_ls_wR_factor_ref         0.2367
_reflns_Friedel_coverage         0.000
_reflns_number_gt                1173
_reflns_number_total             1898
_reflns_threshold_expression     'I > 2\s(I)'
_cod_data_source_file            c4dt00123k1.cif
_cod_data_source_block           2012ncs0239
_cod_depositor_comments
;
The following automatic conversions were performed:

'_exptl_absorpt_correction_type' value 'Multi-scan' changed to
'multi-scan' according to
/usr/data/users/saulius/crontab/automatic-downloads/rss-feeds/RSC/lib/dictionaries/cif_core.dic
dictionary named 'cif_core.dic' version 2.4.2 from 2011-04-26.

Automatic conversion script
Id: cif_fix_values 2281 2013-09-26 08:29:07Z andrius 
;
_cod_original_formula_sum        'H7.50 I0.50 Lu2 O6.50'
_cod_database_code               7031394
#BEGIN Tags that were not found in dictionaries:
_shelx_space_group_comment
;
The symmetry employed for this shelxl refinement is uniquely defined
by the following loop, which should always be used as a source of
symmetry information in preference to the above space-group names.
They are only intended as comments.
;
_shelxl_version_number           2012-9
_shelx_res_file
;
TITL 2012ncs0239 in Pbc21 New: Pbcm
CELL 0.6889 9.399 12.413 13.5909 90 90 90
ZERR 8 0.007 0.009 0.001 0 0 0
LATT 1
SYMM -X,-Y,0.5+Z
SYMM +X,0.5-Y,-Z
SYMM -X,0.5+Y,0.5-Z

SFAC I Lu O H
DISP I -0.488 1.723 7013.3
DISP Lu -0.34 5.588 22369.1
DISP O 0.01 0.006 29.6
UNIT 4 16 52 60

L.S. 5
PLAN  5
TEMP -173(2)
BOND $H
MORE -1
rem EXTI 0.0000(3)
fmap 2
acta 55
CONF
OMIT 1 0 16
OMIT 0 2 2
REM <HKL>C:/NCS/Fogg/2012ncs0239/2013ncs0239.hkl</HKL>

WGHT    0.133200
FVAR       1.00262
LU1   2    0.592556    0.016398    0.119284    11.00000    0.06988    0.01027 =
         0.01585    0.00162   -0.00109   -0.00203
LU2   2    0.482268    0.250000    0.000000    10.50000    0.06998    0.00705 =
         0.01498   -0.00045    0.00000    0.00000
LU3   2    0.423012    0.251552    0.250000    10.50000    0.06523    0.00907 =
         0.01595    0.00000    0.00000   -0.00052
O1    3    0.727084    0.026928    0.250000    10.50000    0.03460
O2    3    0.665194   -0.159202    0.104634    11.00000    0.03165
O3    3    0.486815   -0.073280    0.250000    10.50000    0.02526
O4    3    0.390484    0.123166    0.128776    11.00000    0.03410
O5    3    0.612660    0.214724    0.142028    11.00000    0.02386
O6    3    0.419759   -0.084127    0.036617    11.00000    0.02431
O7    3    0.834191    0.025766    0.056373    11.00000    0.08053
O8    3    0.175022    0.223519    0.250000    10.50000    0.05506
I2    1    0.005794    0.250000    0.000000    10.25000    0.03097    0.03296 =
         0.10710   -0.00539    0.00000    0.00000
I1    1    0.113239   -0.064334    0.250000    10.25000    0.01628    0.05453 =
         0.12351    0.00000    0.00000   -0.00762
HKLF 4

REM  2012ncs0239 in Pbc21 New: Pbcm
REM R1 =  0.0833 for    1173 Fo > 4sig(Fo)  and  0.1148 for all    1898 data
REM     61 parameters refined using      0 restraints

END

WGHT      0.1332      0.0000

REM Highest difference peak  9.746,  deepest hole -5.078,  1-sigma level  0.936
Q1    1   0.3835  0.2500  0.0000  10.50000  0.05    9.75
Q2    1   0.4958  0.0117  0.1227  11.00000  0.05    8.15
Q3    1   0.1079 -0.0989  0.3029  11.00000  0.05    6.80
Q4    1   0.5358  0.2539  0.2500  10.50000  0.05    6.57
Q5    1   0.3173  0.2548  0.2500  10.50000  0.05    6.14
;
_shelx_res_checksum              78903
_shelx_hkl_file
;
   0   0  -1 62.1500 319.560   1
   0  -1   0 221.460 187.160   1
   0   1   0 78.5400 622.730   1
   0  -1  -1 152.990 120.730   1
   0  -1  -1 141.160 289.660   1
   0   1  -1 -125.02 427.660   1
  -1   0  -1 3.57000 740.570   1
  -1   0   1 -61.690 664.300   1
  -1   0  -1 -10.700 664.770   1
  -1  -1   0 15194.6 577.550   1
  -1   1   0 9160.78 1117.63   1
  -1  -1   0 7817.49 1257.34   1
   0   0   2 1124.13 814.140   1
   0   0  -2 794.100 497.480   1
   0   0  -2 1674.69 1106.97   1
  -1  -1   1 13585.4 884.040   1
  -1  -1  -1 11809.0 1006.44   1
  -1   1  -1 13142.9 1084.80   1
   1  -1  -1 14190.2 477.900   1
  -1   1   1 16868.2 2237.66   1
   0  -2   0 636.550 192.410   1
   0   2   0 565.180 1087.22   1
   0   1  -2 749.780 832.830   1
   0  -1  -2 226.940 476.790   1
   0  -1   2 485.830 528.560   1
   0   1  -2 234.940 304.570   1
   0  -1  -2 -31.200 390.820   1
   0  -2  -1 793.540 753.240   1
   0   2  -1 1078.71 907.150   1
  -1   0  -2 1833.09 1480.83   1
  -1   0   2 966.450 716.380   1
   1   0  -2 1468.24 427.870   1
  -1   0  -2 2919.31 1250.69   1
  -1  -2   0 533.220 1095.07   1
  -1   2   0 1700.94 1195.11   1
  -1  -2   0 983.200 549.690   1
  -1  -1   2 4485.59 979.300   1
  -1  -1  -2 4005.59 1242.59   1
  -1   1  -2 5084.94 997.930   1
  -1   1   2 4651.09 917.860   1
   1  -1  -2 5146.91 311.480   1
  -1  -1   2 5030.44 171.270   1
  -1  -1  -2 6886.03 750.030   1
   1   1  -2 5903.23 338.370   1
  -1   2  -1 15498.0 933.520   1
  -1  -2   1 13289.3 1264.82   1
  -1  -2  -1 13555.2 1088.02   1
  -1   2   1 16576.7 2725.32   1
   1  -2  -1 15284.7 531.120   1
  -1  -2   1 16399.4 430.620   1
  -1  -2  -1 18614.2 760.590   1
   0   2  -2 13543.1 955.450   1
   0   0  -3 92.2500 227.970   1
   0   0  -3 -38.850 591.070   1
  -2   0   1 71.9500 1296.39   1
  -2   0  -1 -9.7900 1202.03   1
  -2   1   0 68303.9 1892.65   1
  -2  -1   0 60632.5 2271.90   1
   0  -1  -3 482.230 799.140   1
   0   1  -3 -83.250 270.680   1
   0  -1   3 -24.940 192.930   1
   0  -1  -3 -26.970 525.250   1
   0   1  -3 -151.01 773.870   1
  -2  -1   1 168229. 13439.5   1
  -2   1   1 158287. 3292.40   1
  -2  -1  -1 164814. 3835.48   1
  -2   1  -1 160316. 2413.48   1
   0  -3   0 128.130 184.830   1
   1  -2  -2 18195.3 543.470   1
  -1  -2  -2 15485.9 1006.69   1
  -1   2   2 20823.9 1402.86   1
  -1   2  -2 20029.1 1456.87   1
  -1   0  -3 -53.140 821.080   1
   1   0  -3 104.770 380.270   1
  -1   0  -3 48.2000 1047.85   1
  -1   0   3 234.080 291.750   1
   0   3  -1 -46.020 1075.07   1
   0  -3  -1 154.960 188.900   1
  -1   1   3 88790.8 1592.71   1
  -1   1  -3 94737.0 2015.87   1
  -1  -1   3 96123.2 1542.45   1
  -2   0  -2 47044.7 2005.42   1
  -2   0   2 53633.8 2099.54   1
   2   0  -2 53869.9 732.680   1
  -1  -3   0 109278. 1987.66   1
  -1   3   0 119143. 2597.34   1
  -2  -2   0 75084.7 2897.95   1
  -2   2   0 75318.1 2920.91   1
  -2  -2   0 76071.8 1475.69   1
  -2   1  -2 26057.7 1904.98   1
  -2   1   2 25483.9 1462.47   1
  -2  -1  -2 25799.8 1589.71   1
  -2  -1   2 24804.8 1547.12   1
   2  -1  -2 27251.0 621.220   1
   0  -2  -3 29168.6 1278.26   1
   0   2  -3 36384.6 1242.47   1
   0  -2  -3 35869.3 849.620   1
  -1  -3  -1 30510.5 740.020   1
   1  -3  -1 27148.9 673.460   1
  -1   3   1 28186.2 1841.66   1
  -1  -3  -1 24758.4 1680.10   1
  -1  -3   1 30213.1 1486.17   1
  -1  -3   1 28605.9 542.810   1
  -1   3  -1 28046.4 2180.38   1
  -2  -2  -1 682.040 877.550   1
  -2  -2   1 689.770 594.430   1
  -2   2   1 977.300 2030.19   1
  -2  -2  -1 -273.49 1308.05   1
  -2  -2   1 -97.250 1352.85   1
  -2   2  -1 -273.42 1391.33   1
   0  -3  -2 181.700 1303.28   1
   0   3  -2 -192.23 1035.56   1
   0  -3  -2 -90.730 506.070   1
  -1   2   3 88.5800 614.740   1
   1  -2  -3 -178.77 447.610   1
  -1  -2  -3 733.480 799.520   1
  -1  -2   3 130.690 186.680   1
  -1   2  -3 538.870 1063.56   1
  -1  -2  -3 -216.78 1101.58   1
   0   0  -4 42537.2 887.390   1
   0   0  -4 37886.0 1924.22   1
  -1  -3  -2 23810.0 948.820   1
   1  -3  -2 21623.6 654.870   1
  -1   3  -2 21056.6 1456.60   1
  -1  -3   2 21003.5 277.960   1
  -1  -3   2 23438.7 1249.05   1
  -1  -3  -2 23291.1 1492.23   1
  -1   3   2 22995.1 3681.17   1
  -2  -2  -2 38198.2 1511.94   1
  -2  -2  -2 38066.2 2157.27   1
   2  -2  -2 36738.7 743.380   1
  -2   2   2 34507.8 1887.70   1
  -2   2  -2 33745.6 1735.28   1
  -2  -2   2 33743.9 3259.39   1
   0   1  -4 -270.34 1266.00   1
   0   1  -4 45.2800 129.070   1
   0  -1   4 43.6800 130.300   1
   0  -1  -4 118.520 734.680   1
   0  -1  -4 82.9100 320.050   1
  -2   0   3 443.900 1174.72   1
   2   0  -3 32.6900 159.310   1
  -2   0  -3 19.8400 2294.07   1
  -2   0  -3 -179.64 1189.61   1
  -1   0   4 35100.4 1474.71   1
   1   0  -4 30280.5 991.400   1
  -1   0  -4 37393.3 1539.29   1
  -1   0  -4 34094.1 1514.39   1
  -2  -1  -3 21425.6 1796.31   1
  -2  -1   3 21518.7 1368.29   1
  -2   1  -3 28870.3 1935.14   1
   2   1  -3 27548.5 481.920   1
   2  -1  -3 24508.7 556.200   1
  -2   1   3 23323.7 2016.91   1
  -2   1  -3 26328.7 1827.77   1
  -3   0   0 5439.16 1894.10   1
  -2   3   0 35270.5 2501.78   1
  -1  -1   4 14087.4 416.800   1
   1  -1  -4 15517.0 642.870   1
  -1   1   4 14294.8 1048.88   1
  -1  -1  -4 11011.8 1180.50   1
  -1   1  -4 13757.7 1175.07   1
   0   3  -3 -120.13 898.590   1
   0  -3  -3 -375.65 1160.92   1
   0  -3  -3 367.390 733.110   1
  -3   0  -1 424.620 1888.04   1
  -3   0   1 -293.37 1617.33   1
  -3  -1   0 17985.9 2173.26   1
  -3   1   0 18396.4 2080.32   1
  -2   3   1 61006.5 2559.93   1
  -2  -3  -1 62490.7 1639.27   1
  -2  -3  -1 60608.9 2137.84   1
  -2  -3   1 60974.9 1793.37   1
  -2  -3   1 62320.6 1949.36   1
  -2   3  -1 63587.2 2574.39   1
   0  -4  -1 528.220 651.730   1
   0  -4   1 405.390 608.140   1
  -3   1   1 15269.9 2120.76   1
  -3  -1  -1 13454.6 1569.91   1
  -3  -1   1 13620.7 1706.63   1
  -3   1  -1 16368.2 2207.38   1
  -3  -1  -1 19712.8 2402.68   1
  -1  -3  -3 29215.0 1758.10   1
  -1   3  -3 27743.6 1365.09   1
  -1  -3  -3 30671.3 1143.49   1
  -1  -3   3 30357.2 1106.36   1
  -1   3   3 27138.7 1717.49   1
   1  -3  -3 26586.7 731.980   1
   2  -2  -3 8064.14 1437.82   1
  -2  -2  -3 7301.18 1136.89   1
  -2  -2   3 6542.16 1040.00   1
  -2   2  -3 7426.64 1410.08   1
  -2   2   3 7697.76 1686.35   1
  -2  -2  -3 11045.8 1664.97   1
  -1  -4   1 27092.6 561.880   1
  -1  -4  -1 30298.0 1591.04   1
  -1   4   1 25235.9 1572.06   1
  -1   4  -1 28151.2 1998.63   1
  -1  -4   1 36378.3 2069.62   1
  -1  -4  -1 33864.3 4367.15   1
   1  -4  -1 28189.0 752.550   1
  -3   0  -2 73.9900 1540.29   1
  -3   0   2 -775.78 1362.92   1
  -3   0  -2 843.250 1254.44   1
   2  -3  -2 509.160 629.230   1
  -2  -3  -2 1038.08 825.020   1
  -2   3  -2 1439.18 2003.35   1
  -2  -3   2 621.020 997.870   1
  -2  -3  -2 -164.38 1264.69   1
  -2   3   2 2101.71 2431.57   1
  -2  -3   2 330.980 266.580   1
   0   4  -2 8410.81 1456.57   1
   0  -4  -2 8348.69 1088.78   1
  -3  -2   0 6535.14 1405.63   1
  -3   2   0 8059.86 1828.96   1
  -3  -2   0 9655.44 4354.14   1
  -3   1  -2 16940.1 2521.90   1
  -3   1   2 14094.3 1860.34   1
  -3  -1  -2 13135.0 2015.24   1
  -3  -1   2 13144.1 1708.68   1
  -3  -1  -2 14855.9 2232.78   1
  -2   0  -4 72094.2 1844.02   1
  -2   0  -4 75787.4 2958.40   1
  -3  -2  -1 6902.32 1694.78   1
  -3   2   1 5901.88 1791.24   1
  -3  -2  -1 4876.50 2210.41   1
  -3  -2   1 5376.39 1863.30   1
  -3   2  -1 6240.95 1615.01   1
   0   0  -5 -293.96 955.660   1
   0   0  -5 94.6700 311.250   1
  -1  -4  -2 10097.3 6739.99   1
  -1   4   2 5213.12 3826.17   1
  -1  -4   2 4870.20 224.980   1
   1  -4  -2 4045.00 504.290   1
  -1  -4  -2 2932.01 541.000   1
  -1   4  -2 5862.73 4613.88   1
  -1  -4   2 9556.61 3987.54   1
  -2  -1   4 74153.9 1841.96   1
  -2   1  -4 70486.8 2138.97   1
  -2   1   4 71116.1 2261.44   1
   2   1  -4 80830.1 1233.60   1
   2  -1  -4 73751.6 993.750   1
   0  -1  -5 271.250 954.340   1
   0   1  -5 -217.25 1140.85   1
   0  -1  -5 -98.230 530.940   1
   0   1  -5 3.45000 184.250   1
   0  -3  -4 -70.270 670.070   1
   0   3  -4 317.590 447.740   1
   0  -3  -4 -295.05 1039.49   1
  -1   0  -5 91.7900 660.280   1
  -1   0  -5 -178.76 1112.80   1
   1   0  -5 -49.090 754.790   1
  -2   4   0 312202. 24589.2   1
  -2  -4   0 283237. 22537.4   1
  -3  -2  -2 7275.96 2328.66   1
  -3   2  -2 10284.0 2119.46   1
  -3  -2   2 6183.30 1425.11   1
  -3  -2  -2 14243.9 2164.31   1
  -3   2   2 9638.71 2049.90   1
   3   0  -3 43.2800 156.850   1
  -3   0   3 -104.57 1015.36   1
  -3   0  -3 -867.94 2137.86   1
  -3   0  -3 -371.26 1282.48   1
  -2   3   3 55472.1 4294.98   1
   2  -3  -3 55440.8 906.190   1
  -2  -3   3 46184.5 1977.28   1
  -2   3  -3 50839.7 1948.11   1
   0  -4  -3 62646.3 1278.58   1
   0  -4  -3 88466.2 5276.96   1
   0   4  -3 70190.4 1858.22   1
  -1   1  -5 25394.5 1341.37   1
   1  -1  -5 21491.2 1463.13   1
  -1  -1  -5 27845.4 1599.85   1
   1   1  -5 29587.3 1200.69   1
  -1  -1  -5 22193.9 1244.99   1
  -2  -4   1 -15.890 374.160   1
   2  -4  -1 235.510 356.730   1
  -2   4  -1 -327.06 1697.97   1
  -2  -4   1 602.170 1238.47   1
  -2  -4  -1 1078.97 1259.62   1
  -2   4   1 318.460 2173.33   1
  -2  -4  -1 365.100 828.200   1
  -1  -3  -4 41798.5 1551.94   1
  -1  -3   4 41442.9 926.380   1
   1  -3  -4 47213.7 1703.41   1
  -1   3  -4 45744.9 1507.71   1
  -1   3   4 46117.0 1888.25   1
  -3  -1  -3 140649. 2960.75   1
  -3  -1   3 138397. 2850.52   1
  -3   1  -3 171107. 13771.5   1
  -3   1   3 148930. 3775.61   1
   3   1  -3 146910. 1122.99   1
   3  -1  -3 151079. 1611.98   1
   2   2  -4 467781. 36754.5   1
  -2  -2   4 288124. 22747.3   1
  -2  -2  -4 308184. 24071.2   1
  -2   2  -4 331417. 26075.0   1
  -2   2   4 341259. 26669.9   1
  -3  -3   0 238112. 18894.4   1
  -3   3   0 223203. 17862.3   1
  -3  -3   0 394827. 34390.6   1
   0   2  -5 31419.8 864.840   1
   0  -2  -5 30376.8 1713.37   1
   0   2  -5 40620.6 1729.60   1
   0  -2  -5 38405.5 1416.32   1
   0  -5   0 -169.49 423.120   1
   1  -4  -3 1650.28 1572.87   1
  -1   4  -3 1387.99 1390.53   1
  -1  -4  -3 284.010 771.500   1
  -1  -4   3 -496.11 1098.96   1
  -1  -4  -3 2388.31 1133.92   1
  -1   4   3 1598.70 1656.18   1
  -3   3   1 48059.7 2888.69   1
  -3   3  -1 47394.5 2854.63   1
  -3  -3  -1 63118.2 2398.46   1
   0  -5  -1 -373.56 1750.05   1
   0  -5   1 72.9400 416.660   1
   0  -5  -1 -151.90 481.750   1
  -2  -4   2 49501.3 4484.31   1
  -2   4  -2 36154.5 2106.75   1
  -2   4   2 34702.0 2015.60   1
   2  -4  -2 37632.4 1063.82   1
  -2  -4  -2 34944.8 1575.36   1
  -2  -4   2 35125.4 783.630   1
  -2  -4  -2 42195.2 2707.18   1
   1  -2  -5 17984.6 1076.98   1
  -1   2  -5 13712.3 893.640   1
  -1  -2  -5 9958.00 1296.44   1
  -1   5   0 19421.5 2091.22   1
  -1  -5   0 21602.7 1917.22   1
   1  -5   0 19404.4 742.750   1
  -1  -5   0 18496.8 575.010   1
  -3  -2   3 2376.83 1183.55   1
  -3  -2  -3 3260.55 1642.36   1
  -3   2  -3 3521.34 1731.88   1
  -3   2   3 3650.65 1945.60   1
   3  -2  -3 3642.58 712.060   1
  -3  -2  -3 6892.97 2775.09   1
  -1  -5  -1 66613.7 2183.96   1
  -1  -5   1 61242.4 888.150   1
   1  -5  -1 60298.3 945.660   1
  -1   5  -1 62639.6 4826.83   1
  -1  -5  -1 65345.8 3803.63   1
  -1  -5   1 54159.0 1972.66   1
  -1   5   1 62306.4 2861.19   1
  -2   0  -5 -762.43 1668.52   1
   2   0  -5 138.630 483.390   1
  -2   0   5 -127.13 585.580   1
  -2   0  -5 177.630 1020.39   1
  -4   0   0 71292.6 3184.02   1
  -3  -3  -2 22825.6 1830.33   1
  -3  -3   2 25896.1 1989.32   1
  -3   3   2 22168.3 1993.35   1
   3  -3  -2 25621.6 1056.99   1
  -3  -3  -2 18861.6 2989.84   1
  -3   3  -2 23122.6 1798.27   1
   0  -5  -2 75.9200 257.550   1
   0  -5  -2 558.850 1129.07   1
  -4   0  -1 -317.64 1740.54   1
  -4   0   1 -488.84 1809.19   1
  -2   1   5 37584.4 1593.87   1
  -2  -1  -5 55143.2 2743.16   1
  -2  -1   5 38524.9 1159.83   1
  -2   1  -5 55474.7 3554.99   1
  -2  -1  -5 36618.2 1594.01   1
   2  -1  -5 45788.6 999.580   1
  -2   1  -5 36349.0 1677.15   1
  -4  -1   0 36944.5 2501.39   1
  -4   1   0 33370.0 3328.08   1
  -3   0  -4 106575. 2609.15   1
  -3   0   4 113808. 2508.14   1
   3   0  -4 111543. 1252.12   1
  -3   0  -4 104725. 5123.63   1
  -2  -3  -4 6367.59 3375.55   1
  -2   3   4 11781.2 1562.36   1
   2  -3  -4 14408.2 696.670   1
  -2   3  -4 12144.5 1813.18   1
   0   4  -4 28209.7 1336.34   1
   0  -4  -4 23678.3 1142.39   1
  -4  -1   1 27580.6 2219.08   1
  -4   1  -1 32802.8 3191.06   1
  -4   1   1 28947.8 2298.91   1
  -4  -1  -1 29468.2 3151.63   1
   0  -3  -5 -49.840 895.360   1
   0   3  -5 -22.970 542.060   1
   0  -3  -5 -50.050 861.620   1
   0   0  -6 27218.0 1563.28   1
   0   0  -6 24573.3 833.250   1
  -3  -1  -4 64173.5 2689.54   1
  -3  -1   4 68830.2 2219.16   1
   3   1  -4 80533.8 1169.89   1
  -3   1  -4 76086.3 4721.28   1
  -3   1   4 70688.2 2108.93   1
   3  -1  -4 74729.4 955.640   1
  -3   1  -4 72316.3 2665.35   1
  -1   5   2 6148.27 5345.53   1
  -1   5  -2 5059.01 4219.08   1
  -1  -5  -2 3201.07 2660.87   1
  -1  -5   2 1695.91 1335.10   1
   1  -5  -2 3778.91 1080.21   1
  -1  -5   2 3468.84 410.420   1
  -1  -5  -2 4888.16 1605.60   1
  -2  -4   3 2502.95 1926.58   1
  -2   4  -3 2422.20 1547.93   1
  -2   4   3 3376.31 2608.01   1
   2  -4  -3 2738.98 837.890   1
  -2  -4   3 3018.11 222.220   1
  -2  -4  -3 2564.86 2793.89   1
  -2  -4  -3 3610.17 948.330   1
   0   1  -6 -19.570 186.380   1
   0   1  -6 -181.11 1257.06   1
   0  -1  -6 99.8200 975.990   1
   0  -1  -6 213.390 473.640   1
  -1   4  -4 381.630 576.870   1
  -1  -4  -4 705.840 1212.75   1
  -1  -4  -4 605.040 1020.46   1
  -1  -4   4 152.680 666.000   1
   1  -4  -4 867.130 935.540   1
  -1   4   4 733.880 684.330   1
  -4   0   2 125898. 4466.10   1
  -4   0  -2 123519. 3423.82   1
  -1   3  -5 10171.3 2252.68   1
  -1  -3  -5 10710.4 1471.50   1
   1  -3  -5 9822.18 799.030   1
  -1  -3   5 9853.15 1179.18   1
  -1  -3  -5 6894.02 1293.90   1
  -3   4   0 12326.4 2243.75   1
  -3  -4   0 11704.8 5043.91   1
  -3  -4   0 15958.1 2188.93   1
  -1   0  -6 3439.15 819.290   1
   1   0  -6 3783.68 913.240   1
  -1   0  -6 4448.82 1371.01   1
   1   0  -6 4695.53 2010.92   1
  -2  -2  -5 7098.43 2194.41   1
  -2  -2   5 4283.44 796.200   1
   2  -2  -5 4735.92 688.470   1
  -2   2   5 4565.28 1732.92   1
  -2  -2  -5 5295.20 3939.75   1
  -2   2  -5 4670.22 1388.95   1
   2   2  -5 6724.11 777.920   1
  -4   2   0 175513. 14648.8   1
  -4  -2   0 196435. 16140.5   1
  -2  -5   0 793.890 958.330   1
  -2   5   0 333.610 705.960   1
  -2  -5   0 164.570 531.510   1
  -3  -3  -3 116493. 3275.50   1
  -3   3   3 118889. 10495.5   1
   3  -3  -3 110612. 1974.35   1
  -3   3  -3 107142. 3785.57   1
  -3  -3  -3 97881.4 3008.11   1
  -3  -3   3 103784. 2433.87   1
  -4  -1  -2 6477.34 2845.73   1
  -4   1   2 16384.2 2487.11   1
  -4   1  -2 15938.9 3033.19   1
  -4  -1   2 14020.3 2493.73   1
  -4  -1  -2 15307.8 2408.00   1
   0  -5  -3 1040.42 1339.95   1
   0  -5  -3 174.260 374.560   1
  -3  -4  -1 7416.66 1269.80   1
  -3   4   1 8946.93 2326.64   1
  -3   4  -1 8216.66 2205.08   1
  -3  -4   1 10158.4 4646.14   1
  -3  -4  -1 9987.91 6694.52   1
  -3  -4   1 6288.11 1517.07   1
  -4   2   1 419.490 1843.43   1
  -4  -2  -1 301.560 1497.69   1
  -4  -2   1 1443.25 1764.99   1
  -4  -2  -1 958.240 1776.76   1
  -4   2  -1 288.770 1623.69   1
  -1   1  -6 17250.8 2294.08   1
   1   1  -6 14564.4 1578.99   1
  -1  -1  -6 15823.7 2577.32   1
   1  -1  -6 7073.01 1066.77   1
  -1  -1  -6 7351.62 2610.77   1
  -1   1  -6 10840.7 2563.16   1
   1  -1  -6 10851.8 1305.12   1
  -2  -5   1 67976.5 5469.40   1
   2  -5  -1 63607.2 5126.52   1
  -2   5   1 65554.0 5788.26   1
  -2  -5   1 64864.4 5537.70   1
  -2  -5  -1 69403.4 6040.76   1
  -2   5  -1 66490.1 5818.22   1
  -2  -5  -1 72168.0 5836.71   1
   3  -2  -4 8413.19 1042.94   1
  -3  -2  -4 12870.3 5043.32   1
  -3   2   4 8032.46 2622.30   1
  -3  -2  -4 5040.80 1412.74   1
   3   2  -4 10056.2 872.440   1
  -3  -2   4 5400.07 1510.70   1
  -3   2  -4 5817.87 1296.60   1
   0  -2  -6 54857.2 4707.87   1
   0   2  -6 49839.8 3951.42   1
   0  -2  -6 43765.2 4063.26   1
   0   2  -6 79193.6 6886.99   1
  -1  -5  -3 42894.7 4152.11   1
  -1  -5  -3 31683.0 3323.38   1
  -1   5   3 30852.1 4844.57   1
   1  -5  -3 30034.3 2513.53   1
  -1  -5   3 31556.1 2501.19   1
  -1   5  -3 33488.2 4020.50   1
  -1  -5   3 33656.2 2936.89   1
  -3  -4  -2 8693.04 1874.56   1
  -3  -4   2 9315.37 1761.87   1
  -3   4  -2 13561.3 2367.86   1
  -3   4   2 14683.0 2046.40   1
  -3  -4  -2 20540.6 3375.61   1
   3  -4  -2 13485.0 1333.05   1
  -4  -2  -2 80524.6 7556.87   1
  -4  -2  -2 79203.7 6846.25   1
  -4  -2   2 74860.4 6327.11   1
  -4   2  -2 77732.8 6663.28   1
  -4   2   2 82390.1 7396.96   1
  -2  -5   2 34452.6 2805.79   1
  -2  -5  -2 32670.6 2801.35   1
  -2   5  -2 33913.5 3220.40   1
  -2   5   2 35502.5 3575.77   1
   2  -5  -2 37294.4 3186.20   1
  -2  -5  -2 41826.3 3851.29   1
  -2  -5   2 39584.8 3535.16   1
  -4   0   3 -201.80 1361.31   1
  -4   0  -3 -623.41 2186.53   1
  -1  -2  -6 3639.44 1389.85   1
   1  -2  -6 2883.39 757.600   1
  -1   2  -6 1116.14 838.940   1
   1  -2  -6 809.400 760.050   1
  -1  -2  -6 354.190 741.920   1
  -1   2  -6 6635.16 1916.10   1
   1   2  -6 5318.98 1034.89   1
   0  -6   0 56851.9 4480.88   1
   0  -6   0 66487.8 5686.45   1
  -2  -4  -4 48876.6 4468.45   1
  -2  -4   4 43540.0 4339.76   1
  -2   4  -4 36876.3 3411.40   1
  -2   4   4 36171.0 3440.85   1
   2  -4  -4 32988.7 2734.78   1
  -2  -4  -4 36672.1 4244.69   1
  -4  -1  -3 24969.9 4065.39   1
  -4  -1  -3 25061.4 3224.86   1
  -4   1  -3 33438.6 3986.74   1
  -4  -1   3 30145.1 3363.54   1
   4  -1  -3 21344.1 1871.35   1
  -4   1   3 26050.0 2929.33   1
  -3   0  -5 -569.93 1339.71   1
  -3   0  -5 -72.260 1961.25   1
  -3   0   5 173.700 1073.33   1
   3   0  -5 39.3200 188.790   1
   2  -3  -5 39028.6 3211.65   1
  -2  -3   5 31634.7 2834.24   1
  -2  -3  -5 32902.4 3147.76   1
  -2  -3  -5 27132.5 4070.15   1
  -2   3  -5 37880.4 3496.47   1
  -2   3   5 34164.1 4230.11   1
   0  -6  -1 13826.0 2427.87   1
   0  -6  -1 29341.6 2430.19   1
   0  -6   1 25856.0 2115.04   1
   0  -4  -5 26106.8 2309.82   1
   0  -4  -5 35777.7 3382.64   1
   0   4  -5 28897.2 2660.99   1
  -4  -3   0 95415.9 8144.31   1
  -4   3   0 100383. 8456.21   1
  -4  -3   0 110549. 9702.05   1
  -2   0  -6 16482.7 1855.00   1
  -2   0   6 18020.1 1923.38   1
   2   0  -6 19629.7 1841.24   1
  -2   0  -6 21099.3 2768.96   1
  -3   1  -5 84746.4 7164.81   1
  -3  -1  -5 79431.3 6933.17   1
  -3   1  -5 82910.2 7752.42   1
  -3  -1  -5 83256.9 7050.84   1
  -3  -1   5 82815.3 6764.94   1
  -3   1   5 80045.4 7214.23   1
   3  -1  -5 79238.0 6245.33   1
   3   1  -5 81236.5 6448.84   1
  -4  -3  -1 41301.1 4962.72   1
  -4   3   1 36005.8 4186.15   1
  -4   3  -1 32285.1 3637.33   1
  -4  -3   1 33957.0 3616.23   1
  -4  -3  -1 37573.7 4223.09   1
  -1  -6   0 1015.58 1418.80   1
  -1   6   0 2211.19 1546.80   1
  -1  -6   0 3036.95 459.830   1
   1  -6   0 1760.68 380.410   1
   2  -1  -6 19437.6 1735.19   1
   2   1  -6 23202.8 2185.97   1
  -2  -1  -6 22529.0 2604.47   1
  -2   1  -6 24777.3 3771.33   1
  -2  -1  -6 25182.7 2644.98   1
  -2   1  -6 20750.5 2085.82   1
  -2  -1   6 21779.9 1858.22   1
  -2   1   6 22976.2 3020.20   1
  -3  -3   4 61327.2 5155.10   1
  -3   3   4 65392.3 5565.02   1
   3  -3  -4 64992.3 5153.56   1
  -3  -3  -4 71378.4 6614.61   1
  -3  -3  -4 61624.8 5362.12   1
  -3   3  -4 69389.8 5956.66   1
   0  -5  -4 -1.2500 423.200   1
   0  -5  -4 -265.15 1221.76   1
  -1   6   1 22475.9 3132.73   1
   1  -6   1 21079.0 1820.86   1
   1  -6  -1 19958.3 1741.23   1
  -1  -6   1 20431.9 1708.04   1
  -1  -6  -1 21363.8 1831.72   1
  -1  -6   1 23224.7 2576.34   1
  -1  -6  -1 21411.8 2595.25   1
  -1   6  -1 22456.2 2660.76   1
   1  -4  -5 4254.59 1054.18   1
  -1  -4   5 573.880 669.600   1
  -1  -4  -5 610.440 980.240   1
  -1   4  -5 2958.03 2912.65   1
  -1  -4  -5 5303.77 1051.89   1
   0  -3  -6 -260.36 948.480   1
   0   3  -6 138.520 271.570   1
   0  -3  -6 18.9400 1072.80   1
  -3   4   3 2187.84 2064.74   1
  -3  -4  -3 3264.42 1847.08   1
   3  -4  -3 1669.11 507.360   1
  -3  -4  -3 1387.57 1366.06   1
  -3  -4   3 1469.80 1739.65   1
  -3   4  -3 1660.16 1490.84   1
   0  -6   2 603.750 558.790   1
   0  -6  -2 218.770 610.030   1
   0  -6  -2 961.330 980.170   1
  -4   2   3 8174.24 2150.49   1
  -4   2  -3 6688.88 1928.51   1
   4  -2  -3 7948.64 1611.54   1
  -4  -2  -3 4168.50 2369.83   1
  -4  -2  -3 8142.50 4470.87   1
  -4  -2   3 6568.28 1729.80   1
  -2   5  -3 89769.8 7697.03   1
  -2  -5  -3 94879.6 7694.80   1
  -2  -5  -3 89438.7 7425.89   1
  -2  -5   3 87084.2 7066.92   1
  -2  -5   3 97850.6 7664.35   1
   2  -5  -3 93980.3 7404.02   1
  -2   5   3 93830.1 7947.60   1
   1  -5  -4 68084.5 5434.40   1
  -1   5  -4 61319.0 5629.84   1
  -1  -5  -4 53015.0 4844.52   1
  -1  -5   4 51718.0 4467.23   1
  -1  -5  -4 69421.2 5684.71   1
  -4  -3  -2 2710.15 1575.91   1
  -4  -3   2 2351.44 1281.58   1
  -4  -3  -2 998.360 1774.18   1
  -4   3  -2 848.350 1749.91   1
  -4   3   2 2357.86 2085.86   1
  -3   2   5 1081.28 1514.93   1
  -3  -2  -5 782.780 1076.19   1
  -3   2  -5 1000.03 1249.20   1
  -3  -2   5 -43.670 704.320   1
  -3  -2  -5 812.190 1497.39   1
   3   2  -5 260.520 305.090   1
   3  -2  -5 384.370 701.360   1
  -3   5   0 208.500 831.420   1
  -3  -5   0 -60.500 1558.18   1
  -3  -5   0 272.860 470.400   1
   1  -3  -6 18131.2 1732.97   1
  -1  -3  -6 23970.8 3170.25   1
  -1   3  -6 24365.5 2682.86   1
  -1  -3   6 19654.0 1606.22   1
   1   3  -6 24230.9 2592.39   1
  -1  -3  -6 22469.1 2479.99   1
   1  -3  -6 35965.5 3376.83   1
   0   0  -7 65.0500 1094.31   1
   0   0  -7 -102.31 444.440   1
   2  -2  -6 25770.4 2304.27   1
  -2  -2  -6 29848.5 3001.01   1
   2   2  -6 32522.4 2835.78   1
  -2   2  -6 33410.3 4197.39   1
  -2   2   6 27961.4 2797.04   1
  -2  -2  -6 30177.1 2968.88   1
  -2   2  -6 30369.8 2761.86   1
  -2  -2   6 27587.2 2275.13   1
  -1  -6  -2 286.440 749.320   1
  -1   6   2 249.920 782.700   1
  -1  -6   2 93.2300 194.460   1
  -1   6  -2 -43.900 1623.81   1
  -1  -6   2 837.910 904.460   1
  -1  -6  -2 598.780 772.190   1
   1  -6  -2 345.600 461.360   1
  -4   0  -4 147865. 12112.2   1
  -4   0  -4 132964. 13428.8   1
   4   0  -4 149128. 11683.9   1
  -4   0   4 153791. 12541.7   1
  -3   5   1 84478.8 7134.37   1
   3  -5  -1 79457.2 6333.36   1
  -3   5  -1 85185.9 7361.68   1
  -3  -5   1 90119.7 7819.88   1
  -3  -5  -1 84552.1 7257.87   1
  -3  -5   1 86962.7 7221.58   1
  -3  -5  -1 90596.7 7716.95   1
   0  -1  -7 26.6400 216.920   1
   0   1  -7 48.0300 1160.97   1
   0  -1  -7 972.370 1178.36   1
   0   1  -7 34.3400 106.970   1
  -4   1  -4 92199.1 7834.09   1
   4  -1  -4 80344.5 6368.34   1
  -4  -1  -4 73812.6 6631.18   1
  -4  -1  -4 75155.7 7697.04   1
   4   1  -4 82652.1 6516.28   1
  -4   1   4 84698.3 7460.18   1
  -4  -1   4 82667.9 7086.13   1
  -1   0  -7 -38.810 1100.43   1
   1   0  -7 239.360 454.900   1
   1   0  -7 81.1600 105.110   1
  -1   0  -7 -126.75 599.590   1
  -2  -6   0 106467. 8709.10   1
  -2   6   0 93283.7 7862.75   1
   2  -6   0 101309. 7977.90   1
  -2  -6   0 80397.6 6592.21   1
   0  -6  -3 58935.9 5197.00   1
   0  -6  -3 64701.2 5207.08   1
  -5   0   0 104310. 9006.42   1
   1   1  -7 60408.3 5168.78   1
   1  -1  -7 48388.4 4057.61   1
  -1  -1  -7 58490.6 5221.81   1
  -1   1  -7 62822.4 5593.63   1
   1  -1  -7 29615.7 2596.28   1
  -1  -1  -7 37579.8 3411.89   1
  -1   1  -7 37356.0 3202.69   1
  -2   6   1 -282.76 1900.52   1
   2  -6  -1 924.120 881.550   1
  -2  -6   1 1669.39 1120.58   1
  -2  -6  -1 1496.92 1392.96   1
  -2  -6  -1 -517.17 1334.78   1
  -2  -6   1 -282.73 1335.28   1
  -2   6  -1 -248.49 1880.82   1
  -2  -4  -5 5951.03 1304.14   1
   2  -4  -5 5912.88 1623.27   1
  -2   4   5 5560.31 2000.70   1
  -2   4  -5 4942.93 1267.78   1
  -2  -4   5 5521.94 1229.37   1
  -2  -4  -5 5646.22 3526.68   1
  -4  -4   0 416.210 1331.44   1
  -4   4   0 100.360 1885.92   1
  -4  -4   0 -30.160 1483.26   1
  -3  -5  -2 7430.23 2051.45   1
  -3  -5   2 7820.30 2559.19   1
  -3   5  -2 8924.27 2363.52   1
  -3   5   2 9730.78 2983.79   1
   3  -5  -2 8271.96 986.540   1
  -3  -5  -2 6437.83 5584.17   1
  -3  -5   2 7237.65 838.500   1
  -4  -3  -3 45326.9 5284.83   1
  -4  -3  -3 50826.7 5087.05   1
   4  -3  -3 47818.6 3847.59   1
  -4   3   3 51013.0 5132.20   1
  -4   3  -3 42410.9 4272.86   1
  -4  -3   3 43176.1 4201.36   1
  -5   0  -1 130.590 1542.64   1
  -5   0   1 -404.96 2183.39   1
  -5  -1   0 28704.3 3920.18   1
  -5   1   0 25763.8 3494.58   1
  -4  -4  -1 189.130 987.200   1
  -4  -4   1 -142.40 1700.35   1
  -4   4  -1 539.150 2027.91   1
  -4   4   1 160.040 2289.20   1
  -4  -4  -1 258.910 1330.26   1
  -4  -4   1 -402.87 857.260   1
   0   2  -7 6970.83 1892.93   1
   0  -2  -7 5136.38 3233.01   1
   0  -2  -7 400.640 630.390   1
   3  -4  -4 25036.2 2135.99   1
  -3  -4  -4 20909.7 2514.31   1
  -3   4   4 26497.0 4478.46   1
  -3   4  -4 26392.2 2876.14   1
  -3  -4   4 26292.0 2506.34   1
  -3  -4  -4 26956.0 3180.49   1
  -1  -6   3 18239.4 1640.95   1
  -1  -6  -3 27096.9 2394.02   1
   1  -6  -3 23876.4 2071.04   1
  -1   6  -3 23498.5 2429.32   1
  -1  -6  -3 13054.4 2194.86   1
   4   2  -4 950.190 400.700   1
   4  -2  -4 850.120 614.500   1
  -4   2   4 1056.33 2468.92   1
  -4  -2   4 -637.99 1371.89   1
  -4  -2  -4 259.700 1595.64   1
  -4   2  -4 841.520 1554.88   1
  -4  -2  -4 2473.41 2729.56   1
  -2  -5   4 226332. 15488.6   1
  -2  -5  -4 201640. 16020.1   1
  -2   5   4 221716. 17659.9   1
  -2   5  -4 199287. 16104.0   1
   2  -5  -4 227380. 15476.3   1
  -2  -5  -4 251837. 17462.9   1
  -5   1  -1 4490.64 1760.03   1
  -5   1   1 4125.43 2048.83   1
  -5  -1   1 4461.38 1600.82   1
  -5  -1  -1 3789.38 1942.29   1
  -3  -3  -5 59899.7 5663.34   1
   3  -3  -5 52543.1 4217.31   1
  -3   3   5 52698.7 6617.97   1
  -3   3  -5 48955.2 4295.59   1
  -3  -3   5 48579.7 4172.53   1
  -3  -3  -5 50757.2 4571.56   1
  -3   0   6 4080.95 1292.65   1
  -3   0  -6 3110.47 1011.78   1
  -3   0  -6 11271.0 3628.61   1
   3   0  -6 6599.04 812.310   1
   0  -5  -5 355.590 862.310   1
   0  -5  -5 337.710 459.390   1
  -2   3  -6 8823.65 1518.56   1
   2  -3  -6 8954.91 1050.69   1
  -2  -3  -6 10299.5 2412.92   1
   2   3  -6 10739.4 1421.50   1
  -2   3   6 8842.56 2615.31   1
  -2  -3   6 5634.21 764.180   1
  -2  -3  -6 5507.48 1030.78   1
   0  -4  -6 2167.77 1669.61   1
   0  -4  -6 1489.96 932.910   1
  -2  -6   2 16224.6 1405.83   1
  -2  -6  -2 21321.0 4227.98   1
  -2   6  -2 16825.1 2441.73   1
  -2   6   2 15431.1 2187.95   1
   2  -6  -2 12342.1 1213.09   1
  -2  -6  -2 15906.6 1639.90   1
  -2  -6   2 22075.0 2490.25   1
  -1  -2  -7 7303.56 1165.28   1
  -1   2  -7 7580.58 1125.39   1
   1  -2  -7 11043.2 1301.33   1
   1  -2  -7 6917.24 1012.32   1
  -1  -2  -7 8463.84 1819.62   1
   1   2  -7 9962.61 1672.05   1
  -1   2  -7 8823.45 1615.24   1
  -3  -1  -6 12111.6 2115.22   1
  -3   1  -6 12311.6 3094.84   1
  -3  -1  -6 12078.4 2597.23   1
   3   1  -6 12255.9 1399.07   1
   3  -1  -6 12230.7 1244.21   1
  -3   1   6 11346.5 1809.91   1
  -3  -1   6 11905.6 1446.72   1
  -3   1  -6 12061.2 1876.87   1
  -5   0  -2 2830.05 2112.82   1
  -5   0   2 1101.54 1808.41   1
  -4   4   2 52530.3 4868.30   1
  -4  -4  -2 83017.5 9823.54   1
  -4  -4   2 67340.1 6755.61   1
  -4   4  -2 56352.8 5463.10   1
  -4  -4  -2 50643.5 4898.78   1
  -1   5  -5 7617.63 1471.93   1
  -1  -5  -5 8227.77 1285.98   1
   1  -5  -5 7092.66 859.960   1
  -1  -5  -5 7182.55 4165.90   1
  -1  -5   5 6460.20 3263.71   1
  -5  -2   0 25286.9 3173.52   1
  -5   2   0 23425.5 3308.66   1
   1  -4  -6 2218.41 799.030   1
   1  -4  -6 13777.0 3931.16   1
  -1  -4  -6 2394.41 1096.18   1
  -1   4  -6 3943.21 913.400   1
  -1  -4   6 6548.18 805.260   1
  -1  -4  -6 6811.74 2291.67   1
  -2   0  -7 136.940 976.000   1
  -2   0  -7 12.6300 1725.18   1
   2   0  -7 66.3500 850.050   1
  -2   0   7 55.4200 480.700   1
  -5   1   2 2272.98 2459.87   1
  -5   1  -2 4019.32 2355.95   1
  -5  -1  -2 2551.65 2710.06   1
  -5  -1   2 1387.83 2021.89   1
  -3  -5   3 56394.6 4472.61   1
  -3   5  -3 70252.8 6201.19   1
   3  -5  -3 63813.9 5127.25   1
  -3  -5   3 63249.3 5407.74   1
  -3  -5  -3 63226.2 5646.78   1
  -3  -5  -3 61648.4 5404.20   1
  -3   5   3 64151.3 5683.24   1
  -5   2  -1 16970.1 2907.80   1
  -5   2   1 15646.3 2607.18   1
  -5  -2  -1 16220.0 3156.42   1
  -5  -2   1 17837.6 3352.03   1
  -4   0  -5 348.000 1647.10   1
  -4   0  -5 269.400 2167.61   1
   4   0  -5 144.180 248.830   1
  -4   0   5 897.930 1436.13   1
  -2  -1  -7 159040. 12702.5   1
  -2   1  -7 244500. 18334.1   1
   2   1  -7 170187. 13810.4   1
  -2  -1  -7 165199. 13409.0   1
  -2   1   7 151528. 11968.2   1
  -2   1  -7 151180. 12077.7   1
   2  -1  -7 153284. 12162.6   1
   0  -7   0 -199.76 433.820   1
   0  -7   0 412.210 1033.27   1
  -3  -2   6 12145.0 1501.41   1
  -3  -2  -6 10906.2 1961.74   1
  -3  -2  -6 16307.7 5085.87   1
   3   2  -6 13300.5 1318.59   1
   3  -2  -6 13886.5 1350.80   1
  -3   2   6 11183.9 1933.43   1
  -3   2  -6 11606.3 2115.03   1
  -4   1  -5 18439.8 2908.77   1
  -4  -1  -5 14931.8 2811.62   1
  -4  -1  -5 21655.7 5027.73   1
   4   1  -5 19386.3 1648.25   1
   4  -1  -5 17747.8 1550.91   1
  -4   1   5 16606.8 2256.78   1
  -4  -1   5 14602.2 2068.48   1
   0  -7   1 -828.69 1643.39   1
   0  -7  -1 -692.75 1865.19   1
   0  -7   1 -8.7600 355.770   1
   0  -7  -1 149.820 603.090   1
   0  -3  -7 103.750 769.080   1
   0  -3  -7 186.230 1195.80   1
   0   3  -7 -356.27 1807.48   1
  -4  -3  -4 31713.2 4359.85   1
  -4   3   4 30579.0 5337.97   1
  -4  -3   4 25194.0 2781.09   1
  -4  -3  -4 33852.0 4904.23   1
   4  -3  -4 27590.4 2321.07   1
  -4   3  -4 25645.3 3225.73   1
  -2  -6   3 10398.6 909.560   1
   2  -6  -3 9258.91 1002.61   1
  -2  -6  -3 10781.3 1445.70   1
  -2   6   3 8604.80 3157.17   1
  -2   6  -3 9642.59 2091.15   1
  -2  -6   3 8185.42 4401.06   1
  -2  -6  -3 7970.12 1988.07   1
  -1  -7   0 80531.6 6745.59   1
  -1   7   0 79182.3 7444.42   1
   1  -7   0 76149.5 6021.49   1
  -1  -7   0 82270.1 6699.90   1
  -5   2   2 80194.0 7223.29   1
  -5   2  -2 81104.6 7266.64   1
  -5  -2  -2 82033.8 8950.38   1
  -5  -2   2 81165.9 7136.12   1
  -5  -2  -2 84284.6 7668.79   1
  -1  -6   4 312584. 21343.0   1
  -1  -6  -4 384043. 26275.7   1
  -1  -6  -4 534592. 36258.2   1
  -1   6  -4 433085. 29588.6   1
  -5   0   3 1121.39 1642.54   1
  -5   0  -3 42.3100 1958.39   1
  -4  -4  -3 9339.93 2293.45   1
  -4   4  -3 15721.0 2941.01   1
  -4  -4  -3 22158.8 4942.60   1
  -4  -4   3 15931.7 2130.66   1
  -4   4   3 15935.3 2508.05   1
   4  -4  -3 16314.5 1577.25   1
  -1  -7   1 31090.3 3059.64   1
  -1  -7  -1 28321.4 3003.65   1
  -1   7  -1 23413.6 3128.67   1
  -1   7   1 21886.9 3145.11   1
   1  -7   1 22318.1 1885.41   1
   1  -7  -1 22509.0 1902.68   1
  -1  -7   1 20851.5 1760.33   1
  -1  -7  -1 21571.4 2511.28   1
  -1  -3  -7 18279.3 1976.84   1
  -1   3  -7 22754.3 2594.55   1
   1  -3  -7 20679.5 2127.06   1
  -1  -3  -7 23713.3 2563.27   1
   1   3  -7 38782.3 4004.89   1
   1  -3  -7 18105.8 2051.62   1
  -3  -6   0 70673.2 6233.54   1
  -3   6   0 62267.9 6143.91   1
  -3  -6   0 65842.1 5435.30   1
  -2   2  -7 1513.86 1846.64   1
  -2  -2  -7 1184.46 1070.12   1
  -2   2  -7 662.680 1157.36   1
   2   2  -7 1030.10 852.680   1
  -2   2   7 705.600 802.370   1
   2  -2  -7 1170.00 1117.58   1
  -2  -2  -7 1348.27 1390.75   1
  -5  -1  -3 -115.02 1985.29   1
  -5  -1   3 -53.150 1838.85   1
  -5   1  -3 -539.06 2550.49   1
  -5   1   3 648.580 1642.77   1
  -5  -1  -3 -1244.3 1380.11   1
   0  -7   2 -12.450 151.150   1
   0  -7   2 -337.86 1658.47   1
   0  -7  -2 -81.440 1584.25   1
   0  -7  -2 376.040 433.600   1
   3  -6  -1 1611.71 1260.76   1
  -3   6  -1 2481.48 1994.83   1
  -3  -6   1 340.560 699.950   1
  -3   6   1 2048.36 2207.87   1
  -3  -6  -1 480.620 1136.63   1
  -3  -6  -1 2224.01 1664.73   1
  -3  -6   1 1685.60 1568.82   1
  -3  -4   5 857.990 857.450   1
  -3  -4  -5 493.310 1806.33   1
  -3  -4  -5 1990.60 1340.00   1
   3  -4  -5 994.050 583.160   1
  -3   4   5 1364.29 1891.70   1
  -3   4  -5 1645.76 1399.63   1
  -5  -3   0 34480.5 3478.97   1
  -5   3   0 34238.9 3996.07   1
  -4  -2  -5 8737.52 5464.29   1
  -4  -2   5 8273.80 1773.14   1
  -4  -2  -5 3997.22 2527.00   1
   4   2  -5 5858.63 845.540   1
   4  -2  -5 6536.17 677.970   1
  -4   2   5 6224.07 1612.33   1
  -4   2  -5 5961.54 1325.88   1
  -2   5   5 40107.5 5226.94   1
  -2   5  -5 37476.4 3136.75   1
  -2  -5  -5 40765.5 5312.64   1
   2  -5  -5 36738.3 2765.66   1
  -2  -5   5 42273.3 3452.42   1
  -2  -5  -5 42032.5 3614.02   1
  -2  -5   5 36967.4 2505.07   1
  -4  -5   0 7901.97 1502.13   1
  -4   5   0 12799.6 7824.49   1
  -4  -5   0 10923.0 1911.78   1
  -2   4   6 10411.4 1582.12   1
  -2  -4   6 15856.4 1621.83   1
  -2   4  -6 11326.9 2100.72   1
  -2  -4  -6 7835.10 1480.50   1
   2  -4  -6 9388.57 1166.31   1
  -2  -4  -6 12711.0 1941.60   1
   0   0  -8 999999. 108112.   1
  -5  -3  -1 920.660 1627.72   1
  -5  -3  -1 2837.38 2116.12   1
  -5  -3   1 3038.44 2111.48   1
  -5   3  -1 2667.14 1443.82   1
  -5   3   1 3211.43 1729.50   1
  -4  -5  -1 20467.8 2859.53   1
  -4  -5   1 19486.8 2374.09   1
  -4   5  -1 19760.9 2831.77   1
  -4   5   1 23083.3 3813.06   1
  -4  -5  -1 17640.7 1965.75   1
  -4  -5   1 22172.6 2414.50   1
  -3  -5  -4 193819. 13451.8   1
   3  -5  -4 162642. 11086.9   1
  -3  -5  -4 135189. 9881.53   1
  -3   5  -4 151883. 10633.9   1
  -3   5   4 165738. 11698.5   1
  -3  -5   4 141137. 10176.1   1
  -1  -7   2 4960.68 585.040   1
   1  -7  -2 5081.61 670.870   1
  -1   7  -2 5743.05 1510.72   1
   1  -7   2 6502.92 2045.26   1
  -1  -7  -2 10385.8 2250.67   1
  -1  -7  -2 5309.55 1060.24   1
  -1  -7   2 9278.15 6241.05   1
   0   1  -8 -165.45 1462.76   1
   0  -1  -8 161.530 229.390   1
   0   1  -8 229.450 224.630   1
   0  -1  -8 8.10000 983.420   1
   3   3  -6 17299.3 1505.14   1
  -3  -3  -6 20276.3 2767.19   1
   3  -3  -6 23847.6 1870.62   1
  -3   3   6 26431.9 2713.05   1
  -3   3  -6 26438.3 2653.11   1
  -3  -3   6 26910.3 2324.88   1
  -3  -3  -6 35284.4 3545.13   1
   0  -5  -6 -50.100 1020.75   1
   0  -5  -6 -312.13 935.390   1
  -3   6   2 3416.81 1967.74   1
   3  -6  -2 2264.42 1245.00   1
  -3  -6   2 797.320 1337.33   1
  -3  -6  -2 1076.20 1801.09   1
  -3   6  -2 837.590 2015.57   1
  -3  -6  -2 3686.92 1014.61   1
  -3  -6   2 3097.46 498.150   1
  -5   2  -3 827.380 2002.37   1
  -5  -2   3 80.7600 1918.79   1
  -5  -2  -3 574.740 1857.84   1
  -5  -2  -3 985.430 2046.10   1
  -5   2   3 522.840 1595.50   1
   1   0  -8 273429. 29575.0   1
  -1   0  -8 428624. 46396.4   1
  -5   3   2 511.400 1911.90   1
  -5  -3  -2 1073.92 1175.42   1
  -5   3  -2 343.370 1787.05   1
  -5  -3  -2 554.850 1295.78   1
  -5  -3   2 743.530 1609.00   1
   2  -7   0 143370. 9765.03   1
  -2   7   0 151944. 13274.9   1
  -2  -7   0 111776. 7980.40   1
  -2  -7   0 183403. 12885.7   1
  -1   1  -8 14067.0 1560.01   1
   1  -1  -8 21281.5 2683.85   1
  -1  -1  -8 20388.9 2639.98   1
   1   1  -8 21028.1 2070.12   1
  -1  -1  -8 11240.9 1394.00   1
  -4   5  -2 15571.5 2827.86   1
  -4   5   2 17422.5 2992.39   1
   4  -5  -2 20486.2 1791.92   1
  -4  -5  -2 9737.67 1693.79   1
  -4  -5   2 23940.6 5580.70   1
  -4  -5  -2 19314.4 2535.67   1
  -4  -5   2 12550.0 1983.69   1
  -2  -6  -4 264396. 28858.3   1
  -2  -6   4 231226. 25210.8   1
  -2   6  -4 233953. 25492.9   1
  -2   6   4 228354. 25021.0   1
   2  -6  -4 244623. 26549.5   1
  -2  -6  -4 270821. 29487.0   1
   0  -7  -3 132.560 683.730   1
   0  -7   3 323.070 871.810   1
   0  -7   3 162.530 317.860   1
   0  -7  -3 45.7300 537.360   1
  -3   0  -7 -95.010 1358.47   1
  -3   0   7 -451.62 617.650   1
   3   0  -7 605.290 747.910   1
  -3   0  -7 143.410 2354.96   1
  -1  -5  -6 151.380 616.520   1
  -1  -5   6 98.0000 338.580   1
   1  -5  -6 550.120 557.120   1
  -1  -5  -6 106.100 992.490   1
   1  -5  -6 -76.050 834.450   1
  -1   5  -6 322.290 581.740   1
  -2   7   1 8820.94 2637.18   1
  -2  -7   1 6066.73 1684.40   1
  -2  -7  -1 6740.81 2650.03   1
   2  -7   1 6023.37 859.250   1
   2  -7  -1 7082.03 845.260   1
  -2  -7   1 7520.53 846.070   1
  -2  -7  -1 6317.26 814.120   1
  -2   7  -1 7210.52 2816.42   1
  -2   3   7 76322.0 5695.10   1
  -2   3  -7 79148.4 5681.18   1
  -2  -3  -7 77238.5 5730.17   1
   2  -3  -7 73583.8 5342.09   1
  -2  -3   7 69765.4 4761.01   1
  -2  -3  -7 80090.5 5855.52   1
   2   3  -7 76174.6 5463.63   1
   0  -6  -5 22595.0 2497.14   1
   0  -6  -5 24897.5 2069.24   1
   0  -4  -7 9749.10 2270.31   1
   0  -4  -7 28298.5 2453.92   1
  -5   0   4 106043. 7809.85   1
   5   0  -4 108441. 7443.36   1
  -5   0  -4 104806. 7932.26   1
  -4   4   4 102148. 8433.70   1
  -4  -4  -4 92925.1 7894.37   1
   4  -4  -4 104968. 7287.63   1
  -4   4  -4 110563. 8442.03   1
  -4  -4   4 145097. 10633.5   1
  -4  -4  -4 162640. 11830.9   1
   0  -2  -8 4635.46 2074.78   1
   0   2  -8 9668.31 3200.28   1
   0  -2  -8 5024.56 1729.44   1
  -3   1  -7 66754.8 5231.38   1
   3  -1  -7 71963.3 5203.67   1
   3   1  -7 79885.6 5714.04   1
  -3  -1  -7 62067.0 4796.83   1
  -3   1   7 69036.8 5707.51   1
  -3  -1  -7 88074.1 7042.66   1
  -3   1  -7 85731.8 7714.80   1
  -3  -1   7 72050.9 5208.98   1
  -4  -3   5 9989.80 1812.59   1
  -4   3  -5 10256.2 1720.40   1
  -4  -3  -5 9117.19 2485.05   1
   4  -3  -5 11020.9 1036.83   1
  -4  -3  -5 10462.8 2877.20   1
  -4   3   5 9315.95 3978.26   1
  -4   0  -6 101453. 7432.90   1
  -4   0  -6 76981.7 7254.87   1
   4   0  -6 93187.9 6704.30   1
  -4   0   6 106296. 7608.19   1
  -5   1   4 31301.4 3273.58   1
  -5  -1   4 37370.5 4719.29   1
  -5  -1  -4 34376.5 4013.59   1
  -5   1  -4 37699.7 4704.70   1
  -5  -1  -4 16564.5 3672.87   1
   5  -1  -4 34328.0 2628.07   1
   5   1  -4 34167.3 2461.13   1
  -1  -7   3 9037.00 763.420   1
  -1   7  -3 9511.79 2265.85   1
  -1  -7  -3 11424.2 3643.13   1
   1  -7  -3 9490.33 1516.63   1
  -1  -7   3 7565.70 5144.52   1
  -1  -7  -3 10722.4 2016.91   1
   1  -6  -5 16803.3 1770.90   1
  -1   6  -5 13983.8 2151.08   1
   1  -6  -5 5721.47 1758.13   1
  -1  -6  -5 6586.88 2197.16   1
  -1  -6   5 8822.28 1725.91   1
  -1  -6  -5 19111.8 2108.05   1
  -1  -4  -7 31014.6 2768.75   1
   1  -4  -7 25877.7 2888.45   1
  -1   4  -7 27055.7 2255.63   1
  -1  -4   7 24014.3 1754.24   1
  -1  -4  -7 23512.0 2158.28   1
   1  -4  -7 25752.7 2183.21   1
  -4  -1   6 5107.54 1103.81   1
  -4   1  -6 7344.56 2369.07   1
  -4  -1  -6 6711.75 1717.05   1
  -4  -1  -6 3742.82 3316.78   1
  -4   1  -6 1785.03 2364.81   1
   4   1  -6 4473.46 674.360   1
   4  -1  -6 4992.06 685.360   1
  -4   1   6 7631.63 2125.61   1
   1   2  -8 1277.10 1228.64   1
  -1  -2  -8 2020.12 1525.83   1
  -1  -2  -8 1140.65 1378.08   1
   1  -2  -8 1290.35 964.340   1
  -1   2  -8 1228.17 601.030   1
   1  -2  -8 1358.02 1051.13   1
  -1   2  -8 1398.69 977.990   1
  -3  -6  -3 -97.750 1257.69   1
  -3  -6   3 -20.650 251.220   1
   3  -6  -3 348.320 465.440   1
  -3   6   3 297.660 804.930   1
  -3   6  -3 -398.54 1825.85   1
  -3  -6   3 -634.24 1136.06   1
  -3  -6  -3 -109.66 1726.95   1
  -2  -7   2 11706.4 4423.95   1
  -2  -7  -2 12796.0 2885.92   1
  -2   7  -2 14207.5 2071.44   1
  -2   7   2 14723.4 2085.69   1
   2  -7  -2 14521.4 1281.72   1
  -2  -7   2 16007.8 1318.96   1
  -2  -7  -2 14947.3 1521.24   1
  -5  -4   0 100203. 7681.02   1
  -5   4   0 93193.0 7467.24   1
  -5  -4   0 85346.3 7527.38   1
  -5  -3  -3 1097.77 1078.05   1
   5  -3  -3 1830.77 1366.54   1
  -5   3   3 3422.16 1770.00   1
  -5   3  -3 2091.91 2101.00   1
  -5  -3   3 1387.97 1357.64   1
  -5  -3  -3 1004.19 2672.43   1
   2   0  -8 206213. 14455.6   1
  -2   0  -8 203597. 13874.8   1
   2   0  -8 363841. 39646.4   1
  -2   0  -8 367881. 40098.8   1
  -4  -5  -3 28308.9 3248.18   1
  -4  -5  -3 32963.7 3552.33   1
  -4  -5   3 31122.0 3018.91   1
  -4   5  -3 32192.7 3703.11   1
  -4   5   3 30211.8 3596.31   1
   4  -5  -3 32741.5 2559.68   1
  -5  -4  -1 16328.1 6629.31   1
  -5  -4   1 17193.4 2597.03   1
  -5   4  -1 15931.8 2863.88   1
  -5   4   1 14694.5 3102.25   1
  -5  -4  -1 9362.93 3089.48   1
  -3   2   7 275.030 678.270   1
  -3  -2   7 282.290 632.140   1
   3   2  -7 -522.69 462.250   1
   3  -2  -7 -23.420 572.430   1
  -3   2  -7 -106.18 1434.90   1
  -3  -2  -7 -362.82 1436.01   1
  -3   2  -7 780.150 1273.38   1
  -3  -2  -7 710.620 1581.73   1
  -5  -2   4 111538. 8210.34   1
   5  -2  -4 113123. 7769.51   1
   5   2  -4 111726. 8092.78   1
  -5   2   4 119448. 9154.93   1
  -5   2  -4 95740.1 7199.91   1
  -5  -2  -4 112237. 8414.52   1
  -2   1  -8 44708.4 4872.58   1
   2  -1  -8 27315.7 2287.66   1
   2   1  -8 29327.0 2655.96   1
  -2   1  -8 26255.2 2627.74   1
  -2  -1  -8 34874.6 3432.49   1
  -2  -1  -8 31386.3 3393.42   1
   2  -1  -8 23578.2 1912.45   1
  -3  -5  -5 26216.0 3613.35   1
  -3  -5  -5 22066.3 2370.17   1
  -3  -5   5 24240.8 2383.81   1
   3  -5  -5 24101.6 1894.77   1
  -3   5   5 25568.4 2804.83   1
  -3   5  -5 24251.9 2649.32   1
  -3  -4  -6 10191.8 1962.81   1
  -3  -4  -6 6023.67 3715.98   1
  -3  -4   6 4669.58 2082.30   1
   3  -4  -6 8013.82 982.760   1
  -3   4   6 7621.57 2409.28   1
  -3   4  -6 7020.81 1674.25   1
  -4   2  -6 22376.0 2605.31   1
  -4  -2   6 28358.4 3019.37   1
  -4  -2  -6 26175.5 3174.45   1
   4  -2  -6 26041.5 2040.70   1
  -4  -2  -6 20439.1 2947.70   1
  -4   2   6 24544.5 2628.82   1
   4   2  -6 22441.1 1727.15   1
   2  -5  -6 9193.01 931.520   1
  -2   5   6 11121.2 2003.37   1
  -2   5  -6 10070.6 1682.36   1
  -2  -5  -6 12202.8 1892.60   1
  -2  -5  -6 18887.4 2750.03   1
  -2  -5   6 14582.1 1590.33   1
   0  -7  -4 -212.69 769.280   1
   0  -7  -4 134.920 1256.41   1
   0  -7   4 -398.07 1264.10   1
   0  -3  -8 135.420 501.000   1
   0  -3  -8 -72.060 1173.15   1
   0   3  -8 -2118.6 1889.75   1
  -6   0   0 67780.4 6722.22   1
  -5  -4  -2 29616.5 4222.84   1
  -5  -4  -2 25893.2 3253.94   1
  -5  -4   2 27596.6 4065.02   1
  -5   4  -2 25123.5 3360.07   1
  -5   4   2 29240.8 3690.13   1
  -2   7   3 61702.8 5666.49   1
  -2  -7  -3 67494.5 5086.01   1
  -2  -7   3 63555.6 4697.60   1
  -2   7  -3 67200.7 5588.54   1
   2  -7  -3 61461.9 4302.86   1
  -2  -7   3 68802.2 4789.56   1
  -2  -7  -3 68581.2 5025.18   1
  -6   0   1 520.870 1781.80   1
  -6   0  -1 811.790 2168.52   1
  -6  -1   0 5461.49 2208.33   1
  -6   1   0 4428.29 2374.58   1
  -2  -6   5 6457.98 530.910   1
  -2  -6  -5 7010.08 1087.73   1
   2  -6  -5 7002.17 847.720   1
  -2   6   5 7651.80 2140.73   1
  -2   6  -5 7133.18 1767.76   1
  -2  -6   5 5645.12 1565.62   1
  -2  -6  -5 5186.36 4897.59   1
  -2  -4  -7 1168.97 1792.11   1
  -2  -4  -7 2493.02 1343.93   1
   2  -4  -7 1956.94 648.700   1
  -2  -4   7 545.770 672.510   1
  -2   4  -7 1688.25 1627.82   1
  -4   6   0 65190.1 5399.42   1
  -4  -6   0 42499.8 3503.80   1
   0  -8   0 520289. 56453.1   1
  -1   7  -4 -881.03 1541.66   1
  -1  -7  -4 -144.16 764.270   1
   1  -7  -4 174.150 307.600   1
  -1  -7   4 -166.96 257.770   1
  -1  -7  -4 -173.26 1778.74   1
  -1  -7   4 203.790 675.870   1
  -1   3  -8 35315.4 3352.44   1
   1   3  -8 45161.5 3770.14   1
  -1  -3  -8 31625.0 2813.15   1
  -1   3  -8 26763.8 2097.53   1
   1  -3  -8 28698.4 2461.44   1
  -1  -3  -8 23758.5 2276.63   1
   1  -3  -8 27724.3 3177.94   1
  -2  -2  -8 27765.3 2605.31   1
  -2   2  -8 28040.5 2429.07   1
  -2   2  -8 23140.6 3423.62   1
   2   2  -8 22040.1 2092.38   1
  -2  -2  -8 22183.5 2606.13   1
   2  -2  -8 20964.1 1935.11   1
  -5   0  -5 1434.38 1828.44   1
  -5   0   5 835.680 1610.70   1
   5   0  -5 66.4700 189.750   1
  -5   0  -5 -676.60 1617.12   1
  -6   1   1 14925.0 2823.79   1
  -6  -1  -1 17141.5 3063.82   1
  -6  -1   1 11152.2 2222.51   1
  -6   1  -1 16304.8 2915.87   1
  -3  -7   0 220103. 23995.3   1
   3  -7   0 206135. 14099.6   1
  -3  -7   0 277065. 30332.8   1
  -3   7   0 210783. 16345.5   1
  -4  -6  -1 2837.52 1767.36   1
  -4  -6   1 1581.44 665.600   1
  -4  -6  -1 1759.96 997.310   1
  -4   6   1 4273.79 2139.22   1
  -4   6  -1 3676.31 1523.41   1
  -4  -6   1 2570.30 1914.75   1
  -4  -4   5 6206.14 2974.09   1
  -4  -4  -5 2371.28 1592.40   1
  -4  -4  -5 7378.68 5617.93   1
  -4   4  -5 4710.93 2144.89   1
  -4   4   5 6347.91 3932.94   1
   4  -4  -5 4780.56 745.620   1
   0  -8   1 26557.4 2711.14   1
   0  -8  -1 46519.2 3308.32   1
   0  -8   1 42118.4 3019.72   1
   0  -8  -1 29347.1 2986.42   1
  -3   6   4 13206.9 3561.90   1
  -3  -6  -4 15531.5 1812.21   1
   3  -6  -4 13517.4 1918.05   1
  -3   6  -4 11133.2 2266.11   1
  -3  -6   4 9942.95 3189.85   1
  -3  -6  -4 9148.14 4039.50   1
  -5  -1  -5 1041.42 3529.39   1
  -5   1  -5 532.180 2056.41   1
   5   1  -5 535.530 301.780   1
  -5  -1   5 476.520 1140.57   1
   5  -1  -5 776.210 515.230   1
  -5   1   5 1562.55 1989.54   1
  -5  -1  -5 979.100 1901.53   1
  -3  -7   1 47623.0 6495.51   1
   3  -7  -1 33110.8 2466.59   1
  -3   7   1 32320.7 3566.63   1
  -3   7  -1 29585.9 3249.20   1
  -3  -7  -1 52157.8 5094.55   1
  -3  -7  -1 25638.9 2254.97   1
  -3  -7   1 26605.6 2271.80   1
   3   3  -7 84741.1 6231.76   1
   3  -3  -7 63128.9 4582.46   1
  -3  -3  -7 57849.2 4958.52   1
  -3  -3   7 65219.6 4748.92   1
  -3  -3  -7 67263.8 5370.47   1
  -3   3   7 60519.7 5459.75   1
  -3   3  -7 59607.5 4735.97   1
  -1  -8   0 262760. 28613.2   1
   0  -5   7 77.0000 358.210   1
   0  -5  -7 -155.08 1081.80   1
   0  -5  -7 432.710 658.960   1
  -5   3   4 17145.0 3690.54   1
  -5  -3   4 14748.5 2423.77   1
  -5  -3  -4 14837.8 2614.29   1
  -5   3  -4 13141.5 3129.91   1
  -5  -3  -4 7404.65 3047.35   1
   5   3  -4 14229.8 1016.84   1
   5  -3  -4 13447.8 1278.42   1
   0  -6  -6 7259.67 924.310   1
   0  -6  -6 14039.1 3022.51   1
   0  -6   6 17489.3 2000.51   1
  -6   0  -2 79694.4 6461.25   1
  -6   0   2 83248.1 7091.03   1
  -4   5   4 103314. 8103.52   1
   4  -5  -4 107416. 7513.54   1
  -4  -5  -4 98944.0 7995.17   1
  -4  -5  -4 98659.1 7401.88   1
  -4  -5   4 106895. 8561.57   1
  -4   5  -4 102726. 8041.82   1
  -1   8  -1 24669.5 3232.06   1
   1  -8   1 23760.6 1808.73   1
  -1  -8   1 24790.9 2148.51   1
  -1  -8  -1 26809.5 2426.57   1
   1  -8  -1 24823.3 1888.64   1
  -1  -8   1 19609.5 2129.18   1
  -1  -8  -1 19642.0 2635.57   1
  -6   2   0 78266.5 6484.33   1
  -6  -2   0 69689.2 5799.50   1
  -4  -3  -6 10660.8 2271.45   1
  -4  -3   6 8808.53 1621.07   1
  -4   3  -6 8470.33 2302.66   1
  -4   3   6 8948.60 5295.62   1
   4  -3  -6 8514.34 1012.94   1
  -4  -3  -6 11017.0 3128.95   1
  -5  -4  -3 -186.24 1706.60   1
  -5  -4   3 67.6400 923.690   1
  -5  -4  -3 108.620 1582.87   1
  -5   4  -3 217.420 1711.02   1
  -5   4   3 1107.96 1563.22   1
   5  -4  -3 95.3600 812.340   1
  -6  -1  -2 6471.97 2701.91   1
  -6   1   2 3943.11 1908.21   1
  -6  -1   2 5219.40 1861.99   1
  -6   1  -2 6701.62 2942.01   1
  -4  -6  -2 74328.7 8513.68   1
  -4   6   2 86031.3 10361.5   1
  -4  -6  -2 90105.4 10284.0   1
  -4  -6   2 108100. 12871.0   1
  -4   6  -2 88045.2 10135.7   1
   4  -6  -2 92906.4 10210.2   1
  -4  -6   2 68041.0 7590.40   1
   0  -8  -2 9040.68 1298.19   1
   0  -8   2 11016.4 1329.44   1
   0  -8  -2 31749.8 4793.69   1
   0  -8   2 34431.2 6325.43   1
   0   0  -9 140.450 339.880   1
   0   0  -9 194.380 1482.62   1
  -1  -5   7 25689.3 3726.86   1
  -1  -5  -7 25493.2 3523.45   1
   1  -5  -7 25506.6 3198.31   1
   1  -5  -7 23040.2 2779.77   1
  -1  -5  -7 25855.0 3388.57   1
  -1   5  -7 27622.5 3577.77   1
  -6   2  -1 314.410 1887.73   1
  -6   2   1 1315.77 1727.93   1
  -6  -2   1 991.140 1882.00   1
  -6  -2  -1 -74.700 1754.97   1
   1  -6  -6 3404.43 741.280   1
   1  -6  -6 3151.61 2941.94   1
  -1   6  -6 4817.50 4150.32   1
  -1  -6   6 3079.15 2096.27   1
  -1  -6  -6 5792.38 1669.11   1
  -1  -6  -6 2832.00 2430.29   1
  -3  -7   2 11246.5 6374.67   1
  -3  -7  -2 15295.5 10333.5   1
  -3  -7  -2 4178.64 883.850   1
   3  -7  -2 8825.78 1186.06   1
  -3  -7   2 4670.92 845.680   1
  -3   7   2 7669.72 2275.35   1
  -3   7  -2 9379.99 2435.05   1
  -5  -2   5 951.990 1293.82   1
   5   2  -5 747.050 395.750   1
  -5  -2  -5 353.890 1701.07   1
  -5  -2  -5 207.770 2121.58   1
   5  -2  -5 1059.19 657.580   1
  -5   2   5 342.810 1574.43   1
  -5   2  -5 216.990 1668.23   1
   0   1  -9 -829.80 1904.67   1
   0  -1  -9 759.240 1421.84   1
   0  -1  -9 296.890 561.520   1
  -5   5   0 31840.7 5000.28   1
  -5  -5   0 9548.10 2959.54   1
  -5  -5   0 33038.8 4701.96   1
  -4   0   7 663.180 1272.44   1
  -4   0  -7 1039.92 2235.10   1
   4   0  -7 -142.41 567.980   1
  -4   0  -7 -272.30 1451.48   1
  -1  -8   2 9002.55 5045.37   1
   1  -8  -2 1027.66 809.320   1
  -1   8  -2 2129.81 1452.39   1
   1  -8   2 2543.90 659.250   1
  -1  -8  -2 240.160 485.110   1
  -1  -8  -2 7074.58 2187.25   1
  -1  -8   2 630.700 586.520   1
   3   0  -8 6327.72 1146.21   1
  -3   0   8 3825.23 3290.36   1
  -3   0  -8 5388.64 2098.36   1
  -3   0  -8 7186.39 3176.60   1
  -1   0  -9 526.620 735.660   1
   1   0  -9 692.500 1261.39   1
  -1   0  -9 -63.530 1565.20   1
  -2   7  -4 3910.62 3386.12   1
  -2  -7  -4 5109.70 2792.46   1
  -2   7   4 3964.21 2527.50   1
  -2  -7  -4 2239.47 1827.65   1
  -2  -7   4 2337.96 536.190   1
   2  -7  -4 1812.14 1098.79   1
  -2  -7   4 4578.55 2756.49   1
   2  -3  -8 70623.6 8021.01   1
  -2  -3  -8 37645.8 4652.88   1
  -2   3  -8 54030.9 6149.42   1
  -2  -3  -8 82023.4 9254.45   1
   2   3  -8 78465.0 8810.17   1
   0  -4  -8 468373. 66780.1   1
  -5   5  -1 -240.51 1819.37   1
  -5  -5   1 1121.20 2133.34   1
  -5  -5  -1 -643.49 1732.01   1
  -5  -5   1 25.0600 1096.31   1
  -5  -5  -1 557.830 1689.80   1
  -5   5   1 27.6400 1070.73   1
  -4  -1  -7 38790.9 5852.79   1
   4   1  -7 31806.8 3866.42   1
   4  -1  -7 33652.7 3863.38   1
  -4   1   7 32736.1 4808.55   1
  -4  -1   7 33875.6 4262.18   1
  -4   1  -7 35689.6 4829.38   1
  -4  -1  -7 29561.5 4560.20   1
   0  -7   5 -221.21 1337.64   1
   0  -7  -5 -38.540 558.030   1
   0  -7  -5 148.930 1043.58   1
  -3  -1   8 34877.9 4132.91   1
  -3  -1  -8 33942.3 4335.73   1
  -3   1   8 38051.7 5026.46   1
   3  -1  -8 40177.7 4749.29   1
  -3  -1  -8 44259.7 5989.06   1
  -3   1  -8 32032.1 4802.53   1
   3   1  -8 38052.1 5429.16   1
  -3   1  -8 36627.7 4544.48   1
  -6  -2  -2 59480.3 7166.86   1
  -6  -2   2 66472.7 8086.14   1
  -6   2  -2 55915.1 6868.03   1
  -6   2   2 50350.7 6681.84   1
  -6   0   3 -400.62 1357.52   1
  -6   0  -3 -639.11 1561.75   1
  -1  -1  -9 5449.91 1493.25   1
   1   1  -9 7430.19 1893.75   1
  -1  -1  -9 2901.17 1536.17   1
  -1   1  -9 4494.28 1102.69   1
   1  -1  -9 1742.62 1588.56   1
   1  -1  -9 5603.59 3807.84   1
  -1   1  -9 7734.86 2514.67   1
  -3  -5   6 2006.97 2124.20   1
  -3  -5  -6 1992.76 1447.12   1
   3  -5  -6 2445.58 2018.08   1
  -3   5  -6 1758.21 1234.76   1
  -3  -5  -6 1809.77 965.570   1
  -3   5   6 2766.80 1889.70   1
   2  -8   0 159954. 17387.8   1
  -2  -8   0 176899. 25390.1   1
  -2  -8   0 167877. 24159.1   1
  -2   8   0 157954. 19079.9   1
   1  -4  -8 261199. 37444.5   1
  -1  -4  -8 515341. 73524.1   1
   1  -4  -8 420691. 60345.6   1
  -1   4  -8 341574. 48714.6   1
  -1  -4  -8 284250. 40653.3   1
  -6   1  -3 33.7600 1706.14   1
  -6  -1  -3 486.410 1674.38   1
  -6  -1   3 -498.26 1764.19   1
  -6   1   3 850.420 2476.60   1
  -4  -6  -3 17407.3 2932.57   1
  -4  -6  -3 10824.9 1981.97   1
   4  -6  -3 15848.3 2001.26   1
  -4   6   3 16069.8 5685.29   1
  -4   6  -3 16027.8 2663.52   1
  -4  -6   3 6503.41 1296.20   1
  -4  -6   3 15131.3 6082.03   1
   0  -8   3 24277.7 2905.77   1
   0  -8  -3 26393.0 3101.75   1
   0  -8  -3 25803.8 3409.17   1
   0  -8   3 30783.3 4188.34   1
   0   2  -9 5841.36 2075.27   1
   0  -2  -9 1999.18 984.390   1
   0  -2  -9 547.740 512.950   1
  -1   7  -5 950.680 1905.24   1
  -1  -7  -5 107.450 1049.22   1
  -1  -7   5 199.840 195.440   1
   1  -7  -5 563.750 504.960   1
  -1  -7  -5 1341.71 1199.03   1
   1  -7  -5 -1008.0 1557.56   1
  -1  -7   5 515.160 787.040   1
  -6  -3   0 21895.0 3613.62   1
  -6   3   0 22312.9 4039.74   1
   2  -8   1 6058.42 981.480   1
  -2  -8  -1 4496.53 4948.42   1
  -2   8  -1 8131.37 3235.10   1
  -2   8   1 6051.67 1647.39   1
  -2  -8  -1 7161.36 1060.91   1
   2  -8  -1 6544.91 991.050   1
  -2  -8   1 8410.54 1682.21   1
  -2  -8   1 3963.87 4105.08   1
  -5   5  -2 -164.49 1767.14   1
  -5  -5  -2 223.650 1460.68   1
  -5  -5  -2 276.560 921.340   1
  -5   5   2 556.790 1409.87   1
  -5  -5   2 1016.79 1811.94   1
  -3   7   3 27364.7 4098.04   1
   3  -7  -3 25121.4 2860.14   1
  -3  -7   3 24154.4 2754.65   1
  -3  -7  -3 32877.8 4565.96   1
  -3  -7  -3 26668.6 3451.12   1
  -3  -7   3 28335.3 5407.66   1
  -3   7  -3 25786.8 4691.52   1
  -3  -6   5 617.440 1068.54   1
  -3   6  -5 125.440 987.080   1
  -3  -6  -5 432.610 779.320   1
  -3  -6  -5 374.090 1070.57   1
   3  -6  -5 180.810 354.920   1
  -3   6   5 -229.33 1785.83   1
  -3   4  -7 5713.20 1580.22   1
   3  -4  -7 3269.23 1343.29   1
  -3  -4  -7 2742.25 1584.79   1
  -3  -4  -7 6996.29 5166.81   1
  -3   4   7 4633.15 3915.12   1
  -3  -4   7 5824.74 1241.47   1
  -6   3   1 3164.01 1581.91   1
  -6   3  -1 3764.74 1651.73   1
  -6  -3   1 3358.72 2091.61   1
  -6  -3  -1 3999.86 1574.54   1
  -4   2  -7 1052.02 1516.06   1
  -4  -2   7 723.240 1211.74   1
  -4  -2  -7 1222.11 1884.35   1
  -4   2   7 1340.61 1049.90   1
   4  -2  -7 1473.60 961.800   1
   4   2  -7 575.460 461.150   1
  -4  -2  -7 1107.05 1412.06   1
   2  -5  -7 67532.5 7454.64   1
  -2  -5  -7 75980.7 8594.31   1
  -2  -5   7 64094.9 7135.09   1
  -2  -5  -7 67509.8 7899.95   1
  -2   5  -7 62188.2 7934.67   1
  -5   4   4 43495.4 6915.75   1
  -5   4  -4 43137.8 5680.10   1
  -5  -4   4 40919.9 5667.13   1
  -5  -4  -4 50203.2 6358.30   1
   5  -4  -4 40286.7 4506.77   1
  -5  -4  -4 22565.9 3809.83   1
  -2  -6  -6 11162.9 1844.33   1
   2  -6  -6 10866.4 2337.22   1
  -2  -6   6 15431.9 4740.41   1
  -2  -6  -6 13320.3 2359.16   1
  -2   6  -6 11107.9 2037.65   1
  -3   2  -8 30279.1 4821.22   1
  -3  -2  -8 37208.7 4948.29   1
   3   2  -8 31135.7 3654.01   1
   3  -2  -8 28989.8 3450.85   1
  -3   2   8 35038.9 4590.23   1
  -3  -2   8 34855.0 3910.24   1
  -3   2  -8 30350.6 3874.78   1
  -3  -2  -8 36684.2 4736.26   1
  -1  -8  -3 18465.8 4732.60   1
  -1  -8   3 18105.1 2148.36   1
  -1  -8  -3 22781.2 2783.24   1
   1  -8   3 17588.8 2099.63   1
   1  -8  -3 20086.5 2439.25   1
  -1   8  -3 20872.2 3536.25   1
  -1  -8   3 14711.7 3274.67   1
   1  -2  -9 1160.81 1001.74   1
  -1  -2  -9 942.990 822.640   1
   1  -2  -9 1100.37 1920.81   1
  -1  -2  -9 721.200 1333.60   1
   1   2  -9 524.720 1668.52   1
  -1   2  -9 533.230 660.540   1
  -1   2  -9 133.230 1563.41   1
  -5  -3  -5 1426.83 2056.80   1
   5  -3  -5 1926.39 1222.46   1
  -5  -3  -5 1911.30 3988.81   1
  -5   3   5 1000.63 1483.73   1
  -5   3  -5 2367.77 2555.59   1
  -5  -3   5 3066.84 1909.10   1
  -5   0  -6 17027.5 3890.21   1
  -5   0  -6 29253.2 4716.17   1
  -5   0   6 30131.7 4230.06   1
   5   0  -6 33124.9 3871.78   1
  -4  -5   5 6821.56 5327.73   1
  -4   5  -5 7562.89 2776.84   1
  -4   5   5 9096.70 5429.93   1
  -4  -5  -5 8218.87 4808.88   1
   4  -5  -5 7302.89 1630.09   1
  -4  -5  -5 6381.27 2539.89   1
  -4  -4  -6 78042.4 9146.08   1
  -4   4  -6 72586.6 8694.74   1
  -4   4   6 73484.2 8767.06   1
   4  -4  -6 62063.2 6872.46   1
  -4  -4  -6 66093.6 8259.92   1
  -4  -4   6 68424.8 7748.82   1
  -6   2  -3 2617.20 1783.26   1
  -6  -2   3 2078.82 1807.45   1
  -6  -2  -3 4027.51 1758.04   1
  -6   2   3 2919.95 1748.32   1
  -2  -8  -2 14271.3 1798.69   1
  -2   8  -2 19401.2 5025.13   1
  -2  -8   2 17357.1 2044.39   1
   2  -8  -2 18094.7 2120.67   1
  -2  -8   2 22883.8 5673.33   1
  -2  -8  -2 23769.8 3164.96   1
  -2   8   2 15660.6 2590.89   1
  -2   0  -9 -248.64 785.240   1
   2   0  -9 -49.640 959.360   1
  -2   0  -9 -601.08 1776.72   1
  -5  -1  -6 -42.160 1607.08   1
  -5   1  -6 -34.630 1023.74   1
  -5  -1  -6 605.120 1713.44   1
  -5  -1   6 68.4500 1292.15   1
  -5   1   6 -982.19 1461.69   1
   5  -1  -6 406.910 488.420   1
   5   1  -6 34.6100 207.870   1
  -6   3  -2 1739.96 2241.54   1
  -6   3   2 568.830 1820.90   1
  -6  -3  -2 624.190 1728.72   1
  -6  -3   2 944.840 1584.55   1
  -6  -3  -2 1046.39 1303.37   1
   2   1  -9 15489.2 2167.48   1
   2  -1  -9 15377.4 2312.00   1
   2  -1  -9 18839.7 2160.30   1
  -2  -1  -9 14571.7 2631.03   1
  -2   1  -9 17904.9 3791.28   1
  -2  -1  -9 17937.8 2704.85   1
  -2   1  -9 18195.0 2676.96   1
  -5  -5  -3 1220.67 1450.92   1
  -5  -5   3 383.290 714.950   1
  -5   5  -3 1530.49 2577.89   1
  -5   5   3 1457.53 1783.40   1
   5  -5  -3 1072.84 608.600   1
  -5  -5  -3 865.950 2045.13   1
  -6   0   4 45025.3 5921.98   1
  -6   0  -4 43003.0 5366.87   1
   6   0  -4 48669.8 5457.15   1
  -2  -4  -8 142151. 15628.0   1
   2  -4  -8 187969. 26903.1   1
  -2   4  -8 178850. 25673.1   1
  -2  -4  -8 200737. 28759.8   1
   0   3  -9 -472.65 1879.43   1
   0  -3  -9 127.570 1214.77   1
   0  -3  -9 313.460 503.580   1
   2  -7  -5 16828.7 2062.01   1
  -2   7   5 16497.2 2941.63   1
  -2  -7   5 15057.8 1664.15   1
  -2   7  -5 19128.7 4196.55   1
  -2  -7  -5 16353.8 2407.65   1
  -2  -7   5 21682.2 4440.32   1
  -2  -7  -5 22633.8 4877.34   1
   0  -6   7 10091.4 1701.65   1
   0  -6  -7 13559.8 4458.81   1
   0  -6  -7 20095.3 2634.32   1
  -4  -7   0 110701. 12351.1   1
  -4  -7   0 113091. 12736.9   1
  -4   7   0 121079. 14131.6   1
   6  -1  -4 2671.02 1723.94   1
  -6  -1  -4 3827.35 2164.32   1
  -6   1  -4 2452.64 1545.32   1
  -6  -1   4 1326.38 1824.33   1
  -6   1   4 3442.24 1907.13   1
  -4  -6  -4 6594.49 4459.01   1
  -4   6   4 7084.41 3952.08   1
  -4  -6   4 5154.67 4208.47   1
  -4  -6  -4 2197.09 989.090   1
   4  -6  -4 5573.08 2099.41   1
  -4   6  -4 8539.04 4400.80   1
   0  -8  -4 10882.2 2354.52   1
   0  -8   4 8940.07 1155.41   1
   0  -8   4 9570.48 1955.61   1
   0  -8  -4 9371.57 2057.03   1
  -5  -2  -6 23568.1 4251.68   1
  -5   2   6 21985.6 3604.64   1
   5  -2  -6 22161.8 2591.76   1
  -5   2  -6 22208.5 3836.98   1
  -5  -2   6 26862.6 3930.61   1
  -5  -2  -6 15043.3 4772.75   1
  -4  -7   1 4165.98 1279.29   1
  -4  -7  -1 4693.43 2885.38   1
   4  -7  -1 5800.24 982.710   1
  -4   7  -1 7621.36 5285.92   1
  -4  -7   1 8798.12 2435.49   1
  -4  -7  -1 7468.65 3545.63   1
  -4   7   1 8129.03 2273.82   1
  -4   3  -7 29938.0 3908.82   1
  -4  -3   7 31230.2 3964.89   1
  -4  -3  -7 32511.2 4435.33   1
  -4  -3  -7 31759.9 4974.14   1
   4  -3  -7 31403.8 3694.36   1
  -4   3   7 30493.7 5736.71   1
  -3  -7   4 44.1000 209.630   1
  -3  -7   4 662.310 879.170   1
  -3  -7  -4 603.850 1210.26   1
  -3  -7  -4 -622.47 1288.75   1
  -3   7  -4 -64.690 2118.74   1
  -3   7   4 252.640 1371.08   1
   3  -7  -4 -310.94 555.440   1
  -3   3   8 85025.1 10116.7   1
  -3   3  -8 80386.7 9118.68   1
  -3  -3   8 67853.0 7419.00   1
  -3  -3  -8 99345.1 11296.7   1
   3  -3  -8 82320.3 9312.41   1
  -3  -3  -8 79799.4 9143.72   1
  -1   3  -9 9371.21 2358.96   1
  -1  -3  -9 7503.90 3166.37   1
   1  -3  -9 6891.95 1473.27   1
   1   3  -9 7643.11 1512.35   1
  -1  -3  -9 4607.72 1922.39   1
   1  -3  -9 5161.03 4029.56   1
   0  -5   8 94.3300 205.120   1
   0  -5  -8 -139.60 1190.93   1
   0  -5  -8 -590.83 919.530   1
  -2  -8  -3 8619.73 1511.17   1
  -2  -8   3 7301.39 1446.89   1
   2  -8  -3 6278.43 893.660   1
  -2   8   3 6343.39 1644.28   1
  -2   8  -3 7426.64 2201.20   1
  -2  -8  -3 4486.68 4034.61   1
  -2  -8   3 4116.65 2892.30   1
   2  -2  -9 325.250 1643.07   1
  -2  -2  -9 742.880 1839.20   1
   2   2  -9 499.260 1270.69   1
   2  -2  -9 275.380 403.780   1
  -2   2  -9 837.890 2109.81   1
  -2  -2  -9 -282.93 984.640   1
  -2   2  -9 237.720 617.610   1
   1  -6  -7 19744.1 2601.43   1
  -1   6  -7 24835.5 3495.68   1
  -1  -6  -7 19248.7 2766.65   1
  -1  -6   7 18296.8 2915.68   1
  -1  -6  -7 17676.2 2401.88   1
   1  -6  -7 19976.0 2817.51   1
  -6   4   0 22582.4 4524.31   1
  -6  -4   0 25997.2 4051.85   1
   0  -7   6 156.180 431.150   1
   0  -7  -6 154.600 454.680   1
   0  -7  -6 -230.88 1372.64   1
   1  -8  -4 12095.4 1597.18   1
  -1  -8   4 4867.62 4237.35   1
  -1  -8  -4 12569.7 1877.33   1
  -1  -8   4 10211.7 1280.11   1
  -1   8  -4 11757.0 2451.28   1
  -1  -8  -4 6084.41 4255.35   1
   1  -8  -4 5108.18 1523.00   1
  -6  -3  -3 3082.38 2199.47   1
  -6  -3   3 1296.11 1173.31   1
  -6   3  -3 1699.21 1336.95   1
  -6   3   3 1749.34 3198.52   1
  -6  -3  -3 3186.76 3135.27   1
  -5  -6   0 22201.2 3508.95   1
  -5   6   0 35537.1 5026.39   1
  -5  -6   0 56495.0 7585.02   1
  -6  -4  -1 1422.31 1647.64   1
  -6  -4   1 51.0900 2036.67   1
  -6   4  -1 978.330 1797.63   1
  -6  -4  -1 733.770 2461.51   1
  -6   4   1 30.5200 1986.77   1
  -3  -8   0 2669.60 1962.85   1
  -3   8   0 3585.86 1811.76   1
   3  -8   0 3476.35 654.000   1
  -3  -8   0 4787.03 1089.78   1
   1  -5  -8 1630.66 1617.44   1
   1  -5  -8 59.1300 929.590   1
  -1  -5   8 794.400 378.240   1
  -1  -5  -8 654.040 1367.22   1
  -1   5  -8 -67.690 750.770   1
  -1  -5  -8 376.810 1055.56   1
   6  -2  -4 29224.1 3460.28   1
  -6  -2  -4 11486.7 3929.65   1
  -6  -2   4 31392.4 4665.47   1
  -6  -2  -4 24921.1 4016.24   1
  -6   2  -4 27328.1 4089.96   1
  -6   2   4 28099.5 4297.25   1
  -4   7  -2 4604.62 3242.41   1
  -4  -7   2 5347.26 3440.16   1
  -4  -7   2 1230.90 888.630   1
  -4   7   2 5809.15 2905.56   1
  -4  -7  -2 7165.51 3447.79   1
  -4  -7  -2 2146.23 1438.85   1
   4  -7  -2 3610.07 673.220   1
  -5  -6   1 7434.69 2338.53   1
  -5  -6  -1 20383.3 3902.42   1
  -5  -6  -1 5113.45 2187.47   1
  -5   6   1 14168.3 7956.81   1
  -5   6  -1 13115.9 4787.95   1
  -5  -6   1 16766.4 3458.98   1
  -5   4  -5 844.210 1909.02   1
   5  -4  -5 407.180 545.810   1
  -5   4   5 -61.800 1621.29   1
  -5  -4   5 -33.730 1285.09   1
  -5  -4  -5 987.590 2483.51   1
  -5  -4  -5 559.180 1550.18   1
   3  -8   1 -86.450 818.200   1
  -3   8   1 961.640 1060.99   1
  -3  -8   1 541.570 839.670   1
  -3  -8  -1 -126.46 934.310   1
   3  -8  -1 304.160 397.160   1
  -3  -8  -1 -817.01 1727.65   1
  -3  -8   1 351.760 1191.87   1
  -3   8  -1 -65.340 1760.19   1
  -1  -7  -6 8130.82 1582.18   1
   1  -7  -6 9013.59 1327.54   1
  -1   7  -6 10131.4 1923.10   1
  -1  -7  -6 12147.2 2225.24   1
  -1  -7   6 13782.2 4072.63   1
   1  -7  -6 13814.6 5094.85   1
   0  -9   0 -266.39 438.280   1
   0  -9   0 695.860 902.580   1
   4   0  -8 9322.67 1624.73   1
  -4   0  -8 5382.24 2545.02   1
  -4   0   8 10492.9 3773.41   1
  -4   0  -8 13997.2 3098.27   1
   3  -5  -7 46066.3 6708.51   1
  -3   5   7 45579.0 8643.31   1
  -3  -5   7 54676.9 8078.25   1
  -3   5  -7 48471.0 7346.88   1
  -3  -5  -7 33340.3 5737.11   1
  -3  -5  -7 45431.8 7121.27   1
  -3   6   6 3267.35 2319.93   1
  -3  -6   6 1135.80 629.740   1
  -3  -6  -6 3854.64 3166.14   1
   3  -6  -6 2473.61 1835.71   1
  -3   6  -6 1899.14 2664.04   1
  -3  -6  -6 784.040 1326.87   1
   0  -9  -1 -35.200 492.810   1
   0  -9   1 229.170 451.280   1
   0  -9  -1 -857.55 1581.94   1
   0  -9   1 -7.3100 1204.92   1
  -5  -5  -4 32729.0 6188.78   1
  -5  -5  -4 32981.7 5508.84   1
  -5  -5   4 29094.7 4988.32   1
  -5   5  -4 29291.9 5248.21   1
   5  -5  -4 31695.3 4674.74   1
  -5   5   4 28121.7 5340.96   1
  -6   4  -2 67460.8 10595.0   1
  -6  -4  -2 62433.0 10068.6   1
  -6  -4  -2 17489.6 4346.34   1
  -6   4   2 53869.8 8566.37   1
  -6  -4   2 65393.0 10016.7   1
   4  -1  -8 25878.1 3904.76   1
  -4   1   8 27137.9 4824.70   1
  -4  -1   8 28356.9 4379.62   1
  -4   1  -8 34288.4 5982.56   1
  -4  -1  -8 18923.2 4597.43   1
  -4  -1  -8 28965.2 5707.06   1
  -4   1  -8 20173.6 4573.09   1
   4   1  -8 22360.3 3616.34   1
  -5   3  -6 51.8900 1901.89   1
   5  -3  -6 -24.900 556.940   1
  -5  -3   6 169.200 1108.99   1
  -5  -3  -6 -962.36 1977.78   1
  -5   3   6 -238.56 1636.88   1
  -5  -3  -6 1442.57 1538.45   1
  -1  -9   0 -4.9600 823.760   1
   1  -9   0 95.4600 616.280   1
  -1  -9   0 10.3600 647.600   1
   4  -5  -6 4713.70 914.690   1
  -4   5   6 7217.84 4966.39   1
  -4   5  -6 6249.60 2302.72   1
  -4  -5   6 7565.91 2891.47   1
  -4  -5  -6 8586.27 6838.60   1
  -4  -5  -6 2831.15 1900.26   1
  -5   6  -2 16436.3 3173.90   1
  -5  -6  -2 4029.81 3560.62   1
   5  -6  -2 17480.3 2697.47   1
  -5   6   2 17832.6 9619.94   1
  -5  -6   2 16139.6 6139.90   1
  -5  -6   2 6798.53 1959.04   1
  -5  -6  -2 20053.3 3932.68   1
  -3   8   2 13848.5 3027.04   1
  -3  -8  -2 15490.1 2695.36   1
  -3  -8   2 10301.9 6039.43   1
  -3  -8   2 10293.0 1651.55   1
   3  -8  -2 13553.7 2128.12   1
  -3   8  -2 12801.2 3201.67   1
  -3  -8  -2 12063.2 2471.77   1
   3   0  -9 -713.92 889.480   1
  -3   0  -9 596.720 2378.14   1
  -3   0  -9 66.8900 1193.81   1
  -3   0   9 -247.53 454.050   1
   0   0 -10 4415.33 1615.28   1
  -2  -3  -9 18064.5 3082.22   1
  -2   3  -9 19414.8 3139.01   1
   2  -3  -9 21524.2 3365.60   1
   2  -3  -9 19316.1 3234.05   1
  -2  -3  -9 20726.0 3760.60   1
   2   3  -9 21493.7 3751.06   1
   0  -4  -9 1065.35 1500.28   1
   0  -4  -9 789.380 1046.63   1
  -1  -9   1 6314.25 1047.29   1
   1  -9   1 6572.61 1072.18   1
   1  -9  -1 5722.25 1024.14   1
  -1  -9  -1 6957.29 1573.68   1
  -1  -9   1 11762.3 7425.31   1
  -1  -9  -1 11224.6 5711.90   1
   6   0  -5 111.440 240.230   1
  -6   0   5 595.150 2075.89   1
  -6   0  -5 814.430 1463.91   1
  -2  -6  -7 1092.37 960.510   1
  -2  -6  -7 583.490 1068.91   1
  -2  -6   7 685.540 682.610   1
  -2   6  -7 728.830 892.960   1
   2  -6  -7 1482.88 1524.90   1
   3   1  -9 5862.31 1361.38   1
  -3  -1  -9 8891.16 2826.53   1
  -3   1  -9 7293.63 2496.81   1
  -3  -1  -9 6581.78 1975.77   1
   3  -1  -9 9530.05 1817.00   1
  -3   1  -9 7541.57 2462.87   1
  -3   1   9 6274.04 2807.62   1
  -2  -8   4 36643.8 5674.64   1
  -2   8   4 30006.8 5113.36   1
  -2  -8  -4 30159.1 4742.55   1
  -2  -8   4 29162.7 4211.15   1
   2  -8  -4 30990.5 4570.15   1
  -2   8  -4 30428.6 5143.34   1
  -2  -8  -4 39053.3 6188.98   1
   0  -9  -2 558.520 1479.29   1
   0  -9   2 -27.380 437.260   1
   0  -9  -2 51.7300 698.310   1
   0  -9   2 -171.65 1865.23   1
  -4  -7   3 9460.44 1656.69   1
  -4  -7  -3 9395.97 4130.82   1
  -4  -7   3 19281.7 3641.06   1
  -4   7  -3 14730.8 3098.59   1
  -4   7   3 16449.2 4715.97   1
   4  -7  -3 16696.8 2608.33   1
  -4  -7  -3 18767.7 3723.52   1
   0   1 -10 1092.03 2107.33   1
   0  -1 -10 -50.470 431.260   1
   0  -1 -10 124.750 1261.71   1
  -5   0  -7 573.040 1953.21   1
  -5   0   7 359.490 1200.92   1
  -5   0  -7 837.130 1895.52   1
   5   0  -7 130.120 447.050   1
  -6  -1  -5 242.210 1610.24   1
  -6  -1   5 445.770 1703.58   1
  -6   1   5 806.290 1761.79   1
   6  -1  -5 241.000 225.450   1
  -6  -1  -5 638.360 1610.19   1
   6   1  -5 50.7400 188.950   1
  -4   6  -5 10032.9 7207.82   1
   4  -6  -5 6776.66 1171.40   1
  -4  -6   5 8654.42 2081.52   1
  -4  -6  -5 6017.43 2418.65   1
  -4   6   5 7891.86 3842.68   1
  -4  -6  -5 10769.3 6888.49   1
  -4  -4  -7 1474.60 1936.17   1
  -4  -4   7 2091.43 1105.78   1
  -4  -4  -7 1778.14 1525.33   1
   4  -4  -7 2839.68 2164.95   1
  -4   4  -7 2143.45 1881.50   1
  -4   4   7 2904.09 2262.00   1
   0  -8   5 5068.61 3104.93   1
   0  -8  -5 7546.23 1486.22   1
   0  -8  -5 4145.46 4041.80   1
  -3   4  -8 10261.9 2743.35   1
  -3  -4  -8 5968.14 3414.50   1
  -3  -4   8 6983.12 2320.69   1
  -3   4   8 11609.2 3429.70   1
   3  -4  -8 9531.35 1642.39   1
  -3  -4  -8 11170.5 2815.21   1
  -6  -3  -4 22165.6 4258.86   1
  -6   3  -4 14756.0 3444.78   1
  -6  -3  -4 4235.43 2898.55   1
   6  -3  -4 18979.6 2919.00   1
  -6   3   4 18000.5 3977.68   1
  -6  -3   4 21312.7 4104.35   1
  -1   0 -10 13282.8 3946.42   1
  -1   0 -10 5477.66 1302.09   1
   1   0 -10 7326.71 2078.32   1
  -4   2   8 69864.4 8881.09   1
  -4   2  -8 67241.4 9963.23   1
  -4  -2  -8 82305.3 10026.4   1
   4  -2  -8 58456.1 8676.25   1
  -4  -2  -8 41053.0 7020.70   1
  -4  -2   8 71753.3 8440.10   1
   1  -4  -9 1305.69 1005.62   1
  -1  -4  -9 965.580 785.060   1
  -1  -4  -9 1548.35 2078.32   1
   1  -4  -9 2741.75 3175.06   1
  -2  -5  -8 226.910 623.590   1
   2  -5  -8 -319.12 763.580   1
  -2   5  -8 319.410 839.190   1
  -2  -5   8 354.250 419.590   1
  -2  -5  -8 173.690 965.260   1
   2  -5  -8 2332.02 1782.82   1
  -7   0   0 43220.7 7105.89   1
  -5   1   7 3079.12 1545.77   1
  -5  -1  -7 1670.17 1986.34   1
   5   1  -7 2334.03 1639.14   1
   5  -1  -7 3872.06 1275.42   1
  -5  -1  -7 4695.37 1933.28   1
  -5  -1   7 5146.38 2016.16   1
  -5   1  -7 5678.78 2259.27   1
  -3  -7   5 3927.09 3607.10   1
  -3  -7  -5 4919.52 4216.68   1
  -3   7  -5 6064.68 4383.69   1
  -3   7   5 6874.09 5480.39   1
   3  -7  -5 6104.16 1476.17   1
  -3  -7  -5 6042.68 5658.99   1
  -2  -7  -6 12948.3 2613.30   1
   2  -7  -6 12448.1 1966.12   1
  -2  -7   6 11248.5 1670.03   1
  -2   7  -6 13229.7 2683.08   1
  -2  -7  -6 9288.11 4642.88   1
  -2  -7   6 11017.2 2992.26   1
  -1  -9   2 3322.96 620.960   1
  -1  -9   2 4777.21 3090.53   1
  -1  -9  -2 6869.01 6699.24   1
   1  -9   2 4334.57 1561.88   1
   1  -9  -2 3377.74 773.480   1
  -1  -9  -2 3749.67 793.910   1
  -1  -1 -10 851.090 1056.53   1
   1  -1 -10 2314.07 1965.01   1
  -1  -1 -10 1621.06 1319.39   1
   1   1 -10 2019.49 1992.95   1
  -1   1 -10 3114.06 1961.13   1
  -6  -4  -3 992.020 1506.09   1
   6  -4  -3 1225.15 1003.02   1
  -6   4   3 1997.14 2570.99   1
  -6   4  -3 1966.59 2001.97   1
  -6  -4   3 1488.73 1609.74   1
  -6  -4  -3 1198.03 2180.17   1
  -7   0  -1 1416.54 2391.64   1
  -7   0   1 -1026.3 2288.71   1
  -7  -1   0 11135.7 3019.15   1
  -7   1   0 11365.0 2892.52   1
  -1  -8   5 3751.83 2313.78   1
   1  -8  -5 3623.23 2706.81   1
  -1  -8  -5 6278.25 1551.58   1
   1  -8  -5 3178.48 789.710   1
  -1  -8   5 4114.97 797.140   1
  -1   8  -5 4405.61 4651.55   1
  -1  -8  -5 4019.41 3506.96   1
  -5  -6  -3 5877.35 2290.84   1
   5  -6  -3 8196.11 2810.66   1
  -5   6   3 7071.13 2701.67   1
  -5  -6  -3 9973.79 3167.03   1
  -5   6  -3 6963.19 2739.03   1
  -5  -6   3 8201.84 2675.71   1
  -3  -8   3 393.050 421.480   1
  -3   8   3 -6.1900 1999.10   1
  -3   8  -3 1003.41 1002.12   1
  -3  -8   3 -278.25 1730.59   1
  -3  -8  -3 -77.260 2231.28   1
  -3  -8  -3 252.140 1067.83   1
   3  -8  -3 31.1600 358.100   1
  -3   2  -9 1363.14 1006.33   1
  -3  -2  -9 1503.32 1432.12   1
   3   2  -9 339.610 686.570   1
  -3   2  -9 1936.26 2142.45   1
  -3  -2  -9 733.070 2272.06   1
  -3   2   9 600.770 999.770   1
   3  -2  -9 754.950 1200.32   1
  -7   1   1 2300.10 2191.64   1
  -7  -1   1 1647.94 1924.08   1
  -7   1  -1 844.460 2982.83   1
  -7  -1  -1 2859.87 1918.80   1
   0  -2 -10 6722.83 1593.53   1
   0   2 -10 12090.3 3655.22   1
   0  -2 -10 1600.30 835.850   1
  -6  -2  -5 3839.66 2013.58   1
  -6   2   5 1299.34 1606.02   1
  -6   2  -5 2871.44 1509.91   1
   6  -2  -5 2788.85 1785.74   1
  -6  -2   5 2272.62 2052.86   1
  -6  -2  -5 -114.67 2921.46   1
  -6   5   0 7940.55 3206.23   1
  -6  -5   0 9142.12 2931.84   1
  -6  -5   0 679.710 1598.48   1
  -2  -9   0 1629.40 1427.24   1
  -2   9   0 1492.41 1435.04   1
   2  -9   0 2016.03 1449.15   1
  -2  -9   0 1354.35 923.030   1
  -5  -2  -7 8564.45 3802.34   1
  -5   2  -7 5459.54 2123.24   1
  -5  -2   7 6072.60 1630.54   1
   5  -2  -7 2879.74 1958.05   1
  -5  -2  -7 3150.95 2696.81   1
  -5   2   7 5405.68 4442.35   1
   0  -9   3 19.9800 843.280   1
   0  -9  -3 -5.3100 1452.99   1
   0  -9   3 136.060 337.650   1
   0  -9  -3 183.750 456.160   1
  -6  -5   1 219.110 1965.88   1
  -6   5   1 1213.47 1485.82   1
  -6  -5  -1 1037.20 1709.49   1
  -6  -5  -1 1221.17 2184.14   1
  -6   5  -1 171.340 2017.31   1
  -7   0  -2 17860.6 10331.2   1
  -7   0   2 16758.7 4362.15   1
  -2  -9   1 12623.3 1985.85   1
   2  -9  -1 11496.1 1903.74   1
  -2   9   1 10719.9 3255.46   1
   2  -9   1 9717.28 1896.15   1
  -2  -9   1 8517.60 2034.46   1
  -2   9  -1 11925.6 2764.71   1
  -2  -9  -1 12489.0 2858.55   1
  -2  -9  -1 8827.94 2536.23   1
  -1  -2 -10 8557.14 2346.82   1
   1   2 -10 7137.77 1714.67   1
  -1   2 -10 6076.04 2677.20   1
   1  -2 -10 8212.00 1942.10   1
  -1  -2 -10 15100.0 2791.60   1
   0  -6   8 23339.1 3454.97   1
   0  -6  -8 25409.1 4234.98   1
   0  -6  -8 12276.1 2336.22   1
   5  -5  -5 529.830 533.110   1
  -5   5   5 -264.19 2141.12   1
  -5   5  -5 313.520 1788.38   1
  -5  -5   5 456.990 1450.84   1
  -5  -5  -5 1260.77 1160.26   1
  -7  -2   0 6132.16 2768.77   1
  -7   2   0 5456.30 2271.09   1
  -5  -4  -6 50583.2 7830.63   1
  -5   4  -6 49323.6 7719.51   1
  -5  -4   6 44482.8 6855.50   1
  -5   4   6 46567.8 7386.85   1
  -5  -4  -6 39467.2 7807.24   1
   5  -4  -6 43218.7 6277.04   1
  -7   1  -2 4353.29 3418.63   1
  -7  -1   2 3912.58 3284.65   1
  -7  -1  -2 3743.64 2222.00   1
  -7   1   2 3374.51 2811.13   1
   0  -7   7 119.180 533.940   1
   0  -7  -7 314.540 769.900   1
   0  -7  -7 -583.58 1844.68   1
  -1  -9   3 2236.50 904.660   1
   1  -9   3 2453.15 1640.04   1
  -1  -9  -3 3002.28 2654.19   1
  -1  -9   3 2397.09 1543.45   1
   1  -9  -3 4319.12 3874.59   1
   1  -9  -3 2375.93 1413.03   1
  -1  -9  -3 2027.11 932.650   1
  -4  -7   4 793.370 1399.42   1
  -4   7  -4 1129.59 1747.28   1
  -4   7   4 675.810 1762.16   1
   4  -7  -4 459.380 410.140   1
  -4  -7  -4 956.180 477.390   1
  -4  -7  -4 235.850 1267.88   1
  -4  -3  -8 74060.8 10712.4   1
  -4  -3  -8 54220.4 8193.46   1
  -4  -3   8 53566.8 8075.12   1
  -4   3  -8 54149.1 8248.48   1
  -4   3   8 57041.3 8804.60   1
   4  -3  -8 59392.0 8619.51   1
  -7  -2  -1 -1151.6 2032.82   1
  -7   2   1 -171.41 1802.56   1
  -7   2  -1 487.730 2245.89   1
  -7  -2   1 -435.42 2222.19   1
  -2   0 -10 12850.0 2604.07   1
   2   0 -10 12292.9 2278.79   1
  -2   0 -10 13476.9 3159.26   1
  -2  -4  -9 141.700 497.240   1
  -2   4  -9 -112.98 902.990   1
   2  -4  -9 157.760 863.190   1
  -2  -4  -9 670.500 1091.38   1
   2  -4  -9 416.900 1140.64   1
  -6  -5  -2 5435.36 3087.37   1
  -6  -5   2 5051.38 2427.90   1
  -6   5  -2 3822.84 1788.57   1
  -6   5   2 4705.97 2480.49   1
  -6  -5  -2 3661.70 3317.48   1
  -1  -6  -8 2090.78 1695.92   1
  -1  -6  -8 6158.68 1577.12   1
   1  -6  -8 6988.34 1353.48   1
  -1   6  -8 5728.70 1918.08   1
  -1  -6   8 1097.70 786.270   1
   1  -6  -8 1139.45 1526.83   1
  -2  -9   2 4721.80 897.240   1
  -2  -9  -2 3811.84 952.420   1
  -2  -9   2 6515.43 4857.78   1
  -2  -9  -2 5132.56 4622.36   1
  -2   9  -2 6391.25 2613.58   1
  -2   9   2 5479.12 4554.05   1
   2  -9   2 5907.21 1152.17   1
   2  -9  -2 4857.78 1381.57   1
  -2  -1 -10 5067.27 2120.92   1
  -2   1 -10 4195.89 1854.71   1
   2   1 -10 4098.28 1355.70   1
   2  -1 -10 3729.94 1256.24   1
  -2  -1 -10 4507.06 1708.36   1
   1  -7  -7 14161.8 2661.79   1
  -1   7  -7 18345.6 3545.73   1
   1  -7  -7 22429.9 3624.71   1
  -1  -7   7 21535.0 3808.65   1
  -1  -7  -7 18272.5 3208.63   1
  -1  -7  -7 14272.2 2483.66   1
  -2  -8   5 1453.77 840.400   1
  -2   8  -5 3026.08 2139.35   1
  -2  -8   5 1573.73 363.180   1
  -2  -8  -5 2756.36 1074.19   1
   2  -8  -5 3073.27 756.690   1
  -2  -8  -5 2303.95 2591.46   1
   4  -8   0 964.420 877.550   1
  -4  -8   0 659.340 1012.89   1
  -4   8   0 -490.39 1937.08   1
  -4  -8   0 -222.77 663.680   1
  -6  -4  -4 22226.5 5505.08   1
  -6  -4  -4 49941.1 8097.67   1
  -6   4   4 38544.2 6698.03   1
  -6   4  -4 49650.2 8411.65   1
   6  -4  -4 45694.6 7258.82   1
  -6  -4   4 44698.1 7026.38   1
   3  -3  -9 8815.49 1694.09   1
  -3  -3  -9 8996.11 2841.69   1
  -3   3   9 8310.38 2278.55   1
  -3  -3  -9 9234.98 2827.49   1
  -3   3  -9 10315.4 2496.60   1
   0  -3 -10 -51.900 872.680   1
   0   3 -10 107.780 1556.42   1
   0  -3 -10 -241.13 1048.24   1
   0  -5  -9 324.000 427.500   1
   0  -5  -9 214.430 1032.97   1
   0  -5   9 -6.4400 259.740   1
  -3  -6  -7 368.050 1156.16   1
  -3   6  -7 868.030 1186.25   1
  -3  -6   7 1354.47 764.410   1
   3  -6  -7 972.990 642.050   1
  -3   6   7 1227.13 1034.97   1
  -3  -6  -7 2237.32 1912.96   1
  -5  -7   0 40521.9 6916.05   1
  -5  -7   0 21106.7 3434.84   1
  -5   7   0 35873.5 6312.31   1
  -6   3  -5 1532.32 2031.28   1
  -6   3   5 415.030 2017.02   1
  -6  -3  -5 1513.50 1949.61   1
  -6  -3  -5 98.5100 2153.01   1
   6  -3  -5 824.080 490.720   1
  -4   8   1 6514.89 4283.67   1
  -4  -8  -1 5388.54 5430.72   1
  -4  -8   1 4915.72 4395.54   1
  -4   8  -1 7644.27 4401.89   1
   4  -8  -1 5698.60 1233.15   1
  -4  -8  -1 3633.25 2083.91   1
  -4  -8   1 2584.57 1638.21   1
  -7  -2  -2 19426.8 4624.28   1
  -7  -2   2 17435.0 3789.45   1
  -7   2  -2 17953.8 3802.12   1
  -7   2   2 17720.9 4119.00   1
   6   0  -6 57327.4 8329.00   1
  -6   0   6 65202.8 10104.7   1
  -6   0  -6 59105.3 8890.26   1
  -5  -6  -4 53856.2 8644.18   1
  -5  -6   4 40393.1 6676.79   1
   5  -6  -4 41674.7 6144.35   1
  -5  -6  -4 31949.5 5874.05   1
  -5   6   4 35156.2 6169.37   1
  -5   6  -4 38249.8 6449.30   1
  -7   0   3 177.130 1838.68   1
  -7   0  -3 -36.340 2298.22   1
  -3  -8   4 13830.1 2180.73   1
  -3  -8  -4 18802.1 3089.63   1
  -3  -8   4 22148.1 6260.63   1
   3  -8  -4 20001.9 3084.94   1
  -3   8   4 20475.1 3980.56   1
  -3   8  -4 22051.0 4591.89   1
  -3  -8  -4 22244.3 9079.17   1
  -5   7  -1 444.100 1944.18   1
  -5   7   1 1031.87 1338.44   1
   5  -7  -1 -87.540 957.470   1
  -5  -7  -1 312.540 1582.25   1
  -5  -7   1 1234.32 1118.95   1
  -5  -7  -1 1890.38 1818.15   1
  -5  -7   1 1085.14 1301.84   1
  -5  -3   7 4467.17 2136.10   1
  -5  -3  -7 4389.18 1891.40   1
  -5   3  -7 5495.62 2586.26   1
  -5   3   7 4575.73 2059.38   1
   5  -3  -7 4199.81 1612.84   1
  -5  -3  -7 2993.53 2337.62   1
   4  -5  -7 14952.4 2354.82   1
  -4  -5   7 16672.7 2956.58   1
  -4  -5  -7 14969.6 3403.29   1
  -4   5   7 17965.8 6098.68   1
  -4   5  -7 16286.9 3491.92   1
  -4  -5  -7 15327.2 3161.25   1
   6  -1  -6 1076.37 703.040   1
  -6  -1  -6 944.420 1767.98   1
  -6  -1  -6 1624.65 3422.43   1
  -6   1  -6 3805.73 2814.77   1
  -6   1   6 936.980 1874.60   1
  -6  -1   6 922.490 2065.68   1
  -4   6  -6 34761.8 5952.43   1
  -4  -6  -6 35469.5 5876.52   1
  -4  -6   6 37960.4 6097.98   1
  -4  -6  -6 19183.7 4012.64   1
  -4   6   6 28677.4 6533.66   1
   4  -6  -6 24823.4 3730.73   1
  -7   1   3 17746.4 4231.31   1
  -7   1  -3 25173.0 5370.12   1
  -7  -1   3 23077.1 4798.46   1
  -7  -1  -3 22106.3 4462.88   1
   0  -8  -6 287.630 475.100   1
   0  -8   6 3753.21 2109.42   1
   0  -8  -6 2361.89 2561.03   1
  -3   5  -8 1536.25 1335.78   1
  -3   5   8 1051.54 2347.83   1
  -3  -5  -8 1725.60 1537.67   1
   3  -5  -8 1715.96 1191.93   1
  -3  -5  -8 699.170 2144.19   1
  -3  -5   8 542.140 989.330   1
  -1  -3 -10 3382.15 3680.27   1
   1  -3 -10 3321.00 3013.15   1
   1  -3 -10 2871.91 2061.10   1
  -1  -3 -10 3706.71 1960.50   1
  -1   3 -10 2142.79 1810.82   1
   1   3 -10 2762.36 1432.98   1
  -1  -5  -9 11949.2 2186.55   1
   1  -5  -9 11205.7 1908.28   1
  -1  -5  -9 8888.41 4769.39   1
   1  -5  -9 9712.92 1657.91   1
   0  -9   4 -695.77 1442.36   1
   0  -9  -4 -8.2700 716.940   1
   0  -9   4 -18.250 403.300   1
   0  -9  -4 -240.00 845.190   1
   2  -2 -10 652.280 1161.83   1
   2   2 -10 2067.21 1825.81   1
  -2   2 -10 1369.28 1828.21   1
  -2  -2 -10 1168.44 1917.72   1
  -2  -2 -10 1908.94 1262.14   1
  -7   3   0 2117.51 3030.70   1
  -7  -3   0 2763.39 2635.88   1
  -3   7  -6 17434.1 3136.58   1
  -3  -7   6 19490.7 2897.17   1
  -3  -7  -6 18985.2 2985.36   1
  -3  -7  -6 7785.46 1961.83   1
   3  -7  -6 13933.2 1793.62   1
  -3   7   6 15827.5 3165.62   1
  -4   8  -2 35388.6 9429.65   1
  -4   8   2 32715.8 6845.28   1
  -4  -8   2 33261.7 4665.75   1
  -4  -8  -2 37082.9 5451.84   1
   4  -8  -2 35695.8 4300.28   1
  -4  -8  -2 21973.9 5923.57   1
  -4  -8   2 21936.8 3151.48   1
   6  -5  -3 9644.32 1950.27   1
  -6   5  -3 6464.90 2228.08   1
  -6  -5   3 9806.03 3846.97   1
  -6  -5  -3 9588.75 7013.27   1
  -6   5   3 8805.09 2650.84   1
  -6  -5  -3 5914.94 5134.66   1
  -7   3   1 7365.84 3188.02   1
  -7   3  -1 6963.21 2755.03   1
  -7  -3   1 8727.78 3811.31   1
  -7  -3  -1 8205.81 2853.70   1
  -4   0   9 171.390 377.590   1
   4   0  -9 -24.640 744.620   1
  -4   0  -9 843.510 1714.26   1
  -4   0  -9 586.230 2225.92   1
  -2   9  -3 11994.5 2540.80   1
  -2  -9  -3 23931.1 3778.17   1
  -2   9   3 13290.9 2325.79   1
   2  -9  -3 12430.6 1706.89   1
  -2  -9  -3 11897.4 1831.78   1
  -2  -9   3 18415.5 2726.94   1
  -2  -9   3 8315.82 1064.86   1
   1  -8  -6 14367.6 2517.17   1
  -1  -8   6 11197.3 1838.75   1
  -1  -8  -6 10775.2 3857.32   1
  -1   8  -6 3095.51 2375.71   1
  -1  -8   6 6024.20 866.990   1
   1  -8  -6 2003.78 1612.43   1
  -1  -8  -6 1842.67 1251.85   1
  -5  -7   2 1371.82 2061.60   1
  -5  -7  -2 239.770 1624.61   1
  -5   7  -2 994.630 1918.83   1
  -5   7   2 -114.65 2014.76   1
   5  -7  -2 184.780 654.250   1
  -5  -7   2 504.880 1086.21   1
  -5  -7  -2 277.820 1124.42   1
  -1  -9  -4 59741.5 7200.26   1
   1  -9  -4 53371.9 6752.44   1
  -1  -9   4 48718.4 6027.30   1
  -1  -9  -4 52807.8 6604.97   1
   1  -9   4 50609.7 5929.37   1
  -1  -9   4 52169.0 6032.74   1
   1  -9  -4 57346.4 6669.99   1
   2  -6  -8 26468.9 3402.14   1
  -2  -6  -8 26662.4 3612.09   1
  -2   6  -8 32300.8 4363.26   1
  -2  -6  -8 42831.0 5598.78   1
   2  -6  -8 63628.7 7692.36   1
  -2  -6   8 39870.7 4815.92   1
   4   1  -9 3627.69 1640.43   1
  -4  -1  -9 6343.82 4784.67   1
  -4   1  -9 1016.70 2159.13   1
   4  -1  -9 4111.25 1745.50   1
  -4  -1  -9 5445.07 2317.65   1
  -4   1  -9 6550.55 1920.95   1
  -4  -1   9 3503.48 2394.60   1
  -4   1   9 4340.49 3654.76   1
  -3   9   0 1457.80 1251.04   1
  -3  -9   0 956.270 649.410   1
  -3  -9   0 2100.42 2176.48   1
   3  -9   0 1411.91 1184.43   1
  -6   2  -6 23032.7 4196.81   1
  -6   2   6 25476.2 4475.72   1
  -6  -2  -6 25611.7 4247.78   1
   6  -2  -6 25177.5 3076.13   1
  -6  -2  -6 7814.59 3640.28   1
  -6  -2   6 30315.7 4575.33   1
   2  -7  -7 18466.4 2517.40   1
  -2  -7  -7 19554.1 2915.16   1
  -2   7  -7 19909.0 3812.14   1
  -2  -7   7 21398.7 3006.38   1
  -2  -7  -7 17819.2 2732.62   1
  -7  -2   3 633.460 1727.89   1
  -7   2   3 825.920 2414.70   1
  -7  -2  -3 1930.79 3123.14   1
  -7   2  -3 -243.27 1898.82   1
   5   0  -8 54692.7 6511.40   1
  -5   0   8 54301.6 6825.54   1
  -5   0  -8 49006.7 6544.70   1
  -5   0  -8 25250.0 5390.44   1
  -4  -4  -8 3188.87 1974.36   1
   4  -4  -8 1866.41 1788.81   1
  -4  -4   8 1933.33 1522.24   1
  -4   4   8 2231.26 1993.89   1
  -4   4  -8 2663.51 2140.32   1
  -4  -4  -8 1874.30 1866.73   1
  -3  -9  -1 28508.8 4028.67   1
  -3  -9   1 27645.5 4057.37   1
  -3   9  -1 25061.0 6381.16   1
  -3   9   1 23482.0 4396.24   1
   3  -9   1 25317.2 3137.91   1
   3  -9  -1 23208.9 2823.73   1
  -3  -9   1 21379.8 2733.24   1
  -3  -9  -1 20504.5 3641.47   1
  -4   7  -5 3872.85 4076.91   1
  -4  -7   5 3115.54 4702.55   1
  -4  -7  -5 5476.90 2674.54   1
  -4  -7  -5 2541.00 1819.10   1
   4  -7  -5 3558.90 1554.04   1
  -4   7   5 4912.04 3552.93   1
  -7   3  -2 13878.7 3320.88   1
  -7  -3  -2 14918.8 3726.49   1
  -7  -3   2 14220.2 3428.04   1
  -7   3   2 16264.1 4153.95   1
  -5   1  -8 20278.4 3851.03   1
  -5  -1  -8 19089.9 3095.52   1
  -5  -1   8 18733.8 2991.40   1
  -5   1   8 19318.8 3088.28   1
   5  -1  -8 14411.9 3083.98   1
  -5  -1  -8 6411.80 2972.26   1
  -5  -5  -6 559.720 756.010   1
  -5   5  -6 465.900 1869.80   1
  -5  -5   6 70.2800 1131.67   1
  -5   5   6 878.500 2442.90   1
  -5  -5  -6 1128.93 2410.99   1
   5  -5  -6 100.330 390.080   1
  -6  -6   0 33030.7 5955.57   1
  -6  -6   0 4210.43 1709.70   1
  -6   6   0 23265.8 5918.52   1
  -7   0   4 35.9600 1819.41   1
  -7   0  -4 578.500 2213.73   1
  -3   0 -10 4114.20 3060.95   1
  -3   0 -10 2132.25 1376.49   1
   3   0 -10 3845.04 2196.04   1
  -3   4  -9 1022.37 1373.34   1
  -3  -4  -9 787.590 1031.74   1
  -3  -4  -9 265.480 1663.60   1
   3  -4  -9 438.220 587.440   1
  -2   3 -10 1833.55 1537.93   1
   2   3 -10 3237.50 1838.99   1
  -2  -3 -10 1792.93 1584.20   1
   2  -3 -10 3761.03 1392.56   1
  -2  -3 -10 1600.35 1274.61   1
   2  -3 -10 511.210 834.570   1
   4  -8  -3 9564.92 1748.07   1
  -4  -8   3 2114.79 1599.85   1
  -4  -8  -3 5943.16 2745.36   1
  -4   8   3 9150.29 5621.66   1
  -4   8  -3 8100.47 3490.63   1
  -4  -8   3 9067.11 2229.64   1
  -4  -8  -3 11843.6 5611.77   1
   0  -4 -10 7219.13 1264.94   1
   0  -4 -10 9078.29 1977.95   1
   4  -2  -9 1233.77 847.920   1
  -4   2  -9 615.810 1241.25   1
  -4   2   9 150.510 1008.75   1
  -4  -2  -9 946.790 1984.41   1
  -4  -2  -9 406.170 1700.37   1
   2  -5  -9 24100.6 3408.77   1
  -2  -5  -9 28356.3 3946.98   1
   2  -5  -9 26134.6 3877.53   1
  -2  -5  -9 20404.4 2919.46   1
  -6  -6  -1 1051.66 1684.32   1
  -6  -6   1 1671.47 1934.10   1
  -6  -6  -1 3763.69 2779.65   1
  -6   6  -1 4011.42 2331.12   1
  -6   6   1 3760.40 2331.69   1
  -6   4  -5 1552.85 2008.94   1
  -6  -4  -5 4168.84 3493.07   1
   6  -4  -5 3031.19 1747.31   1
  -6  -4  -5 2246.26 4633.23   1
  -6   4   5 2206.82 1695.39   1
  -6  -4   5 2229.06 1982.87   1
   7  -1  -4 1527.77 1332.82   1
  -7   1   4 919.660 1675.68   1
  -7  -1   4 1313.57 2015.17   1
  -7   1  -4 865.650 2176.71   1
  -7  -1  -4 2100.84 1798.50   1
   0 -10   0 45684.2 5576.92   1
   0 -10   0 40603.1 4738.33   1
  -3  -9  -2 13272.0 4509.02   1
  -3  -9  -2 8846.56 1994.92   1
  -3  -9   2 13333.4 5472.33   1
   3  -9   2 7753.51 1417.36   1
  -3   9  -2 11791.5 2912.47   1
  -3   9   2 12242.2 6890.71   1
   3  -9  -2 10910.8 1572.61   1
  -3  -9   2 8083.45 1254.05   1
  -5  -7  -3 3404.89 2107.08   1
  -5  -7   3 2181.23 1644.37   1
  -5   7  -3 1730.92 1807.27   1
  -5   7   3 1169.31 2041.44   1
  -5  -7  -3 1372.75 2003.55   1
   5  -7  -3 1845.95 1225.78   1
   3   1 -10 5609.02 2749.55   1
  -3  -1 -10 3884.97 2075.81   1
  -3   1 -10 7323.61 1980.20   1
  -3  -1 -10 6240.86 1930.71   1
   3  -1 -10 4906.10 4893.37   1
  -3   1 -10 4083.32 2421.41   1
  -5   6   5 2072.08 1442.41   1
   5  -6  -5 3405.70 1977.78   1
  -5  -6  -5 3373.49 2661.54   1
  -5  -6  -5 3713.10 2714.56   1
  -5   6  -5 2331.18 2017.22   1
  -5  -6   5 3283.73 2722.28   1
  -5  -4   7 10870.1 2191.44   1
  -5  -4  -7 12511.8 8012.90   1
  -5  -4  -7 2807.15 2992.47   1
   5  -4  -7 8336.89 1334.04   1
  -5   4   7 9434.75 5955.50   1
  -5   4  -7 11580.6 3177.40   1
  -3  -8  -5 654.110 2043.62   1
  -3   8  -5 -222.67 1711.29   1
  -3  -8  -5 82.9100 1632.97   1
   3  -8  -5 304.460 379.270   1
  -3   8   5 1788.63 2237.93   1
  -3  -8   5 657.290 884.990   1
   0 -10  -1 69160.4 4546.88   1
   0 -10   1 63228.7 7733.76   1
   0 -10  -1 71203.5 5343.89   1
   0 -10   1 64604.6 7447.92   1
   0   0 -11 573.680 1747.69   1
  -5  -2  -8 25772.5 6138.97   1
   5  -2  -8 23744.5 3495.54   1
  -5   2   8 28184.8 4464.48   1
  -5  -2  -8 29245.1 4439.90   1
  -5   2  -8 24157.6 4572.64   1
  -5  -2   8 27411.8 3830.32   1
  -2   8  -6 9174.20 2253.79   1
  -2  -8   6 8584.64 3627.43   1
  -2  -8  -6 5629.44 1576.54   1
  -2  -8  -6 10636.0 4381.19   1
   2  -8  -6 7311.08 1634.94   1
  -2  -8   6 6368.00 892.230   1
  -6   5  -4 645.130 2284.75   1
  -6  -5  -4 1415.05 3259.96   1
   6  -5  -4 -99.570 521.340   1
  -6   5   4 334.820 2587.21   1
  -6  -5  -4 -208.68 2069.07   1
  -6  -5   4 156.850 1756.96   1
   1  -4 -10 4585.18 3413.25   1
  -1  -4 -10 4949.06 2178.33   1
   1  -4 -10 9502.15 2059.29   1
  -1  -4 -10 9313.56 2216.90   1
  -2  -9   4 104171. 8626.52   1
  -2  -9  -4 147443. 9626.89   1
  -2  -9  -4 112266. 7895.65   1
  -2   9  -4 123728. 11249.2   1
   2  -9  -4 131590. 8423.84   1
  -2  -9   4 125121. 7924.32   1
  -7   4   0 18023.2 3354.57   1
  -7  -4   0 26048.1 4668.85   1
   1 -10   0 15350.1 1908.14   1
  -1 -10   0 19382.7 2564.75   1
  -1 -10   0 4834.10 3770.51   1
  -6   3  -6 -216.72 1867.04   1
  -6  -3   6 668.590 682.520   1
  -6  -3  -6 378.630 2161.14   1
  -6   3   6 1280.90 2491.80   1
   6  -3  -6 447.110 480.590   1
  -6  -3  -6 1192.63 2424.10   1
   0  -9   5 160.220 286.560   1
   0  -9  -5 323.150 833.910   1
   0  -9  -5 -983.00 1504.65   1
   0  -9   5 -512.01 1305.74   1
   0   1 -11 -74.190 1762.38   1
   0  -1 -11 135.520 1339.15   1
  -7  -3  -3 17378.5 3756.61   1
  -7   3   3 16975.1 4633.83   1
  -7  -3   3 17703.0 3805.97   1
  -7   3  -3 18127.4 3838.22   1
  -6  -6   2 63656.1 11050.9   1
   6  -6  -2 53813.5 6393.99   1
  -6   6   2 51955.8 7200.46   1
  -6   6  -2 56599.1 8915.33   1
  -6  -6  -2 66366.7 8485.31   1
  -7  -4  -1 1818.67 2552.31   1
  -7  -4   1 615.410 2033.56   1
  -7   4  -1 1089.48 2343.45   1
  -7   4   1 1134.67 2245.46   1
   0  -7   8 119.980 577.100   1
   0  -7  -8 123.810 1312.77   1
   0  -7  -8 654.830 712.040   1
  -1 -10   1 23898.4 5953.34   1
   1 -10  -1 26357.7 3937.75   1
  -1 -10  -1 27758.8 3394.37   1
   1 -10  -1 27216.4 3304.10   1
   1 -10   1 26409.2 3138.28   1
  -1 -10  -1 31895.0 6256.85   1
  -1 -10   1 29730.5 3550.49   1
  -1   0 -11 261.960 2052.74   1
   1   0 -11 424.000 1344.72   1
  -7  -2   4 25196.5 4544.00   1
  -7  -2  -4 20999.3 4830.99   1
  -7   2  -4 23365.0 4717.62   1
   7  -2  -4 24300.3 3921.73   1
  -7   2   4 24001.2 4424.12   1
  -3   2 -10 17386.9 3001.50   1
  -3  -2 -10 17716.8 2761.33   1
   3  -2 -10 16117.6 2607.19   1
  -3  -2 -10 21023.9 4644.43   1
  -3   2 -10 14688.0 3857.93   1
   0 -10  -2 114.730 357.470   1
   0 -10   2 891.710 1533.85   1
   0 -10  -2 260.400 840.850   1
   0 -10   2 48.2900 311.710   1
   0  -6  -9 8301.05 1905.13   1
   0  -6  -9 2283.70 1634.52   1
  -1  -9   5 921.630 764.630   1
  -1  -9  -5 1593.36 2485.44   1
  -1  -9  -5 1863.43 1593.87   1
   1  -9  -5 1485.01 1205.30   1
  -1  -9   5 990.190 744.420   1
   1  -9  -5 615.370 769.450   1
  -6   0  -7 -1581.0 1506.95   1
  -6   0   7 305.380 1393.88   1
   6   0  -7 126.430 258.220   1
  -1  -1 -11 33790.0 5799.26   1
   1  -1 -11 24784.8 3550.78   1
   1   1 -11 26658.0 3992.98   1
  -1   1 -11 27198.6 4116.36   1
  -1  -7  -8 43051.6 5449.63   1
  -1  -7   8 40475.9 4793.61   1
   1  -7  -8 54065.9 6567.30   1
  -1  -7  -8 49151.2 6065.12   1
   1  -7  -8 35771.2 4500.79   1
   3  -9  -3 7456.63 1613.43   1
  -3   9   3 8222.82 3918.04   1
  -3  -9  -3 7866.30 1646.43   1
  -3   9  -3 9363.66 6766.80   1
  -3  -9   3 10261.5 3069.27   1
  -3  -9  -3 7171.25 3538.08   1
  -3  -9   3 7486.49 1142.57   1
  -4  -3  -9 6527.61 2180.36   1
   4  -3  -9 5622.64 1671.49   1
  -4   3   9 4663.91 4034.38   1
  -4   3  -9 4987.57 1621.98   1
  -4  -3  -9 4966.16 3570.93   1
  -6   1  -7 7501.27 2786.63   1
  -6  -1  -7 663.900 1981.38   1
  -6   1   7 4509.91 3284.82   1
  -6  -1  -7 6832.60 2359.17   1
   6  -1  -7 3187.83 757.300   1
  -6  -1   7 6402.95 2073.50   1
  -4   6   7 3130.06 2292.70   1
  -4   6  -7 2401.13 1637.76   1
  -4  -6   7 2312.31 1832.56   1
  -4  -6  -7 1828.00 1785.48   1
  -4  -6  -7 3096.60 2171.91   1
   4  -6  -7 2594.26 2033.56   1
  -7   4   2 13765.2 4798.27   1
  -7   4  -2 15970.7 4671.05   1
  -7  -4   2 14500.9 3644.51   1
  -7  -4  -2 17312.5 3716.73   1
   0  -8   7 21319.6 2964.98   1
   0  -8  -7 31423.9 4593.09   1
   0  -8  -7 37568.8 5049.72   1
   0   2 -11 7158.40 3766.87   1
   0  -2 -11 3495.34 2726.16   1
   1 -10  -2 2744.73 1786.72   1
  -1 -10   2 876.140 1299.68   1
  -1 -10  -2 1874.68 1479.86   1
   1 -10   2 71.1200 450.070   1
   1 -10  -2 -350.79 696.820   1
  -1 -10   2 138.390 205.710   1
  -1 -10  -2 383.830 599.230   1
   3  -6  -8 35649.1 4416.55   1
  -3  -6  -8 37861.7 4895.65   1
  -3  -6   8 42651.3 5182.46   1
  -3   6  -8 36672.3 4727.25   1
  -3   6   8 35284.3 4990.28   1
  -3  -6  -8 35729.4 4969.94   1
   4  -8  -4 68911.9 4728.71   1
  -4  -8  -4 49039.5 6385.98   1
  -4   8  -4 65178.4 8258.86   1
  -4   8   4 71293.8 6251.28   1
  -4  -8  -4 101574. 13176.0   1
  -4  -8   4 89631.9 6505.49   1
   1  -6  -9 5269.10 2165.06   1
  -1  -6  -9 8854.94 4505.21   1
   1  -6  -9 5473.26 2319.93   1
  -1  -6  -9 4104.57 1159.74   1
  -3  -7  -7 28656.8 3909.40   1
  -3  -7  -7 21017.3 4391.82   1
   3  -7  -7 25902.2 3489.87   1
  -3  -7   7 34950.2 4604.68   1
  -3   7   7 26141.0 3908.95   1
  -3   7  -7 31200.6 5150.45   1
  -5  -7   4 11478.7 3433.82   1
  -5  -7  -4 4971.21 2429.25   1
   5  -7  -4 11347.3 1694.63   1
  -5   7   4 12414.9 5695.61   1
  -5   7  -4 11925.2 7085.45   1
  -5  -7  -4 13058.0 3505.76   1
   5  -3  -8 24751.1 3148.41   1
  -5   3   8 30304.8 4644.33   1
  -5  -3   8 25587.4 3539.43   1
  -5  -3  -8 27886.7 4109.89   1
  -5  -3  -8 12841.0 3272.38   1
  -5   3  -8 25468.2 4429.73   1
  -4   5   8 8130.79 4907.94   1
  -4  -5  -8 6592.18 2510.70   1
   4  -5  -8 7628.28 1092.23   1
  -4  -5   8 7480.96 1210.07   1
  -4   5  -8 9469.11 2701.08   1
  -4  -5  -8 14110.8 9372.41   1
  -6   6  -3 9516.65 4384.30   1
  -6   6   3 8090.37 2303.32   1
  -6  -6  -3 11125.3 3207.27   1
  -6  -6   3 11468.0 2865.92   1
   6  -6  -3 8813.19 2074.68   1
  -6  -6  -3 2320.80 1524.52   1
  -7   0   5 -117.33 1854.72   1
  -7   0  -5 759.520 2026.70   1
   7   0  -5 24.4100 216.570   1
  -2  -4 -10 20889.2 2602.71   1
   2  -4 -10 18732.6 2091.28   1
   2  -4 -10 23302.2 3034.94   1
  -2  -4 -10 18602.1 3071.30   1
  -1  -8  -7 34088.3 2895.08   1
  -1  -8  -7 22429.6 2587.46   1
   1  -8  -7 30410.7 2512.21   1
   1  -8  -7 20629.4 3508.26   1
  -1  -8   7 27816.8 3384.48   1
   1   2 -11 4833.87 2292.78   1
  -1   2 -11 3919.27 2488.95   1
  -1  -2 -11 3513.43 1290.23   1
   1  -2 -11 2741.26 1577.15   1
  -4  -7  -6 6867.44 3898.30   1
  -4  -7  -6 11711.8 2785.42   1
  -4   7   6 11138.2 7627.76   1
  -4   7  -6 11087.7 2890.10   1
  -4  -7   6 12959.0 4908.80   1
   4  -7  -6 8959.93 1166.44   1
  -2 -10   0 51578.3 4490.98   1
  -2 -10   0 37266.4 2808.28   1
   2 -10   0 41954.5 2945.69   1
  -2  10   0 37647.1 4071.14   1
  -7   1  -5 14887.3 4213.26   1
  -7  -1  -5 11995.4 2848.44   1
  -7   1   5 13869.7 4219.07   1
  -7  -1   5 15750.6 3519.93   1
   7  -1  -5 14209.4 1220.69   1
   0 -10  -3 64019.5 4365.57   1
   0 -10   3 55880.4 3657.73   1
   0 -10  -3 45276.8 3892.37   1
   0 -10   3 47021.8 3897.63   1
  -5   8   0 49513.4 9850.52   1
  -5  -8   0 25159.8 2738.79   1
  -6   2   7 4178.30 2583.39   1
  -6  -2  -7 2889.69 1632.47   1
  -6   2  -7 2264.72 1878.50   1
  -6  -2  -7 1333.81 2567.49   1
   6  -2  -7 3048.11 2131.77   1
  -6  -2   7 2036.68 1218.01   1
  -2 -10  -1 5000.79 1195.51   1
   2 -10   1 4062.07 750.410   1
   2 -10  -1 4764.64 1951.08   1
  -2 -10   1 5229.89 1035.24   1
  -2  10   1 4604.12 2016.16   1
  -2  10  -1 5670.33 2333.71   1
  -2 -10  -1 3835.36 3810.48   1
  -2 -10   1 3194.17 1932.52   1
  -7  -3   4 1491.88 1245.83   1
  -7  -3  -4 1768.74 3279.25   1
  -7   3   4 2346.22 1741.95   1
   7  -3  -4 1723.08 1346.89   1
  -7   3  -4 703.220 1842.62   1
  -7  -3  -4 1371.45 2031.50   1
   2   0 -11 300.880 1338.25   1
  -2   0 -11 -219.45 1824.48   1
  -3  -3 -10 5530.91 1895.07   1
  -3  -3 -10 3197.22 3067.61   1
   3  -3 -10 2634.01 1427.18   1
  -3  -5  -9 20851.0 3978.13   1
   3  -5  -9 18577.3 2002.99   1
  -3   5  -9 24934.5 3009.48   1
  -3  -5  -9 16634.0 4178.49   1
   0  -5 -10 -374.97 988.950   1
   0  -5 -10 1448.92 2110.38   1
  -5  -8  -1 4105.54 1521.15   1
  -5   8   1 11270.7 3116.19   1
  -5  -8   1 3346.81 1198.31   1
   5  -8  -1 11731.3 2772.92   1
  -5   8  -1 13010.7 2893.22   1
  -5  -8   1 9259.60 8439.45   1
  -5  -8  -1 12922.3 3029.39   1
  -6   5  -5 4797.38 2172.57   1
   6  -5  -5 4650.52 1020.43   1
  -6   5   5 5264.89 2090.38   1
  -6  -5   5 4092.92 1718.90   1
  -6  -5  -5 6119.32 4986.13   1
  -6  -5  -5 2245.48 3232.67   1
  -6   4   6 70372.0 6121.43   1
  -6  -4   6 77068.9 6063.69   1
   6  -4  -6 66336.1 4410.72   1
  -6   4  -6 63425.8 5075.31   1
  -6  -4  -6 72617.4 8128.63   1
  -6  -4  -6 46843.9 7199.54   1
  -2  -9   5 16840.5 4117.50   1
  -2   9  -5 12218.5 2541.05   1
  -2  -9   5 8473.20 779.710   1
   2  -9  -5 8689.12 1189.36   1
  -2  -9  -5 9087.94 5319.07   1
  -2  -9  -5 15186.1 2375.52   1
  -4   9   0 1382.06 1810.60   1
   4  -9   0 1077.72 972.340   1
  -4  -9   0 428.090 632.540   1
  -4  -9   0 1417.55 1972.53   1
  -2   1 -11 92576.3 7617.40   1
  -2  -1 -11 91722.3 7465.23   1
   2   1 -11 77487.7 5904.55   1
   2  -1 -11 64010.2 5328.77   1
  -7  -4   3 1149.70 1932.84   1
  -7  -4  -3 793.400 2210.25   1
  -7   4  -3 565.400 2026.89   1
  -7   4   3 1698.42 2441.93   1
  -7  -4  -3 4003.54 3778.86   1
  -1 -10  -3 53271.4 6493.93   1
  -1 -10   3 46707.5 3982.42   1
   1 -10  -3 45912.3 5517.25   1
  -1 -10   3 49842.9 3236.79   1
  -1 -10  -3 59472.7 4251.02   1
   1 -10  -3 50863.0 3545.06   1
   1 -10   3 49239.9 3304.82   1
  -2  -7   8 99139.1 6560.06   1
  -2  -7  -8 106499. 7572.42   1
   2  -7  -8 94214.9 6608.84   1
  -2   7  -8 122608. 9019.30   1
   2  -7  -8 118252. 7935.20   1
  -2  -7  -8 148675. 10305.2   1
  -5  -5  -7 1622.96 1559.42   1
  -5  -5   7 426.650 1246.00   1
  -5   5  -7 670.730 2049.39   1
  -5   5   7 577.690 1303.01   1
   5  -5  -7 832.940 740.280   1
  -5  -5  -7 -28.620 2086.70   1
  -5  -6  -6 13052.3 9695.00   1
  -5  -6   6 9077.33 2025.65   1
  -5   6  -6 10639.8 3112.36   1
  -5   6   6 10180.4 5811.81   1
   5  -6  -6 9459.87 1140.70   1
  -5  -6  -6 8064.36 2886.51   1
  -3  -8  -6 13453.0 7082.51   1
  -3  -8   6 12253.5 2234.56   1
  -3  -8  -6 16354.5 2650.06   1
  -3   8   6 13713.0 2696.78   1
   3  -8  -6 12213.2 3994.04   1
  -3   8  -6 15222.7 2644.41   1
  -4   9  -1 6650.74 3356.25   1
  -4   9   1 6918.86 2997.71   1
   4  -9   1 6541.35 3189.07   1
   4  -9  -1 6162.31 883.990   1
  -4  -9   1 3977.46 2620.87   1
  -4  -9  -1 4860.75 3553.39   1
  -4  -9   1 6243.91 4188.63   1
  -4  -9  -1 5487.14 5858.28   1
   0   3 -11 937.580 2983.64   1
   0  -3 -11 -80.470 1196.20   1
  -3  -9  -4 194594. 13006.4   1
  -3  -9   4 230194. 21085.9   1
  -3   9  -4 201389. 18590.2   1
  -3   9   4 191732. 13180.3   1
   3  -9  -4 187998. 11941.8   1
  -3  -9  -4 215116. 19813.3   1
  -1  -5 -10 3692.61 1228.87   1
   1  -5 -10 5698.26 1450.24   1
  -1  -5 -10 2897.25 2995.37   1
   1  -5 -10 2635.62 2352.51   1
  -2 -10   2 5319.69 904.740   1
  -2 -10  -2 4929.76 2125.45   1
   2 -10  -2 6311.48 1506.84   1
   2 -10   2 7390.92 847.820   1
  -2  10  -2 6416.21 1991.40   1
  -2 -10  -2 10065.1 5598.18   1
  -2 -10   2 9771.00 5914.99   1
  -7   2   5 -261.58 2223.91   1
  -7  -2   5 963.380 1930.05   1
  -7  -2  -5 583.240 1810.09   1
  -7   2  -5 410.540 1792.05   1
   7  -2  -5 333.020 615.000   1
  -7   5   0 27798.2 4800.72   1
  -7  -5   0 30823.8 4347.89   1
  -2  -6  -9 721.520 742.760   1
  -2  -6  -9 1620.24 1146.97   1
   2  -6  -9 663.110 980.300   1
   2  -6  -9 -147.04 1209.05   1
  -5  -8   2 33319.5 3859.31   1
  -5  -8  -2 39254.1 4318.21   1
  -5  -8  -2 20949.5 4597.56   1
  -5   8   2 28467.4 10144.4   1
   5  -8  -2 33243.4 2649.62   1
  -5   8  -2 28176.2 3443.58   1
   0  -9   6 488.300 908.640   1
   0  -9  -6 230.170 633.060   1
   0  -9  -6 363.490 527.700   1
  -5   0  -9 -290.16 1593.15   1
  -5   0  -9 3305.29 4662.13   1
  -5   0   9 1054.76 1445.81   1
  -7  -5  -1 18767.8 8748.60   1
  -7   5   1 18137.0 3442.62   1
  -7  -5   1 17782.5 3613.71   1
  -7   5  -1 19001.1 5366.46   1
  -4   0 -10 6626.68 2905.59   1
  -4   0 -10 17384.1 3385.55   1
   4   0 -10 8425.26 3442.40   1
  -4   4  -9 402.130 1271.93   1
  -4   4   9 -91.700 1447.24   1
  -4  -4  -9 1364.21 3013.13   1
   4  -4  -9 -338.56 766.650   1
  -4  -4  -9 1338.91 2360.46   1
  -8   0   0 5048.41 2587.54   1
   1  -3 -11 18948.0 2071.42   1
  -1  -3 -11 21909.0 3166.16   1
   1   3 -11 21752.4 3279.73   1
  -1   3 -11 23593.7 4326.08   1
  -6  -7   0 -1232.0 1825.59   1
  -6   7   0 470.140 1720.55   1
  -6  -7   0 1123.36 1391.71   1
  -2  -8   7 4999.43 3387.41   1
  -2  -8  -7 5391.08 4896.70   1
  -2  -8  -7 9185.31 1704.15   1
   2  -8  -7 7801.55 1376.24   1
  -2   8  -7 8226.67 2258.12   1
   2  -8  -7 9282.70 5763.91   1
   2  -2 -11 1612.37 1663.45   1
  -2  -2 -11 2014.47 1397.86   1
  -2   2 -11 763.980 1884.62   1
   2   2 -11 1406.85 1330.66   1
  -2  -2 -11 1958.54 1932.24   1
  -6  -6  -4 21174.4 4087.23   1
   6  -6  -4 18878.2 1751.17   1
  -6   6   4 15631.9 6148.42   1
  -6  -6   4 22966.3 3503.50   1
  -6   6  -4 17366.7 3242.98   1
  -6  -6  -4 11303.1 3619.10   1
   5  -1  -9 403.520 453.310   1
  -5   1   9 471.830 1417.14   1
  -5  -1  -9 1379.56 3007.67   1
  -5  -1  -9 1048.34 3250.25   1
  -5   1  -9 41.4500 2317.37   1
  -5   1  -9 770.950 1906.33   1
  -5  -1   9 680.880 753.890   1
  -4  -9  -2 4330.31 3182.79   1
   4  -9  -2 7717.98 1338.28   1
  -4   9   2 7832.50 9458.72   1
  -4   9  -2 9485.49 4816.08   1
  -4  -9   2 8054.25 6534.17   1
  -4  -9  -2 10396.1 4858.79   1
  -4  -9   2 3091.06 1943.71   1
  -4   1 -10 6684.58 1639.00   1
  -4  -1 -10 7304.99 3131.42   1
  -4   1  10 5227.62 2650.62   1
   4  -1 -10 3516.02 2141.55   1
  -4  -1 -10 3339.35 3737.69   1
  -4   1 -10 2764.74 3796.52   1
  -8   0   1 2706.66 2966.86   1
  -8   0  -1 159.010 1951.37   1
  -6  -7   1 -61.180 868.560   1
  -6  -7  -1 443.510 1244.71   1
  -6   7   1 -404.63 2515.80   1
  -6   7  -1 -1183.0 2864.16   1
  -6  -7   1 785.430 2195.88   1
  -6  -7  -1 -189.15 2058.29   1
  -8  -1   0 352.290 1169.21   1
  -8   1   0 543.660 1817.60   1
  -6  -3   7 5586.89 2133.57   1
  -6  -3  -7 2836.01 4532.54   1
   6  -3  -7 3833.00 2496.96   1
  -6  -3  -7 8081.86 3213.82   1
  -6   3   7 3997.49 2301.48   1
  -6   3  -7 4644.58 1873.21   1
  -4   8   5 2665.41 2274.45   1
   4  -8  -5 2267.12 1559.97   1
  -4  -8  -5 2553.60 2200.48   1
  -4  -8   5 2137.40 2524.14   1
  -4   8  -5 2281.79 1690.46   1
  -4  -8  -5 1385.75 1466.10   1
   1  -9  -6 -43.830 1190.49   1
  -1  -9   6 734.760 1102.20   1
  -1  -9  -6 -369.19 1550.83   1
  -1  -9   6 181.430 346.940   1
   1  -9  -6 903.860 860.510   1
  -1  -9  -6 435.990 1557.42   1
   5  -4  -8 33786.1 2725.83   1
  -5  -4  -8 39411.4 3664.70   1
  -5  -4   8 35236.1 3105.43   1
  -5  -4  -8 29374.1 4809.59   1
  -5   4  -8 40681.4 4225.66   1
  -5   4   8 37872.9 8721.00   1
   0 -10   4 307292. 27724.8   1
   0 -10   4 286737. 25717.8   1
   0 -10  -4 332789. 30125.9   1
   0 -10  -4 262924. 24175.3   1
   5  -7  -5 864.520 682.650   1
  -5   7  -5 2771.22 1769.04   1
  -5   7   5 1287.74 1394.99   1
  -5  -7  -5 -422.39 1681.39   1
  -5  -7  -5 1484.01 2050.49   1
  -5  -7   5 1676.97 1486.80   1
  -8   1   1 19642.0 4038.58   1
  -8   1  -1 18239.8 3672.20   1
  -8  -1   1 24283.3 4838.74   1
  -8  -1  -1 26049.7 4907.04   1
  -7  -5  -2 509.700 2725.71   1
  -7   5   2 3318.91 2635.92   1
  -7  -5  -2 2446.83 2853.35   1
  -7  -5   2 2705.30 2447.02   1
  -7   5  -2 2297.77 2434.51   1
   2 -10   3 6815.48 893.640   1
  -2  10  -3 9209.63 2959.57   1
  -2 -10  -3 5534.60 4873.03   1
  -2 -10   3 4977.34 3285.02   1
   2 -10  -3 8343.94 1167.60   1
  -2 -10   3 8501.42 1411.50   1
  -2 -10  -3 9454.39 1485.04   1
   7  -4  -4 1417.26 1020.66   1
  -7  -4  -4 -476.76 2369.72   1
  -7   4  -4 2064.33 2800.08   1
  -7  -4  -4 551.140 2341.75   1
  -7  -4   4 1944.23 2830.24   1
  -7   4   4 1141.37 2211.83   1
  -8   0   2 6915.70 2681.12   1
  -8   0  -2 7576.00 3926.18   1
   1 -10   4 150203. 9523.40   1
   1 -10  -4 153927. 10689.3   1
  -1 -10   4 158592. 10618.7   1
  -1 -10  -4 149031. 10282.4   1
  -1 -10   4 160135. 10239.6   1
   1 -10  -4 170621. 11310.8   1
  -5  -8   3 17490.7 11876.8   1
  -5  -8  -3 23226.5 4057.76   1
   5  -8  -3 20288.5 3350.81   1
  -5  -8  -3 10728.7 2626.04   1
  -5   8  -3 16331.7 2769.33   1
  -5   8   3 23109.4 9988.55   1
  -3  -4 -10 6409.95 2185.96   1
   3  -4 -10 1792.17 1881.63   1
  -3  -4 -10 4266.52 2460.14   1
   3  -4 -10 6548.03 3692.22   1
  -6  -7  -2 548.310 2360.34   1
   6  -7  -2 367.390 475.770   1
  -6   7   2 1948.57 2891.46   1
  -6  -7   2 -716.97 2199.49   1
  -6  -7  -2 683.860 1129.06   1
  -6   7  -2 140.840 3014.20   1
  -5  -2  -9 -610.06 3435.47   1
   5  -2  -9 568.170 931.590   1
  -5   2  -9 2148.59 1798.96   1
  -5  -2  -9 295.840 1892.37   1
  -5   2   9 939.850 955.640   1
  -7  -3   5 11946.9 3410.79   1
  -7   3   5 9453.79 3271.50   1
   7  -3  -5 9308.97 2949.60   1
  -7  -3  -5 4935.44 4867.22   1
  -7   3  -5 9043.05 3450.12   1
  -7  -3  -5 8512.29 2526.76   1
  -4   2  10 53401.2 4161.70   1
  -4  -2 -10 39103.8 5181.63   1
  -4  -2 -10 63496.1 6965.25   1
  -4   2 -10 52046.6 4663.53   1
   4  -2 -10 50474.4 5839.71   1
   2  -5 -10 31672.7 2693.75   1
  -2  -5 -10 21231.0 2691.91   1
   2  -5 -10 16263.0 3011.11   1
  -2  -5 -10 14643.0 3769.15   1
  -7   0  -6 25801.9 3804.45   1
  -7   0   6 23533.4 3599.97   1
  -8   2   0 449.300 2000.26   1
  -8  -2   0 122.420 1689.76   1
  -3 -10   0 22147.0 4676.72   1
   3 -10   0 20600.4 2877.99   1
  -3  10   0 20134.1 7026.62   1
  -3 -10   0 21727.4 1989.08   1
  -8  -1  -2 15267.1 3641.90   1
  -8  -1   2 14463.7 3291.52   1
  -8   1  -2 13502.7 4306.89   1
  -8   1   2 16815.6 3793.70   1
  -6   0  -8 10616.2 3473.37   1
  -6   0   8 37789.6 4789.81   1
  -6   0  -8 37063.8 4083.20   1
   4  -9  -3 9092.97 1520.26   1
  -4  -9  -3 4865.68 2259.71   1
  -4   9  -3 9984.18 5326.67   1
  -4  -9   3 10494.6 3312.58   1
  -4  -9  -3 10935.8 7954.29   1
  -4   9   3 9542.35 7376.38   1
  -8  -2   1 108.330 1827.84   1
  -8   2   1 110.430 1859.35   1
  -8   2  -1 387.090 2204.10   1
  -8  -2  -1 -229.22 1868.31   1
  -7  -1   6 6253.74 2541.00   1
   7  -1  -6 5456.04 1228.42   1
  -7  -1  -6 3425.34 1798.55   1
  -7   1   6 3820.80 2184.00   1
  -7   1  -6 3636.15 2039.83   1
  -3 -10   1 1404.70 1569.95   1
  -3 -10  -1 626.860 865.130   1
  -3 -10   1 101.160 557.770   1
   3 -10  -1 216.650 406.300   1
  -3  10  -1 805.150 1074.93   1
  -3  10   1 700.050 2595.67   1
   3 -10   1 409.920 614.490   1
  -3 -10  -1 661.190 702.270   1
   0  -7  -9 551.260 1157.29   1
   0  -7  -9 -312.76 1299.68   1
  -3   0 -11 2224.01 4129.52   1
   3   0 -11 417.270 1036.66   1
  -2  -3 -11 62266.5 5705.97   1
  -2   3 -11 55440.6 5871.96   1
  -2  -3 -11 51919.5 4143.84   1
   2  -3 -11 66268.3 4947.16   1
   0  -4 -11 13412.8 2090.95   1
   0  -4 -11 15610.4 2066.10   1
  -6   1   8 4452.50 2791.57   1
  -6  -1  -8 794.340 2998.26   1
  -6   1  -8 5592.22 2065.79   1
  -6  -1   8 4225.81 1609.19   1
   6  -1  -8 3667.53 2184.77   1
  -6  -1  -8 2979.11 2428.68   1
  -4   6  -8 52531.1 5084.40   1
  -4  -6   8 46686.3 3671.62   1
  -4  -6  -8 48033.8 4025.56   1
  -4  -6  -8 33374.9 4978.98   1
   4  -6  -8 36961.8 5040.64   1
  -4   6   8 42169.5 4168.42   1
   0  -8  -8 334413. 30257.3   1
   0  -8  -8 289737. 26194.1   1
   0  -8   8 310066. 27902.4   1
  -3  -9   5 3372.03 2223.42   1
  -3  -9  -5 3650.68 4186.58   1
  -3  -9  -5 2920.58 1562.26   1
   3  -9  -5 3159.40 1060.54   1
  -3   9   5 1736.86 1801.88   1
  -3   9  -5 3619.06 2456.30   1
   3  -1 -11 68360.7 5777.34   1
  -3  -1 -11 52095.0 5310.10   1
  -3   1 -11 47110.6 5198.96   1
  -4   7   7 6467.10 4608.71   1
   4  -7  -7 5355.33 3317.36   1
  -4  -7  -7 5067.79 3791.32   1
  -4  -7   7 7118.96 1908.45   1
  -4  -7  -7 7025.04 5297.41   1
  -4   7  -7 4506.05 4339.52   1
  -6  -5  -6 1408.49 2157.98   1
  -6   5  -6 1723.38 2420.34   1
   6  -5  -6 2449.79 1512.95   1
  -6   5   6 2336.32 2635.10   1
  -6  -5  -6 2797.09 1970.70   1
  -6  -5   6 1907.97 1552.92   1
  -7   5   3 5093.04 2725.34   1
   7  -5  -3 7733.91 1183.12   1
  -7  -5  -3 927.320 1760.93   1
  -7  -5  -3 8917.15 3841.34   1
  -7  -5   3 6832.98 2643.72   1
  -7   5  -3 7445.64 3700.02   1
   2  -9  -6 2729.36 1938.05   1
  -2  -9  -6 1487.37 1335.18   1
   2  -9  -6 1495.05 1303.47   1
  -2   9  -6 1616.74 2464.46   1
  -2  -9   6 1449.82 1093.52   1
  -2  -9  -6 1848.73 2232.68   1
   3  -7  -8 149724. 13614.1   1
  -3   7  -8 157008. 14590.4   1
  -3  -7  -8 141597. 13221.0   1
  -3  -7  -8 156573. 15678.2   1
  -3  -7   8 165918. 15682.4   1
   1  -7  -9 3573.90 3910.50   1
  -1  -7  -9 4295.10 4188.01   1
  -1  -7  -9 2130.22 1666.85   1
   1  -7  -9 1360.57 1057.19   1
  -1  -4 -11 5000.63 1499.28   1
  -1  -4 -11 8837.49 4454.11   1
   1  -4 -11 10044.9 3059.36   1
  -8   2   2 26736.4 5232.41   1
  -8   2  -2 33509.5 5357.76   1
  -8  -2   2 36897.3 5758.56   1
  -8  -2  -2 31441.8 4807.31   1
   3 -10  -2 6101.95 1363.39   1
  -3 -10   2 8410.66 1443.86   1
  -3 -10  -2 7382.90 2643.77   1
   3 -10   2 4195.38 934.660   1
  -3 -10   2 3316.41 2826.86   1
  -3 -10  -2 2147.78 2207.87   1
  -3  10   2 6105.02 3962.54   1
  -3  10  -2 6012.48 2116.28   1
  -1  -8  -8 185692. 17562.9   1
   1  -8  -8 215138. 20209.6   1
  -1  -8   8 180955. 17254.1   1
   1  -8  -8 204671. 19329.5   1
  -1  -8  -8 251224. 23674.1   1
  -8   0   3 1307.11 1758.84   1
  -8   0  -3 222.290 2537.79   1
  -3  -6  -9 -118.89 1694.99   1
   3  -6  -9 324.470 599.520   1
  -3  -6  -9 669.100 1192.12   1
  -6  -7  -3 1075.92 1729.14   1
  -6  -7  -3 4573.15 2678.35   1
  -6  -7   3 6063.91 6147.63   1
  -6   7  -3 6520.36 3409.90   1
  -6   7   3 4172.43 2689.41   1
   6  -7  -3 4866.07 1808.24   1
   0  -6 -10 9849.39 3685.29   1
   0  -6 -10 8607.32 2804.18   1
  -7   2   6 7909.61 2791.57   1
  -7   2  -6 9773.34 2729.03   1
   7  -2  -6 10196.5 1531.49   1
  -7  -2  -6 2172.63 2812.68   1
  -7  -2   6 8846.49 3147.74   1
  -7  -2  -6 9455.00 2831.45   1
  -6  -6  -5 7846.96 3034.37   1
   6  -6  -5 6493.74 2014.07   1
  -6   6   5 5548.19 3736.23   1
  -6   6  -5 8079.18 3335.23   1
  -6  -6  -5 2777.23 2940.85   1
  -6  -6   5 7541.27 2389.85   1
  -6   4   7 6095.51 2426.02   1
  -6   4  -7 4255.99 1787.10   1
  -6  -4  -7 2096.05 3791.65   1
  -6  -4   7 3767.56 1466.95   1
  -6  -4  -7 4016.46 2490.53   1
   6  -4  -7 4739.21 2255.82   1
   0   0 -12 576.230 1312.46   1
  -8  -1   3 8126.26 3062.43   1
  -8   1  -3 10352.9 3676.08   1
  -8   1   3 6835.42 2575.20   1
  -8  -1  -3 8192.88 2856.81   1
   5  -3  -9 650.920 619.340   1
  -5  -3  -9 1219.85 2187.04   1
  -5   3  -9 1513.27 2530.50   1
  -5   3   9 931.320 1469.25   1
  -5  -3  -9 29.1200 2373.53   1
  -6  -2  -8 11515.3 4145.95   1
   6  -2  -8 25620.4 2765.02   1
  -6   2  -8 34350.5 4690.94   1
  -6  -2  -8 43236.8 5745.64   1
  -6  -2   8 33820.7 4426.27   1
  -6   2   8 41109.2 5297.76   1
  -2 -10  -4 113761. 10572.6   1
  -2 -10   4 113708. 10674.8   1
  -2 -10  -4 117310. 11245.3   1
  -2  10  -4 107885. 10521.4   1
   2 -10   4 110429. 10058.8   1
   2 -10  -4 105430. 9599.91   1
  -2 -10   4 105223. 9544.02   1
  -4   3 -10 1877.34 1024.80   1
  -4   3  10 1146.29 1802.86   1
  -4  -3 -10 2966.36 1891.09   1
   4  -3 -10 1497.80 1242.70   1
  -4  -3 -10 -1769.1 2896.57   1
  -4  -5  -9 6650.48 4591.68   1
  -4   5  -9 8038.70 5819.65   1
  -4   5   9 5470.22 4283.39   1
   4  -5  -9 6743.95 3005.51   1
  -4  -5  -9 7293.09 3421.09   1
  -5  -6   7 14642.1 5829.99   1
  -5   6   7 11171.9 8364.20   1
  -5  -6  -7 8299.42 2913.62   1
   5  -6  -7 10207.1 2932.41   1
  -5   6  -7 12742.0 3226.57   1
  -5  -6  -7 14120.8 3154.54   1
  -3  -8  -7 453.440 828.370   1
  -3  -8  -7 764.760 1573.40   1
  -3   8  -7 1391.04 2503.81   1
   3  -8  -7 287.480 1027.97   1
  -3  -8   7 989.000 1395.68   1
  -8   3   0 398.280 2059.23   1
  -8  -3   0 1945.66 3580.20   1
  -3  -2 -11 190.770 887.870   1
   3  -2 -11 -31.220 1515.39   1
  -3  -2 -11 535.910 3201.63   1
  -3   2 -11 791.950 2270.62   1
   0 -10   5 11537.0 2844.13   1
   0 -10  -5 9646.62 2002.94   1
   0 -10   5 18248.6 1814.45   1
   0 -10  -5 23821.9 3124.99   1
   5  -8  -4 11468.9 1590.95   1
  -5  -8  -4 15907.8 10328.5   1
  -5  -8  -4 4140.19 3118.29   1
  -5   8   4 12719.2 3058.68   1
  -5   8  -4 10081.3 2540.18   1
  -5  -8   4 15539.6 11025.0   1
   0 -11   0 30.2600 261.080   1
   0 -11   0 -413.69 1891.23   1
   0   1 -12 1707.38 2243.61   1
   0  -1 -12 687.750 2225.34   1
  -1  -6 -10 7771.09 2174.59   1
   1  -6 -10 6510.90 1681.41   1
  -1  -6 -10 8543.60 3931.95   1
   1  -6 -10 11645.7 4833.41   1
  -8   3   1 15285.2 4323.07   1
  -8  -3  -1 13763.5 3489.71   1
  -8  -3   1 19346.0 4161.08   1
  -8   3  -1 13544.3 3186.58   1
  -7   6   0 -116.48 2646.17   1
  -7  -6   0 229.680 2466.51   1
   0 -11  -1 336.950 840.540   1
   0 -11   1 -148.63 544.100   1
   0 -11  -1 1564.22 1525.21   1
  -1   0 -12 315.240 2098.47   1
   1   0 -12 1575.43 1903.51   1
   0  -9  -7 -334.76 983.000   1
   0  -9  -7 843.810 1893.33   1
   0  -9   7 -354.39 1100.18   1
  -4  -8   6 44230.9 4717.83   1
  -4   8   6 34106.4 6165.12   1
   4  -8  -6 36118.0 3816.73   1
  -4  -8  -6 27729.8 5044.27   1
  -4  -8  -6 40663.9 5258.37   1
  -4   8  -6 37348.0 5754.49   1
  -5   5  -8 13073.0 3522.29   1
  -5  -5  -8 17513.1 2950.14   1
  -5  -5  -8 4819.89 2282.04   1
  -5  -5   8 11924.2 1907.78   1
  -5   5   8 10820.6 6770.39   1
   5  -5  -8 10283.6 1485.21   1
   4  -9  -4 105445. 9700.57   1
  -4  -9  -4 90482.8 10992.5   1
  -4   9  -4 101852. 10214.1   1
  -4  -9  -4 111102. 10842.3   1
  -4  -9   4 96956.7 9321.37   1
  -4   9   4 105893. 10340.4   1
  -7  -6  -1 485.910 1918.70   1
  -7  -6  -1 308.700 2192.86   1
  -7  -6   1 888.820 2148.46   1
  -7   6  -1 1846.41 2832.10   1
  -7   6   1 1559.43 3054.27   1
  -7  -4  -5 548.630 2242.60   1
  -7   4  -5 188.120 1825.06   1
  -7   4   5 955.530 1120.78   1
   7  -4  -5 524.820 590.870   1
  -7  -4  -5 1066.82 2892.81   1
  -7  -4   5 1341.16 1698.08   1
  -1 -10   5 20217.3 2197.66   1
  -1 -10  -5 23027.7 8566.54   1
   1 -10  -5 18036.0 3374.56   1
  -1 -10   5 25335.2 4878.93   1
   1 -10   5 23816.5 2389.10   1
  -1 -10  -5 26863.2 2944.22   1
   1 -10  -5 26082.3 2822.51   1
  -5  -7   6 97.0800 653.460   1
  -5  -7  -6 1540.37 2156.57   1
  -5   7   6 337.270 1263.68   1
  -5   7  -6 -1198.9 2223.88   1
  -5  -7  -6 -58.960 1850.31   1
   5  -7  -6 584.900 584.550   1
   1 -11   0 70228.0 7482.79   1
  -1 -11   0 73003.5 7830.77   1
  -1 -11   0 59518.5 5507.00   1
   1 -11   0 58779.9 5451.13   1
  -1   1 -12 23783.3 5701.78   1
  -1  -1 -12 16276.9 3051.29   1
   1   1 -12 20398.8 3939.00   1
   1  -1 -12 13866.6 2855.87   1
  -8   2  -3 2126.85 3026.48   1
  -8  -2   3 2513.11 3541.23   1
  -8  -2  -3 1625.00 3233.05   1
  -8   2   3 2712.15 2969.13   1
  -3  10  -3 3545.19 3074.41   1
   3 -10  -3 1964.95 1476.50   1
   3 -10   3 3131.86 2018.95   1
  -3 -10   3 918.210 1071.28   1
  -3 -10  -3 1696.23 1174.24   1
  -3 -10  -3 3227.05 2435.06   1
  -3 -10   3 3035.79 2415.46   1
  -3  10   3 2801.28 2614.00   1
   2  -7  -9 1417.57 1278.73   1
  -2  -7  -9 2263.92 1754.68   1
  -2  -7  -9 2341.80 1842.85   1
   2  -7  -9 2320.88 2728.59   1
   1 -11   1 8825.99 5320.85   1
  -1 -11   1 1100.26 1098.90   1
  -1 -11   1 5601.27 3112.62   1
   1 -11  -1 1312.27 1058.60   1
  -1 -11  -1 6787.32 4498.93   1
   1 -11  -1 6528.45 3848.43   1
  -1 -11  -1 924.880 587.960   1
   1 -11   1 1617.42 1008.62   1
  -1  -9   7 10239.9 3664.40   1
   1  -9  -7 9692.66 1959.86   1
  -1  -9  -7 7918.23 1871.65   1
   1  -9  -7 5442.83 1122.97   1
  -1  -9   7 7945.78 927.230   1
  -1  -9  -7 8579.07 2414.57   1
  -7  -5  -4 -510.84 2462.68   1
  -7  -5   4 1103.88 1758.70   1
  -7   5  -4 1179.53 2386.72   1
  -7  -5  -4 857.840 1466.36   1
   7  -5  -4 -188.29 636.010   1
  -7   5   4 2261.68 2060.54   1
   2  -4 -11 1423.70 1236.50   1
  -2  -4 -11 933.790 620.270   1
  -2  -4 -11 2794.09 2518.73   1
  -8   3   2 2285.84 2889.57   1
  -8   3  -2 3695.35 2690.08   1
  -8  -3  -2 5100.73 2720.85   1
  -8  -3   2 4563.18 2652.13   1
   3  -5 -10 8810.96 3988.04   1
  -3  -5 -10 8832.92 6888.03   1
   3  -5 -10 13127.4 2719.97   1
  -3  -5 -10 9555.13 5865.37   1
   0   2 -12 762660. 71604.1   1
   0  -2 -12 615922. 57906.7   1
   0 -11   2 549.630 998.710   1
   0 -11  -2 1.72000 734.800   1
   0 -11   2 -189.76 440.900   1
   0 -11  -2 -581.52 1935.53   1
   2  -8  -8 122845. 12172.8   1
  -2  -8  -8 113883. 10837.6   1
   2  -8  -8 102977. 9537.70   1
  -2   8  -8 109579. 10634.0   1
  -2  -8   8 102234. 9790.23   1
  -2  -8  -8 101290. 10383.8   1
  -7  -3  -6 13199.6 4533.28   1
  -7  -3   6 11499.4 5269.42   1
  -7   3   6 10292.5 2926.43   1
  -7   3  -6 13306.7 3768.35   1
  -7  -3  -6 3309.52 3836.47   1
   7  -3  -6 12247.8 2477.41   1
  -5  -9   0 2474.80 1502.93   1
   5  -9   0 10055.1 2625.52   1
  -5  -9   0 10473.9 8181.77   1
  -5   9   0 9642.15 5393.68   1
  -7   6   2 11727.2 6566.07   1
  -7  -6   2 13874.7 8860.56   1
  -7  -6  -2 22066.1 5163.07   1
  -7  -6  -2 274.470 1369.48   1
  -7   6  -2 13976.4 4188.97   1
  -8   0  -4 3788.60 3689.72   1
  -8   0   4 2903.70 3197.40   1
  -6  -7  -4 4225.97 2534.43   1
   6  -7  -4 18364.0 3620.24   1
  -6   7   4 13499.7 6371.06   1
  -6   7  -4 18206.2 3544.59   1
  -6  -7  -4 24015.7 9140.66   1
  -6  -7   4 25175.7 4007.75   1
  -6  -3  -8 1212.96 3070.11   1
  -6   3   8 4700.62 1824.89   1
  -6  -3   8 5637.17 1536.35   1
  -6  -3  -8 9881.26 3270.42   1
   6  -3  -8 3644.69 2058.24   1
  -6   3  -8 5514.47 2208.96   1
  -5  -9  -1 -246.83 2541.22   1
  -5  -9   1 811.030 1980.12   1
  -5  -9   1 230.130 736.630   1
  -5  -9  -1 43.1000 578.810   1
   5  -9  -1 568.850 669.900   1
  -5   9   1 -410.75 2693.11   1
  -5   9  -1 516.440 1673.98   1
  -3  -3 -11 68186.4 6770.15   1
  -3  -3 -11 53816.7 6615.99   1
   3  -3 -11 60831.9 6305.11   1
  -1   2 -12 381889. 36107.6   1
  -1  -2 -12 428394. 40329.9   1
   1   2 -12 644471. 60384.8   1
   1  -2 -12 371359. 34825.5   1
   0  -5 -11 1193.85 1921.28   1
   0  -5 -11 -444.65 907.310   1
  -8   1   4 423.770 1995.34   1
  -8  -1  -4 -282.38 1843.02   1
  -8   1  -4 1579.78 3222.91   1
  -8  -1   4 350.350 1957.84   1
  -1 -11  -2 1022.24 911.080   1
   1 -11  -2 1150.38 707.880   1
   1 -11   2 1172.63 832.510   1
  -1 -11  -2 906.200 1518.40   1
  -1 -11   2 3.50000 1329.21   1
   1 -11  -2 922.290 1345.67   1
   1 -11   2 -140.75 2148.24   1
  -1 -11   2 764.480 672.440   1
  -7   0   7 -400.87 1540.59   1
  -7   0  -7 1037.53 2183.04   1
   2  -6 -10 2525.43 1848.68   1
  -2  -6 -10 429.400 1214.95   1
   2  -6 -10 1077.30 981.570   1
  -2  -6 -10 2116.32 3165.50   1
  -3  -9  -6 2628.49 2956.87   1
  -3  -9   6 1259.11 1653.48   1
  -3   9  -6 1734.29 1898.19   1
   3  -9  -6 1334.81 896.170   1
  -3  -9  -6 2261.20 1783.20   1
  -6   8   0 10673.6 3570.26   1
  -6  -8   0 3231.42 1679.16   1
  -6  -8   0 9360.91 5331.24   1
  -5   0 -10 3754.74 3655.65   1
  -5   0 -10 9204.36 2827.13   1
   2   0 -12 9311.26 2721.36   1
  -2   0 -12 10542.0 3506.82   1
  -5   4   9 1095.61 1401.18   1
  -5  -4  -9 1095.55 2514.44   1
   5  -4  -9 1529.54 858.160   1
  -5  -4  -9 1262.44 1878.78   1
  -5   4  -9 753.980 1800.65   1
   4  -4 -10 12446.0 2650.83   1
  -4  -4 -10 16298.9 7675.89   1
  -4   4  10 16272.3 2889.53   1
  -4  -4 -10 13545.8 6874.99   1
  -7  -1   7 8586.28 2233.69   1
  -7   1   7 10293.3 2687.10   1
  -7  -1  -7 14013.0 3946.87   1
  -7   1  -7 13229.5 4029.36   1
  -6  -8   1 12106.0 3325.30   1
  -6  -8  -1 3125.07 1563.73   1
  -6   8   1 9720.64 5278.72   1
  -6  -8  -1 11363.5 10494.0   1
  -6   8  -1 7652.31 3920.94   1
   6  -8  -1 10838.1 3067.59   1
  -8   4   0 800.110 2371.08   1
  -8  -4   0 1050.56 2097.08   1
   1  -5 -11 16534.3 2536.00   1
  -1  -5 -11 15363.5 2619.31   1
   1  -5 -11 13979.3 1824.44   1
  -1  -5 -11 13159.6 2011.94   1
  -2  10  -5 5080.65 2189.94   1
  -2 -10  -5 3143.00 2442.06   1
   2 -10  -5 3861.63 3080.71   1
  -2 -10   5 2956.74 1848.50   1
   2 -10  -5 5438.36 2493.40   1
  -2 -10  -5 6783.01 4376.31   1
   4 -10   0 36230.9 3545.94   1
  -4 -10   0 22162.4 4027.45   1
  -4  10   0 32676.5 4644.75   1
  -4 -10   0 47028.9 5379.18   1
  -5  -9  -2 -111.38 1085.90   1
  -5  -9  -2 2025.22 2612.11   1
   5  -9  -2 -197.85 754.770   1
  -5   9   2 -446.75 2482.45   1
  -5   9  -2 916.060 2416.65   1
  -5  -9   2 757.970 2080.90   1
  -2 -11   0 160467. 15371.6   1
   2 -11   0 159003. 14941.9   1
  -2 -11   0 152588. 14131.3   1
   5  -1 -10 413.210 691.960   1
  -5  -1 -10 -1001.9 2340.59   1
  -5   1 -10 471.010 2745.36   1
  -5  -1 -10 699.270 1689.49   1
  -5   1 -10 589.020 1335.79   1
  -2  -1 -12 47274.3 6119.72   1
   2  -1 -12 33240.6 4142.55   1
   2   1 -12 33212.3 4440.18   1
  -2   1 -12 45987.1 8226.05   1
  -8  -3   3 8318.50 2653.55   1
  -8   3  -3 13978.3 4271.62   1
  -8   3   3 9869.86 3123.67   1
  -8  -3  -3 12302.1 4090.89   1
  -5  -8   5 2730.34 1721.09   1
  -5   8   5 4656.28 4429.75   1
  -5  -8  -5 2921.11 2518.03   1
  -5  -8  -5 5042.13 5718.26   1
  -5   8  -5 4193.41 2387.76   1
   5  -8  -5 4079.11 2484.64   1
  -8   4  -1 1252.35 1915.77   1
  -8  -4  -1 1577.56 2082.12   1
  -8  -4   1 947.110 1826.25   1
  -8   4   1 953.510 2213.40   1
   0 -11  -3 692.050 843.290   1
   0 -11   3 123.430 288.040   1
   0 -11  -3 482.200 1306.47   1
   0 -11   3 466.290 1312.01   1
  -6  -5  -7 2904.33 2523.52   1
  -6   5   7 1893.02 1369.18   1
  -6  -5  -7 1254.49 1981.25   1
  -6   5  -7 1340.44 2310.37   1
   6  -5  -7 2037.94 1578.53   1
  -6  -5   7 675.010 2019.13   1
  -4  10   1 13266.7 9724.56   1
  -4 -10   1 15145.3 2445.90   1
   4 -10   1 13702.8 1660.92   1
  -4 -10   1 7561.81 2229.73   1
  -4 -10  -1 9674.60 3635.91   1
  -4  10  -1 13652.3 3303.17   1
  -4 -10  -1 15892.5 6315.21   1
   4 -10  -1 13287.6 1596.42   1
   2 -11  -1 1892.89 1329.52   1
  -2 -11   1 1464.84 937.230   1
  -2 -11  -1 1288.94 1000.10   1
  -2 -11  -1 2982.64 2375.41   1
   2 -11   1 2457.61 1702.00   1
  -2 -11   1 2235.16 2001.70   1
   6  -6  -6 25073.5 2657.26   1
  -6   6   6 26609.8 4604.05   1
  -6   6  -6 26521.5 4212.92   1
  -6  -6   6 31388.3 4356.57   1
  -6  -6  -6 33497.8 5491.56   1
  -4   0 -11 -5.3000 1159.09   1
  -4   0 -11 938.040 3473.27   1
  -2   9  -7 10397.0 9431.50   1
   2  -9  -7 14187.4 6024.83   1
  -2  -9  -7 10683.2 2291.28   1
  -2  -9   7 11678.7 3923.43   1
  -2  -9  -7 13616.5 2319.55   1
   2  -9  -7 14193.2 3282.30   1
  -7   6   3 1004.41 2748.05   1
   7  -6  -3 1346.92 742.650   1
  -7  -6  -3 -217.18 1317.40   1
  -7  -6   3 3720.17 2699.92   1
  -7   6  -3 2308.91 2852.80   1
  -7  -6  -3 1902.10 2254.12   1
  -8  -2   4 2017.29 2893.69   1
  -8   2   4 225.250 2356.60   1
   8  -2  -4 62.9800 276.790   1
  -8   2  -4 204.520 2194.94   1
  -8  -2  -4 586.410 2157.86   1
   3 -10  -4 11014.2 1594.77   1
  -3 -10  -4 12273.4 2148.87   1
  -3  10  -4 10984.0 7483.17   1
  -3  10   4 11879.1 6286.44   1
  -3 -10  -4 8162.85 3674.50   1
  -3 -10   4 8862.93 5580.16   1
   0  -3 -12 1353.55 1492.19   1
   0   3 -12 2232.66 2693.95   1
  -4  -9  -5 3776.68 3566.37   1
  -4  -9  -5 2583.92 1684.40   1
   4  -9  -5 3263.40 1486.31   1
  -4  -9   5 3221.09 2746.55   1
  -4   9  -5 3637.39 3739.56   1
  -4   9   5 5201.04 3184.08   1
  -4  -1 -11 18796.1 6040.49   1
   4  -1 -11 17664.8 2726.80   1
  -4   1 -11 14285.2 6444.60   1
  -4  -1 -11 19299.3 3919.58   1
   0 -10  -6 928.920 1693.94   1
   0 -10  -6 1135.29 920.430   1
   0 -10   6 1022.26 637.100   1
   0 -10   6 1168.11 1117.80   1
  -6   8   2 34072.4 4386.51   1
  -6   8  -2 35689.1 5615.58   1
  -6  -8   2 50889.6 6442.35   1
  -6  -8  -2 64342.3 13089.5   1
   6  -8  -2 40970.5 4196.74   1
  -1 -11  -3 2929.10 3186.68   1
   1 -11  -3 3760.07 2753.78   1
   1 -11   3 4384.04 3828.16   1
  -1 -11   3 3839.84 2313.73   1
  -1 -11  -3 3088.39 2106.48   1
   1 -11  -3 2646.19 2193.89   1
  -1 -11   3 2293.44 752.190   1
   1 -11   3 2718.98 1913.77   1
  -4  -7  -8 66884.1 7384.31   1
   4  -7  -8 71329.3 6938.80   1
  -4   7   8 66099.8 7135.06   1
  -4   7  -8 68262.1 7475.14   1
  -4  -7  -8 67608.8 7396.97   1
   7  -2  -7 888.220 510.520   1
  -7   2   7 409.390 2595.17   1
  -7  -2  -7 -753.39 2943.78   1
  -7  -2   7 115.920 1322.33   1
  -7   2  -7 1264.00 1873.10   1
  -7  -2  -7 2429.88 3064.40   1
  -6   0  -9 -67.700 2090.44   1
  -6   0  -9 893.070 2391.50   1
  -6   0   9 1005.28 1312.45   1
   1  -3 -12 3028.17 2279.59   1
  -1  -3 -12 3987.83 3813.91   1
   1   3 -12 2382.40 1816.44   1
  -1   3 -12 1842.08 2308.14   1
  -8   4   2 19626.3 4408.49   1
  -8  -4  -2 22601.3 4488.82   1
  -8  -4   2 25875.3 4477.83   1
  -8   4  -2 22952.3 5554.54   1
  -5   2  10 74613.4 7767.04   1
  -5  -2 -10 69274.5 7556.74   1
  -5   2 -10 61424.4 6646.18   1
  -5  -2 -10 49776.2 9848.26   1
   5  -2 -10 50375.0 5584.64   1
   2  -2 -12 133078. 13434.9   1
  -2  -2 -12 153488. 18990.3   1
  -2   2 -12 141774. 14180.8   1
  -4 -10  -2 34373.7 4059.08   1
  -4 -10  -2 54175.8 6500.92   1
  -4 -10   2 55588.5 6232.14   1
  -4  10   2 40583.3 5763.87   1
   4 -10   2 46808.3 4728.92   1
   4 -10  -2 44151.5 4420.28   1
  -4  10  -2 39175.1 9175.36   1
   2 -11  -2 8031.55 2008.73   1
  -2 -11  -2 8316.90 1732.24   1
  -2 -11   2 7712.59 1050.75   1
  -2 -11  -2 12717.8 2815.68   1
   2 -11   2 9196.80 2213.46   1
  -2 -11   2 12150.5 4557.82   1
  -7   5   5 3847.35 2389.98   1
   7  -5  -5 4562.68 2500.36   1
  -7  -5   5 4987.35 2619.38   1
  -7  -5  -5 3607.07 2383.70   1
  -7   5  -5 3142.52 2892.13   1
  -7  -5  -5 145.480 2460.09   1
  -6   1   9 262.990 1247.54   1
  -6  -1   9 1699.21 2076.46   1
  -6  -1  -9 -788.90 3157.93   1
  -6  -1  -9 465.100 2517.38   1
  -6   1  -9 1038.40 2205.97   1
  -4  -6  -9 598.870 2528.61   1
  -4   6  -9 1044.23 2020.47   1
   4  -6  -9 14.6300 514.000   1
  -4   6   9 225.580 1510.88   1
  -4  -6  -9 371.860 615.830   1
   7  -4  -6 23107.5 2689.00   1
  -7   4   6 18611.9 10411.6   1
  -7   4  -6 20784.1 4268.44   1
  -7  -4   6 24924.5 3694.24   1
  -7  -4  -6 26243.6 5584.19   1
   0  -8  -9 15518.8 4634.17   1
   0  -8  -9 8007.59 2217.58   1
  -1 -10   6 705.350 481.170   1
   1 -10  -6 1284.28 825.310   1
  -1 -10  -6 2018.12 1196.74   1
   1 -10  -6 1329.05 1442.42   1
  -1 -10  -6 -23.000 1960.57   1
  -1 -10   6 390.130 531.390   1
  -5  -9  -3 1240.81 1624.07   1
  -5   9  -3 279.730 2594.24   1
  -5   9   3 1067.70 2391.65   1
   5  -9  -3 625.710 892.170   1
  -5  -9   3 336.370 1267.07   1
  -5  -9  -3 1337.73 1354.89   1
  -6   4  -8 28982.6 5380.19   1
  -6   4   8 23877.3 7095.11   1
   6  -4  -8 24192.4 4788.01   1
  -6  -4  -8 12647.2 4638.56   1
  -6  -4  -8 28531.1 4523.97   1
  -6  -4   8 31485.4 4141.70   1
   3  -7  -9 3449.73 1373.26   1
  -3  -7  -9 3482.59 2849.62   1
  -3  -7  -9 5326.52 4473.16   1
   0  -7 -10 -233.36 1201.48   1
   0  -7 -10 1060.11 1121.94   1
  -8   0  -5 197.570 2901.24   1
  -8   0   5 225.190 1874.80   1
  -3  -4 -11 46.8300 2182.78   1
   3  -4 -11 539.680 828.300   1
  -3  -4 -11 -545.89 1506.77   1
  -6  -7  -5 962.990 2361.57   1
  -6  -7  -5 1398.65 1787.14   1
  -6  -7   5 1207.29 2261.20   1
  -6   7  -5 1741.08 2388.37   1
  -6   7   5 1491.13 1503.07   1
   6  -7  -5 1430.76 743.470   1
  -4   8  -7 4422.81 4660.49   1
  -4  -8  -7 3081.23 1610.38   1
   4  -8  -7 4240.30 2344.47   1
  -4   8   7 5791.79 4453.73   1
  -4  -8   7 4347.60 5082.02   1
  -4  -8  -7 5669.69 2442.66   1
  -4  -2 -11 1254.42 3526.83   1
  -4   2 -11 1218.44 2847.60   1
  -4  -2 -11 810.810 2525.28   1
   4  -2 -11 746.960 1485.96   1
  -2  -5 -11 34185.1 5809.77   1
   2  -5 -11 33509.7 4350.89   1
  -2  -5 -11 37895.9 4532.01   1
   5  -6  -8 16524.5 3849.71   1
  -5  -6  -8 12614.7 3619.26   1
  -5  -6  -8 25629.3 3737.09   1
  -5   6   8 19981.0 10942.6   1
  -5   6  -8 24926.2 3666.35   1
  -3  -8  -8 5281.50 3381.01   1
  -3  -8  -8 2322.43 2276.56   1
  -3   8  -8 3954.20 3191.66   1
   3  -8  -8 5597.80 3596.22   1
  -1  -8  -9 11609.1 2062.88   1
   1  -8  -9 7767.69 2387.31   1
   1  -8  -9 14253.1 2213.54   1
  -1  -8  -9 9583.16 1959.31   1
  -5   7   7 512.840 1143.08   1
  -5   7  -7 1110.20 1607.27   1
  -5  -7   7 -945.91 1364.89   1
  -5  -7  -7 516.380 1140.14   1
  -5  -7  -7 495.960 1728.83   1
   5  -7  -7 67.1500 508.100   1
  -8   1  -5 2537.24 2788.35   1
  -8  -1  -5 3076.73 2001.76   1
  -8   1   5 1261.73 2178.90   1
  -8  -1   5 1330.93 1744.46   1
   8  -1  -5 2060.46 1940.49   1
  -8   3  -4 1472.68 2296.88   1
  -8   3   4 2620.47 2870.57   1
  -8  -3  -4 1835.33 2180.04   1
  -8  -3   4 437.170 1900.02   1
   8  -3  -4 852.770 767.090   1
  -1  -7 -10 3665.51 1783.62   1
   1  -7 -10 895.010 1440.39   1
   1  -7 -10 2453.79 1466.44   1
  -1  -7 -10 1663.50 1726.12   1
   6  -8  -3 8727.93 3135.33   1
  -6   8   3 9889.40 3570.99   1
  -6   8  -3 10258.7 3406.40   1
  -6  -8   3 10140.1 2658.37   1
  -6  -8  -3 13704.9 9621.64   1
  -6  -8  -3 2694.70 1762.59   1
   0 -11  -4 346.300 499.900   1
   0 -11   4 137.930 422.900   1
   0 -11  -4 686.630 1329.52   1
   0 -11   4 245.240 593.590   1
  -6  -2  -9 -560.24 1978.14   1
  -6   2   9 786.510 1842.21   1
   6  -2  -9 111.820 388.630   1
  -6  -2  -9 1765.81 2491.37   1
  -6   2  -9 218.360 1693.57   1
   0  -9  -8 762.490 1634.15   1
   0  -9  -8 302.790 612.960   1
   0  -9   8 184.070 715.080   1
  -7  -7   0 1095.66 2445.22   1
  -7   7   0 3812.20 2551.28   1
  -7  -7   0 3751.04 2672.40   1
  -7  -6   4 16719.2 3155.89   1
  -7  -6  -4 20138.7 4222.50   1
  -7   6   4 14746.5 4954.76   1
  -7   6  -4 14176.4 4141.88   1
   7  -6  -4 15946.5 1846.38   1
   3  -6 -10 8810.61 4380.50   1
  -3  -6 -10 9903.25 8785.03   1
  -3  -6 -10 10963.5 3123.17   1
   3  -6 -10 11520.8 1946.80   1
  -8  -4  -3 1709.34 2317.92   1
  -8   4   3 1150.86 2523.03   1
  -8   4  -3 477.820 2310.63   1
  -8  -4   3 2287.75 2636.91   1
  -7   7  -1 7131.11 3095.61   1
  -7  -7   1 8382.95 2900.05   1
  -7   7   1 6419.86 3677.00   1
  -7  -7  -1 7004.28 6113.40   1
  -7  -7  -1 957.840 1803.34   1
  -7  -3  -7 13856.5 3995.79   1
  -7  -3   7 12824.1 2695.42   1
  -7   3  -7 13631.3 3230.39   1
  -7   3   7 10112.8 8832.76   1
  -7  -3  -7 1465.94 2436.95   1
   7  -3  -7 9946.11 2953.28   1
  -4 -10  -3 16953.4 8581.70   1
  -4 -10   3 16731.8 6736.00   1
  -4  10   3 17520.1 7777.54   1
  -4  10  -3 16036.6 3598.45   1
   4 -10  -3 15369.7 1900.65   1
  -4 -10  -3 11143.3 3934.41   1
  -2  11  -3 9041.47 2224.03   1
   2 -11   3 10556.6 1707.47   1
   2 -11  -3 8101.86 1745.56   1
  -2 -11   3 8086.82 1161.41   1
  -2 -11  -3 7911.31 1423.45   1
  -2 -11  -3 10260.7 5973.86   1
  -2 -11   3 11037.9 6098.94   1
  -3   0 -12 31590.2 8100.64   1
   3   0 -12 20278.4 5869.73   1
  -5  -3 -10 1002.30 2473.18   1
  -5   3  10 513.100 704.580   1
  -5   3 -10 -507.89 1462.30   1
  -5  -3 -10 -286.70 2064.00   1
   5  -3 -10 884.250 787.280   1
  -1 -11   4 3458.72 1733.02   1
  -1 -11  -4 4394.63 2205.34   1
   1 -11   4 4560.09 723.630   1
   1 -11  -4 5018.95 3010.37   1
  -1 -11   4 7192.89 3996.02   1
   1 -11  -4 5402.24 1740.88   1
  -1 -11  -4 7504.19 5913.23   1
   1 -11   4 9710.40 6577.46   1
   2  -3 -12 9197.41 2936.97   1
  -2  -3 -12 9867.46 4564.84   1
  -2   3 -12 5389.13 2970.35   1
   0  -4 -12 7946.39 2397.45   1
  -1  -9   8 142.120 673.420   1
   1  -9  -8 297.710 814.230   1
  -1  -9  -8 440.960 1241.68   1
  -1  -9  -8 878.340 1425.16   1
   1  -9  -8 455.800 769.830   1
  -5  -5  -9 1041.35 2852.42   1
  -5   5  -9 1362.88 1851.15   1
  -5  -5  -9 1585.68 2376.61   1
   5  -5  -9 1014.59 635.370   1
  -5   5   9 833.790 1288.29   1
   4  -5 -10 2619.10 2375.30   1
  -4  -5 -10 5849.10 4314.14   1
  -4  -5 -10 3252.01 1850.08   1
  -4   5  10 4581.90 3289.01   1
  -8  -2  -5 724.220 2348.82   1
   8  -2  -5 289.480 475.180   1
  -8   2   5 153.520 2115.21   1
  -8   2  -5 1323.18 3156.93   1
  -8  -2   5 1641.56 2852.58   1
  -3 -10   5 2490.02 1129.08   1
  -3 -10  -5 3684.76 4078.36   1
  -3 -10  -5 1626.22 1629.02   1
   3 -10  -5 2178.36 1322.64   1
  -3  10  -5 2622.78 2523.25   1
  -8  -5   0 2391.62 2397.29   1
  -8   5   0 2246.90 2677.74   1
  -3 -11   0 151480. 18488.5   1
  -3  11   0 146467. 20536.7   1
  -3 -11   0 137141. 13425.8   1
   3 -11   0 144555. 13768.7   1
  -3   1 -12 32941.9 5450.27   1
  -3  -1 -12 33191.9 5515.19   1
   3  -1 -12 40289.6 4831.10   1
   0  -6 -11 15953.4 2191.08   1
   0  -6 -11 32513.9 4255.24   1
   2 -10  -6 7557.57 1449.98   1
  -2  10  -6 5848.00 2438.03   1
  -2 -10   6 9521.25 5005.50   1
  -2 -10  -6 9919.19 7322.73   1
   2 -10  -6 15006.5 2960.69   1
  -2 -10  -6 6275.27 1491.06   1
  -8   5  -1 5870.08 3659.34   1
  -8   5   1 4843.97 3705.59   1
  -8  -5   1 8094.57 2880.44   1
  -8  -5  -1 8943.12 3464.52   1
  -3 -11  -1 5943.94 3650.35   1
   3 -11   1 4138.02 888.020   1
   3 -11  -1 3436.37 1923.21   1
  -3  11   1 2990.96 2406.97   1
  -3  11  -1 4077.97 2331.45   1
  -3 -11   1 5742.25 2462.37   1
  -3 -11  -1 1647.06 1912.39   1
  -3 -11   1 1391.48 1061.15   1
  -3  -9  -7 19780.6 2869.94   1
   3  -9  -7 20989.0 2884.31   1
  -3   9  -7 20379.3 7115.61   1
  -3  -9   7 28356.4 3329.76   1
  -3  -9  -7 32666.4 6750.68   1
  -5  -8  -6 50153.7 6240.63   1
   5  -8  -6 41019.7 4210.07   1
  -5  -8  -6 28875.3 4266.97   1
  -5   8   6 39421.5 6516.81   1
  -5   8  -6 42968.7 5734.93   1
  -5  -8   6 61455.1 6782.85   1
  -7  -7  -2 1341.13 1780.63   1
  -7   7   2 8642.79 3983.12   1
   7  -7  -2 6393.54 4258.47   1
  -7  -7  -2 5512.33 3290.84   1
  -7  -7   2 8240.79 3199.36   1
  -7   7  -2 8300.88 3874.37   1
   4  -3 -11 23361.2 3215.44   1
  -4  -3 -11 22924.5 5297.49   1
  -4  -3 -11 25217.5 4207.79   1
  -1  -4 -12 5994.23 4008.20   1
   1  -4 -12 6035.72 4285.13   1
  -5  -9  -4 20178.0 3769.82   1
  -5  -9  -4 39797.6 5961.32   1
  -5  -9   4 30560.1 3842.67   1
   5  -9  -4 34884.6 3656.56   1
  -5   9   4 31725.9 12025.5   1
  -5   9  -4 28972.6 4478.20   1
  -2  -8  -9 1297.07 1201.23   1
   2  -8  -9 2097.99 2412.14   1
   2  -8  -9 895.470 963.030   1
  -2  -8  -9 2222.91 1989.60   1
   1  -6 -11 9004.23 3389.33   1
   1  -6 -11 15457.5 2528.81   1
  -1  -6 -11 8721.82 7216.72   1
  -1  -6 -11 19574.3 3260.31   1
  -7   0  -8 18990.3 3806.93   1
  -7   0   8 14791.4 3219.07   1
  -4   9  -6 1304.76 1959.45   1
   4  -9  -6 520.620 1139.33   1
  -4  -9  -6 -288.23 1481.09   1
  -4   9   6 2369.44 1871.34   1
  -4  -9  -6 3033.61 1977.00   1
  -4  -9   6 1767.70 1150.43   1
  -6  -3  -9 -240.02 3598.06   1
   6  -3  -9 316.660 416.230   1
  -6   3   9 1140.66 2362.25   1
  -6   3  -9 597.090 1769.72   1
  -6  -3  -9 2235.27 3055.22   1
   2  -7 -10 260.740 977.850   1
  -2  -7 -10 901.520 1343.14   1
   2  -7 -10 281.650 714.170   1
  -2  -7 -10 407.190 620.910   1
   6  -6  -7 4271.14 2357.20   1
  -6  -6   7 4401.79 1567.96   1
  -6  -6  -7 686.900 3480.57   1
  -6  -6  -7 5322.22 2584.81   1
  -6   6   7 2427.20 1896.71   1
  -6   6  -7 4507.70 3261.65   1
   3  -2 -12 13075.6 3161.50   1
  -3  -2 -12 11438.3 3828.80   1
  -3   2 -12 7782.74 3700.49   1
  -7   1   8 3080.26 2117.55   1
  -7  -1  -8 4192.84 2205.21   1
  -7  -1  -8 519.270 2215.86   1
  -7  -1   8 3065.93 1847.58   1
  -7   1  -8 2686.80 1981.64   1
  -8  -5  -2 18161.5 4154.64   1
  -8  -5   2 13395.0 3253.42   1
  -8   5  -2 14351.8 3692.75   1
  -8   5   2 20981.9 6631.48   1
   3 -11   2 2451.25 1726.42   1
  -3 -11   2 1388.59 983.270   1
  -3 -11   2 2398.57 2183.31   1
   3 -11  -2 1542.41 1283.49   1
  -3 -11  -2 1297.90 1067.02   1
  -3 -11  -2 1635.17 1220.36   1
  -3  11  -2 2026.83 2824.75   1
  -3  11   2 2944.43 2361.32   1
  -6  -8  -4 3651.35 2636.53   1
  -6  -8  -4 40190.1 11728.3   1
  -6  -8   4 30836.5 4688.17   1
  -6   8   4 18014.9 8692.57   1
   6  -8  -4 20276.0 3709.92   1
  -6   8  -4 18037.6 3987.27   1
  -7  -5  -6 3468.48 2597.43   1
  -7   5  -6 2772.09 2180.35   1
  -7  -5   6 140.740 1656.03   1
  -7   5   6 2691.47 2320.69   1
  -7  -5  -6 2720.85 4395.17   1
   7  -5  -6 2513.95 1594.90   1
   0 -10  -7 52672.3 6590.96   1
   0 -10   7 50882.8 6133.36   1
   0 -10  -7 58848.8 7933.14   1
   0 -10   7 58358.8 7248.59   1
  -8  -4   4 20.5100 1524.64   1
  -8   4   4 263.650 2293.36   1
   8  -4  -4 258.100 424.510   1
  -8   4  -4 1279.89 2380.40   1
  -8  -4  -4 -546.74 2139.98   1
   0   0 -13 -312.72 2673.57   1
  -6   5  -8 7832.23 2906.50   1
  -6  -5  -8 5533.42 3006.26   1
   6  -5  -8 6710.34 3383.81   1
  -6   5   8 5957.21 3895.89   1
  -6  -5  -8 2073.71 2677.16   1
  -4 -10  -4 -649.37 1180.69   1
   4 -10  -4 199.150 383.740   1
  -4  10  -4 -419.46 2315.58   1
  -4 -10   4 -271.05 1467.54   1
  -4 -10  -4 200.460 810.760   1
  -4  10   4 907.630 1111.63   1
  -9   0   0 1943.71 3222.53   1
  -2 -11  -4 5259.84 4581.09   1
  -2 -11  -4 5768.74 2101.95   1
   2 -11  -4 6254.67 1545.00   1
   2 -11   4 5517.96 1640.81   1
  -2 -11   4 4775.64 2730.80   1
   2 -11  -4 7134.56 5417.18   1
   2  -9  -8 2923.18 1629.68   1
  -2  -9  -8 2244.92 1645.89   1
   2  -9  -8 1453.84 957.040   1
  -2  -9  -8 1676.20 1143.61   1
  -8   3   5 3301.87 3207.07   1
   8  -3  -5 2650.36 1083.99   1
  -8  -3   5 1992.05 2191.45   1
  -8   3  -5 3194.62 2924.73   1
  -8  -3  -5 3422.75 3330.39   1
   3  -5 -11 36495.7 4931.58   1
  -3  -5 -11 31895.8 5300.07   1
  -3  -5 -11 47140.6 6378.03   1
  -8   0   6 6984.24 2678.59   1
  -8   0  -6 10060.0 3751.10   1
  -6   7  -6 -259.90 2421.68   1
  -6  -7  -6 756.310 2653.75   1
  -6  -7  -6 -544.79 2436.25   1
  -6   7   6 1672.09 2087.91   1
   6  -7  -6 467.380 509.910   1
  -6  -7   6 587.290 1680.91   1
   0 -11  -5 45.3500 523.810   1
   0 -11  -5 197.470 817.050   1
   0 -11   5 -476.51 1374.25   1
   0 -11   5 168.400 327.620   1
  -7   7  -3 2547.87 2813.59   1
  -7   7   3 1650.06 2406.45   1
   7  -7  -3 2103.90 1568.70   1
  -7  -7  -3 -694.35 2147.30   1
  -7  -7  -3 3279.89 2581.01   1
  -7  -7   3 2891.17 2461.25   1
   0   1 -13 585.740 1913.36   1
   0  -1 -13 829.200 1959.34   1
  -9   0  -1 2263.80 3566.49   1
  -9   0   1 -166.15 1854.95   1
  -9  -1   0 -107.53 1432.44   1
  -9   1   0 653.980 2145.94   1
   7  -6  -5 838.690 655.270   1
  -7  -6  -5 626.360 2755.94   1
  -7  -6  -5 1386.56 2687.26   1
  -7  -6   5 798.010 1678.40   1
  -7   6   5 2214.24 2448.46   1
  -7   6  -5 1075.08 2667.56   1
  -7  -4  -7 61.3700 2437.28   1
   7  -4  -7 1031.11 906.150   1
  -7  -4   7 1000.51 1526.45   1
  -7   4  -7 1158.85 1961.75   1
  -7   4   7 495.680 1593.98   1
  -7  -4  -7 20.2700 1849.00   1
   1 -10   7 30854.7 4453.85   1
   1 -10  -7 25789.6 3500.91   1
  -1 -10  -7 28303.3 3976.39   1
  -1 -10  -7 21005.6 4695.60   1
  -1 -10   7 23762.3 3312.37   1
   1 -10  -7 23472.0 6783.95   1
  -8  -1   6 5221.91 2439.48   1
  -8  -1  -6 5981.03 2286.29   1
  -8   1  -6 6269.44 2922.50   1
  -8   1   6 4925.45 2111.02   1
   1   0 -13 508.870 2322.94   1
  -1   0 -13 886.950 2283.63   1
  -7  -2  -8 1258.62 2736.45   1
   7  -2  -8 1836.34 1318.49   1
  -7   2  -8 806.930 1829.15   1
  -7  -2  -8 704.080 2075.71   1
  -7   2   8 2575.31 2709.30   1
  -7  -2   8 777.260 1063.87   1
  -5   4 -10 7987.28 2886.73   1
  -5   4  10 5790.40 4656.19   1
   5  -4 -10 5108.48 3989.94   1
  -5  -4 -10 3306.62 3953.09   1
  -5  -4 -10 5918.40 2146.30   1
   2  -4 -12 14150.0 2928.68   1
  -2  -4 -12 9933.08 3362.41   1
  -9  -1  -1 2353.67 2359.05   1
  -9  -1   1 2843.98 2037.21   1
  -9   1  -1 3167.77 2039.25   1
  -9   1   1 4487.75 2309.14   1
   1 -11   5 1460.96 1397.96   1
   1 -11  -5 1098.91 1075.51   1
  -1 -11   5 2039.29 1260.10   1
  -1 -11  -5 1493.71 1981.89   1
   1 -11   5 1738.06 1003.21   1
  -1 -11   5 1498.66 951.290   1
   1 -11  -5 1825.52 1503.45   1
  -1 -11  -5 1668.81 1699.91   1
   5 -10   0 15526.5 2217.30   1
  -5 -10   0 19777.0 7486.92   1
  -5  10   0 15227.7 9067.84   1
  -5 -10   0 4302.49 2670.01   1
  -1  -1 -13 3856.73 2615.03   1
   1   1 -13 2583.35 2747.58   1
  -1   1 -13 965.690 3317.59   1
   1  -1 -13 2284.09 1845.34   1
  -6  -9   0 22120.9 6061.68   1
  -6   9   0 12962.0 8621.20   1
   6  -9   0 18298.7 5036.81   1
   2  -6 -11 3251.69 3492.30   1
   2  -6 -11 6039.61 5203.13   1
  -2  -6 -11 5987.53 4138.87   1
  -2  -6 -11 3794.54 2609.43   1
   0 -12   0 173171. 16727.5   1
   0 -12   0 228586. 22367.0   1
  -8  -5  -3 15255.5 4814.55   1
  -8  -5   3 11459.8 3444.93   1
  -8   5  -3 12594.5 5193.57   1
  -8   5   3 7685.52 3128.28   1
  -3  11   3 7145.42 3468.81   1
  -3 -11  -3 7395.65 7857.17   1
  -3 -11   3 5938.70 4334.16   1
  -3  11  -3 6502.67 7129.93   1
  -3 -11  -3 6591.75 1987.51   1
   3 -11  -3 6119.47 3097.68   1
   3 -11   3 6689.20 1279.82   1
   5 -10   1 11987.6 2404.33   1
   5 -10  -1 11803.0 2370.96   1
  -5 -10  -1 3968.81 3503.84   1
  -5 -10  -1 10968.5 4633.27   1
  -5  10  -1 11851.7 7146.30   1
  -5  10   1 13489.5 9696.33   1
  -5 -10   1 12140.3 7062.87   1
  -4  -7  -9 1772.89 2201.99   1
  -4   7   9 2807.36 2165.79   1
  -4   7  -9 3022.53 1835.64   1
  -4  -7  -9 2417.39 1551.42   1
   4  -7  -9 2889.52 2258.13   1
  -5   0 -11 804.690 2936.40   1
  -5   0 -11 2814.06 2208.92   1
  -9   0   2 4507.46 2224.16   1
  -6  -9  -1 -168.81 1064.23   1
  -6  -9   1 -463.83 2589.17   1
  -6  -9  -1 113.540 1669.40   1
   6  -9  -1 -156.66 770.890   1
  -6   9   1 -175.49 2261.77   1
  -6   9  -1 618.080 1006.57   1
  -3  -3 -12 7647.06 3507.60   1
   3  -3 -12 9224.52 7438.18   1
   0 -12   1 52518.8 6401.37   1
   0 -12   1 55311.0 7055.82   1
   0 -12  -1 52709.6 6817.18   1
   0 -12  -1 55433.0 6748.10   1
   4  -4 -11 1904.27 1315.61   1
  -4  -4 -11 4186.71 3621.18   1
  -4  -4 -11 1593.79 2915.13   1
   0  -2 -13 4270.34 1535.44   1
   0   2 -13 5334.34 3338.95   1
   0  -5 -12 408.540 1542.15   1
  -9  -2   0 2194.33 3403.73   1
  -9   2   0 1689.05 3307.09   1
  -4  -8  -8 -572.09 1929.31   1
  -4   8  -8 265.070 1855.61   1
  -4   8   8 97.8700 2180.38   1
   4  -8  -8 456.480 637.700   1
  -4  -8  -8 965.390 1192.29   1
  -5  -9  -5 155.950 2281.95   1
  -5  -9   5 -351.18 1982.34   1
  -5   9  -5 1622.44 2707.60   1
  -5   9   5 -1124.0 2218.86   1
   5  -9  -5 452.190 935.370   1
  -5  -9  -5 -15.970 698.880   1
  -5   1 -11 1454.34 1848.47   1
  -5   1 -11 171.850 2440.66   1
  -5  -1 -11 315.870 2489.03   1
  -5  -1 -11 1601.23 2199.60   1
  -9   1   2 15849.8 3506.67   1
  -9   1  -2 14444.4 3552.07   1
  -9  -1   2 20096.2 4748.68   1
  -9  -1  -2 19497.0 5777.27   1
  -8  -2  -6 27868.0 6065.58   1
   8  -2  -6 20500.7 3055.56   1
  -8   2   6 20751.5 4346.64   1
  -8   2  -6 20749.2 5152.85   1
  -8  -2   6 19163.8 3631.87   1
  -3 -10   6 3051.02 2402.74   1
  -3 -10  -6 5156.38 5437.55   1
  -3  10  -6 6295.98 4176.33   1
  -3 -10  -6 9587.82 5030.09   1
   3 -10  -6 6478.32 1264.32   1
   1 -12   0 123243. 12697.8   1
  -1 -12   0 128686. 12955.8   1
   1 -12   0 107811. 10551.6   1
  -1 -12   0 112638. 10945.7   1
  -5   7  -8 26313.0 5580.50   1
  -5   7   8 26740.8 5500.67   1
  -5  -7  -8 41161.3 6943.37   1
   5  -7  -8 24531.8 3343.53   1
  -5  -7  -8 22955.3 4872.71   1
  -9  -2   1 1612.32 2728.51   1
  -9  -2  -1 3452.22 3599.64   1
  -9   2   1 666.010 2220.51   1
  -9   2  -1 1257.88 2102.96   1
  -6   0 -10 21152.7 4281.50   1
  -6   0 -10 3396.52 3285.11   1
  -6  -4  -9 1144.09 3664.95   1
   6  -4  -9 686.290 920.280   1
  -6   4   9 -106.22 1425.77   1
  -6   4  -9 635.730 2540.71   1
  -6  -4  -9 1536.07 2178.76   1
   1 -12   1 22498.7 3729.06   1
   1 -12  -1 21844.9 4006.97   1
  -1 -12   1 22285.7 4023.92   1
   1 -12   1 27810.0 3444.54   1
   1 -12  -1 27602.1 3720.78   1
  -1 -12   1 29411.8 3682.68   1
  -1 -12  -1 29959.2 3773.50   1
  -1 -12  -1 23292.3 5680.11   1
   1   2 -13 3947.55 2717.60   1
   1  -2 -13 3613.47 1721.17   1
  -1   2 -13 1517.63 1786.51   1
  -1  -2 -13 3312.31 2765.74   1
  -1  -5 -12 22238.0 3763.35   1
   1  -5 -12 29781.4 4743.63   1
   5 -10  -2 20924.2 2756.29   1
  -5  10   2 20139.5 7666.47   1
  -5  10  -2 22054.6 5492.52   1
  -5 -10   2 23866.3 5294.42   1
  -5 -10  -2 18839.7 4451.69   1
  -5 -10  -2 8333.83 5365.22   1
  -6  -9  -2 615.210 1063.23   1
  -6  -9   2 1844.45 1913.02   1
  -6  -9  -2 -645.46 2278.81   1
  -6   9   2 1310.17 1973.90   1
  -6   9  -2 1140.02 2149.54   1
   6  -9  -2 670.690 876.050   1
  -5  -6  -9 4972.80 3894.19   1
  -5   6  -9 4962.46 3270.04   1
  -5   6   9 3078.69 1680.65   1
   5  -6  -9 3549.84 1829.87   1
  -5  -6  -9 2517.85 1764.00   1
  -6  -1 -10 -111.61 3433.28   1
  -6  -1 -10 482.170 1916.02   1
   3  -8  -9 535.500 1069.50   1
   3  -8  -9 420.040 1042.12   1
  -3  -8  -9 243.840 977.610   1
  -3  -8  -9 -217.93 1576.45   1
  -4  -6 -10 28647.9 4929.55   1
  -4  -6 -10 64900.8 8583.94   1
   4  -6 -10 27930.1 5033.96   1
   0 -12   2 8046.77 3838.41   1
   0 -12  -2 7918.40 6754.77   1
   0 -12  -2 2446.67 1861.94   1
   0 -12   2 2498.96 514.870   1
   0  -8 -10 7484.85 1883.05   1
   0  -8 -10 13404.5 2792.52   1
  -8   6   0 1320.31 1415.89   1
  -8  -6   0 1537.46 2186.45   1
  -6  -8  -5 1702.28 2161.35   1
   6  -8  -5 3579.82 2672.48   1
  -6   8   5 1100.26 1504.09   1
  -6   8  -5 4053.44 2507.86   1
  -6  -8   5 2632.35 2344.14   1
  -6  -8  -5 5752.49 3408.67   1
  -7   7  -4 19145.8 9320.93   1
  -7   7   4 13168.9 3896.54   1
  -7  -7   4 23892.8 6806.11   1
  -7  -7  -4 20527.4 4381.47   1
  -7  -7  -4 2088.09 2527.34   1
   7  -7  -4 17486.1 2480.60   1
  -2 -10   7 2488.14 2116.51   1
   2 -10  -7 4568.64 4001.79   1
  -2  10  -7 3895.06 2359.78   1
  -2 -10  -7 2789.86 3536.38   1
   2 -10  -7 3674.55 2370.38   1
  -2 -10  -7 4897.79 1561.54   1
  -7   3   8 321.740 2084.97   1
  -7  -3  -8 863.730 2266.45   1
  -7  -3  -8 -970.88 2444.86   1
   7  -3  -8 -155.44 548.080   1
  -7   3  -8 293.230 1721.61   1
  -7  -3   8 107.450 1105.59   1
   2   0 -13 -486.95 1311.35   1
  -2   0 -13 307.360 3815.06   1
  -4   0 -12 29887.7 6692.38   1
  -3  -7 -10 566.750 1665.74   1
   3  -7 -10 597.560 1142.07   1
  -3  -7 -10 1396.17 1274.31   1
   3  -7 -10 1213.04 984.230   1
  -8  -6  -1 1333.31 2730.17   1
  -8  -6   1 57.7800 2490.96   1
  -8   6  -1 735.980 2540.65   1
  -8   6   1 -1243.5 2272.74   1
  -5  -8  -7 9446.20 3723.11   1
   5  -8  -7 11425.7 1913.05   1
  -5   8  -7 13274.6 3063.74   1
  -5  -8   7 17660.1 3072.80   1
  -5  -8  -7 16009.6 3845.26   1
  -5   8   7 12200.8 7404.85   1
   8  -4  -5 -274.97 651.850   1
  -8   4   5 895.920 2514.58   1
  -8   4  -5 401.560 2007.97   1
  -8  -4   5 -485.32 1634.49   1
  -8  -4  -5 1214.03 2167.59   1
  -8  -4  -5 -646.36 2359.30   1
  -5  -2 -11 352.930 2144.79   1
  -5  -2 -11 1215.19 3375.45   1
  -5   2 -11 96.5600 1570.92   1
   5  -2 -11 656.900 663.990   1
   0  -9  -9 24.6100 1536.09   1
   0  -9  -9 -63.990 1370.72   1
  -9  -2  -2 1123.49 2009.43   1
  -9   2   2 -815.67 1942.27   1
  -9   2  -2 332.110 2176.78   1
  -9  -2   2 20.6100 2449.27   1
  -4  10   5 6321.88 6921.14   1
  -4 -10  -5 3954.60 1604.53   1
   4 -10  -5 6279.92 1692.98   1
  -4 -10  -5 5850.13 6509.84   1
  -4 -10   5 5586.00 4653.66   1
  -4  10  -5 6916.17 4514.46   1
  -9   0  -3 -1288.6 2540.67   1
  -9   0   3 113.450 1987.22   1
   2 -11   5 8050.99 1276.42   1
  -2 -11   5 10135.9 5415.33   1
  -2 -11  -5 9314.34 6971.70   1
  -2 -11  -5 6205.85 5036.01   1
   2 -11  -5 6733.98 3687.26   1
   2 -11  -5 17751.8 3725.02   1
  -4 -11   0 82770.8 10130.9   1
  -4 -11   0 87570.9 9200.18   1
  -4  11   0 91827.3 11046.9   1
   4 -11   0 83879.1 10228.4   1
   2   1 -13 2410.20 1575.55   1
  -2  -1 -13 4547.45 2952.92   1
  -2   1 -13 5083.06 3168.28   1
   2  -1 -13 3875.43 1816.32   1
  -4  -1 -12 33051.0 8400.91   1
  -4   1 -12 16709.3 6126.67   1
  -1 -12   2 462.860 397.310   1
   1 -12   2 808.750 1265.61   1
   1 -12  -2 563.780 475.930   1
  -1 -12   2 654.120 1274.18   1
   1 -12  -2 1037.82 1098.46   1
  -1 -12  -2 1732.21 2197.88   1
   1 -12   2 -14.690 481.170   1
  -1 -12  -2 798.760 870.650   1
  -1  -8 -10 3008.60 2226.05   1
   1  -8 -10 5033.64 3003.89   1
   1  -8 -10 2630.23 1690.17   1
  -1  -8 -10 5167.40 1877.93   1
  -7  -8   0 15761.6 9304.45   1
  -7   8   0 11096.6 4031.13   1
  -4 -11   1 1444.75 1318.02   1
  -4 -11  -1 1598.16 1841.09   1
  -4  11   1 -32.450 1391.77   1
   4 -11   1 1134.18 967.110   1
   4 -11  -1 1104.11 781.780   1
  -4 -11  -1 112.050 597.350   1
  -4  11  -1 910.120 1805.32   1
  -4   9   7 6987.25 2599.89   1
  -4   9  -7 6740.40 4760.67   1
  -4  -9   7 6362.95 2620.12   1
  -4  -9  -7 8082.55 7502.74   1
   4  -9  -7 5384.91 4019.02   1
  -4  -9  -7 3749.96 3674.89   1
  -9  -1   3 2189.89 2003.96   1
  -9  -1  -3 2801.41 2830.63   1
  -9   1  -3 2912.23 2476.16   1
  -9   1   3 4231.95 3412.35   1
   0  -7 -11 1083.71 1542.85   1
   0  -7 -11 405.910 784.400   1
  -8  -5  -4 7254.39 4084.74   1
  -8   5   4 5415.80 4033.62   1
  -8  -5  -4 641.800 2240.05   1
   8  -5  -4 6152.96 3291.40   1
  -8   5  -4 4664.32 3649.16   1
  -8  -5   4 7635.48 3913.56   1
   0  -3 -13 278.560 1885.50   1
   0   3 -13 -731.58 1827.85   1
  -3  11  -4 4855.24 1850.78   1
   3 -11   4 6124.50 3738.70   1
  -3 -11  -4 2622.31 1420.28   1
   3 -11  -4 3318.09 3427.58   1
  -3 -11   4 5209.63 3619.01   1
  -3 -11  -4 4561.22 5470.47   1
  -3   9  -8 309.410 906.080   1
  -3  -9  -8 255.050 1042.55   1
  -3  -9  -8 703.160 1161.86   1
   3  -9  -8 626.500 908.450   1
  -6  -2 -10 58871.1 8069.53   1
  -6   2 -10 51136.1 7171.12   1
  -6   2  10 50533.4 6776.94   1
  -9   3   0 525.090 2310.60   1
  -9  -3   0 656.530 1911.66   1
  -7  -8  -1 701.850 2550.33   1
  -7  -8  -1 3063.65 2523.92   1
  -7  -8   1 4435.19 5514.27   1
  -7   8   1 3408.38 2358.37   1
  -7   8  -1 2109.44 2125.03   1
   7  -8  -1 3104.17 1970.87   1
  -1  -9  -9 1960.76 1546.40   1
  -1  -9  -9 4563.32 4132.70   1
   1  -9  -9 3486.28 2650.84   1
   1  -9  -9 2329.89 2332.00   1
   8  -3  -6 6662.08 2352.57   1
  -8   3   6 7637.90 4983.87   1
  -8  -3  -6 11021.4 3841.33   1
  -8  -3   6 8614.44 2462.13   1
  -8   3  -6 5583.26 3041.89   1
  -8   6   2 6297.04 2892.99   1
  -8   6  -2 10588.8 4925.59   1
  -8  -6   2 10470.7 3444.13   1
  -8  -6  -2 8722.28 3929.32   1
  -8  -6  -2 766.300 1496.69   1
  -2 -12   0 70764.8 8610.16   1
   2 -12   0 70301.6 8424.95   1
  -2 -12   0 81180.2 10721.1   1
   0 -11  -6 -274.86 2317.23   1
   0 -11   6 -43.440 402.180   1
   0 -11  -6 426.810 641.900   1
   0 -11   6 511.750 708.930   1
  -5 -10  -3 33017.7 5275.35   1
  -5 -10  -3 14330.2 4346.89   1
   5 -10  -3 28902.5 3760.32   1
  -5  10   3 29529.5 6516.83   1
  -5  10  -3 29293.3 9363.13   1
  -5 -10   3 36793.6 5328.95   1
  -9  -3  -1 5388.68 2973.59   1
  -9   3  -1 1444.73 2215.51   1
  -9   3   1 3123.91 3104.17   1
  -9  -3   1 1946.50 1963.49   1
  -6  -9  -3 3671.54 2757.97   1
  -6  -9   3 2704.27 2145.99   1
  -6  -9  -3 562.000 1410.02   1
  -6   9   3 2901.36 2122.07   1
  -6   9  -3 4082.15 2406.95   1
   6  -9  -3 3197.32 1956.84   1
  -7   5   7 8214.50 2636.25   1
   7  -5  -7 9141.90 3089.69   1
  -7  -5  -7 2189.87 3014.52   1
  -7   5  -7 10723.6 3174.41   1
  -7  -5  -7 13190.7 3917.35   1
  -7  -5   7 11346.4 2971.80   1
  -7  -6   6 10594.2 3443.90   1
  -7  -6  -6 14787.7 3974.62   1
  -7   6  -6 6243.89 2236.21   1
  -7   6   6 6565.32 5589.88   1
   7  -6  -6 9569.55 2170.93   1
  -7  -6  -6 1858.29 3903.77   1
   0 -12  -3 32183.8 3450.09   1
   0 -12   3 30776.5 3067.59   1
   0 -12  -3 29900.9 4146.04   1
   0 -12   3 31013.4 4600.28   1
  -1  -7 -11 8413.41 6880.65   1
   1  -7 -11 12361.4 2497.70   1
  -1  -7 -11 11021.8 2338.81   1
   1  -7 -11 9366.11 3199.68   1
   1  -3 -13 2348.96 2189.94   1
  -1  -3 -13 1474.36 2031.83   1
  -1   3 -13 2654.41 2364.61   1
  -2 -12  -1 5827.63 1406.54   1
  -2 -12   1 5444.70 3270.40   1
  -2 -12  -1 4375.23 2773.45   1
   2 -12   1 5739.71 1001.96   1
   2 -12  -1 7285.75 4188.17   1
  -2 -12   1 6282.55 1098.72   1
  -3  -4 -12 16099.8 3686.90   1
   3  -4 -12 16754.2 3174.99   1
  -3  -4 -12 27165.3 4910.79   1
   2  -2 -13 574.200 679.840   1
  -2   2 -13 826.300 2491.72   1
  -2  -2 -13 2497.95 3504.45   1
  -5  -5 -10 1087.68 964.290   1
  -5  -5 -10 1685.48 3899.23   1
  -5   5  10 -225.69 1848.87   1
  -5   5 -10 -62.880 1861.89   1
   5  -5 -10 -34.410 529.980   1
  -4  -2 -12 1936.40 2513.87   1
  -4   2 -12 1991.43 2817.88   1
   4  -2 -12 3293.02 1503.65   1
  -2  -5 -12 57012.8 6298.46   1
  -2  -5 -12 74985.2 8388.84   1
   2  -5 -12 68638.6 7145.90   1
  -6  -6  -8 3846.41 2956.01   1
  -6  -6  -8 20815.8 3715.57   1
  -6   6  -8 16615.3 3269.98   1
   6  -6  -8 11566.9 3037.33   1
  -6   6   8 11446.9 10637.1   1
   4 -11   2 3440.02 2183.17   1
   4 -11  -2 2721.88 1776.31   1
  -4 -11  -2 1718.99 2030.56   1
  -4 -11  -2 4524.64 3587.41   1
  -4 -11   2 3960.21 2601.95   1
  -4  11  -2 2799.22 3116.07   1
  -4  11   2 2395.19 1548.26   1
  -8   0  -7 -530.59 2471.70   1
  -8   0   7 -617.44 1771.58   1
   3  -6 -11 133.650 523.360   1
  -3  -6 -11 789.950 2699.59   1
   3  -6 -11 228.410 1333.43   1
  -3  -6 -11 -390.60 1232.33   1
  -6  -7  -7 -475.01 2735.99   1
   6  -7  -7 644.250 445.500   1
  -6  -7  -7 427.450 2219.50   1
  -6  -7   7 164.750 1392.30   1
  -6   7  -7 -512.78 2443.65   1
  -6   7   7 1836.96 2306.63   1
  -1 -11   6 5987.51 3142.36   1
  -1 -11  -6 5255.99 1517.11   1
   1 -11  -6 7351.42 5517.38   1
  -1 -11  -6 5615.32 3260.69   1
   1 -11  -6 4508.53 1874.38   1
   1 -11   6 5274.29 3975.00   1
   1 -11   6 5180.65 1159.69   1
  -9  -2  -3 128.900 1876.13   1
  -9   2   3 1878.69 6715.11   1
  -9   2  -3 1263.95 2354.30   1
  -9  -2   3 -149.72 2231.35   1
  -7  -8  -2 3800.82 3280.59   1
  -7  -8  -2 17622.8 4735.95   1
  -7  -8   2 13086.6 9386.32   1
  -7   8  -2 10969.8 7118.31   1
  -7   8   2 9261.79 5227.45   1
   7  -8  -2 11421.4 1628.68   1
  -7   0  -9 380.290 2126.36   1
  -7   0   9 589.330 1425.66   1
   1 -12   3 31125.7 4233.92   1
   1 -12  -3 23435.1 3475.03   1
  -1 -12  -3 24934.7 4021.56   1
  -1 -12   3 34369.8 5996.18   1
  -1 -12  -3 23643.2 2733.23   1
   1 -12   3 24417.1 2524.32   1
  -1 -12   3 23112.7 2660.83   1
   1 -12  -3 13043.1 2564.00   1
   0 -10  -8 31726.7 3927.27   1
   0 -10  -8 39132.7 4919.57   1
   0 -10   8 40089.0 4394.88   1
  -8  -1  -7 14551.3 3581.84   1
  -8   1   7 16765.6 3439.74   1
  -8   1  -7 20381.9 5271.47   1
  -8  -1   7 14144.5 3058.61   1
  -5  -3 -11 3373.52 4072.28   1
  -5  -3 -11 2134.46 2247.88   1
   5  -3 -11 1179.46 1255.80   1
  -9  -3   2 11457.7 5250.35   1
  -9   3  -2 6118.82 3116.50   1
  -9   3   2 11085.1 3942.87   1
  -9  -3  -2 8527.08 3816.14   1
  -4  -5 -11 11189.7 3955.30   1
   4  -5 -11 12147.9 2102.96   1
  -4  -5 -11 14684.3 2962.53   1
  -7  -1  -9 106.020 2423.53   1
  -7  -1  -9 1004.69 1626.93   1
  -7   1  -9 1264.25 2033.51   1
  -7   1   9 1737.86 2319.55   1
  -2 -12   2 9417.12 4761.52   1
  -2 -12  -2 8071.23 6357.63   1
  -2 -12  -2 6117.39 2147.81   1
   2 -12  -2 6653.44 2011.68   1
   2 -12   2 7129.31 2061.18   1
   2 -12  -2 14592.6 2590.72   1
  -2 -12   2 6410.64 1404.11   1
  -2  -8 -10 11652.9 5449.31   1
   2  -8 -10 14329.7 2371.14   1
   2  -8 -10 8559.18 3315.04   1
  -2  -8 -10 8756.30 5005.42   1
  -9   0  -4 11721.4 3798.01   1
  -9   0   4 9833.13 4548.82   1
  -5   9   6 -157.39 1238.39   1
   5  -9  -6 241.110 479.640   1
  -5   9  -6 -12.930 1064.75   1
  -5  -9  -6 985.440 2295.39   1
  -5  -9  -6 708.760 2353.86   1
  -7  -4  -8 14002.8 3225.51   1
  -7   4  -8 12449.3 3677.65   1
  -7   4   8 11320.4 3248.60   1
   7  -4  -8 10486.5 3999.58   1
  -7  -4  -8 2777.63 2865.57   1
  -1 -10  -8 20284.9 2950.90   1
   1 -10  -8 15824.5 2367.60   1
  -1 -10  -8 7052.40 1712.39   1
   1 -10  -8 6365.07 5619.65   1
   1 -10   8 4795.13 5065.83   1
  -8  -6   3 1774.37 2246.81   1
  -8  -6  -3 722.750 2650.55   1
   8  -6  -3 -37.770 468.440   1
  -8   6   3 1256.65 2193.19   1
  -8  -6  -3 641.240 2009.46   1
  -8   6  -3 30.7200 1781.38   1
  -6  -3 -10 823.950 1830.17   1
  -6   3 -10 995.500 1870.05   1
  -6   3  10 165.650 858.410   1
  -6  -3 -10 267.760 4191.44   1
   6  -3 -10 547.900 619.050   1
   7  -7  -5 923.480 615.620   1
  -7  -7  -5 1199.13 1290.09   1
  -7  -7  -5 -73.750 1827.21   1
  -7   7   5 2108.72 1670.80   1
  -7   7  -5 -392.06 2527.22   1
  -7  -7   5 705.590 1892.22   1
   6  -5  -9 882.250 736.820   1
  -6   5  -9 1161.14 2192.80   1
  -6  -5  -9 1161.92 1650.26   1
  -6   5   9 977.020 993.920   1
  -6  -5  -9 -324.88 1813.10   1
  -2  -9  -9 5107.93 3373.14   1
   2  -9  -9 3622.08 3096.63   1
  -2  -9  -9 3188.69 2358.54   1
   2  -9  -9 2885.15 2171.63   1
  -9  -1  -4 68.8800 2495.26   1
  -9  -1   4 965.370 2022.70   1
  -9   1  -4 424.610 2099.67   1
  -9   1   4 675.750 2373.76   1
   4 -11  -3 2316.03 1948.53   1
   4 -11   3 2767.74 1929.23   1
  -4 -11  -3 2811.15 3043.65   1
  -4 -11   3 4346.02 2665.25   1
  -4 -11  -3 2337.16 1856.25   1
  -4  11   3 2797.81 2093.14   1
  -4  11  -3 3048.25 2759.79   1
  -8   2   7 630.160 1749.51   1
  -8   2  -7 1324.42 2695.99   1
  -8  -2  -7 1016.09 2375.73   1
  -8  -2   7 -848.72 1542.36   1
  -3  10  -7 628.080 1795.69   1
  -3 -10  -7 -9063.8 3860.64   1
  -3 -10  -7 1051.16 2546.19   1
  -3 -10   7 1136.97 1439.45   1
   3 -10  -7 827.110 667.840   1
  -3   0 -13 -1670.1 3601.14   1
   6  -8  -6 36163.0 3978.57   1
  -6  -8  -6 9670.52 7199.73   1
  -6  -8  -6 55610.1 6709.02   1
  -6  -8   6 55264.3 6555.70   1
  -6   8  -6 37281.2 4880.42   1
  -6   8   6 37241.9 20547.6   1
  -2  -7 -11 34904.8 4262.43   1
   2  -7 -11 33589.6 4126.84   1
   2  -7 -11 42726.6 4597.01   1
  -2  -7 -11 31002.4 4048.85   1
  -5 -10  -4 14401.1 10644.0   1
  -5  10   4 12036.0 8467.47   1
   5 -10  -4 10766.8 2362.37   1
  -5 -10  -4 4670.77 2714.78   1
  -5  10  -4 10925.7 6600.86   1
  -5 -10   4 12970.7 2906.33   1
  -2  -3 -13 4828.18 1971.34   1
   2  -3 -13 4546.97 1842.49   1
  -2   3 -13 5026.97 2654.30   1
  -7  -8  -3 2303.78 2535.99   1
   7  -8  -3 2882.83 2336.43   1
  -7  -8  -3 282.810 1704.59   1
  -7  -8   3 3661.09 3525.64   1
  -7   8  -3 2686.74 1334.37   1
  -7   8   3 1117.17 2133.61   1
   0  -4 -13 1755.72 1198.40   1
   4  -3 -12 6116.40 2071.94   1
  -4  -3 -12 11255.9 3396.12   1
  -4  -3 -12 3624.70 2135.41   1
  -7   2   9 300.410 1710.99   1
  -7   2  -9 1629.91 2361.64   1
  -7  -2  -9 -974.83 2909.06   1
  -7  -2  -9 -351.96 2023.08   1
   6  -9  -4 1139.35 798.640   1
  -6  -9  -4 1642.42 1308.35   1
  -6  -9   4 1151.10 3124.70   1
  -6   9  -4 431.640 2399.63   1
  -6   9   4 688.080 2473.50   1
  -6  -9  -4 1640.76 2075.55   1
  -9  -4   0 3413.88 2581.93   1
  -9   4   0 4619.55 2991.86   1
   0 -12  -4 47692.6 5898.22   1
   0 -12   4 62281.7 6095.60   1
   0 -12  -4 71250.0 8023.45   1
   0 -12   4 54676.9 5902.66   1
  -8  -5  -5 436.590 2338.83   1
   8  -5  -5 3861.15 1818.57   1
  -8   5   5 3620.74 1936.40   1
  -8   5  -5 3551.07 3104.62   1
  -8  -5   5 4632.36 2168.50   1
  -8  -5  -5 3870.12 3411.70   1
  -3 -11  -5 4649.55 4246.32   1
  -3 -11  -5 3995.91 1664.19   1
   3 -11  -5 4083.57 2804.52   1
  -3 -11   5 5267.42 2713.79   1
  -3  11  -5 4273.34 3557.82   1
  -8   4  -6 11742.7 3097.52   1
  -8  -4   6 12609.6 6346.07   1
  -8   4   6 11983.2 3248.11   1
   8  -4  -6 13094.8 2485.14   1
  -8  -4  -6 951.050 3766.46   1
  -8  -4  -6 14775.5 4356.71   1
   3  -1 -13 6009.67 3740.53   1
  -3  -1 -13 4131.18 2776.41   1
  -3   1 -13 3661.61 2397.95   1
  -9   3  -3 3188.90 1980.61   1
  -9  -3   3 7092.04 3957.68   1
  -9  -3  -3 5477.38 2474.47   1
  -9   3   3 4826.54 2789.51   1
   4 -10  -6 23631.7 2756.34   1
  -4  10   6 23607.3 3844.97   1
  -4 -10  -6 33880.8 4623.79   1
  -4 -10  -6 16259.9 8893.14   1
  -4 -10   6 35469.1 4402.31   1
  -4  10  -6 24855.0 6771.26   1
  -2 -11  -6 18308.8 5132.77   1
  -2 -11  -6 24485.5 3446.15   1
   2 -11  -6 32596.8 4448.54   1
  -2 -11   6 20758.8 7134.97   1
   2 -11  -6 16368.1 2612.05   1
  -9   4   1 1523.34 2608.87   1
  -9  -4  -1 1017.05 2435.08   1
  -9  -4   1 2380.13 3384.07   1
  -9   4  -1 1538.06 2402.72   1
  -2 -12  -3 3870.77 2501.95   1
   2 -12  -3 3697.01 1740.93   1
  -2 -12   3 2401.14 1783.94   1
  -2 -12  -3 2852.57 2190.69   1
   2 -12   3 3875.59 2110.01   1
   2 -12  -3 5670.06 2977.35   1
  -9  -2  -4 5854.16 3111.30   1
  -9  -2   4 4339.47 2919.92   1
  -9   2  -4 4125.88 2681.65   1
  -9   2   4 2636.87 2840.95   1
  -1  -4 -13 306.060 1890.83   1
   1  -4 -13 977.050 948.690   1
   1 -12   4 37799.9 3775.65   1
   1 -12  -4 43610.7 4504.10   1
  -1 -12  -4 43468.1 4664.53   1
  -1 -12   4 42210.1 4195.00   1
   1 -12   4 27932.7 3739.34   1
   1 -12  -4 23225.9 3254.46   1
  -1 -12   4 29489.9 3761.20   1
  -1 -12  -4 32121.5 4382.62   1
   4  -8  -9 498.280 681.960   1
  -4  -8  -9 1932.89 2216.64   1
  -4  -8  -9 -218.13 1832.14   1
   3 -12   0 10183.7 5181.67   1
  -3 -12   0 11301.5 1707.05   1
  -3  12   0 8649.22 7480.07   1
  -3 -12   0 6567.46 4024.67   1
  -5  -7  -9 -194.30 1785.28   1
  -5   7   9 -325.56 1709.53   1
  -5   7  -9 169.820 1101.34   1
   5  -7  -9 195.070 389.040   1
  -5  -7  -9 207.290 1013.40   1
  -4  -7 -10 -874.33 1842.23   1
   4  -7 -10 -820.11 905.820   1
  -4  -7 -10 891.660 830.090   1
   2 -10  -8 31715.6 3715.76   1
  -2 -10  -8 33095.6 4222.99   1
   2 -10  -8 25024.5 3342.66   1
  -2 -10  -8 24636.3 3273.45   1
   3 -12   1 210.870 462.990   1
   3 -12  -1 189.980 480.620   1
  -3 -12   1 50.6200 515.570   1
  -3 -12  -1 163.710 558.000   1
  -3 -12   1 706.100 945.480   1
  -3 -12  -1 -311.78 1654.23   1
  -3  12  -1 -1251.5 2268.67   1
  -3  12   1 -619.61 2404.45   1
  -5  -4 -11 2391.01 1749.74   1
  -5   4  11 1052.76 1533.34   1
   5  -4 -11 1711.05 1649.76   1
  -5  -4 -11 -178.15 2435.59   1
  -9   4   2 488.080 2372.53   1
  -9  -4  -2 1058.91 2255.29   1
  -9  -4   2 940.020 1762.66   1
  -9   4  -2 1212.48 2404.30   1
  -8  -7   0 12227.1 3652.07   1
  -8   7   0 10650.5 3357.18   1
  -3   2 -13 889.980 2452.36   1
   3  -2 -13 264.410 1309.56   1
  -3  -2 -13 -1383.3 2941.17   1
  -3  -5 -12 67265.9 7141.61   1
  -3  -5 -12 63643.0 7130.03   1
   3  -5 -12 77062.5 8247.10   1
  -8  -6  -4 2889.89 2608.15   1
   8  -6  -4 1552.01 1271.92   1
  -8   6   4 1931.64 2792.25   1
  -8   6  -4 442.510 2653.90   1
  -8  -6   4 -104.34 1873.38   1
  -8  -6  -4 447.980 2164.85   1
  -5   8   8 20136.0 11689.3   1
   5  -8  -8 19267.8 2490.83   1
  -5   8  -8 24354.2 4422.96   1
  -5  -8  -8 28370.3 4044.31   1
  -5  -8  -8 7143.60 5006.71   1
  -8  -7  -1 4719.66 3084.61   1
  -8   7   1 1389.23 2702.21   1
  -8   7  -1 1669.95 2315.75   1
  -8  -7   1 3461.48 4746.40   1
   8  -3  -7 13260.8 2961.32   1
  -8   3   7 12136.4 5792.55   1
  -8  -3  -7 426.720 7556.57   1
  -8   3  -7 14236.7 3816.36   1
  -8  -3  -7 15935.6 4090.17   1
  -8  -3   7 14563.9 3397.16   1
   0 -11   7 -16.980 1097.41   1
   0 -11  -7 -652.97 2250.48   1
   0 -11  -7 -167.66 1052.56   1
   7  -3  -9 1260.61 879.450   1
  -7  -3  -9 630.070 1795.20   1
  -7  -3  -9 1655.21 2272.66   1
  -7   3  -9 -185.72 1855.64   1
  -7   3   9 1133.03 1698.77   1
  -9   0  -5 -1030.0 2426.62   1
  -9   0   5 402.000 1685.01   1
   6  -4 -10 4413.94 2997.49   1
  -6  -4 -10 7519.29 5230.43   1
  -6   4  10 8587.86 6767.89   1
  -6  -4 -10 13852.8 2797.41   1
  -6   4 -10 8993.86 3255.70   1
  -4 -11  -4 -488.62 1255.96   1
  -4  11   4 811.360 2632.98   1
  -4  11  -4 196.320 1336.08   1
  -4 -11   4 419.550 1447.10   1
  -4 -11  -4 1312.93 1572.20   1
   4 -11  -4 -243.90 725.780   1
  -4  -9  -8 1824.87 1963.11   1
  -4  -9  -8 674.690 1531.97   1
   4  -9  -8 533.760 820.820   1
  -4   9  -8 2161.15 1559.98   1
  -7   6   7 319.500 1230.68   1
  -7   6  -7 944.760 1763.68   1
  -7  -6   7 2640.55 2431.05   1
   7  -6  -7 2185.08 940.830   1
  -7  -6  -7 -507.70 2605.26   1
  -7  -6  -7 1565.22 3704.38   1
  -6 -10   0 11186.7 8908.70   1
   6 -10   0 13066.4 1886.37   1
  -6  10   0 9265.03 6669.67   1
  -7  -8  -4 664.960 2708.04   1
  -7   8   4 -177.88 2000.91   1
  -7  -8  -4 118.750 1457.44   1
  -7  -8   4 528.510 1806.68   1
  -7   8  -4 -1039.0 2770.09   1
   7  -8  -4 354.220 586.830   1
   5  -6 -10 31251.3 3623.27   1
  -5  -6 -10 20439.3 12031.0   1
  -5   6  10 35768.1 6950.59   1
  -5  -6 -10 43361.1 5359.36   1
  -3  12  -2 3382.77 1843.53   1
   3 -12   2 3413.18 972.380   1
  -3 -12  -2 3901.12 3115.29   1
   3 -12  -2 4481.07 2812.39   1
  -3 -12   2 2912.44 1939.14   1
  -3 -12  -2 3325.17 2550.22   1
  -2  -6 -12 77578.5 8212.72   1
  -2  -6 -12 77356.5 8166.37   1
   2  -6 -12 82012.4 2721.96   1
  -3  -8 -10 6328.80 3912.78   1
   3  -8 -10 4686.67 1905.19   1
   3  -8 -10 4229.70 4583.33   1
  -3  -8 -10 5937.44 5366.88   1
  -9   1   5 3353.01 3238.88   1
  -9  -1   5 1187.92 2432.54   1
  -9   1  -5 2144.98 2214.91   1
  -9  -1  -5 910.090 2604.72   1
   0   0 -14 29175.6 5038.95   1
  -1 -11  -7 1959.11 1991.88   1
  -1 -11  -7 5059.98 6454.46   1
   1 -11   7 3160.91 825.390   1
   1 -11  -7 3018.43 2260.65   1
   1 -11  -7 6791.12 5721.44   1
   1 -11   7 8130.91 5458.26   1
  -1 -11   7 5375.21 2177.25   1
  -6 -10   1 7337.02 6504.30   1
  -6 -10  -1 9115.99 2951.72   1
  -6  10  -1 6535.99 4012.61   1
  -6  10   1 9381.87 5107.15   1
   6 -10   1 7495.14 4709.81   1
   6 -10  -1 7965.09 1529.89   1
  -9   3   4 -831.09 2037.59   1
  -9   3  -4 -365.25 2109.91   1
  -9  -3   4 474.760 2261.75   1
   9  -3  -4 453.120 576.810   1
  -9  -3  -4 2345.41 4203.18   1
  -6   0 -11 -54.110 2100.45   1
  -6   0 -11 -842.52 2889.28   1
  -5   0 -12 11570.8 4330.03   1
  -7  -5  -8 16342.3 8926.55   1
   7  -5  -8 10149.4 4121.28   1
  -7   5  -8 14334.5 3038.81   1
  -7   5   8 10679.3 6984.47   1
  -7  -5  -8 4139.96 7190.24   1
   2  -4 -13 315.540 1576.69   1
  -2  -4 -13 2057.25 2135.08   1
  -8  -7   2 5618.92 3074.22   1
  -8   7  -2 5299.20 3102.17   1
  -8  -7  -2 6822.30 3541.53   1
  -8   7   2 4068.80 3272.05   1
   8  -7  -2 4090.96 2110.71   1
  -8  -7  -2 776.040 1957.26   1
  -4  -4 -12 42969.7 5246.28   1
   4  -4 -12 20335.2 4631.97   1
  -4  -4 -12 20821.3 4868.20   1
  -3  -9  -9 4528.48 3888.67   1
  -3  -9  -9 6450.94 5990.57   1
   3  -9  -9 9204.27 3290.58   1
   2 -12  -4 67350.4 8525.80   1
  -2 -12  -4 46288.5 5770.59   1
  -2 -12   4 44376.3 4569.38   1
   2 -12   4 45739.3 5127.90   1
   2 -12  -4 44492.2 4174.67   1
  -2 -12  -4 43662.9 4360.38   1
   0  -9 -10 441.690 1078.95   1
   0  -9 -10 452.490 1391.80   1
  -5 -10  -5 8562.04 5519.33   1
   5 -10  -5 11673.0 2123.21   1
  -5  10   5 13045.4 3601.85   1
  -5 -10  -5 15566.3 5693.30   1
  -5 -10   5 12375.9 2498.46   1
  -5  10  -5 13108.8 8359.00   1
  -7   7   6 9420.85 6171.66   1
  -7   7  -6 9013.60 5091.05   1
   7  -7  -6 10233.1 3032.02   1
  -7  -7   6 12089.4 2982.94   1
  -7  -7  -6 2636.86 2263.10   1
  -7  -7  -6 11893.9 8177.22   1
   0   1 -14 953.730 1916.56   1
   0  -1 -14 897.350 1606.00   1
  -5  11   0 22436.6 4998.17   1
  -5 -11   0 26127.0 3569.18   1
   5 -11   0 25241.2 2592.26   1
  -6  -9  -5 915.540 2405.52   1
  -6  -9   5 1809.38 2350.97   1
   6  -9  -5 1666.10 1487.19   1
  -6   9   5 1603.42 2407.97   1
  -6  -9  -5 2514.69 2898.75   1
  -6   9  -5 590.400 2254.41   1
  -6  -1 -11 3153.72 1543.74   1
  -6   1 -11 2681.55 2583.43   1
  -6  -1 -11 -21.660 3418.99   1
  -5  -1 -12 5468.54 3841.97   1
  -5   1 -12 3540.90 3364.43   1
  -9  -4  -3 484.160 2257.81   1
  -9   4  -3 394.250 2386.89   1
  -9   4   3 837.540 2150.69   1
  -9  -4   3 411.720 1887.62   1
  -4  -6 -11 6016.70 2149.75   1
   4  -6 -11 2853.80 1423.34   1
  -4  -6 -11 3167.71 1819.65   1
   0 -12  -5 11937.5 2526.52   1
   0 -12   5 10703.2 1749.14   1
   0 -12   5 7007.29 3881.28   1
   0 -12  -5 7503.22 2269.82   1
   0  -8 -11 26085.0 3374.03   1
   0  -8 -11 21309.3 3952.92   1
  -8   0  -8 486.630 2444.84   1
  -8   0   8 1291.09 1577.25   1
  -6   7   8 976.960 1197.86   1
  -6  -7  -8 7396.48 7788.19   1
   6  -7  -8 684.490 590.320   1
  -6  -7  -8 1750.37 2650.00   1
  -6   7  -8 2040.99 2731.44   1
   1   0 -14 7989.39 1815.87   1
  -1   0 -14 7588.46 2763.02   1
  -5 -11  -1 193.740 921.150   1
   5 -11  -1 -151.23 699.910   1
   5 -11   1 -127.79 610.930   1
  -5 -11  -1 1288.75 641.520   1
  -5  11  -1 -518.26 2689.31   1
  -5  11   1 -411.59 2385.20   1
  -5 -11   1 -285.86 1684.40   1
  -5  -9  -7 202.030 1144.48   1
   5  -9  -7 826.640 583.080   1
  -5  -9  -7 1855.50 2143.28   1
  -5  -9   7 377.620 1853.73   1
  -5   9   7 879.020 1436.65   1
  -5   9  -7 753.680 2458.24   1
   3  -7 -11 22994.4 2813.78   1
  -3  -7 -11 24285.5 4115.52   1
  -3  -7 -11 24084.8 3217.89   1
   3  -7 -11 24864.2 4144.74   1
   3  -3 -13 5389.63 1773.18   1
  -3  -3 -13 6370.75 4107.87   1
   0  -5 -13 1128.78 1799.20   1
  -8   1   8 361.030 2023.17   1
  -8   1  -8 541.850 1934.09   1
  -8  -1  -8 803.850 1857.57   1
  -8  -1   8 -687.89 1457.20   1
  -6 -10  -2 15024.5 2984.54   1
  -6  10   2 31664.1 5010.58   1
   6 -10  -2 41734.1 3998.99   1
  -6  10  -2 36975.3 5286.72   1
  -6 -10   2 55921.3 11483.4   1
   9  -2  -5 34.7500 333.630   1
  -9  -2  -5 348.530 2198.72   1
  -9  -2   5 319.990 1593.16   1
  -9   2  -5 407.970 2080.54   1
  -9   2   5 1293.33 2397.87   1
   1  -9 -10 5002.15 3812.30   1
   1  -9 -10 7706.54 6719.17   1
  -1  -9 -10 4972.52 2597.76   1
  -1  -9 -10 4641.42 4061.32   1
  -1   1 -14 3028.60 3143.33   1
   1   1 -14 4150.48 2115.96   1
   1  -1 -14 3161.94 2394.33   1
  -1  -1 -14 5277.55 3245.33   1
  -9  -5   0 1792.48 2104.13   1
  -9   5   0 2269.59 3218.11   1
  -6  -6  -9 522.650 2165.52   1
   6  -6  -9 502.260 612.500   1
  -6   6   9 1824.51 2427.76   1
  -6   6  -9 829.210 1966.79   1
  -6  -6  -9 1231.87 1464.89   1
  -7  -9   0 18480.6 3172.42   1
  -7   9   0 12985.0 5879.21   1
   7  -9   0 11410.0 1843.28   1
  -1 -12  -5 14163.2 2569.63   1
   1 -12   5 12816.9 1749.76   1
   1 -12  -5 13821.6 1720.63   1
  -1 -12  -5 13330.9 1913.99   1
   1 -12   5 16002.7 2456.01   1
  -1 -12   5 15865.0 5921.31   1
   1 -12  -5 16083.6 4782.21   1
  -8  -5   6 7800.81 2738.24   1
  -8   5  -6 8375.29 3728.64   1
  -8   5   6 6541.55 4316.03   1
  -8  -5  -6 8372.34 3151.76   1
   8  -5  -6 6774.76 3427.18   1
  -8  -5  -6 886.320 3032.24   1
  -1  -8 -11 16113.3 4525.28   1
   1  -8 -11 18570.3 2904.71   1
  -1  -8 -11 19907.2 4176.43   1
  -3 -11   6 9684.83 6246.07   1
  -3  11  -6 7467.99 5300.03   1
   3 -11  -6 6598.07 1857.89   1
  -3 -11  -6 10199.2 9951.21   1
  -3 -11  -6 6667.16 1964.08   1
  -9   5   1 1560.91 2645.44   1
  -9  -5  -1 2981.76 2399.65   1
  -9  -5   1 1056.76 2666.83   1
  -9   5  -1 2944.11 2992.97   1
  -3 -12  -3 2163.48 1401.09   1
   3 -12  -3 1415.66 1041.04   1
   3 -12   3 1238.18 1204.91   1
  -3  12  -3 1105.67 2980.50   1
  -3 -12   3 1378.60 1599.98   1
  -3 -12  -3 1144.96 2017.28   1
  -7   9   1 5753.97 3608.87   1
  -7   9  -1 5551.65 2889.68   1
  -7  -9   1 6858.03 2578.16   1
  -7  -9  -1 10677.3 5871.65   1
   7  -9  -1 7951.47 2059.45   1
   0  -2 -14 19529.9 2997.71   1
   0   2 -14 21089.2 4007.34   1
   0 -10  -9 22867.9 2727.40   1
   0 -10  -9 17678.0 3780.76   1
  -6  -8   7 10626.9 8001.47   1
  -6   8   7 10946.9 5467.07   1
   6  -8  -7 9340.03 1744.50   1
  -6  -8  -7 12900.5 3350.08   1
  -6  -8  -7 1878.32 2069.33   1
  -6   8  -7 11630.7 3144.53   1
  -1  -5 -13 2255.56 1710.87   1
   1  -5 -13 1582.58 1200.56   1
  -6   2 -11 1057.63 1738.16   1
  -6  -2 -11 1183.31 3499.24   1
  -6  -2 -11 88.8000 2155.34   1
  -5  -2 -12 24032.5 8162.77   1
  -5  -2 -12 33922.0 5256.93   1
  -5 -11   2 371.370 1390.65   1
  -5 -11  -2 749.360 1046.40   1
  -5 -11  -2 463.490 1020.63   1
   5 -11  -2 711.060 801.660   1
   5 -11   2 933.170 816.320   1
  -5  11   2 825.670 1759.24   1
  -5  11  -2 1098.36 2128.74   1
  -8   7   3 7122.81 2551.33   1
  -8   7  -3 7051.68 4130.26   1
  -8  -7   3 7811.54 2908.23   1
  -8  -7  -3 11514.0 3515.22   1
   8  -7  -3 7655.15 2458.84   1
  -8  -7  -3 2206.32 3231.70   1
  -8   6  -5 824.540 2708.05   1
  -8  -6   5 400.370 1521.85   1
  -8  -6  -5 1892.93 2445.52   1
  -8  -6  -5 -1042.5 1999.44   1
   8  -6  -5 -108.17 588.870   1
  -8   6   5 36.6000 1862.36   1
   8  -4  -7 227.380 329.390   1
  -8  -4  -7 481.800 2979.24   1
  -8  -4  -7 1295.21 2351.62   1
  -8  -4   7 1318.57 2306.03   1
  -8   4  -7 1057.52 1732.62   1
  -8   4   7 1070.88 1674.16   1
  -4 -10  -7 14327.3 10420.8   1
  -4 -10   7 10141.1 7888.92   1
  -4  10  -7 10490.2 2582.02   1
   4 -10  -7 9889.04 2445.16   1
  -4 -10  -7 6163.58 5190.83   1
   2 -11  -7 9095.51 1779.89   1
  -2 -11  -7 7374.92 7883.02   1
  -2 -11  -7 3663.77 1284.36   1
   2 -11  -7 4569.41 3374.39   1
  -2 -11   7 5568.34 2961.64   1
  -7   0 -10 12536.6 3814.18   1
  -4   0 -13 2463.17 3569.96   1
   0 -13   0 424.460 766.830   1
   0 -13   0 736.140 591.980   1
  -8  -2   8 -318.84 1396.85   1
  -8  -2  -8 905.990 2051.03   1
  -8   2  -8 682.190 1749.27   1
  -8   2   8 586.270 1140.44   1
  -7   4   9 -594.22 2057.72   1
   7  -4  -9 465.830 546.340   1
  -7  -4  -9 -73.630 1828.69   1
  -7  -4  -9 256.300 2131.36   1
  -7   4  -9 239.810 2078.60   1
   3 -10  -8 30725.6 3985.82   1
  -3 -10  -8 16537.4 2573.49   1
   3 -10  -8 15337.4 2761.46   1
  -3 -10  -8 24917.8 4149.33   1
  -3  10  -8 17059.4 3549.79   1
   0  -7 -12 -394.04 1943.90   1
   0  -7 -12 535.490 1109.23   1
  -1   2 -14 12547.4 3143.59   1
  -1  -2 -14 15761.7 4184.76   1
   1  -2 -14 18206.9 9075.83   1
  -1 -10  -9 7828.61 2325.13   1
   1 -10  -9 7700.83 1883.64   1
  -1 -10  -9 11753.7 2341.22   1
   1 -10  -9 13660.0 2218.10   1
  -5   5  11 601.050 1473.78   1
  -5  -5 -11 1171.88 3227.31   1
  -5  -5 -11 524.390 2097.21   1
   5  -5 -11 595.300 1205.71   1
  -9  -5  -2 15129.0 4465.88   1
  -9  -5   2 13525.8 4489.68   1
  -9   5  -2 14143.2 5238.22   1
  -9   5   2 9107.90 3927.71   1
  -4  11  -5 1836.15 1230.32   1
  -4 -11   5 2167.00 2658.95   1
  -4 -11  -5 5183.18 3927.63   1
   4 -11  -5 2751.96 1585.73   1
  -4 -11  -5 1286.13 1286.94   1
  -4  11   5 3069.24 2738.57   1
  -7  -9  -2 7172.26 4294.28   1
   7  -9  -2 5253.18 2387.29   1
  -7  -9  -2 2633.24 2118.07   1
  -7  -9   2 7733.40 6024.54   1
  -7   9  -2 4799.91 3165.60   1
  -7   9   2 4888.46 3831.10   1
   0 -13   1 1029.02 1075.14   1
   0 -13   1 1.11000 265.560   1
   0 -13  -1 159.400 307.950   1
   0 -13  -1 422.770 1202.57   1
  -7   1 -10 3883.87 2998.09   1
  -7  -1 -10 3708.41 2399.26   1
  -7  -1 -10 1036.25 2696.40   1
  -4   1 -13 4477.61 4978.20   1
  -4  -1 -13 6562.45 5832.64   1
  -6 -10  -3 6931.06 2764.30   1
  -6 -10  -3 15264.2 3913.05   1
   6 -10  -3 13361.7 3652.50   1
  -6  10   3 11925.9 6763.49   1
  -6 -10   3 18654.3 10769.4   1
  -6  10  -3 11879.9 9309.07   1
  -7  -8   5 1076.33 1945.78   1
  -7  -8  -5 2609.95 3931.76   1
  -7  -8  -5 -22.200 1455.13   1
  -7   8  -5 1222.41 2455.29   1
  -7   8   5 -501.87 2150.24   1
   7  -8  -5 370.740 514.190   1
   2   0 -14 387.180 1711.32   1
  -2   0 -14 -391.90 3894.66   1
  -9  -4  -4 3794.31 2361.83   1
  -9   4   4 1754.48 2139.44   1
  -9   4  -4 2189.74 2247.13   1
  -9  -4   4 2961.91 2351.70   1
   1 -13   0 3045.84 1618.67   1
  -1 -13   0 3564.91 2693.02   1
   1 -13   0 2868.36 1828.79   1
  -1 -13   0 3004.50 1666.22   1
   1  -7 -12 287.740 1296.34   1
  -1  -7 -12 89.2800 860.290   1
  -1  -7 -12 -109.37 1298.31   1
  -9   3   5 1720.46 3472.81   1
  -9  -3   5 3050.27 2828.91   1
  -9  -3  -5 1346.02 2979.01   1
   9  -3  -5 1908.50 1351.75   1
  -9   3  -5 2364.30 2087.93   1
  -6  -5 -10 2043.96 1621.78   1
  -6   5 -10 1847.82 2019.75   1
  -6   5  10 1424.37 1378.45   1
   6  -5 -10 1305.33 1080.85   1
  -6  -5 -10 395.270 2309.91   1
  -9   0   6 1975.57 2367.27   1
  -9   0  -6 1012.64 1978.59   1
   2  -9 -10 23505.7 5685.75   1
  -2  -9 -10 18604.0 4782.53   1
   2  -9 -10 16613.7 4214.47   1
  -2  -9 -10 25082.5 6306.88   1
  -2   1 -14 2439.41 1756.31   1
  -2  -1 -14 5054.68 2163.99   1
   2  -1 -14 4942.13 2577.27   1
   1 -13   1 2123.42 1361.36   1
   1 -13  -1 1905.75 1851.50   1
  -1 -13   1 1148.91 1700.04   1
  -1 -13  -1 1661.31 1124.80   1
   1 -13   1 512.610 457.480   1
   1 -13  -1 1061.68 973.010   1
  -1 -13   1 839.300 473.900   1
  -1 -13  -1 517.550 523.680   1
  -3  -6 -12 6883.92 4502.20   1
   3  -6 -12 7137.48 1529.78   1
  -3  -6 -12 6849.36 2410.37   1
  -2 -12   5 1833.58 1524.59   1
  -2 -12  -5 1504.73 1332.90   1
   2 -12   5 2112.10 473.470   1
   2 -12  -5 3068.02 1607.92   1
  -2 -12  -5 2540.99 1544.62   1
   2 -12  -5 1781.76 1862.25   1
  -4 -12   0 4136.65 3569.54   1
  -4  12   0 2874.97 2981.72   1
   4 -12   0 1916.16 1308.94   1
   2  -8 -11 4418.88 3730.42   1
  -2  -8 -11 4938.14 3451.85   1
   2  -8 -11 3083.10 2583.30   1
  -2  -8 -11 3065.90 3418.84   1
  -5 -11   3 -213.28 1888.65   1
  -5 -11  -3 183.240 1757.87   1
   5 -11  -3 247.840 321.490   1
  -5 -11  -3 317.980 1251.73   1
  -5  11   3 113.270 2458.24   1
  -5  11  -3 1345.87 2114.34   1
  -9   1   6 8596.20 2769.17   1
  -9  -1   6 9130.31 2495.29   1
  -9   1  -6 14362.8 5226.94   1
  -9  -1  -6 14512.0 5404.72   1
   0 -13  -2 246.820 340.360   1
   0 -13   2 143.530 357.230   1
   0 -13  -2 574.310 921.940   1
   0 -13   2 -190.64 1211.05   1
   0  -3 -14 681.430 1794.22   1
   3  -4 -13 -59.840 1932.08   1
  -3  -4 -13 50.4900 1853.11   1
  -6  -3 -11 476.420 3843.50   1
   6  -3 -11 709.050 1043.38   1
  -6  -3 -11 2361.43 2444.58   1
  -5  -3 -12 8494.85 3243.59   1
  -5  -3 -12 5469.38 4431.31   1
   5  -3 -12 3886.03 3090.00   1
   4 -12   1 9498.60 1268.48   1
  -4  12   1 10583.2 5558.32   1
  -4  12  -1 9362.15 4201.56   1
  -4 -12   1 10751.1 5999.84   1
  -4 -12  -1 15504.7 11589.2   1
   4 -12  -1 9763.58 1562.35   1
  -4 -12  -1 6445.89 1836.60   1
  -7  -2 -10 5404.70 4815.76   1
  -7   2 -10 18771.3 3203.61   1
  -7  -2 -10 28880.8 6715.90   1
  -4  -2 -13 -439.45 4540.41   1
   4  -2 -13 523.740 2054.51   1
   2  -5 -13 3132.78 2779.94   1
  -2  -5 -13 3308.59 1987.42   1
  -4  -5 -12 51537.3 9275.41   1
   4  -5 -12 37445.8 4436.72   1
  -4  -5 -12 44164.7 5673.96   1
  -3 -12   4 13621.2 7057.81   1
  -3 -12  -4 14054.4 2695.81   1
   3 -12   4 14710.8 2183.58   1
  -3  12  -4 15251.2 3213.14   1
   3 -12  -4 14170.1 2320.43   1
  -3 -12  -4 14639.2 2178.29   1
  -5 -10  -6 9389.63 5352.36   1
  -5 -10   6 10357.1 6457.23   1
  -5  10  -6 8948.83 8043.45   1
   5 -10  -6 12966.3 1947.59   1
  -5  10   6 7668.01 6117.87   1
  -5 -10  -6 8474.13 2886.94   1
  -9   5   3 3506.49 3295.91   1
  -9   5  -3 6971.49 3967.08   1
  -9  -5  -3 5440.08 2913.39   1
  -9  -5   3 4612.94 2327.86   1
  -6  -9  -6 1025.20 1889.90   1
   6  -9  -6 148.400 431.350   1
  -6   9   6 477.650 1085.02   1
  -6   9  -6 -525.15 2125.57   1
  -6  -9   6 -749.43 1834.03   1
  -6  -9  -6 -1127.2 2812.66   1
  -7  -9   3 1820.78 1976.31   1
  -7   9  -3 1634.67 2646.63   1
  -7   9   3 1729.09 1437.70   1
   7  -9  -3 1933.87 1544.15   1
  -7  -9  -3 304.020 1383.49   1
  -7  -9  -3 2359.54 1937.94   1
  -8  -7  -4 1962.12 2162.62   1
  -8  -7  -4 9818.92 3134.94   1
  -8  -7   4 10498.0 2905.40   1
  -8   7  -4 8407.36 3642.08   1
  -8   7   4 6877.74 5304.91   1
   8  -7  -4 7693.15 2390.68   1
  -8   3  -8 -65.620 1734.10   1
  -8  -3   8 198.990 1344.78   1
  -8  -3  -8 962.730 2539.64   1
  -8   3   8 -1030.7 2122.31   1
  -8  -3  -8 -1359.3 2685.75   1
   0 -12   6 215.770 833.450   1
   0 -12  -6 157.550 1118.62   1
   0 -12  -6 -390.38 745.640   1
  -1 -13   2 5105.64 3267.22   1
  -1 -13  -2 4933.25 4010.67   1
   1 -13   2 3375.21 1259.35   1
   1 -13  -2 3375.01 1975.47   1
  -1 -13   2 3091.68 1799.41   1
  -1 -13  -2 2688.19 952.520   1
   1 -13   2 6883.31 5091.80   1
   1 -13  -2 7033.22 5074.40   1
  -1  -3 -14 7157.16 2754.07   1
  -1   3 -14 6839.52 3371.37   1
   1  -3 -14 6553.46 4556.10   1
   0 -11  -8 1077.33 2142.87   1
   0 -11  -8 -147.88 1161.72   1
 -10   0   0 28858.4 6954.70   1
   2  -2 -14 8577.78 7792.97   1
  -2  -2 -14 12895.6 4456.03   1
  -2   2 -14 7576.69 3881.25   1
   2 -10  -9 1786.93 1732.75   1
  -2 -10  -9 1969.93 1834.17   1
   2 -10  -9 2534.77 2110.20   1
  -2 -10  -9 2832.23 1978.11   1
  -7  -6  -8 36.8300 3867.81   1
   7  -6  -8 422.020 464.700   1
  -7   6   8 291.790 1677.38   1
  -7   6  -8 1433.05 3259.13   1
  -7  -6  -8 -919.90 2074.82   1
  -5   8   9 2835.36 2567.28   1
   5  -8  -9 2684.86 1537.12   1
  -5  -8  -9 1856.78 1956.55   1
  -5   8  -9 1660.12 2261.58   1
  -5  -8  -9 2740.24 2610.82   1
  -4  12   2 18053.2 10002.9   1
  -4 -12   2 20302.9 7378.74   1
  -4 -12  -2 13087.1 7385.45   1
   4 -12  -2 19918.3 3696.05   1
   4 -12   2 20013.7 2410.26   1
  -4 -12  -2 29901.7 10436.5   1
  -4  12  -2 21397.7 5012.86   1
 -10   0  -1 70.9300 2009.95   1
 -10   0   1 -177.33 1762.18   1
  -9  -2  -6 796.410 2004.26   1
  -9   2   6 2847.98 3034.17   1
  -9   2  -6 1671.48 2181.54   1
  -9  -2   6 -38.340 1675.47   1
  -4  -8 -10 8869.78 8204.73   1
  -4  -8 -10 5911.87 4118.19   1
   4  -8 -10 9061.04 1704.16   1
  -7   7   7 3735.54 2800.91   1
  -7   7  -7 3923.34 2416.63   1
  -7  -7  -7 648.180 2342.50   1
  -7  -7   7 6933.53 2359.19   1
  -7  -7  -7 8383.49 6484.39   1
   7  -7  -7 4105.06 1629.06   1
 -10   1   0 122.280 2265.74   1
 -10  -1   0 -159.75 2227.69   1
  -8  -8   0 824.660 1864.57   1
  -8   8   0 1742.33 2309.68   1
   1 -12   6 1504.34 762.800   1
  -1 -12  -6 -221.89 954.530   1
   1 -12  -6 869.810 1029.36   1
   1 -12   6 5442.13 3330.46   1
   1 -12  -6 3600.93 2845.90   1
  -1 -12   6 3896.03 3047.93   1
  -1 -12  -6 3064.13 2354.07   1
  -2 -13   0 8629.12 4395.89   1
   2 -13   0 7162.12 2299.00   1
   2 -13   0 17194.7 9943.50   1
  -2 -13   0 6852.97 2309.28   1
  -5   7  10 -305.55 1720.62   1
  -5  -7 -10 257.490 1007.07   1
   5  -7 -10 396.170 707.300   1
  -5  -7 -10 414.570 2094.77   1
  -2  -7 -12 -69.710 1516.30   1
   2  -7 -12 -64.440 1176.44   1
  -2  -7 -12 -331.85 1263.71   1
   1 -11   8 41416.5 5185.50   1
   1 -11  -8 28216.3 3885.17   1
  -1 -11  -8 29583.1 4142.35   1
   1 -11  -8 36529.7 4575.57   1
  -1 -11  -8 40050.9 5248.73   1
  -6 -10   4 8673.77 2134.81   1
  -6  10  -4 4510.15 4851.69   1
  -6  10   4 8247.23 4696.53   1
  -6 -10  -4 7950.43 3518.10   1
  -6 -10  -4 1835.19 1317.03   1
   6 -10  -4 7026.85 2902.63   1
 -10   1  -1 967.010 2210.52   1
 -10   1   1 -243.87 1998.58   1
 -10  -1   1 1164.18 2117.81   1
 -10  -1  -1 195.930 2711.55   1
  -8  -8   1 -230.02 1856.64   1
  -8   8  -1 1754.44 2171.59   1
  -8   8   1 328.580 2150.60   1
   8  -8  -1 251.830 796.030   1
  -8  -8  -1 227.280 2377.20   1
   4  -9  -9 1299.03 841.170   1
  -4  -9  -9 1202.89 1521.85   1
  -4  -9  -9 783.890 2019.37   1
   0 -13  -3 530.770 1293.50   1
   0 -13   3 91.1500 510.310   1
   0 -13  -3 467.700 440.320   1
   0 -13   3 -202.44 1351.17   1
  -2 -13  -1 2796.99 2123.28   1
   2 -13  -1 9250.64 5397.05   1
   2 -13   1 8496.72 4226.06   1
  -2 -13   1 2909.70 2336.41   1
   2 -13  -1 3656.39 2663.11   1
   2 -13   1 3095.02 731.540   1
  -2 -13   1 4514.00 2754.87   1
  -2 -13  -1 4870.91 2745.84   1
   0  -6 -13 2896.58 1287.06   1
  -9   6   0 5329.26 3073.55   1
  -9  -6   0 7776.87 2668.82   1
  -8  -5  -7 9412.04 3529.58   1
  -8  -5   7 4554.03 4615.74   1
  -8   5  -7 5041.19 5920.15   1
   8  -5  -7 5387.58 2840.64   1
  -8   5   7 5696.58 4148.90   1
  -8  -5  -7 1100.02 2806.09   1
  -3 -11   7 7056.80 4850.46   1
   3 -11  -7 22558.7 4706.30   1
  -3 -11  -7 13029.2 7010.87   1
  -3 -11  -7 4642.44 3523.37   1
   3 -11  -7 5120.71 2116.83   1
  -3  11  -7 5219.17 4413.93   1
  -8  -6  -6 12688.5 3955.50   1
   8  -6  -6 6761.26 1914.13   1
  -8  -6  -6 827.820 1729.18   1
  -8   6  -6 11450.4 4144.11   1
  -8   6   6 7344.19 4251.01   1
  -8  -6   6 10978.4 3458.87   1
 -10   0  -2 1777.52 2297.77   1
 -10   0   2 1002.50 1902.84   1
   4  -7 -11 17373.6 3081.62   1
  -4  -7 -11 10799.0 3728.18   1
   4  -7 -11 4749.16 4065.38   1
  -4  -7 -11 5976.45 2493.99   1
  -7  -3 -10 2907.86 2415.62   1
  -7   3 -10 1118.13 1685.44   1
  -7   3  10 1646.38 1900.66   1
  -7  -3 -10 526.670 2734.18   1
  -4  -3 -13 1635.49 3382.88   1
   4  -3 -13 1143.78 1970.28   1
  -5  11  -4 7075.73 5835.64   1
  -5 -11  -4 11046.3 7537.91   1
  -5 -11   4 12411.4 2931.93   1
   5 -11  -4 6947.85 1589.09   1
  -5  11   4 6686.70 5379.15   1
  -5 -11  -4 1444.45 1318.53   1
  -5   9  -8 4419.82 2618.66   1
  -5  -9  -8 4272.10 4732.12   1
  -5   9   8 4824.09 2622.48   1
   5  -9  -8 3283.85 2144.52   1
  -5  -9  -8 1862.46 2864.13   1
  -7  -5  -9 795.400 2902.00   1
  -7   5  -9 1665.45 2233.54   1
  -7   5   9 1348.24 1394.22   1
  -7  -5  -9 3985.15 2896.53   1
   7  -5  -9 2092.10 1122.86   1
  -9   6  -1 1761.15 3478.41   1
  -9   6   1 1557.84 2670.84   1
  -9  -6  -1 1973.02 2467.22   1
  -9  -6   1 1872.07 1749.09   1
  -9   4   5 -623.44 2761.61   1
  -9   4  -5 755.270 2969.05   1
  -9  -4   5 1099.56 2191.92   1
  -9  -4  -5 723.760 2482.87   1
   9  -4  -5 124.180 438.080   1
   1 -13   3 3334.08 2793.28   1
   1 -13  -3 2395.73 2019.18   1
  -1 -13   3 2114.35 1770.27   1
   1 -13   3 924.680 764.770   1
   1 -13  -3 662.420 619.260   1
  -1 -13   3 501.960 421.130   1
  -1 -13  -3 682.070 607.920   1
  -1 -13  -3 2624.57 2352.42   1
 -10   2   0 2234.08 2401.49   1
 -10  -2   0 2963.33 2471.41   1
   1  -6 -13 5090.62 1778.53   1
  -1  -6 -13 3126.99 2419.07   1
 -10  -1   2 2493.83 2305.39   1
 -10  -1  -2 3961.90 2414.33   1
 -10   1  -2 2847.97 2356.98   1
   4 -11  -6 5010.09 3518.94   1
  -4  11  -6 6262.13 6083.18   1
  -4 -11   6 5130.88 4974.61   1
  -4 -11  -6 7382.51 7076.56   1
  -4 -11  -6 2822.97 1520.76   1
  -8   8  -2 17993.6 5215.28   1
  -8   8   2 11717.2 7841.02   1
  -8  -8   2 21668.0 4957.83   1
  -8  -8  -2 32056.8 6485.75   1
   8  -8  -2 21765.2 2731.82   1
  -8   0  -9 775.580 2248.22   1
  -3   0 -14 5907.40 3303.75   1
 -10  -2  -1 40.3500 2670.52   1
 -10  -2   1 131.720 1965.39   1
 -10   2   1 25.0500 2030.53   1
 -10   2  -1 -634.09 2250.22   1
   2 -13   2 5861.41 4299.72   1
  -2 -13  -2 6345.77 4916.86   1
  -2 -13  -2 5257.72 3501.11   1
   2 -13  -2 5694.76 2085.17   1
  -2 -13   2 5908.70 3391.87   1
   2 -13   2 6567.75 1144.79   1
   2 -13  -2 8752.20 4228.38   1
  -6  -7  -9 2877.27 3757.21   1
  -6   7   9 99.7300 762.590   1
  -6  -7  -9 -992.25 2494.71   1
  -6   7  -9 538.050 1270.90   1
   6  -7  -9 -119.64 762.380   1
  -4  12   3 8721.37 3296.08   1
   4 -12   3 8997.69 1774.96   1
  -4 -12  -3 8900.94 6209.75   1
  -4 -12   3 7075.79 6109.08   1
  -4  12  -3 7183.80 5322.56   1
   4 -12  -3 7578.32 2434.18   1
  -4 -12  -3 6320.45 2992.57   1
  -2   3 -14 8203.01 4067.28   1
  -2  -3 -14 15515.1 3521.24   1
   2  -3 -14 11925.6 8244.21   1
  -7  -8  -6 4441.71 3424.94   1
  -7  -8   6 20421.8 4955.77   1
  -7  -8  -6 19166.2 5068.66   1
   7  -8  -6 12476.8 3739.76   1
  -7   8  -6 17849.0 4982.32   1
  -7   8   6 11437.6 5842.88   1
   0  -4 -14 6464.22 3981.48   1
  -9   5   4 2008.90 1392.66   1
  -9   5  -4 2225.52 2443.43   1
  -9  -5   4 211.320 1654.92   1
  -9  -5  -4 3351.36 3471.95   1
   9  -5  -4 1093.73 840.850   1
  -6  -4 -11 1522.74 4310.30   1
  -6  -4 -11 2242.37 2937.68   1
   6  -4 -11 934.970 1369.81   1
  -5  -4 -12 8904.43 4616.11   1
   5  -4 -12 8593.98 5525.04   1
  -5  -4 -12 22590.2 4071.66   1
   7  -9  -4 1731.71 1007.57   1
  -7  -9  -4 1076.06 1976.86   1
  -7   9   4 4067.91 2285.34   1
  -7  -9  -4 2715.63 1892.76   1
  -7  -9   4 1424.27 2144.85   1
  -7   9  -4 2565.39 3054.53   1
  -3  -9 -10 12531.4 4330.42   1
   3  -9 -10 12622.7 1900.79   1
  -3  -9 -10 22036.0 5035.64   1
   3  -9 -10 28624.2 3926.92   1
  -6   8  -8 11051.6 3371.50   1
  -6  -8  -8 10246.1 6629.62   1
  -6   8   8 8480.90 5004.41   1
  -6  -8  -8 3798.86 3121.01   1
   6  -8  -8 9018.40 1983.56   1
  -8   1  -9 2860.64 2334.01   1
  -8  -1  -9 2974.05 2990.39   1
  -8   1   9 1592.60 1704.86   1
  -3   1 -14 928.070 2773.24   1
  -3  -1 -14 2965.28 4096.76   1
  -9  -3   6 11750.8 3210.28   1
  -9   3  -6 7537.53 2895.08   1
  -9   3   6 9188.22 3175.98   1
   9  -3  -6 8742.53 2225.52   1
  -9  -3  -6 14045.0 5119.84   1
  -5  -6 -11 2915.65 2047.33   1
  -5  -6 -11 6677.42 2680.18   1
  -5   6  11 3679.84 3412.54   1
   5  -6 -11 3815.15 2678.74   1
  -3 -12   5 681.340 1017.92   1
  -3 -12  -5 -88.710 1215.05   1
  -3  12  -5 -282.36 2076.09   1
   3 -12   5 493.270 533.180   1
   3 -12  -5 505.380 698.850   1
  -3 -12  -5 1554.27 1845.97   1
  -9  -6   2 1969.11 2394.46   1
  -9   6   2 1552.08 1458.87   1
  -9   6  -2 1584.30 3022.77   1
  -9  -6  -2 1618.83 2561.55   1
   3  -8 -11 -299.29 1231.14   1
  -3  -8 -11 757.020 1668.04   1
   3  -8 -11 177.540 590.530   1
  -3  -8 -11 715.470 1148.16   1
   2 -12  -6 7220.44 4985.68   1
  -2 -12  -6 6505.97 4866.20   1
  -2 -12   6 3876.04 2989.82   1
   2 -12  -6 3555.58 2483.03   1
  -2 -12  -6 2407.36 1026.70   1
   2 -12   6 3573.76 1036.34   1
  -8  -4  -8 2299.22 4253.92   1
  -8   4   8 -477.22 1608.99   1
  -8   4  -8 -340.74 1897.83   1
  -8  -4  -8 1152.75 3118.65   1
   8  -4  -8 206.090 477.810   1
   1  -4 -14 2215.97 1925.21   1
  -1  -4 -14 1205.77 2081.78   1
  -4 -10  -8 8753.43 4839.65   1
   4 -10  -8 12084.2 2873.35   1
  -4  10  -8 18456.2 3532.92   1
  -4 -10  -8 25421.2 4597.72   1
   2 -11  -8 115072. 3431.54   1
  -2 -11  -8 105279. 12103.0   1
   2 -11  -8 113346. 2656.25   1
  -2 -11  -8 109267. 12328.2   1
   8  -7  -5 2086.94 1082.33   1
  -8  -7  -5 -336.97 1733.89   1
  -8   7   5 3323.84 2749.10   1
  -8  -7  -5 3106.12 2549.54   1
  -8  -7   5 1074.12 1353.71   1
  -8   7  -5 4615.98 4486.04   1
   3  -5 -13 1816.53 1488.96   1
  -3  -5 -13 2933.55 2656.51   1
 -10   2   2 1437.80 2465.56   1
 -10  -2  -2 3265.16 2724.57   1
 -10  -2   2 208.860 2217.57   1
 -10   2  -2 809.790 2287.26   1
 -10   0  -3 -364.03 2478.50   1
 -10   0   3 -236.90 2061.26   1
   0  -9 -11 -425.91 1341.72   1
   0  -9 -11 -91.090 1576.20   1
  -9   0   7 -156.72 1718.61   1
  -9   0  -7 -574.72 2301.18   1
   6  -6 -10 23229.2 5131.41   1
  -6  -6 -10 10481.3 3379.11   1
  -6   6  10 36781.4 5319.60   1
  -6   6 -10 43430.0 6918.20   1
  -6  -6 -10 48038.8 6503.97   1
   0 -13  -4 -40.470 909.390   1
   0 -13   4 633.770 1106.04   1
   0 -13  -4 501.450 880.590   1
   0 -13   4 -214.22 485.130   1
  -6   0 -12 2476.83 3322.86   1
 -10  -1  -3 1775.30 2596.08   1
 -10  -1   3 1615.28 2120.17   1
 -10   1  -3 1474.33 1965.42   1
 -10   1   3 272.830 1919.17   1
  -8  -8   3 1774.09 2958.31   1
  -8  -8  -3 372.260 2933.44   1
  -8  -8  -3 865.280 2235.11   1
   8  -8  -3 358.000 518.290   1
  -8   8   3 985.660 1931.65   1
  -8   8  -3 509.220 2872.82   1
  -9   1   7 7146.79 3434.93   1
  -9  -1   7 4684.41 2600.39   1
  -9   1  -7 6506.38 3913.09   1
  -9  -1  -7 6284.49 3940.72   1
  -8  -2  -9 2042.22 3272.97   1
  -8   2  -9 -315.48 2002.36   1
  -8   2   9 -165.08 2009.53   1
   3  -2 -14 3658.31 2281.65   1
  -3  -2 -14 4555.49 3222.49   1
  -3   2 -14 1553.10 1855.77   1
  -3 -10  -9 389.650 1451.97   1
   3 -10  -9 499.130 1227.05   1
   3 -10  -9 1012.48 1499.19   1
  -3 -10  -9 -156.79 1226.66   1
   0 -10 -10 424.890 1420.71   1
   0 -10 -10 601.810 1940.15   1
 -10   3   0 1336.34 2429.80   1
  -2 -13  -3 774.910 1516.58   1
   2 -13  -3 475.310 564.520   1
   2 -13   3 5135.84 3803.05   1
   2 -13  -3 4960.50 2767.74   1
  -2 -13   3 3015.24 1600.49   1
  -2 -13  -3 1587.97 1211.20   1
   2 -13   3 1663.36 986.910   1
  -6  10   5 5933.35 3360.44   1
  -6 -10   5 6719.76 5453.02   1
  -6 -10  -5 9517.49 3206.61   1
  -6 -10  -5 3135.96 1953.75   1
   6 -10  -5 7183.00 2455.66   1
  -6  10  -5 6218.77 4722.04   1
   1  -9 -11 2262.85 2388.75   1
  -1  -9 -11 2285.41 2330.71   1
   1  -9 -11 2809.32 2571.43   1
  -1  -9 -11 2715.17 2265.84   1
   6 -11   0 434.870 589.120   1
  -6  11   0 1092.75 2132.69   1
  -6 -11   0 608.790 1761.20   1
  -6  -1 -12 5001.71 4909.55   1
  -6  -1 -12 3394.81 1870.51   1
  -2  -6 -13 -614.72 1783.71   1
   2  -6 -13 949.320 949.880   1
  -4  -6 -12 569.830 933.730   1
   4  -6 -12 759.960 1865.77   1
  -4  -6 -12 2303.39 2409.42   1
   1 -13  -4 37757.9 4481.36   1
  -1 -13  -4 34905.3 4246.06   1
   1 -13   4 41551.8 5536.96   1
   1 -13   4 37546.4 4287.83   1
   1 -13  -4 44107.1 6513.27   1
  -1 -13   4 42039.8 6234.29   1
  -1 -13  -4 37580.7 5417.72   1
   0  -8 -12 8811.03 2077.66   1
   0  -8 -12 5436.66 4658.62   1
 -10  -3   1 412.740 2078.40   1
 -10   3  -1 -65.490 2108.62   1
 -10   3   1 -526.56 2424.79   1
 -10  -3  -1 267.210 1953.45   1
  -5 -10  -7 16366.1 4305.21   1
  -5  10  -7 9820.70 8168.80   1
  -5  10   7 10773.0 6772.58   1
   5 -10  -7 10022.6 3052.72   1
  -5 -10  -7 5872.89 2588.38   1
  -5   0 -13 133.950 3928.40   1
  -6  11  -1 -317.26 2500.18   1
  -6  11   1 1773.55 2711.88   1
  -6 -11   1 -910.32 1925.19   1
  -6 -11  -1 895.970 747.610   1
   6 -11   1 375.580 418.360   1
   6 -11  -1 332.330 505.870   1
  -6   9   7 801.460 985.210   1
  -6  -9  -7 -1015.5 3188.81   1
  -6   9  -7 -532.68 2387.97   1
  -6  -9  -7 1670.89 2365.61   1
   6  -9  -7 -136.87 816.000   1
  -3 -13   0 2121.99 1876.21   1
   3 -13   0 2547.25 2037.54   1
  -3 -13   0 1496.24 1088.45   1
  -9   6  -3 -165.88 2539.83   1
  -9   6   3 646.420 2036.79   1
  -9  -6  -3 -404.66 2491.91   1
  -9  -6   3 1809.95 2166.27   1
   9  -6  -3 315.430 606.850   1
  -3  -7 -12 595.830 933.850   1
   3  -7 -12 420.270 1022.94   1
  -3  -7 -12 -1089.3 1895.67   1
   0 -12   7 51760.2 4224.30   1
   0 -12  -7 59121.3 4939.45   1
   0 -12  -7 48535.4 3563.91   1
  -7   4 -10 5564.22 2734.77   1
  -7  -4 -10 7498.76 3344.03   1
  -7   4  10 5084.72 3623.45   1
  -7  -4 -10 1299.38 2924.07   1
   7  -4 -10 4084.98 2143.72   1
   4  -4 -13 -12.330 1100.87   1
  -4  -4 -13 1905.71 2897.48   1
   1 -10 -10 352.390 1545.30   1
   1 -10 -10 301.380 957.280   1
  -1 -10 -10 1106.09 1973.20   1
  -1 -10 -10 -855.10 1860.84   1
   4 -12   4 17536.9 3399.24   1
  -4 -12  -4 5318.82 2046.41   1
  -4 -12  -4 19035.8 3852.64   1
  -4 -12   4 18869.9 5492.44   1
  -4  12  -4 10863.3 6691.16   1
  -4  12   4 10864.7 7187.08   1
   4 -12  -4 9797.73 1380.05   1
  -5 -11  -5 764.690 1272.62   1
   5 -11  -5 199.760 406.450   1
  -5  11   5 -288.89 1927.39   1
  -5  11  -5 1045.87 1692.80   1
  -5 -11   5 889.540 1990.72   1
  -5 -11  -5 1158.58 2205.27   1
  -7  10   0 -20.260 1132.59   1
   7 -10   0 -261.15 850.280   1
  -7 -10   0 -220.23 1860.14   1
   3 -13  -1 2203.61 1606.22   1
   3 -13   1 2848.39 1872.79   1
  -3 -13   1 3068.21 2472.83   1
  -3 -13  -1 3191.98 2240.64   1
  -3 -13  -1 1525.94 1043.35   1
  -5  -1 -13 939.410 2337.22   1
  -5   1 -13 3785.87 4204.44   1
   1  -8 -12 8245.12 2208.18   1
  -1  -8 -12 7109.48 7004.51   1
   1  -8 -12 7163.16 2519.09   1
  -1  -8 -12 9615.16 6640.78   1
 -10  -2  -3 736.740 2443.81   1
 -10  -2   3 2715.84 3485.90   1
 -10   2  -3 757.760 2550.91   1
 -10   2   3 747.780 1988.58   1
  -9  -2  -7 1210.18 3094.14   1
  -9   2  -7 1654.53 1852.88   1
  -9  -2   7 -428.65 1741.30   1
  -9   2   7 16.5300 1863.65   1
   7 -10  -1 2224.79 1046.61   1
  -7  10   1 1965.44 1895.81   1
  -7  10  -1 2637.57 2800.44   1
  -7 -10   1 2025.06 1332.83   1
  -7 -10  -1 3309.03 2234.15   1
  -7   0 -11 -328.85 2457.79   1
   2  -4 -14 475.560 1288.93   1
  -2  -4 -14 283.940 2730.57   1
  -1 -12  -7 24887.4 3214.60   1
   1 -12   7 32315.8 2269.23   1
   1 -12  -7 34426.4 3901.47   1
  -1 -12  -7 43600.1 3520.91   1
   1 -12   7 30497.1 3581.18   1
   1 -12  -7 29069.2 3247.32   1
  -1 -12   7 31734.5 3307.94   1
 -10  -3  -2 9042.52 4072.10   1
 -10  -3   2 8652.87 3747.42   1
 -10   3  -2 8563.76 4167.22   1
 -10   3   2 6085.88 3533.11   1
  -6  -2 -12 17891.4 3477.78   1
  -6  -2 -12 3177.30 2994.96   1
  -6 -11  -2 555.370 889.640   1
  -6  11  -2 2018.83 3340.02   1
  -6  11   2 762.340 1255.55   1
   6 -11   2 905.870 716.070   1
   6 -11  -2 1368.41 1078.45   1
  -9   5   5 870.070 2389.00   1
   9  -5  -5 1456.90 1001.06   1
  -9  -5   5 1978.11 2375.67   1
  -9  -5  -5 3582.95 3797.77   1
  -9   5  -5 668.010 2164.65   1
  -9  -4  -6 191.170 2466.06   1
  -9  -4   6 204.580 1867.27   1
  -9   4  -6 61.9900 2101.41   1
  -9   4   6 -1912.7 2413.12   1
   9  -4  -6 604.180 500.220   1
  -7  -9  -5 -405.22 2758.63   1
  -7  -9   5 1203.83 1833.86   1
  -7   9  -5 -184.59 2412.31   1
  -7   9   5 1256.70 1989.77   1
   7  -9  -5 784.170 554.920   1
  -7  -9  -5 -169.71 1840.57   1
  -7  -1 -11 1082.47 2781.75   1
  -7   1 -11 8395.82 2770.38   1
  -7  -1 -11 10797.1 3104.80   1
   5 -12   0 3039.33 2066.37   1
  -5  12   0 3536.88 3376.14   1
  -5 -12   0 4536.83 3446.23   1
   0   0 -15 1807.12 2216.65   1
 -10   0   4 481.000 2114.34   1
 -10   0  -4 -89.430 2613.56   1
  -7   7  -8 1688.17 1378.28   1
   7  -7  -8 1743.42 1294.91   1
  -7  -7  -8 564.750 2476.15   1
  -7  -7  -8 1697.65 2384.61   1
  -7   7   8 1678.00 1571.04   1
   3 -13   2 10520.2 1595.42   1
  -3 -13   2 11852.4 6916.33   1
  -3 -13  -2 6244.98 2401.32   1
   3 -13  -2 8750.37 1124.91   1
  -3 -13  -2 12736.4 3787.78   1
  -8  -3  -9 1707.52 1979.14   1
  -8   3  -9 1663.57 2029.33   1
  -8  -3  -9 761.430 2412.72   1
  -3  -3 -14 11543.2 4296.65   1
   3  -3 -14 11660.1 2575.62   1
  -5 -12  -1 11370.9 4878.42   1
  -5 -12   1 9205.69 7687.88   1
   5 -12   1 9887.90 2807.79   1
   5 -12  -1 9728.76 1239.80   1
  -5  12  -1 8800.16 5005.53   1
  -5  12   1 10100.1 6585.03   1
   0  -5 -14 765.550 927.310   1
  -8   6  -7 2300.21 3624.23   1
  -8  -6  -7 1358.73 2256.00   1
   8  -6  -7 384.970 650.730   1
  -8   6   7 312.780 1909.29   1
  -8  -6  -7 -264.47 2315.94   1
  -8  -6   7 -370.42 1487.65   1
   0 -11  -9 823.150 1263.27   1
   0 -11  -9 823.570 2039.33   1
  -5  -2 -13 178.980 4650.07   1
   0   1 -15 311.710 2913.50   1
   0  -1 -15 585.290 2892.78   1
  -6  -5 -11 -185.05 2178.52   1
   6  -5 -11 515.030 621.550   1
  -6   5  11 1701.18 1825.41   1
  -6  -5 -11 3612.96 2404.09   1
   5  -5 -12 6698.28 5544.99   1
  -5  -5 -12 16893.6 4074.19   1
  -5  -5 -12 9045.20 4150.10   1
 -10   1   4 -105.04 2257.33   1
 -10  -1   4 1822.78 2888.30   1
 -10  -1  -4 -1052.4 2806.91   1
  -7 -10  -2 13769.1 7276.88   1
  -7 -10   2 16161.5 4008.15   1
  -7  10  -2 10807.6 6859.73   1
  -7  10   2 11892.5 6529.91   1
   7 -10  -2 13057.8 2883.67   1
   2  -9 -11 14651.6 2063.21   1
  -2  -9 -11 10784.3 5366.33   1
  -2  -9 -11 5025.35 1774.86   1
   2  -9 -11 6389.71 1657.83   1
  -8  -8   4 -1143.6 1885.22   1
  -8   8   4 1488.13 2097.51   1
  -8   8  -4 963.200 2221.81   1
  -8  -8  -4 1413.20 3012.67   1
   8  -8  -4 -269.19 687.900   1
  -8  -8  -4 -366.08 3202.47   1
  -7   6  -9 1376.22 2206.70   1
  -7   6   9 -1261.4 1849.32   1
   7  -6  -9 559.510 406.370   1
  -7  -6  -9 -132.16 3692.73   1
  -7  -6  -9 469.160 2270.41   1
  -2 -13   4 82568.9 5767.52   1
  -2 -13  -4 92554.7 6460.53   1
   2 -13   4 88254.8 6510.29   1
   2 -13  -4 108797. 8746.12   1
  -2 -13  -4 90254.4 6670.69   1
   2 -13   4 98477.2 6255.66   1
   2 -13  -4 95321.1 6330.43   1
   1   0 -15 1127.60 3334.13   1
  -1   0 -15 903.370 2642.81   1
  -3 -12  -6 7490.68 2201.14   1
  -3 -12   6 4971.13 3922.14   1
  -3 -12  -6 7250.79 7550.11   1
   3 -12  -6 7160.69 5631.31   1
  -3  12  -6 5448.56 4556.58   1
   3 -12  -6 7236.38 4030.85   1
  -4 -11  -7 1920.23 1963.23   1
  -4 -11  -7 1609.91 1678.97   1
  -4  11  -7 1888.14 1728.33   1
   4 -11  -7 1919.75 1333.68   1
   0 -13   5 135.260 844.310   1
   0 -13  -5 319.710 639.240   1
   0 -13  -5 -192.64 2798.83   1
   0  -7 -13 -201.53 1639.62   1
  -8  -5  -8 492.900 2428.78   1
  -8   5  -8 1835.64 2051.35   1
   8  -5  -8 1164.89 660.250   1
  -8  -5  -8 -26.680 2945.09   1
  -3 -11  -8 129791. 8923.82   1
   3 -11  -8 106070. 7029.34   1
  -3 -11  -8 115173. 10822.9   1
   3 -11  -8 112108. 7919.95   1
   1  -5 -14 -106.57 1775.73   1
  -1  -5 -14 1044.53 2213.56   1
  -9   7   0 2516.03 3199.45   1
  -9  -7   0 2216.78 2096.65   1
  -1 -11  -9 1407.79 2046.94   1
   1 -11  -9 645.750 1633.43   1
  -1 -11  -9 904.250 1740.70   1
   1 -11  -9 609.900 968.730   1
  -7   8   7 1664.99 1759.02   1
   7  -8  -7 2807.38 1751.77   1
  -7  -8  -7 341.890 2106.60   1
  -7   8  -7 3806.87 3741.49   1
  -7  -8  -7 2608.87 3618.36   1
  -2 -10 -10 3436.82 2818.89   1
  -2 -10 -10 2177.59 2537.31   1
   2 -10 -10 1113.65 1165.42   1
   2 -10 -10 1988.20 1250.83   1
  -7   2 -11 -310.06 1815.79   1
  -7  -2 -11 103.370 3254.83   1
  -7  -2 -11 -63.000 2409.71   1
 -10  -4   0 16372.8 3368.28   1
 -10   4   0 12898.6 4714.20   1
   1  -1 -15 22340.7 4446.41   1
  -1  -1 -15 21067.8 3453.99   1
  -1   1 -15 22178.8 5980.47   1
  -9  -6  -4 -23.490 2546.11   1
   9  -6  -4 345.510 617.890   1
  -9   6   4 -104.03 2305.55   1
  -9   6  -4 61.5500 2710.46   1
  -9  -6   4 1914.65 3219.06   1
   8  -7  -6 6742.15 4010.39   1
  -8  -7  -6 8779.01 3226.70   1
  -8  -7   6 9539.42 2780.55   1
  -8   7  -6 13549.1 4072.68   1
  -8  -7  -6 2978.38 3179.79   1
  -8   7   6 5034.71 3031.73   1
 -10  -3   3 694.310 1359.52   1
 -10   3   3 547.430 1973.14   1
 -10   3  -3 1011.79 2277.59   1
 -10  -3  -3 215.130 2085.34   1
   5 -12   2 11313.3 1297.69   1
  -5 -12  -2 12968.9 10870.8   1
  -5 -12   2 8562.49 6595.68   1
   5 -12  -2 11050.9 1302.21   1
  -5  12  -2 11123.7 7423.24   1
  -5  12   2 12208.1 7190.46   1
  -5  -8 -10 12219.9 9738.51   1
  -5   8  10 6946.08 4367.58   1
   5  -8 -10 5506.56 4134.21   1
  -5  -8 -10 6198.88 2624.76   1
   2  -8 -12 13271.8 2044.55   1
  -2  -8 -12 12020.6 3052.43   1
  -2  -8 -12 15295.1 2378.18   1
  -9  -7   1 1596.21 2977.46   1
  -9   7  -1 531.060 1817.76   1
  -9   7   1 1295.32 3283.74   1
  -9  -7  -1 2115.88 2451.49   1
  -9   3   7 3755.69 3572.82   1
  -9   3  -7 1480.21 2045.48   1
  -9  -3   7 1532.12 1465.80   1
  -9  -3  -7 4300.83 2815.41   1
 -10  -4   1 -170.03 1654.64   1
 -10   4  -1 74.8500 2340.18   1
 -10  -4  -1 -915.03 1990.83   1
 -10   4   1 996.680 3726.30   1
  -6 -11  -3 1709.50 2761.73   1
  -6 -11   3 897.520 2291.15   1
  -6  11  -3 847.670 1892.07   1
  -6 -11  -3 488.410 1883.61   1
  -6  11   3 1672.61 1978.68   1
   6 -11  -3 -27.900 748.090   1
  -4   0 -14 14503.8 5388.79   1
   1 -13  -5 2439.75 1781.26   1
  -1 -13   5 1300.93 1598.53   1
  -1 -13  -5 1832.93 1943.14   1
   1 -13   5 1118.07 768.180   1
   1 -13  -5 359.450 441.610   1
  -1 -13  -5 395.460 884.960   1
   1 -13   5 1121.49 1016.03   1
   0  -2 -15 3061.35 2700.97   1
   0   2 -15 2218.81 2109.68   1
  -1  -7 -13 340.610 1931.25   1
   1  -7 -13 820.910 959.510   1
 -10   2   4 9928.26 4219.43   1
 -10   2  -4 10839.4 4727.52   1
 -10  -2   4 10924.7 3013.94   1
 -10  -2  -4 13981.4 5139.38   1
   2 -12  -7 7414.42 1484.62   1
  -2 -12   7 4631.13 3529.53   1
   2 -12  -7 7056.65 4845.41   1
   2 -12   7 6594.57 3092.82   1
  -2 -12  -7 5580.52 5892.77   1
  -2 -12  -7 8261.20 2228.03   1
  -6  -3 -12 871.500 3699.10   1
   5  -9  -9 738.190 910.490   1
  -5   9   9 -928.97 2099.23   1
  -5  -9  -9 354.760 1709.12   1
   3 -13  -3 -157.36 723.560   1
  -3 -13  -3 346.170 992.050   1
  -3 -13   3 1731.33 1798.96   1
  -3 -13  -3 1362.68 1720.10   1
   3 -13   3 952.700 721.890   1
  -4  -9 -10 12380.0 2706.27   1
   4  -9 -10 22285.2 2980.63   1
  -4  -9 -10 7740.71 3051.55   1
   4  -9 -10 6973.94 2286.76   1
  -4   1 -14 -660.16 3172.24   1
  -4  -1 -14 -409.49 4349.18   1
  -8   9   0 7642.44 3089.72   1
  -8  -9   0 14161.0 4246.85   1
   3  -6 -13 497.380 1276.38   1
  -3  -6 -13 1107.68 2172.01   1
  -4  12  -5 975.400 1978.54   1
   4 -12  -5 3510.95 2276.13   1
  -4 -12  -5 2816.37 1932.36   1
  -4 -12   5 1847.87 2673.56   1
  -4 -12  -5 2959.05 2283.60   1
  -6 -10   6 33702.6 4243.90   1
  -6  10  -6 16104.3 13101.2   1
  -6  10   6 16468.2 11610.3   1
   6 -10  -6 16329.6 1734.81   1
  -6 -10  -6 6325.56 2760.12   1
  -6 -10  -6 31869.4 11169.1   1
  -4  -8 -11 5026.33 3485.08   1
   4  -8 -11 14057.4 6946.98   1
  -4  -8 -11 8410.79 2351.14   1
   4  -8 -11 4376.96 3897.11   1
  -7  10   3 4044.08 2426.69   1
  -7 -10   3 3843.17 2854.80   1
   7 -10  -3 3488.37 1667.29   1
  -7  10  -3 3063.26 1768.58   1
  -7 -10  -3 548.720 1759.09   1
  -7 -10  -3 4706.22 2757.54   1
  -1   2 -15 3044.43 2765.88   1
  -1  -2 -15 2494.32 3427.16   1
   1  -2 -15 2092.18 1799.27   1
  -8   9   1 2814.18 2193.70   1
  -8  -9   1 2508.57 2373.30   1
  -8   9  -1 1226.93 2525.29   1
  -8  -9  -1 1518.89 1463.29   1
   8  -9  -1 1529.42 905.560   1
  -5  -7 -11 585.600 1354.65   1
   5  -7 -11 446.900 535.340   1
  -5  -7 -11 592.360 1740.75   1
  -5  -3 -13 -800.27 4963.70   1
  -9   7  -2 13436.2 5252.31   1
   9  -7  -2 8746.98 1407.10   1
  -9  -7   2 11585.5 3905.20   1
  -9  -7  -2 9546.53 4255.67   1
  -9   7   2 8167.26 3491.28   1
 -10   4   2 2396.44 1889.39   1
 -10  -4  -2 1789.73 2269.27   1
 -10  -4   2 238.570 2131.55   1
 -10   4  -2 753.330 2723.99   1
  -7  -5 -10 2444.67 2590.60   1
  -7   5 -10 3408.69 2510.06   1
   7  -5 -10 3629.35 2010.62   1
  -7  -5 -10 1174.52 2853.39   1
  -4  -5 -13 338.390 2560.98   1
   4  -5 -13 1328.15 1861.50   1
  -6   8  -9 3536.48 2640.16   1
  -6  -8  -9 3317.12 2990.44   1
  -6   8   9 2208.17 1812.05   1
  -6  -8  -9 2283.61 2280.87   1
   6  -8  -9 1321.35 868.630   1
  -5  11  -6 155.010 967.980   1
  -5 -11  -6 759.730 1580.27   1
  -5 -11  -6 1884.53 1939.74   1
   5 -11  -6 425.780 683.130   1
  -5  11   6 608.260 946.050   1
  -5 -11   6 1045.01 1573.23   1
  -9   0  -8 2545.88 2524.66   1
  -9   0   8 1329.68 1918.49   1
  -2   0 -15 1844.33 3251.59   1
  -8   0 -10 4357.61 4864.91   1
  -5 -12  -3 7229.56 3661.88   1
   5 -12  -3 18387.7 1788.52   1
   5 -12   3 21308.3 1873.18   1
  -5 -12   3 22913.0 5132.90   1
  -5  12   3 14914.7 2724.76   1
  -5  12  -3 16279.0 9534.65   1
  -5 -12  -3 21030.4 10133.7   1
  -8  -4  -9 708.060 2236.76   1
  -8  -4  -9 -229.21 3096.92   1
   8  -4  -9 699.770 523.770   1
  -8   4   9 1192.54 1935.17   1
  -8   4  -9 330.820 2139.61   1
  -3  -4 -14 6351.94 2523.76   1
   3  -4 -14 9321.30 2645.49   1
  -6   7  10 282.950 1467.36   1
   6  -7 -10 701.780 936.110   1
  -6  -7 -10 -569.59 2661.04   1
  -6  -7 -10 104.070 1900.39   1
 -10   0   5 -557.48 1707.99   1
 -10   0  -5 149.820 2845.60   1
  -7   3 -11 12648.2 3487.42   1
  -7  -3 -11 15808.1 3786.04   1
  -7  -3 -11 -1.4200 2506.36   1
  -4  -2 -14 4493.60 6072.88   1
  -4   2 -14 659.080 2095.02   1
  -2  -5 -14 934.600 1930.06   1
   2  -5 -14 1139.46 1633.25   1
  -4 -10  -9 3640.28 2074.48   1
   4 -10  -9 1706.54 1338.74   1
  -4 -10  -9 2287.77 1786.38   1
  -2 -11  -9 32.8200 1468.99   1
   2 -11  -9 1040.32 1769.52   1
   2 -11  -9 140.600 689.820   1
  -2 -11  -9 74.7300 820.660   1
  -9  -1  -8 925.320 2706.68   1
  -9   1  -8 -208.15 2100.12   1
  -9   1   8 1812.21 2038.45   1
  -9  -1   8 189.320 1718.46   1
  -2  -1 -15 36891.6 4756.04   1
  -2   1 -15 26561.0 5077.36   1
   2  -1 -15 39884.9 4687.42   1
   8  -9  -2 5421.44 3266.00   1
  -8  -9  -2 5139.31 6404.65   1
  -8   9   2 2650.20 2256.41   1
  -8   9  -2 4998.67 3088.69   1
  -8  -9   2 6295.82 2645.32   1
   0 -14   0 53715.1 3636.84   1
   0 -14   0 40523.2 4103.49   1
  -8  -1 -10 6078.18 3110.32   1
  -8   1 -10 8367.24 4002.63   1
 -10  -1   5 3717.58 2966.01   1
 -10   1   5 1926.68 2766.08   1
 -10  -1  -5 1661.75 3194.53   1
 -10   1  -5 586.560 2407.70   1
   9  -5  -6 7941.07 1532.96   1
  -9   5   6 5433.71 3177.91   1
  -9   5  -6 8533.73 4519.47   1
  -9  -5   6 11583.7 4116.35   1
  -9  -5  -6 8414.58 4052.51   1
  -9  -5  -6 309.900 1927.32   1
  -8  -8  -5 665.580 3252.05   1
  -8   8   5 -79.360 2033.78   1
  -8   8  -5 843.260 2092.48   1
   8  -8  -5 235.260 451.550   1
  -8  -8   5 79.2300 1812.37   1
  -8  -8  -5 1166.96 2689.49   1
  -7   9  -6 2402.98 3465.31   1
  -7   9   6 1349.09 2206.03   1
   7  -9  -6 2495.87 1484.90   1
  -7  -9  -6 2257.64 3202.97   1
  -7  -9   6 2289.99 2811.41   1
  -7  -9  -6 2112.76 2562.13   1
   0  -3 -15 -832.84 1769.12   1
  10  -3  -4 157.470 354.650   1
 -10  -3   4 -340.77 2031.54   1
 -10  -3  -4 699.170 2262.27   1
 -10   3   4 314.690 2329.73   1
 -10   3  -4 1099.44 2476.42   1
   2 -13  -5 321.130 692.320   1
  -2 -13  -5 331.830 1002.67   1
   2 -13   5 923.000 750.610   1
  -2 -13  -5 303.220 2831.01   1
  -2 -13   5 872.280 809.610   1
   2 -13  -5 3670.01 2387.95   1
   2 -13   5 2426.91 2089.31   1
   0 -14   1 20205.0 1642.38   1
   0 -14  -1 19958.5 1687.83   1
   0 -14   1 22820.7 7762.55   1
   0 -14  -1 22991.2 3570.97   1
   4 -13   0 372.690 346.050   1
  -4 -13   0 838.430 1154.77   1
  -4  13   0 1611.90 3316.02   1
   2  -7 -13 776.050 1351.61   1
  -2  -7 -13 1549.40 1926.29   1
  -5 -10  -8 3137.36 2373.83   1
  -5  10   8 6338.99 2940.67   1
  -5  10  -8 7631.52 7133.30   1
   5 -10  -8 5740.43 2918.99   1
  -5 -10  -8 13244.7 3400.80   1
  -4  -7 -12 2795.97 1704.87   1
  -4  -7 -12 1398.17 1861.45   1
   4  -7 -12 324.980 633.670   1
  -6 -11  -4 1925.77 2013.19   1
   6 -11  -4 8660.08 1549.28   1
  -6  11   4 8674.14 4457.20   1
  -6 -11   4 13340.9 14244.4   1
  -6 -11  -4 15054.1 3729.78   1
  -6  11  -4 8072.00 6648.12   1
  -6  -9  -8 3191.78 3568.59   1
  -6  -9  -8 10311.0 8341.77   1
  -6   9  -8 7671.03 4259.77   1
  -6   9   8 6152.20 3985.19   1
   6  -9  -8 5297.04 2795.87   1
   0 -12  -8 107859. 6838.80   1
   0 -12  -8 144984. 43473.1   1
  -3  -9 -11 4315.04 3467.51   1
   3  -9 -11 9777.35 2947.04   1
   3  -9 -11 4129.73 4047.46   1
  -3  -9 -11 8139.15 5986.88   1
   4 -13  -1 509.870 716.950   1
   4 -13   1 799.170 587.900   1
  -4  13  -1 1318.90 1910.15   1
  -4  13   1 311.220 2445.12   1
  -4 -13  -1 542.110 1246.54   1
  -4 -13   1 532.600 763.650   1
   1 -14   0 21883.3 3690.71   1
  -1 -14   0 26818.5 7556.25   1
   1 -14   0 36779.2 2426.29   1
  -1 -14   0 39983.8 2846.01   1
  -9   7   3 2032.87 2296.40   1
   9  -7  -3 2017.69 2223.93   1
  -9  -7  -3 2187.83 2456.76   1
  -9  -7   3 3820.37 3017.76   1
  -9   7  -3 3877.85 4774.83   1
 -10  -4   3 -506.15 2418.30   1
 -10  -4  -3 2215.31 2576.45   1
 -10   4  -3 508.650 1475.13   1
 -10   4   3 468.130 2156.05   1
  -3 -13  -4 123905. 8352.42   1
   3 -13  -4 158002. 47427.9   1
  -3 -13  -4 124574. 8018.58   1
   3 -13   4 123398. 7770.55   1
  -3 -13   4 131770. 39456.0   1
   3 -13  -4 126382. 37789.4   1
  -9   6  -5 1194.15 2778.56   1
  -9  -6  -5 1400.00 3210.79   1
  -9  -6  -5 -135.14 2809.95   1
  -9  -6   5 -830.14 2089.44   1
   9  -6  -5 141.110 395.700   1
  -9   6   5 -1644.7 2103.13   1
  -9   4   7 265.410 2093.12   1
   9  -4  -7 343.320 312.080   1
  -9  -4  -7 21.0300 2129.57   1
  -9   4  -7 733.460 2085.51   1
  -9  -4   7 809.900 1586.23   1
   1  -3 -15 13885.4 2959.77   1
  -1   3 -15 10559.1 3218.06   1
  -1  -3 -15 16414.8 4102.74   1
  -1 -14  -1 10251.3 5863.21   1
  -1 -14   1 10558.1 7143.58   1
   1 -14   1 10841.9 2513.61   1
   1 -14  -1 9957.13 3151.53   1
  -1 -14   1 10934.3 1194.97   1
  -1 -14  -1 11338.2 1397.18   1
   1 -14  -1 10087.8 6434.28   1
   1 -14   1 9713.61 5867.34   1
  -9   2   8 139.610 2019.59   1
  -9   2  -8 322.220 1839.00   1
  -9  -2   8 784.190 1350.18   1
  -2   2 -15 469.670 2661.68   1
   2  -2 -15 -716.47 1645.95   1
  -2  -2 -15 190.120 2830.85   1
  -7 -10   4 3855.77 2990.89   1
   7 -10  -4 4729.68 2807.28   1
  -7 -10  -4 4680.75 6311.11   1
  -7 -10  -4 859.060 3318.17   1
  -7  10   4 4700.94 2722.66   1
  -7  10  -4 4617.11 4079.68   1
  -6  -4 -12 1765.06 4750.65   1
   6  -4 -12 2418.35 2528.59   1
  -6  -4 -12 8744.61 2400.74   1
   0 -13  -6 -186.88 994.020   1
   0 -13  -6 -859.43 2322.29   1
   0 -13   6 -947.48 1297.41   1
  -8  -2 -10 -364.37 1866.79   1
  -8  -2 -10 9274.97 2742.30   1
  -8   2 -10 7172.86 2294.66   1
  -3 -10 -10 4714.68 3283.29   1
  -3 -10 -10 3277.50 2970.79   1
   3 -10 -10 4271.24 2161.60   1
   3 -10 -10 4589.94 3369.03   1
   1 -12  -8 78001.2 5088.99   1
  -1 -12  -8 82263.9 5336.80   1
  -1 -12  -8 66983.0 5096.10   1
 -10   2   5 786.920 2117.99   1
 -10  -2   5 1042.26 1705.30   1
 -10  -2  -5 -151.02 2811.74   1
 -10   2  -5 1001.48 2266.39   1
   0 -14  -2 1716.83 1373.50   1
   0 -14  -2 700.340 424.420   1
   0 -14   2 2246.62 1947.84   1
   0 -14   2 1234.76 842.290   1
 -10  -5   0 953.450 2275.18   1
 -10   5   0 1183.65 3178.06   1
   0  -6 -14 5876.47 2094.81   1
  -6  -6 -11 5433.34 2592.58   1
  -6   6  11 3343.28 2896.08   1
   6  -6 -11 3223.35 2466.58   1
  -6  -6 -11 1925.61 2203.93   1
  -5  -6 -12 7996.58 5365.36   1
   5  -6 -12 4520.13 5184.73   1
  -5  -6 -12 8923.49 4627.66   1
  -3  -8 -12 11444.7 8047.13   1
  -3  -8 -12 9217.77 4334.11   1
  -8  -9  -3 4997.76 4005.93   1
   8  -9  -3 4715.56 2080.06   1
  -8   9   3 3046.47 2676.12   1
  -8   9  -3 5739.81 3351.66   1
  -8  -9   3 3394.31 2196.28   1
   4 -13  -2 3533.48 2778.89   1
   4 -13   2 5159.53 2908.75   1
  -4  13   2 3745.57 3294.80   1
  -4  13  -2 3044.90 2198.04   1
  -4 -13  -2 7543.97 6040.35   1
  -4 -13   2 4869.81 2803.26   1
  -4 -13  -2 2861.31 1842.72   1
 -10  -5  -1 1407.37 3019.24   1
 -10   5  -1 -321.20 2407.68   1
 -10   5   1 66.4200 2139.87   1
 -10  -5   1 1356.29 1979.72   1
  -4  -3 -14 2745.16 2912.70   1
   4  -3 -14 3334.08 2383.55   1
   3 -12  -7 2173.68 1321.03   1
  -3 -12  -7 516.270 1429.24   1
  -3  12  -7 -248.97 1978.75   1
   3 -12  -7 -21.540 878.850   1
  -3 -12  -7 224.330 1671.45   1
  -5  -4 -13 -211.80 2925.46   1
   5  -4 -13 -597.62 1203.14   1
  -1 -13  -6 -56.350 2105.38   1
   1 -13   6 851.930 1122.14   1
   1 -13  -6 295.920 1980.67   1
  -1 -13   6 345.710 526.850   1
   1 -13   6 113.050 214.610   1
   1 -13  -6 876.440 942.510   1
  -1 -13  -6 -63.270 992.580   1
   0 -10 -11 28961.7 3267.47   1
   0 -10 -11 43976.0 3910.43   1
  -5  12   4 -167.59 2049.39   1
  -5 -12  -4 448.840 863.900   1
  -5 -12  -4 1249.86 2303.89   1
  -5  12  -4 624.110 824.540   1
  -5 -12   4 1969.59 1978.92   1
   5 -12  -4 490.860 582.220   1
   5 -12   4 1289.72 873.300   1
   8  -6  -8 613.790 479.430   1
  -8   6   8 991.610 2938.77   1
  -8  -6  -8 1401.60 2373.40   1
  -8  -6  -8 817.750 2383.46   1
  -8   6  -8 24.1300 2498.68   1
  -1 -14  -2 674.340 871.670   1
   1 -14   2 1627.63 1359.54   1
  -1 -14   2 492.090 577.180   1
   1 -14   2 213.000 374.110   1
   1 -14  -2 344.500 668.550   1
  -1 -14  -2 579.300 871.780   1
  -1 -14   2 1142.06 1679.67   1
   1 -14  -2 -75.520 2151.27   1
   0  -9 -12 3.54000 1770.95   1
   0  -9 -12 262.780 685.570   1
  -1  -6 -14 4574.62 4808.63   1
   1  -6 -14 4752.33 1559.60   1
  -8   7   7 1797.43 1685.66   1
  -8   7  -7 1864.10 2794.35   1
  -8  -7  -7 438.870 2523.94   1
  -8  -7  -7 2517.14 4484.13   1
   8  -7  -7 1859.12 1423.98   1
  -4 -12   6 25191.5 3058.54   1
  -4 -12  -6 28557.5 14097.6   1
  -4  12  -6 22301.0 3416.60   1
   4 -12  -6 20762.6 2881.78   1
  -4 -12  -6 17590.9 2839.33   1
  -7  -7  -9 1961.29 3329.60   1
  -7   7  -9 1165.15 2735.44   1
  -7   7   9 56.0600 1355.70   1
   7  -7  -9 477.140 510.220   1
  -7  -7  -9 -657.38 2417.57   1
  -4 -11  -8 51889.5 4638.53   1
   4 -11  -8 58959.8 4174.60   1
  -4 -11  -8 63741.6 5832.73   1
  -7  -4 -11 1177.34 2268.08   1
  -7  -4 -11 616.110 1958.46   1
   1 -10 -11 33717.8 3740.58   1
   1 -10 -11 31097.6 3580.37   1
  -1 -10 -11 32469.7 3164.64   1
  -1 -10 -11 23925.8 6484.67   1
 -10   5   2 2279.94 2753.96   1
 -10   5  -2 4674.88 4484.64   1
 -10  -5   2 3749.52 2486.90   1
 -10  -5  -2 1843.10 2364.30   1
  -7  -8  -8 5723.56 2616.15   1
  -7   8  -8 5881.83 2736.48   1
  -7  -8  -8 2290.23 3479.42   1
  -7   8   8 4396.40 3046.30   1
   7  -8  -8 3895.61 1650.13   1
   1  -9 -12 17580.3 2247.13   1
   1  -9 -12 19492.4 2820.95   1
  -1  -9 -12 23134.2 3480.46   1
  -1  -9 -12 21083.1 6721.05   1
   2 -14   0 48747.2 5491.23   1
  -2 -14   0 33431.1 8202.74   1
   2 -14   0 30238.4 2149.28   1
  -2 -14   0 30130.2 2380.72   1
  -3   0 -15 1273.17 1935.61   1
   0 -14   3 22113.1 2920.51   1
   0 -14  -3 30765.9 2357.30   1
   0 -14  -3 32753.8 4421.21   1
   0 -14   3 28909.8 2053.44   1
  -9  -7  -4 2708.50 2532.51   1
  -9   7  -4 2248.56 2950.95   1
  -9   7   4 1260.46 2127.94   1
   9  -7  -4 1897.22 1202.31   1
  -9  -7  -4 483.210 2233.10   1
  -9  -7   4 1642.25 1657.84   1
  -6  10  -7 6151.54 4687.20   1
  -6 -10  -7 11839.6 9007.95   1
  -6 -10  -7 2063.05 1578.72   1
   6 -10  -7 5803.28 2922.54   1
  -6  10   7 5670.58 4446.80   1
  -9  -3  -8 -344.15 2468.25   1
  -9   3   8 -51.700 2257.22   1
  -9   3  -8 -179.16 1803.62   1
   2  -3 -15 28384.6 5063.89   1
  -2  -3 -15 29779.6 4658.39   1
   0  -4 -15 12478.6 2948.89   1
 -10   4   4 941.930 2293.61   1
 -10  -4  -4 1530.02 2656.91   1
  10  -4  -4 366.820 389.040   1
 -10   4  -4 3134.80 2767.60   1
 -10  -4   4 856.000 2147.26   1
  -6   0 -13 1320.65 3083.06   1
   2 -14  -1 3211.76 1480.97   1
  -2 -14  -1 2278.40 3450.43   1
  -2 -14   1 1360.06 1633.55   1
   2 -14   1 1918.95 1563.99   1
   2 -14  -1 2964.36 1729.43   1
  -2 -14  -1 2036.81 1153.86   1
   2 -14   1 3394.71 3471.53   1
  -8  -3 -10 2036.20 2270.28   1
  -8   3 -10 2576.47 2048.77   1
  -8  -3 -10 3167.08 4164.37   1
  -8  -5  -9 2085.38 2152.55   1
  -8   5   9 3082.72 3121.66   1
   8  -5  -9 2368.60 1181.79   1
  -8  -5  -9 1306.52 2360.49   1
  -8   5  -9 2747.84 2882.18   1
  -3  -5 -14 1345.81 2872.33   1
   3  -5 -14 -460.86 1880.69   1
  -3 -11  -9 689.600 1879.35   1
   3 -11  -9 595.340 1710.33   1
  -3 -11  -9 -152.75 2102.09   1
   3 -11  -9 -77.490 1281.03   1
 -10  -3  -5 593.420 2470.45   1
 -10   3  -5 546.960 2014.04   1
 -10  -3   5 489.490 2638.40   1
 -10   3   5 983.230 2143.68   1
   2 -12  -8 41336.5 4177.61   1
  -2 -12  -8 41325.4 3747.66   1
   2 -12  -8 64937.4 7349.82   1
  -2 -12  -8 50663.9 7100.75   1
  -3  -1 -15 32357.9 7375.54   1
  -3   1 -15 24902.7 6666.58   1
  -4 -13  -3 -889.88 1912.19   1
   4 -13   3 576.720 674.740   1
  -4  13  -3 -163.05 2021.05   1
  -4 -13   3 824.380 1305.47   1
   4 -13  -3 298.190 801.650   1
  -4 -13  -3 129.080 1326.63   1
   0 -11 -10 -21.240 1180.12   1
   0 -11 -10 -606.64 1205.73   1
 -10   0   6 46.8700 2126.94   1
 -10   0  -6 -1278.7 2378.73   1
  -6  11   5 -671.17 1894.71   1
  -6  11  -5 1320.20 1726.89   1
  -6 -11  -5 543.410 3230.44   1
   6 -11  -5 278.780 314.850   1
  -6 -11   5 -1228.6 1658.02   1
  -6 -11  -5 -465.74 1617.78   1
  -6  -1 -13 7692.64 7290.93   1
  -7  -6 -10 19092.6 4063.75   1
  -7  -6 -10 3963.19 4555.52   1
   7  -6 -10 6937.45 2414.05   1
  -7   6  10 9334.25 9005.92   1
  -7   6 -10 19470.1 5028.65   1
   4  -6 -13 880.540 864.610   1
  -4  -6 -13 742.560 3181.44   1
  -4  -6 -13 885.120 2083.01   1
   0  -8 -13 2795.28 2036.53   1
  -1 -14   3 31321.8 3739.26   1
   1 -14  -3 25701.3 2082.99   1
   1 -14  -3 26184.6 3238.38   1
   1 -14   3 23226.2 2538.10   1
   1 -14   3 23440.6 1761.49   1
  -1 -14  -3 25495.2 2819.72   1
  -1 -14  -3 23206.4 2023.90   1
  -9   8   0 2409.37 1958.54   1
  -9  -8   0 1433.71 2167.36   1
   1  -4 -15 6602.77 5942.31   1
  -1  -4 -15 6439.11 2802.37   1
 -10   1   6 2809.91 2770.05   1
 -10  -1   6 1540.20 1838.17   1
 -10   1  -6 1547.27 2140.72   1
 -10  -1  -6 3719.75 2789.73   1
  -5 -11  -7 -889.83 1734.04   1
  -5  11  -7 877.150 1003.58   1
  -5 -11  -7 693.730 2046.84   1
  -5  11   7 -627.20 2025.42   1
   5 -11  -7 461.730 512.980   1
  -3 -13   5 2230.80 1505.01   1
  -3 -13  -5 1193.54 1475.97   1
   3 -13   5 842.760 603.580   1
   3 -13  -5 875.730 811.610   1
  -3 -13  -5 586.420 1919.99   1
   3 -13  -5 4742.20 3413.70   1
  -7   0 -12 2663.52 3122.51   1
  -8  -8  -6 25652.5 5067.51   1
  -8  -8   6 18654.6 3813.98   1
  -8   8  -6 10633.4 6468.22   1
  -8   8   6 6372.43 5866.19   1
   8  -8  -6 9537.19 2706.58   1
  -8  -8  -6 1355.94 3117.25   1
  -3  -7 -13 2264.14 2350.07   1
  -3  -7 -13 -27.010 1316.55   1
   3  -7 -13 1180.90 1199.20   1
  -8  -9  -4 9273.47 8449.67   1
  -8  -9   4 6829.41 5309.36   1
  -8   9  -4 7357.67 2983.78   1
  -8  -9  -4 4616.35 3701.67   1
   8  -9  -4 7094.08 3083.11   1
  -8   9   4 5949.89 4137.81   1
  -2 -13  -6 648.070 1833.38   1
   2 -13   6 258.840 1408.66   1
   2 -13  -6 327.680 707.620   1
   2 -13   6 272.440 1101.43   1
   2 -13  -6 -208.19 857.060   1
  -2 -13   6 610.580 1042.13   1
  -2 -13  -6 208.220 1237.33   1
  -9   8   1 172.400 2036.98   1
  -9  -8  -1 1080.47 2188.24   1
   9  -8  -1 173.820 1014.19   1
  -9  -8   1 668.290 3115.61   1
  -9   8  -1 -140.52 2860.12   1
   1 -11 -10 101.970 709.410   1
  -1 -11 -10 533.260 947.960   1
   1 -11 -10 -358.97 1431.60   1
  -1 -11 -10 1127.68 1976.96   1
  -2 -14  -2 3431.07 2875.19   1
   2 -14   2 9725.33 5756.77   1
   2 -14  -2 12211.8 7268.56   1
  -2 -14   2 6047.50 2746.65   1
  -2 -14  -2 7279.37 4046.15   1
   2 -14   2 5452.95 1593.32   1
   2 -14  -2 4301.65 2968.67   1
  -7 -10   5 584.960 2018.28   1
  -7 -10  -5 1930.76 1789.39   1
  -7  10   5 602.610 1633.76   1
   7 -10  -5 1668.49 1342.75   1
  -7 -10  -5 2931.49 3541.06   1
  -7  10  -5 2217.05 1857.01   1
  -7 -11   0 825.540 1984.24   1
  -7  11   0 1231.63 1463.84   1
   7 -11   0 2254.37 1466.05   1
  -2  -6 -14 2847.62 3141.96   1
   2  -6 -14 3814.77 2331.41   1
  -7  -1 -12 -526.93 2437.21   1
  -7  -1 -12 475.910 2918.01   1
   1  -8 -13 454.760 1589.66   1
  -1  -8 -13 2008.35 2363.04   1
   6 -12   0 631.160 555.590   1
  -6 -12   0 -524.86 2566.41   1
  -6  12   0 -383.86 2516.00   1
  10  -5  -3 -63.600 759.290   1
 -10   5   3 -410.17 2045.13   1
 -10   5  -3 -174.86 2690.37   1
 -10  -5   3 -95.420 1869.27   1
 -10  -5  -3 -271.87 2138.97   1
  -5   0 -14 10572.0 4293.47   1
  -9  -5  -7 1754.74 2416.78   1
  -9  -5  -7 2107.88 3349.72   1
  -9  -5   7 1219.92 1948.92   1
  -9   5  -7 2252.26 2435.90   1
  -9   5   7 2541.79 2253.10   1
   9  -5  -7 1944.65 992.100   1
  -7  11  -1 2605.88 2876.81   1
   7 -11  -1 1732.51 1407.58   1
  -7  11   1 -371.50 2647.76   1
  -7 -11   1 710.510 2095.01   1
  -7 -11  -1 -169.11 2741.71   1
   7 -11   1 1129.15 1541.35   1
  -9  -6   6 1535.15 1970.95   1
  -9   6   6 1681.15 2714.52   1
   9  -6  -6 1442.53 1287.35   1
  -9  -6  -6 1882.70 2488.79   1
  -9   6  -6 1838.37 1947.23   1
  -9  -6  -6 960.470 2487.76   1
  -7  -9  -7 9152.74 4348.80   1
  -7   9  -7 5968.48 4693.63   1
  -7   9   7 4122.17 2866.76   1
  -7  -9  -7 605.940 2653.72   1
   7  -9  -7 4515.02 2250.90   1
  -3   2 -15 -252.65 2523.14   1
  -3  -2 -15 1827.99 2369.44   1
   4  -4 -14 18313.5 2936.56   1
  -4  -4 -14 16322.2 4638.69   1
  -6 -12  -1 12796.3 6875.12   1
  -6  12   1 8090.12 6022.99   1
   6 -12   1 11770.0 3514.01   1
   6 -12  -1 9913.25 1667.21   1
  -6  12  -1 9131.93 6535.58   1
  -6 -12   1 9170.91 8330.86   1
  -6  -2 -13 770.990 2950.87   1
  -6  -5 -12 1055.00 2415.18   1
   6  -5 -12 698.120 690.600   1
  -6  -5 -12 1691.23 3165.50   1
   2 -10 -11 6487.89 4821.41   1
  -2 -10 -11 5632.72 7245.40   1
   2 -10 -11 5841.92 4127.36   1
  -2 -10 -11 6343.64 4434.55   1
   5  -9 -10 271.680 594.460   1
  -5  -9 -10 -382.91 1751.43   1
  -5  -9 -10 363.240 930.650   1
  -2  -9 -12 47580.1 7200.12   1
  -2  -9 -12 61231.6 8967.14   1
   2  -9 -12 59247.4 8642.51   1
   2  -9 -12 59096.8 8582.42   1
  -5  -1 -14 1031.99 2430.86   1
  -5   1 -14 1420.62 2810.96   1
 -10  -2  -6 1253.87 3461.03   1
 -10  -2   6 1582.32 1971.83   1
 -10   2   6 2719.88 2722.25   1
 -10   2  -6 3755.31 3408.01   1
  -5 -12  -5 2915.29 1763.63   1
  -5 -12   5 6748.80 8838.75   1
  -5  12   5 6955.03 2741.01   1
   5 -12  -5 7893.95 4109.71   1
  -5  12  -5 6592.15 5025.42   1
  -5 -12  -5 10936.9 7580.71   1
   5  -8 -11 6748.14 3151.65   1
  -5  -8 -11 11944.3 3044.85   1
  -5  -8 -11 6567.96 3286.40   1
  -9   8   2 1704.46 2091.17   1
   9  -8  -2 272.260 386.510   1
  -9  -8  -2 -357.68 2563.20   1
  -9  -8   2 -317.75 2099.76   1
  -9   8  -2 1027.30 3077.67   1
  -9   0  -9 514.850 2319.49   1
   0 -14   4 97330.0 3338.43   1
  -5  -5 -13 1450.57 2592.57   1
  -5  -5 -13 1161.69 2268.67   1
   5  -5 -13 343.620 1112.14   1
  -7  -2 -12 2862.12 3054.24   1
  -7  -2 -12 6469.82 3243.53   1
  -7  11  -2 2851.73 2410.06   1
  -7  11   2 2281.92 1602.12   1
   7 -11   2 2698.39 2339.36   1
   7 -11  -2 3397.86 1548.72   1
  -7 -11   2 1255.38 1508.55   1
  -7 -11  -2 4991.16 3503.69   1
   4  -9 -11 8131.01 8863.74   1
   4  -9 -11 2291.49 1466.67   1
  -4  -9 -11 4781.44 3814.48   1
  -4  -9 -11 3431.54 2363.56   1
  -9  -1  -9 1254.00 1464.80   1
  -9   1  -9 1752.82 2591.31   1
   0 -13  -7 -432.46 1086.20   1
   0 -13   7 -260.29 1590.15   1
   0 -13  -7 11.1100 1016.57   1
  -6  12  -2 17163.0 11319.2   1
   6 -12  -2 20889.7 3227.95   1
   6 -12   2 22888.0 3502.25   1
  -6  12   2 15522.5 10345.7   1
  -6 -12   2 25305.3 4733.90   1
  -6 -12  -2 31164.0 5748.33   1
  -6   8  10 6352.56 7107.78   1
   6  -8 -10 6069.53 3197.38   1
  -6  -8 -10 3704.70 2605.82   1
  -6  -8 -10 11986.2 3075.94   1
  -4 -13  -4 74007.0 3616.38   1
  -4 -13   4 67437.6 9964.16   1
  -4 -13  -4 65226.1 9509.94   1
   4 -13  -4 68953.3 2448.31   1
   4 -13   4 65375.0 9316.98   1
  -4  13  -4 69524.6 5567.47   1
 -10  -6   0 813.530 1945.19   1
 -10   6   0 -1181.4 2382.33   1
  -2 -14  -3 5559.09 4031.63   1
   2 -14  -3 6550.85 2274.09   1
   2 -14  -3 5786.38 6105.48   1
   2 -14   3 6798.31 2477.11   1
   2 -14   3 6409.35 3738.48   1
  -2 -14  -3 5814.38 4767.67   1
  -2 -14   3 4224.06 3644.28   1
  -9  -4  -8 1289.52 2163.69   1
  -9   4  -8 1930.07 2128.89   1
  -9  -4  -8 2376.88 3176.55   1
  -9   4   8 2573.19 2669.79   1
   2  -4 -15 1593.77 1606.93   1
  -2  -4 -15 931.620 1967.38   1
  -8  -4 -10 8970.26 3205.10   1
  -8   4 -10 7897.76 3062.10   1
  -8  -4 -10 1511.12 3117.06   1
  -8   4  10 2751.45 3963.03   1
   1 -14  -4 63046.5 9361.37   1
  -1 -14  -4 57862.5 8376.79   1
  -1 -14  -4 52722.2 7393.00   1
   1 -14  -4 54593.7 7663.19   1
   1 -14   4 53631.5 7697.09   1
  -1 -14   4 60398.1 8807.66   1
   1 -14   4 61133.1 8922.87   1
  -5  -2 -14 844.630 3163.67   1
   9  -7  -5 799.900 624.240   1
  -9  -7  -5 -880.29 2427.48   1
  -9   7   5 693.490 2104.92   1
  -9   7  -5 1990.45 2423.31   1
  -9  -7   5 1173.64 2089.75   1
  -9  -7  -5 2005.02 2393.53   1
   5 -10  -9 2567.17 1948.12   1
  -5 -10  -9 5375.24 3534.71   1
  -5 -10  -9 2977.99 2187.73   1
 -10  -6  -1 404.360 2161.55   1
 -10  -6   1 539.320 2124.04   1
 -10   6  -1 193.770 2678.81   1
 -10   6   1 2148.58 3484.77   1
 -10  -4   5 1834.59 2218.68   1
 -10   4  -5 654.150 2283.65   1
 -10   4   5 1912.29 2639.86   1
 -10  -4  -5 1193.47 2756.17   1
  10  -4  -5 262.420 599.590   1
  -4 -10 -10 12755.8 6823.93   1
   4 -10 -10 51530.6 8121.46   1
  -4 -10 -10 27588.5 5012.16   1
   4 -10 -10 15095.7 3149.36   1
  -6   9   9 459.670 1210.38   1
  -6  -9  -9 -32.510 2156.70   1
  -6   9  -9 274.580 1186.09   1
  -6  -9  -9 1406.12 1931.66   1
   6  -9  -9 237.780 513.200   1
   2 -11 -10 -66.840 1379.88   1
  -2 -11 -10 -61.600 1571.63   1
   2 -11 -10 -733.00 1518.54   1
  -2 -11 -10 1220.50 1818.66   1
  -7  -5 -11 1670.06 3965.73   1
   7  -5 -11 2877.15 2001.22   1
  -7  -5 -11 4916.48 2305.52   1
   0 -12  -9 19080.3 3415.55   1
   0 -12  -9 14554.4 3391.87   1
  -1 -13   7 1687.71 1351.84   1
   1 -13  -7 1731.42 1668.07   1
   1 -13   7 2774.41 1582.14   1
  -1 -13  -7 2056.65 1663.58   1
   1 -13  -7 1568.39 1210.75   1
  -1 -13  -7 2112.32 2829.92   1
  -8 -10   0 1379.82 1967.95   1
  -8  10   0 639.740 1892.42   1
   8 -10   0 603.030 774.350   1
   3 -14   0 9967.79 1693.33   1
  -3 -14   0 8770.16 6057.76   1
 -11   0   1 -465.63 1815.30   1
 -11   0  -1 -305.55 1826.41   1
  -2  -8 -13 -71.680 1251.53   1
   2  -8 -13 354.580 869.970   1
  -2  -8 -13 1479.86 2678.74   1
  -4  -8 -12 7307.94 2477.89   1
   4  -8 -12 8807.26 5000.13   1
  -4  -8 -12 30122.0 5336.16   1
 -11  -1   0 1480.18 2728.32   1
 -11   1   0 733.340 2043.86   1
  -3  -3 -15 23463.2 5701.34   1
   3  -3 -15 33247.6 6929.11   1
  -8  10  -1 -209.95 2164.77   1
  -8 -10   1 1323.65 1292.92   1
   8 -10  -1 311.450 522.420   1
  -8  10   1 -451.47 2378.01   1
  -8 -10  -1 679.680 3463.13   1
   0  -7 -14 310.950 1013.29   1
   3 -14  -1 270.830 618.030   1
   3 -14   1 360.870 506.600   1
  -3 -14  -1 -399.92 1733.22   1
  -3 -14   1 602.200 1337.37   1
  -8   0 -11 90.6900 2108.64   1
  -5 -13   0 4561.30 3777.90   1
   5 -13   0 3380.02 2050.15   1
  -5  13   0 3934.09 2929.28   1
   0  -5 -15 -405.29 1682.82   1
  -6  -7 -11 -1280.8 2659.41   1
  -6  -7 -11 2815.08 2196.23   1
  -6   7  11 964.560 1767.13   1
   6  -7 -11 490.750 902.850   1
  -5  -7 -12 2203.63 2518.07   1
   5  -7 -12 1985.80 1976.90   1
  -5  -7 -12 8358.14 2421.30   1
 -10  -5  -4 650.740 2423.50   1
  10  -5  -4 5.00000 418.940   1
 -10   5   4 6.37000 1146.26   1
 -10  -5   4 321.400 2164.18   1
 -10   5  -4 -70.430 2181.82   1
  -6  -3 -13 1879.93 2961.12   1
  -4 -12  -7 12730.2 10527.1   1
   4 -12  -7 9866.80 5412.52   1
  -4  12  -7 8540.03 5509.88   1
  -4 -12  -7 6209.37 3520.97   1
   9  -8  -3 1426.27 946.110   1
  -9   8  -3 1198.70 1701.85   1
  -9  -8  -3 660.040 2524.79   1
  -9  -8   3 1042.85 2320.79   1
  -9   8   3 442.520 1620.17   1
  -9   2   9 1503.24 2052.37   1
  -9  -2  -9 -93.380 1748.16   1
  -9   2  -9 106.330 2319.20   1
 -11  -1  -1 1377.48 2929.06   1
 -11   1   1 971.550 1953.86   1
 -11   1  -1 1244.77 1889.03   1
 -11  -1   1 -421.55 1730.92   1
  -3 -12  -8 10658.4 2731.16   1
   3 -12  -8 8196.16 3256.48   1
   3 -12  -8 7681.33 2201.91   1
  -3 -12  -8 7680.81 7400.57   1
   1 -12  -9 5281.36 4661.93   1
   1 -12  -9 8210.50 5111.39   1
  -1 -12  -9 9004.38 2131.63   1
  -1 -12  -9 4982.19 5269.22   1
  -5 -13   1 431.270 1483.51   1
  -5  13  -1 1283.60 2610.32   1
  -5 -13  -1 445.460 1408.93   1
  -5  13   1 596.340 1507.53   1
   5 -13  -1 -136.36 677.520   1
   5 -13   1 534.370 619.820   1
 -10  -3  -6 4345.28 3104.30   1
 -10  -3   6 1730.74 1626.29   1
 -10   3  -6 4014.01 2181.81   1
 -10   3   6 2595.43 3084.88   1
   8  -9  -5 2057.04 1279.60   1
  -8   9   5 1120.10 1898.29   1
  -8  -9  -5 2296.50 2801.45   1
  -8  -9  -5 637.470 2894.84   1
  -8  -9   5 2081.01 2864.08   1
  -8   9  -5 2665.70 2753.67   1
   0   0 -16 291661. 6966.25   1
  -8   1 -11 3581.54 2466.63   1
  -8  -1 -11 4365.71 2979.88   1
 -10  -6  -2 2088.94 2137.78   1
 -10   6   2 -571.82 2053.04   1
 -10   6  -2 628.450 1412.18   1
 -10  -6   2 -49.420 2474.81   1
  -6  11  -6 1895.26 1464.65   1
  -6 -11  -6 570.940 1839.25   1
  -6 -11   6 504.270 1934.05   1
   6 -11  -6 1254.77 835.440   1
  -6  11   6 -395.58 1733.23   1
  -6 -11  -6 527.910 2393.14   1
   7 -11  -3 1025.26 758.620   1
  -7  11   3 1055.13 3007.61   1
  -7  11  -3 1597.48 1518.40   1
  -7 -11   3 1588.21 2435.03   1
  -7 -11  -3 1425.93 1639.35   1
   8  -7  -8 3722.69 1575.10   1
  -8   7   8 1894.80 1946.75   1
  -8   7  -8 6400.01 4142.23   1
  -8  -7  -8 5662.40 3508.53   1
  -8  -7  -8 2324.63 3381.90   1
   1  -7 -14 3483.50 4184.73   1
  -1  -7 -14 3650.17 2006.29   1
  -6 -12  -3 6958.38 7748.40   1
   6 -12  -3 6103.99 3205.67   1
   6 -12   3 6272.26 3220.92   1
  -6  12   3 5786.14 3077.35   1
  -6  12  -3 6503.60 6681.58   1
  -6 -12   3 3980.66 4803.69   1
 -11   0   2 705.800 2091.28   1
 -11   0  -2 1657.14 1841.20   1
  -1  -5 -15 11643.2 3307.94   1
   1  -5 -15 14173.3 3693.65   1
   0  -1 -16 229.980 2264.29   1
   0   1 -16 1987.33 3746.31   1
  -7  -3 -12 268.810 2677.77   1
  -7  -3 -12 2946.68 2536.55   1
   3 -13  -6 3695.24 2584.84   1
  -3 -13  -6 2051.72 2394.40   1
   3 -13   6 1338.79 1037.04   1
  -3 -13   6 1934.09 1411.49   1
   3 -13  -6 339.330 647.430   1
  -3 -13  -6 -160.71 1228.73   1
  -8 -10  -2 14049.0 3711.60   1
  -8  10  -2 5920.55 3205.21   1
  -8 -10   2 10701.5 3319.16   1
   8 -10  -2 8756.40 3253.77   1
  -8  10   2 5984.88 4055.72   1
  -3 -14  -2 3972.70 3997.92   1
   3 -14  -2 5547.82 4434.18   1
  -3 -14  -2 5663.51 1414.22   1
   3 -14   2 6204.50 1881.23   1
  -3 -14   2 3633.67 2224.52   1
   3 -14  -2 5960.98 1133.48   1
 -11  -2   0 1005.35 2386.77   1
 -11   2   0 1839.14 1640.08   1
  -8   6  -9 580.580 891.620   1
  -8   6   9 1009.46 1869.32   1
  -8  -6  -9 -670.18 2180.81   1
  -8  -6  -9 1193.45 2965.34   1
   8  -6  -9 578.990 465.120   1
   3  -6 -14 1729.87 1377.78   1
  -3  -6 -14 4321.10 3472.74   1
 -10   0   7 833.280 2339.91   1
 -10   0  -7 -230.74 2193.86   1
  -1   0 -16 285385. 11929.7   1
 -11  -1  -2 10135.3 3561.08   1
 -11  -1   2 3022.93 1810.45   1
 -11   1  -2 4096.41 2465.01   1
 -11   1   2 3102.33 2654.57   1
  -7 -10  -6 767.620 2995.15   1
  -7  10   6 7888.04 4695.50   1
  -7  10  -6 6481.56 4543.54   1
  -7 -10   6 8854.72 6359.84   1
  -7 -10  -6 9113.20 5589.33   1
   7 -10  -6 6698.94 4111.57   1
  -4   0 -15 918.940 2589.64   1
 -11   2   1 1563.74 1824.28   1
 -11  -2  -1 -771.41 2127.57   1
 -11  -2   1 100.120 2155.70   1
 -11   2  -1 -148.04 1745.73   1
  -5  13  -2 500.710 1468.89   1
   5 -13   2 376.540 585.410   1
   5 -13  -2 155.830 337.260   1
  -5 -13   2 1391.47 2107.78   1
  -5  13   2 362.210 1163.41   1
  -5 -13  -2 194.430 1245.10   1
  -5  -3 -14 2175.27 4049.78   1
  -6 -10  -8 7236.51 4397.86   1
  -6  10   8 2275.60 3307.69   1
  -6 -10  -8 848.180 2318.23   1
   6 -10  -8 2821.61 1352.82   1
  -6  10  -8 3357.16 3491.67   1
 -10   1   7 134.790 1824.23   1
 -10  -1   7 -15.880 1512.77   1
 -10  -1  -7 1109.78 2454.76   1
 -10   1  -7 1371.76 2583.52   1
  -1   1 -16 2947.53 2859.44   1
  -1  -1 -16 3694.84 3659.79   1
   1  -1 -16 2622.16 2396.97   1
  -2 -14  -4 44920.1 6959.06   1
  -2 -14  -4 32639.4 4930.70   1
  -2 -14   4 49249.6 8328.91   1
   2 -14  -4 53519.2 8082.05   1
   2 -14  -4 32313.2 5063.22   1
   2 -14   4 37992.0 5371.20   1
   2 -14   4 66158.0 9743.44   1
   4  -5 -14 603.540 1262.35   1
  -4  -5 -14 260.900 3487.82   1
   4 -11  -9 393.330 690.340   1
  -4 -11  -9 -527.84 1722.59   1
   4 -11  -9 555.070 1160.52   1
  -4 -11  -9 -118.30 1468.96   1
  -8  -8  -7 591.250 2850.91   1
  -8   8   7 -893.24 1822.11   1
   8  -8  -7 391.650 461.860   1
  -8  -8  -7 30.1500 3158.67   1
  -8   8  -7 312.490 1445.59   1
  -8  -2 -11 -1196.1 1986.73   1
  -8   2 -11 2081.69 3023.70   1
  -8  -2 -11 -68.980 1845.07   1
  -4  -1 -15 5802.54 3400.43   1
  -4   1 -15 4112.06 3344.88   1
   3 -10 -11 3611.83 3418.84   1
  -3 -10 -11 774.840 904.650   1
   3 -10 -11 -91.450 1210.78   1
  -3 -10 -11 2708.81 3269.07   1
  -3  -9 -12 60732.1 8783.03   1
  -3  -9 -12 60345.9 8812.61   1
   3  -9 -12 57580.9 8178.41   1
   2 -13  -7 3687.62 2957.95   1
   2 -13   7 5417.87 1013.57   1
  -2 -13  -7 3574.85 1492.72   1
  -2 -13  -7 7060.07 5667.86   1
   2 -13   7 11113.9 7908.62   1
   2 -13  -7 9691.17 7574.22   1
   0 -14  -5 17707.7 3678.57   1
   0 -14  -5 11435.2 7921.88   1
   0 -14   5 11422.7 6070.02   1
  -7   8   9 598.790 909.600   1
  -7  -8  -9 -320.48 2170.76   1
  -7   8  -9 1735.03 1659.74   1
  -7  -8  -9 580.670 2249.83   1
   7  -8  -9 968.220 770.450   1
   0  -2 -16 1116.42 1675.26   1
  -5 -12   6 21349.0 4030.44   1
  -5 -12  -6 21758.2 8407.77   1
  -5  12   6 14903.9 9386.99   1
  -5  12  -6 14749.5 10069.8   1
  -5 -12  -6 6937.48 4837.77   1
   5 -12  -6 16103.7 2665.91   1
   4 -13  -5 254.480 414.610   1
  -4 -13  -5 -658.60 1516.74   1
   4 -13   5 479.370 433.620   1
  -4  13  -5 1237.77 2504.49   1
  -4 -13   5 653.660 720.820   1
  -4 -13  -5 834.400 1766.84   1
  -9   3   9 -56.670 1597.06   1
  -9  -3  -9 183.950 2021.17   1
  -9   3  -9 2393.71 3004.30   1
  -7  -7 -10 897.010 3766.73   1
  -7  -7 -10 455.200 1956.87   1
  -7   7 -10 1856.77 2290.22   1
   7  -7 -10 957.710 645.980   1
  -7   7  10 1094.95 1958.05   1
  -4  -7 -13 1870.15 2177.61   1
   4  -7 -13 -489.50 1221.63   1
  -4  -7 -13 828.320 1428.53   1
 -10  -6  -3 1377.72 2964.18   1
 -10   6  -3 -98.650 2153.40   1
 -10   6   3 2059.02 2665.25   1
 -10  -6   3 1048.60 2106.81   1
  -5 -11  -8 25522.7 5655.56   1
  -5  11  -8 13495.5 10384.2   1
  -5 -11  -8 13053.2 3507.63   1
   5 -11  -8 17620.9 3168.12   1
  -9  -6  -7 1499.09 2793.35   1
  -9  -6  -7 1706.08 2711.74   1
  -9   6  -7 1174.80 2027.76   1
  -9   6   7 877.620 1837.84   1
   9  -6  -7 806.400 736.070   1
 -11   2   2 265.160 1998.07   1
 -11   2  -2 -697.14 1962.53   1
 -11  -2   2 1431.83 2353.46   1
 -11  -2  -2 -144.62 1924.88   1
  -2 -12  -9 3333.05 1684.11   1
   2 -12  -9 2273.06 2153.76   1
   2 -12  -9 2154.75 1534.68   1
  -2 -12  -9 1028.97 930.160   1
 -11   0  -3 830.120 2007.55   1
 -11   0   3 1254.83 1837.67   1
   1 -14  -5 17757.7 2693.28   1
   1 -14   5 18059.7 2997.78   1
  -1 -14   5 19831.3 7133.31   1
   1 -14  -5 16458.1 1911.56   1
  -1 -14  -5 14808.5 8753.37   1
  -1 -14  -5 17394.3 2199.14   1
  -9  -8  -4 898.680 2420.24   1
  -9   8  -4 900.870 2062.08   1
  -9   8   4 1536.92 1622.03   1
  -9  -8   4 2403.40 3573.85   1
   9  -8  -4 492.090 406.200   1
  -6  -6 -12 6525.72 2225.83   1
  -6  -6 -12 1375.45 1998.93   1
   6  -6 -12 2888.76 2223.98   1
   8 -10  -3 582.050 609.940   1
  -8  10   3 -327.20 1871.48   1
  -8 -10   3 -1612.6 2621.87   1
  -8  10  -3 30.1300 1173.58   1
  -8 -10  -3 -974.67 2297.56   1
   3 -14  -3 1154.95 2070.83   1
  -3 -14  -3 965.470 909.850   1
  -3 -14   3 389.630 1376.93   1
   3 -14   3 -71.750 642.340   1
   3 -14  -3 -37.980 670.530   1
  -3 -14  -3 438.430 1123.82   1
 -10  -2  -7 -52.460 2268.93   1
 -10   2  -7 54.5900 1870.86   1
 -10  -2   7 451.980 1368.95   1
 -10   2   7 970.580 1918.80   1
  -1  -2 -16 5531.99 3999.17   1
  -1   2 -16 1721.23 2291.27   1
   1  -2 -16 5156.80 3335.58   1
  -3  -4 -15 1565.23 4154.55   1
   3  -4 -15 642.120 1416.60   1
   2  -7 -14 10110.6 2124.30   1
  -2  -7 -14 9359.42 3268.89   1
 -11  -1   3 -163.30 1968.05   1
 -11  -1  -3 659.510 2413.44   1
 -11   1  -3 2051.95 3213.59   1
 -11   1   3 1769.80 1855.73   1
  -4  -2 -15 2107.52 4867.48   1
  -9   5  -8 873.390 2495.55   1
  -9  -5  -8 -339.54 2839.69   1
   9  -5  -8 853.960 531.950   1
  -9   5   8 -296.88 1977.29   1
  -9  -5  -8 1753.13 2677.31   1
  -2  -5 -15 27373.1 3953.56   1
   2  -5 -15 23535.4 3252.20   1
  -6  -4 -13 845.910 3338.24   1
  -6  -4 -13 -448.57 2229.20   1
   7 -11  -4 15475.3 3182.72   1
  -7  11   4 12043.2 6304.82   1
  -7  11  -4 14970.6 9783.91   1
  -7 -11   4 28916.5 4897.00   1
  -7 -11  -4 21814.9 15360.3   1
  -7  -9  -8 4670.24 4079.28   1
   7  -9  -8 7125.23 3114.33   1
  -7  -9  -8 17479.7 4054.82   1
  -7   9   8 8723.98 6425.21   1
  -7   9  -8 12357.4 3312.14   1
  -8  -5 -10 450.230 2289.54   1
  -8   5  10 3996.45 4622.16   1
  -8  -5 -10 9142.40 4003.41   1
 -11   3   0 -374.14 2041.40   1
 -11  -3   0 41.1900 2396.39   1
  -5 -13  -3 610.400 1156.83   1
  -5  13   3 198.500 1925.84   1
   5 -13  -3 514.780 607.290   1
   5 -13   3 -191.22 582.720   1
  -5 -13   3 -51.970 2098.50   1
  -5  13  -3 665.660 1341.28   1
   3 -11 -10 294.250 770.270   1
  -3 -11 -10 -583.36 1310.45   1
  -3 -11 -10 345.910 1159.51   1
   3 -11 -10 -94.490 1006.28   1
   0 -10 -12 139777. 17290.9   1
   0 -10 -12 133637. 12427.5   1
  -6  12   4 1273.32 1332.55   1
  -6 -12   4 3119.19 2667.83   1
  -6  12  -4 435.450 1784.18   1
  -6 -12  -4 976.810 1506.40   1
  -6 -12  -4 -341.14 1437.72   1
   6 -12  -4 610.880 460.580   1
 -10   5  -5 -863.41 2002.71   1
  10  -5  -5 -289.35 563.110   1
 -10   5   5 -545.05 1947.02   1
 -10  -5   5 87.7900 2534.21   1
 -10  -5  -5 311.140 2360.85   1
  -9   7  -6 7382.79 6832.19   1
  -9   7   6 7557.50 5180.40   1
  -9  -7  -6 3157.11 4145.04   1
   9  -7  -6 8144.10 2061.70   1
  -9  -7  -6 13870.7 3904.34   1
  -9  -7   6 12288.5 3449.13   1
 -10   4   6 -148.48 1990.04   1
 -10   4  -6 971.020 1888.07   1
 -10  -4  -6 897.900 2589.36   1
 -10  -4   6 -197.40 1743.40   1
  -2   0 -16 75897.7 10647.5   1
   5  -6 -13 569.950 537.160   1
  -5  -6 -13 3059.68 2594.65   1
  -5  -6 -13 -330.56 1995.83   1
  -3  -8 -13 181.440 1709.50   1
  -3  -8 -13 836.870 1095.42   1
   3  -8 -13 -103.02 1217.75   1
 -11  -3  -1 99.6700 2494.36   1
 -11  -3   1 1129.48 2093.36   1
 -11   3  -1 -342.65 2149.72   1
 -11   3   1 95.8700 2256.09   1
  -2  -1 -16 15936.0 6830.48   1
  -2   1 -16 6628.73 3128.33   1
  -8  -3 -11 11520.9 5191.48   1
  -8  -3 -11 906.810 2380.66   1
  -8   3 -11 9204.06 3479.47   1
  -7  -4 -12 779.060 1848.28   1
  -7  -4 -12 1430.05 2096.89   1
   1 -10 -12 77231.9 6627.70   1
  -1 -10 -12 90872.3 7713.04   1
   1 -10 -12 94075.8 8010.00   1
  -1 -10 -12 112233. 9494.91   1
   0 -11 -11 890.810 1700.23   1
   0 -11 -11 52.8100 738.740   1
   0  -9 -13 193.770 1763.81   1
  -9  -9   0 2907.58 1923.73   1
  -9   9   0 1966.83 2852.97   1
   0 -13  -8 638.430 1232.81   1
   0 -13  -8 -251.59 1167.26   1
  -7  -6 -11 741.490 2175.41   1
   7  -6 -11 824.210 1203.76   1
  -7  -6 -11 4748.87 4317.53   1
   0  -3 -16 228.330 2213.33   1
 -11  -2  -3 1101.77 2513.12   1
 -11   2   3 744.340 2115.63   1
 -11   2  -3 -124.21 2056.41   1
 -11  -2   3 -72.420 1752.85   1
  -8  -9  -6 1877.06 3626.65   1
   8  -9  -6 1339.21 951.130   1
  -8   9   6 1606.39 2232.80   1
  -8   9  -6 1896.44 3029.55   1
  -8  -9   6 917.900 1757.22   1
  -8  -9  -6 807.550 1558.04   1
  -5  -4 -14 18003.6 5402.38   1
  -9  -9   1 1297.62 2110.85   1
  -9   9  -1 2276.32 2978.71   1
  -9   9   1 806.110 2325.54   1
   9  -9  -1 598.390 446.410   1
  -9  -9  -1 3264.02 3245.00   1
 -11   3  -2 142.570 1948.27   1
 -11   3   2 1786.77 1973.66   1
 -10  -7   0 -255.63 2291.19   1
 -10   7   0 286.600 1814.73   1
  -1 -11 -11 2096.69 1494.64   1
   1 -11 -11 2380.65 2121.16   1
  -1 -11 -11 2256.50 3141.65   1
   1 -11 -11 2762.66 1762.11   1
   0  -6 -15 9075.52 2077.69   1
   1  -9 -13 525.470 1205.52   1
  -1  -9 -13 508.280 1457.67   1
  -1  -9 -13 770.310 1692.13   1
 -10  -6   4 10958.0 4072.35   1
 -10   6  -4 4630.06 2862.55   1
 -10   6   4 7031.02 6548.50   1
 -10  -6  -4 13676.2 4344.43   1
  -2 -14  -5 4428.86 2871.13   1
   2 -14  -5 3450.98 3494.52   1
  -2 -14   5 3207.08 2765.57   1
  -2 -14  -5 3503.05 3254.45   1
   2 -14   5 3597.59 1468.50   1
   2 -14  -5 3952.07 3056.07   1
   2 -14   5 3569.99 3109.28   1
  -4 -14   0 20842.1 8216.53   1
   4 -14   0 7875.12 3348.97   1
   1 -13  -8 1808.91 1463.93   1
  -1 -13  -8 1576.26 1283.05   1
   1 -13  -8 1636.04 1036.72   1
  -1 -13  -8 830.080 1729.69   1
 -10   7  -1 1168.83 1678.42   1
 -10   7   1 -628.69 2192.79   1
 -10  -7   1 287.320 1933.38   1
 -10  -7  -1 2856.84 2830.06   1
 -10  -3   7 495.740 1467.15   1
 -10  -3  -7 68.9600 1849.91   1
 -10   3  -7 -414.38 1642.22   1
 -10   3   7 -240.40 1890.78   1
   1  -3 -16 10308.0 3209.77   1
  -1  -3 -16 8123.55 7509.45   1
 -11   0  -4 2068.41 2053.80   1
 -11   0   4 1182.80 1663.28   1
  -2   2 -16 2831.02 2921.13   1
  -2  -2 -16 4071.35 2987.07   1
   2  -2 -16 6499.25 2805.30   1
  -4  -3 -15 8779.13 2846.32   1
  -6 -11  -7 95.2600 1954.20   1
   6 -11  -7 225.330 465.360   1
  -6  11   7 629.290 931.760   1
  -6  11  -7 796.180 1925.03   1
  -6 -11  -7 1145.52 1578.44   1
  -9   0 -10 2355.02 2582.47   1
  -4 -14  -1 7175.64 6976.73   1
   4 -14  -1 4487.05 2589.40   1
   4 -14   1 5166.03 2487.39   1
  -4 -14   1 4625.40 3165.56   1
  -9   4   9 518.960 1601.67   1
  -9  -4  -9 -214.52 2097.78   1
  -9   4  -9 -199.56 2175.31   1
  -9  -4  -9 1703.52 2960.91   1
  -8 -10   4 1165.65 2225.83   1
  -8  10  -4 -1240.0 1929.85   1
  -8  10   4 -23.700 1426.94   1
   8 -10  -4 383.910 564.440   1
  -8 -10  -4 2418.28 2502.33   1
   0 -15   0 -492.49 2679.33   1
   0 -15   0 290.630 485.380   1
  -3 -14  -4 3746.42 2276.59   1
   3 -14  -4 5545.24 2236.47   1
   3 -14   4 4982.51 818.520   1
  -3 -14   4 4515.38 3787.85   1
   3 -14  -4 4900.22 4158.23   1
  -3 -14  -4 3988.03 1202.06   1
   4 -12  -8 1373.31 1215.96   1
  -4 -12  -8 2123.46 2124.99   1
   4 -12  -8 4285.30 2947.93   1
  -4 -12  -8 1084.83 1546.82   1
 -11  -1   4 197.540 1930.32   1
 -11   1   4 -181.96 2010.98   1
 -11   1  -4 -453.99 2017.19   1
 -11  -1  -4 1448.65 3705.84   1
   1  -6 -15 6525.67 2880.59   1
  -1  -6 -15 6659.06 2321.63   1
  -5  -9 -11 753.660 2373.27   1
   5  -9 -11 809.520 692.810   1
  -5  -9 -11 482.550 1908.36   1
  -3 -13  -7 6515.17 8572.22   1
   3 -13   7 4011.41 1106.58   1
   3 -13  -7 2806.92 2386.14   1
  -3 -13  -7 2802.72 2075.55   1
   3 -13  -7 10032.0 6427.26   1
  -9  -9   2 9681.71 3411.56   1
   9  -9  -2 4854.40 2806.26   1
  -9  -9  -2 9042.66 3274.90   1
  -9   9   2 9021.76 3854.13   1
  -9   9  -2 5600.91 2798.02   1
  -9   1 -10 10029.8 3968.93   1
  -9  -1 -10 5527.36 3533.79   1
   0 -15   1 683.550 2464.90   1
   0 -15   1 -17.000 391.010   1
   0 -15  -1 391.680 353.470   1
   0 -15  -1 572.570 2051.64   1
  -5 -13  -4 18957.2 9482.59   1
  -5 -13   4 20727.8 7079.79   1
  -5  13  -4 14315.4 10501.7   1
   5 -13   4 19545.8 1901.29   1
  -5  13   4 16205.8 9555.75   1
   5 -13  -4 20620.0 2098.78   1
  -5 -13  -4 9667.37 5022.61   1
   0 -14   6 3578.05 2253.78   1
   0 -14  -6 827.890 714.090   1
   0 -14  -6 2832.05 2210.30   1
  -9   8  -5 681.220 2058.55   1
  -9  -8  -5 -378.01 2308.98   1
  -9   8   5 454.920 1023.95   1
  -9  -8   5 1228.26 1777.88   1
  -9  -8  -5 5.07000 2615.02   1
   9  -8  -5 167.820 462.150   1
  -6   0 -14 6266.91 3638.58   1
  -7 -10  -7 -1303.0 2919.07   1
   7 -10  -7 1787.55 1050.37   1
  -7  10  -7 682.430 1446.76   1
  -7 -10  -7 1820.28 2288.63   1
  -7  10   7 1583.45 1320.94   1
  -1 -15   0 41130.5 4547.44   1
   1 -15   0 38525.4 3359.11   1
  -1 -15   0 38689.9 3399.82   1
   1 -15   0 43598.3 4822.26   1
 -10   7  -2 3224.75 2944.45   1
 -10   7   2 2537.87 2019.12   1
 -10  -7  -2 5007.32 2538.29   1
 -10  -7   2 3201.77 2936.04   1
  -4 -13  -6 390.300 1446.90   1
   4 -13   6 668.470 817.880   1
   4 -13  -6 973.190 685.600   1
  -4  13  -6 755.660 1813.55   1
  -4 -13  -6 917.380 1446.02   1
  -5 -10 -10 11050.8 3907.86   1
  -5 -10 -10 20938.7 3554.47   1
   5 -10 -10 13565.4 3251.87   1
 -11   4   0 5877.11 3446.67   1
 -11  -4   0 2452.06 2152.29   1
   2 -10 -12 41997.5 3878.17   1
  -2 -10 -12 42200.7 4639.37   1
  -2 -10 -12 44370.9 4396.78   1
   2 -10 -12 58274.7 5281.31   1
  -6  -9 -10 1660.38 3175.51   1
  -6   9  10 1288.17 2788.42   1
   6  -9 -10 1391.06 849.650   1
  -6  -9 -10 1315.78 1624.47   1
  -4 -14  -2 26556.7 10882.3   1
   4 -14  -2 14584.6 1988.40   1
  -4 -14   2 20195.8 6879.28   1
  -4  14  -2 15330.6 4474.69   1
   4 -14   2 16586.2 1655.81   1
  -3 -12  -9 1036.15 1251.29   1
  -3 -12  -9 469.810 1481.44   1
   3 -12  -9 314.830 515.580   1
   3 -12  -9 464.690 1233.27   1
  -6  -1 -14 -1543.0 3103.16   1
  -7 -11  -5 -1605.8 1860.57   1
  -7 -11  -5 2319.54 3548.68   1
  -7 -11   5 1776.05 2066.07   1
  -7  11  -5 -376.58 2093.35   1
  -7  11   5 -264.49 1827.88   1
   7 -11  -5 296.560 370.190   1
   4  -6 -14 1744.84 1577.16   1
  -4  -6 -14 2039.21 2761.98   1
   0 -12 -10 4204.50 3829.08   1
   0 -12 -10 2921.95 1784.99   1
  -7  -1 -13 -1706.0 2417.47   1
   0  -8 -14 2022.74 2091.85   1
 -11  -3  -3 1002.78 2349.63   1
 -11  -3   3 22.8200 2090.57   1
 -11   3  -3 133.250 2019.46   1
 -11   3   3 1994.96 2291.38   1
   1 -15   1 89.6000 295.800   1
  -1 -15  -1 -284.09 1694.10   1
   1 -15   1 -422.22 1789.24   1
  -1 -15  -1 151.980 663.370   1
   1 -15  -1 165.750 485.570   1
  -1 -15   1 595.140 790.280   1
   1 -15  -1 -879.05 1708.54   1
  -6  12  -5 2544.84 3117.68   1
  -6 -12  -5 2331.51 2303.66   1
   6 -12  -5 2629.49 1866.82   1
  -6  12   5 2548.39 1929.96   1
  -6 -12   5 2902.51 3325.95   1
  -6 -12  -5 4408.62 4176.58   1
  -6   8  11 9100.48 3764.45   1
  -6  -8 -11 12022.8 3369.32   1
   6  -8 -11 4146.74 2687.58   1
  -6  -8 -11 3528.08 4570.60   1
  -5  -8 -12 6973.33 5959.63   1
   5  -8 -12 2871.04 2010.89   1
  -5  -8 -12 2488.61 1714.33   1
   1 -14   6 181.360 911.230   1
   1 -14  -6 461.570 913.790   1
  -1 -14   6 619.250 1176.25   1
  -1 -14  -6 -495.37 1658.61   1
   1 -14  -6 500.870 1119.92   1
  -1 -14  -6 711.920 1022.23   1
 -10   0   8 12730.8 4743.61   1
 -10   0  -8 19134.2 4273.99   1
 -11   4   1 1060.65 2382.61   1
 -11   4  -1 190.430 1807.73   1
 -11  -4   1 -1056.2 2371.64   1
 -11  -4  -1 742.600 2150.01   1
   8  -7  -9 806.630 584.030   1
  -8   7  -9 1234.93 2088.07   1
  -8  -7  -9 1067.01 1917.33   1
  -8   7   9 -97.530 1831.73   1
  -8  -7  -9 -262.30 3226.05   1
  -3  -7 -14 6887.03 1941.84   1
   3  -7 -14 7154.24 1959.26   1
   0 -15   2 -248.59 625.190   1
   0 -15  -2 -262.85 2404.93   1
   0 -15  -2 635.460 685.320   1
   0 -15   2 1214.98 1588.40   1
   3  -5 -15 17133.4 3170.11   1
  -3  -5 -15 16499.2 8162.21   1
 -11   2   4 4346.70 1889.20   1
 -11  -2   4 2796.34 1973.54   1
 -11  -2  -4 8879.68 4189.45   1
 -11   2  -4 4022.23 2058.08   1
   5 -12  -7 11671.8 3567.92   1
  -5 -12  -7 5785.16 5224.58   1
  -5  12  -7 10765.2 9712.09   1
  -5 -12  -7 15313.2 8251.16   1
  -8  -4 -11 876.840 2263.17   1
  -8   4 -11 1042.82 1586.22   1
  -8  -4 -11 1772.32 3983.91   1
  -9  -2 -10 1162.16 2300.21   1
  -9   2 -10 -489.01 2063.82   1
  -6  -5 -13 925.410 3478.93   1
  -6  -5 -13 501.930 2143.40   1
   6  -5 -13 1519.56 1076.05   1
 -10   1   8 -107.27 1596.26   1
 -10  -1  -8 769.830 2077.25   1
 -10   1  -8 104.680 1770.11   1
  -4 -10 -11 5971.06 2333.21   1
  -4 -10 -11 13346.4 3210.93   1
   4 -10 -11 5820.55 4219.92   1
   4 -10 -11 14281.5 3713.78   1
   2 -11 -11 17284.0 3561.26   1
   2 -11 -11 5192.68 1539.15   1
  -2 -11 -11 5272.25 4273.94   1
  -2 -11 -11 12150.9 2922.60   1
  -2  -9 -13 620.580 2066.54   1
   2  -9 -13 611.860 1619.86   1
  -2  -9 -13 1413.44 1039.64   1
  -8   8   8 454.780 1064.76   1
  -8  -8  -8 723.380 2019.29   1
  -8   8  -8 1443.57 2963.05   1
  -8  -8  -8 450.280 3445.62   1
   8  -8  -8 143.520 402.550   1
  -4  -9 -12 39568.7 5592.71   1
   4  -9 -12 33128.1 4694.89   1
  -4  -9 -12 34929.8 5903.76   1
  -1 -12 -10 614.640 1321.44   1
   1 -12 -10 1715.62 1266.58   1
   1 -12 -10 1415.96 1565.51   1
  -1 -12 -10 1041.45 998.980   1
  -1  -8 -14 734.740 845.890   1
   1  -8 -14 789.440 1450.38   1
  -3   0 -16 5363.57 3589.85   1
  -2 -13  -8 4569.33 2062.54   1
   2 -13  -8 4164.52 2399.79   1
  -2 -13  -8 6493.07 6259.00   1
   2 -13  -8 6470.64 3803.15   1
  10  -5  -6 3050.01 1604.75   1
 -10  -5  -6 1105.44 2070.70   1
 -10   5   6 2747.69 2503.51   1
 -10   5  -6 1707.31 1133.05   1
   7 -12   0 2568.92 1675.16   1
  -7  12   0 3174.51 3258.05   1
  -7 -12   0 1754.14 2309.04   1
   2  -3 -16 23719.2 5336.72   1
  -2  -3 -16 20826.2 5084.26   1
   0  -4 -16 197989. 4340.70   1
  -9   9  -3 -122.51 1947.17   1
   9  -9  -3 836.650 800.860   1
  -9   9   3 459.050 2086.40   1
  -9  -9   3 20.9800 2462.36   1
  -9  -9  -3 1693.36 3434.22   1
   1 -15  -2 264.880 699.710   1
   1 -15   2 520.670 355.470   1
  -1 -15  -2 524.790 772.350   1
  -1 -15  -2 380.020 1400.82   1
   1 -15   2 365.760 1094.75   1
   1 -15  -2 806.780 998.010   1
  -1 -15   2 -211.36 1299.25   1
  -3  -1 -16 12318.8 4674.72   1
  -3   1 -16 6693.50 4313.73   1
  -6  -2 -14 3564.34 3921.92   1
  -7 -12  -1 6269.52 3943.80   1
  -7 -12   1 3183.28 2453.76   1
  -7  12   1 1974.48 2268.08   1
   7 -12  -1 2423.50 1288.11   1
   7 -12   1 2540.91 1708.46   1
  -7  12  -1 2189.42 2246.92   1
   6 -10  -9 2604.44 1707.45   1
  -6 -10  -9 602.630 3111.65   1
  -6  10   9 1572.05 2207.65   1
  -6 -10  -9 4454.93 2862.92   1
 -11   4   2 546.730 2458.51   1
 -11  -4  -2 574.040 2584.51   1
 -11  -4   2 -222.45 2211.50   1
 -11   4  -2 -193.83 2122.38   1
  -7  -2 -13 341.210 2942.08   1
  -7  -5 -12 946.780 2131.49   1
  -7  -5 -12 3667.44 4619.57   1
  -9   6  -8 1037.08 2203.73   1
  -9   6   8 -417.29 1927.64   1
   9  -6  -8 358.640 595.650   1
  -9  -6  -8 189.000 3016.14   1
  -9  -6  -8 1914.03 2662.46   1
   2  -6 -15 832.310 1658.20   1
  -2  -6 -15 1255.85 1698.96   1
 -10   7  -3 1769.60 2954.74   1
 -10   7   3 -536.80 1946.00   1
  10  -7  -3 -65.790 349.680   1
 -10  -7  -3 191.160 2310.26   1
 -10  -7   3 1462.66 2437.33   1
  -8   6  10 4036.83 2955.97   1
   8  -6 -10 2831.05 1838.41   1
  -8  -6 -10 5734.16 3032.66   1
  -8   6 -10 4634.46 2783.36   1
  -8  -6 -10 1182.17 2168.96   1
  -9  -7  -7 2224.84 3698.42   1
  -9   7  -7 85.8300 1408.39   1
   9  -7  -7 925.570 770.940   1
  -9   7   7 1856.77 1607.61   1
  -9  -7  -7 1805.07 1989.75   1
 -10   6  -5 1024.92 2009.97   1
 -10   6   5 588.430 2305.85   1
  10  -6  -5 56.9400 326.880   1
 -10  -6  -5 1276.42 2233.01   1
 -10  -6   5 1090.79 1712.16   1
 -10  -4  -7 489.420 1990.93   1
 -10  -4   7 173.070 1292.31   1
 -10   4  -7 -92.100 2050.58   1
 -10   4   7 2076.89 2412.66   1
   1  -4 -16 151320. 18984.4   1
  -1  -4 -16 162918. 5833.14   1
  -5   0 -15 -1473.7 2907.79   1
   4 -14   3 6038.93 3078.02   1
  -4  14  -3 4520.31 2550.88   1
  -4 -14  -3 2896.16 1098.05   1
  -4 -14  -3 6768.83 4459.76   1
  -4 -14   3 5862.39 2865.11   1
   4 -14  -3 5555.79 3297.61   1
   4  -4 -15 1709.33 1906.39   1
  -4  -4 -15 1053.51 2296.06   1
  -8   0 -12 461.620 2051.85   1
  -6  13   0 11623.9 5904.31   1
  -6 -13   0 13238.3 6588.36   1
   6 -13   0 10534.9 3398.35   1
 -10   2   8 941.340 1876.69   1
 -10   2  -8 2063.40 2326.83   1
 -10  -2  -8 1199.60 2028.37   1
 -11   0  -5 -648.79 1839.93   1
 -11   0   5 -1209.0 1938.08   1
   6  -7 -12 2713.66 2506.67   1
  -6  -7 -12 9955.05 3218.69   1
  -6  -7 -12 2330.42 3274.07   1
   2 -15   0 137396. 17209.3   1
  -2 -15   0 114514. 14257.4   1
   2 -15   0 98545.8 11937.6   1
   5  -5 -14 -55.000 1181.90   1
  -5  -5 -14 1350.83 2066.92   1
  -5 -11  -9 446.440 860.900   1
  -5 -11  -9 -383.36 1842.58   1
   5 -11  -9 -456.61 863.410   1
  -5   1 -15 121.210 2093.46   1
  -5  -1 -15 1155.52 2871.23   1
   4 -11 -10 1376.78 1447.43   1
  -4 -11 -10 672.870 1558.88   1
   4 -11 -10 539.180 879.000   1
  -4 -11 -10 689.050 2462.92   1
  -8  10   5 1281.51 1327.52   1
  -8  10  -5 419.450 2050.55   1
  -8 -10   5 1406.54 1752.94   1
  -8 -10  -5 -1055.1 2924.29   1
   8 -10  -5 494.570 496.830   1
  -8 -10  -5 819.210 2545.23   1
   0 -15   3 695.290 1820.95   1
   0 -15  -3 -855.16 2135.43   1
   0 -15  -3 148.720 805.440   1
   3 -14  -5 1880.11 1852.19   1
  -3 -14  -5 1431.24 1627.64   1
  -3 -14   5 227.170 1314.63   1
   3 -14  -5 597.890 589.550   1
   3 -14   5 374.170 823.220   1
  -3 -14  -5 616.280 1148.19   1
  -6 -13  -1 1090.05 1809.04   1
  -6 -13   1 -22.700 2075.00   1
   6 -13  -1 252.250 462.660   1
  -6  13  -1 1024.75 1629.03   1
  -6  13   1 876.570 1528.85   1
   6 -13   1 438.260 543.050   1
   8 -11   0 11344.3 2442.84   1
  -8  11   0 8311.22 6152.27   1
  -8 -11   0 13438.3 9205.38   1
  -8  -1 -12 151.950 2537.16   1
  -7 -12  -2 11152.1 9089.19   1
  -7 -12   2 4238.12 7961.79   1
  -7  12  -2 5851.41 3323.35   1
  -7  12   2 5548.17 4590.74   1
   7 -12   2 7388.28 3253.94   1
   7 -12  -2 6484.18 3399.66   1
  -2 -15   1 564.550 793.250   1
   2 -15  -1 602.430 591.000   1
   2 -15   1 1448.23 1783.00   1
  -2 -15  -1 784.920 1296.28   1
  -2 -15  -1 377.750 459.410   1
   2 -15  -1 280.550 506.120   1
   2 -15   1 289.100 845.710   1
  -7  -8 -10 -1694.3 2260.58   1
   7  -8 -10 3382.13 2203.24   1
  -7  -8 -10 7714.91 5630.57   1
  -7   8  10 4754.70 3784.87   1
  -4  -8 -13 623.160 1680.73   1
  -4  -8 -13 1238.37 1893.91   1
   4  -8 -13 407.730 727.530   1
 -11   1  -5 -232.77 2017.52   1
 -11  -1   5 -696.43 1809.36   1
 -11   1   5 595.430 3207.46   1
 -11  -1  -5 654.640 2096.86   1
  -2 -14  -6 2768.89 1627.04   1
  -2 -14   6 4313.18 2245.79   1
  -2 -14  -6 5016.29 5166.21   1
   2 -14   6 4029.76 714.930   1
   2 -14   6 8034.51 4757.47   1
   2 -14  -6 7513.18 7410.60   1
   2 -14  -6 2988.25 3045.09   1
  -3   2 -16 3207.64 1982.60   1
  -3  -2 -16 13542.7 7540.74   1
 -11   3   4 -551.67 2018.88   1
 -11  -3  -4 -828.87 2296.73   1
 -11  -3   4 -767.67 2089.86   1
 -11   3  -4 -679.72 1915.91   1
   5 -13   5 691.810 1101.54   1
   5 -13  -5 437.500 483.900   1
  -5 -13  -5 -364.29 1320.75   1
  -5 -13  -5 -566.52 2332.86   1
  -5 -13   5 140.170 1534.65   1
  -5  13  -5 1055.00 1863.99   1
  -5  13   5 -130.91 1908.50   1
  -8 -11  -1 -782.01 2680.90   1
  -8 -11   1 1420.31 2112.69   1
  -8  11  -1 1029.04 829.730   1
  -8  11   1 750.650 1465.42   1
   8 -11   1 -11.860 809.170   1
   8 -11  -1 611.670 572.300   1
   8  -9  -7 1690.41 1258.90   1
  -8  -9  -7 1480.41 4757.08   1
  -8   9  -7 2378.76 2746.06   1
  -8  -9  -7 2784.57 2910.30   1
  -8   9   7 2447.32 2678.90   1
  -5  -7 -13 112.550 2426.92   1
  -5  -7 -13 556.900 1878.39   1
   5  -7 -13 238.350 1040.19   1
  -9   3 -10 5011.18 2711.07   1
  -9  -3 -10 4551.17 2970.11   1
  -9  -5  -9 630.680 2050.85   1
  -9   5  -9 -271.45 2255.19   1
  -9   5   9 -306.58 1576.81   1
  -9  -5  -9 -708.67 2545.75   1
  -7  -9  -9 1431.57 1838.63   1
  -7   9   9 2935.19 2490.23   1
  -7   9  -9 1527.16 2658.40   1
  -7  -9  -9 -463.92 2520.77   1
   7  -9  -9 528.320 446.320   1
   1 -15   3 1586.28 1901.74   1
   1 -15  -3 428.730 866.900   1
  -1 -15  -3 352.620 2005.54   1
  -1 -15  -3 -320.24 829.040   1
   1 -15  -3 -153.06 787.320   1
   1 -15   3 200.250 630.580   1
  -1 -15   3 900.040 1687.87   1
   2 -12 -10 1985.96 1619.22   1
  -2 -12 -10 4863.64 5227.05   1
  -2 -12 -10 3070.12 2286.52   1
   2 -12 -10 3966.55 2271.59   1
  -2  -8 -14 2285.07 2071.35   1
   2  -8 -14 1106.93 1521.87   1
 -11  -4   3 -322.14 2182.69   1
 -11  -4  -3 1260.91 1769.26   1
 -11   4  -3 96.0500 2164.97   1
 -11   4   3 -514.39 1809.55   1
  11  -4  -3 417.190 562.600   1
   6 -13   2 144.270 307.400   1
   6 -13  -2 298.470 618.290   1
  -6 -13  -2 751.130 2512.48   1
  -6 -13   2 104.750 2156.38   1
  -6  13  -2 1430.30 1210.67   1
  -6  13   2 665.980 1130.30   1
  -6  -3 -14 371.000 2092.17   1
  -5  -2 -15 1249.93 2790.05   1
  -9   8  -6 160.020 2273.37   1
   9  -8  -6 240.750 411.130   1
  -9  -8  -6 1186.26 2281.44   1
  -9  -8  -6 1412.78 2414.14   1
  -9  -8   6 -412.43 1785.13   1
  -9   8   6 529.530 1792.96   1
   2 -15  -2 3838.19 2809.03   1
   2 -15   2 3745.29 3486.45   1
  -2 -15   2 3783.88 2577.17   1
   2 -15  -2 1587.05 1453.28   1
  -2 -15  -2 1211.59 1322.53   1
   2 -15   2 1846.48 1560.63   1
  -2 -15  -2 3307.99 2285.89   1
  -7   7  11 2565.91 2778.45   1
  -7  -7 -11 4342.48 2431.90   1
  -7  -7 -11 885.660 2365.97   1
   7  -7 -11 1946.53 1015.59   1
  -7  -3 -13 -806.41 2421.83   1
   9  -9  -4 2627.15 1451.14   1
  -9  -9  -4 3742.90 2878.20   1
  -9  -9   4 2210.97 1795.37   1
  -9   9  -4 2427.29 2491.26   1
  -9   9   4 1959.36 1803.51   1
  -8  -2 -12 -682.96 1936.76   1
  -8  -2 -12 258.200 2041.81   1
   3 -10 -12 4991.43 1514.15   1
   3 -10 -12 6187.98 5183.45   1
  -3 -10 -12 7113.45 2041.25   1
  -3 -10 -12 9286.43 3009.62   1
 -11   2   5 -917.06 2312.69   1
 -11  -2   5 658.260 1748.42   1
 -11  -2  -5 659.210 2376.38   1
 -11   2  -5 1033.39 2571.13   1
   8 -11  -2 4748.09 1777.99   1
  -8 -11  -2 8176.39 3622.62   1
  -8 -11   2 3343.61 5266.46   1
  -8  11  -2 4349.39 3679.62   1
  -8  11   2 3423.90 2749.81   1
 -11  -5   0 1523.37 2716.59   1
 -11   5   0 1365.26 1874.32   1
  -7 -11  -6 1296.33 1880.98   1
   7 -11  -6 4179.49 2024.20   1
  -7  11  -6 5196.86 3928.86   1
  -7  11   6 3626.37 2557.12   1
  -7 -11  -6 5056.63 2672.00   1
   2  -4 -16 47420.0 6371.65   1
  -2  -4 -16 54486.8 8070.95   1
   0 -13  -9 690.170 1290.49   1
   0 -13  -9 937.290 1442.13   1
   0  -7 -15 1337.04 887.480   1
 -10  -7   4 -372.08 2047.07   1
 -10  -7  -4 -888.24 2149.54   1
 -10   7   4 -1726.3 1677.76   1
  10  -7  -4 -47.960 642.550   1
 -10   7  -4 309.180 1293.69   1
 -10  -3  -8 636.580 2605.95   1
 -10   3  -8 -514.78 2053.52   1
 -10   3   8 2143.83 1512.06   1
  -6 -12  -6 4968.97 2192.12   1
   6 -12  -6 15756.2 3917.76   1
  -6  12  -6 18380.8 4248.04   1
  -6 -12  -6 30468.1 5487.07   1
  -6  12   6 14985.6 10102.7   1
   0 -14  -7 38883.6 5871.95   1
   0 -14  -7 24980.0 3394.46   1
 -11   5  -1 -444.06 2212.33   1
 -11   5   1 602.090 989.550   1
 -11  -5  -1 937.030 2167.34   1
 -11  -5   1 17.6600 1875.40   1
  -7 -12  -3 2928.56 2179.57   1
  -7 -12   3 1351.13 1682.50   1
   7 -12   3 1544.77 1221.03   1
   7 -12  -3 2304.65 1043.97   1
  -7  12  -3 1295.38 1403.30   1
  -7  12   3 1515.62 1571.84   1
  -6 -11  -8 171.570 1302.83   1
  -6  11   8 -131.93 1869.31   1
   6 -11  -8 201.820 455.680   1
  -6 -11  -8 312.560 2098.39   1
  -6  11  -8 -129.00 2044.45   1
  -4 -14  -4 1482.48 1148.71   1
  -4 -14   4 2641.86 2665.76   1
   4 -14  -4 1435.28 959.110   1
  -4 -14  -4 1319.43 1458.76   1
   4 -14   4 1880.81 1463.00   1
  -8  -5 -11 1056.78 3047.95   1
  -8  -5 -11 8686.99 3325.73   1
   3 -11 -11 6844.62 5171.37   1
   3 -11 -11 2081.97 1951.40   1
  -3 -11 -11 6675.36 4588.90   1
  -3 -11 -11 2741.39 2052.22   1
   3  -9 -13 -128.30 1071.95   1
  -3  -9 -13 761.690 1689.95   1
  -3  -9 -13 999.000 1581.25   1
  -4 -13  -7 -77.590 1509.37   1
  -4  13  -7 402.400 1799.09   1
   4 -13  -7 403.110 1243.51   1
  -4 -13  -7 929.010 1656.52   1
   4 -13  -7 2656.25 2294.57   1
   3 -13   8 747.630 574.050   1
  -3 -13  -8 750.320 1610.98   1
   3 -13  -8 926.870 1201.30   1
  -3 -13  -8 -138.00 1579.76   1
   3 -13  -8 1195.91 1573.62   1
  -3  -3 -16 15354.4 3343.43   1
   1 -13  -9 334.910 757.380   1
  -1 -13  -9 374.820 1109.42   1
   1 -13  -9 501.800 998.360   1
  -1 -13  -9 439.490 1278.08   1
   0 -15   4 1431.51 1422.89   1
   0 -15  -4 666.830 745.320   1
   0 -15  -4 966.880 1490.80   1
 -10   8   0 4619.97 3208.10   1
 -10  -8   0 3835.92 2481.23   1
   1  -7 -15 4531.79 3065.45   1
  -1  -7 -15 5616.39 2979.36   1
   0  -5 -16 1488.29 2018.09   1
  -1 -14  -7 16244.1 5698.60   1
   1 -14  -7 20689.0 4628.56   1
   1 -14   7 16324.6 6950.79   1
   1 -14  -7 14369.4 2119.95   1
  -1 -14  -7 16490.6 5691.85   1
  -7 -10  -8 -1139.6 2504.60   1
   7 -10  -8 -147.45 656.730   1
  -7  10   8 -163.58 2069.83   1
  -7  10  -8 1089.40 2167.21   1
  -7 -10  -8 -322.06 2521.13   1
 -10  -8   1 1218.20 2968.87   1
 -10   8   1 418.300 937.920   1
 -10   8  -1 4051.36 4609.84   1
 -10  -8  -1 1665.70 2340.11   1
  -6 -13  -3 -416.71 2815.68   1
  -6 -13   3 -776.90 1654.17   1
  -6  13  -3 1007.26 1529.55   1
  -6  13   3 249.710 1846.85   1
   6 -13   3 322.060 556.680   1
   6 -13  -3 326.830 333.660   1
 -11   5   2 3418.31 1942.41   1
 -11   5  -2 2757.30 2145.60   1
 -11  -5  -2 4822.27 3211.71   1
 -11  -5   2 6540.06 3706.57   1
  -3  -6 -15 2964.26 2160.52   1
   3  -6 -15 -707.97 1636.75   1
   4 -12  -9 1826.17 1357.43   1
  -4 -12  -9 1430.22 2071.02   1
  -4 -12  -9 2806.14 2359.50   1
   4 -12  -9 4179.80 3919.89   1
   2 -15  -3 -34.660 705.190   1
  -2 -15  -3 1003.00 1169.18   1
   2 -15  -3 472.720 1039.33   1
   2 -15   3 988.710 1463.28   1
  -2 -15  -3 1264.40 1860.62   1
  -2 -15   3 794.980 1147.83   1
   2 -15   3 -190.52 639.280   1
  -5 -14   0 947.890 1975.64   1
   5 -14   0 162.970 390.830   1
  -5  14   0 -764.41 1789.82   1
  -6  -6 -13 2028.81 1998.76   1
   6  -6 -13 192.720 600.610   1
  -6  -6 -13 1754.88 2262.41   1
  -1 -15   4 3302.52 1914.04   1
   1 -15   4 3418.69 2999.97   1
   1 -15  -4 5688.88 4424.42   1
  -1 -15  -4 3509.19 2550.33   1
   1 -15  -4 2261.92 1410.72   1
  -1 -15  -4 2072.25 1484.69   1
   8 -11  -3 1572.35 1094.66   1
  -8  11   3 1480.23 1264.64   1
  -8  11  -3 -156.12 1937.33   1
  -8 -11   3 1398.93 2143.64   1
  -8 -11  -3 2891.25 4283.57   1
 -10   5  -7 837.010 2023.36   1
 -10  -5  -7 -31.390 1632.98   1
 -10   5   7 230.040 1871.84   1
  -1  -5 -16 -129.69 1677.19   1
   1  -5 -16 578.010 1751.00   1
  -5  -3 -15 930.010 3163.32   1
  11  -4  -4 1099.62 1111.06   1
 -11   4   4 236.840 1890.81   1
 -11   4  -4 2236.65 2975.37   1
 -11  -4   4 1288.61 2150.08   1
 -11  -4  -4 1023.50 3045.08   1
   4  -7 -14 2559.00 1545.85   1
  -4  -7 -14 1652.82 1710.65   1
  -5  14  -1 5434.62 4519.87   1
   5 -14  -1 6551.20 3610.72   1
   5 -14   1 6441.06 1329.89   1
  -5  14   1 6316.64 2287.44   1
  -5 -14  -1 6161.28 7552.37   1
  -5 -14   1 5780.49 5595.82   1
 -10  -6   6 639.180 983.430   1
 -10   6   6 59.4000 1916.34   1
 -10   6  -6 1722.19 2178.17   1
  10  -6  -6 605.500 364.690   1
 -10  -6  -6 1474.07 2100.64   1
   4  -5 -15 5069.55 4714.92   1
  -4  -5 -15 6583.69 3278.37   1
  -9   4 -10 1565.05 2124.92   1
  -9  -4 -10 1474.77 3371.90   1
  -9  -4 -10 2608.98 2324.26   1
   3 -15   0 172371. 36641.2   1
   3 -15   0 106172. 22429.7   1
  -3 -15   0 117737. 25070.0   1
  -8  -3 -12 1006.68 2394.06   1
  -8  -3 -12 1503.84 2351.60   1
 -11   3  -5 1698.55 2337.53   1
 -11  -3   5 676.610 1653.96   1
 -11   3   5 2379.87 2706.44   1
 -11  -3  -5 1399.95 1975.35   1
   0 -10 -13 7560.72 3957.74   1
  -5 -12  -8 1912.83 3143.13   1
   5 -12  -8 296.510 389.390   1
  -5 -12  -8 876.010 2282.33   1
 -11   0   6 1303.31 2613.91   1
 -11   0  -6 40.4000 1497.33   1
   0 -11 -12 -197.92 1413.92   1
   0 -11 -12 611.150 1405.75   1
  -9  10   0 390.780 764.510   1
  -9 -10   0 3582.10 2455.93   1
  -4   0 -16 1061.59 2887.71   1
   3 -15   1 1109.57 1472.47   1
  -3 -15  -1 765.930 845.390   1
   3 -15  -1 1415.84 2225.01   1
  -3 -15   1 1039.47 1406.26   1
   3 -15   1 238.300 460.930   1
   3 -15  -1 -151.10 685.370   1
  -7  -6 -12 2714.29 2994.36   1
   7  -6 -12 471.970 745.590   1
  -7  -6 -12 5167.80 5692.01   1
  -8  10  -6 4642.57 2760.90   1
  -8  10   6 4004.63 4227.75   1
   8 -10  -6 4521.83 2600.39   1
  -8 -10  -6 2036.46 2054.02   1
  -8 -10  -6 7509.92 2878.76   1
   3 -14  -6 4253.74 2464.08   1
   3 -14   6 4432.49 1490.57   1
  -3 -14  -6 4142.17 1669.63   1
   3 -14  -6 5100.86 3947.49   1
  -3 -14   6 4231.14 2556.66   1
  -3 -14  -6 4200.86 3546.41   1
 -10  -8  -2 1968.89 2408.49   1
 -10  -8   2 1122.17 2164.64   1
 -10   8  -2 1689.44 1848.34   1
 -10   8   2 610.370 1933.83   1
 -10   0  -9 -766.20 2368.16   1
 -11   1   6 2187.44 2134.98   1
 -11  -1  -6 4668.88 2605.02   1
 -11   1  -6 1558.11 1680.56   1
 -11  -1   6 1579.72 1578.49   1
   0  -1 -17 308.080 2021.93   1
  -9 -10  -1 176.260 2170.21   1
  -9 -10   1 1313.41 3211.97   1
  -9  10  -1 838.250 1334.55   1
  -9  10   1 1925.39 1910.40   1
   9 -10  -1 535.890 452.380   1
  -9   0 -11 1398.47 2314.10   1
  -6  -4 -14 5165.04 3701.94   1
  -7  -4 -13 63.7100 1975.92   1
  -7  -4 -13 -267.99 1977.17   1
  -4   1 -16 3257.82 2941.13   1
  -4  -1 -16 2337.28 1786.33   1
  -5  13  -6 -768.34 1859.72   1
  -5 -13  -6 222.230 1763.33   1
   5 -13  -6 -34.260 888.920   1
  -5 -13  -6 746.460 2007.92   1
   1 -10 -13 3185.85 2476.88   1
  -1 -10 -13 2457.21 2330.73   1
  -1 -10 -13 3716.70 2637.47   1
  -7  12   4 -86.370 1305.22   1
  -7 -12   4 57.4400 2069.77   1
  -7 -12  -4 857.290 2250.38   1
  -7  12  -4 269.280 1256.77   1
   7 -12  -4 510.460 671.310   1
  -1   0 -17 -461.63 2850.05   1
  -1 -11 -12 1402.63 1782.04   1
  -1 -11 -12 277.880 652.570   1
   1 -11 -12 -164.87 1307.64   1
   1 -11 -12 213.440 1265.18   1
  -5 -14   2 16476.7 4036.42   1
  -5  14  -2 11075.3 10017.3   1
  -5  14   2 11320.3 8107.80   1
   5 -14   2 13892.3 2468.72   1
   5 -14  -2 12949.1 2264.17   1
  -5 -14  -2 12348.2 10819.5   1
 -10  -1  -9 1275.54 1175.86   1
 -10   1  -9 824.360 2088.04   1
  -5  -6 -14 1552.99 3127.28   1
   5  -6 -14 2120.73 1920.03   1
  -3 -12 -10 3072.38 2122.31   1
   3 -12 -10 2300.17 2237.03   1
   3 -12 -10 2010.58 1381.42   1
  -3 -12 -10 1755.13 1662.43   1
  -9  -9   5 -293.54 1879.52   1
  -9  -9  -5 3058.26 3323.49   1
   9  -9  -5 426.950 513.310   1
  -9   9   5 283.820 1852.73   1
  -9   9  -5 -573.87 2216.97   1
  -8  -8  -9 290.020 3434.53   1
   8  -8  -9 -57.470 614.420   1
  -8   8  -9 -28.230 2354.57   1
  -8  -8  -9 -538.25 2082.55   1
  -8   8   9 2345.29 2369.59   1
   3  -8 -14 3260.59 2805.06   1
  -3  -8 -14 4959.48 2514.86   1
  -9   1 -11 998.460 1645.09   1
  -9  -1 -11 4650.06 3618.16   1
   2 -13  -9 484.780 758.580   1
   2 -13  -9 -193.48 1540.05   1
  -2 -13  -9 967.890 1188.20   1
  -2 -13  -9 -76.990 1088.96   1
 -11  -5  -3 677.650 2182.12   1
 -11  -5   3 -1698.7 2188.03   1
 -11   5  -3 1156.27 2078.68   1
 -11   5   3 515.420 1284.89   1
  11  -5  -3 -178.02 645.070   1
  -9  -7  -8 -165.06 2543.12   1
   9  -7  -8 1774.23 1025.16   1
  -9  -7  -8 1745.46 1854.66   1
  -9   7   8 1481.68 2036.54   1
  -9   7  -8 3520.22 2868.32   1
   2  -7 -15 13467.1 3091.58   1
  -2  -7 -15 12786.4 3227.78   1
 -10   4  -8 6394.41 3068.80   1
 -10  -4  -8 8250.40 3186.43   1
 -10   4   8 2340.50 3321.98   1
  -1   1 -17 1240.26 1530.69   1
  -1  -1 -17 100.840 1991.35   1
  -2 -14  -7 3582.75 1445.07   1
  -2 -14  -7 2219.60 2115.93   1
   2 -14  -7 4697.83 3451.79   1
   2 -14   7 4235.82 4797.30   1
   2 -14  -7 4343.89 2877.51   1
   3 -15   2 1091.48 959.850   1
   3 -15   2 3501.84 2730.08   1
   3 -15  -2 3365.10 2961.02   1
  -3 -15   2 1394.82 1084.99   1
   3 -15  -2 660.640 466.500   1
  -3 -15  -2 1733.52 2166.48   1
  -8   7 -10 89.1500 956.520   1
  -8  -7 -10 2714.41 2242.67   1
  -8   7  10 1327.23 1777.36   1
   8  -7 -10 946.420 705.890   1
  -8  -7 -10 501.480 3375.63   1
  10  -7  -5 379.050 506.550   1
 -10   7   5 -102.50 1506.55   1
 -10   7  -5 -554.90 1993.98   1
 -10  -7  -5 217.590 2027.67   1
 -10  -7   5 -143.62 1777.60   1
   0  -9 -14 -278.24 1402.14   1
  -5 -10 -11 3895.78 1542.98   1
   5 -10 -11 7865.98 5790.92   1
  -5 -10 -11 18408.7 4032.36   1
   5 -10 -11 31863.3 6110.05   1
  -9  10  -2 380.530 1910.50   1
  -9  10   2 -403.21 2022.03   1
   9 -10  -2 798.000 566.010   1
  -9 -10  -2 2346.91 1501.66   1
  -9 -10   2 1339.44 2560.11   1
  -6  -9 -11 -158.11 2155.21   1
   6  -9 -11 233.850 675.910   1
  -6  -9 -11 347.230 1800.55   1
  -5  -9 -12 6529.37 3923.02   1
  -5  -9 -12 12421.4 3754.24   1
   5  -9 -12 5115.35 4152.71   1
  -4 -14   5 1978.16 3774.10   1
  -4 -14  -5 3453.69 2616.97   1
  -4  14  -5 2816.43 1869.23   1
  -4 -14  -5 1641.88 1295.90   1
   4 -14  -5 3249.29 1915.28   1
   4 -14   5 3026.33 2098.20   1
   4 -14  -5 3736.21 3276.56   1
  -9  -6  -9 1279.50 2833.30   1
  -9   6  -9 633.480 2197.67   1
   9  -6  -9 712.980 539.390   1
  -9   6   9 -217.99 1048.94   1
  -9  -6  -9 71.6200 3055.91   1
   0 -12 -11 24007.9 4133.59   1
   0 -12 -11 18857.8 3614.08   1
 -11  -2  -6 1946.14 2247.77   1
 -11   2  -6 505.250 1850.21   1
 -11  -2   6 -37.110 1501.27   1
 -11   2   6 856.360 1799.32   1
   0  -2 -17 1073.19 2679.84   1
  -6  13   4 1535.24 2227.58   1
   6 -13   4 -2.8200 647.690   1
   6 -13  -4 522.240 894.610   1
  -6 -13   4 -36.490 1840.69   1
  -6 -13  -4 1505.58 1649.40   1
  -6  13  -4 364.690 996.850   1
   3  -4 -16 4475.77 2535.33   1
  -3  -4 -16 4252.05 2419.30   1
  -2 -15  -4 3048.72 2816.78   1
   2 -15   4 6478.92 4100.42   1
   2 -15  -4 7504.67 5641.71   1
  -2 -15   4 6438.96 3604.77   1
  -2 -15  -4 7382.72 4707.32   1
   2 -15  -4 4527.91 2858.52   1
   2 -15   4 5479.05 1992.01   1
  -4  -2 -16 10832.6 5274.92   1
   2  -5 -16 534.500 1008.46   1
  -2  -5 -16 2153.86 3224.41   1
   0 -15   5 186.930 1535.97   1
   0 -15  -5 1502.77 1747.82   1
   0 -15  -5 63.6100 871.540   1
 -10   8   3 1361.53 1692.88   1
 -10  -8   3 1152.29 2903.53   1
 -10  -8  -3 1481.30 2248.01   1
  10  -8  -3 341.370 483.690   1
 -10   8  -3 1192.05 1913.46   1
  -8  11   4 5081.67 3880.15   1
  -8  11  -4 5938.24 3246.97   1
   8 -11  -4 5313.00 3059.73   1
  -8 -11   4 8655.22 3098.77   1
  -8 -11  -4 6562.74 2877.85   1
 -10   2  -9 446.980 2311.16   1
 -10  -2  -9 1832.32 2663.54   1
  -8   9  -8 2189.67 1782.30   1
  -8   9   8 4150.66 2384.23   1
   8  -9  -8 3088.77 2388.42   1
  -8  -9  -8 -266.48 3066.28   1
  -8  -9  -8 7443.97 2773.39   1
  -9   8   7 1280.01 2640.96   1
  -9   8  -7 -617.39 2210.68   1
   9  -8  -7 601.480 475.850   1
  -9  -8  -7 1431.24 2623.12   1
  -9  -8  -7 899.610 2257.69   1
  -6 -10 -10 5209.59 2721.01   1
  -6 -10 -10 30879.5 6176.71   1
   6 -10 -10 11846.9 5453.66   1
  -9   2 -11 1228.71 2715.16   1
  -9  -2 -11 2814.53 3197.41   1
   1  -9 -14 -396.77 1413.47   1
  -1  -9 -14 1535.46 1387.47   1
   1 -12 -11 21001.5 3850.64   1
  -1 -12 -11 19541.0 3859.94   1
   1 -12 -11 17148.1 5894.15   1
  -1 -12 -11 20214.4 4241.23   1
  -1  -2 -17 -215.48 1982.89   1
   1  -2 -17 505.680 1543.98   1
  -6  -8 -12 1116.61 2805.82   1
  -6  -8 -12 3601.23 4338.78   1
   6  -8 -12 1606.01 1515.52   1
 -11  -6   0 39.2000 2020.53   1
 -11   6   0 300.110 2040.02   1
   5 -14   3 14413.2 2392.64   1
   5 -14  -3 14083.2 3313.11   1
  -5  14   3 12236.8 4010.05   1
  -5  14  -3 9170.13 6395.09   1
  -5 -14   3 15735.0 3504.76   1
  -5 -14  -3 18288.8 5737.36   1
  -5  -4 -15 2476.39 3255.46   1
   7 -11  -7 481.440 748.080   1
  -7 -11  -7 1949.14 1583.90   1
  -7 -11  -7 -19.340 1744.38   1
  -7  11  -7 2655.97 2886.97   1
  -7  11   7 1173.05 1147.22   1
  -1 -15  -5 248.230 821.060   1
   1 -15  -5 61.9200 765.910   1
  -1 -15  -5 715.960 1056.05   1
  -1 -15   5 336.350 787.200   1
   1 -15  -5 -378.18 1758.68   1
   1 -15   5 781.260 1539.00   1
  -6 -12  -7 3179.44 2369.57   1
   6 -12  -7 9652.40 5284.51   1
  -6  12   7 10190.7 2956.60   1
  -6  12  -7 7322.75 8464.80   1
  -6 -12  -7 16329.2 4019.89   1
  -8  -4 -12 165.980 2266.96   1
  -8  -4 -12 -49.230 3168.98   1
 -11   6   1 3191.32 1967.48   1
 -11  -6  -1 2190.50 2206.96   1
 -11  -6   1 851.180 1979.33   1
 -11   6  -1 1709.29 2179.27   1
 -11   4   5 467.930 2150.62   1
 -11   4  -5 -135.50 1963.17   1
 -11  -4   5 646.230 2428.08   1
 -11  -4  -5 266.230 1848.21   1
  -2 -10 -13 1003.23 2176.09   1
  -2 -10 -13 -68.400 1548.85   1
   2 -10 -13 394.610 1043.74   1
  -5 -11 -10 1005.61 1862.51   1
   5 -11 -10 -484.92 915.960   1
   5 -11 -10 1129.08 1130.43   1
  -5 -11 -10 -59.310 2189.97   1
  -4 -10 -12 117.900 952.580   1
   4 -10 -12 702.690 758.790   1
  -4 -10 -12 1814.94 1460.48   1
  -2   0 -17 1174.12 2674.05   1
  -2 -11 -12 510.820 998.110   1
   2 -11 -12 853.200 1126.81   1
  -2 -11 -12 434.000 1840.60   1
   2 -11 -12 986.520 652.910   1
  -3 -15  -3 562.430 1291.31   1
   3 -15  -3 -51.950 690.740   1
   3 -15   3 2568.90 1982.76   1
   3 -15  -3 1139.10 1655.40   1
  -3 -15  -3 762.800 971.600   1
  -3 -15   3 482.910 911.230   1
   3 -15   3 633.240 434.430   1
  -8  -6 -11 -97.090 2135.56   1
   5  -8 -13 -125.85 1160.74   1
  -5  -8 -13 450.490 1223.83   1
  -5  -8 -13 991.270 1595.14   1
  -9 -10  -3 1681.95 2392.27   1
  -9 -10   3 -15.520 2292.15   1
  -9  10  -3 640.200 1864.66   1
  -9  10   3 1196.74 1092.92   1
   9 -10  -3 882.720 609.720   1
  -2   1 -17 706.970 2200.09   1
  -2  -1 -17 203.360 2682.37   1
   0 -14  -8 35645.6 6624.66   1
   0 -14  -8 38179.7 8334.34   1
 -11   5   4 -755.21 1845.78   1
 -11  -5   4 1219.80 2293.59   1
 -11  -5  -4 -574.38 2606.39   1
  11  -5  -4 -13.930 168.280   1
 -11   5  -4 -402.69 1931.76   1
   0  -6 -16 5293.50 2366.73   1
  -9   5 -10 5475.48 2680.87   1
  -9  -5 -10 -456.16 2550.66   1
  -9  -5 -10 6943.07 3706.17   1
   4 -11 -11 3230.14 2310.32   1
  -4 -11 -11 955.610 1904.75   1
  -4 -11 -11 2680.75 3737.32   1
   4 -11 -11 1167.62 1049.58   1
  -7  -9 -10 2797.61 3743.03   1
   7  -9 -10 3644.91 2173.78   1
  -7   9  10 5243.65 5323.39   1
  -7  -9 -10 8292.83 5590.04   1
  -4  -9 -13 -677.37 1703.45   1
   4  -9 -13 643.780 794.360   1
  -4  -9 -13 -273.50 1716.13   1
  -7  -1 -14 32.5100 2263.46   1
 -11  -3   6 1408.92 1554.98   1
 -11   3  -6 1669.68 2612.34   1
 -11   3   6 1481.09 2670.41   1
   0  -3 -17 246.900 1529.00   1
  -4 -13  -8 -779.32 2155.47   1
   4 -13  -8 354.490 924.800   1
  -4 -13  -8 4.20000 1386.26   1
   4 -13  -8 -746.51 1758.68   1
   7 -12  -5 482.970 618.900   1
  -7  12   5 1415.93 1802.76   1
  -7 -12   5 -714.42 2084.31   1
  -7  12  -5 344.480 825.350   1
  -7 -12  -5 754.820 2490.15   1
 -11   6   2 -446.82 1770.86   1
 -11  -6   2 -52.250 1673.63   1
 -11  -6  -2 1958.51 2454.57   1
  11  -6  -2 292.750 581.960   1
 -11   6  -2 556.080 1976.53   1
  -7   8  11 2027.12 1502.21   1
  -7  -8 -11 277.710 2093.48   1
  -7  -8 -11 191.630 2045.54   1
   7  -8 -11 1383.97 911.190   1
  -4  -3 -16 6436.08 4569.31   1
  -6   0 -15 150.090 2334.42   1
 -10   3   9 -66.180 994.300   1
 -10   3  -9 241.030 1858.79   1
 -10  -3  -9 372.790 1778.62   1
  -1 -14  -8 31987.3 5199.11   1
   1 -14  -8 31539.6 5114.29   1
   1 -14  -8 28415.2 7936.31   1
  -1 -14  -8 20598.4 3800.60   1
 -12   0   0 2008.12 1872.78   1
  -9  -3 -11 795.580 2099.03   1
  -9   3 -11 927.220 1617.08   1
  -6  -5 -14 285.890 4018.41   1
 -10   6  -7 326.410 2204.59   1
  10  -6  -7 373.760 406.230   1
 -10  -6  -7 429.990 1897.26   1
 -10   6   7 646.110 1656.42   1
  -1  -6 -16 3000.86 2171.65   1
   1  -6 -16 5400.27 2470.59   1
  -6 -11  -9 287.540 1916.14   1
  -6 -11  -9 -152.26 2673.26   1
   6 -11  -9 942.080 935.570   1
  -6  11   9 52.1300 1718.93   1
  -7  -5 -13 -736.30 3266.31   1
  -7  -5 -13 -82.620 1982.92   1
  -2  -9 -14 -36.410 1301.99   1
   2  -9 -14 677.610 1870.84   1
  -6  -1 -15 520.150 2906.41   1
  -4  -6 -15 3475.43 3083.28   1
   4  -6 -15 1029.93 1409.56   1
   0  -8 -15 28511.6 7202.28   1
 -10   8   4 -69.500 1453.02   1
 -10   8  -4 -934.61 2094.90   1
 -10  -8   4 488.680 1842.11   1
 -10  -8  -4 1340.77 2391.89   1
  10  -8  -4 3.83000 617.630   1
  -1  -3 -17 2315.22 2759.52   1
   1  -3 -17 348.780 1825.61   1
   2 -12 -11 3125.61 1761.24   1
  -2 -12 -11 3361.71 2984.73   1
   2 -12 -11 3376.04 3722.71   1
  -2 -12 -11 2857.47 2955.58   1
 -11   0  -7 -230.71 1878.28   1
 -11   0   7 350.470 1566.22   1
 -12   0  -1 -75.070 1777.33   1
 -12   0   1 263.510 1762.99   1
  -2  -2 -17 1165.64 3257.79   1
  -2   2 -17 11.4200 2073.22   1
 -12   1   0 -169.14 1729.21   1
 -12  -1   0 -281.43 1699.26   1
  -3 -13  -9 -665.19 1430.05   1
   3 -13  -9 176.010 898.420   1
   3 -13  -9 678.390 930.260   1
  -3 -13  -9 2024.28 1330.75   1
   9  -9  -6 3463.28 1930.96   1
  -9   9   6 1324.38 1651.29   1
  -9  -9  -6 1000.92 1640.59   1
  -9  -9  -6 7293.93 4205.61   1
  -9   9  -6 2592.68 1869.98   1
  -3  -7 -15 11005.2 3850.12   1
   3  -7 -15 10827.5 3309.45   1
   0 -13 -10 456.670 1213.14   1
   0 -13 -10 1126.47 1195.95   1
  -8  10  -7 184.560 1895.17   1
  -8  10   7 614.840 1273.54   1
   8 -10  -7 75.9800 441.300   1
  -8 -10  -7 -631.27 1843.42   1
  -8 -10  -7 -1049.1 2141.15   1
  -3 -14  -7 1227.01 2052.47   1
   3 -14  -7 1109.57 1468.37   1
   3 -14  -7 333.050 593.510   1
  -3 -14  -7 -574.67 1173.92   1
   3 -14   7 577.990 387.140   1
  -6 -13  -5 780.250 1951.33   1
  -6 -13   5 412.550 2322.67   1
  -6  13  -5 1666.27 1940.79   1
  -6  13   5 199.760 1706.23   1
   6 -13   5 153.360 317.450   1
   6 -13  -5 246.090 404.690   1
  -6  -7 -13 4.43000 1486.99   1
   6  -7 -13 -52.760 949.560   1
  -6  -7 -13 199.740 2263.23   1
 -10   5   8 -1479.8 1485.39   1
 -10   5  -8 1168.03 2262.97   1
 -10  -5  -8 1140.39 1945.25   1
   2 -15   5 1.54000 398.190   1
   2 -15  -5 14.8900 346.180   1
  -2 -15  -5 194.680 1038.70   1
   2 -15  -5 -737.14 1773.12   1
   2 -15   5 416.780 1006.57   1
  -2 -15   5 -399.11 1386.45   1
  -2 -15  -5 -324.55 2199.39   1
  -4 -15   0 70697.3 15308.4   1
   4 -15   0 64890.7 13796.6   1
 -11   1   7 1005.99 2112.75   1
 -11  -1   7 534.170 1429.69   1
 -11   1  -7 848.190 2077.82   1
 -11  -1  -7 -310.86 2333.73   1
   5 -14  -4 645.070 758.420   1
   5 -14   4 974.500 607.180   1
  -5 -14  -4 1415.33 1100.56   1
  -5 -14   4 503.830 1097.98   1
  -5  14  -4 2307.44 2229.48   1
  -7  -2 -14 2263.89 4038.53   1
 -12   1  -1 26.1200 1890.10   1
 -12  -1   1 424.310 1625.79   1
 -12  -1  -1 116.990 1642.40   1
 -12   1   1 755.750 1722.92   1
   7 -10  -9 539.160 511.150   1
  -7 -10  -9 1419.56 3478.18   1
  -7  10   9 499.470 1428.98   1
  -7 -10  -9 2315.26 3434.75   1
   1  -8 -15 17469.5 4564.58   1
  -1  -8 -15 17183.2 4450.50   1
  10  -7  -6 2591.11 1814.30   1
 -10   7   6 1089.96 2571.88   1
 -10   7  -6 2483.22 3128.97   1
 -10  -7   6 1562.10 1822.63   1
 -10  -7  -6 3989.78 2820.17   1
   5 -13  -7 -46.220 957.320   1
  -5 -13  -7 -855.40 2036.60   1
  -5  13  -7 -285.16 1886.70   1
  -5 -13  -7 927.370 720.350   1
  -8  11  -5 214.890 2156.07   1
  -8  11   5 -112.46 1787.96   1
   8 -11  -5 509.650 417.840   1
  -8 -11   5 1978.30 2875.40   1
  -8 -11  -5 3354.30 4180.93   1
   4 -15   1 201.370 383.870   1
  -4 -15   1 1358.91 1892.71   1
   4 -15  -1 -11.700 623.510   1
  -4 -15  -1 -32.190 1904.82   1
  -4 -14  -6 16776.0 7894.96   1
   4 -14   6 12297.3 2766.71   1
   4 -14  -6 10683.6 2576.23   1
  -4 -14  -6 6507.63 2064.58   1
   4 -14  -6 28833.5 7100.12   1
  -3 -15  -4 1665.60 1104.30   1
   3 -15  -4 3083.12 2993.20   1
  -3 -15  -4 4843.68 3133.63   1
  -3 -15   4 6067.29 3583.31   1
   3 -15  -4 8193.57 7096.72   1
   3 -15   4 7242.13 5199.60   1
   3 -15   4 3281.62 2210.16   1
   1 -13 -10 6200.19 5855.66   1
  -1 -13 -10 4678.88 3290.65   1
   1 -13 -10 3249.78 2670.28   1
  -1 -13 -10 3235.96 1631.16   1
  -3  -5 -16 2007.52 2734.73   1
   3  -5 -16 1030.36 1520.03   1
  -7 -13   0 25830.9 7795.88   1
   7 -13   0 14347.9 3434.95   1
  -7  13   0 11849.6 8667.54   1
  -6  -2 -15 -426.46 2585.88   1
 -12   0  -2 929.570 1781.47   1
 -12   0   2 912.610 1894.07   1
 -11  -6  -3 -393.63 2381.45   1
 -11  -6   3 27.5800 1856.38   1
 -11   6  -3 1040.44 1738.24   1
 -11   6   3 -349.00 1599.86   1
  11  -6  -3 180.850 329.310   1
  -7  -7 -12 856.960 3661.75   1
   7  -7 -12 1972.79 1776.50   1
  -7  -7 -12 4804.22 2924.70   1
  -9 -10  -4 486.540 1102.15   1
   9 -10  -4 247.090 486.420   1
  -9  10   4 -250.11 1606.98   1
  -9  10  -4 619.830 3040.93   1
  -9 -10   4 1075.64 1942.01   1
   0 -15  -6 236.870 1914.79   1
   0 -15  -6 79.4200 548.000   1
   0 -15   6 399.660 803.100   1
 -12  -2   0 358.450 1664.89   1
 -12   2   0 549.890 1797.23   1
  -5 -12  -9 3460.11 3227.61   1
  -5 -12  -9 1467.84 2324.30   1
   5 -12  -9 1141.91 1888.24   1
   7 -13  -1 453.570 364.890   1
   7 -13   1 349.540 502.400   1
  -7  13   1 632.840 854.650   1
  -7  13  -1 2402.24 3002.31   1
  -7 -13   1 398.830 856.450   1
  -7 -13  -1 -670.63 2743.52   1
  -4 -12 -10 3046.15 1565.72   1
   4 -12 -10 4655.73 3174.76   1
  -4 -12 -10 6847.74 3123.14   1
   4 -12 -10 8942.29 4212.58   1
   4  -8 -14 11055.9 6902.59   1
  -4  -8 -14 13521.2 4715.06   1
 -10   9   0 -174.21 2347.05   1
  10  -9   0 44.4600 231.900   1
 -10  -9   0 -386.32 2178.71   1
 -12  -1  -2 1110.53 2613.63   1
 -12  -1   2 699.800 1939.51   1
 -12   1  -2 -1394.7 1859.11   1
 -12   1   2 -830.56 1774.83   1
   8 -12   0 226.670 478.930   1
  -8  12   0 -808.36 1948.59   1
  -8 -12   0 1440.78 2904.14   1
 -11  -2  -7 2016.75 2488.18   1
 -11   2  -7 -395.87 2169.87   1
 -11  -2   7 -3.1500 1526.64   1
 -11   2   7 -1109.2 1716.79   1
 -12  -2   1 261.230 1714.10   1
 -12   2  -1 602.360 1648.59   1
 -12   2   1 -775.10 1794.83   1
 -12  -2  -1 1562.88 1812.72   1
   0 -16   0 65386.7 14254.7   1
   0 -16   0 35619.7 7658.46   1
   5  -7 -14 129.400 490.020   1
  -5  -7 -14 435.090 3854.51   1
   4 -15  -2 531.470 586.220   1
   4 -15   2 685.470 508.120   1
  -4 -15   2 1625.92 1411.08   1
  -4 -15  -2 2081.66 1996.63   1
 -10   9  -1 1506.10 1966.14   1
 -10  -9  -1 -882.73 2161.55   1
  10  -9  -1 240.880 676.900   1
 -10   9   1 -788.34 1712.93   1
 -10  -9   1 -474.42 1977.39   1
  -5  -5 -15 35.0700 1985.09   1
  -2 -14  -8 18880.8 4395.13   1
  -2 -14  -8 22906.4 6765.71   1
   2 -14  -8 26367.5 6108.79   1
   2 -14  -8 22046.8 4937.66   1
  -8 -12  -1 -616.75 2651.35   1
  -8  12   1 -82.630 2121.63   1
   8 -12   1 -194.58 627.210   1
   8 -12  -1 400.820 420.380   1
  -8  12  -1 1637.71 1715.89   1
   2  -6 -16 4666.95 3682.57   1
  -2  -6 -16 9760.38 4381.85   1
  -8  -2 -13 740.260 2039.42   1
  -3 -10 -13 1020.08 1576.70   1
  -3 -10 -13 514.210 1098.51   1
   3 -10 -13 -41.100 772.620   1
  -8  -5 -12 2214.49 2522.28   1
  -8  -5 -12 1527.20 2049.76   1
  -3   0 -17 -335.85 1705.33   1
   1 -15  -6 1706.02 1154.26   1
   1 -15   6 2727.69 2857.73   1
   1 -15  -6 3786.81 3426.20   1
  -1 -15   6 2007.12 1293.73   1
  -1 -15  -6 1957.77 1451.91   1
  -1 -15  -6 1354.58 1482.99   1
   3 -11 -12 1371.92 1465.52   1
  -3 -11 -12 -123.64 1309.41   1
   3 -11 -12 803.260 1572.03   1
  -3 -11 -12 176.230 779.630   1
   0 -16  -1 24940.5 5479.61   1
   0 -16   1 38065.4 11165.3   1
   0 -16  -1 29191.8 6737.90   1
  11  -5  -5 -9.4800 518.570   1
 -11   5   5 -134.17 1828.30   1
 -11   5  -5 421.690 2019.44   1
 -11  -5   5 430.400 1809.86   1
 -11  -5  -5 468.300 2444.52   1
  -2  -3 -17 1298.54 3461.86   1
 -11  -4   6 865.150 1511.86   1
 -11   4  -6 -300.86 2127.82   1
 -11  -4  -6 1524.88 1825.96   1
 -11   4   6 119.490 1247.17   1
   0  -4 -17 240.390 1780.80   1
  -5   0 -16 3468.23 4056.14   1
  -4  -4 -16 887.370 2135.70   1
   1 -16   0 24352.6 5320.88   1
  -1 -16   0 28204.5 9348.17   1
   1 -16   0 30032.5 10702.9   1
  -3  -1 -17 1228.10 2580.34   1
  -3   1 -17 -464.68 2200.13   1
   7 -13  -2 4371.44 3913.97   1
   7 -13   2 5097.91 2439.67   1
  -7  13   2 3334.93 3258.00   1
  -7  13  -2 4199.17 2711.27   1
  -7 -13   2 4338.52 3254.54   1
  -7 -13  -2 7273.45 6185.37   1
 -10   0 -10 756.960 2065.24   1
  -9   7   9 -402.49 1667.31   1
  -9   7  -9 1992.93 3524.82   1
  -9  -7  -9 -654.70 1967.21   1
   9  -7  -9 441.560 409.070   1
  -9  -7  -9 457.340 2221.35   1
  -7  -3 -14 1220.04 3043.23   1
 -10  -4  -9 388.560 2215.68   1
 -10   4  -9 1326.08 1952.94   1
 -10   4   9 264.110 1709.67   1
  -5  -1 -16 1262.12 3291.23   1
  -5   1 -16 3395.39 3054.79   1
  -9  -4 -11 1784.66 2322.70   1
  -9   4 -11 457.470 2010.89   1
  -9  -4 -11 -700.05 2529.43   1
 -12   2  -2 1694.88 1857.55   1
 -12   2   2 1218.79 2863.35   1
 -12  -2  -2 -70.710 2044.60   1
 -12  -2   2 -67.420 1706.70   1
  -1 -16   1 15379.5 5417.71   1
  -1 -16  -1 13389.4 7379.84   1
   1 -16  -1 11793.0 6828.89   1
   1 -16   1 13998.4 7860.37   1
  -1 -16  -1 13197.3 2997.75   1
   1 -16  -1 15953.6 3513.92   1
   1 -16   1 16606.8 3686.67   1
  -9   8  -8 1868.19 1775.26   1
  -9   8   8 1316.28 1104.65   1
   9  -8  -8 565.100 459.640   1
  -9  -8  -8 457.940 2159.36   1
  -9  -8  -8 -1357.0 1677.17   1
   2  -8 -15 4129.61 2594.87   1
  -2  -8 -15 3385.13 2866.20   1
 -12   0   3 117.400 1508.99   1
 -12   0  -3 -194.47 1896.48   1
 -10  -9  -2 5963.04 3671.22   1
  10  -9  -2 2920.86 3063.36   1
 -10  -9   2 3624.05 2759.87   1
 -10   9   2 2521.61 1845.00   1
 -10   9  -2 1318.87 1998.82   1
  -6 -14   0 2775.92 2299.32   1
  -6  14   0 -199.81 1987.47   1
   6 -14   0 307.080 283.750   1
   1  -4 -17 358.940 1931.42   1
  -1  -4 -17 -83.670 1829.68   1
 -10   1 -10 1300.75 1781.78   1
 -10  -1 -10 3328.52 2594.38   1
  -8 -12  -2 11696.2 4226.08   1
   8 -12  -2 6215.31 3608.68   1
   8 -12   2 10398.1 2505.51   1
  -8  12   2 3980.30 4054.20   1
  -8  12  -2 5173.51 4392.11   1
  -8 -12   2 8146.37 3194.09   1
  -8  -8 -10 352.810 2804.57   1
  -8  -8 -10 9963.35 3836.85   1
   8  -8 -10 2275.05 1417.49   1
  -8   8  10 3555.72 3766.78   1
 -10   8  -5 1113.17 2264.72   1
 -10  -8  -5 493.530 2503.27   1
 -10  -8   5 1883.48 3348.49   1
 -10   8   5 1427.57 1854.21   1
  10  -8  -5 426.670 424.030   1
   0 -16   2 -1022.2 1548.70   1
   0 -16  -2 530.260 1062.58   1
   0 -16  -2 271.970 699.650   1
   2 -13 -10 15670.4 7522.46   1
  -2 -13 -10 15272.0 7882.51   1
   2 -13 -10 8482.56 6439.90   1
  -2 -13 -10 10486.3 5876.97   1
  -6  -3 -15 1262.49 2149.06   1
  -7 -12  -6 1731.25 1780.32   1
   7 -12  -6 5777.72 2934.27   1
  -7 -12  -6 10859.8 9433.98   1
   6 -14   1 5421.40 2793.73   1
   6 -14  -1 4739.49 2045.68   1
  -6 -14   1 6202.92 6276.11   1
  -6 -14  -1 7922.83 3690.84   1
 -12   1   3 533.640 1970.51   1
 -12   1  -3 -1335.1 2005.74   1
 -12  -1  -3 943.100 1781.07   1
 -12  -1   3 -443.57 1638.61   1
  -7 -11  -8 3238.06 2107.32   1
   7 -11  -8 1746.68 1154.93   1
  -7 -11  -8 342.140 2552.70   1
 -11  -7   0 -314.22 2092.28   1
 -12  -3   0 -596.29 2052.93   1
  -6 -12  -8 389.840 1652.39   1
   6 -12  -8 445.170 318.270   1
  -6 -12  -8 727.560 2583.29   1
  -8  -9  -9 -399.24 3131.17   1
   8  -9  -9 398.010 455.260   1
  -8  -9  -9 -195.31 2914.37   1
   3  -9 -14 523.370 1256.93   1
  -3  -9 -14 835.960 1772.01   1
 -11  -6   4 3264.85 2198.87   1
 -11  -6  -4 3233.51 2621.67   1
  -4 -15  -3 934.570 1457.54   1
   4 -15  -3 1140.62 1170.77   1
  -4 -15   3 -597.25 1567.77   1
   4 -15  -3 -319.88 632.240   1
   4 -15   3 -93.140 600.430   1
   5 -14  -5 5465.14 3361.39   1
  -5 -14  -5 8477.37 6700.42   1
   5 -14   5 7258.23 2497.49   1
  -5 -14   5 8618.91 3544.29   1
  -3 -12 -11 1324.81 2058.86   1
   3 -12 -11 2673.21 2845.92   1
  -3 -12 -11 368.380 1168.14   1
   3 -12 -11 561.100 543.800   1
  -9  -6 -10 -692.67 2937.35   1
  -9  -6 -10 1157.41 1974.55   1
  -3  -2 -17 1253.25 3780.33   1
  -3   2 -17 1009.93 2318.43   1
 -11  -7  -1 1275.10 2940.54   1
 -11  -7   1 -202.48 2422.73   1
 -11  -3  -7 1104.97 2387.23   1
 -12  -3  -1 -211.23 2082.62   1
 -12  -3   1 284.970 2060.04   1
  -5  -2 -16 1164.04 2344.92   1
;
_shelx_hkl_checksum              57723
#END Tags that were not found in dictionaries
loop_
_space_group_symop_operation_xyz
'x, y, z'
'-x, -y, z+1/2'
'x, -y+1/2, -z'
'-x, y+1/2, -z+1/2'
'-x, -y, -z'
'x, y, -z-1/2'
'-x, y-1/2, z'
'x, -y-1/2, z-1/2'
loop_
_atom_site_label
_atom_site_type_symbol
_atom_site_fract_x
_atom_site_fract_y
_atom_site_fract_z
_atom_site_U_iso_or_equiv
_atom_site_adp_type
_atom_site_occupancy
_atom_site_site_symmetry_order
_atom_site_calc_flag
_atom_site_refinement_flags_posn
_atom_site_refinement_flags_adp
_atom_site_refinement_flags_occupancy
Lu1 Lu 0.59256(14) 0.01640(7) 0.11928(7) 0.0320(4) Uani 1 1 d . . .
Lu2 Lu 0.4823(2) 0.2500 0.0000 0.0307(5) Uani 1 2 d S T P
Lu3 Lu 0.4230(2) 0.25155(9) 0.2500 0.0301(5) Uani 1 2 d S T P
O1 O 0.727(3) 0.0269(19) 0.2500 0.035(6) Uiso 1 2 d S . P
O2 O 0.665(2) -0.1592(13) 0.1046(13) 0.032(4) Uiso 1 1 d . . .
O3 O 0.487(3) -0.0733(17) 0.2500 0.025(5) Uiso 1 2 d S . P
O4 O 0.390(2) 0.1232(14) 0.1288(12) 0.034(4) Uiso 1 1 d . . .
O5 O 0.6127(17) 0.2147(12) 0.1420(12) 0.024(3) Uiso 1 1 d . . .
O6 O 0.4198(17) -0.0841(12) 0.0366(12) 0.024(3) Uiso 1 1 d . . .
O7 O 0.834(4) 0.026(2) 0.056(2) 0.081(8) Uiso 1 1 d . . .
O8 O 0.175(4) 0.224(2) 0.2500 0.055(8) Uiso 1 2 d S . P
I2 I 0.0058(6) 0.2500 0.0000 0.0570(19) Uani 0.5 2 d S T P
I1 I 0.1132(6) -0.0643(5) 0.2500 0.065(2) Uani 0.5 2 d S T P
loop_
_atom_site_aniso_label
_atom_site_aniso_U_11
_atom_site_aniso_U_22
_atom_site_aniso_U_33
_atom_site_aniso_U_23
_atom_site_aniso_U_13
_atom_site_aniso_U_12
Lu1 0.0699(10) 0.0103(5) 0.0158(6) 0.0016(3) -0.0011(5) -0.0020(4)
Lu2 0.0700(13) 0.0071(6) 0.0150(8) -0.0005(4) 0.000 0.000
Lu3 0.0652(13) 0.0091(6) 0.0159(8) 0.000 0.000 -0.0005(5)
I2 0.031(3) 0.033(3) 0.107(6) -0.005(3) 0.000 0.000
I1 0.016(3) 0.055(3) 0.124(7) 0.000 0.000 -0.008(2)
loop_
_atom_type_symbol
_atom_type_description
_atom_type_scat_dispersion_real
_atom_type_scat_dispersion_imag
_atom_type_scat_source
I I -0.4880 1.7230 'International Tables Vol C Tables 4.2.6.8 and 6.1.1.4'
Lu Lu -0.3400 5.5880 'International Tables Vol C Tables 4.2.6.8 and 6.1.1.4'
O O 0.0100 0.0060 'International Tables Vol C Tables 4.2.6.8 and 6.1.1.4'
H H 0.0000 0.0000 'International Tables Vol C Tables 4.2.6.8 and 6.1.1.4'
loop_
_geom_angle_atom_site_label_1
_geom_angle_atom_site_label_2
_geom_angle_atom_site_label_3
_geom_angle
_geom_angle_site_symmetry_1
_geom_angle_site_symmetry_3
O1 Lu1 O6 139.7(7) . 5_655
O1 Lu1 O2 87.4(8) . .
O6 Lu1 O2 106.5(6) 5_655 .
O1 Lu1 O4 113.2(7) . .
O6 Lu1 O4 78.4(6) 5_655 .
O2 Lu1 O4 142.4(6) . .
O1 Lu1 O3 69.8(8) . .
O6 Lu1 O3 150.0(6) 5_655 .
O2 Lu1 O3 74.8(7) . .
O4 Lu1 O3 83.2(7) . .
O1 Lu1 O6 145.6(7) . .
O6 Lu1 O6 73.4(6) 5_655 .
O2 Lu1 O6 70.0(6) . .
O4 Lu1 O6 76.3(6) . .
O3 Lu1 O6 79.3(6) . .
O1 Lu1 O7 75.1(9) . .
O6 Lu1 O7 72.7(8) 5_655 .
O2 Lu1 O7 74.7(8) . .
O4 Lu1 O7 139.3(7) . .
O3 Lu1 O7 133.9(9) . .
O6 Lu1 O7 120.4(8) . .
O1 Lu1 O5 78.2(7) . .
O6 Lu1 O5 75.8(5) 5_655 .
O2 Lu1 O5 158.2(6) . .
O4 Lu1 O5 59.3(6) . .
O3 Lu1 O5 114.3(6) . .
O6 Lu1 O5 129.9(5) . .
O7 Lu1 O5 85.7(7) . .
O1 Lu1 Lu2 120.1(6) . .
O6 Lu1 Lu2 41.0(4) 5_655 .
O2 Lu1 Lu2 147.2(4) . .
O4 Lu1 Lu2 46.0(4) . .
O3 Lu1 Lu2 129.0(6) . .
O6 Lu1 Lu2 90.8(4) . .
O7 Lu1 Lu2 94.3(6) . .
O5 Lu1 Lu2 41.9(4) . .
O1 Lu1 Lu1 35.6(6) . 6_556
O6 Lu1 Lu1 158.2(4) 5_655 6_556
O2 Lu1 Lu1 95.0(4) . 6_556
O4 Lu1 Lu1 86.8(4) . 6_556
O3 Lu1 Lu1 40.0(4) . 6_556
O6 Lu1 Lu1 118.7(4) . 6_556
O7 Lu1 Lu1 110.6(7) . 6_556
O5 Lu1 Lu1 82.9(4) . 6_556
Lu2 Lu1 Lu1 117.76(2) . 6_556
O1 Lu1 Lu1 172.2(6) . 5_655
O6 Lu1 Lu1 37.2(4) 5_655 5_655
O2 Lu1 Lu1 87.7(4) . 5_655
O4 Lu1 Lu1 74.1(4) . 5_655
O3 Lu1 Lu1 114.6(5) . 5_655
O6 Lu1 Lu1 36.2(4) . 5_655
O7 Lu1 Lu1 97.8(7) . 5_655
O5 Lu1 Lu1 104.7(4) . 5_655
Lu2 Lu1 Lu1 62.85(4) . 5_655
Lu1 Lu1 Lu1 151.14(4) 6_556 5_655
O1 Lu1 Lu3 71.9(6) . 7_655
O6 Lu1 Lu3 139.7(4) 5_655 7_655
O2 Lu1 Lu3 38.5(4) . 7_655
O4 Lu1 Lu3 116.3(4) . 7_655
O3 Lu1 Lu3 36.7(5) . 7_655
O6 Lu1 Lu3 74.4(4) . 7_655
O7 Lu1 Lu3 104.2(6) . 7_655
O5 Lu1 Lu3 144.5(4) . 7_655
Lu2 Lu1 Lu3 160.41(6) . 7_655
Lu1 Lu1 Lu3 61.64(2) 6_556 7_655
Lu1 Lu1 Lu3 107.52(4) 5_655 7_655
O2 Lu2 O2 105.3(9) 5_655 7_665
O2 Lu2 O6 144.7(6) 5_655 7_665
O2 Lu2 O6 70.6(6) 7_665 7_665
O2 Lu2 O6 70.6(6) 5_655 5_655
O2 Lu2 O6 144.7(6) 7_665 5_655
O6 Lu2 O6 133.0(8) 7_665 5_655
O2 Lu2 O5 138.0(6) 5_655 .
O2 Lu2 O5 84.0(6) 7_665 .
O6 Lu2 O5 77.2(5) 7_665 .
O6 Lu2 O5 78.5(5) 5_655 .
O2 Lu2 O5 84.0(6) 5_655 3
O2 Lu2 O5 138.0(6) 7_665 3
O6 Lu2 O5 78.5(5) 7_665 3
O6 Lu2 O5 77.2(5) 5_655 3
O5 Lu2 O5 116.5(8) . 3
O2 Lu2 O4 70.5(6) 5_655 3
O2 Lu2 O4 85.2(6) 7_665 3
O6 Lu2 O4 74.2(6) 7_665 3
O6 Lu2 O4 123.1(6) 5_655 3
O5 Lu2 O4 151.4(5) . 3
O5 Lu2 O4 59.0(6) 3 3
O2 Lu2 O4 85.2(6) 5_655 .
O2 Lu2 O4 70.5(6) 7_665 .
O6 Lu2 O4 123.1(6) 7_665 .
O6 Lu2 O4 74.2(6) 5_655 .
O5 Lu2 O4 59.0(6) . .
O5 Lu2 O4 151.4(5) 3 .
O4 Lu2 O4 139.7(9) 3 .
O2 Lu2 Lu3 44.3(4) 5_655 3
O2 Lu2 Lu3 121.3(4) 7_665 3
O6 Lu2 Lu3 106.4(4) 7_665 3
O6 Lu2 Lu3 81.2(4) 5_655 3
O5 Lu2 Lu3 154.5(4) . 3
O5 Lu2 Lu3 42.9(4) 3 3
O4 Lu2 Lu3 42.2(4) 3 3
O4 Lu2 Lu3 129.0(4) . 3
O2 Lu2 Lu3 121.3(4) 5_655 .
O2 Lu2 Lu3 44.3(4) 7_665 .
O6 Lu2 Lu3 81.2(4) 7_665 .
O6 Lu2 Lu3 106.4(4) 5_655 .
O5 Lu2 Lu3 42.9(4) . .
O5 Lu2 Lu3 154.5(4) 3 .
O4 Lu2 Lu3 129.0(4) 3 .
O4 Lu2 Lu3 42.2(4) . .
Lu3 Lu2 Lu3 161.38(9) 3 .
O2 Lu2 Lu1 107.6(4) 5_655 3
O2 Lu2 Lu1 93.4(4) 7_665 3
O6 Lu2 Lu1 40.4(4) 7_665 3
O6 Lu2 Lu1 121.6(4) 5_655 3
O5 Lu2 Lu1 112.7(4) . 3
O5 Lu2 Lu1 45.6(4) 3 3
O4 Lu2 Lu1 41.8(4) 3 3
O4 Lu2 Lu1 162.0(4) . 3
Lu3 Lu2 Lu1 65.99(3) 3 3
Lu3 Lu2 Lu1 120.21(3) . 3
O2 Lu2 Lu1 93.4(4) 5_655 .
O2 Lu2 Lu1 107.6(4) 7_665 .
O6 Lu2 Lu1 121.6(4) 7_665 .
O6 Lu2 Lu1 40.4(4) 5_655 .
O5 Lu2 Lu1 45.6(4) . .
O5 Lu2 Lu1 112.7(4) 3 .
O4 Lu2 Lu1 162.0(4) 3 .
O4 Lu2 Lu1 41.8(4) . .
Lu3 Lu2 Lu1 120.21(3) 3 .
Lu3 Lu2 Lu1 65.99(3) . .
Lu1 Lu2 Lu1 145.34(8) 3 .
O4 Lu3 O4 90.9(9) . 6_556
O4 Lu3 O3 133.6(4) . 7_665
O4 Lu3 O3 133.6(4) 6_556 7_665
O4 Lu3 O5 61.5(6) . .
O4 Lu3 O5 114.2(6) 6_556 .
O3 Lu3 O5 84.6(6) 7_665 .
O4 Lu3 O5 114.2(6) . 6_556
O4 Lu3 O5 61.5(6) 6_556 6_556
O3 Lu3 O5 84.6(6) 7_665 6_556
O5 Lu3 O5 77.1(8) . 6_556
O4 Lu3 O8 76.6(7) . .
O4 Lu3 O8 76.6(7) 6_556 .
O3 Lu3 O8 119.8(9) 7_665 .
O5 Lu3 O8 136.1(5) . .
O5 Lu3 O8 136.1(5) 6_556 .
O4 Lu3 O2 148.7(6) . 4_655
O4 Lu3 O2 71.8(6) 6_556 4_655
O3 Lu3 O2 72.4(5) 7_665 4_655
O5 Lu3 O2 149.3(6) . 4_655
O5 Lu3 O2 80.7(6) 6_556 4_655
O8 Lu3 O2 74.2(6) . 4_655
O4 Lu3 O2 71.8(6) . 7_665
O4 Lu3 O2 148.7(6) 6_556 7_665
O3 Lu3 O2 72.4(5) 7_665 7_665
O5 Lu3 O2 80.7(6) . 7_665
O5 Lu3 O2 149.3(6) 6_556 7_665
O8 Lu3 O2 74.2(6) . 7_665
O2 Lu3 O2 110.0(8) 4_655 7_665
O4 Lu3 Lu2 136.1(4) . 6_556
O4 Lu3 Lu2 46.7(4) 6_556 6_556
O3 Lu3 Lu2 86.93(9) 7_665 6_556
O5 Lu3 Lu2 119.4(4) . 6_556
O5 Lu3 Lu2 42.4(4) 6_556 6_556
O8 Lu3 Lu2 99.16(5) . 6_556
O2 Lu3 Lu2 41.4(4) 4_655 6_556
O2 Lu3 Lu2 150.1(4) 7_665 6_556
O4 Lu3 Lu2 46.7(4) . .
O4 Lu3 Lu2 136.1(4) 6_556 .
O3 Lu3 Lu2 86.93(9) 7_665 .
O5 Lu3 Lu2 42.4(4) . .
O5 Lu3 Lu2 119.4(4) 6_556 .
O8 Lu3 Lu2 99.16(5) . .
O2 Lu3 Lu2 150.1(4) 4_655 .
O2 Lu3 Lu2 41.4(4) 7_665 .
Lu2 Lu3 Lu2 161.37(9) 6_556 .
O4 Lu3 Lu1 159.9(4) . 4_655
O4 Lu3 Lu1 105.2(4) 6_556 4_655
O3 Lu3 Lu1 36.4(4) 7_665 4_655
O5 Lu3 Lu1 119.8(4) . 4_655
O5 Lu3 Lu1 84.5(4) 6_556 4_655
O8 Lu3 Lu1 95.2(6) . 4_655
O2 Lu3 Lu1 36.3(4) 4_655 4_655
O2 Lu3 Lu1 88.4(4) 7_665 4_655
Lu2 Lu3 Lu1 62.77(3) 6_556 4_655
Lu2 Lu3 Lu1 118.69(4) . 4_655
O4 Lu3 Lu1 105.2(4) . 7_665
O4 Lu3 Lu1 159.9(4) 6_556 7_665
O3 Lu3 Lu1 36.4(4) 7_665 7_665
O5 Lu3 Lu1 84.5(4) . 7_665
O5 Lu3 Lu1 119.8(4) 6_556 7_665
O8 Lu3 Lu1 95.2(6) . 7_665
O2 Lu3 Lu1 88.4(4) 4_655 7_665
O2 Lu3 Lu1 36.3(4) 7_665 7_665
Lu2 Lu3 Lu1 118.69(4) 6_556 7_665
Lu2 Lu3 Lu1 62.77(3) . 7_665
Lu1 Lu3 Lu1 56.73(5) 4_655 7_665
Lu1 O1 Lu1 108.8(12) . 6_556
Lu2 O2 Lu1 110.0(7) 5_655 .
Lu2 O2 Lu3 94.3(6) 5_655 7_655
Lu1 O2 Lu3 105.3(7) . 7_655
Lu1 O3 Lu1 99.9(9) . 6_556
Lu1 O3 Lu3 106.9(7) . 7_655
Lu1 O3 Lu3 106.9(7) 6_556 7_655
Lu3 O4 Lu1 109.0(7) . .
Lu3 O4 Lu2 91.1(6) . .
Lu1 O4 Lu2 92.2(6) . .
Lu2 O5 Lu3 94.7(6) . .
Lu2 O5 Lu1 92.5(5) . .
Lu3 O5 Lu1 102.2(6) . .
Lu1 O6 Lu2 98.5(6) 5_655 5_655
Lu1 O6 Lu1 106.6(6) 5_655 .
Lu2 O6 Lu1 107.6(6) 5_655 .
loop_
_geom_bond_atom_site_label_1
_geom_bond_atom_site_label_2
_geom_bond_distance
_geom_bond_site_symmetry_2
Lu1 O1 2.184(16) .
Lu1 O6 2.282(16) 5_655
Lu1 O2 2.293(16) .
Lu1 O4 2.320(18) .
Lu1 O3 2.320(14) .
Lu1 O6 2.336(15) .
Lu1 O7 2.43(3) .
Lu1 O5 2.488(15) .
Lu1 Lu2 3.480(2) .
Lu1 Lu1 3.553(2) 6_556
Lu1 Lu1 3.702(2) 5_655
Lu1 Lu3 3.740(2) 7_655
Lu2 O2 2.283(18) 5_655
Lu2 O2 2.283(18) 7_665
Lu2 O6 2.310(15) 7_665
Lu2 O6 2.310(15) 5_655
Lu2 O5 2.328(17) .
Lu2 O5 2.328(17) 3
Lu2 O4 2.507(17) 3
Lu2 O4 2.507(17) .
Lu2 Lu3 3.4431(5) 3
Lu2 Lu3 3.4431(5) .
Lu2 Lu1 3.480(2) 3
Lu3 O4 2.312(17) .
Lu3 O4 2.313(17) 6_556
Lu3 O3 2.33(2) 7_665
Lu3 O5 2.354(16) .
Lu3 O5 2.354(16) 6_556
Lu3 O8 2.36(4) .
Lu3 O2 2.412(17) 4_655
Lu3 O2 2.412(17) 7_665
Lu3 Lu2 3.4431(5) 6_556
Lu3 Lu1 3.740(2) 4_655
Lu3 Lu1 3.740(2) 7_665
O1 Lu1 2.185(16) 6_556
O2 Lu2 2.283(18) 5_655
O2 Lu3 2.412(17) 7_655
O3 Lu1 2.320(14) 6_556
O3 Lu3 2.33(2) 7_655
O6 Lu1 2.282(16) 5_655
O6 Lu2 2.310(15) 5_655
