#------------------------------------------------------------------------------
#$Date: 2016-03-25 22:48:39 +0200 (Fri, 25 Mar 2016) $
#$Revision: 180016 $
#$URL: svn://www.crystallography.net/cod/cif/7/03/10/7031035.cif $
#------------------------------------------------------------------------------
#
# This file is available in the Crystallography Open Database (COD),
# http://www.crystallography.net/
#
# All data on this site have been placed in the public domain by the
# contributors.
#
data_7031035
loop_
_publ_author_name
'Dauer, David-R'
'Stalke, Dietmar'
_publ_section_title
;
 Heterocyclic substituted methanides as promising alternatives to the
 ubiquitous nacnac ligand.
;
_journal_issue                   38
_journal_name_full
'Dalton transactions (Cambridge, England : 2003)'
_journal_page_first              14432
_journal_page_last               14439
_journal_paper_doi               10.1039/c4dt01008f
_journal_volume                  43
_journal_year                    2014
_chemical_formula_moiety         'C16 H12 Al Cl N2 S2'
_chemical_formula_sum            'C16 H12 Al Cl N2 S2'
_chemical_formula_weight         358.83
_chemical_name_systematic
;
 ?
;
_space_group_crystal_system      triclinic
_space_group_IT_number           2
_space_group_name_Hall           '-P 1'
_space_group_name_H-M_alt        'P -1'
_symmetry_space_group_name_Hall  '-P 1'
_symmetry_space_group_name_H-M   'P -1'
_atom_sites_solution_hydrogens   geom
_audit_creation_method           SHELXL-2013
_cell_angle_alpha                89.97(2)
_cell_angle_beta                 85.29(2)
_cell_angle_gamma                85.89(2)
_cell_formula_units_Z            2
_cell_length_a                   7.074(2)
_cell_length_b                   7.694(2)
_cell_length_c                   14.664(3)
_cell_measurement_reflns_used    4677
_cell_measurement_temperature    100(2)
_cell_measurement_theta_max      25.31
_cell_measurement_theta_min      2.65
_cell_volume                     793.4(3)
_computing_structure_refinement  'SHELXL-2013 (Sheldrick, 2013)'
_diffrn_ambient_temperature      100(2)
_diffrn_measured_fraction_theta_full 0.995
_diffrn_measured_fraction_theta_max 0.993
_diffrn_measurement_device_type  'Smart APEX II Ultra'
_diffrn_measurement_method       'omega scans'
_diffrn_radiation_monochromator  mirror
_diffrn_radiation_source         'INCOATEC Mo Microsource'
_diffrn_radiation_type           MoK\a
_diffrn_radiation_wavelength     0.71073
_diffrn_reflns_av_R_equivalents  0.0476
_diffrn_reflns_av_unetI/netI     0.0383
_diffrn_reflns_Laue_measured_fraction_full 0.995
_diffrn_reflns_Laue_measured_fraction_max 0.993
_diffrn_reflns_limit_h_max       8
_diffrn_reflns_limit_h_min       -8
_diffrn_reflns_limit_k_max       9
_diffrn_reflns_limit_k_min       -9
_diffrn_reflns_limit_l_max       17
_diffrn_reflns_limit_l_min       0
_diffrn_reflns_number            21727
_diffrn_reflns_point_group_measured_fraction_full 0.995
_diffrn_reflns_point_group_measured_fraction_max 0.993
_diffrn_reflns_theta_full        25.242
_diffrn_reflns_theta_max         25.376
_diffrn_reflns_theta_min         1.393
_exptl_absorpt_coefficient_mu    0.555
_exptl_absorpt_correction_T_max  0.914277
_exptl_absorpt_correction_T_min  0.754357
_exptl_absorpt_correction_type   multi-scan
_exptl_absorpt_process_details   TWINABS-2008/2
_exptl_crystal_colour            yellow
_exptl_crystal_density_diffrn    1.502
_exptl_crystal_description       block
_exptl_crystal_F_000             368
_exptl_crystal_size_max          0.110
_exptl_crystal_size_mid          0.110
_exptl_crystal_size_min          0.080
_refine_diff_density_max         0.309
_refine_diff_density_min         -0.340
_refine_diff_density_rms         0.062
_refine_ls_extinction_method     none
_refine_ls_goodness_of_fit_ref   1.054
_refine_ls_hydrogen_treatment    constr
_refine_ls_matrix_type           full
_refine_ls_number_parameters     209
_refine_ls_number_reflns         2882
_refine_ls_number_restraints     32
_refine_ls_restrained_S_all      1.050
_refine_ls_R_factor_all          0.0453
_refine_ls_R_factor_gt           0.0348
_refine_ls_shift/su_max          0.001
_refine_ls_shift/su_mean         0.000
_refine_ls_structure_factor_coef Fsqd
_refine_ls_weighting_details
;
 w=1/[\s^2^(Fo^2^)+(0.0326P)^2^+0.6194P]
 where P=(Fo^2^+2Fc^2^)/3
;
_refine_ls_weighting_scheme      calc
_refine_ls_wR_factor_gt          0.0761
_refine_ls_wR_factor_ref         0.0801
_reflns_Friedel_coverage         0.000
_reflns_number_gt                2502
_reflns_number_total             2882
_reflns_threshold_expression     'I > 2\s(I)'
_cod_data_source_file            c4dt01008f2.cif
_cod_data_source_block           ddauer_6
_cod_depositor_comments
'Adding full bibliography for 7031030--7031038.cif.'
_cod_database_code               7031035
#BEGIN Tags that were not found in dictionaries:
_shelx_space_group_comment
;
The symmetry employed for this shelxl refinement is uniquely defined
by the following loop, which should always be used as a source of
symmetry information in preference to the above space-group names.
They are only intended as comments.
;
_shelx_estimated_absorpt_t_min   0.941
_shelx_estimated_absorpt_t_max   0.957
_shelxl_version_number           2013-2
_shelx_res_file
;
REM Solution 1  R1  0.105,  Alpha = 0.0843  in P-1
REM C15 N3 Al S2 Cl
TITL twin4 in P-1
CELL  0.71073   7.074   7.694  14.664   89.97   85.29   85.89
ZERR    2.00   0.002   0.002   0.003   0.02   0.02   0.02
LATT  1
SFAC C H N AL S CL
UNIT 32 24 4 2 4 2
TEMP -173.000
SIZE 0.11 0.11 0.08
L.S. 10
BOND $H
LIST 4
FMAP 2
PLAN 20
EADP C16 CL1'
EADP C16' CL1
SAME C1 c9 > N2
SADI Al1 C16 Al1 C16'
SADI Al1 Cl1 Al1 Cl1'
mpla 10 c2 s1 c3 c4 c5 c6 c7 c8 n1 c1
mpla c2 c1 c9
mpla 10 c9 s2 c10 c11 c12 c13 c14 c15 n2 c1
mpla 5 n1 c2 c1 c9 n2 al1
conf
OMIT 7   0   0
OMIT  2  -2   6
OMIT 0   3   0
OMIT 0   6   0
OMIT 6   0   6
OMIT 3   0   3
OMIT 0   4   0
OMIT 0   3   9
OMIT 0  -3   6
OMIT 6   3   0
ACTA
WGHT    0.032600    0.619400
BASF   0.11743
FVAR       0.56430   0.70522
C1    1    0.224433    1.201413    0.285091    11.00000    0.01995    0.00995 =
         0.01826    0.00084   -0.00275   -0.00141
AFIX  43
H1    2    0.209887    1.324106    0.293917    11.00000   -1.20000
AFIX   0
C2    1    0.238723    1.097063    0.361764    11.00000    0.01325    0.01358 =
         0.01688   -0.00028   -0.00223   -0.00161
S1    5    0.229029    1.188159    0.470901    11.00000    0.02213    0.01171 =
         0.01525   -0.00083   -0.00295    0.00007
C3    1    0.252719    0.981051    0.519404    11.00000    0.01261    0.01338 =
         0.01778    0.00094   -0.00066    0.00006
C4    1    0.254970    0.938278    0.611564    11.00000    0.01749    0.01939 =
         0.01722   -0.00096   -0.00199    0.00109
AFIX  43
H4    2    0.246616    1.026342    0.657396    11.00000   -1.20000
AFIX   0

C5    1    0.269834    0.762555    0.634535    11.00000    0.02158    0.02066 =
         0.01482    0.00434   -0.00175    0.00077
AFIX  43
H5    2    0.269534    0.729849    0.697023    11.00000   -1.20000
AFIX   0
C6    1    0.285140    0.634176    0.566887    11.00000    0.02062    0.01331 =
         0.01965    0.00484   -0.00169   -0.00013
AFIX  43
H6    2    0.296519    0.514968    0.583909    11.00000   -1.20000
AFIX   0
C7    1    0.284053    0.677444    0.474985    11.00000    0.01773    0.01271 =
         0.01716   -0.00063   -0.00266   -0.00052
AFIX  43
H7    2    0.294226    0.589239    0.429177    11.00000   -1.20000
AFIX   0
C8    1    0.267695    0.853277    0.451354    11.00000    0.00816    0.01639 =
         0.01521    0.00149   -0.00250   -0.00065
N1    3    0.259932    0.919333    0.361981    11.00000    0.01484    0.01151 =
         0.01453    0.00063   -0.00239   -0.00124
C9    1    0.230067    1.137699    0.196269    11.00000    0.01061    0.01446 =
         0.01926    0.00452   -0.00225   -0.00154
S2    5    0.210835    1.278956    0.103648    11.00000    0.02855    0.01418 =
         0.01608    0.00442   -0.00467   -0.00383
C10   1    0.234251    1.103271    0.027534    11.00000    0.01188    0.01829 =
         0.02002    0.00132   -0.00145   -0.00239
C11   1    0.232384    1.106427   -0.067239    11.00000    0.01912    0.02828 =
         0.01571    0.00769   -0.00213   -0.00385
AFIX  43
H11   2    0.216619    1.213494   -0.098970    11.00000   -1.20000
AFIX   0

C12   1    0.254122    0.949329   -0.113904    11.00000    0.02138    0.03688 =
         0.01304    0.00079   -0.00060   -0.00352
AFIX  43
H12   2    0.255110    0.948447   -0.178724    11.00000   -1.20000
AFIX   0
C13   1    0.274663    0.791807   -0.067093    11.00000    0.02191    0.02399 =
         0.01834   -0.00465   -0.00111    0.00026
AFIX  43
H13   2    0.289004    0.685332   -0.100553    11.00000   -1.20000
AFIX   0
C14   1    0.274444    0.788477    0.027277    11.00000    0.01782    0.01765 =
         0.01929   -0.00028   -0.00270    0.00050
AFIX  43
H14   2    0.287783    0.680961    0.058803    11.00000   -1.20000
AFIX   0
C15   1    0.254219    0.946339    0.075201    11.00000    0.01152    0.01984 =
         0.01391    0.00381   -0.00152   -0.00068
SAME N1 Al1 C16' CL1'
N2    3    0.251532    0.966582    0.170690    11.00000    0.01217    0.01333 =
         0.01468   -0.00084   -0.00150    0.00008
AL1   4    0.259905    0.780665    0.255394    11.00000    0.01762    0.01107 =
         0.01348    0.00074   -0.00275    0.00024
PART 1 21.00
C16   1    0.488259    0.618218    0.233051    21.00000    0.01932    0.01729 =
         0.02114    0.00266   -0.00101    0.00228
AFIX  37
H16A  2    0.506863    0.588314    0.167822    21.00000   -1.50000
H16B  2    0.471414    0.512033    0.268844    21.00000   -1.50000
H16C  2    0.599776    0.673724    0.251403    21.00000   -1.50000
AFIX   0

CL1   6    0.002075    0.655034    0.260970    21.00000    0.01476    0.01593 =
         0.02332    0.00124   -0.00307   -0.00257
PART 2 -21.00
CL1'  6    0.500266    0.611906    0.236983   -21.00000    0.01932    0.01729 =
         0.02114    0.00266   -0.00101    0.00228
C16'  1    0.014871    0.661720    0.261445   -21.00000    0.01476    0.01593 =
         0.02332    0.00124   -0.00307   -0.00257
AFIX  37
H16D  2    0.002857    0.592963    0.317631   -21.00000   -1.50000
H16E  2    0.014932    0.584670    0.208246   -21.00000   -1.50000
H16F  2   -0.092467    0.749619    0.261404   -21.00000   -1.50000
PART 0

AFIX   0
HKLF 5

REM  twin4 in P-1
REM R1 =  0.0348 for    2502 Fo > 4sig(Fo)  and  0.0453 for all    2882 data
REM    209 parameters refined using     32 restraints

END

WGHT      0.0326      0.6194

REM Highest difference peak  0.309,  deepest hole -0.340,  1-sigma level  0.062
Q1    1   0.2029  1.1893  0.0644  11.00000  0.05    0.31
Q2    1   0.2545  1.0412  0.1838  11.00000  0.05    0.30
Q3    1   0.2342  0.8617  0.3176  11.00000  0.05    0.29
Q4    1   0.2173  0.8725  0.0558  11.00000  0.05    0.27
Q5    1   0.1400  0.7086  0.2531  11.00000  0.05    0.25
Q6    1   0.2153  1.2052  0.1601  11.00000  0.05    0.25
Q7    1   0.4417  0.5164  0.1819  11.00000  0.05    0.25
Q8    1   0.2845  0.9160  0.4860  11.00000  0.05    0.24
Q9    1   0.2256  1.1340  0.4086  11.00000  0.05    0.23
Q10   1   0.2192  0.6663 -0.0987  11.00000  0.05    0.23
Q11   1   0.2525  0.8853  0.1994  11.00000  0.05    0.22
Q12   1   0.4225  1.1822 -0.1518  11.00000  0.05    0.22
Q13   1   0.3003  0.9580  0.5636  11.00000  0.05    0.21
Q14   1   0.2381  1.1599  0.2407  11.00000  0.05    0.21
Q15   1   0.5957  0.6468  0.1871  11.00000  0.05    0.21
Q16   1   0.2400  1.1024 -0.0143  11.00000  0.05    0.21
Q17   1   0.6086  0.5064  0.1830  11.00000  0.05    0.20
Q18   1   0.1677  0.6441  0.2562  11.00000  0.05    0.20
Q19   1   0.2679  0.9366  0.1232  11.00000  0.05    0.20
Q20   1   0.2157  1.0291  0.0548  11.00000  0.05    0.20
;
_shelx_res_checksum              1278
_shelx_hkl_file
;
   1   0   0 23.2505 1.09822   1
   2   0   0 9999.99 157.020   1
   3   0   0 1.65070 0.65450   1
   4   0   0 5536.31 76.0444   1
   5   1   2 79.0130 4.83764  -2
   5   0   0 79.0130 4.83764   1
   6   1   2 675.159 10.4902  -2
   6   0   0 675.159 10.4902   1
   7   1   2 94.9610 5.73831  -2
   7   0   0 94.9610 5.73831   1
   8   1   3 462.677 9.20444  -2
   8   0   0 462.677 9.20444   1
   8   2   3 90.6027 5.60672  -2
  -8   1   0 90.6027 5.60672   1
   7   2   2 -3.7873 4.52028  -2
  -7   1   0 -3.7873 4.52028   1
   6   2   2 4.61886 2.11070  -2
  -6   1   0 4.61886 2.11070   1
   5   2   2 3.82229 7.14557  -2
  -5   1   0 3.82229 7.14557   1
  -4   1   0 44.2806 1.83511   1
  -3   1   0 2.92531 0.83740   1
  -2   1   0 1324.75 18.9801   1
  -1   1   0 15.8848 0.64037   1
   0   1   0 2165.61 23.0161  -2
   0   1   0 2165.61 23.0161   1
  -1   1   0 58.7832 1.88093  -2
   1   1   0 58.7832 1.88093   1
   2   1   0 6916.76 73.4305   1
   3   1   0 63.7332 1.55928   1
   4   1   0 2210.68 28.3357   1
   5   0   2 46.0574 4.23777  -2
   5   1   0 46.0574 4.23777   1
   6   0   2 1998.96 28.3661  -2
   6   1   0 1998.96 28.3661   1
   7   0   2 52.8069 5.01499  -2
   7   1   0 52.8069 5.01499   1
   8   0   3 569.582 10.6231  -2
   8   1   0 569.582 10.6231   1
   8   3   3 29.2424 5.06916  -2
  -8   2   0 29.2424 5.06916   1
   6   3   2 76.7745 3.44256  -2
  -6   2   0 76.7745 3.44256   1
   5   3   2 46.0335 8.84002  -2
  -5   2   0 46.0335 8.84002   1
  -4   2   0 281.944 5.69891   1
  -3   2   0 1.40288 0.70656   1
  -2   2   0 473.829 6.58665   1
  -1   2   0 18.7245 0.71925   1
   0   2   0 1076.18 12.7924  -2
   0   2   0 1076.18 12.7924   1
  -1   2   0 149.313 3.45728  -2
   1   2   0 149.313 3.45728   1
   2   2   0 195.500 2.42355   1
   3   2   0 1.66912 0.53369   1
   4   2   0 47.6558 1.63354   1
   5  -1   2 94.5571 4.75629  -2
   5   2   0 94.5571 4.75629   1
   6  -1   2 46.4451 2.44661  -2
   6   2   0 46.4451 2.44661   1
   7  -1   2 13.5239 8.06055  -2
   7   2   0 13.5239 8.06055   1
   8  -1   3 52.6788 3.93487  -2
   8   2   0 52.6788 3.93487   1
   6   4   2 53.7571 3.60641  -2
  -6   3   0 53.7571 3.60641   1
   5   4   2 -1.8127 4.22756  -2
  -5   3   0 -1.8127 4.22756   1
  -4   3   0 57.0249 1.79147   1
  -3   3   0 126.543 2.45148   1
  -2   3   0 179.267 2.96943   1
   1   3   0 43.9390 2.82331  -2
  -1   3   0 43.9390 2.82331   1
   0   3   0 99.6287 1.75955  -2
   0   3   0 99.6287 1.75955   1
  -1   3   0 193.300 5.23897  -2
   1   3   0 193.300 5.23897   1
   2   3   0 555.876 6.56066   1
   3   3   0 17.8157 0.75527   1
   4   3   0 32.8680 1.31056   1
   5   3   0 5.69799 1.02008   1
   6  -2   2 400.926 7.45296  -2
   6   3   0 400.926 7.45296   1
   7  -2   2 67.2689 8.79700  -2
   7   3   0 67.2689 8.79700   1
   8  -2   3 24.8653 3.80361  -2
   8   3   0 24.8653 3.80361   1
   6   5   2 103.340 3.90583  -2
  -6   4   0 103.340 3.90583   1
   5   5   2 26.9506 3.75170  -2
  -5   4   0 26.9506 3.75170   1
  -4   4   0 3.75505 0.95863   1
  -3   4   0 18.7708 1.09642   1
  -2   4   0 300.532 4.24104   1
   1   4   0 100.484 3.06529  -2
  -1   4   0 100.484 3.06529   1
   0   4   0 11.5858 0.89900  -2
   0   4   0 11.5858 0.89900   1
  -1   4   0 95.7628 3.77653  -2
   1   4   0 95.7628 3.77653   1
   2   4   0 299.602 4.38692   1
   3   4   0 99.7356 1.78073   1
   4   4   0 4.74440 0.75406   1
   5  -3   2 88.5305 7.06509  -2
   5   4   0 88.5305 7.06509   1
   6  -3   2 51.7537 2.81264  -2
   6   4   0 51.7537 2.81264   1
   7  -3   2 35.9907 8.44848  -2
   7   4   0 35.9907 8.44848   1
   6   6   2 10.3552 2.89991  -2
  -6   5   0 10.3552 2.89991   1
   5   6   2 272.035 6.35493  -2
  -5   5   0 272.035 6.35493   1
  -4   5   0 52.6912 2.37461   1
  -3   5   0 133.705 2.71299   1
  -2   5   0 9.34923 0.87553   1
   1   5   0 388.135 8.15897  -2
  -1   5   0 388.135 8.15897   1
   0   5   0 76.6725 1.65146  -2
   0   5   0 76.6725 1.65146   1
  -1   5   0 107.139 4.26533  -2
   1   5   0 107.139 4.26533   1
   2   5   0 25.2179 1.05731   1
   3   5   0 175.982 3.15106   1
   4   5   0 71.2347 2.08488   1
   5  -4   2 8.27339 6.10822  -2
   5   5   0 8.27339 6.10822   1
   6  -4   2 31.4975 2.61622  -2
   6   5   0 31.4975 2.61622   1
   7  -4   2 83.1669 9.16411  -2
   7   5   0 83.1669 9.16411   1
   6   7   2 35.2833 5.65133  -2
  -6   6   0 35.2833 5.65133   1
   5   7   2 10.3314 12.2234  -2
  -5   6   0 10.3314 12.2234   1
  -4   6   0 2.21451 1.30768   1
  -3   6   0 466.639 7.69168   1
  -2   6   0 51.7113 1.87730   1
   1   6   0 305.271 7.06907  -2
  -1   6   0 305.271 7.06907   1
   0   6   0 24.5939 1.34570  -2
   0   6   0 24.5939 1.34570   1
  -1   6   0 717.370 17.0033  -2
   1   6   0 717.370 17.0033   1
   2   6   0 51.4548 1.73382   1
   3   6   0 97.5100 2.37479   1
   4   6   0 3.38330 1.11106   1
   5  -5   2 259.186 6.90384  -2
   5   6   0 259.186 6.90384   1
   6  -5   2 20.4680 2.77639  -2
   6   6   0 20.4680 2.77639   1
  -5   7   0 -1.2276 1.89748   1
  -4   7   0 177.249 4.72139   1
  -3   7   0 30.2753 1.78293   1
  -2   7   0 27.9377 1.60976   1
   1   7   0 14.5859 2.87953  -2
  -1   7   0 14.5859 2.87953   1
   0   7   0 248.456 4.32640  -2
   0   7   0 248.456 4.32640   1
  -1   7   0 5.49110 2.58345  -2
   1   7   0 5.49110 2.58345   1
   2   7   0 16.5375 1.57228   1
   3   7   0 128.448 3.29422   1
   4   7   0 128.295 3.46232   1
   5  -6   2 43.3960 5.33399  -2
   5   7   0 43.3960 5.33399   1
   6  -6   2 10.5768 6.47748  -2
   6   7   0 10.5768 6.47748   1
  -3   8   0 23.6743 2.39733   1
  -2   8   0 65.2540 3.06438   1
   1   8   0 31.5088 3.94865  -2
  -1   8   0 31.5088 3.94865   1
   0   8   0 23.3435 2.29909  -2
   0   8   0 23.3435 2.29909   1
  -1   8   0 90.6220 4.48015  -2
   1   8   0 90.6220 4.48015   1
   2   8   0 46.5177 2.56029   1
   3   8   0 11.2709 1.66829   1
   4   8   0 8.94154 1.78484   1
   1   9   0 38.3723 4.32368  -2
  -1   9   0 38.3723 4.32368   1
   0   9   0 -0.5269 2.51024  -2
   0   9   0 -0.5269 2.51024   1
  -1   9   0 132.719 9.17105  -2
   1   9   0 132.719 9.17105   1
   2   9   0 5.07925 2.22197   1
  -2  -9   1 8.08289 2.00594   1
   1  -9   1 65.9413 7.69574  -2
  -1  -9   1 65.9413 7.69574   1
   0  -9   1 28.7856 3.06541  -2
   0  -9   1 28.7856 3.06541   1
  -1  -9   1 22.6191 4.34610  -2
   1  -9   1 22.6191 4.34610   1
  -4  -8   1 132.765 4.10243   1
  -3  -8   1 19.7043 1.87264   1
  -2  -8   1 66.8310 3.05365   1
   1  -8   1 22.3233 3.48512  -2
  -1  -8   1 22.3233 3.48512   1
   0  -8   1 195.929 4.85872  -2
   0  -8   1 195.929 4.85872   1
  -1  -8   1 162.044 4.50997  -2
   1  -8   1 162.044 4.50997   1
   2  -8   1 22.7103 1.96645   1
   3  -8   1 14.6348 2.17117   1
   5  -6   3 27.0755 4.18196  -2
  -5  -7   1 27.0755 4.18196   1
  -4  -7   1 21.7461 1.85594   1
  -3  -7   1 252.869 4.94692   1
  -2  -7   1 0.81809 1.14884   1
   1  -7   1 55.7296 3.47437  -2
  -1  -7   1 55.7296 3.47437   1
   0  -7   1 42.5990 2.42926  -2
   0  -7   1 42.5990 2.42926   1
  -1  -7   1 141.204 5.03856  -2
   1  -7   1 141.204 5.03856   1
   2  -7   1 63.7681 2.49293   1
   3  -7   1 2.91547 1.52521   1
   4  -7   1 77.0834 3.29392   1
   5  -7   1 1.30959 1.78453   1
   6  -5   3 63.7390 3.75396  -2
  -6  -6   1 63.7390 3.75396   1
   5  -5   3 12.8411 4.73641  -2
  -5  -6   1 12.8411 4.73641   1
  -4  -6   1 454.963 6.80807   1
  -3  -6   1 41.3681 1.65028   1
  -2  -6   1 224.037 3.49955   1
   1  -6   1 182.896 5.13529  -2
  -1  -6   1 182.896 5.13529   1
   0  -6   1 661.948 8.41326  -2
   0  -6   1 661.948 8.41326   1
  -1  -6   1 245.439 7.45401  -2
   1  -6   1 245.439 7.45401   1
   2  -6   1 60.6586 2.36361   1
   3  -6   1 215.948 4.78575   1
   4  -6   1 139.900 3.49505   1
   5   7   1 154.738 4.64297  -2
   5  -6   1 154.738 4.64297   1
   6   7   1 5.39848 3.93728  -2
   6  -6   1 5.39848 3.93728   1
   6  -4   3 20.6004 2.60629  -2
  -6  -5   1 20.6004 2.60629   1
   5  -4   3 22.2329 4.20695  -2
  -5  -5   1 22.2329 4.20695   1
  -4  -5   1 18.0336 1.24668   1
  -3  -5   1 81.6766 1.74380   1
  -2  -5   1 267.252 3.84605   1
   1  -5   1 8.87403 2.38586  -2
  -1  -5   1 8.87403 2.38586   1
   0  -5   1 45.2784 1.30725  -2
   0  -5   1 45.2784 1.30725   1
  -1  -5   1 3.57030 2.20477  -2
   1  -5   1 3.57030 2.20477   1
   2   5   0 668.857 20.8660  -2
   2  -5   1 668.857 20.8660   1
   3  -5   1 153.929 3.31393   1
   4  -5   1 96.9771 3.07615   1
   5   6   1 60.4420 4.56034  -2
   5  -5   1 60.4420 4.56034   1
   6   6   1 301.078 6.73324  -2
   6  -5   1 301.078 6.73324   1
   7  -3   3 -4.0214 7.66615  -2
  -7  -4   1 -4.0214 7.66615   1
   6  -3   3 60.0543 2.91211  -2
  -6  -4   1 60.0543 2.91211   1
   5  -3   3 126.264 7.96138  -2
  -5  -4   1 126.264 7.96138   1
  -4  -4   1 24.7839 0.99608   1
  -3  -4   1 28.0534 0.98069   1
  -2  -4   1 219.058 3.16812   1
   1  -4   1 466.870 9.36776  -2
  -1  -4   1 466.870 9.36776   1
   0  -4   1 52.5138 1.27208  -2
   0  -4   1 52.5138 1.27208   1
  -1  -4   1 153.374 4.03501  -2
   1  -4   1 153.374 4.03501   1
   2  -4   1 113.863 2.17664   1
   3  -4   1 192.305 3.59618   1
   4  -4   1 1.50369 0.98085   1
   5   5   1 38.3074 3.32477  -2
   5  -4   1 38.3074 3.32477   1
   6   5   1 3.59098 3.17369  -2
   6  -4   1 3.59098 3.17369   1
   8  -2   4 12.4299 3.78687  -2
  -8  -3   1 12.4299 3.78687   1
   7  -2   3 17.3200 8.02920  -2
  -7  -3   1 17.3200 8.02920   1
   6  -2   3 26.3833 2.48058  -2
  -6  -3   1 26.3833 2.48058   1
   5  -2   3 13.9699 5.58337  -2
  -5  -3   1 13.9699 5.58337   1
  -4  -3   1 18.3594 0.93863   1
  -3  -3   1 94.9116 1.69427   1
  -2  -3   1 39.5946 1.10006   1
   1  -3   1 187.248 4.40909  -2
  -1  -3   1 187.248 4.40909   1
   0  -3   1 33.0736 0.97618  -2
   0  -3   1 33.0736 0.97618   1
  -1  -3   1 406.802 8.08920  -2
   1  -3   1 406.802 8.08920   1
   2  -3   1 205.917 3.50458   1
   3  -3   1 219.161 3.16247   1
   4  -3   1 18.4188 1.00529   1
   5   4   1 186.231 7.59610  -2
   5  -3   1 186.231 7.59610   1
   6   4   1 137.643 6.34433  -2
   6  -3   1 137.643 6.34433   1
   8  -1   4 100.131 4.47230  -2
  -8  -2   1 100.131 4.47230   1
   7  -1   3 10.7017 7.59232  -2
  -7  -2   1 10.7017 7.59232   1
   6  -1   3 4.82257 2.04358  -2
  -6  -2   1 4.82257 2.04358   1
   5  -1   3 2.23995 3.54875  -2
  -5  -2   1 2.23995 3.54875   1
  -4  -2   1 246.373 3.84555   1
  -3  -2   1 31.1918 1.04901   1
  -2  -2   1 157.601 2.18328   1
   1  -2   1 5.51369 1.82775  -2
  -1  -2   1 5.51369 1.82775   1
   0  -2   1 366.839 4.80482  -2
   0  -2   1 366.839 4.80482   1
  -1  -2   1 47.2800 3.53993  -2
   1  -2   1 47.2800 3.53993   1
   2  -2   1 495.197 7.50661   1
   3  -2   1 4.86984 0.63380   1
   4  -2   1 49.6019 1.52147   1
   5   3   1 59.6192 3.27144  -2
   5  -2   1 59.6192 3.27144   1
   6   3   1 69.1094 4.63662  -2
   6  -2   1 69.1094 4.63662   1
   8   3   2 40.4844 5.24969  -2
   8  -2   1 40.4844 5.24969   1
   8   0   4 86.9597 4.44736  -2
  -8  -1   1 86.9597 4.44736   1
   7   0   3 167.241 11.2916  -2
  -7  -1   1 167.241 11.2916   1
   6   0   3 19.6259 2.21574  -2
  -6  -1   1 19.6259 2.21574   1
   5   0   3 61.3969 4.33660  -2
  -5  -1   1 61.3969 4.33660   1
  -4  -1   1 40.1289 1.41285   1
  -3  -1   1 187.945 3.34062   1
  -2  -1   1 701.033 9.39804   1
   1  -1   1 13.7338 1.54720  -2
  -1  -1   1 13.7338 1.54720   1
   0  -1   1 0.48439 0.37242  -2
   0  -1   1 0.48439 0.37242   1
   1  -1   1 35.9259 0.87328   1
   2  -1   1 579.123 7.62272   1
   3  -1   1 1.68722 0.64962   1
   4  -1   1 68.9491 2.17163   1
   5   2   1 11.2507 3.45640  -2
   5  -1   1 11.2507 3.45640   1
   6   2   1 20.0811 2.68591  -2
   6  -1   1 20.0811 2.68591   1
   7   2   1 -5.7448 4.54152  -2
   7  -1   1 -5.7448 4.54152   1
   8   2   2 22.9160 5.02408  -2
   8  -1   1 22.9160 5.02408   1
   8   1   4 27.6768 3.88306  -2
  -8   0   1 27.6768 3.88306   1
   7   1   3 96.0936 4.79878  -2
  -7   0   1 96.0936 4.79878   1
   6   1   3 85.8090 3.30395  -2
  -6   0   1 85.8090 3.30395   1
   5   1   3 335.234 9.54200  -2
  -5   0   1 335.234 9.54200   1
  -4   0   1 130.515 3.14063   1
  -3   0   1 883.417 16.0689   1
  -2   0   1 168.728 3.58620   1
  -1   0   1 1425.94 18.9898   1
   0   0   1 53.1678 0.51514  -2
   0   0   1 53.1678 0.51514   1
   1   0   1 1199.47 16.9003   1
   2   0   1 2.95667 0.61433   1
   3   0   1 198.438 3.37473   1
   4   0   1 9.03558 0.93134   1
   5   1   1 114.754 4.89133  -2
   5   0   1 114.754 4.89133   1
   6   1   1 3.02148 2.23972  -2
   6   0   1 3.02148 2.23972   1
   7   1   1 28.9221 4.81237  -2
   7   0   1 28.9221 4.81237   1
   8   1   2 19.6397 3.88936  -2
   8   0   1 19.6397 3.88936   1
   8   2   4 57.5817 5.28396  -2
  -8   1   1 57.5817 5.28396   1
   7   2   3 56.1710 5.30905  -2
  -7   1   1 56.1710 5.30905   1
   6   2   3 52.9176 2.95973  -2
  -6   1   1 52.9176 2.95973   1
   5   2   3 13.3140 6.61548  -2
  -5   1   1 13.3140 6.61548   1
  -4   1   1 42.7453 2.23334   1
  -3   1   1 5.17067 1.12214   1
  -2   1   1 495.830 7.40871   1
  -1   1   1 521.375 6.95488   1
   0   1   1 37.9308 0.55287  -2
   0   1   1 37.9308 0.55287   1
   1   1   1 487.810 6.76488   1
   2   1   1 505.969 6.33184   1
   3   1   1 872.737 12.4224   1
   4   1   1 40.4774 1.52071   1
   5   0   1 158.276 9.10494  -2
   5   1   1 158.276 9.10494   1
   6   0   1 33.2335 2.58068  -2
   6   1   1 33.2335 2.58068   1
   7   0   1 168.830 8.63367  -2
   7   1   1 168.830 8.63367   1
   8   0   2 31.1492 4.39897  -2
   8   1   1 31.1492 4.39897   1
   8   3   4 -4.2652 4.11133  -2
  -8   2   1 -4.2652 4.11133   1
   7   3   3 6.86769 9.51481  -2
  -7   2   1 6.86769 9.51481   1
   6   3   3 231.751 6.57890  -2
  -6   2   1 231.751 6.57890   1
   5   3   3 184.986 11.8362  -2
  -5   2   1 184.986 11.8362   1
  -4   2   1 6.88816 1.13658   1
  -3   2   1 303.965 4.59294   1
  -2   2   1 421.289 5.91482   1
   1   2   1 1015.93 33.1267  -2
  -1   2   1 1015.93 33.1267   1
   0   2   1 426.098 4.48495  -2
   0   2   1 426.098 4.48495   1
  -1   2   1 578.345 10.8335  -2
   1   2   1 578.345 10.8335   1
   2   2   1 151.483 2.08796   1
   3   2   1 269.160 3.67221   1
   4   2   1 152.439 2.68182   1
   5  -1   1 7.00726 3.67404  -2
   5   2   1 7.00726 3.67404   1
   6  -1   1 30.3437 2.27992  -2
   6   2   1 30.3437 2.27992   1
   7  -1   1 3.96168 7.78317  -2
   7   2   1 3.96168 7.78317   1
   8  -1   2 29.8372 3.78085  -2
   8   2   1 29.8372 3.78085   1
   7   4   3 83.1240 11.5609  -2
  -7   3   1 83.1240 11.5609   1
   6   4   3 18.2587 3.12661  -2
  -6   3   1 18.2587 3.12661   1
   5   4   3 106.135 5.66918  -2
  -5   3   1 106.135 5.66918   1
  -4   3   1 113.953 2.49190   1
  -3   3   1 122.721 2.41010   1
  -2   3   1 15.6263 0.85713   1
   1   3   1 2.44234 1.71954  -2
  -1   3   1 2.44234 1.71954   1
   0   3   1 350.418 4.00953  -2
   0   3   1 350.418 4.00953   1
  -1   3   1 4.68504 1.85944  -2
   1   3   1 4.68504 1.85944   1
   2   3   1 1.25147 0.31058   1
   3   3   1 245.565 3.26746   1
   4   3   1 25.5370 1.18281   1
   5   3   1 110.551 2.61916   1
   6  -2   1 29.2415 2.53064  -2
   6   3   1 29.2415 2.53064   1
   7  -2   1 143.513 10.3195  -2
   7   3   1 143.513 10.3195   1
   8  -2   2 -2.8147 3.59121  -2
   8   3   1 -2.8147 3.59121   1
   6   5   3 57.4770 4.18120  -2
  -6   4   1 57.4770 4.18120   1
   5   5   3 164.942 5.45170  -2
  -5   4   1 164.942 5.45170   1
  -4   4   1 3.14888 0.95918   1
  -3   4   1 114.521 2.44364   1
  -2   4   1 11.8784 0.80000   1
   1   4   1 1007.80 18.7135  -2
  -1   4   1 1007.80 18.7135   1
   0   4   1 110.225 1.89054  -2
   0   4   1 110.225 1.89054   1
  -1   4   1 405.969 8.22524  -2
   1   4   1 405.969 8.22524   1
   2   4   1 24.1531 0.88739   1
   3   4   1 622.669 7.41926   1
   4   4   1 114.586 2.49579   1
   5  -3   1 52.5102 6.48310  -2
   5   4   1 52.5102 6.48310   1
   6  -3   1 24.8677 2.54650  -2
   6   4   1 24.8677 2.54650   1
   7  -3   1 93.4784 9.13391  -2
   7   4   1 93.4784 9.13391   1
   6   6   3 20.1268 3.61331  -2
  -6   5   1 20.1268 3.61331   1
   5   6   3 131.410 5.23226  -2
  -5   5   1 131.410 5.23226   1
  -4   5   1 157.511 3.26356   1
  -3   5   1 5.70185 0.90283   1
   2   5   2 13.2956 4.21076  -2
  -2   5   1 13.2956 4.21076   1
   1   5   1 54.0646 2.73354  -2
  -1   5   1 54.0646 2.73354   1
   0   5   1 267.573 3.76171  -2
   0   5   1 267.573 3.76171   1
  -1   5   1 119.993 3.75421  -2
   1   5   1 119.993 3.75421   1
   2   5   1 7.62047 0.72429   1
   3   5   1 46.2628 1.65564   1
   4   5   1 36.5160 1.60274   1
   5  -4   1 294.798 9.28595  -2
   5   5   1 294.798 9.28595   1
   6  -4   1 59.5838 2.95280  -2
   6   5   1 59.5838 2.95280   1
   7  -4   1 70.0509 8.49452  -2
   7   5   1 70.0509 8.49452   1
   5   7   3 97.1728 6.81700  -2
  -5   6   1 97.1728 6.81700   1
  -4   6   1 64.0690 2.49673   1
  -3   6   1 196.484 4.05257   1
   2   6   2 69.9049 5.81487  -2
  -2   6   1 69.9049 5.81487   1
   1   6   1 423.875 9.05192  -2
  -1   6   1 423.875 9.05192   1
   0   6   1 7.77199 1.17731  -2
   0   6   1 7.77199 1.17731   1
  -1   6   1 338.543 7.64396  -2
   1   6   1 338.543 7.64396   1
   2   6   1 101.982 2.36025   1
   3   6   1 213.784 3.76794   1
   4   6   1 16.2564 1.36174   1
   5  -5   1 65.8215 4.30195  -2
   5   6   1 65.8215 4.30195   1
   6  -5   1 101.863 3.67343  -2
   6   6   1 101.863 3.67343   1
  -5   7   1 -1.5249 2.39267   1
  -4   7   1 18.2067 2.09625   1
  -3   7   1 114.527 3.29441   1
  -2   7   1 42.9593 1.85236   1
   1   7   1 74.1109 3.79200  -2
  -1   7   1 74.1109 3.79200   1
   0   7   1 58.2019 2.09632  -2
   0   7   1 58.2019 2.09632   1
  -1   7   1 383.459 7.23269  -2
   1   7   1 383.459 7.23269   1
   2   7   1 20.0382 1.37764   1
   3   7   1 97.0878 2.76103   1
   4   7   1 5.96257 1.33685   1
   5  -6   1 359.594 8.72480  -2
   5   7   1 359.594 8.72480   1
   6  -6   1 3.98348 3.95001  -2
   6   7   1 3.98348 3.95001   1
  -3   8   1 68.7915 3.39265   1
  -2   8   1 -1.5784 1.69092   1
   1   8   1 10.4111 3.70790  -2
  -1   8   1 10.4111 3.70790   1
   0   8   1 12.5668 2.53066  -2
   0   8   1 12.5668 2.53066   1
  -1   8   1 53.6769 6.76553  -2
   1   8   1 53.6769 6.76553   1
   2   8   1 15.0691 1.64047   1
   3   8   1 41.7272 2.25581   1
   4   8   1 -0.4846 1.55699   1
   1   9   1 98.6529 5.41763  -2
  -1   9   1 98.6529 5.41763   1
   0   9   1 3.47738 2.59399  -2
   0   9   1 3.47738 2.59399   1
  -1   9   1 64.1380 7.97409  -2
   1   9   1 64.1380 7.97409   1
   2   9   1 16.1183 2.53469   1
  -2  -9   2 4.79740 2.33055   1
   1  -9   2 23.9521 5.14805  -2
  -1  -9   2 23.9521 5.14805   1
   0  -9   2 31.4112 2.77057  -2
   0  -9   2 31.4112 2.77057   1
  -1  -9   2 22.4337 4.53996  -2
   1  -9   2 22.4337 4.53996   1
  -4  -8   2 5.11014 1.89539   1
  -3  -8   2 77.4610 3.09786   1
  -2  -8   2 11.8835 1.94804   1
   1  -8   2 134.894 6.42434  -2
  -1  -8   2 134.894 6.42434   1
   0  -8   2 6.86410 2.09010  -2
   0  -8   2 6.86410 2.09010   1
  -1  -8   2 49.3140 3.30234  -2
   1  -8   2 49.3140 3.30234   1
   2  -8   2 10.1289 1.63155   1
   3  -8   2 36.3897 2.34158   1
   5  -6   4 22.3272 4.40619  -2
  -5  -7   2 22.3272 4.40619   1
  -4  -7   2 -0.7338 1.55337   1
  -3  -7   2 5.66164 1.37831   1
  -2  -7   2 67.8801 2.40356   1
   1  -7   2 136.600 4.82332  -2
  -1  -7   2 136.600 4.82332   1
   0  -7   2 29.7350 2.07451  -2
   0  -7   2 29.7350 2.07451   1
  -1  -7   2 65.9388 3.47054  -2
   1  -7   2 65.9388 3.47054   1
   2  -7   2 17.8336 1.66557   1
   3  -7   2 115.655 3.79124   1
   4  -7   2 63.7161 3.12053   1
   5  -7   2 8.89939 2.18843   1
   6  -5   4 21.1776 3.33740  -2
  -6  -6   2 21.1776 3.33740   1
   5  -5   4 223.641 6.60905  -2
  -5  -6   2 223.641 6.60905   1
  -4  -6   2 14.2394 1.52484   1
  -3  -6   2 30.0869 1.69680   1
  -2  -6   2 1.48689 0.88151   1
   1  -6   2 208.686 5.60644  -2
  -1  -6   2 208.686 5.60644   1
   0  -6   2 111.249 2.15041  -2
   0  -6   2 111.249 2.15041   1
  -1  -6   2 30.2975 2.68004  -2
   1  -6   2 30.2975 2.68004   1
   2  -6   2 5.14012 1.11343   1
   3  -6   2 30.3515 1.74093   1
   4  -6   2 56.1332 2.35994   1
   5   7   0 35.3537 3.49912  -2
   5  -6   2 35.3537 3.49912   1
   6   7   0 12.1706 5.43769  -2
   6  -6   2 12.1706 5.43769   1
   6  -4   4 63.9921 3.07244  -2
  -6  -5   2 63.9921 3.07244   1
   5  -4   4 19.8308 4.18347  -2
  -5  -5   2 19.8308 4.18347   1
  -4  -5   2 1.53192 0.92219   1
  -3  -5   2 38.8915 1.32165   1
  -2  -5   2 13.4186 0.84985   1
   1  -5   2 53.2069 3.02777  -2
  -1  -5   2 53.2069 3.02777   1
   0  -5   2 16.2077 1.04652  -2
   0  -5   2 16.2077 1.04652   1
  -1  -5   2 213.264 5.37272  -2
   1  -5   2 213.264 5.37272   1
   2  -5   2 0.85575 0.85820   1
   3  -5   2 57.0263 2.07334   1
   4  -5   2 61.9891 2.33206   1
   5   6   0 98.9481 4.18929  -2
   5  -5   2 98.9481 4.18929   1
   6   6   0 11.8129 2.90392  -2
   6  -5   2 11.8129 2.90392   1
   7  -3   4 109.352 9.74790  -2
  -7  -4   2 109.352 9.74790   1
   6  -3   4 172.162 4.35606  -2
  -6  -4   2 172.162 4.35606   1
   5  -3   4 376.036 14.2189  -2
  -5  -4   2 376.036 14.2189   1
  -4  -4   2 2.57308 0.71028   1
  -3  -4   2 457.101 5.67560   1
  -2  -4   2 191.207 2.85267   1
   1  -4   2 715.219 13.7548  -2
  -1  -4   2 715.219 13.7548   1
   0  -4   2 100.802 1.75729  -2
   0  -4   2 100.802 1.75729   1
  -1  -4   2 385.019 7.99542  -2
   1  -4   2 385.019 7.99542   1
   2  -4   2 97.7639 1.98079   1
   3  -4   2 130.165 2.76660   1
   4  -4   2 69.6245 2.20472   1
   5   5   0 8.74889 3.05476  -2
   5  -4   2 8.74889 3.05476   1
   6   5   0 56.1719 3.87278  -2
   6  -4   2 56.1719 3.87278   1
  -8  -3   2 35.3176 2.68913   1
   7  -2   4 5.48746 7.90579  -2
  -7  -3   2 5.48746 7.90579   1
   6  -2   4 40.8284 2.40929  -2
  -6  -3   2 40.8284 2.40929   1
   5  -2   4 -0.7663 3.71787  -2
  -5  -3   2 -0.7663 3.71787   1
  -4  -3   2 229.476 3.47729   1
  -3  -3   2 254.564 3.40523   1
  -2  -3   2 7.17804 0.54850   1
   1  -3   2 495.546 11.6660  -2
  -1  -3   2 495.546 11.6660   1
   0  -3   2 505.493 6.61964  -2
   0  -3   2 505.493 6.61964   1
  -1  -3   2 1251.03 22.9735  -2
   1  -3   2 1251.03 22.9735   1
   2  -3   2 64.3248 1.63917   1
   3  -3   2 542.225 9.18588   1
   4  -3   2 59.1749 1.71344   1
   5   4   0 482.137 10.6447  -2
   5  -3   2 482.137 10.6447   1
   6   4   0 67.0535 3.89800  -2
   6  -3   2 67.0535 3.89800   1
   8  -1   5 45.9747 4.02309  -2
  -8  -2   2 45.9747 4.02309   1
   7  -1   4 70.9682 8.48008  -2
  -7  -2   2 70.9682 8.48008   1
   6  -1   4 18.4303 2.03338  -2
  -6  -2   2 18.4303 2.03338   1
   5  -1   4 71.8022 4.48126  -2
  -5  -2   2 71.8022 4.48126   1
  -4  -2   2 23.2606 1.03210   1
  -3  -2   2 310.910 4.64104   1
  -2  -2   2 32.2171 1.02286   1
   1  -2   2 240.365 5.06507  -2
  -1  -2   2 240.365 5.06507   1
   0  -2   2 44.0769 0.96232  -2
   0  -2   2 44.0769 0.96232   1
  -1  -2   2 217.310 8.33616  -2
   1  -2   2 217.310 8.33616   1
   2  -2   2 136.625 2.81798   1
   3  -2   2 4.02983 0.62261   1
   4  -2   2 27.6213 1.19572   1
   5   3   0 15.6542 2.80408  -2
   5  -2   2 15.6542 2.80408   1
   6   3   0 61.7165 4.50493  -2
   6  -2   2 61.7165 4.50493   1
   7   3   1 61.7084 7.07713  -2
   7  -2   2 61.7084 7.07713   1
   8   3   1 -7.8398 4.89768  -2
   8  -2   2 -7.8398 4.89768   1
   8   0   5 76.4714 3.96273  -2
  -8  -1   2 76.4714 3.96273   1
   7   0   4 -5.9058 5.29913  -2
  -7  -1   2 -5.9058 5.29913   1
   6   0   4 16.2064 2.29528  -2
  -6  -1   2 16.2064 2.29528   1
   5   0   4 0.05333 4.93130  -2
  -5  -1   2 0.05333 4.93130   1
  -4  -1   2 392.935 6.34404   1
  -3  -1   2 40.1498 1.33348   1
  -2  -1   2 17.7656 0.76814   1
   1  -1   2 89.3447 2.43643  -2
  -1  -1   2 89.3447 2.43643   1
   0  -1   2 815.156 10.8923  -2
   0  -1   2 815.156 10.8923   1
   1  -1   2 366.202 5.15430   1
   2  -1   2 135.840 2.33106   1
   3  -1   2 204.904 3.81960   1
   4  -1   2 12.4488 0.95803   1
   5   2   0 285.204 8.12702  -2
   5  -1   2 285.204 8.12702   1
   6   2   0 126.177 4.15923  -2
   6  -1   2 126.177 4.15923   1
   7   2   1 45.3896 7.08388  -2
   7  -1   2 45.3896 7.08388   1
   7   2   0 37.2810 4.90960  -2
   7  -1   2 37.2810 4.90960   1
   8   2   1 -5.1266 5.20966  -2
   8  -1   2 -5.1266 5.20966   1
   8   1   5 37.8887 3.73461  -2
  -8   0   2 37.8887 3.73461   1
   7   1   4 10.2392 4.69906  -2
  -7   0   2 10.2392 4.69906   1
   6   1   4 80.7028 3.18570  -2
  -6   0   2 80.7028 3.18570   1
   5   1   4 13.1945 3.96377  -2
  -5   0   2 13.1945 3.96377   1
  -4   0   2 26.1774 1.46624   1
  -3   0   2 34.3759 1.42257   1
  -2   0   2 1472.04 21.0028   1
   1   0   2 28.2162 1.56989  -2
  -1   0   2 28.2162 1.56989   1
   0   0   2 82.5775 0.82962  -2
   0   0   2 82.5775 0.82962   1
   1   0   2 162.386 2.52103   1
   2   0   2 2085.83 31.9451   1
   3   0   2 2.68135 0.74081   1
   4   0   2 6.17176 0.84625   1
   5   0   2 3.07056 0.98277   1
   6   1   0 449.742 8.11586  -2
   6   0   2 449.742 8.11586   1
   7   1   0 32.5203 4.81536  -2
   7   0   2 32.5203 4.81536   1
   7   1   1 62.8143 6.95274  -2
   7   0   2 62.8143 6.95274   1
   8   1   1 10.7722 3.81192  -2
   8   0   2 10.7722 3.81192   1
   8   2   5 17.2078 3.85136  -2
  -8   1   2 17.2078 3.85136   1
   7   2   4 32.7312 9.04056  -2
  -7   1   2 32.7312 9.04056   1
   6   2   4 36.8984 2.74936  -2
  -6   1   2 36.8984 2.74936   1
   5   2   4 17.2642 6.62933  -2
  -5   1   2 17.2642 6.62933   1
  -4   1   2 22.3603 1.41931   1
  -3   1   2 3.43861 1.09521   1
  -2   1   2 179.975 3.65067   1
  -1   1   2 30.8155 0.89622   1
   0   1   2 440.991 4.39593  -2
   0   1   2 440.991 4.39593   1
   1   1   2 1.61257 0.27908   1
   2   1   2 0.19994 0.40706   1
   3   1   2 5.74227 0.80271   1
   4   1   2 341.457 5.42208   1
   5   0   0 61.4445 4.04914  -2
   5   1   2 61.4445 4.04914   1
   6   0   0 116.691 3.49610  -2
   6   1   2 116.691 3.49610   1
   7   0   0 32.3723 5.58685  -2
   7   1   2 32.3723 5.58685   1
   7   0   1 19.8863 6.07476  -2
   7   1   2 19.8863 6.07476   1
   8   0   1 145.504 5.48356  -2
   8   1   2 145.504 5.48356   1
   8   3   5 29.0803 8.61659  -2
  -8   2   2 29.0803 8.61659   1
   7   3   4 47.3103 6.31405  -2
  -7   2   2 47.3103 6.31405   1
   6   3   4 35.2876 2.86732  -2
  -6   2   2 35.2876 2.86732   1
   5   3   4 138.025 10.1267  -2
  -5   2   2 138.025 10.1267   1
  -4   2   2 84.0341 2.73700   1
  -3   2   2 28.0746 1.10415   1
  -2   2   2 33.1332 1.13059   1
   1   2   2 311.345 7.23341  -2
  -1   2   2 311.345 7.23341   1
   0   2   2 60.6940 0.99594  -2
   0   2   2 60.6940 0.99594   1
  -1   2   2 49.8072 2.21296  -2
   1   2   2 49.8072 2.21296   1
   2   2   2 3.63436 0.63995   1
   3   2   2 74.4164 1.52646   1
   4   2   2 5.80274 0.81553   1
  -5   1   0 6.64977 5.24007  -2
   5   2   2 6.64977 5.24007   1
  -6   1   0 2.28956 2.18663  -2
   6   2   2 2.28956 2.18663   1
   8  -1   1 19.5266 3.76472  -2
   8   2   2 19.5266 3.76472   1
   7   4   4 12.6944 10.2558  -2
  -7   3   2 12.6944 10.2558   1
   6   4   4 13.5421 2.70556  -2
  -6   3   2 13.5421 2.70556   1
   5   4   4 19.4945 8.60937  -2
  -5   3   2 19.4945 8.60937   1
  -4   3   2 41.5585 1.54379   1
  -3   3   2 116.934 2.36182   1
  -2   3   2 203.067 3.28793   1
   1   3   2 45.8915 2.05150  -2
  -1   3   2 45.8915 2.05150   1
   0   3   2 8.12415 0.68768  -2
   0   3   2 8.12415 0.68768   1
  -1   3   2 219.313 4.81795  -2
   1   3   2 219.313 4.81795   1
   2   3   2 375.913 5.24720   1
   3   3   2 16.1507 0.96296   1
   4   3   2 0.64258 0.67935   1
  -5   2   0 24.5439 5.92153  -2
   5   3   2 24.5439 5.92153   1
  -6   2   0 86.2843 3.16282  -2
   6   3   2 86.2843 3.16282   1
  -7   2   0 27.9599 8.02096  -2
   7   3   2 27.9599 8.02096   1
   8  -2   1 15.7296 3.70387  -2
   8   3   2 15.7296 3.70387   1
   6   5   4 93.5673 4.62725  -2
  -6   4   2 93.5673 4.62725   1
   5   5   4 -2.1557 3.40907  -2
  -5   4   2 -2.1557 3.40907   1
  -4   4   2 6.25137 1.02738   1
  -3   4   2 2.39323 0.79161   1
  -2   4   2 405.658 5.49999   1
   1   4   2 27.2177 2.05647  -2
  -1   4   2 27.2177 2.05647   1
   0   4   2 14.0871 0.87038  -2
   0   4   2 14.0871 0.87038   1
  -1   4   2 35.2783 2.34779  -2
   1   4   2 35.2783 2.34779   1
   2   4   2 232.845 3.63064   1
   3   4   2 33.1787 1.32240   1
   4   4   2 10.2117 1.11026   1
  -5   3   0 1.33084 5.68252  -2
   5   4   2 1.33084 5.68252   1
  -6   3   0 22.8687 2.53392  -2
   6   4   2 22.8687 2.53392   1
  -7   3   0 3.30892 7.80042  -2
   7   4   2 3.30892 7.80042   1
   6   6   4 114.517 6.60912  -2
  -6   5   2 114.517 6.60912   1
   5   6   4 15.1209 3.68063  -2
  -5   5   2 15.1209 3.68063   1
  -4   5   2 44.7942 1.83762   1
  -3   5   2 20.1512 1.16640   1
  -2   5   2 32.7117 1.18046   1
   1   5   2 50.9962 2.65440  -2
  -1   5   2 50.9962 2.65440   1
   0   5   2 16.8396 1.11935  -2
   0   5   2 16.8396 1.11935   1
  -1   5   2 9.94482 2.31835  -2
   1   5   2 9.94482 2.31835   1
   2   5   2 35.4253 1.20785   1
   3   5   2 104.932 2.50858   1
   4   5   2 75.6060 2.19225   1
  -5   4   0 1.71110 3.40030  -2
   5   5   2 1.71110 3.40030   1
  -6   4   0 51.0370 2.91969  -2
   6   5   2 51.0370 2.91969   1
  -7   4   0 76.5386 8.63289  -2
   7   5   2 76.5386 8.63289   1
   5   7   4 10.4528 6.75879  -2
  -5   6   2 10.4528 6.75879   1
  -4   6   2 111.238 3.17424   1
  -3   6   2 92.3770 2.51951   1
   2   6   3 514.135 17.4156  -2
  -2   6   2 514.135 17.4156   1
   1   6   2 34.9906 2.85738  -2
  -1   6   2 34.9906 2.85738   1
   0   6   2 308.427 4.40000  -2
   0   6   2 308.427 4.40000   1
  -1   6   2 56.8304 2.70128  -2
   1   6   2 56.8304 2.70128   1
   2   6   2 401.056 5.93762   1
   3   6   2 50.2486 1.85631   1
   4   6   2 64.0606 2.17219   1
  -5   5   0 79.5755 4.28271  -2
   5   6   2 79.5755 4.28271   1
  -6   5   0 71.2042 3.31635  -2
   6   6   2 71.2042 3.31635   1
  -4   7   2 0.28738 1.84130   1
  -3   7   2 13.5084 1.70303   1
   2   7   3 22.3247 6.08773  -2
  -2   7   2 22.3247 6.08773   1
   1   7   2 102.733 4.09841  -2
  -1   7   2 102.733 4.09841   1
   0   7   2 119.873 2.98602  -2
   0   7   2 119.873 2.98602   1
  -1   7   2 17.0548 2.69738  -2
   1   7   2 17.0548 2.69738   1
   2   7   2 52.3893 1.93999   1
   3   7   2 31.4684 1.69027   1
   4   7   2 249.184 4.84744   1
  -5   6   0 20.0753 4.12228  -2
   5   7   2 20.0753 4.12228   1
  -6   6   0 90.9638 8.11229  -2
   6   7   2 90.9638 8.11229   1
  -3   8   2 37.7082 2.68010   1
  -2   8   2 58.0039 2.56136   1
   1   8   2 0.92346 3.68162  -2
  -1   8   2 0.92346 3.68162   1
   0   8   2 160.447 4.17441  -2
   0   8   2 160.447 4.17441   1
  -1   8   2 2.90988 4.30593  -2
   1   8   2 2.90988 4.30593   1
   2   8   2 60.1610 3.30896   1
   3   8   2 49.3942 2.57710   1
   4   8   2 33.2180 2.44354   1
   1   9   2 308.537 17.0120  -2
  -1   9   2 308.537 17.0120   1
   0   9   2 32.0606 3.22017  -2
   0   9   2 32.0606 3.22017   1
   1   9   2 27.7936 2.80030   1
   2   9   2 32.6676 2.91733   1
  -1  -9   3 155.958 6.43817   1
   0  -9   3 69.3829 3.39920  -2
   0  -9   3 69.3829 3.39920   1
  -1  -9   3 217.164 12.7451  -2
   1  -9   3 217.164 12.7451   1
  -4  -8   3 48.7699 2.85463   1
  -3  -8   3 33.7288 2.96122   1
  -2  -8   3 7.79058 2.12783   1
   1  -8   3 46.0405 5.04008  -2
  -1  -8   3 46.0405 5.04008   1
   0  -8   3 3.23404 2.03723  -2
   0  -8   3 3.23404 2.03723   1
  -1  -8   3 12.9456 3.02675  -2
   1  -8   3 12.9456 3.02675   1
   2  -8   3 49.6752 2.51007   1
   3  -8   3 179.624 4.56932   1
   5  -6   5 85.6234 5.16778  -2
  -5  -7   3 85.6234 5.16778   1
  -4  -7   3 101.381 3.47198   1
  -3  -7   3 31.3523 2.12309   1
  -2  -7   3 118.953 3.03730   1
   1  -7   3 265.685 6.97469  -2
  -1  -7   3 265.685 6.97469   1
   0  -7   3 112.117 3.14106  -2
   0  -7   3 112.117 3.14106   1
  -1  -7   3 100.023 3.81537  -2
   1  -7   3 100.023 3.81537   1
   2  -7   3 25.7617 1.87137   1
   3  -7   3 139.420 4.14792   1
   4  -7   3 18.4648 2.14279   1
   5  -7   3 2.20306 3.19350   1
   6  -5   5 11.6254 3.29646  -2
  -6  -6   3 11.6254 3.29646   1
   5  -5   5 5.37004 3.84085  -2
  -5  -6   3 5.37004 3.84085   1
  -4  -6   3 22.8914 1.93980   1
  -3  -6   3 0.81458 1.11342   1
  -2  -6   3 90.7985 2.30279   1
   1  -6   3 12.2396 2.93568  -2
  -1  -6   3 12.2396 2.93568   1
   0  -6   3 6.20098 1.59017  -2
   0  -6   3 6.20098 1.59017   1
  -1  -6   3 30.5519 3.15207  -2
   1  -6   3 30.5519 3.15207   1
   2  -6   3 213.272 4.89494   1
   3  -6   3 81.0483 2.60165   1
   4  -6   3 5.18748 1.43082   1
  -5  -7   1 94.6060 4.68647  -2
   5  -6   3 94.6060 4.68647   1
   6  -6   3 94.6510 3.42961   1
   6  -4   5 42.5820 3.38749  -2
  -6  -5   3 42.5820 3.38749   1
   5  -4   5 132.525 5.07626  -2
  -5  -5   3 132.525 5.07626   1
  -4  -5   3 10.8222 1.01244   1
  -3  -5   3 40.1486 1.27673   1
  -2  -5   3 177.077 2.81728   1
   1  -5   3 258.898 6.19992  -2
  -1  -5   3 258.898 6.19992   1
   0  -5   3 30.7806 1.16410  -2
   0  -5   3 30.7806 1.16410   1
  -1  -5   3 105.169 3.75474  -2
   1  -5   3 105.169 3.75474   1
   2  -5   3 84.8451 2.30674   1
   3  -5   3 132.202 3.05492   1
   4  -5   3 80.1992 2.59041   1
  -5  -6   1 9.90065 3.44730  -2
   5  -5   3 9.90065 3.44730   1
  -6  -6   1 10.7539 2.96438  -2
   6  -5   3 10.7539 2.96438   1
   6  -3   5 138.990 3.93234  -2
  -6  -4   3 138.990 3.93234   1
   5  -3   5 68.5433 6.69200  -2
  -5  -4   3 68.5433 6.69200   1
  -4  -4   3 61.2791 1.68512   1
  -3  -4   3 305.454 4.04366   1
  -2  -4   3 183.509 2.62543   1
   1  -4   3 219.705 5.27925  -2
  -1  -4   3 219.705 5.27925   1
   0  -4   3 1.60910 0.82608  -2
   0  -4   3 1.60910 0.82608   1
  -1  -4   3 437.678 8.97194  -2
   1  -4   3 437.678 8.97194   1
   2  -4   3 29.2707 1.30712   1
   3  -4   3 132.005 2.56944   1
   4  -4   3 8.73156 1.31985   1
  -5  -5   1 184.988 5.02948  -2
   5  -4   3 184.988 5.02948   1
  -6  -5   1 8.39075 3.32511  -2
   6  -4   3 8.39075 3.32511   1
   7  -2   5 25.3540 7.98740  -2
  -7  -3   3 25.3540 7.98740   1
   6  -2   5 97.1033 3.04455  -2
  -6  -3   3 97.1033 3.04455   1
   5  -2   5 105.589 5.09144  -2
  -5  -3   3 105.589 5.09144   1
  -4  -3   3 57.3285 1.57106   1
  -3  -3   3 68.4122 1.57967   1
  -2  -3   3 706.857 8.96203   1
   1  -3   3 194.329 5.58606  -2
  -1  -3   3 194.329 5.58606   1
   0  -3   3 375.320 5.69158  -2
   0  -3   3 375.320 5.69158   1
  -1  -3   3 205.646 4.79649  -2
   1  -3   3 205.646 4.79649   1
   2  -3   3 738.499 9.91075   1
   3  -3   3 81.3680 2.39197   1
   4  -3   3 50.7474 2.11169   1
  -5  -4   1 76.7770 4.14520  -2
   5  -3   3 76.7770 4.14520   1
  -6  -4   1 115.583 4.60408  -2
   6  -3   3 115.583 4.60408   1
   8  -1   6 -1.3371 3.70260  -2
  -8  -2   3 -1.3371 3.70260   1
   7  -1   5 99.0212 9.38413  -2
  -7  -2   3 99.0212 9.38413   1
   6  -1   5 272.384 5.34180  -2
  -6  -2   3 272.384 5.34180   1
   5  -1   5 37.6873 3.99880  -2
  -5  -2   3 37.6873 3.99880   1
  -4  -2   3 1.75779 0.73789   1
  -3  -2   3 122.635 2.31483   1
  -2  -2   3 411.553 5.77691   1
   1  -2   3 6.64646 1.91268  -2
  -1  -2   3 6.64646 1.91268   1
   0  -2   3 517.576 7.74219  -2
   0  -2   3 517.576 7.74219   1
  -1  -2   3 17.2685 2.43728  -2
   1  -2   3 17.2685 2.43728   1
  -2  -2   2 45.9098 3.64527  -2
   2  -2   3 45.9098 3.64527   1
   3  -2   3 9.60804 0.72349   1
   4  -2   3 371.430 5.78042   1
  -5  -3   1 10.2993 4.12943  -2
   5  -2   3 10.2993 4.12943   1
  -6  -3   1 3.64768 3.46382  -2
   6  -2   3 3.64768 3.46382   1
   7   3   0 6.68899 6.67598  -2
   7  -2   3 6.68899 6.67598   1
   8   3   0 103.775 7.56440  -2
   8  -2   3 103.775 7.56440   1
   8   0   6 16.1316 3.50867  -2
  -8  -1   3 16.1316 3.50867   1
   7   0   5 20.1222 5.45917  -2
  -7  -1   3 20.1222 5.45917   1
   6   0   5 11.8782 2.30199  -2
  -6  -1   3 11.8782 2.30199   1
   5   0   5 132.231 5.41228  -2
  -5  -1   3 132.231 5.41228   1
  -4  -1   3 292.121 4.95431   1
  -3  -1   3 50.6623 1.61250   1
  -2  -1   3 36.3004 1.13300   1
   1  -1   3 184.969 5.15312  -2
  -1  -1   3 184.969 5.15312   1
   0  -1   3 2095.30 24.5713  -2
   0  -1   3 2095.30 24.5713   1
   1  -1   3 90.2923 1.53707   1
   2  -1   3 71.9295 1.55506   1
   3  -1   3 43.7558 1.57793   1
   4  -1   3 468.395 7.95484   1
  -5  -2   1 -4.0594 6.98214  -2
   5  -1   3 -4.0594 6.98214   1
  -6  -2   1 -0.5951 2.41187  -2
   6  -1   3 -0.5951 2.41187   1
   7   2   0 4.35069 6.29830  -2
   7  -1   3 4.35069 6.29830   1
   8   2   0 41.8878 5.19190  -2
   8  -1   3 41.8878 5.19190   1
   8   1   6 22.1558 4.05394  -2
  -8   0   3 22.1558 4.05394   1
   7   1   5 78.1706 6.42905  -2
  -7   0   3 78.1706 6.42905   1
   6   1   5 111.040 4.03411  -2
  -6   0   3 111.040 4.03411   1
   5   1   5 55.6014 4.35750  -2
  -5   0   3 55.6014 4.35750   1
  -4   0   3 178.036 3.45286   1
  -3   0   3 137.049 2.68466   1
  -2   0   3 216.187 3.03244   1
   1   0   3 14.1630 1.16054  -2
  -1   0   3 14.1630 1.16054   1
   0   0   3 128.328 1.51522  -2
   0   0   3 128.328 1.51522   1
   1   0   3 57.6912 1.25354   1
   2   0   3 2.68875 0.61086   1
   3   0   3 64.0100 2.10263   1
   4   0   3 25.1801 1.32031   1
  -5  -1   1 0.37886 6.43197  -2
   5   0   3 0.37886 6.43197   1
  -6  -1   1 32.3435 2.38243  -2
   6   0   3 32.3435 2.38243   1
   7   1   0 9.88673 6.42375  -2
   7   0   3 9.88673 6.42375   1
  -7  -1   1 21.7859 5.48178  -2
   7   0   3 21.7859 5.48178   1
   8   1   0 117.966 5.15103  -2
   8   0   3 117.966 5.15103   1
   8   2   6 35.7049 4.23312  -2
  -8   1   3 35.7049 4.23312   1
   7   2   5 33.1831 6.09326  -2
  -7   1   3 33.1831 6.09326   1
   6   2   5 25.7596 2.64305  -2
  -6   1   3 25.7596 2.64305   1
   5   2   5 209.595 7.04593  -2
  -5   1   3 209.595 7.04593   1
  -4   1   3 246.068 4.43874   1
  -3   1   3 112.046 2.88011   1
  -2   1   3 22.7186 1.17987   1
   1   1   3 617.746 22.3009  -2
  -1   1   3 617.746 22.3009   1
   0   1   3 1853.29 19.6911  -2
   0   1   3 1853.29 19.6911   1
   1   1   3 44.2061 0.94490   1
   2   1   3 188.032 2.82631   1
   3   1   3 166.238 3.23790   1
   4   1   3 753.696 11.9643   1
  -5   0   1 45.2940 6.71924  -2
   5   1   3 45.2940 6.71924   1
  -6   0   1 60.2937 2.79717  -2
   6   1   3 60.2937 2.79717   1
  -7   0   1 8.37801 5.19913  -2
   7   1   3 8.37801 5.19913   1
   7   0   0 34.1847 5.86487  -2
   7   1   3 34.1847 5.86487   1
   8   0   0 180.299 5.95318  -2
   8   1   3 180.299 5.95318   1
   7   3   5 36.6151 9.69441  -2
  -7   2   3 36.6151 9.69441   1
   6   3   5 14.9609 2.67372  -2
  -6   2   3 14.9609 2.67372   1
   5   3   5 75.4096 8.58665  -2
  -5   2   3 75.4096 8.58665   1
  -4   2   3 194.461 4.46719   1
  -3   2   3 1.46032 0.71304   1
  -2   2   3 52.5123 1.39458   1
   1   2   3 34.6384 1.85591  -2
  -1   2   3 34.6384 1.85591   1
   0   2   3 419.919 4.94979  -2
   0   2   3 419.919 4.94979   1
  -1   2   3 176.429 3.34476  -2
   1   2   3 176.429 3.34476   1
   2   2   3 208.318 3.42238   1
   3   2   3 57.5230 1.34487   1
   4   2   3 4.65241 0.66391   1
  -5   1   1 80.1429 6.76720  -2
   5   2   3 80.1429 6.76720   1
  -6   1   1 221.186 5.50179  -2
   6   2   3 221.186 5.50179   1
  -7   1   1 3.31819 5.31287  -2
   7   2   3 3.31819 5.31287   1
  -8   1   0 18.3585 3.74025  -2
   8   2   3 18.3585 3.74025   1
   7   4   5 43.0213 10.5861  -2
  -7   3   3 43.0213 10.5861   1
   6   4   5 41.5124 3.07993  -2
  -6   3   3 41.5124 3.07993   1
   5   4   5 281.924 15.1696  -2
  -5   3   3 281.924 15.1696   1
  -4   3   3 1.05267 0.72117   1
  -3   3   3 303.518 4.68555   1
  -2   3   3 156.006 2.72023   1
   1   3   3 947.251 17.3188  -2
  -1   3   3 947.251 17.3188   1
   0   3   3 43.0715 1.01844  -2
   0   3   3 43.0715 1.01844   1
  -1   3   3 288.020 5.94701  -2
   1   3   3 288.020 5.94701   1
   2   3   3 309.951 4.46237   1
   3   3   3 166.686 3.09992   1
   4   3   3 78.6740 1.84845   1
  -5   2   1 37.7428 6.24293  -2
   5   3   3 37.7428 6.24293   1
  -6   2   1 143.635 3.97021  -2
   6   3   3 143.635 3.97021   1
  -7   2   1 13.3782 4.55366  -2
   7   3   3 13.3782 4.55366   1
  -8   2   0 11.5198 3.77846  -2
   8   3   3 11.5198 3.77846   1
   7   5   5 -11.288 10.2870  -2
  -7   4   3 -11.288 10.2870   1
   6   5   5 1.91451 3.31809  -2
  -6   4   3 1.91451 3.31809   1
   5   5   5 93.9118 4.31778  -2
  -5   4   3 93.9118 4.31778   1
  -4   4   3 37.0921 1.59482   1
  -3   4   3 45.2709 1.56808   1
  -2   4   3 -0.3862 0.60446   1
   1   4   3 76.3392 2.58352  -2
  -1   4   3 76.3392 2.58352   1
   0   4   3 30.6675 1.00341  -2
   0   4   3 30.6675 1.00341   1
  -1   4   3 516.771 10.0781  -2
   1   4   3 516.771 10.0781   1
   2   4   3 48.2024 1.23032   1
   3   4   3 56.8236 1.74194   1
   4   4   3 16.8888 1.25897   1
  -5   3   1 343.950 13.7734  -2
   5   4   3 343.950 13.7734   1
  -6   3   1 109.219 3.58737  -2
   6   4   3 109.219 3.58737   1
  -7   3   1 18.0788 8.10641  -2
   7   4   3 18.0788 8.10641   1
   6   6   5 271.855 9.58352  -2
  -6   5   3 271.855 9.58352   1
   5   6   5 19.5480 5.26314  -2
  -5   5   3 19.5480 5.26314   1
  -4   5   3 96.3061 2.56906   1
  -3   5   3 305.935 4.58863   1
  -2   5   3 528.453 6.71191   1
   1   5   3 155.103 4.05049  -2
  -1   5   3 155.103 4.05049   1
   0   5   3 147.883 2.33731  -2
   0   5   3 147.883 2.33731   1
  -1   5   3 336.162 7.22352  -2
   1   5   3 336.162 7.22352   1
   2   5   3 432.802 6.19668   1
   3   5   3 2.23639 0.81809   1
   4   5   3 32.3867 1.68966   1
  -5   4   1 43.6735 6.45653  -2
   5   5   3 43.6735 6.45653   1
  -6   4   1 91.8653 3.42896  -2
   6   5   3 91.8653 3.42896   1
  -7   4   1 41.9157 6.10871  -2
   7   5   3 41.9157 6.10871   1
   5   7   5 0.28480 11.5770  -2
  -5   6   3 0.28480 11.5770   1
  -4   6   3 339.256 7.09089   1
  -3   6   3 19.4798 1.34859   1
   2   6   4 277.441 11.1370  -2
  -2   6   3 277.441 11.1370   1
   1   6   3 10.3904 2.47919  -2
  -1   6   3 10.3904 2.47919   1
   0   6   3 662.193 8.45562  -2
   0   6   3 662.193 8.45562   1
  -1   6   3 22.7930 2.94984  -2
   1   6   3 22.7930 2.94984   1
   2   6   3 299.962 4.74477   1
   3   6   3 41.6528 1.70608   1
   4   6   3 405.034 6.09479   1
  -5   5   1 87.4114 4.55045  -2
   5   6   3 87.4114 4.55045   1
  -6   5   1 161.581 4.48440  -2
   6   6   3 161.581 4.48440   1
  -4   7   3 5.75133 1.78558   1
  -3   7   3 135.332 4.05408   1
   2   7   4 27.3682 6.18748  -2
  -2   7   3 27.3682 6.18748   1
   1   7   3 63.3342 3.65565  -2
  -1   7   3 63.3342 3.65565   1
   0   7   3 74.5942 2.35573  -2
   0   7   3 74.5942 2.35573   1
  -1   7   3 293.930 6.75901  -2
   1   7   3 293.930 6.75901   1
  -2   7   2 45.7550 6.47837  -2
   2   7   3 45.7550 6.47837   1
   3   7   3 12.3003 1.41670   1
   4   7   3 89.6678 2.67275   1
  -5   6   1 125.907 5.25839  -2
   5   7   3 125.907 5.25839   1
  -3   8   3 89.6862 3.65222   1
  -2   8   3 12.5635 2.13733   1
   1   8   3 14.6598 3.87818  -2
  -1   8   3 14.6598 3.87818   1
   0   8   3 41.4731 2.57734  -2
   0   8   3 41.4731 2.57734   1
  -1   8   3 66.1595 7.05397  -2
   1   8   3 66.1595 7.05397   1
   2   8   3 -0.5430 1.30325   1
   3   8   3 40.5676 2.14120   1
   4   8   3 10.0683 1.98296   1
   0   9   3 50.3543 4.21795  -2
   0   9   3 50.3543 4.21795   1
   1   9   3 9.11188 2.30965   1
   2   9   3 38.5752 3.94558   1
  -1  -9   4 18.0098 4.72963   1
   0  -9   4 131.563 8.98979  -2
   0  -9   4 131.563 8.98979   1
  -4  -8   4 2.77132 1.87488   1
  -3  -8   4 2.42878 2.16995   1
  -2  -8   4 31.1793 2.76472   1
   1  -8   4 8.41960 4.75778  -2
  -1  -8   4 8.41960 4.75778   1
   0  -8   4 21.2641 2.28269  -2
   0  -8   4 21.2641 2.28269   1
  -1  -8   4 14.8660 3.12076  -2
   1  -8   4 14.8660 3.12076   1
   2  -8   4 0.91999 1.56540   1
   3  -8   4 -0.2425 1.63417   1
   5  -6   6 234.609 6.40413  -2
  -5  -7   4 234.609 6.40413   1
  -4  -7   4 74.8328 3.16675   1
  -3  -7   4 100.448 3.31794   1
  -2  -7   4 4.99388 1.41353   1
   1  -7   4 178.764 4.99561  -2
  -1  -7   4 178.764 4.99561   1
   0  -7   4 285.327 5.55332  -2
   0  -7   4 285.327 5.55332   1
  -1  -7   4 35.9923 3.12587  -2
   1  -7   4 35.9923 3.12587   1
   2  -7   4 7.06709 1.48115   1
   3  -7   4 18.1554 2.06017   1
   4  -7   4 127.444 4.14355   1
   6  -5   6 55.0556 3.79374  -2
  -6  -6   4 55.0556 3.79374   1
   5  -5   6 13.8378 4.05236  -2
  -5  -6   4 13.8378 4.05236   1
  -4  -6   4 218.755 5.01528   1
  -3  -6   4 225.194 4.08549   1
  -2  -6   4 33.5029 1.50891   1
   1  -6   4 172.208 5.20114  -2
  -1  -6   4 172.208 5.20114   1
   0  -6   4 87.4466 2.64844  -2
   0  -6   4 87.4466 2.64844   1
  -1  -6   4 387.705 7.71534  -2
   1  -6   4 387.705 7.71534   1
   2  -6   4 23.7865 1.87845   1
   3  -6   4 87.5505 3.18085   1
   4  -6   4 3.16774 1.59290   1
  -5  -7   2 130.535 5.13564  -2
   5  -6   4 130.535 5.13564   1
   6  -4   6 40.6148 3.44287  -2
  -6  -5   4 40.6148 3.44287   1
   5  -4   6 20.9040 3.80440  -2
  -5  -5   4 20.9040 3.80440   1
  -4  -5   4 270.790 5.04224   1
  -3  -5   4 49.1851 1.68374   1
  -2  -5   4 360.114 5.46129   1
   1  -5   4 7.25229 2.59274  -2
  -1  -5   4 7.25229 2.59274   1
   0  -5   4 900.367 12.1805  -2
   0  -5   4 900.367 12.1805   1
  -1  -5   4 20.7500 2.71331  -2
   1  -5   4 20.7500 2.71331   1
   2  -5   4 390.453 6.39918   1
   3  -5   4 109.147 2.80255   1
   4  -5   4 357.723 6.29542   1
  -5  -6   2 113.789 4.43638  -2
   5  -5   4 113.789 4.43638   1
  -6  -6   2 52.6569 3.47216  -2
   6  -5   4 52.6569 3.47216   1
   6  -3   6 8.71392 2.51596  -2
  -6  -4   4 8.71392 2.51596   1
   5  -3   6 10.0856 5.62124  -2
  -5  -4   4 10.0856 5.62124   1
  -4  -4   4 201.807 3.31106   1
  -3  -4   4 33.8501 1.08685   1
  -2  -4   4 44.9808 1.21647   1
   1  -4   4 28.2932 3.10673  -2
  -1  -4   4 28.2932 3.10673   1
   0  -4   4 39.1128 1.35184  -2
   0  -4   4 39.1128 1.35184   1
  -1  -4   4 69.3438 3.01483  -2
   1  -4   4 69.3438 3.01483   1
   2  -4   4 496.883 7.70370   1
   3  -4   4 2.75979 0.91286   1
   4  -4   4 60.7897 2.45880   1
  -5  -5   2 5.46966 3.07652  -2
   5  -4   4 5.46966 3.07652   1
  -6  -5   2 422.539 9.98796  -2
   6  -4   4 422.539 9.98796   1
  -7  -5   1 34.2976 7.77479  -2
   7  -4   4 34.2976 7.77479   1
   6  -2   6 267.075 5.82721  -2
  -6  -3   4 267.075 5.82721   1
   5  -2   6 42.2511 4.32772  -2
  -5  -3   4 42.2511 4.32772   1
  -4  -3   4 80.5055 2.05205   1
  -3  -3   4 166.379 2.92319   1
  -2  -3   4 1256.19 15.5470   1
   1  -3   4 23.5005 2.83093  -2
  -1  -3   4 23.5005 2.83093   1
   0  -3   4 339.615 5.40739  -2
   0  -3   4 339.615 5.40739   1
  -1  -3   4 28.1530 2.08688  -2
   1  -3   4 28.1530 2.08688   1
  -2  -3   3 1234.98 36.2880  -2
   2  -3   4 1234.98 36.2880   1
   3  -3   4 25.2498 1.43274   1
   4  -3   4 29.9453 1.69599   1
  -5  -4   2 54.0472 3.88160  -2
   5  -3   4 54.0472 3.88160   1
  -6  -4   2 135.444 4.98683  -2
   6  -3   4 135.444 4.98683   1
  -7  -4   1 32.3922 7.43692  -2
   7  -3   4 32.3922 7.43692   1
  -8  -2   4 19.0171 3.45513   1
   7  -1   6 4.00050 7.81935  -2
  -7  -2   4 4.00050 7.81935   1
   6  -1   6 14.0661 2.38741  -2
  -6  -2   4 14.0661 2.38741   1
   5  -1   6 16.8067 3.83285  -2
  -5  -2   4 16.8067 3.83285   1
  -4  -2   4 96.7414 2.22452   1
  -3  -2   4 46.2774 1.45119   1
  -2  -2   4 168.525 2.96088   1
   1  -2   4 174.588 4.12471  -2
  -1  -2   4 174.588 4.12471   1
   0  -2   4 915.510 13.4001  -2
   0  -2   4 915.510 13.4001   1
  -1  -2   4 167.523 6.92116  -2
   1  -2   4 167.523 6.92116   1
   2  -2   4 654.959 9.24056   1
   3  -2   4 40.0414 1.32741   1
   4  -2   4 593.382 8.72565   1
  -5  -3   2 19.1541 4.33396  -2
   5  -2   4 19.1541 4.33396   1
  -6  -3   2 280.973 8.93558  -2
   6  -2   4 280.973 8.93558   1
  -7  -3   1 0.27073 6.69842  -2
   7  -2   4 0.27073 6.69842   1
  -8  -3   1 125.882 7.76937  -2
   8  -2   4 125.882 7.76937   1
   8   0   7 13.3622 4.82034  -2
  -8  -1   4 13.3622 4.82034   1
   7   0   6 7.38244 5.36712  -2
  -7  -1   4 7.38244 5.36712   1
   6   0   6 17.8335 2.43896  -2
  -6  -1   4 17.8335 2.43896   1
   5   0   6 -0.7551 3.58510  -2
  -5  -1   4 -0.7551 3.58510   1
  -4  -1   4 72.4268 2.24840   1
  -3  -1   4 27.2074 1.08865   1
  -2  -1   4 49.6334 1.31554   1
   1  -1   4 30.4793 2.12843  -2
  -1  -1   4 30.4793 2.12843   1
   0  -1   4 291.788 4.02280  -2
   0  -1   4 291.788 4.02280   1
  -1  -1   4 6.72694 2.85292  -2
   1  -1   4 6.72694 2.85292   1
   2  -1   4 33.6957 1.13189   1
   3  -1   4 75.5282 1.98460   1
   4  -1   4 158.805 3.37315   1
  -5  -2   2 6.56529 6.73048  -2
   5  -1   4 6.56529 6.73048   1
  -6  -2   2 1.97478 2.47935  -2
   6  -1   4 1.97478 2.47935   1
  -7  -2   1 29.2061 6.76787  -2
   7  -1   4 29.2061 6.76787   1
  -8  -2   1 109.824 6.11164  -2
   8  -1   4 109.824 6.11164   1
   8   1   7 91.3304 4.87841  -2
  -8   0   4 91.3304 4.87841   1
   7   1   6 34.5897 5.99800  -2
  -7   0   4 34.5897 5.99800   1
   6   1   6 17.9573 2.34765  -2
  -6   0   4 17.9573 2.34765   1
   5   1   6 10.4542 3.71077  -2
  -5   0   4 10.4542 3.71077   1
  -4   0   4 157.792 3.17610   1
  -3   0   4 80.1691 1.79940   1
  -2   0   4 225.945 3.15797   1
   1   0   4 8.68826 2.19157  -2
  -1   0   4 8.68826 2.19157   1
   0   0   4 376.315 4.48190  -2
   0   0   4 376.315 4.48190   1
   1   0   4 33.7342 1.21415   1
   2   0   4 206.309 3.69563   1
   3   0   4 10.5809 0.91065   1
   4   0   4 196.734 3.86025   1
  -5  -1   2 2.70646 6.47533  -2
   5   0   4 2.70646 6.47533   1
  -6  -1   2 9.05401 2.04170  -2
   6   0   4 9.05401 2.04170   1
  -7  -1   1 28.2920 6.01690  -2
   7   0   4 28.2920 6.01690   1
  -7  -1   2 4.69820 5.01337  -2
   7   0   4 4.69820 5.01337   1
  -8  -1   1 58.3241 5.54382  -2
   8   0   4 58.3241 5.54382   1
   7   2   6 30.9963 9.09437  -2
  -7   1   4 30.9963 9.09437   1
   6   2   6 37.6347 2.57085  -2
  -6   1   4 37.6347 2.57085   1
   5   2   6 5.29562 3.78973  -2
  -5   1   4 5.29562 3.78973   1
  -4   1   4 34.2118 1.52076   1
  -3   1   4 48.6707 1.65982   1
  -2   1   4 45.0479 1.75726   1
   1   1   4 98.1913 5.59295  -2
  -1   1   4 98.1913 5.59295   1
   0   1   4 293.693 3.75024  -2
   0   1   4 293.693 3.75024   1
   1   1   4 324.566 4.16889   1
   2   1   4 16.7925 0.82220   1
   3   1   4 70.5388 1.98049   1
   4   1   4 50.5952 1.89427   1
  -5   0   2 62.5265 7.07265  -2
   5   1   4 62.5265 7.07265   1
  -6   0   2 29.3847 2.49230  -2
   6   1   4 29.3847 2.49230   1
  -7   0   2 9.57829 5.27823  -2
   7   1   4 9.57829 5.27823   1
  -7   0   1 13.9329 5.94691  -2
   7   1   4 13.9329 5.94691   1
  -8   0   1 9.62802 4.05274  -2
   8   1   4 9.62802 4.05274   1
   7   3   6 182.772 13.1731  -2
  -7   2   4 182.772 13.1731   1
   6   3   6 55.2131 2.81206  -2
  -6   2   4 55.2131 2.81206   1
   5   3   6 227.329 12.5916  -2
  -5   2   4 227.329 12.5916   1
  -4   2   4 99.9173 3.08075   1
  -3   2   4 714.995 12.5945   1
  -2   2   4 44.8027 1.27216   1
   1   2   4 262.758 6.62186  -2
  -1   2   4 262.758 6.62186   1
   0   2   4 175.542 2.33842  -2
   0   2   4 175.542 2.33842   1
  -1   2   4 580.279 9.67313  -2
   1   2   4 580.279 9.67313   1
   2   2   4 39.8364 1.07373   1
   3   2   4 25.6963 0.97352   1
   4   2   4 80.3363 1.82389   1
  -5   1   2 -5.9874 5.84896  -2
   5   2   4 -5.9874 5.84896   1
  -6   1   2 17.3184 2.66014  -2
   6   2   4 17.3184 2.66014   1
  -7   1   1 74.4179 6.98765  -2
   7   2   4 74.4179 6.98765   1
  -7   1   2 76.8977 6.54200  -2
   7   2   4 76.8977 6.54200   1
  -8   1   1 37.8060 3.88193  -2
   8   2   4 37.8060 3.88193   1
   6   4   6 173.068 5.05067  -2
  -6   3   4 173.068 5.05067   1
   5   4   6 162.145 11.7982  -2
  -5   3   4 162.145 11.7982   1
  -4   3   4 24.4036 1.82057   1
  -3   3   4 160.647 2.91489   1
  -2   3   4 414.283 5.97643   1
   1   3   4 1396.70 30.1927  -2
  -1   3   4 1396.70 30.1927   1
   0   3   4 3.14859 0.70361  -2
   0   3   4 3.14859 0.70361   1
  -1   3   4 808.676 13.3705  -2
   1   3   4 808.676 13.3705   1
   2   3   4 257.005 3.57465   1
   3   3   4 1109.88 15.5690   1
   4   3   4 2.30867 0.88395   1
  -5   2   2 169.849 6.09472  -2
   5   3   4 169.849 6.09472   1
  -6   2   2 74.7550 3.16405  -2
   6   3   4 74.7550 3.16405   1
  -7   2   2 213.869 7.79584  -2
   7   3   4 213.869 7.79584   1
  -8   2   1 -2.5860 3.59403  -2
   8   3   4 -2.5860 3.59403   1
   6   5   6 107.222 4.36952  -2
  -6   4   4 107.222 4.36952   1
   5   5   6 48.4815 10.4331  -2
  -5   4   4 48.4815 10.4331   1
  -4   4   4 8.92595 1.14899   1
  -3   4   4 10.5666 0.98816   1
  -2   4   4 21.9924 0.91492   1
   1   4   4 8.70855 1.70202  -2
  -1   4   4 8.70855 1.70202   1
   0   4   4 181.619 2.44221  -2
   0   4   4 181.619 2.44221   1
  -1   4   4 49.3126 2.43642  -2
   1   4   4 49.3126 2.43642   1
   2   4   4 2.82855 0.67816   1
   3   4   4 131.497 2.79632   1
   4   4   4 103.869 2.62057   1
  -5   3   2 200.347 10.1927  -2
   5   4   4 200.347 10.1927   1
  -6   3   2 4.43457 2.80424  -2
   6   4   4 4.43457 2.80424   1
  -7   3   2 144.161 7.45098  -2
   7   4   4 144.161 7.45098   1
   6   6   6 188.609 5.73609  -2
  -6   5   4 188.609 5.73609   1
   5   6   6 19.9639 10.6637  -2
  -5   5   4 19.9639 10.6637   1
  -4   5   4 361.668 6.47906   1
  -3   5   4 1.01752 0.93081   1
  -2   5   4 342.268 4.65002   1
   1   5   4 190.975 3.86431  -2
  -1   5   4 190.975 3.86431   1
   0   5   4 327.347 4.28972  -2
   0   5   4 327.347 4.28972   1
  -1   5   4 31.4244 2.11956  -2
   1   5   4 31.4244 2.11956   1
   2   5   4 87.2159 2.10156   1
   3   5   4 187.064 3.30283   1
   4   5   4 13.7647 1.34134   1
  -5   4   2 3.29837 4.09292  -2
   5   5   4 3.29837 4.09292   1
  -6   4   2 13.1258 2.55611  -2
   6   5   4 13.1258 2.55611   1
  -7   4   2 38.1678 6.07067  -2
   7   5   4 38.1678 6.07067   1
   5   7   6 -0.5882 11.5161  -2
  -5   6   4 -0.5882 11.5161   1
  -4   6   4 96.5006 3.16660   1
  -3   6   4 32.1292 1.77470   1
   2   6   5 132.951 7.92619  -2
  -2   6   4 132.951 7.92619   1
   1   6   4 61.5953 2.97126  -2
  -1   6   4 61.5953 2.97126   1
   0   6   4 558.276 7.39250  -2
   0   6   4 558.276 7.39250   1
  -1   6   4 92.0293 4.44835  -2
   1   6   4 92.0293 4.44835   1
  -2   6   3 304.078 11.9215  -2
   2   6   4 304.078 11.9215   1
   3   6   4 7.28237 1.18780   1
   4   6   4 360.699 5.60062   1
  -5   5   2 138.421 5.30865  -2
   5   6   4 138.421 5.30865   1
  -6   5   2 88.2252 3.54842  -2
   6   6   4 88.2252 3.54842   1
  -4   7   4 102.129 4.09507   1
  -3   7   4 15.2784 1.86732   1
   2   7   5 41.4404 6.71879  -2
  -2   7   4 41.4404 6.71879   1
   1   7   4 9.62251 4.15174  -2
  -1   7   4 9.62251 4.15174   1
   0   7   4 70.3742 2.33648  -2
   0   7   4 70.3742 2.33648   1
  -1   7   4 63.1161 3.59468  -2
   1   7   4 63.1161 3.59468   1
  -2   7   3 8.80698 6.22196  -2
   2   7   4 8.80698 6.22196   1
   3   7   4 1.64124 1.31754   1
   4   7   4 7.75418 1.54186   1
  -5   6   2 26.3551 4.26874  -2
   5   7   4 26.3551 4.26874   1
  -3   8   4 2.46235 2.48939   1
  -2   8   4 12.2762 2.17078   1
   1   8   4 0.06862 4.62491  -2
  -1   8   4 0.06862 4.62491   1
   0   8   4 41.3400 2.96741  -2
   0   8   4 41.3400 2.96741   1
  -1   8   4 23.5708 4.36248  -2
   1   8   4 23.5708 4.36248   1
  -2   8   3 74.4445 7.04297  -2
   2   8   4 74.4445 7.04297   1
   3   8   4 3.18035 1.50182   1
   4   8   4 53.6488 2.58021   1
   1   9   4 79.2528 8.20674   1
  -3  -8   5 46.0379 3.38806   1
  -2  -8   5 11.0663 2.31921   1
   1  -8   5 5.58822 4.86656  -2
  -1  -8   5 5.58822 4.86656   1
   0  -8   5 182.803 4.96466  -2
   0  -8   5 182.803 4.96466   1
  -1  -8   5 42.2811 3.76835  -2
   1  -8   5 42.2811 3.76835   1
   2  -8   5 43.4723 2.45552   1
   3  -8   5 2.00904 1.73907   1
   5  -6   7 13.8898 4.03008  -2
  -5  -7   5 13.8898 4.03008   1
  -4  -7   5 14.1472 2.04798   1
  -3  -7   5 1.56007 1.49851   1
  -2  -7   5 8.87468 1.69039   1
   1  -7   5 73.3423 3.73541  -2
  -1  -7   5 73.3423 3.73541   1
   0  -7   5 21.5886 2.15719  -2
   0  -7   5 21.5886 2.15719   1
  -1  -7   5 21.3534 3.18064  -2
   1  -7   5 21.3534 3.18064   1
   2  -7   5 8.16830 1.53665   1
   3  -7   5 61.4836 3.01648   1
   4  -7   5 34.7861 2.62268   1
   6  -5   7 24.0789 3.67491  -2
  -6  -6   5 24.0789 3.67491   1
   5  -5   7 53.2853 4.56749  -2
  -5  -6   5 53.2853 4.56749   1
  -4  -6   5 36.3535 2.31181   1
  -3  -6   5 64.4873 2.22821   1
  -2  -6   5 51.6152 2.03374   1
   1  -6   5 24.1621 3.26588  -2
  -1  -6   5 24.1621 3.26588   1
   0  -6   5 34.3758 2.05504  -2
   0  -6   5 34.3758 2.05504   1
  -1  -6   5 12.6127 2.66866  -2
   1  -6   5 12.6127 2.66866   1
   2  -6   5 47.0076 2.37243   1
   3  -6   5 0.58449 1.43421   1
   4  -6   5 40.1359 2.52036   1
  -5  -7   3 14.4904 3.92064  -2
   5  -6   5 14.4904 3.92064   1
   6  -4   7 300.893 7.44276  -2
  -6  -5   5 300.893 7.44276   1
   5  -4   7 119.452 5.01894  -2
  -5  -5   5 119.452 5.01894   1
  -4  -5   5 38.8026 1.72687   1
  -3  -5   5 111.703 2.63816   1
  -2  -5   5 373.282 5.31501   1
   1  -5   5 466.371 9.87844  -2
  -1  -5   5 466.371 9.87844   1
   0  -5   5 1.18697 1.27649  -2
   0  -5   5 1.18697 1.27649   1
  -1  -5   5 267.236 6.39632  -2
   1  -5   5 267.236 6.39632   1
   2  -5   5 142.929 3.72779   1
   3  -5   5 264.896 4.88401   1
   4  -5   5 29.0293 1.78825   1
  -5  -6   3 59.1417 3.48524  -2
   5  -5   5 59.1417 3.48524   1
  -6  -6   3 45.1048 3.36328  -2
   6  -5   5 45.1048 3.36328   1
   6  -3   7 33.4709 3.24937  -2
  -6  -4   5 33.4709 3.24937   1
   5  -3   7 124.950 4.44768  -2
  -5  -4   5 124.950 4.44768   1
  -4  -4   5 108.060 2.30499   1
  -3  -4   5 11.2752 0.92377   1
  -2  -4   5 88.2330 1.75191   1
   1  -4   5 14.6561 2.95125  -2
  -1  -4   5 14.6561 2.95125   1
   0  -4   5 413.208 6.73280  -2
   0  -4   5 413.208 6.73280   1
  -1  -4   5 96.6084 3.33736  -2
   1  -4   5 96.6084 3.33736   1
   2  -4   5 80.4700 2.11359   1
   3  -4   5 120.512 2.82188   1
   4  -4   5 95.7491 2.95698   1
  -5  -5   3 170.568 4.92194  -2
   5  -4   5 170.568 4.92194   1
  -6  -5   3 7.57130 3.43873  -2
   6  -4   5 7.57130 3.43873   1
  -7  -5   2 63.4039 8.09288  -2
   7  -4   5 63.4039 8.09288   1
   6  -2   7 224.343 5.25788  -2
  -6  -3   5 224.343 5.25788   1
   5  -2   7 313.676 7.65219  -2
  -5  -3   5 313.676 7.65219   1
  -4  -3   5 61.3213 1.85785   1
  -3  -3   5 555.470 7.88443   1
  -2  -3   5 214.302 3.39558   1
   1  -3   5 1090.51 20.2837  -2
  -1  -3   5 1090.51 20.2837   1
   0  -3   5 14.7055 1.19117  -2
   0  -3   5 14.7055 1.19117   1
  -1  -3   5 726.529 13.8734  -2
   1  -3   5 726.529 13.8734   1
  -2  -3   4 168.195 6.34728  -2
   2  -3   5 168.195 6.34728   1
   3  -3   5 363.296 6.56828   1
   4  -3   5 112.159 3.07816   1
  -5  -4   3 51.7963 3.94082  -2
   5  -3   5 51.7963 3.94082   1
  -6  -4   3 18.1663 3.36173  -2
   6  -3   5 18.1663 3.36173   1
  -7  -4   2 36.1489 7.25692  -2
   7  -3   5 36.1489 7.25692   1
   7  -1   7 2.29725 7.74175  -2
  -7  -2   5 2.29725 7.74175   1
   6  -1   7 38.1820 2.65016  -2
  -6  -2   5 38.1820 2.65016   1
   5  -1   7 20.4828 3.90132  -2
  -5  -2   5 20.4828 3.90132   1
  -4  -2   5 233.185 3.90740   1
  -3  -2   5 121.540 2.52753   1
  -2  -2   5 1.29739 0.36763   1
   1  -2   5 422.018 10.8041  -2
  -1  -2   5 422.018 10.8041   1
   0  -2   5 1263.14 18.3572  -2
   0  -2   5 1263.14 18.3572   1
  -1  -2   5 1130.16 26.6744  -2
   1  -2   5 1130.16 26.6744   1
   2  -2   5 1.56379 0.56018   1
   3  -2   5 634.998 9.14372   1
   4  -2   5 246.863 4.17105   1
  -5  -3   3 640.008 17.3434  -2
   5  -2   5 640.008 17.3434   1
  -6  -3   3 40.3332 3.48522  -2
   6  -2   5 40.3332 3.48522   1
  -7  -3   2 196.520 10.5179  -2
   7  -2   5 196.520 10.5179   1
   7   0   7 55.5137 6.03216  -2
  -7  -1   5 55.5137 6.03216   1
   6   0   7 38.5338 2.80151  -2
  -6  -1   5 38.5338 2.80151   1
   5   0   7 99.5945 4.91861  -2
  -5  -1   5 99.5945 4.91861   1
  -4  -1   5 415.975 6.20217   1
  -3  -1   5 312.847 4.37725   1
  -2  -1   5 11.6455 0.68160   1
   1  -1   5 437.434 11.2705  -2
  -1  -1   5 437.434 11.2705   1
   0  -1   5 449.059 5.71514  -2
   0  -1   5 449.059 5.71514   1
  -1  -1   5 308.093 11.2960  -2
   1  -1   5 308.093 11.2960   1
   2  -1   5 112.367 2.13062   1
   3  -1   5 36.3007 1.48070   1
   4  -1   5 10.4380 1.03561   1
  -5  -2   3 6.61232 3.95812  -2
   5  -1   5 6.61232 3.95812   1
  -6  -2   3 112.040 3.96531  -2
   6  -1   5 112.040 3.96531   1
  -7  -2   2 28.6742 6.46114  -2
   7  -1   5 28.6742 6.46114   1
  -8  -2   2 7.53592 5.51695  -2
   8  -1   5 7.53592 5.51695   1
   7   1   7 1.51183 5.55443  -2
  -7   0   5 1.51183 5.55443   1
   6   1   7 6.39334 2.10142  -2
  -6   0   5 6.39334 2.10142   1
   5   1   7 13.0035 3.76871  -2
  -5   0   5 13.0035 3.76871   1
  -4   0   5 50.9612 1.68258   1
  -3   0   5 72.6804 1.64077   1
  -2   0   5 179.927 2.63621   1
   1   0   5 155.836 4.75988  -2
  -1   0   5 155.836 4.75988   1
   0   0   5 494.949 5.85843  -2
   0   0   5 494.949 5.85843   1
   1   0   5 819.202 10.7451   1
   2   0   5 253.994 4.44998   1
   3   0   5 287.295 5.10126   1
   4   0   5 96.0958 2.49519   1
  -5  -1   3 500.286 12.5165  -2
   5   0   5 500.286 12.5165   1
  -6  -1   3 7.99143 2.03323  -2
   6   0   5 7.99143 2.03323   1
  -7  -1   2 69.8130 7.45794  -2
   7   0   5 69.8130 7.45794   1
  -7  -1   3 71.8578 6.35013  -2
   7   0   5 71.8578 6.35013   1
  -8  -1   2 18.9419 5.67978  -2
   8   0   5 18.9419 5.67978   1
   7   2   7 50.8102 6.62850  -2
  -7   1   5 50.8102 6.62850   1
   6   2   7 29.9570 2.79629  -2
  -6   1   5 29.9570 2.79629   1
   5   2   7 22.8395 4.05395  -2
  -5   1   5 22.8395 4.05395   1
  -4   1   5 387.940 5.87185   1
  -3   1   5 282.279 4.31429   1
  -2   1   5 22.6387 1.02511   1
   1   1   5 134.838 4.27190  -2
  -1   1   5 134.838 4.27190   1
   0   1   5 492.217 5.76598  -2
   0   1   5 492.217 5.76598   1
   1   1   5 483.794 5.63402   1
   2   1   5 78.3395 1.51495   1
   3   1   5 3.07089 0.79172   1
   4   1   5 10.4143 1.03361   1
  -5   0   3 17.2108 3.67968  -2
   5   1   5 17.2108 3.67968   1
  -6   0   3 108.088 3.48851  -2
   6   1   5 108.088 3.48851   1
  -7   0   3 88.3086 6.68459  -2
   7   1   5 88.3086 6.68459   1
  -7   0   2 99.9794 7.57255  -2
   7   1   5 99.9794 7.57255   1
  -8   0   2 8.48653 4.04041  -2
   8   1   5 8.48653 4.04041   1
   7   3   7 17.3599 9.68533  -2
  -7   2   5 17.3599 9.68533   1
   6   3   7 54.4124 3.17145  -2
  -6   2   5 54.4124 3.17145   1
   5   3   7 79.4942 8.96729  -2
  -5   2   5 79.4942 8.96729   1
  -4   2   5 3.56910 1.25436   1
  -3   2   5 121.278 3.25178   1
  -2   2   5 499.300 7.67822   1
   1   2   5 501.302 11.6444  -2
  -1   2   5 501.302 11.6444   1
   0   2   5 89.8907 1.62842  -2
   0   2   5 89.8907 1.62842   1
  -1   2   5 512.158 12.5701  -2
   1   2   5 512.158 12.5701   1
   2   2   5 834.763 9.66530   1
   3   2   5 562.362 8.54478   1
   4   2   5 31.8612 1.46156   1
  -5   1   3 228.851 7.18244  -2
   5   2   5 228.851 7.18244   1
  -6   1   3 125.281 4.04932  -2
   6   2   5 125.281 4.04932   1
  -7   1   2 153.077 8.92453  -2
   7   2   5 153.077 8.92453   1
  -7   1   3 152.024 8.23753  -2
   7   2   5 152.024 8.23753   1
  -8   1   2 6.71550 4.03609  -2
   8   2   5 6.71550 4.03609   1
   7   4   7 32.4077 10.4835  -2
  -7   3   5 32.4077 10.4835   1
   6   4   7 80.8836 3.68079  -2
  -6   3   5 80.8836 3.68079   1
   5   4   7 16.2560 8.45964  -2
  -5   3   5 16.2560 8.45964   1
  -4   3   5 47.0756 2.36832   1
  -3   3   5 13.4192 1.06473   1
  -2   3   5 228.099 3.40503   1
   1   3   5 57.5049 2.12742  -2
  -1   3   5 57.5049 2.12742   1
   0   3   5 50.0447 1.20585  -2
   0   3   5 50.0447 1.20585   1
  -1   3   5 10.2502 1.74179  -2
   1   3   5 10.2502 1.74179   1
   2   3   5 41.8817 1.24998   1
   3   3   5 161.649 3.13954   1
   4   3   5 12.9202 1.16749   1
  -5   2   3 34.7113 4.20717  -2
   5   3   5 34.7113 4.20717   1
  -6   2   3 13.5221 2.51659  -2
   6   3   5 13.5221 2.51659   1
  -7   2   3 153.616 6.85241  -2
   7   3   5 153.616 6.85241   1
  -8   2   2 19.1590 5.43171  -2
   8   3   5 19.1590 5.43171   1
   6   5   7 22.0735 3.30423  -2
  -6   4   5 22.0735 3.30423   1
   5   5   7 152.406 12.1915  -2
  -5   4   5 152.406 12.1915   1
  -4   4   5 0.94190 1.13339   1
  -3   4   5 2.07368 0.85763   1
  -2   4   5 69.7579 1.52770   1
   1   4   5 325.056 6.84030  -2
  -1   4   5 325.056 6.84030   1
   0   4   5 39.6026 1.08762  -2
   0   4   5 39.6026 1.08762   1
  -1   4   5 39.9483 2.62776  -2
   1   4   5 39.9483 2.62776   1
   2   4   5 220.623 3.54021   1
   3   4   5 305.270 5.08227   1
   4   4   5 44.1213 1.84882   1
  -5   3   3 29.7619 4.24120  -2
   5   4   5 29.7619 4.24120   1
  -6   3   3 80.9433 3.25971  -2
   6   4   5 80.9433 3.25971   1
  -7   3   3 105.730 5.02304  -2
   7   4   5 105.730 5.02304   1
   6   6   7 5.71988 3.41053  -2
  -6   5   5 5.71988 3.41053   1
   5   6   7 10.7297 9.99836  -2
  -5   5   5 10.7297 9.99836   1
  -4   5   5 29.1422 2.26458   1
  -3   5   5 131.988 2.99684   1
  -2   5   5 37.1381 1.38317   1
   1   5   5 30.8322 2.36580  -2
  -1   5   5 30.8322 2.36580   1
   0   5   5 5.06674 1.02405  -2
   0   5   5 5.06674 1.02405   1
  -1   5   5 165.234 4.52479  -2
   1   5   5 165.234 4.52479   1
   2   5   5 49.9587 1.72041   1
   3   5   5 5.35970 0.98945   1
   4   5   5 13.3933 1.38889   1
  -5   4   3 134.700 5.07358  -2
   5   5   5 134.700 5.07358   1
  -6   4   3 3.99802 2.50935  -2
   6   5   5 3.99802 2.50935   1
  -7   4   3 22.1569 5.93246  -2
   7   5   5 22.1569 5.93246   1
   5   7   7 21.1928 12.1774  -2
  -5   6   5 21.1928 12.1774   1
  -4   6   5 33.4243 2.32446   1
  -3   6   5 3.33382 1.28031   1
  -2   6   5 124.546 2.95690   1
   1   6   5 1.82067 2.61770  -2
  -1   6   5 1.82067 2.61770   1
   0   6   5 31.1423 1.52566  -2
   0   6   5 31.1423 1.52566   1
  -1   6   5 16.6040 3.58952  -2
   1   6   5 16.6040 3.58952   1
  -2   6   4 46.1461 6.00642  -2
   2   6   5 46.1461 6.00642   1
   3   6   5 -0.7621 1.13851   1
   4   6   5 0.86815 1.11441   1
  -5   5   3 13.1900 3.90514  -2
   5   6   5 13.1900 3.90514   1
  -6   5   3 38.1469 2.94403  -2
   6   6   5 38.1469 2.94403   1
  -4   7   5 4.95777 2.20634   1
  -3   7   5 213.940 5.70747   1
   2   7   6 59.9929 7.24903  -2
  -2   7   5 59.9929 7.24903   1
   1   7   5 30.9177 4.35390  -2
  -1   7   5 30.9177 4.35390   1
   0   7   5 105.080 3.12343  -2
   0   7   5 105.080 3.12343   1
  -1   7   5 141.660 5.79392  -2
   1   7   5 141.660 5.79392   1
  -2   7   4 173.304 9.46464  -2
   2   7   5 173.304 9.46464   1
   3   7   5 6.33026 1.42520   1
   4   7   5 75.9064 2.76905   1
  -5   6   3 37.6992 4.52435  -2
   5   7   5 37.6992 4.52435   1
  -2   8   5 32.6533 3.56349   1
   1   8   5 188.252 7.68338  -2
  -1   8   5 188.252 7.68338   1
   0   8   5 2.43678 2.41871  -2
   0   8   5 2.43678 2.41871   1
  -1   8   5 37.8798 6.58413  -2
   1   8   5 37.8798 6.58413   1
   2   8   5 0.93288 1.41592   1
   3   8   5 195.033 4.32239   1
   4   8   5 32.8116 2.23303   1
  -3  -8   6 66.3792 3.86812   1
  -2  -8   6 11.8007 2.37400   1
   1  -8   6 231.514 8.53933  -2
  -1  -8   6 231.514 8.53933   1
   0  -8   6 104.157 3.87062  -2
   0  -8   6 104.157 3.87062   1
  -1  -8   6 224.843 6.13878  -2
   1  -8   6 224.843 6.13878   1
   2  -8   6 2.80501 1.86648   1
  -4  -7   6 25.5717 2.35370   1
  -3  -7   6 89.0876 3.28412   1
  -2  -7   6 61.5838 2.90026   1
   1  -7   6 7.86232 3.78463  -2
  -1  -7   6 7.86232 3.78463   1
   0  -7   6 7.95205 2.32709  -2
   0  -7   6 7.95205 2.32709   1
  -1  -7   6 6.26240 3.10953  -2
   1  -7   6 6.26240 3.10953   1
   2  -7   6 122.885 3.50774   1
   3  -7   6 50.0907 2.83796   1
   4  -7   6 3.07294 1.92441   1
   5  -5   8 71.8124 6.19107  -2
  -5  -6   6 71.8124 6.19107   1
  -4  -6   6 6.04013 1.70326   1
  -3  -6   6 47.0327 1.93172   1
  -2  -6   6 29.8118 1.55652   1
   1  -6   6 315.107 7.69499  -2
  -1  -6   6 315.107 7.69499   1
   0  -6   6 12.0534 1.83735  -2
   0  -6   6 12.0534 1.83735   1
  -1  -6   6 202.259 4.99299  -2
   1  -6   6 202.259 4.99299   1
   2  -6   6 12.7305 1.68563   1
   3  -6   6 286.736 6.31152   1
   4  -6   6 25.8066 2.25438   1
  -5  -7   4 107.937 4.84253  -2
   5  -6   6 107.937 4.84253   1
   6  -4   8 8.99513 3.35386  -2
  -6  -5   6 8.99513 3.35386   1
   5  -4   8 7.10873 5.07065  -2
  -5  -5   6 7.10873 5.07065   1
  -4  -5   6 42.5768 1.86099   1
  -3  -5   6 2.20786 1.01970   1
  -2  -5   6 2.02087 0.79633   1
   1  -5   6 4.89961 2.82569  -2
  -1  -5   6 4.89961 2.82569   1
   0  -5   6 39.5869 1.70783  -2
   0  -5   6 39.5869 1.70783   1
  -1  -5   6 24.9601 2.69951  -2
   1  -5   6 24.9601 2.69951   1
   2  -5   6 1.30513 1.21497   1
   3  -5   6 57.9646 2.64549   1
   4  -5   6 18.7099 1.92275   1
  -5  -6   4 88.5234 4.35176  -2
   5  -5   6 88.5234 4.35176   1
  -6  -6   4 6.60825 3.59932  -2
   6  -5   6 6.60825 3.59932   1
   7  -3   8 11.0214 6.82913  -2
  -7  -4   6 11.0214 6.82913   1
   6  -3   8 32.3048 3.65433  -2
  -6  -4   6 32.3048 3.65433   1
   5  -3   8 9.54089 3.34495  -2
  -5  -4   6 9.54089 3.34495   1
  -4  -4   6 46.9616 2.04014   1
  -3  -4   6 -0.3895 0.97591   1
  -2  -4   6 148.492 2.61508   1
   1  -4   6 34.6781 2.49164  -2
  -1  -4   6 34.6781 2.49164   1
   0  -4   6 19.1245 1.39747  -2
   0  -4   6 19.1245 1.39747   1
  -1  -4   6 6.57763 2.22747  -2
   1  -4   6 6.57763 2.22747   1
   2  -4   6 206.468 3.80059   1
   3  -4   6 56.8537 2.05931   1
   4  -4   6 18.7122 1.49009   1
  -5  -5   4 5.21839 3.22194  -2
   5  -4   6 5.21839 3.22194   1
  -6  -5   4 68.4070 4.26642  -2
   6  -4   6 68.4070 4.26642   1
  -7  -5   3 9.43555 7.64351  -2
   7  -4   6 9.43555 7.64351   1
   6  -2   8 125.482 3.95946  -2
  -6  -3   6 125.482 3.95946   1
   5  -2   8 71.8773 4.84953  -2
  -5  -3   6 71.8773 4.84953   1
  -4  -3   6 1.10122 0.89110   1
  -3  -3   6 156.525 3.09608   1
  -2  -3   6 317.867 4.42056   1
   1  -3   6 55.2511 2.46283  -2
  -1  -3   6 55.2511 2.46283   1
   0  -3   6 29.9088 1.42814  -2
   0  -3   6 29.9088 1.42814   1
  -1  -3   6 72.3262 2.97995  -2
   1  -3   6 72.3262 2.97995   1
  -2  -3   5 184.194 6.71730  -2
   2  -3   6 184.194 6.71730   1
   3  -3   6 17.4979 1.32584   1
   4  -3   6 37.4718 1.90699   1
  -5  -4   4 37.9924 3.81902  -2
   5  -3   6 37.9924 3.81902   1
  -6  -4   4 40.3211 3.62406  -2
   6  -3   6 40.3211 3.62406   1
  -7  -4   3 22.8857 7.41558  -2
   7  -3   6 22.8857 7.41558   1
   6  -1   8 -1.2391 2.31951  -2
  -6  -2   6 -1.2391 2.31951   1
   5  -1   8 83.5127 4.79608  -2
  -5  -2   6 83.5127 4.79608   1
  -4  -2   6 41.7499 1.58032   1
  -3  -2   6 185.368 2.96383   1
  -2  -2   6 79.7223 1.76265   1
   1  -2   6 305.994 6.98277  -2
  -1  -2   6 305.994 6.98277   1
   0  -2   6 358.825 5.01342  -2
   0  -2   6 358.825 5.01342   1
  -1  -2   6 380.699 9.93679  -2
   1  -2   6 380.699 9.93679   1
  -2  -2   5 56.7597 3.09189  -2
   2  -2   6 56.7597 3.09189   1
   3  -2   6 47.5951 1.54719   1
   4  -2   6 125.592 2.65285   1
  -5  -3   4 53.4380 4.99773  -2
   5  -2   6 53.4380 4.99773   1
  -6  -3   4 64.9402 3.83546  -2
   6  -2   6 64.9402 3.83546   1
  -7  -3   3 17.9016 6.98668  -2
   7  -2   6 17.9016 6.98668   1
   7   0   8 114.761 7.13886  -2
  -7  -1   6 114.761 7.13886   1
   6   0   8 65.9548 3.10605  -2
  -6  -1   6 65.9548 3.10605   1
   5   0   8 63.0833 3.63814  -2
  -5  -1   6 63.0833 3.63814   1
  -4  -1   6 0.18790 0.76987   1
  -3  -1   6 168.575 2.72918   1
  -2  -1   6 195.899 2.89978   1
   1  -1   6 4.94665 2.53800  -2
  -1  -1   6 4.94665 2.53800   1
   0  -1   6 47.4618 1.19189  -2
   0  -1   6 47.4618 1.19189   1
  -1  -1   6 4.83874 3.04661  -2
   1  -1   6 4.83874 3.04661   1
  -2  -1   5 38.6074 3.48533  -2
   2  -1   6 38.6074 3.48533   1
   3  -1   6 104.817 2.49310   1
   4  -1   6 113.331 2.78569   1
  -5  -2   4 0.53171 3.93289  -2
   5  -1   6 0.53171 3.93289   1
  -6  -2   4 0.62572 3.14198  -2
   6  -1   6 0.62572 3.14198   1
  -7  -2   3 47.4011 7.16856  -2
   7  -1   6 47.4011 7.16856   1
  -8  -2   3 62.3157 6.17074  -2
   8  -1   6 62.3157 6.17074   1
   7   1   8 5.87764 5.77670  -2
  -7   0   6 5.87764 5.77670   1
   6   1   8 126.352 3.81362  -2
  -6   0   6 126.352 3.81362   1
   5   1   8 44.5589 7.11818  -2
  -5   0   6 44.5589 7.11818   1
  -4   0   6 52.1417 1.71121   1
  -3   0   6 29.1321 1.08798   1
  -2   0   6 59.0354 1.28638   1
   1   0   6 237.392 6.65862  -2
  -1   0   6 237.392 6.65862   1
   0   0   6 661.168 8.49054  -2
   0   0   6 661.168 8.49054   1
  -1   0   6 134.584 5.90008  -2
   1   0   6 134.584 5.90008   1
   2   0   6 3.38280 0.72529   1
   3   0   6 140.638 3.00414   1
   4   0   6 377.915 6.57301   1
  -5  -1   4 0.30838 5.59239  -2
   5   0   6 0.30838 5.59239   1
  -6  -1   4 34.7121 2.89762  -2
   6   0   6 34.7121 2.89762   1
  -7  -1   3 12.9405 6.40038  -2
   7   0   6 12.9405 6.40038   1
  -8  -1   3 60.8041 6.13510  -2
   8   0   6 60.8041 6.13510   1
   7   2   8 269.418 15.4623  -2
  -7   1   6 269.418 15.4623   1
   6   2   8 8.46381 2.73552  -2
  -6   1   6 8.46381 2.73552   1
   5   2   8 294.327 14.5634  -2
  -5   1   6 294.327 14.5634   1
  -4   1   6 231.967 3.91330   1
  -3   1   6 464.241 6.64155   1
  -2   1   6 112.413 2.18302   1
   1   1   6 197.650 5.70440  -2
  -1   1   6 197.650 5.70440   1
   0   1   6 770.868 8.88473  -2
   0   1   6 770.868 8.88473   1
  -1   1   6 233.013 9.48675  -2
   1   1   6 233.013 9.48675   1
   2   1   6 38.0548 1.21319   1
   3   1   6 -0.3351 0.72642   1
   4   1   6 56.2594 1.97713   1
  -5   0   4 7.96027 6.12456  -2
   5   1   6 7.96027 6.12456   1
  -6   0   4 15.3700 2.45841  -2
   6   1   6 15.3700 2.45841   1
  -7   0   4 17.2420 5.43029  -2
   7   1   6 17.2420 5.43029   1
  -7   0   3 16.5222 6.36027  -2
   7   1   6 16.5222 6.36027   1
  -8   0   3 4.64200 4.08292  -2
   8   1   6 4.64200 4.08292   1
   7   3   8 41.4808 9.92152  -2
  -7   2   6 41.4808 9.92152   1
   6   3   8 25.0869 2.82710  -2
  -6   2   6 25.0869 2.82710   1
   5   3   8 451.602 19.9302  -2
  -5   2   6 451.602 19.9302   1
  -4   2   6 5.47408 1.18989   1
  -3   2   6 406.960 6.79652   1
  -2   2   6 13.7925 1.24103   1
   1   2   6 1767.43 39.1785  -2
  -1   2   6 1767.43 39.1785   1
   0   2   6 286.908 3.88436  -2
   0   2   6 286.908 3.88436   1
  -1   2   6 760.113 14.2711  -2
   1   2   6 760.113 14.2711   1
   2   2   6 234.214 3.58620   1
   3   2   6 1034.06 13.6968   1
   4   2   6 359.198 5.74710   1
  -5   1   4 55.9890 5.44800  -2
   5   2   6 55.9890 5.44800   1
  -6   1   4 108.880 3.83960  -2
   6   2   6 108.880 3.83960   1
  -7   1   3 152.341 8.93682  -2
   7   2   6 152.341 8.93682   1
  -7   1   4 150.782 8.08250  -2
   7   2   6 150.782 8.08250   1
  -8   1   3 73.1619 4.71192  -2
   8   2   6 73.1619 4.71192   1
   7   4   8 19.9342 10.0535  -2
  -7   3   6 19.9342 10.0535   1
   6   4   8 9.98665 2.83610  -2
  -6   3   6 9.98665 2.83610   1
   5   4   8 134.050 11.2537  -2
  -5   3   6 134.050 11.2537   1
  -4   3   6 103.961 3.44456   1
  -3   3   6 4.69292 0.93892   1
  -2   3   6 -0.4796 0.68673   1
   1   3   6 65.3445 2.89976  -2
  -1   3   6 65.3445 2.89976   1
   0   3   6 225.497 3.03485  -2
   0   3   6 225.497 3.03485   1
  -1   3   6 448.263 8.76545  -2
   1   3   6 448.263 8.76545   1
   2   3   6 10.9767 0.56484   1
   3   3   6 147.875 2.69115   1
   4   3   6 13.3262 1.24650   1
  -5   2   4 508.369 12.4579  -2
   5   3   6 508.369 12.4579   1
  -6   2   4 81.3689 3.59021  -2
   6   3   6 81.3689 3.59021   1
  -7   2   4 97.5848 5.66510  -2
   7   3   6 97.5848 5.66510   1
   6   5   8 11.2495 3.30903  -2
  -6   4   6 11.2495 3.30903   1
   5   5   8 193.859 13.3575  -2
  -5   4   6 193.859 13.3575   1
  -4   4   6 12.2565 1.80453   1
  -3   4   6 341.071 5.51148   1
  -2   4   6 71.7497 2.02459   1
   1   4   6 540.034 10.5742  -2
  -1   4   6 540.034 10.5742   1
   0   4   6 8.86077 0.94862  -2
   0   4   6 8.86077 0.94862   1
  -1   4   6 415.644 8.33862  -2
   1   4   6 415.644 8.33862   1
   2   4   6 217.157 3.55509   1
   3   4   6 145.415 3.06246   1
   4   4   6 67.9808 2.26935   1
  -5   3   4 39.4062 4.44261  -2
   5   4   6 39.4062 4.44261   1
  -6   3   4 151.015 4.23779  -2
   6   4   6 151.015 4.23779   1
  -7   3   4 8.76254 5.62821  -2
   7   4   6 8.76254 5.62821   1
   5   6   8 27.0472 6.75549  -2
  -5   5   6 27.0472 6.75549   1
  -4   5   6 32.6247 2.21655   1
  -3   5   6 51.7715 2.37798   1
  -2   5   6 43.7929 1.73858   1
   1   5   6 46.5174 3.12057  -2
  -1   5   6 46.5174 3.12057   1
   0   5   6 30.2686 1.27290  -2
   0   5   6 30.2686 1.27290   1
  -1   5   6 322.319 7.22997  -2
   1   5   6 322.319 7.22997   1
  -2   5   5 11.5094 5.27054  -2
   2   5   6 11.5094 5.27054   1
   3   5   6 67.4126 2.27423   1
   4   5   6 3.88068 1.22573   1
  -5   4   4 331.176 10.2774  -2
   5   5   6 331.176 10.2774   1
  -6   4   4 53.3004 3.15761  -2
   6   5   6 53.3004 3.15761   1
   7   5   6 21.1662 3.62470   1
  -5   6   6 5.51793 2.29870   1
  -4   6   6 55.1452 2.80878   1
  -3   6   6 118.514 3.55487   1
  -2   6   6 192.609 3.79970   1
   1   6   6 20.9098 2.76778  -2
  -1   6   6 20.9098 2.76778   1
   0   6   6 136.420 3.14008  -2
   0   6   6 136.420 3.14008   1
  -1   6   6 166.619 5.76509  -2
   1   6   6 166.619 5.76509   1
  -2   6   5 312.341 12.5572  -2
   2   6   6 312.341 12.5572   1
   3   6   6 12.5366 1.42272   1
   4   6   6 94.4719 2.90373   1
  -5   5   4 42.3274 5.34858  -2
   5   6   6 42.3274 5.34858   1
  -6   5   4 142.351 4.38279  -2
   6   6   6 142.351 4.38279   1
  -4   7   6 57.7649 3.47852   1
  -3   7   6 10.3184 2.19300   1
   2   7   7 26.0719 7.00944  -2
  -2   7   6 26.0719 7.00944   1
   1   7   6 7.97116 4.31540  -2
  -1   7   6 7.97116 4.31540   1
   0   7   6 141.198 3.35512  -2
   0   7   6 141.198 3.35512   1
  -1   7   6 11.9203 5.64700  -2
   1   7   6 11.9203 5.64700   1
  -2   7   5 91.0038 7.96905  -2
   2   7   6 91.0038 7.96905   1
   3   7   6 20.3444 1.72537   1
   4   7   6 157.059 3.82360   1
  -5   6   4 3.13598 4.29309  -2
   5   7   6 3.13598 4.29309   1
   2   8   7 6.22477 7.73145  -2
  -2   8   6 6.22477 7.73145   1
   1   8   6 3.09789 7.64222  -2
  -1   8   6 3.09789 7.64222   1
   0   8   6 4.64591 2.30768  -2
   0   8   6 4.64591 2.30768   1
  -1   8   6 32.1782 4.83261  -2
   1   8   6 32.1782 4.83261   1
   2   8   6 1.31225 1.63093   1
   3   8   6 0.72319 1.74377   1
  -2  -8   7 7.69866 2.41852   1
   1  -8   7 110.183 6.67243  -2
  -1  -8   7 110.183 6.67243   1
   0  -8   7 144.449 4.59547  -2
   0  -8   7 144.449 4.59547   1
  -1  -8   7 19.5778 3.77881  -2
   1  -8   7 19.5778 3.77881   1
   2  -8   7 15.2844 2.30099   1
  -4  -7   7 25.6965 2.34583   1
  -3  -7   7 11.6990 1.87874   1
  -2  -7   7 28.9760 1.88187   1
   1  -7   7 20.9168 4.79496  -2
  -1  -7   7 20.9168 4.79496   1
   0  -7   7 1.14737 2.37533  -2
   0  -7   7 1.14737 2.37533   1
  -1  -7   7 68.9673 3.67329  -2
   1  -7   7 68.9673 3.67329   1
   2  -7   7 2.54958 1.73742   1
   3  -7   7 27.0111 2.41847   1
   4  -7   7 24.5782 2.49420   1
   5  -5   9 29.8561 4.05875  -2
  -5  -6   7 29.8561 4.05875   1
  -4  -6   7 176.950 4.19385   1
  -3  -6   7 39.6090 1.87954   1
  -2  -6   7 48.8303 2.09916   1
   1  -6   7 77.2739 4.21219  -2
  -1  -6   7 77.2739 4.21219   1
   0  -6   7 538.758 11.3830  -2
   0  -6   7 538.758 11.3830   1
  -1  -6   7 26.6734 2.54296  -2
   1  -6   7 26.6734 2.54296   1
   2  -6   7 61.5145 2.83885   1
   3  -6   7 6.15442 1.71474   1
   4  -6   7 231.017 5.73741   1
  -5  -7   5 16.4909 4.74394  -2
   5  -6   7 16.4909 4.74394   1
   6  -4   9 7.35433 4.46986  -2
  -6  -5   7 7.35433 4.46986   1
   5  -4   9 117.995 5.68541  -2
  -5  -5   7 117.995 5.68541   1
  -4  -5   7 197.291 3.97693   1
  -3  -5   7 13.7502 1.33151   1
  -2  -5   7 7.00465 1.22265   1
   1  -5   7 28.9254 2.84390  -2
  -1  -5   7 28.9254 2.84390   1
   0  -5   7 76.7091 2.44140  -2
   0  -5   7 76.7091 2.44140   1
  -1  -5   7 9.66056 2.63185  -2
   1  -5   7 9.66056 2.63185   1
   2  -5   7 171.701 4.28557   1
   3  -5   7 1.39270 1.39378   1
   4  -5   7 5.84783 1.68772   1
  -5  -6   5 18.5516 3.73917  -2
   5  -5   7 18.5516 3.73917   1
  -6  -6   5 196.942 5.71578  -2
   6  -5   7 196.942 5.71578   1
   6  -3   9 47.6960 5.30882  -2
  -6  -4   7 47.6960 5.30882   1
   5  -3   9 77.4461 4.16309  -2
  -5  -4   7 77.4461 4.16309   1
  -4  -4   7 49.1696 2.15657   1
  -3  -4   7 219.013 4.37289   1
  -2  -4   7 355.104 5.63574   1
   1  -4   7 269.904 5.69776  -2
  -1  -4   7 269.904 5.69776   1
   0  -4   7 308.925 5.33979  -2
   0  -4   7 308.925 5.33979   1
  -1  -4   7 228.961 5.73608  -2
   1  -4   7 228.961 5.73608   1
   2  -4   7 486.089 8.92760   1
   3  -4   7 96.7827 2.56470   1
   4  -4   7 142.429 3.36745   1
  -5  -5   5 46.9657 3.58051  -2
   5  -4   7 46.9657 3.58051   1
  -6  -5   5 133.265 5.29256  -2
   6  -4   7 133.265 5.29256   1
   6  -2   9 -2.1828 2.86435  -2
  -6  -3   7 -2.1828 2.86435   1
   5  -2   9 23.7493 3.19169  -2
  -5  -3   7 23.7493 3.19169   1
  -4  -3   7 62.9075 2.05234   1
  -3  -3   7 7.30093 0.73888   1
  -2  -3   7 4.54114 0.65132   1
   1  -3   7 21.4958 2.20480  -2
  -1  -3   7 21.4958 2.20480   1
   0  -3   7 15.6062 1.36746  -2
   0  -3   7 15.6062 1.36746   1
  -1  -3   7 131.106 3.90913  -2
   1  -3   7 131.106 3.90913   1
   2  -3   7 164.636 3.17632   1
   3  -3   7 40.0115 1.66424   1
   4  -3   7 53.4199 2.31503   1
  -5  -4   5 119.518 4.86672  -2
   5  -3   7 119.518 4.86672   1
  -6  -4   5 232.981 6.65498  -2
   6  -3   7 232.981 6.65498   1
  -7  -4   4 6.54391 5.03091  -2
   7  -3   7 6.54391 5.03091   1
   6  -1   9 5.35513 2.44678  -2
  -6  -2   7 5.35513 2.44678   1
   5  -1   9 51.0437 4.12707  -2
  -5  -2   7 51.0437 4.12707   1
  -4  -2   7 95.2547 2.16791   1
  -3  -2   7 186.444 3.03568   1
  -2  -2   7 153.019 2.69131   1
   1  -2   7 60.6743 2.84699  -2
  -1  -2   7 60.6743 2.84699   1
   0  -2   7 7.19696 0.91497  -2
   0  -2   7 7.19696 0.91497   1
  -1  -2   7 128.193 4.67811  -2
   1  -2   7 128.193 4.67811   1
  -2  -2   6 490.971 15.1965  -2
   2  -2   7 490.971 15.1965   1
   3  -2   7 0.67804 0.70591   1
   4  -2   7 2.83772 0.99704   1
  -5  -3   5 39.2681 4.71851  -2
   5  -2   7 39.2681 4.71851   1
  -6  -3   5 171.099 5.54833  -2
   6  -2   7 171.099 5.54833   1
  -7  -3   4 35.8037 6.89488  -2
   7  -2   7 35.8037 6.89488   1
  -7  -1   7 12.8439 5.45755   1
   6   0   9 89.4925 3.46433  -2
  -6  -1   7 89.4925 3.46433   1
   5   0   9 71.2895 4.32873  -2
  -5  -1   7 71.2895 4.32873   1
  -4  -1   7 5.42935 0.88764   1
  -3  -1   7 120.203 2.20592   1
  -2  -1   7 398.411 5.25711   1
   1  -1   7 225.914 5.36917  -2
  -1  -1   7 225.914 5.36917   1
   0  -1   7 26.9045 1.07795  -2
   0  -1   7 26.9045 1.07795   1
  -1  -1   7 267.561 7.29933  -2
   1  -1   7 267.561 7.29933   1
   2  -1   7 184.257 3.14185   1
   3  -1   7 106.676 2.57422   1
   4  -1   7 59.6004 2.11897   1
  -5  -2   5 65.6630 4.98618  -2
   5  -1   7 65.6630 4.98618   1
  -6  -2   5 5.56655 3.63670  -2
   6  -1   7 5.56655 3.63670   1
  -7  -2   4 16.2145 6.54288  -2
   7  -1   7 16.2145 6.54288   1
   7   1   9 27.3110 9.22813  -2
  -7   0   7 27.3110 9.22813   1
   6   1   9 20.8225 2.96310  -2
  -6   0   7 20.8225 2.96310   1
   5   1   9 48.1788 5.20113  -2
  -5   0   7 48.1788 5.20113   1
  -4   0   7 30.3667 1.61390   1
  -3   0   7 1.99305 0.62683   1
  -2   0   7 113.244 2.21113   1
   1   0   7 219.526 6.39897  -2
  -1   0   7 219.526 6.39897   1
   0   0   7 236.947 3.41395  -2
   0   0   7 236.947 3.41395   1
  -1   0   7 52.6542 3.09374  -2
   1   0   7 52.6542 3.09374   1
   2   0   7 291.563 5.12712   1
   3   0   7 221.354 4.23142   1
   4   0   7 129.951 3.06838   1
  -5  -1   5 23.7273 5.85503  -2
   5   0   7 23.7273 5.85503   1
  -6  -1   5 72.5371 3.48535  -2
   6   0   7 72.5371 3.48535   1
  -7  -1   5 122.755 7.77631  -2
   7   0   7 122.755 7.77631   1
  -7  -1   4 119.393 8.40359  -2
   7   0   7 119.393 8.40359   1
  -8  -1   4 12.7170 5.81476  -2
   8   0   7 12.7170 5.81476   1
   7   2   9 30.6678 9.81077  -2
  -7   1   7 30.6678 9.81077   1
   6   2   9 21.8977 2.93463  -2
  -6   1   7 21.8977 2.93463   1
   5   2   9 -0.0095 6.90662  -2
  -5   1   7 -0.0095 6.90662   1
  -4   1   7 294.503 5.43815   1
  -3   1   7 134.019 2.94569   1
  -2   1   7 39.0363 1.19716   1
   1   1   7 43.1607 2.64027  -2
  -1   1   7 43.1607 2.64027   1
   0   1   7 602.565 7.69693  -2
   0   1   7 602.565 7.69693   1
  -1   1   7 299.740 7.97017  -2
   1   1   7 299.740 7.97017   1
   2   1   7 35.7815 1.28665   1
   3   1   7 1.76944 0.81969   1
   4   1   7 300.441 5.50986   1
  -5   0   5 108.474 7.74197  -2
   5   1   7 108.474 7.74197   1
  -6   0   5 27.9099 2.87082  -2
   6   1   7 27.9099 2.87082   1
  -7   0   5 5.61503 4.63772  -2
   7   1   7 5.61503 4.63772   1
  -7   0   4 10.7333 6.47641  -2
   7   1   7 10.7333 6.47641   1
  -8   0   4 142.090 5.76177  -2
   8   1   7 142.090 5.76177   1
   7   3   9 30.0679 10.0596  -2
  -7   2   7 30.0679 10.0596   1
   6   3   9 93.0312 3.99180  -2
  -6   2   7 93.0312 3.99180   1
   5   3   9 8.29526 7.25113  -2
  -5   2   7 8.29526 7.25113   1
  -4   2   7 1.40629 1.37552   1
  -3   2   7 3.22414 1.19150   1
  -2   2   7 326.901 5.75227   1
   1   2   7 40.0616 4.72475  -2
  -1   2   7 40.0616 4.72475   1
   0   2   7 24.6279 1.04428  -2
   0   2   7 24.6279 1.04428   1
  -1   2   7 64.6460 2.97646  -2
   1   2   7 64.6460 2.97646   1
   2   2   7 331.590 4.46289   1
   3   2   7 140.895 2.59726   1
   4   2   7 11.4114 0.98075   1
   5   2   7 45.7940 2.41480   1
  -6   1   5 110.955 3.97810  -2
   6   2   7 110.955 3.97810   1
  -7   1   5 46.1207 6.38532  -2
   7   2   7 46.1207 6.38532   1
  -7   1   4 52.2528 7.37975  -2
   7   2   7 52.2528 7.37975   1
   6   4   9 135.004 4.77910  -2
  -6   3   7 135.004 4.77910   1
   5   4   9 46.5729 8.92014  -2
  -5   3   7 46.5729 8.92014   1
  -4   3   7 62.3858 2.88848   1
  -3   3   7 208.502 4.39726   1
  -2   3   7 88.5624 2.04330   1
   1   3   7 74.5466 3.11805  -2
  -1   3   7 74.5466 3.11805   1
   0   3   7 1.47773 0.98863  -2
   0   3   7 1.47773 0.98863   1
  -1   3   7 246.566 5.29649  -2
   1   3   7 246.566 5.29649   1
   2   3   7 0.97839 0.59230   1
   3   3   7 -0.2868 0.69941   1
   4   3   7 12.0869 1.26932   1
  -5   2   5 27.9728 6.75036  -2
   5   3   7 27.9728 6.75036   1
  -6   2   5 8.55093 2.67937  -2
   6   3   7 8.55093 2.67937   1
  -7   2   5 41.4211 6.32608  -2
   7   3   7 41.4211 6.32608   1
   6   5   9 158.190 5.32670  -2
  -6   4   7 158.190 5.32670   1
   5   5   9 19.1313 9.56960  -2
  -5   4   7 19.1313 9.56960   1
  -4   4   7 205.023 4.71194   1
  -3   4   7 52.2274 2.33547   1
  -2   4   7 524.774 9.70189   1
   1   4   7 172.656 5.41675  -2
  -1   4   7 172.656 5.41675   1
   0   4   7 336.757 4.73897  -2
   0   4   7 336.757 4.73897   1
  -1   4   7 30.9339 2.23136  -2
   1   4   7 30.9339 2.23136   1
   2   4   7 341.755 5.53188   1
   3   4   7 423.246 6.12017   1
   4   4   7 41.5536 1.89436   1
  -5   3   5 21.0567 6.82303  -2
   5   4   7 21.0567 6.82303   1
  -6   3   5 58.2464 3.23002  -2
   6   4   7 58.2464 3.23002   1
  -7   3   5 191.034 8.44275  -2
   7   4   7 191.034 8.44275   1
   5   6   9 186.869 14.4891  -2
  -5   5   7 186.869 14.4891   1
  -4   5   7 23.8952 2.10629   1
  -3   5   7 64.7799 2.71105   1
  -2   5   7 8.41255 1.44155   1
   1   5   7 254.747 7.45342  -2
  -1   5   7 254.747 7.45342   1
   0   5   7 256.887 3.94482  -2
   0   5   7 256.887 3.94482   1
  -1   5   7 56.7070 5.04027  -2
   1   5   7 56.7070 5.04027   1
   2   5   7 133.314 2.97108   1
   3   5   7 57.6037 2.16714   1
   4   5   7 269.411 4.55850   1
  -5   4   5 54.1949 5.52582  -2
   5   5   7 54.1949 5.52582   1
  -6   4   5 65.4479 3.40944  -2
   6   5   7 65.4479 3.40944   1
  -4   6   7 59.4094 2.93347   1
  -3   6   7 21.5581 2.02215   1
  -2   6   7 55.5249 2.51951   1
   1   6   7 182.920 5.67237  -2
  -1   6   7 182.920 5.67237   1
   0   6   7 90.6245 2.41750  -2
   0   6   7 90.6245 2.41750   1
  -1   6   7 176.696 8.29936  -2
   1   6   7 176.696 8.29936   1
  -2   6   6 40.2740 6.24085  -2
   2   6   7 40.2740 6.24085   1
   3   6   7 257.648 4.86525   1
   4   6   7 0.06975 1.33814   1
  -5   5   5 116.284 5.24461  -2
   5   6   7 116.284 5.24461   1
  -6   5   5 10.9647 3.01690  -2
   6   6   7 10.9647 3.01690   1
  -3   7   7 -2.5985 1.97086   1
  -2   7   7 7.93911 1.97464   1
   1   7   7 85.1001 6.51890  -2
  -1   7   7 85.1001 6.51890   1
   0   7   7 11.5271 2.10063  -2
   0   7   7 11.5271 2.10063   1
  -1   7   7 48.1145 4.49335  -2
   1   7   7 48.1145 4.49335   1
  -2   7   6 9.89982 6.55046  -2
   2   7   7 9.89982 6.55046   1
   3   7   7 3.47447 1.44605   1
   4   7   7 47.1805 2.37029   1
  -5   6   5 145.837 5.86371  -2
   5   7   7 145.837 5.86371   1
   1   8   7 33.3483 9.07226  -2
  -1   8   7 33.3483 9.07226   1
   0   8   7 159.728 6.56536  -2
   0   8   7 159.728 6.56536   1
  -1   8   7 221.306 7.68095  -2
   1   8   7 221.306 7.68095   1
  -2   8   6 76.0386 9.02733  -2
   2   8   7 76.0386 9.02733   1
   3   8   7 14.0768 2.05109   1
  -2  -8   8 82.9977 7.36446   1
   1  -8   8 11.8002 4.73064  -2
  -1  -8   8 11.8002 4.73064   1
   0  -8   8 19.8533 3.03332  -2
   0  -8   8 19.8533 3.03332   1
  -1  -8   8 2.78820 3.49992  -2
   1  -8   8 2.78820 3.49992   1
  -4  -7   8 104.602 3.91144   1
  -3  -7   8 7.27016 1.87634   1
  -2  -7   8 0.00867 1.43496   1
   1  -7   8 62.2839 5.45138  -2
  -1  -7   8 62.2839 5.45138   1
   0  -7   8 209.544 5.37417  -2
   0  -7   8 209.544 5.37417   1
  -1  -7   8 27.3713 3.35511  -2
   1  -7   8 27.3713 3.35511   1
   2  -7   8 9.72260 1.97058   1
   3  -7   8 36.0081 2.69934   1
   5  -5  10 54.7728 5.48545  -2
  -5  -6   8 54.7728 5.48545   1
  -4  -6   8 62.0708 2.67914   1
  -3  -6   8 12.1573 1.46483   1
  -2  -6   8 221.433 4.20469   1
   1  -6   8 41.8019 3.92113  -2
  -1  -6   8 41.8019 3.92113   1
   0  -6   8 55.4852 3.20528  -2
   0  -6   8 55.4852 3.20528   1
  -1  -6   8 7.62503 2.82147  -2
   1  -6   8 7.62503 2.82147   1
   2  -6   8 140.119 4.09649   1
   3  -6   8 2.46142 1.66921   1
   4  -6   8 21.6253 2.33151   1
   5  -6   8 13.3622 2.24876   1
   6  -4  10 31.0012 7.95481  -2
  -6  -5   8 31.0012 7.95481   1
   5  -4  10 26.9095 3.51587  -2
  -5  -5   8 26.9095 3.51587   1
  -4  -5   8 34.1458 1.92688   1
  -3  -5   8 62.7317 2.83002   1
  -2  -5   8 15.0222 1.52705   1
   1  -5   8 159.798 5.18589  -2
  -1  -5   8 159.798 5.18589   1
   0  -5   8 4.77167 2.05781  -2
   0  -5   8 4.77167 2.05781   1
  -1  -5   8 137.765 4.71724  -2
   1  -5   8 137.765 4.71724   1
   2  -5   8 95.6352 3.24163   1
   3  -5   8 117.612 3.66980   1
   4  -5   8 20.8291 2.09216   1
  -5  -6   6 30.1488 3.96353  -2
   5  -5   8 30.1488 3.96353   1
   6  -3  10 486.379 11.8415  -2
  -6  -4   8 486.379 11.8415   1
   5  -3  10 12.4063 4.69214  -2
  -5  -4   8 12.4063 4.69214   1
  -4  -4   8 146.459 3.60615   1
  -3  -4   8 0.97760 1.06093   1
  -2  -4   8 858.325 12.2602   1
   1  -4   8 20.0455 2.26216  -2
  -1  -4   8 20.0455 2.26216   1
   0  -4   8 122.030 2.80445  -2
   0  -4   8 122.030 2.80445   1
  -1  -4   8 13.5865 2.74335  -2
   1  -4   8 13.5865 2.74335   1
   2  -4   8 442.367 8.31941   1
   3  -4   8 1.06498 1.27334   1
   4  -4   8 0.90215 1.38049   1
  -5  -5   6 51.3476 3.91955  -2
   5  -4   8 51.3476 3.91955   1
  -6  -5   6 56.1096 5.66625  -2
   6  -4   8 56.1096 5.66625   1
   6  -2  10 68.2809 4.01412  -2
  -6  -3   8 68.2809 4.01412   1
   5  -2  10 64.0248 4.27276  -2
  -5  -3   8 64.0248 4.27276   1
  -4  -3   8 80.2181 2.45089   1
  -3  -3   8 12.9205 1.11945   1
  -2  -3   8 2.92740 0.88192   1
   1  -3   8 9.85864 1.99692  -2
  -1  -3   8 9.85864 1.99692   1
   0  -3   8 652.037 10.0452  -2
   0  -3   8 652.037 10.0452   1
  -1  -3   8 11.4691 2.37650  -2
   1  -3   8 11.4691 2.37650   1
   2  -3   8 96.1532 2.32931   1
   3  -3   8 14.7200 1.22754   1
   4  -3   8 433.234 7.97529   1
  -5  -4   6 27.4773 3.88392  -2
   5  -3   8 27.4773 3.88392   1
  -6  -4   6 38.3292 3.76760  -2
   6  -3   8 38.3292 3.76760   1
  -7  -4   5 2.68658 5.08713  -2
   7  -3   8 2.68658 5.08713   1
   6  -1  10 108.707 3.75408  -2
  -6  -2   8 108.707 3.75408   1
   5  -1  10 81.3986 4.67946  -2
  -5  -2   8 81.3986 4.67946   1
  -4  -2   8 220.060 3.63153   1
  -3  -2   8 102.428 2.13575   1
  -2  -2   8 185.456 3.14109   1
   1  -2   8 420.632 9.19881  -2
  -1  -2   8 420.632 9.19881   1
   0  -2   8 185.001 2.83246  -2
   0  -2   8 185.001 2.83246   1
  -1  -2   8 271.339 7.77863  -2
   1  -2   8 271.339 7.77863   1
  -2  -2   7 42.1116 3.76338  -2
   2  -2   8 42.1116 3.76338   1
   3  -2   8 268.813 4.44960   1
   4  -2   8 1.56465 1.01380   1
  -5  -3   6 24.7892 4.67390  -2
   5  -2   8 24.7892 4.67390   1
  -6  -3   6 26.3714 3.45257  -2
   6  -2   8 26.3714 3.45257   1
  -7  -3   5 38.5056 7.38608  -2
   7  -2   8 38.5056 7.38608   1
  -7  -1   8 -8.4334 4.92795   1
   6   0  10 15.5944 3.07680  -2
  -6  -1   8 15.5944 3.07680   1
   5   0  10 82.1529 4.50297  -2
  -5  -1   8 82.1529 4.50297   1
  -4  -1   8 65.1365 2.15023   1
  -3  -1   8 5.27156 0.71734   1
  -2  -1   8 2.71375 0.62187   1
   1  -1   8 36.5656 2.44997  -2
  -1  -1   8 36.5656 2.44997   1
   0  -1   8 394.576 5.24693  -2
   0  -1   8 394.576 5.24693   1
  -1  -1   8 235.749 5.67639  -2
   1  -1   8 235.749 5.67639   1
  -2  -1   7 79.5733 4.62490  -2
   2  -1   8 79.5733 4.62490   1
   3  -1   8 67.7612 2.13264   1
   4  -1   8 208.331 4.27804   1
  -5  -2   6 346.011 10.7040  -2
   5  -1   8 346.011 10.7040   1
  -6  -2   6 8.25133 3.77300  -2
   6  -1   8 8.25133 3.77300   1
  -7  -2   5 43.1131 7.32255  -2
   7  -1   8 43.1131 7.32255   1
   7   1  10 -5.2772 8.91562  -2
  -7   0   8 -5.2772 8.91562   1
   6   1  10 13.3913 2.99573  -2
  -6   0   8 13.3913 2.99573   1
   5   1  10 5.54409 4.79724  -2
  -5   0   8 5.54409 4.79724   1
  -4   0   8 362.337 6.40169   1
  -3   0   8 57.2104 1.66946   1
  -2   0   8 14.5769 0.82257   1
   1   0   8 66.8022 3.31286  -2
  -1   0   8 66.8022 3.31286   1
   0   0   8 405.605 5.51102  -2
   0   0   8 405.605 5.51102   1
  -1   0   8 200.236 4.86254  -2
   1   0   8 200.236 4.86254   1
  -2   0   7 26.6011 3.57098  -2
   2   0   8 26.6011 3.57098   1
   3   0   8 43.0559 1.76569   1
   4   0   8 50.4503 1.86892   1
  -5  -1   6 55.3759 6.83512  -2
   5   0   8 55.3759 6.83512   1
  -6  -1   6 47.6402 3.26327  -2
   6   0   8 47.6402 3.26327   1
  -7  -1   5 16.6318 7.00372  -2
   7   0   8 16.6318 7.00372   1
   7   2  10 22.6160 9.51775  -2
  -7   1   8 22.6160 9.51775   1
   6   2  10 44.3352 3.41387  -2
  -6   1   8 44.3352 3.41387   1
   5   2  10 3.71507 7.11417  -2
  -5   1   8 3.71507 7.11417   1
  -4   1   8 23.4484 1.89122   1
  -3   1   8 6.07258 1.11085   1
  -2   1   8 304.340 4.87390   1
   1   1   8 24.8045 2.46056  -2
  -1   1   8 24.8045 2.46056   1
   0   1   8 182.088 2.53227  -2
   0   1   8 182.088 2.53227   1
  -1   1   8 48.2104 2.82993  -2
   1   1   8 48.2104 2.82993   1
   2   1   8 418.706 5.96201   1
   3   1   8 11.0006 0.93927   1
   4   1   8 95.1971 2.70034   1
  -5   0   6 150.751 8.96627  -2
   5   1   8 150.751 8.96627   1
  -6   0   6 109.879 4.09150  -2
   6   1   8 109.879 4.09150   1
  -7   0   6 41.5807 5.35049  -2
   7   1   8 41.5807 5.35049   1
  -7   0   5 31.7682 7.08572  -2
   7   1   8 31.7682 7.08572   1
   6   3  10 29.6106 3.27828  -2
  -6   2   8 29.6106 3.27828   1
   5   3  10 39.7271 7.95506  -2
  -5   2   8 39.7271 7.95506   1
  -4   2   8 99.1514 3.39191   1
  -3   2   8 23.5724 1.56183   1
  -2   2   8 42.9943 1.80495   1
   1   2   8 69.1440 5.69402  -2
  -1   2   8 69.1440 5.69402   1
   0   2   8 75.3601 1.69321  -2
   0   2   8 75.3601 1.69321   1
  -1   2   8 123.962 3.17305  -2
   1   2   8 123.962 3.17305   1
   2   2   8 6.16212 0.72141   1
   3   2   8 20.7497 1.06622   1
   4   2   8 4.81765 1.08133   1
   5   2   8 71.9895 3.03946   1
  -6   1   6 55.2352 3.32319  -2
   6   2   8 55.2352 3.32319   1
  -7   1   5 41.2158 7.07456  -2
   7   2   8 41.2158 7.07456   1
  -7   1   6 57.0697 6.93992  -2
   7   2   8 57.0697 6.93992   1
   6   4  10 43.7475 3.61014  -2
  -6   3   8 43.7475 3.61014   1
   5   4  10 64.4082 9.86112  -2
  -5   3   8 64.4082 9.86112   1
  -4   3   8 2.27003 1.42490   1
  -3   3   8 3.85005 1.28015   1
  -2   3   8 198.284 4.15383   1
   1   3   8 72.4405 2.93942  -2
  -1   3   8 72.4405 2.93942   1
   0   3   8 61.8681 1.58110  -2
   0   3   8 61.8681 1.58110   1
  -1   3   8 9.29289 1.92533  -2
   1   3   8 9.29289 1.92533   1
   2   3   8 355.497 4.88352   1
   3   3   8 114.060 2.42186   1
   4   3   8 49.6330 1.99085   1
  -5   2   6 56.6790 4.74630  -2
   5   3   8 56.6790 4.74630   1
  -6   2   6 101.389 4.01531  -2
   6   3   8 101.389 4.01531   1
  -7   2   6 91.7374 7.60136  -2
   7   3   8 91.7374 7.60136   1
  -6   4   8 25.5418 3.43414   1
   5   5  10 46.7985 6.81717  -2
  -5   4   8 46.7985 6.81717   1
  -4   4   8 -1.0894 1.50287   1
  -3   4   8 50.4371 2.35377   1
  -2   4   8 56.8520 2.38200   1
   1   4   8 70.6242 6.56619  -2
  -1   4   8 70.6242 6.56619   1
   0   4   8 2.01492 1.18402  -2
   0   4   8 2.01492 1.18402   1
  -1   4   8 31.1337 2.90047  -2
   1   4   8 31.1337 2.90047   1
   2   4   8 15.6862 1.10945   1
   3   4   8 16.3262 1.22733   1
   4   4   8 12.8218 1.40514   1
  -5   3   6 18.1312 7.07746  -2
   5   4   8 18.1312 7.07746   1
  -6   3   6 9.80836 2.62508  -2
   6   4   8 9.80836 2.62508   1
  -7   3   6 11.3941 6.17783  -2
   7   4   8 11.3941 6.17783   1
   5   6  10 40.7945 7.31531  -2
  -5   5   8 40.7945 7.31531   1
  -4   5   8 1.49712 1.69656   1
  -3   5   8 22.7540 1.93529   1
  -2   5   8 6.06411 1.48075   1
   1   5   8 25.1125 6.17762  -2
  -1   5   8 25.1125 6.17762   1
   0   5   8 16.1952 1.44626  -2
   0   5   8 16.1952 1.44626   1
  -1   5   8 85.1971 5.95091  -2
   1   5   8 85.1971 5.95091   1
   2   5   8 51.4981 1.94918   1
   3   5   8 11.6950 1.36344   1
   4   5   8 28.4662 1.62531   1
  -5   4   6 59.9729 5.61950  -2
   5   5   8 59.9729 5.61950   1
  -6   4   6 43.3137 3.23111  -2
   6   5   8 43.3137 3.23111   1
  -4   6   8 1.10408 1.89257   1
  -3   6   8 177.870 4.57273   1
  -2   6   8 18.8102 1.89760   1
  -1   6   8 3.84557 1.67219   1
   0   6   8 4.64330 1.49852  -2
   0   6   8 4.64330 1.49852   1
  -1   6   8 150.576 7.80160  -2
   1   6   8 150.576 7.80160   1
  -2   6   7 32.7065 6.35788  -2
   2   6   8 32.7065 6.35788   1
   3   6   8 10.5939 1.48157   1
   4   6   8 0.88277 1.42928   1
  -5   5   6 44.8114 5.72413  -2
   5   6   8 44.8114 5.72413   1
  -3   7   8 21.1838 2.35573   1
  -2   7   8 2.19414 1.94139   1
   1   7   8 24.1281 7.83190  -2
  -1   7   8 24.1281 7.83190   1
   0   7   8 5.16209 2.48128  -2
   0   7   8 5.16209 2.48128   1
  -1   7   8 12.4190 6.22413  -2
   1   7   8 12.4190 6.22413   1
  -2   7   7 3.78940 6.85682  -2
   2   7   8 3.78940 6.85682   1
   3   7   8 45.5879 2.52829   1
   4   7   8 20.3638 2.20830   1
   1   8   8 147.510 12.5105  -2
  -1   8   8 147.510 12.5105   1
   0   8   8 -4.4890 5.34845  -2
   0   8   8 -4.4890 5.34845   1
  -1   8   8 210.437 10.7404  -2
   1   8   8 210.437 10.7404   1
   2   8   8 17.6175 2.12628   1
  -3  -7   9 33.6125 2.69352   1
  -2  -7   9 88.3977 3.30487   1
   1  -7   9 177.887 7.56282  -2
  -1  -7   9 177.887 7.56282   1
   0  -7   9 202.093 5.35774  -2
   0  -7   9 202.093 5.35774   1
  -1  -7   9 212.739 5.87244  -2
   1  -7   9 212.739 5.87244   1
   2  -7   9 92.1782 3.72981   1
   3  -7   9 256.039 6.32010   1
  -4  -6   9 64.9406 2.84712   1
  -3  -6   9 1.16055 1.26105   1
  -2  -6   9 21.3859 1.61855   1
   1  -6   9 2.04537 3.65950  -2
  -1  -6   9 2.04537 3.65950   1
   0  -6   9 23.9865 2.90942  -2
   0  -6   9 23.9865 2.90942   1
  -1  -6   9 2.35884 3.12333  -2
   1  -6   9 2.35884 3.12333   1
   2  -6   9 105.259 3.66985   1
   3  -6   9 15.8641 2.11780   1
   4  -6   9 -0.4623 1.91957   1
   5  -4  11 38.4014 4.56934  -2
  -5  -5   9 38.4014 4.56934   1
  -4  -5   9 0.60470 1.49851   1
  -3  -5   9 88.5492 2.98158   1
  -2  -5   9 216.736 4.63795   1
   1  -5   9 17.5307 2.92098  -2
  -1  -5   9 17.5307 2.92098   1
   0  -5   9 0.99353 2.05405  -2
   0  -5   9 0.99353 2.05405   1
  -1  -5   9 8.92656 3.15287  -2
   1  -5   9 8.92656 3.15287   1
   2  -5   9 163.093 4.30185   1
   3  -5   9 14.7127 1.88993   1
   4  -5   9 9.04858 1.89075   1
  -5  -6   7 16.1192 3.97991  -2
   5  -5   9 16.1192 3.97991   1
   6  -3  11 35.7291 4.61674  -2
  -6  -4   9 35.7291 4.61674   1
   5  -3  11 9.46195 4.07559  -2
  -5  -4   9 9.46195 4.07559   1
  -4  -4   9 0.25767 1.29680   1
  -3  -4   9 39.2197 1.80774   1
  -2  -4   9 15.7810 1.59706   1
   1  -4   9 96.0616 3.28845  -2
  -1  -4   9 96.0616 3.28845   1
   0  -4   9 23.7729 2.16771  -2
   0  -4   9 23.7729 2.16771   1
  -1  -4   9 151.983 4.24611  -2
   1  -4   9 151.983 4.24611   1
   2  -4   9 10.5359 1.50307   1
   3  -4   9 71.5497 2.94255   1
   4  -4   9 59.6251 2.83128   1
  -5  -5   7 68.4969 4.10034  -2
   5  -4   9 68.4969 4.10034   1
  -6  -5   7 19.7860 5.18640  -2
   6  -4   9 19.7860 5.18640   1
   6  -2  11 60.5424 4.69639  -2
  -6  -3   9 60.5424 4.69639   1
   5  -2  11 19.6099 3.51884  -2
  -5  -3   9 19.6099 3.51884   1
  -4  -3   9 16.2569 1.72470   1
  -3  -3   9 0.59446 1.00839   1
  -2  -3   9 247.680 4.26635   1
   1  -3   9 63.0981 2.56617  -2
  -1  -3   9 63.0981 2.56617   1
   0  -3   9 106.951 2.45428  -2
   0  -3   9 106.951 2.45428   1
  -1  -3   9 17.2698 2.45656  -2
   1  -3   9 17.2698 2.45656   1
   2  -3   9 225.925 4.90967   1
   3  -3   9 160.369 3.41153   1
   4  -3   9 5.23409 1.28043   1
  -5  -4   7 46.2240 4.14205  -2
   5  -3   9 46.2240 4.14205   1
  -6  -4   7 34.0926 3.87013  -2
   6  -3   9 34.0926 3.87013   1
   6  -1  11 102.358 4.27261  -2
  -6  -2   9 102.358 4.27261   1
   5  -1  11 48.8577 4.70700  -2
  -5  -2   9 48.8577 4.70700   1
  -4  -2   9 5.01103 1.22596   1
  -3  -2   9 168.510 2.93778   1
  -2  -2   9 134.607 2.56005   1
   1  -2   9 85.4528 3.11604  -2
  -1  -2   9 85.4528 3.11604   1
   0  -2   9 108.191 2.03562  -2
   0  -2   9 108.191 2.03562   1
  -1  -2   9 181.469 4.21381  -2
   1  -2   9 181.469 4.21381   1
   2  -2   9 10.3232 1.00081   1
   3  -2   9 28.5720 1.27975   1
   4  -2   9 198.633 5.22184   1
  -5  -3   7 94.3361 4.55929  -2
   5  -2   9 94.3361 4.55929   1
  -6  -3   7 -0.0767 3.22567  -2
   6  -2   9 -0.0767 3.22567   1
  -7  -3   6 36.6550 7.52730  -2
   7  -2   9 36.6550 7.52730   1
   6   0  11 27.8434 3.33897  -2
  -6  -1   9 27.8434 3.33897   1
   5   0  11 36.6500 5.47292  -2
  -5  -1   9 36.6500 5.47292   1
  -4  -1   9 132.018 3.00795   1
  -3  -1   9 1.99298 0.94318   1
  -2  -1   9 43.5874 1.30663   1
   1  -1   9 3.86230 2.25067  -2
  -1  -1   9 3.86230 2.25067   1
   0  -1   9 569.490 7.37993  -2
   0  -1   9 569.490 7.37993   1
  -1  -1   9 31.6837 2.53767  -2
   1  -1   9 31.6837 2.53767   1
  -2  -1   8 90.7176 4.68928  -2
   2  -1   9 90.7176 4.68928   1
   3  -1   9 15.7690 1.26292   1
   4  -1   9 212.063 4.41742   1
  -5  -2   7 33.9808 4.66475  -2
   5  -1   9 33.9808 4.66475   1
  -6  -2   7 7.02792 3.67674  -2
   6  -1   9 7.02792 3.67674   1
  -7  -2   6 12.1387 7.12133  -2
   7  -1   9 12.1387 7.12133   1
   6   1  11 16.9867 3.16851  -2
  -6   0   9 16.9867 3.16851   1
   5   1  11 108.141 6.66474  -2
  -5   0   9 108.141 6.66474   1
  -4   0   9 2.53787 1.37297   1
  -3   0   9 483.542 6.76141   1
  -2   0   9 3.58145 0.69819   1
   1   0   9 256.656 7.57401  -2
  -1   0   9 256.656 7.57401   1
   0   0   9 12.1210 1.08811  -2
   0   0   9 12.1210 1.08811   1
  -1   0   9 614.994 12.5801  -2
   1   0   9 614.994 12.5801   1
  -2   0   8 16.6245 3.65558  -2
   2   0   9 16.6245 3.65558   1
   3   0   9 42.6708 1.88901   1
   4   0   9 63.3370 2.08897   1
  -5  -1   7 158.183 9.60647  -2
   5   0   9 158.183 9.60647   1
  -6  -1   7 45.0082 3.05599  -2
   6   0   9 45.0082 3.05599   1
  -7  -1   6 23.7495 7.16223  -2
   7   0   9 23.7495 7.16223   1
   6   2  11 131.108 4.70572  -2
  -6   1   9 131.108 4.70572   1
   5   2  11 5.51817 4.55222  -2
  -5   1   9 5.51817 4.55222   1
  -4   1   9 6.44075 1.40641   1
  -3   1   9 2.06225 1.08981   1
  -2   1   9 118.571 2.57202   1
   1   1   9 276.068 6.68170  -2
  -1   1   9 276.068 6.68170   1
   0   1   9 26.9105 0.97005  -2
   0   1   9 26.9105 0.97005   1
  -1   1   9 111.425 4.31944  -2
   1   1   9 111.425 4.31944   1
  -2   1   8 50.8671 4.63908  -2
   2   1   9 50.8671 4.63908   1
   3   1   9 451.387 7.04840   1
   4   1   9 78.9782 2.28295   1
  -5   0   7 49.9727 4.86269  -2
   5   1   9 49.9727 4.86269   1
  -6   0   7 2.24834 2.71714  -2
   6   1   9 2.24834 2.71714   1
  -7   0   6 154.549 9.67181  -2
   7   1   9 154.549 9.67181   1
  -7   0   7 161.981 7.23140  -2
   7   1   9 161.981 7.23140   1
   6   3  11 18.3959 3.25422  -2
  -6   2   9 18.3959 3.25422   1
   5   3  11 263.294 14.5619  -2
  -5   2   9 263.294 14.5619   1
  -4   2   9 125.864 3.46147   1
  -3   2   9 240.358 4.86244   1
  -2   2   9 35.5831 1.71260   1
   1   2   9 235.692 10.8189  -2
  -1   2   9 235.692 10.8189   1
   0   2   9 422.106 6.18788  -2
   0   2   9 422.106 6.18788   1
  -1   2   9 98.6537 2.91323  -2
   1   2   9 98.6537 2.91323   1
   2   2   9 59.8534 1.74052   1
   3   2   9 18.8797 1.11481   1
   4   2   9 135.009 3.77038   1
  -5   1   7 -3.1900 6.39539  -2
   5   2   9 -3.1900 6.39539   1
  -6   1   7 4.79771 2.75908  -2
   6   2   9 4.79771 2.75908   1
  -7   1   7 6.83935 6.62207  -2
   7   2   9 6.83935 6.62207   1
   6   4  11 7.55871 3.21290  -2
  -6   3   9 7.55871 3.21290   1
   5   4  11 136.826 11.7915  -2
  -5   3   9 136.826 11.7915   1
  -4   3   9 1.42590 1.53625   1
  -3   3   9 101.727 3.48616   1
  -2   3   9 15.5732 1.64416   1
   1   3   9 678.859 18.7919  -2
  -1   3   9 678.859 18.7919   1
   0   3   9 59.3066 1.62924  -2
   0   3   9 59.3066 1.62924   1
  -1   3   9 329.544 8.44904  -2
   1   3   9 329.544 8.44904   1
   2   3   9 109.765 2.13572   1
   3   3   9 580.238 8.68478   1
   4   3   9 128.315 3.11253   1
  -5   2   7 85.6543 7.99014  -2
   5   3   9 85.6543 7.99014   1
  -6   2   7 120.448 4.42981  -2
   6   3   9 120.448 4.42981   1
  -7   2   7 127.824 8.63015  -2
   7   3   9 127.824 8.63015   1
   5   5  11 163.976 8.81161  -2
  -5   4   9 163.976 8.81161   1
  -4   4   9 5.49323 1.73124   1
  -3   4   9 0.68322 1.44059   1
  -2   4   9 20.5260 1.73558   1
   1   4   9 139.286 6.58961  -2
  -1   4   9 139.286 6.58961   1
   0   4   9 4.81918 1.46055  -2
   0   4   9 4.81918 1.46055   1
  -1   4   9 97.1693 5.60235  -2
   1   4   9 97.1693 5.60235   1
   2   4   9 7.62079 1.01469   1
   3   4   9 -0.0541 1.20761   1
   4   4   9 2.15935 1.16543   1
  -5   3   7 237.770 11.6203  -2
   5   4   9 237.770 11.6203   1
  -6   3   7 44.3916 3.09377  -2
   6   4   9 44.3916 3.09377   1
  -4   5   9 43.2885 2.64859   1
  -3   5   9 218.431 5.05542   1
  -2   5   9 14.1727 1.77939   1
   1   5   9 172.229 10.1069  -2
  -1   5   9 172.229 10.1069   1
   0   5   9 63.4652 2.47761  -2
   0   5   9 63.4652 2.47761   1
  -1   5   9 429.153 10.4179  -2
   1   5   9 429.153 10.4179   1
   2   5   9 2.32010 1.25948   1
   3   5   9 95.6797 2.73923   1
   4   5   9 3.94534 1.42103   1
  -5   4   7 141.408 7.11352  -2
   5   5   9 141.408 7.11352   1
  -6   4   7 23.5335 2.97818  -2
   6   5   9 23.5335 2.97818   1
  -4   6   9 10.9173 2.19758   1
  -3   6   9 4.55123 1.86762   1
  -2   6   9 1.08427 1.62650   1
  -1   6   9 10.0423 1.93392   1
   0   6   9 6.86376 1.80669  -2
   0   6   9 6.86376 1.80669   1
  -1   6   9 20.8031 5.79057  -2
   1   6   9 20.8031 5.79057   1
  -2   6   8 7.12727 6.47124  -2
   2   6   9 7.12727 6.47124   1
   3   6   9 23.7560 1.98080   1
   4   6   9 15.5071 1.98014   1
  -5   5   7 107.777 6.78503  -2
   5   6   9 107.777 6.78503   1
  -2   7   9 8.95486 2.27336   1
   1   7   9 83.3744 10.0413  -2
  -1   7   9 83.3744 10.0413   1
   0   7   9 39.0341 3.17394  -2
   0   7   9 39.0341 3.17394   1
  -1   7   9 288.170 12.0915  -2
   1   7   9 288.170 12.0915   1
  -2   7   8 2.56333 7.18795  -2
   2   7   9 2.56333 7.18795   1
   3   7   9 20.0882 2.11849   1
   4   7   9 3.79431 1.90584   1
  -2  -7  10 0.91685 1.76907   1
   1  -7  10 133.716 5.74607  -2
  -1  -7  10 133.716 5.74607   1
   0  -7  10 153.621 5.35136  -2
   0  -7  10 153.621 5.35136   1
  -1  -7  10 81.4379 4.46766  -2
   1  -7  10 81.4379 4.46766   1
   2  -7  10 0.68377 1.99116   1
  -4  -6  10 66.5504 3.40960   1
  -3  -6  10 43.1023 2.51315   1
  -2  -6  10 17.3697 1.93639   1
   1  -6  10 36.2196 3.55789  -2
  -1  -6  10 36.2196 3.55789   1
   0  -6  10 83.9422 3.51360  -2
   0  -6  10 83.9422 3.51360   1
  -1  -6  10 10.0697 3.62705  -2
   1  -6  10 10.0697 3.62705   1
   2  -6  10 1.06615 1.73357   1
   3  -6  10 -1.5879 1.80039   1
   4  -6  10 0.20745 1.95806   1
   5  -4  12 18.9583 5.53781  -2
  -5  -5  10 18.9583 5.53781   1
  -4  -5  10 7.77374 2.18670   1
  -3  -5  10 31.5113 2.13733   1
  -2  -5  10 6.96444 1.53409   1
   1  -5  10 141.078 4.10784  -2
  -1  -5  10 141.078 4.10784   1
   0  -5  10 104.187 3.52289  -2
   0  -5  10 104.187 3.52289   1
  -1  -5  10 91.3251 4.36064  -2
   1  -5  10 91.3251 4.36064   1
   2  -5  10 63.7210 2.85854   1
   3  -5  10 108.308 3.70416   1
   4  -5  10 167.587 4.72642   1
  -5  -6   8 29.6493 4.30924  -2
   5  -5  10 29.6493 4.30924   1
   5  -3  12 117.947 5.41517  -2
  -5  -4  10 117.947 5.41517   1
  -4  -4  10 530.904 9.56962   1
  -3  -4  10 39.8296 1.89794   1
  -2  -4  10 189.990 3.74508   1
   1  -4  10 79.3519 3.24096  -2
  -1  -4  10 79.3519 3.24096   1
   0  -4  10 825.272 13.1443  -2
   0  -4  10 825.272 13.1443   1
  -1  -4  10 9.89880 2.69906  -2
   1  -4  10 9.89880 2.69906   1
   2  -4  10 38.7327 2.20318   1
   3  -4  10 4.53979 1.58846   1
   4  -4  10 128.762 3.97013   1
  -5  -5   8 18.1749 3.85702  -2
   5  -4  10 18.1749 3.85702   1
  -6  -5   8 43.7039 5.43102  -2
   6  -4  10 43.7039 5.43102   1
   6  -2  12 16.9201 4.57719  -2
  -6  -3  10 16.9201 4.57719   1
   5  -2  12 44.7676 3.91325  -2
  -5  -3  10 44.7676 3.91325   1
  -4  -3  10 1.65742 1.51371   1
  -3  -3  10 153.332 3.85233   1
  -2  -3  10 314.029 5.18863   1
   1  -3  10 231.577 4.73068  -2
  -1  -3  10 231.577 4.73068   1
   0  -3  10 199.190 3.67196  -2
   0  -3  10 199.190 3.67196   1
  -1  -3  10 250.329 5.52441  -2
   1  -3  10 250.329 5.52441   1
   2  -3  10 932.973 14.5227   1
   3  -3  10 135.933 3.80688   1
   4  -3  10 327.622 6.85716   1
  -5  -4   8 58.1921 5.65006  -2
   5  -3  10 58.1921 5.65006   1
  -6  -4   8 488.637 14.8688  -2
   6  -3  10 488.637 14.8688   1
   6  -1  12 4.65996 4.18291  -2
  -6  -2  10 4.65996 4.18291   1
   5  -1  12 96.7255 5.62165  -2
  -5  -2  10 96.7255 5.62165   1
  -4  -2  10 17.8648 1.79081   1
  -3  -2  10 6.82999 1.38826   1
  -2  -2  10 45.5418 1.84410   1
   1  -2  10 30.8451 2.71556  -2
  -1  -2  10 30.8451 2.71556   1
   0  -2  10 16.0798 1.22633  -2
   0  -2  10 16.0798 1.22633   1
  -1  -2  10 67.1996 2.82435  -2
   1  -2  10 67.1996 2.82435   1
   2  -2  10 0.50179 0.90758   1
   3  -2  10 11.6507 1.24137   1
   4  -2  10 46.1524 2.63005   1
  -5  -3   8 124.423 5.05485  -2
   5  -2  10 124.423 5.05485   1
  -6  -3   8 112.764 4.81539  -2
   6  -2  10 112.764 4.81539   1
   6   0  12 13.2928 3.38855  -2
  -6  -1  10 13.2928 3.38855   1
   5   0  12 93.8971 6.68960  -2
  -5  -1  10 93.8971 6.68960   1
  -4  -1  10 5.77351 1.46275   1
  -3  -1  10 478.600 7.33818   1
  -2  -1  10 84.8751 2.15626   1
   1  -1  10 343.525 7.02049  -2
  -1  -1  10 343.525 7.02049   1
   0  -1  10 6.33415 1.09003  -2
   0  -1  10 6.33415 1.09003   1
  -1  -1  10 697.567 14.3968  -2
   1  -1  10 697.567 14.3968   1
  -2  -1   9 242.602 8.89111  -2
   2  -1  10 242.602 8.89111   1
   3  -1  10 81.6061 2.27178   1
   4  -1  10 26.4177 1.70810   1
  -5  -2   8 155.961 5.35504  -2
   5  -1  10 155.961 5.35504   1
  -6  -2   8 128.415 6.01302  -2
   6  -1  10 128.415 6.01302   1
  -7  -2   7 12.0069 7.39634  -2
   7  -1  10 12.0069 7.39634   1
   6   1  12 1.97326 3.20297  -2
  -6   0  10 1.97326 3.20297   1
   5   1  12 -5.2894 5.41025  -2
  -5   0  10 -5.2894 5.41025   1
  -4   0  10 88.3316 3.25890   1
  -3   0  10 0.19803 1.17081   1
  -2   0  10 6.54007 1.10649   1
   1   0  10 113.534 4.69000  -2
  -1   0  10 113.534 4.69000   1
   0   0  10 146.628 2.56295  -2
   0   0  10 146.628 2.56295   1
  -1   0  10 156.725 4.39480  -2
   1   0  10 156.725 4.39480   1
  -2   0   9 2.91814 3.63478  -2
   2   0  10 2.91814 3.63478   1
   3   0  10 366.514 5.49678   1
   4   0  10 140.194 3.11588   1
  -5  -1   8 192.496 10.7049  -2
   5   0  10 192.496 10.7049   1
  -6  -1   8 16.6872 3.17491  -2
   6   0  10 16.6872 3.17491   1
  -7  -1   7 180.488 10.8567  -2
   7   0  10 180.488 10.8567   1
   6   2  12 -4.0774 3.02288  -2
  -6   1  10 -4.0774 3.02288   1
   5   2  12 11.2550 4.83067  -2
  -5   1  10 11.2550 4.83067   1
  -4   1  10 12.8224 1.85736   1
  -3   1  10 165.010 3.75097   1
  -2   1  10 7.19231 1.07099   1
   1   1  10 110.282 3.85695  -2
  -1   1  10 110.282 3.85695   1
   0   1  10 7.86777 0.88326  -2
   0   1  10 7.86777 0.88326   1
  -1   1  10 319.860 8.91884  -2
   1   1  10 319.860 8.91884   1
   2   1  10 7.23530 0.86192   1
   3   1  10 21.6653 1.21115   1
   4   1  10 3.41309 1.08988   1
   5   1  10 31.9965 2.31787   1
  -6   0   8 6.60049 3.06785  -2
   6   1  10 6.60049 3.06785   1
  -7   0   7 44.8543 7.90752  -2
   7   1  10 44.8543 7.90752   1
  -7   0   8 29.6511 9.46244  -2
   7   1  10 29.6511 9.46244   1
   6   3  12 3.55618 3.22526  -2
  -6   2  10 3.55618 3.22526   1
   5   3  12 -0.6189 4.72106  -2
  -5   2  10 -0.6189 4.72106   1
  -4   2  10 58.6406 2.59979   1
  -3   2  10 95.3030 2.91813   1
  -2   2  10 30.0105 1.70028   1
   1   2  10 48.1366 5.70315  -2
  -1   2  10 48.1366 5.70315   1
   0   2  10 112.347 2.88614  -2
   0   2  10 112.347 2.88614   1
  -1   2  10 18.7775 2.35332  -2
   1   2  10 18.7775 2.35332   1
   2   2  10 24.3882 1.23197   1
   3   2  10 225.803 3.55947   1
   4   2  10 77.5975 2.95788   1
  -5   1   8 4.88228 6.59246  -2
   5   2  10 4.88228 6.59246   1
  -6   1   8 18.8994 3.05811  -2
   6   2  10 18.8994 3.05811   1
  -7   1   8 172.906 7.78915  -2
   7   2  10 172.906 7.78915   1
   5   4  12 45.5779 6.58438  -2
  -5   3  10 45.5779 6.58438   1
  -4   3  10 38.1256 2.37281   1
  -3   3  10 0.21938 1.41056   1
  -2   3  10 4.58761 1.33717   1
   1   3  10 205.722 7.88300  -2
  -1   3  10 205.722 7.88300   1
   0   3  10 10.1246 1.52085  -2
   0   3  10 10.1246 1.52085   1
  -1   3  10 57.4609 3.41501  -2
   1   3  10 57.4609 3.41501   1
   2   3  10 28.2216 1.20860   1
   3   3  10 222.548 3.83128   1
   4   3  10 -1.2285 1.21956   1
  -5   2   8 4.91181 6.74447  -2
   5   3  10 4.91181 6.74447   1
  -6   2   8 29.9062 3.33467  -2
   6   3  10 29.9062 3.33467   1
   7   3  10 28.2851 3.75489   1
   5   5  12 16.8131 6.90017  -2
  -5   4  10 16.8131 6.90017   1
  -4   4  10 78.3259 3.22193   1
  -3   4  10 0.39576 1.51904   1
  -2   4  10 214.994 5.16169   1
   1   4  10 2.40758 4.58132  -2
  -1   4  10 2.40758 4.58132   1
   0   4  10 152.661 3.23076  -2
   0   4  10 152.661 3.23076   1
   1   4  10 2.24613 1.19784   1
   2   4  10 150.969 3.68141   1
   3   4  10 19.4535 1.74419   1
   4   4  10 55.8658 2.09989   1
  -5   3   8 36.8765 4.35062  -2
   5   4  10 36.8765 4.35062   1
  -6   3   8 43.8155 3.21114  -2
   6   4  10 43.8155 3.21114   1
  -4   5  10 6.76771 2.01184   1
  -3   5  10 105.093 3.56176   1
  -2   5  10 61.9496 2.78772   1
   1   5  10 0.25155 5.10604  -2
  -1   5  10 0.25155 5.10604   1
   0   5  10 120.936 3.34655  -2
   0   5  10 120.936 3.34655   1
   1   5  10 44.5982 2.65368   1
   2   5  10 201.846 4.50763   1
   3   5  10 46.1417 2.34093   1
   4   5  10 97.1559 3.37773   1
  -5   4   8 8.13210 4.84621  -2
   5   5  10 8.13210 4.84621   1
  -6   4   8 119.504 6.47442  -2
   6   5  10 119.504 6.47442   1
  -3   6  10 4.94451 1.99428   1
  -2   6  10 105.765 4.02462   1
  -1   6  10 133.849 4.32729   1
   0   6  10 22.3484 2.15423  -2
   0   6  10 22.3484 2.15423   1
  -1   6  10 23.0249 6.22784  -2
   1   6  10 23.0249 6.22784   1
   2   6  10 15.3957 2.20139   1
   3   6  10 125.168 3.75677   1
   4   6  10 10.5911 1.97621   1
  -5   5   8 16.6066 7.95423  -2
   5   6  10 16.6066 7.95423   1
  -1   7  10 35.0577 3.17160   1
   0   7  10 215.208 6.06896  -2
   0   7  10 215.208 6.06896   1
  -1   7  10 15.6611 6.99034  -2
   1   7  10 15.6611 6.99034   1
  -2   7   9 194.200 11.3456  -2
   2   7  10 194.200 11.3456   1
   3   7  10 -0.8090 1.80392   1
   1  -7  11 15.3966 4.05656  -2
  -1  -7  11 15.3966 4.05656   1
   0  -7  11 0.98636 3.15012  -2
   0  -7  11 0.98636 3.15012   1
  -1  -7  11 8.94280 3.95962  -2
   1  -7  11 8.94280 3.95962   1
  -3  -6  11 11.9842 2.38833   1
  -2  -6  11 16.1196 2.00246   1
   1  -6  11 82.1199 3.90928  -2
  -1  -6  11 82.1199 3.90928   1
   0  -6  11 39.8458 3.04499  -2
   0  -6  11 39.8458 3.04499   1
  -1  -6  11 48.4115 4.30857  -2
   1  -6  11 48.4115 4.30857   1
   2  -6  11 17.0001 2.24017   1
   3  -6  11 81.2156 3.64844   1
  -4  -5  11 7.00065 2.28729   1
  -3  -5  11 0.45920 1.93041   1
  -2  -5  11 222.236 4.91190   1
   1  -5  11 17.8315 3.02883  -2
  -1  -5  11 17.8315 3.02883   1
   0  -5  11 7.69207 2.13401  -2
   0  -5  11 7.69207 2.13401   1
  -1  -5  11 0.35576 3.08808  -2
   1  -5  11 0.35576 3.08808   1
   2  -5  11 134.590 4.08127   1
   3  -5  11 1.04284 1.75325   1
   4  -5  11 3.84203 1.92694   1
   5  -3  13 25.5234 5.64050  -2
  -5  -4  11 25.5234 5.64050   1
  -4  -4  11 0.01534 1.74985   1
  -3  -4  11 -1.6994 1.51353   1
  -2  -4  11 -0.1564 1.31973   1
   1  -4  11 30.3439 2.73841  -2
  -1  -4  11 30.3439 2.73841   1
   0  -4  11 36.6936 2.29640  -2
   0  -4  11 36.6936 2.29640   1
  -1  -4  11 15.7400 2.93786  -2
   1  -4  11 15.7400 2.93786   1
   2  -4  11 9.59001 1.68815   1
   3  -4  11 73.2589 3.11676   1
   4  -4  11 25.1125 2.26940   1
  -5  -5   9 22.2007 3.96113  -2
   5  -4  11 22.2007 3.96113   1
   5  -2  13 24.3614 4.62385  -2
  -5  -3  11 24.3614 4.62385   1
  -4  -3  11 -0.3471 1.62031   1
  -3  -3  11 74.2938 2.90498   1
  -2  -3  11 70.6054 2.65470   1
   1  -3  11 7.95760 2.25562  -2
  -1  -3  11 7.95760 2.25562   1
   0  -3  11 0.38878 1.54977  -2
   0  -3  11 0.38878 1.54977   1
  -1  -3  11 25.0032 2.85842  -2
   1  -3  11 25.0032 2.85842   1
   2  -3  11 60.7273 2.39774   1
   3  -3  11 16.7184 1.79283   1
   4  -3  11 0.70859 1.61589   1
  -5  -4   9 22.6710 4.37279  -2
   5  -3  11 22.6710 4.37279   1
  -6  -4   9 23.6202 5.31764  -2
   6  -3  11 23.6202 5.31764   1
   6  -1  13 265.600 8.62067  -2
  -6  -2  11 265.600 8.62067   1
   5  -1  13 117.504 6.19211  -2
  -5  -2  11 117.504 6.19211   1
  -4  -2  11 43.8236 2.76605   1
  -3  -2  11 92.0850 2.98198   1
  -2  -2  11 283.486 7.14594   1
   1  -2  11 269.622 5.14382  -2
  -1  -2  11 269.622 5.14382   1
   0  -2  11 0.20592 1.56941  -2
   0  -2  11 0.20592 1.56941   1
  -1  -2  11 112.140 3.62180  -2
   1  -2  11 112.140 3.62180   1
   2  -2  11 98.3149 2.55671   1
   3  -2  11 94.0125 2.62019   1
   4  -2  11 17.3071 1.80379   1
  -5  -3   9 3.96320 3.82411  -2
   5  -2  11 3.96320 3.82411   1
  -6  -3   9 29.0532 3.73837  -2
   6  -2  11 29.0532 3.73837   1
   6   0  13 112.847 4.80657  -2
  -6  -1  11 112.847 4.80657   1
   5   0  13 37.4315 5.09785  -2
  -5  -1  11 37.4315 5.09785   1
  -4  -1  11 562.498 9.67226   1
  -3  -1  11 7.55742 1.39647   1
  -2  -1  11 434.779 7.43073   1
   1  -1  11 55.5140 3.44938  -2
  -1  -1  11 55.5140 3.44938   1
   0  -1  11 1110.09 14.9899  -2
   0  -1  11 1110.09 14.9899   1
  -1  -1  11 92.2027 3.85232  -2
   1  -1  11 92.2027 3.85232   1
   2  -1  11 352.300 7.11520   1
   3  -1  11 259.924 4.65378   1
   4  -1  11 365.100 6.85508   1
  -5  -2   9 125.001 5.05919  -2
   5  -1  11 125.001 5.05919   1
  -6  -2   9 79.9131 5.43625  -2
   6  -1  11 79.9131 5.43625   1
   6   1  13 -1.7131 3.36061  -2
  -6   0  11 -1.7131 3.36061   1
   5   1  13 63.1373 6.57592  -2
  -5   0  11 63.1373 6.57592   1
  -4   0  11 44.0699 2.55598   1
  -3   0  11 8.17972 1.41031   1
  -2   0  11 156.831 3.54340   1
   1   0  11 236.810 6.39709  -2
  -1   0  11 236.810 6.39709   1
   0   0  11 554.168 7.52676  -2
   0   0  11 554.168 7.52676   1
  -1   0  11 29.5991 2.62596  -2
   1   0  11 29.5991 2.62596   1
   2   0  11 527.052 8.50346   1
   3   0  11 79.4121 2.01776   1
   4   0  11 527.906 9.28422   1
  -5  -1   9 68.0181 5.26045  -2
   5   0  11 68.0181 5.26045   1
  -6  -1   9 246.439 8.09683  -2
   6   0  11 246.439 8.09683   1
  -7  -1   8 24.3855 7.90268  -2
   7   0  11 24.3855 7.90268   1
   6   2  13 86.2100 4.43177  -2
  -6   1  11 86.2100 4.43177   1
   5   2  13 263.014 8.79179  -2
  -5   1  11 263.014 8.79179   1
  -4   1  11 345.797 7.45019   1
  -3   1  11 32.3209 2.18108   1
  -2   1  11 120.112 3.05932   1
   1   1  11 130.216 6.15337  -2
  -1   1  11 130.216 6.15337   1
   0   1  11 287.841 4.76271  -2
   0   1  11 287.841 4.76271   1
  -1   1  11 70.3803 4.02971  -2
   1   1  11 70.3803 4.02971   1
   2   1  11 0.20456 0.80857   1
   3   1  11 0.45763 0.93058   1
   4   1  11 0.34560 1.13862   1
  -5   0   9 147.429 6.39556  -2
   5   1  11 147.429 6.39556   1
  -6   0   9 116.519 4.61574  -2
   6   1  11 116.519 4.61574   1
  -7   0   8 -0.1597 7.44907  -2
   7   1  11 -0.1597 7.44907   1
   5   3  13 89.7533 6.26766  -2
  -5   2  11 89.7533 6.26766   1
  -4   2  11 86.3028 3.51890   1
  -3   2  11 210.422 4.63182   1
  -2   2  11 467.580 8.12606   1
   1   2  11 288.177 9.70241  -2
  -1   2  11 288.177 9.70241   1
   0   2  11 411.195 7.19015  -2
   0   2  11 411.195 7.19015   1
  -1   2  11 276.574 8.04106  -2
   1   2  11 276.574 8.04106   1
   2   2  11 691.020 9.64143   1
   3   2  11 83.6176 2.11349   1
   4   2  11 285.341 6.33211   1
  -5   1   9 18.4959 4.62976  -2
   5   2  11 18.4959 4.62976   1
  -6   1   9 209.611 5.90031  -2
   6   2  11 209.611 5.90031   1
   5   4  13 -4.7893 5.53924  -2
  -5   3  11 -4.7893 5.53924   1
  -4   3  11 0.32341 1.91431   1
  -3   3  11 115.935 3.46454   1
  -2   3  11 3.49025 1.39476   1
   1   3  11 63.4201 6.79467  -2
  -1   3  11 63.4201 6.79467   1
   0   3  11 3.49978 1.67035  -2
   0   3  11 3.49978 1.67035   1
  -1   3  11 317.193 13.2357  -2
   1   3  11 317.193 13.2357   1
   2   3  11 29.0268 1.60946   1
   3   3  11 64.9589 2.58283   1
   4   3  11 67.4276 2.28973   1
  -5   2   9 262.688 8.56116  -2
   5   3  11 262.688 8.56116   1
  -6   2   9 125.279 4.72771  -2
   6   3  11 125.279 4.72771   1
  -4   4  11 2.51806 1.82733   1
  -3   4  11 -0.2578 1.55654   1
  -2   4  11 5.68326 1.59689   1
   1   4  11 170.816 7.74479  -2
  -1   4  11 170.816 7.74479   1
   0   4  11 0.52075 1.86261  -2
   0   4  11 0.52075 1.86261   1
   1   4  11 0.31533 1.31970   1
   2   4  11 42.2005 2.07569   1
   3   4  11 241.962 5.14115   1
   4   4  11 6.71437 1.69547   1
  -5   3   9 22.5058 4.39834  -2
   5   4  11 22.5058 4.39834   1
  -6   3   9 19.6047 3.07375  -2
   6   4  11 19.6047 3.07375   1
  -4   5  11 11.4087 2.24661   1
  -3   5  11 30.7419 2.44471   1
  -2   5  11 60.1113 2.80087   1
   1   5  11 0.70247 5.50242  -2
  -1   5  11 0.70247 5.50242   1
   0   5  11 51.2082 2.58969  -2
   0   5  11 51.2082 2.58969   1
  -1   5  11 58.9053 6.47326  -2
   1   5  11 58.9053 6.47326   1
  -2   5  10 74.8674 7.51613  -2
   2   5  11 74.8674 7.51613   1
   3   5  11 1.56289 1.57659   1
   4   5  11 16.5399 2.04536   1
  -5   4   9 65.7419 5.59037  -2
   5   5  11 65.7419 5.59037   1
  -2   6  11 30.3794 2.75563   1
   1   6  11 17.2202 9.81521  -2
  -1   6  11 17.2202 9.81521   1
   0   6  11 28.0837 2.75691  -2
   0   6  11 28.0837 2.75691   1
  -1   6  11 11.3996 4.66553  -2
   1   6  11 11.3996 4.66553   1
   2   6  11 75.5213 3.72693   1
   3   6  11 2.50830 2.15679   1
   4   6  11 47.2287 2.79713   1
   0   7  11 44.1237 3.53752  -2
   0   7  11 44.1237 3.53752   1
   1   7  11 62.8430 3.64230   1
   2   7  11 1.64236 2.24585   1
  -2  -6  12 185.713 5.59288   1
   1  -6  12 15.5090 3.56602  -2
  -1  -6  12 15.5090 3.56602   1
   0  -6  12 176.592 4.62295  -2
   0  -6  12 176.592 4.62295   1
  -1  -6  12 3.70504 4.11837  -2
   1  -6  12 3.70504 4.11837   1
   2  -6  12 280.187 6.64849   1
  -4  -5  12 124.200 5.83388   1
  -3  -5  12 33.5266 2.82793   1
  -2  -5  12 22.8635 2.48621   1
   1  -5  12 38.2620 3.34003  -2
  -1  -5  12 38.2620 3.34003   1
   0  -5  12 32.4127 2.57242  -2
   0  -5  12 32.4127 2.57242   1
  -1  -5  12 106.008 4.44579  -2
   1  -5  12 106.008 4.44579   1
   2  -5  12 20.9490 2.23908   1
   3  -5  12 16.8605 2.22667   1
   4  -5  12 15.9210 2.32485   1
  -4  -4  12 57.7636 3.40982   1
  -3  -4  12 0.94099 1.97164   1
  -2  -4  12 518.236 12.4174   1
   1  -4  12 22.4339 2.81189  -2
  -1  -4  12 22.4339 2.81189   1
   0  -4  12 201.722 4.51352  -2
   0  -4  12 201.722 4.51352   1
  -1  -4  12 6.09149 3.08090  -2
   1  -4  12 6.09149 3.08090   1
   2  -4  12 540.914 10.2481   1
   3  -4  12 74.2005 3.31487   1
   4  -4  12 48.8471 2.87302   1
  -5  -5  10 20.2257 4.92128  -2
   5  -4  12 20.2257 4.92128   1
   5  -2  14 5.69728 4.76972  -2
  -5  -3  12 5.69728 4.76972   1
  -4  -3  12 26.4273 2.57822   1
  -3  -3  12 7.83199 1.68342   1
  -2  -3  12 3.83895 1.47409   1
   1  -3  12 13.9407 2.91864  -2
  -1  -3  12 13.9407 2.91864   1
   0  -3  12 171.863 3.90886  -2
   0  -3  12 171.863 3.90886   1
  -1  -3  12 11.2109 2.81435  -2
   1  -3  12 11.2109 2.81435   1
   2  -3  12 37.8200 2.21638   1
   3  -3  12 10.5244 1.76185   1
   4  -3  12 264.717 7.31691   1
  -5  -4  10 27.2010 4.62613  -2
   5  -3  12 27.2010 4.62613   1
   5  -1  14 98.8173 6.22647  -2
  -5  -2  12 98.8173 6.22647   1
  -4  -2  12 10.5671 2.18588   1
  -3  -2  12 5.31327 1.85697   1
  -2  -2  12 18.6970 1.85108   1
   1  -2  12 56.4809 3.84387  -2
  -1  -2  12 56.4809 3.84387   1
   0  -2  12 38.5474 2.10415  -2
   0  -2  12 38.5474 2.10415   1
  -1  -2  12 17.2884 2.64495  -2
   1  -2  12 17.2884 2.64495   1
   2  -2  12 27.7955 1.71878   1
   3  -2  12 28.0392 2.41259   1
   4  -2  12 10.0729 2.05709   1
  -5  -3  10 8.46684 4.13513  -2
   5  -2  12 8.46684 4.13513   1
  -6  -3  10 3.25053 4.90105  -2
   6  -2  12 3.25053 4.90105   1
   5   0  14 67.0005 5.89264  -2
  -5  -1  12 67.0005 5.89264   1
  -4  -1  12 32.9089 2.66626   1
  -3  -1  12 349.610 6.50256   1
  -2  -1  12 9.33006 1.54959   1
   1  -1  12 151.362 5.16640  -2
  -1  -1  12 151.362 5.16640   1
   0  -1  12 20.9245 1.78033  -2
   0  -1  12 20.9245 1.78033   1
  -1  -1  12 390.926 8.99356  -2
   1  -1  12 390.926 8.99356   1
  -2  -1  11 76.6300 5.86022  -2
   2  -1  12 76.6300 5.86022   1
   3  -1  12 25.8018 1.64287   1
   4  -1  12 31.5413 1.79565   1
  -5  -2  10 147.596 5.52501  -2
   5  -1  12 147.596 5.52501   1
  -6  -2  10 7.52308 4.50883  -2
   6  -1  12 7.52308 4.50883   1
   5   1  14 26.3382 5.41950  -2
  -5   0  12 26.3382 5.41950   1
  -4   0  12 2.89277 1.80012   1
  -3   0  12 25.8005 2.07436   1
  -2   0  12 111.531 3.05600   1
   1   0  12 156.866 5.18082  -2
  -1   0  12 156.866 5.18082   1
   0   0  12 7.86704 1.70576  -2
   0   0  12 7.86704 1.70576   1
  -1   0  12 136.717 5.67526  -2
   1   0  12 136.717 5.67526   1
  -2   0  11 48.7150 5.21770  -2
   2   0  12 48.7150 5.21770   1
   3   0  12 194.470 3.07660   1
   4   0  12 26.4215 1.68608   1
  -5  -1  10 69.3202 5.36215  -2
   5   0  12 69.3202 5.36215   1
  -6  -1  10 6.07864 4.13688  -2
   6   0  12 6.07864 4.13688   1
   5   2  14 3.54634 5.27316  -2
  -5   1  12 3.54634 5.27316   1
  -4   1  12 1.95729 1.89618   1
  -3   1  12 55.4103 2.81052   1
  -2   1  12 0.90778 1.46497   1
   1   1  12 5.88104 4.21781  -2
  -1   1  12 5.88104 4.21781   1
   0   1  12 53.4431 2.28462  -2
   0   1  12 53.4431 2.28462   1
  -1   1  12 15.8805 5.87717  -2
   1   1  12 15.8805 5.87717   1
  -2   1  11 53.3312 5.82666  -2
   2   1  12 53.3312 5.82666   1
   3   1  12 44.5261 1.60193   1
   4   1  12 52.0291 2.67935   1
  -5   0  10 -4.6772 4.63273  -2
   5   1  12 -4.6772 4.63273   1
  -6   0  10 9.41243 3.46704  -2
   6   1  12 9.41243 3.46704   1
   5   3  14 49.2747 5.98535  -2
  -5   2  12 49.2747 5.98535   1
  -4   2  12 48.4524 2.96003   1
  -3   2  12 3.64964 1.75269   1
  -2   2  12 131.458 3.92651   1
   1   2  12 166.417 7.27668  -2
  -1   2  12 166.417 7.27668   1
   0   2  12 62.3618 2.48935  -2
   0   2  12 62.3618 2.48935   1
  -1   2  12 15.8980 6.23460  -2
   1   2  12 15.8980 6.23460   1
  -2   2  11 126.601 7.79397  -2
   2   2  12 126.601 7.79397   1
   3   2  12 148.761 3.44972   1
   4   2  12 1.61981 1.50078   1
  -5   1  10 13.3483 4.87356  -2
   5   2  12 13.3483 4.87356   1
  -6   1  10 0.75222 3.36349  -2
   6   2  12 0.75222 3.36349   1
  -4   3  12 6.24164 2.20873   1
  -3   3  12 7.72435 1.94562   1
  -2   3  12 12.0190 1.68341   1
   1   3  12 105.092 6.32597  -2
  -1   3  12 105.092 6.32597   1
   0   3  12 35.7631 2.15964  -2
   0   3  12 35.7631 2.15964   1
  -1   3  12 21.2070 5.60977  -2
   1   3  12 21.2070 5.60977   1
   2   3  12 22.1164 1.90614   1
   3   3  12 20.7830 1.84310   1
   4   3  12 85.8236 3.01744   1
  -5   2  10 26.7481 5.08984  -2
   5   3  12 26.7481 5.08984   1
  -6   2  10 18.1140 3.43954  -2
   6   3  12 18.1140 3.43954   1
  -4   4  12 24.1457 2.76495   1
  -3   4  12 16.9397 2.14106   1
  -2   4  12 33.2829 2.49952   1
   1   4  12 105.876 6.80407  -2
  -1   4  12 105.876 6.80407   1
   0   4  12 78.3512 2.91878  -2
   0   4  12 78.3512 2.91878   1
  -1   4  12 141.305 8.19488  -2
   1   4  12 141.305 8.19488   1
   2   4  12 25.5166 2.34096   1
   3   4  12 131.272 4.46371   1
   4   4  12 3.98041 1.78283   1
  -5   3  10 47.4916 5.59205  -2
   5   4  12 47.4916 5.59205   1
  -3   5  12 37.2349 2.66874   1
   2   5  13 41.2494 9.12062  -2
  -2   5  12 41.2494 9.12062   1
   1   5  12 187.460 14.5128  -2
  -1   5  12 187.460 14.5128   1
   0   5  12 -0.0969 2.50874  -2
   0   5  12 -0.0969 2.50874   1
  -1   5  12 25.7150 4.65906  -2
   1   5  12 25.7150 4.65906   1
  -2   5  11 14.0650 6.47052  -2
   2   5  12 14.0650 6.47052   1
   3   5  12 41.4258 2.98176   1
   4   5  12 23.7476 2.26146   1
   5   5  12 34.7509 3.91447   1
  -2   6  12 73.3006 3.72538   1
   1   6  12 117.307 12.7899  -2
  -1   6  12 117.307 12.7899   1
   0   6  12 132.264 5.19358  -2
   0   6  12 132.264 5.19358   1
  -1   6  12 470.643 12.5012  -2
   1   6  12 470.643 12.5012   1
  -2   6  11 36.4624 7.79589  -2
   2   6  12 36.4624 7.79589   1
   3   6  12 124.120 4.75498   1
   1  -6  13 108.556 5.39919  -2
  -1  -6  13 108.556 5.39919   1
   0  -6  13 91.2760 3.68579  -2
   0  -6  13 91.2760 3.68579   1
  -1  -6  13 62.7863 5.07184  -2
   1  -6  13 62.7863 5.07184   1
  -3  -5  13 80.9283 4.03198   1
  -2  -5  13 4.66457 2.20700   1
   1  -5  13 65.5086 4.34136  -2
  -1  -5  13 65.5086 4.34136   1
   0  -5  13 69.4677 3.18979  -2
   0  -5  13 69.4677 3.18979   1
  -1  -5  13 18.6082 3.31190  -2
   1  -5  13 18.6082 3.31190   1
   2  -5  13 17.7071 2.31153   1
   3  -5  13 2.26973 2.04530   1
  -4  -4  13 8.83139 2.95104   1
  -3  -4  13 109.128 5.15539   1
  -2  -4  13 4.31611 2.01391   1
   1  -4  13 322.864 7.66908  -2
  -1  -4  13 322.864 7.66908   1
   0  -4  13 1.24312 2.55550  -2
   0  -4  13 1.24312 2.55550   1
  -1  -4  13 234.475 5.50281  -2
   1  -4  13 234.475 5.50281   1
   2  -4  13 41.1707 2.58129   1
   3  -4  13 267.066 6.28088   1
   4  -4  13 19.5712 2.40629   1
  -4  -3  13 -1.2045 2.06792   1
  -3  -3  13 6.75510 2.08332   1
  -2  -3  13 22.0344 2.21486   1
   1  -3  13 51.6676 3.55687  -2
  -1  -3  13 51.6676 3.55687   1
   0  -3  13 13.2088 2.54723  -2
   0  -3  13 13.2088 2.54723   1
  -1  -3  13 49.5233 3.43113  -2
   1  -3  13 49.5233 3.43113   1
   2  -3  13 13.7020 1.66892   1
   3  -3  13 5.20269 1.76276   1
   4  -3  13 -1.9677 2.10215   1
  -5  -4  11 139.593 6.24887  -2
   5  -3  13 139.593 6.24887   1
  -5  -2  13 29.5630 3.08006   1
  -4  -2  13 98.1195 4.12980   1
  -3  -2  13 200.022 5.47765   1
  -2  -2  13 2.45351 1.36118   1
   1  -2  13 238.388 7.18634  -2
  -1  -2  13 238.388 7.18634   1
   0  -2  13 111.300 3.24946  -2
   0  -2  13 111.300 3.24946   1
  -1  -2  13 408.878 9.78414  -2
   1  -2  13 408.878 9.78414   1
   2  -2  13 6.41232 1.40869   1
   3  -2  13 131.518 4.61587   1
   4  -2  13 20.9734 2.48987   1
  -5  -3  11 109.872 5.48063  -2
   5  -2  13 109.872 5.48063   1
   5   0  15 32.1222 5.61828  -2
  -5  -1  13 32.1222 5.61828   1
  -4  -1  13 14.9184 2.74103   1
  -3  -1  13 4.59791 1.90911   1
  -2  -1  13 12.0596 1.97758   1
   1  -1  13 10.9937 3.46082  -2
  -1  -1  13 10.9937 3.46082   1
   0  -1  13 0.42606 1.87850  -2
   0  -1  13 0.42606 1.87850   1
  -1  -1  13 45.5583 4.63829  -2
   1  -1  13 45.5583 4.63829   1
   2  -1  13 38.3913 1.86569   1
   3  -1  13 45.5008 1.75318   1
   4  -1  13 1.33945 1.24661   1
  -5  -2  11 164.560 5.92924  -2
   5  -1  13 164.560 5.92924   1
  -6  -2  11 45.3735 6.87998  -2
   6  -1  13 45.3735 6.87998   1
   5   1  15 -1.2788 5.37979  -2
  -5   0  13 -1.2788 5.37979   1
  -4   0  13 -0.3375 1.90353   1
  -3   0  13 207.166 5.20188   1
  -2   0  13 0.31038 1.52741   1
   1   0  13 120.544 6.57417  -2
  -1   0  13 120.544 6.57417   1
   0   0  13 17.8944 2.29238  -2
   0   0  13 17.8944 2.29238   1
  -1   0  13 465.027 19.3902  -2
   1   0  13 465.027 19.3902   1
  -2   0  12 17.7627 5.25086  -2
   2   0  13 17.7627 5.25086   1
   3   0  13 53.6079 1.85626   1
   4   0  13 1.12621 1.23333   1
  -5  -1  11 177.829 7.21557  -2
   5   0  13 177.829 7.21557   1
  -6  -1  11 25.5864 4.53105  -2
   6   0  13 25.5864 4.53105   1
  -5   1  13 7.03963 2.38903   1
  -4   1  13 27.2359 2.55073   1
  -3   1  13 105.102 3.72215   1
  -2   1  13 0.59905 1.56348   1
   1   1  13 3.32094 4.51468  -2
  -1   1  13 3.32094 4.51468   1
   0   1  13 51.1831 2.72997  -2
   0   1  13 51.1831 2.72997   1
  -1   1  13 15.9049 6.61386  -2
   1   1  13 15.9049 6.61386   1
  -2   1  12 -7.4002 3.76423  -2
   2   1  13 -7.4002 3.76423   1
   3   1  13 120.624 3.12230   1
   4   1  13 32.6201 2.11971   1
  -5   0  11 16.0293 5.02252  -2
   5   1  13 16.0293 5.02252   1
  -6   0  11 -1.3563 3.54625  -2
   6   1  13 -1.3563 3.54625   1
  -4   2  13 15.6058 2.45759   1
  -3   2  13 75.5373 3.42608   1
  -2   2  13 0.97790 1.64888   1
   1   2  13 211.858 8.68917  -2
  -1   2  13 211.858 8.68917   1
   0   2  13 8.18257 2.00448  -2
   0   2  13 8.18257 2.00448   1
  -1   2  13 255.797 9.10258  -2
   1   2  13 255.797 9.10258   1
  -2   2  12 24.8608 4.30377  -2
   2   2  13 24.8608 4.30377   1
   3   2  13 224.216 5.46875   1
   4   2  13 -0.8692 1.54109   1
  -5   1  11 117.938 6.31120  -2
   5   2  13 117.938 6.31120   1
  -6   1  11 7.26244 3.71199  -2
   6   2  13 7.26244 3.71199   1
  -4   3  13 31.3232 2.87921   1
  -3   3  13 -0.6063 1.94751   1
   2   3  14 67.5722 8.89321  -2
  -2   3  13 67.5722 8.89321   1
   1   3  13 70.0832 6.23127  -2
  -1   3  13 70.0832 6.23127   1
   0   3  13 78.3475 2.94039  -2
   0   3  13 78.3475 2.94039   1
  -1   3  13 8.94921 7.67559  -2
   1   3  13 8.94921 7.67559   1
  -2   3  12 35.3404 6.38457  -2
   2   3  13 35.3404 6.38457   1
   3   3  13 150.374 4.71423   1
   4   3  13 33.8026 2.59938   1
  -5   2  11 36.2939 5.47525  -2
   5   3  13 36.2939 5.47525   1
  -3   4  13 34.3987 2.88969   1
   2   4  14 37.0572 8.74734  -2
  -2   4  13 37.0572 8.74734   1
   1   4  13 21.9373 5.78287  -2
  -1   4  13 21.9373 5.78287   1
   0   4  13 30.9039 2.82627  -2
   0   4  13 30.9039 2.82627   1
  -1   4  13 44.5728 4.71316  -2
   1   4  13 44.5728 4.71316   1
   2   4  13 80.7075 3.55470   1
   3   4  13 39.9995 2.95230   1
   4   4  13 22.1803 2.73376   1
  -5   3  11 14.8240 7.78493  -2
   5   4  13 14.8240 7.78493   1
  -2   5  13 61.6445 3.45342   1
  -1   5  13 2.06225 2.35889   1
   0   5  13 27.8614 3.01503  -2
   0   5  13 27.8614 3.01503   1
  -1   5  13 28.5139 4.78161  -2
   1   5  13 28.5139 4.78161   1
  -2   5  12 15.2578 7.08400  -2
   2   5  13 15.2578 7.08400   1
   3   5  13 1.61363 2.15641   1
   4   5  13 0.77887 2.29271   1
   0   6  13 139.264 5.40115  -2
   0   6  13 139.264 5.40115   1
   1   6  13 56.6219 3.46769   1
  -2   6  12 219.696 12.1346  -2
   2   6  13 219.696 12.1346   1
  -2  -5  14 4.32208 2.39779   1
   1  -5  14 42.1610 4.22358  -2
  -1  -5  14 42.1610 4.22358   1
   0  -5  14 5.12406 3.08591  -2
   0  -5  14 5.12406 3.08591   1
  -1  -5  14 12.5636 3.90113  -2
   1  -5  14 12.5636 3.90113   1
   2  -5  14 1.49407 2.10950   1
  -3  -4  14 2.07223 2.71742   1
  -2  -4  14 91.4331 4.73675   1
   1  -4  14 17.7106 3.64971  -2
  -1  -4  14 17.7106 3.64971   1
   0  -4  14 -1.4909 2.74646  -2
   0  -4  14 -1.4909 2.74646   1
  -1  -4  14 4.95505 3.70124  -2
   1  -4  14 4.95505 3.70124   1
   2  -4  14 53.8314 2.86403   1
   3  -4  14 14.9283 2.25072   1
  -4  -3  14 6.55743 3.74031   1
  -3  -3  14 0.06983 2.11741   1
  -2  -3  14 10.5064 2.58348   1
   1  -3  14 3.29734 4.05052  -2
  -1  -3  14 3.29734 4.05052   1
   0  -3  14 51.5314 3.17307  -2
   0  -3  14 51.5314 3.17307   1
  -1  -3  14 0.88351 3.29227  -2
   1  -3  14 0.88351 3.29227   1
   2  -3  14 0.26791 1.50378   1
   3  -3  14 11.5978 2.04035   1
   4  -3  14 26.1098 2.99253   1
  -4  -2  14 3.41634 2.64827   1
  -3  -2  14 111.749 4.29700   1
  -2  -2  14 9.39867 1.62668   1
   1  -2  14 7.17722 3.89982  -2
  -1  -2  14 7.17722 3.89982   1
   0  -2  14 17.3657 2.65951  -2
   0  -2  14 17.3657 2.65951   1
  -1  -2  14 43.6626 5.04495  -2
   1  -2  14 43.6626 5.04495   1
   2  -2  14 6.96763 1.78874   1
   3  -2  14 13.8565 1.98690   1
   4  -2  14 0.23341 2.10000   1
  -5  -3  12 13.1902 4.00127  -2
   5  -2  14 13.1902 4.00127   1
  -4  -1  14 4.48477 2.67578   1
  -3  -1  14 0.75965 2.30643   1
  -2  -1  14 40.4783 3.12065   1
   1  -1  14 178.676 8.33387  -2
  -1  -1  14 178.676 8.33387   1
   0  -1  14 3.04630 2.17157  -2
   0  -1  14 3.04630 2.17157   1
  -1  -1  14 26.6603 4.71776  -2
   1  -1  14 26.6603 4.71776   1
   2  -1  14 7.12642 1.69939   1
   3  -1  14 125.080 3.62826   1
   4  -1  14 14.0173 2.07535   1
  -5  -2  12 15.6723 3.91928  -2
   5  -1  14 15.6723 3.91928   1
  -4   0  14 89.5675 4.74085   1
  -3   0  14 2.01021 1.82254   1
  -2   0  14 48.3307 2.54254   1
   1   0  14 3.22347 4.92699  -2
  -1   0  14 3.22347 4.92699   1
   0   0  14 275.395 6.17393  -2
   0   0  14 275.395 6.17393   1
  -1   0  14 10.9699 7.29093  -2
   1   0  14 10.9699 7.29093   1
  -2   0  13 60.7074 6.24437  -2
   2   0  14 60.7074 6.24437   1
   3   0  14 8.79821 1.52122   1
   4   0  14 103.655 2.79096   1
  -5  -1  12 63.6053 5.56582  -2
   5   0  14 63.6053 5.56582   1
  -4   1  14 28.1930 2.67172   1
  -3   1  14 27.3654 2.43652   1
   2   1  15 3.85316 6.14061  -2
  -2   1  14 3.85316 6.14061   1
   1   1  14 16.7930 5.13130  -2
  -1   1  14 16.7930 5.13130   1
   0   1  14 3.92381 2.38432  -2
   0   1  14 3.92381 2.38432   1
  -1   1  14 11.6411 4.72300  -2
   1   1  14 11.6411 4.72300   1
  -2   1  13 42.0316 6.26739  -2
   2   1  14 42.0316 6.26739   1
   3   1  14 12.6390 1.80012   1
   4   1  14 70.8676 2.92969   1
  -5   0  12 19.7298 5.30902  -2
   5   1  14 19.7298 5.30902   1
  -4   2  14 97.9106 4.19119   1
  -3   2  14 24.7894 2.52736   1
   2   2  15 162.356 7.41217  -2
  -2   2  14 162.356 7.41217   1
   1   2  14 267.275 10.1588  -2
  -1   2  14 267.275 10.1588   1
   0   2  14 338.106 7.29445  -2
   0   2  14 338.106 7.29445   1
  -1   2  14 38.3127 5.27765  -2
   1   2  14 38.3127 5.27765   1
  -2   2  13 161.829 6.43617  -2
   2   2  14 161.829 6.43617   1
   3   2  14 131.810 5.18719   1
   4   2  14 143.282 5.58214   1
  -5   1  12 -2.3878 5.17183  -2
   5   2  14 -2.3878 5.17183   1
  -3   3  14 64.5240 3.41051   1
  -2   3  14 1.49387 1.95244   1
   1   3  14 29.0366 6.00554  -2
  -1   3  14 29.0366 6.00554   1
   0   3  14 10.4102 2.28669  -2
   0   3  14 10.4102 2.28669   1
  -1   3  14 160.620 7.22164  -2
   1   3  14 160.620 7.22164   1
  -2   3  13 126.530 8.66847  -2
   2   3  14 126.530 8.66847   1
   3   3  14 15.2666 2.41976   1
   4   3  14 144.689 5.83783   1
  -5   2  12 78.1517 6.24953  -2
   5   3  14 78.1517 6.24953   1
   2   4  15 84.2692 9.62744  -2
  -2   4  14 84.2692 9.62744   1
   1   4  14 5.54354 6.09955  -2
  -1   4  14 5.54354 6.09955   1
   0   4  14 168.466 5.77816  -2
   0   4  14 168.466 5.77816   1
  -1   4  14 14.2691 6.80668  -2
   1   4  14 14.2691 6.80668   1
   2   4  14 92.1955 3.99194   1
   3   4  14 8.23991 2.32431   1
   4   4  14 62.2325 3.72551   1
  -1   5  14 6.98068 2.58902   1
   0   5  14 14.8623 3.33585  -2
   0   5  14 14.8623 3.33585   1
  -1   5  14 40.8439 7.45697  -2
   1   5  14 40.8439 7.45697   1
   2   5  14 85.0294 4.02372   1
   3   5  14 7.42313 2.38559   1
  -2  -4  15 187.092 6.73765   1
   1  -4  15 13.0492 4.90047  -2
  -1  -4  15 13.0492 4.90047   1
   0  -4  15 147.974 5.00550  -2
   0  -4  15 147.974 5.00550   1
  -1  -4  15 57.3387 4.37494  -2
   1  -4  15 57.3387 4.37494   1
   2  -4  15 99.0427 3.83312   1
  -3  -3  15 58.8245 4.25833   1
  -2  -3  15 123.955 5.44469   1
   1  -3  15 9.56675 4.61411  -2
  -1  -3  15 9.56675 4.61411   1
   0  -3  15 136.980 5.46478  -2
   0  -3  15 136.980 5.46478   1
  -1  -3  15 56.9157 5.13994  -2
   1  -3  15 56.9157 5.13994   1
   2  -3  15 336.928 7.76719   1
   3  -3  15 13.0093 2.27573   1
  -3  -2  15 16.2957 2.94384   1
  -2  -2  15 67.5457 5.07178   1
   1  -2  15 4.83003 4.26227  -2
  -1  -2  15 4.83003 4.26227   1
   0  -2  15 3.88973 3.08960  -2
   0  -2  15 3.88973 3.08960   1
  -1  -2  15 5.61517 4.99440  -2
   1  -2  15 5.61517 4.99440   1
   2  -2  15 14.6622 2.54810   1
   3  -2  15 29.1689 2.49935   1
   4  -2  15 36.4754 2.75237   1
  -3  -1  15 18.3112 2.95491   1
  -2  -1  15 5.50050 2.42708   1
   1  -1  15 5.91808 5.35178  -2
  -1  -1  15 5.91808 5.35178   1
   0  -1  15 89.9796 5.61818  -2
   0  -1  15 89.9796 5.61818   1
  -1  -1  15 26.7285 8.18334  -2
   1  -1  15 26.7285 8.18334   1
   2  -1  15 45.9689 3.11834   1
   3  -1  15 2.82599 1.86916   1
   4  -1  15 87.0517 3.31249   1
  -3   0  15 17.9625 2.97020   1
  -2   0  15 0.39977 2.28346   1
   1   0  15 17.5684 5.56244  -2
  -1   0  15 17.5684 5.56244   1
   0   0  15 10.7802 2.51875  -2
   0   0  15 10.7802 2.51875   1
  -1   0  15 29.1421 5.57130  -2
   1   0  15 29.1421 5.57130   1
   2   0  15 -0.5081 1.76632   1
   3   0  15 46.3683 3.01381   1
   4   0  15 12.7501 2.71352   1
  -5  -1  13 11.4707 5.33880  -2
   5   0  15 11.4707 5.33880   1
  -3   1  15 48.0059 3.01576   1
  -2   1  15 -0.8543 1.84925   1
   1   1  15 7.42843 5.28155  -2
  -1   1  15 7.42843 5.28155   1
   0   1  15 16.7682 2.73245  -2
   0   1  15 16.7682 2.73245   1
  -1   1  15 32.5316 5.43532  -2
   1   1  15 32.5316 5.43532   1
  -2   1  14 6.44110 5.76989  -2
   2   1  15 6.44110 5.76989   1
   3   1  15 15.2442 2.27547   1
   4   1  15 22.2720 3.10952   1
  -5   0  13 18.1685 5.55755  -2
   5   1  15 18.1685 5.55755   1
  -3   2  15 36.4754 2.92833   1
   2   2  16 77.6395 8.20741  -2
  -2   2  15 77.6395 8.20741   1
   1   2  15 75.3150 6.84585  -2
  -1   2  15 75.3150 6.84585   1
   0   2  15 30.9385 2.96275  -2
   0   2  15 30.9385 2.96275   1
  -1   2  15 61.7449 4.62031  -2
   1   2  15 61.7449 4.62031   1
  -2   2  14 37.5964 6.76488  -2
   2   2  15 37.5964 6.76488   1
   3   2  15 34.3105 3.32479   1
   4   2  15 4.40490 2.75847   1
   2   3  16 8.06362 9.63035  -2
  -2   3  15 8.06362 9.63035   1
   1   3  15 38.5421 6.56486  -2
  -1   3  15 38.5421 6.56486   1
   0   3  15 20.8125 2.92230  -2
   0   3  15 20.8125 2.92230   1
  -1   3  15 3.50531 5.25896  -2
   1   3  15 3.50531 5.25896   1
  -2   3  14 40.1906 7.91249  -2
   2   3  15 40.1906 7.91249   1
   3   3  15 126.827 4.68205   1
   4   3  15 3.27091 2.73894   1
   1   4  15 220.178 15.5171  -2
  -1   4  15 220.178 15.5171   1
   0   4  15 28.8200 3.64026  -2
   0   4  15 28.8200 3.64026   1
  -1   4  15 54.9139 7.85654  -2
   1   4  15 54.9139 7.85654   1
   2   4  15 25.8836 2.77184   1
   3   4  15 122.283 4.74643   1
   1  -3  16 97.2172 6.08161  -2
  -1  -3  16 97.2172 6.08161   1
   0  -3  16 104.799 5.24906  -2
   0  -3  16 104.799 5.24906   1
  -1  -3  16 104.406 5.89585  -2
   1  -3  16 104.406 5.89585   1
   2  -3  16 1.08466 2.44311   1
  -2  -2  16 0.57730 2.12690   1
   1  -2  16 126.756 7.88761  -2
  -1  -2  16 126.756 7.88761   1
   0  -2  16 12.8674 4.37879  -2
   0  -2  16 12.8674 4.37879   1
  -1  -2  16 9.54489 6.23682  -2
   1  -2  16 9.54489 6.23682   1
   2  -2  16 22.9391 2.93347   1
   3  -2  16 20.8934 2.91932   1
  -2  -1  16 39.9798 3.53493   1
   1  -1  16 80.3514 6.73314  -2
  -1  -1  16 80.3514 6.73314   1
   0  -1  16 130.439 6.87847  -2
   0  -1  16 130.439 6.87847   1
  -1  -1  16 346.170 12.4645  -2
   1  -1  16 346.170 12.4645   1
   2  -1  16 15.2688 3.23463   1
   3  -1  16 75.5240 4.33961   1
   4  -1  16 13.1585 3.51460   1
  -2   0  16 4.27835 2.53808   1
   1   0  16 3.08821 8.68361  -2
  -1   0  16 3.08821 8.68361   1
   0   0  16 10.3107 3.59321  -2
   0   0  16 10.3107 3.59321   1
  -1   0  16 6.17386 5.62809  -2
   1   0  16 6.17386 5.62809   1
   2   0  16 46.1289 4.11508   1
   3   0  16 16.2188 3.30993   1
   2   1  17 91.4063 11.5848  -2
  -2   1  16 91.4063 11.5848   1
   1   1  16 84.6174 7.19812  -2
  -1   1  16 84.6174 7.19812   1
   0   1  16 104.318 4.04009  -2
   0   1  16 104.318 4.04009   1
  -1   1  16 252.478 10.0992  -2
   1   1  16 252.478 10.0992   1
  -2   1  15 36.9072 6.89934  -2
   2   1  16 36.9072 6.89934   1
   3   1  16 83.1907 6.62236   1
   4   1  16 13.4224 3.10995   1
  -2   2  16 9.67865 2.39669   1
   1   2  16 41.0030 6.75687  -2
  -1   2  16 41.0030 6.75687   1
   0   2  16 17.2471 3.04548  -2
   0   2  16 17.2471 3.04548   1
  -1   2  16 5.95600 5.34824  -2
   1   2  16 5.95600 5.34824   1
  -2   2  15 78.4333 8.11193  -2
   2   2  16 78.4333 8.11193   1
   3   2  16 132.942 5.76636   1
   1   3  16 38.9113 7.16569  -2
  -1   3  16 38.9113 7.16569   1
   0   3  16 16.6211 4.23905  -2
   0   3  16 16.6211 4.23905   1
  -1   3  16 -11.191 6.94318  -2
   1   3  16 -11.191 6.94318   1
  -2   3  15 15.8592 7.25922  -2
   2   3  16 15.8592 7.25922   1
   3   3  16 42.0530 3.81772   1
   0  -2  17 6.79578 4.75067  -2
   0  -2  17 6.79578 4.75067   1
   1  -2  17 1.13743 3.03754   1
   1  -1  17 5.92075 6.46351  -2
  -1  -1  17 5.92075 6.46351   1
   0  -1  17 9.50290 3.49173  -2
   0  -1  17 9.50290 3.49173   1
  -1  -1  17 22.7586 6.51844  -2
   1  -1  17 22.7586 6.51844   1
   2  -1  17 8.69478 3.33255   1
   1   0  17 40.0457 6.87460  -2
  -1   0  17 40.0457 6.87460   1
   0   0  17 34.8854 4.19382  -2
   0   0  17 34.8854 4.19382   1
  -1   0  17 9.63021 6.48656  -2
   1   0  17 9.63021 6.48656   1
   2   0  17 18.8361 3.52974   1
   1   1  17 194.774 9.69710  -2
  -1   1  17 194.774 9.69710   1
   0   1  17 105.408 5.19828  -2
   0   1  17 105.408 5.19828   1
  -1   1  17 37.0897 6.65018  -2
   1   1  17 37.0897 6.65018   1
  -2   1  16 75.4696 8.06213  -2
   2   1  17 75.4696 8.06213   1
   0   2  17 1.76414 3.46747  -2
   0   2  17 1.76414 3.46747   1
   1   2  17 72.2422 4.18084   1
  -2   2  16 12.5770 7.39376  -2
   2   2  17 12.5770 7.39376   1
   0   0   0    0.00    0.00   0
;
_shelx_hkl_checksum              7078
#END Tags that were not found in dictionaries
loop_
_space_group_symop_operation_xyz
'x, y, z'
'-x, -y, -z'
loop_
_atom_site_label
_atom_site_type_symbol
_atom_site_fract_x
_atom_site_fract_y
_atom_site_fract_z
_atom_site_U_iso_or_equiv
_atom_site_adp_type
_atom_site_occupancy
_atom_site_site_symmetry_order
_atom_site_calc_flag
_atom_site_refinement_flags_posn
_atom_site_refinement_flags_adp
_atom_site_refinement_flags_occupancy
_atom_site_disorder_assembly
_atom_site_disorder_group
C1 C 0.2244(3) 1.2014(3) 0.28509(16) 0.0160(5) Uani 1 1 d D . . . .
H1 H 0.2099 1.3241 0.2939 0.019 Uiso 1 1 calc R U . . .
C2 C 0.2387(3) 1.0971(3) 0.36176(16) 0.0145(5) Uani 1 1 d D . . . .
S1 S 0.22903(9) 1.18816(7) 0.47090(4) 0.01635(15) Uani 1 1 d D . . . .
C3 C 0.2527(4) 0.9811(3) 0.51940(16) 0.0147(5) Uani 1 1 d D . . . .
C4 C 0.2550(4) 0.9383(3) 0.61156(16) 0.0181(5) Uani 1 1 d D . . . .
H4 H 0.2466 1.0263 0.6574 0.022 Uiso 1 1 calc R U . . .
C5 C 0.2698(4) 0.7626(3) 0.63454(17) 0.0191(5) Uani 1 1 d D . . . .
H5 H 0.2695 0.7298 0.6970 0.023 Uiso 1 1 calc R U . . .
C6 C 0.2851(4) 0.6342(3) 0.56689(16) 0.0179(5) Uani 1 1 d D . . . .
H6 H 0.2965 0.5150 0.5839 0.021 Uiso 1 1 calc R U . . .
C7 C 0.2841(3) 0.6774(3) 0.47499(16) 0.0158(5) Uani 1 1 d D . . . .
H7 H 0.2942 0.5892 0.4292 0.019 Uiso 1 1 calc R U . . .
C8 C 0.2677(3) 0.8533(3) 0.45135(15) 0.0132(5) Uani 1 1 d D . . . .
N1 N 0.2599(3) 0.9193(2) 0.36198(13) 0.0135(4) Uani 1 1 d D . . . .
C9 C 0.2301(3) 1.1377(3) 0.19627(16) 0.0147(5) Uani 1 1 d D . . . .
S2 S 0.21083(9) 1.27896(7) 0.10365(4) 0.01934(16) Uani 1 1 d D . . . .
C10 C 0.2343(3) 1.1033(3) 0.02753(16) 0.0167(5) Uani 1 1 d D . . . .
C11 C 0.2324(4) 1.1064(3) -0.06724(16) 0.0209(6) Uani 1 1 d D . . . .
H11 H 0.2166 1.2135 -0.0990 0.025 Uiso 1 1 calc R U . . .
C12 C 0.2541(4) 0.9493(3) -0.11390(17) 0.0237(6) Uani 1 1 d D . . . .
H12 H 0.2551 0.9484 -0.1787 0.028 Uiso 1 1 calc R U . . .
C13 C 0.2747(4) 0.7918(3) -0.06709(17) 0.0215(6) Uani 1 1 d D . . . .
H13 H 0.2890 0.6853 -0.1006 0.026 Uiso 1 1 calc R U . . .
C14 C 0.2744(3) 0.7885(3) 0.02728(16) 0.0183(5) Uani 1 1 d D . . . .
H14 H 0.2878 0.6810 0.0588 0.022 Uiso 1 1 calc R U . . .
C15 C 0.2542(3) 0.9463(3) 0.07520(15) 0.0151(5) Uani 1 1 d D . . . .
N2 N 0.2515(3) 0.9666(2) 0.17069(13) 0.0134(4) Uani 1 1 d D . . . .
Al1 Al 0.25990(10) 0.78067(8) 0.25539(5) 0.01404(17) Uani 1 1 d D . . . .
C16 C 0.488(2) 0.618(2) 0.2331(13) 0.0195(7) Uani 0.705(3) 1 d D . P A 1
H16A H 0.5069 0.5883 0.1678 0.029 Uiso 0.705(3) 1 calc R U P A 1
H16B H 0.4714 0.5120 0.2688 0.029 Uiso 0.705(3) 1 calc R U P A 1
H16C H 0.5998 0.6737 0.2514 0.029 Uiso 0.705(3) 1 calc R U P A 1
Cl1 Cl 0.0021(4) 0.6550(4) 0.2610(3) 0.0179(3) Uani 0.705(3) 1 d D . P A 1
Cl1' Cl 0.5003(13) 0.6119(13) 0.2370(7) 0.0195(7) Uani 0.295(3) 1 d D . P A 2
C16' C 0.015(4) 0.662(5) 0.261(3) 0.0179(3) Uani 0.295(3) 1 d D . P A 2
H16D H 0.0029 0.5930 0.3176 0.027 Uiso 0.295(3) 1 calc R U P A 2
H16E H 0.0149 0.5847 0.2082 0.027 Uiso 0.295(3) 1 calc R U P A 2
H16F H -0.0925 0.7496 0.2614 0.027 Uiso 0.295(3) 1 calc R U P A 2
loop_
_atom_site_aniso_label
_atom_site_aniso_U_11
_atom_site_aniso_U_22
_atom_site_aniso_U_33
_atom_site_aniso_U_23
_atom_site_aniso_U_13
_atom_site_aniso_U_12
C1 0.0199(15) 0.0099(11) 0.0183(12) 0.0008(9) -0.0027(10) -0.0014(9)
C2 0.0132(14) 0.0136(11) 0.0169(12) -0.0003(9) -0.0022(9) -0.0016(9)
S1 0.0221(4) 0.0117(3) 0.0153(3) -0.0008(2) -0.0030(2) 0.0001(2)
C3 0.0126(12) 0.0134(11) 0.0178(13) 0.0009(9) -0.0007(10) 0.0001(9)
C4 0.0175(15) 0.0194(12) 0.0172(13) -0.0010(10) -0.0020(10) 0.0011(10)
C5 0.0216(15) 0.0207(12) 0.0148(12) 0.0043(10) -0.0018(10) 0.0008(10)
C6 0.0206(14) 0.0133(11) 0.0197(13) 0.0048(9) -0.0017(10) -0.0001(10)
C7 0.0177(14) 0.0127(11) 0.0172(12) -0.0006(9) -0.0027(10) -0.0005(9)
C8 0.0082(12) 0.0164(11) 0.0152(12) 0.0015(9) -0.0025(9) -0.0007(9)
N1 0.0148(11) 0.0115(9) 0.0145(10) 0.0006(8) -0.0024(8) -0.0012(8)
C9 0.0106(13) 0.0145(11) 0.0193(13) 0.0045(9) -0.0023(9) -0.0015(9)
S2 0.0286(4) 0.0142(3) 0.0161(3) 0.0044(2) -0.0047(3) -0.0038(2)
C10 0.0119(13) 0.0183(12) 0.0200(13) 0.0013(10) -0.0014(10) -0.0024(9)
C11 0.0191(15) 0.0283(14) 0.0157(13) 0.0077(10) -0.0021(10) -0.0038(11)
C12 0.0214(15) 0.0369(15) 0.0130(13) 0.0008(11) -0.0006(10) -0.0035(11)
C13 0.0219(15) 0.0240(13) 0.0183(13) -0.0047(10) -0.0011(11) 0.0003(11)
C14 0.0178(14) 0.0177(12) 0.0193(13) -0.0003(10) -0.0027(10) 0.0005(10)
C15 0.0115(13) 0.0198(12) 0.0139(12) 0.0038(9) -0.0015(9) -0.0007(9)
N2 0.0122(11) 0.0133(9) 0.0147(10) -0.0008(8) -0.0015(8) 0.0001(8)
Al1 0.0176(4) 0.0111(3) 0.0135(4) 0.0007(3) -0.0028(3) 0.0002(3)
C16 0.0193(13) 0.0173(9) 0.0211(10) 0.0027(8) -0.0010(8) 0.0023(7)
Cl1 0.0148(6) 0.0159(5) 0.0233(5) 0.0012(4) -0.0031(4) -0.0026(4)
Cl1' 0.0193(13) 0.0173(9) 0.0211(10) 0.0027(8) -0.0010(8) 0.0023(7)
C16' 0.0148(6) 0.0159(5) 0.0233(5) 0.0012(4) -0.0031(4) -0.0026(4)
loop_
_atom_type_symbol
_atom_type_description
_atom_type_scat_dispersion_real
_atom_type_scat_dispersion_imag
_atom_type_scat_source
C C 0.0033 0.0016 'International Tables Vol C Tables 4.2.6.8 and 6.1.1.4'
H H 0.0000 0.0000 'International Tables Vol C Tables 4.2.6.8 and 6.1.1.4'
N N 0.0061 0.0033 'International Tables Vol C Tables 4.2.6.8 and 6.1.1.4'
Al Al 0.0645 0.0514 'International Tables Vol C Tables 4.2.6.8 and 6.1.1.4'
S S 0.1246 0.1234 'International Tables Vol C Tables 4.2.6.8 and 6.1.1.4'
Cl Cl 0.1484 0.1585 'International Tables Vol C Tables 4.2.6.8 and 6.1.1.4'
loop_
_geom_angle_atom_site_label_1
_geom_angle_atom_site_label_2
_geom_angle_atom_site_label_3
_geom_angle
C2 C1 C9 124.1(2)
C2 C1 H1 118.0
C9 C1 H1 118.0
N1 C2 C1 125.9(2)
N1 C2 S1 113.05(16)
C1 C2 S1 121.02(17)
C2 S1 C3 90.81(11)
C4 C3 C8 121.6(2)
C4 C3 S1 128.10(18)
C8 C3 S1 110.27(17)
C3 C4 C5 118.0(2)
C3 C4 H4 121.0
C5 C4 H4 121.0
C4 C5 C6 120.7(2)
C4 C5 H5 119.6
C6 C5 H5 119.6
C7 C6 C5 121.1(2)
C7 C6 H6 119.4
C5 C6 H6 119.4
C6 C7 C8 118.6(2)
C6 C7 H7 120.7
C8 C7 H7 120.7
C3 C8 C7 120.0(2)
C3 C8 N1 114.15(19)
C7 C8 N1 125.8(2)
C2 N1 C8 111.72(18)
C2 N1 Al1 123.45(15)
C8 N1 Al1 124.68(14)
N2 C9 C1 126.1(2)
N2 C9 S2 112.96(17)
C1 C9 S2 120.98(17)
C10 S2 C9 90.84(11)
C11 C10 C15 121.5(2)
C11 C10 S2 128.24(19)
C15 C10 S2 110.25(18)
C12 C11 C10 118.1(2)
C12 C11 H11 121.0
C10 C11 H11 121.0
C11 C12 C13 120.9(2)
C11 C12 H12 119.5
C13 C12 H12 119.5
C14 C13 C12 121.0(2)
C14 C13 H13 119.5
C12 C13 H13 119.5
C13 C14 C15 118.6(2)
C13 C14 H14 120.7
C15 C14 H14 120.7
C14 C15 C10 119.8(2)
C14 C15 N2 126.0(2)
C10 C15 N2 114.1(2)
C9 N2 C15 111.80(19)
C9 N2 Al1 123.29(16)
C15 N2 Al1 124.80(15)
N1 Al1 N2 96.84(9)
N1 Al1 C16 113.9(6)
N2 Al1 C16 113.1(6)
N1 Al1 C16' 108.3(11)
N2 Al1 C16' 110.1(12)
N1 Al1 Cl1' 111.9(3)
N2 Al1 Cl1' 114.4(3)
C16' Al1 Cl1' 113.9(10)
N1 Al1 Cl1 108.57(12)
N2 Al1 Cl1 109.98(13)
C16 Al1 Cl1 113.2(5)
Al1 C16 H16A 109.5
Al1 C16 H16B 109.5
H16A C16 H16B 109.5
Al1 C16 H16C 109.5
H16A C16 H16C 109.5
H16B C16 H16C 109.5
Al1 C16' H16D 109.5
Al1 C16' H16E 109.5
H16D C16' H16E 109.5
Al1 C16' H16F 109.5
H16D C16' H16F 109.5
H16E C16' H16F 109.5
loop_
_geom_bond_atom_site_label_1
_geom_bond_atom_site_label_2
_geom_bond_distance
C1 C2 1.387(3)
C1 C9 1.388(3)
C1 H1 0.9500
C2 N1 1.365(3)
C2 S1 1.742(2)
S1 C3 1.747(2)
C3 C4 1.392(3)
C3 C8 1.394(3)
C4 C5 1.392(3)
C4 H4 0.9500
C5 C6 1.393(3)
C5 H5 0.9500
C6 C7 1.388(3)
C6 H6 0.9500
C7 C8 1.395(3)
C7 H7 0.9500
C8 N1 1.409(3)
N1 Al1 1.893(2)
C9 N2 1.364(3)
C9 S2 1.747(2)
S2 C10 1.743(2)
C10 C11 1.391(3)
C10 C15 1.399(3)
C11 C12 1.382(4)
C11 H11 0.9500
C12 C13 1.397(4)
C12 H12 0.9500
C13 C14 1.384(3)
C13 H13 0.9500
C14 C15 1.396(3)
C14 H14 0.9500
C15 N2 1.407(3)
N2 Al1 1.895(2)
Al1 C16 1.976(14)
Al1 C16' 2.01(2)
Al1 Cl1' 2.064(8)
Al1 Cl1 2.120(2)
C16 H16A 0.9800
C16 H16B 0.9800
C16 H16C 0.9800
C16' H16D 0.9800
C16' H16E 0.9800
C16' H16F 0.9800
loop_
_geom_torsion_atom_site_label_1
_geom_torsion_atom_site_label_2
_geom_torsion_atom_site_label_3
_geom_torsion_atom_site_label_4
_geom_torsion
C9 C1 C2 N1 -0.1(4)
C9 C1 C2 S1 -179.67(19)
N1 C2 S1 C3 -0.36(19)
C1 C2 S1 C3 179.3(2)
C2 S1 C3 C4 -178.9(2)
C2 S1 C3 C8 0.28(19)
C8 C3 C4 C5 -1.0(4)
S1 C3 C4 C5 178.1(2)
C3 C4 C5 C6 1.1(4)
C4 C5 C6 C7 -0.7(4)
C5 C6 C7 C8 0.2(4)
C4 C3 C8 C7 0.5(4)
S1 C3 C8 C7 -178.72(19)
C4 C3 C8 N1 179.1(2)
S1 C3 C8 N1 -0.2(3)
C6 C7 C8 C3 -0.1(4)
C6 C7 C8 N1 -178.5(2)
C1 C2 N1 C8 -179.3(2)
S1 C2 N1 C8 0.3(3)
C1 C2 N1 Al1 -3.6(3)
S1 C2 N1 Al1 176.06(11)
C3 C8 N1 C2 -0.1(3)
C7 C8 N1 C2 178.4(2)
C3 C8 N1 Al1 -175.78(17)
C7 C8 N1 Al1 2.7(3)
C2 C1 C9 N2 -0.5(4)
C2 C1 C9 S2 179.96(19)
N2 C9 S2 C10 -0.47(18)
C1 C9 S2 C10 179.1(2)
C9 S2 C10 C11 179.6(2)
C9 S2 C10 C15 0.39(19)
C15 C10 C11 C12 -1.1(4)
S2 C10 C11 C12 179.8(2)
C10 C11 C12 C13 0.9(4)
C11 C12 C13 C14 -0.2(4)
C12 C13 C14 C15 -0.3(4)
C13 C14 C15 C10 0.2(4)
C13 C14 C15 N2 -179.8(2)
C11 C10 C15 C14 0.5(4)
S2 C10 C15 C14 179.78(19)
C11 C10 C15 N2 -179.5(2)
S2 C10 C15 N2 -0.2(3)
C1 C9 N2 C15 -179.1(2)
S2 C9 N2 C15 0.4(2)
C1 C9 N2 Al1 4.7(3)
S2 C9 N2 Al1 -175.81(11)
C14 C15 N2 C9 179.9(2)
C10 C15 N2 C9 -0.1(3)
C14 C15 N2 Al1 -4.0(3)
C10 C15 N2 Al1 176.04(16)
C2 N1 Al1 N2 5.7(2)
C8 N1 Al1 N2 -179.10(18)
C2 N1 Al1 C16 124.8(6)
C8 N1 Al1 C16 -60.1(6)
C2 N1 Al1 C16' -108.1(13)
C8 N1 Al1 C16' 67.0(13)
C2 N1 Al1 Cl1' 125.5(4)
C8 N1 Al1 Cl1' -59.3(4)
C2 N1 Al1 Cl1 -108.0(2)
C8 N1 Al1 Cl1 67.1(2)
C9 N2 Al1 N1 -6.2(2)
C15 N2 Al1 N1 178.03(19)
C9 N2 Al1 C16 -125.9(6)
C15 N2 Al1 C16 58.4(6)
C9 N2 Al1 C16' 106.1(11)
C15 N2 Al1 C16' -69.6(11)
C9 N2 Al1 Cl1' -124.1(4)
C15 N2 Al1 Cl1' 60.2(4)
C9 N2 Al1 Cl1 106.4(2)
C15 N2 Al1 Cl1 -69.3(2)
