#------------------------------------------------------------------------------
#$Date: 2016-03-25 23:14:46 +0200 (Fri, 25 Mar 2016) $
#$Revision: 180031 $
#$URL: svn://www.crystallography.net/cod/cif/7/03/25/7032564.cif $
#------------------------------------------------------------------------------
#
# This file is available in the Crystallography Open Database (COD),
# http://www.crystallography.net/
#
# All data on this site have been placed in the public domain by the
# contributors.
#
data_7032564
loop_
_publ_author_name
'Kim, Jung-Mi'
'Kim, Young-Il'
'Park, Chee-Sung'
'Park, Cheol-Hee'
_publ_section_title
;
 Transformation of a layered perovskite to a defect perovskite via
 cooperative Li-insertion and O/N substitution.
;
_journal_issue                   44
_journal_name_full
'Dalton transactions (Cambridge, England : 2003)'
_journal_page_first              16830
_journal_page_last               16837
_journal_paper_doi               10.1039/c4dt02335h
_journal_volume                  43
_journal_year                    2014
_chemical_formula_sum            'Li1.08 N2.32 O7.28 Sr2.92 Ta2.92'
_chemical_formula_weight         940.68
_chemical_name_systematic        ' ?'
_space_group_IT_number           140
_symmetry_cell_setting           tetragonal
_symmetry_space_group_name_Hall  '-I 4 2c'
_symmetry_space_group_name_H-M   'I 4/m c m'
_audit_creation_date             2014-07-31T15:02
_audit_creation_method           'from EXP file using GSAS2CIF'
_audit_update_record
' 2014-07-31T15:02  Initial CIF as created by GSAS2CIF'
_cell_angle_alpha                90.0
_cell_angle_beta                 90.0
_cell_angle_gamma                90.0
_cell_formula_units_Z            1
_cell_length_a                   5.69035(7)
_cell_length_b                   5.69035
_cell_length_c                   8.06693(20)
_cell_volume                     261.208(7)
_computing_structure_refinement  GSAS
_diffrn_radiation_polarisn_ratio 0.548
_diffrn_radiation_probe          x-ray
_diffrn_radiation_wavelength     1.5406
_exptl_absorpt_correction_T_max  1.00000
_exptl_absorpt_correction_T_min  1.00000
_exptl_absorpt_process_details
;   GSAS Absorption/surface roughness correction: function number 0
 No correction is applied.
;
_pd_block_id                     2014-07-31T15:02|LI03CIF|Young-Il_Kim|X-ray_Cu
_pd_calc_method                  'Rietveld Refinement'
_pd_instr_location               ' ?'
_pd_meas_number_of_points        8168
_pd_phase_name                   I4/mcm
_pd_proc_info_datetime           2014-07-31T15:02:28
_pd_proc_info_excluded_regions   ' ?'
_pd_proc_ls_background_function
;   GSAS Background function number 7 with 16 terms.
 Linear interpolation
      1:    170.367     2:    137.035     3:    110.442     4:    112.839    
      5:    85.8520     6:    115.476     7:    65.6037     8:    79.2749    
      9:    76.9371    10:    72.6861    11:    82.5566    12:    75.0286    
     13:    97.4312    14:    106.894    15:    120.680    16:    124.371    
;
_pd_proc_ls_peak_cutoff          0.00050
_pd_proc_ls_pref_orient_corr
;   March-Dollase
 AXIS  1 Ratio=     1.012 Frac     0.500  h= 0.000  k= 0.000  l= 1.000
 AXIS  2 Ratio=     0.693 Frac     0.500  h= 1.000  k= 0.000  l= 0.000
 Prefered orientation correction range: Min=   0.77343, Max=   1.40436
;
_pd_proc_ls_profile_function
;
 CW Profile function number 3 with  19 terms
 Pseudovoigt profile coefficients as parameterized in
 P. Thompson, D.E. Cox & J.B. Hastings (1987). J. Appl. Cryst.,20,79-83.
 Asymmetry correction of L.W. Finger, D.E. Cox & A. P. Jephcoat (1994).
 J. Appl. Cryst.,27,892-900.
 Peak tails are ignored  where the intensity is below 0.0005 times the peak
   Aniso. broadening axis   0.0   0.0   1.0
;
_pd_proc_ls_prof_R_factor        0.0677
_pd_proc_ls_prof_wR_expected     0.0528
_pd_proc_ls_prof_wR_factor       0.1010
_pd_proc_number_of_points        8168
_pd_spec_mounting                ' ?'
_refine_ls_goodness_of_fit_all   1.92
_refine_ls_matrix_type           full
_refine_ls_number_parameters     32
_refine_ls_number_restraints     0
_refine_ls_R_Fsqd_factor         0.03096
_refine_ls_shift/su_max          4.88
_refine_ls_shift/su_mean         0.21
_reflns_d_resolution_high        0.805
_reflns_d_resolution_low         4.033
_reflns_limit_h_max              7
_reflns_limit_h_min              0
_reflns_limit_k_max              5
_reflns_limit_k_min              0
_reflns_limit_l_max              10
_reflns_limit_l_min              0
_reflns_number_total             85
_cod_data_source_file            c4dt02335h4.cif
_cod_data_source_block           LI03CIF_publ
_cod_depositor_comments
;
The following automatic conversions were performed:

'_geom_bond_publ_flag' value 'N' changed to 'n' according to
/usr/data/users/saulius/crontab/automatic-downloads/rss-feeds/RSC/lib/dictionaries/cif_core.dic
dictionary named 'cif_core.dic' version 2.4.2 from 2011-04-26 (118
times).

'_geom_angle_publ_flag' value 'N' changed to 'n' according
to
/usr/data/users/saulius/crontab/automatic-downloads/rss-feeds/RSC/lib/dictionaries/cif_core.dic
dictionary named 'cif_core.dic' version 2.4.2 from 2011-04-26 (792
times).

Automatic conversion script
Id: cif_fix_values 2281 2013-09-26 08:29:07Z andrius 

 Adding full bibliography for 7032562--7032565.cif.
;
_cod_database_code               7032564
#BEGIN Tags that were not found in dictionaries:
_gsas_exptl_extinct_corr_t_min   1.00000
_gsas_exptl_extinct_corr_t_max   1.00000
#END Tags that were not found in dictionaries
loop_
_symmetry_equiv_pos_site_id
_symmetry_equiv_pos_as_xyz
1 +x,+y,+z
2 -y,+x,+z
3 -x,-y,+z
4 +y,-x,+z
5 -x,+y,+z+1/2
6 -y,-x,+z+1/2
7 +x,-y,+z+1/2
8 +y,+x,+z+1/2
-1 -x,-y,-z
-2 +y,-x,-z
-3 +x,+y,-z
-4 -y,+x,-z
-5 +x,-y,-z+1/2
-6 +y,+x,-z+1/2
-7 -x,+y,-z+1/2
-8 -y,-x,-z+1/2
101 +x+1/2,+y+1/2,+z+1/2
102 -y+1/2,+x+1/2,+z+1/2
103 -x+1/2,-y+1/2,+z+1/2
104 +y+1/2,-x+1/2,+z+1/2
105 -x+1/2,+y+1/2,+z
106 -y+1/2,-x+1/2,+z
107 +x+1/2,-y+1/2,+z
108 +y+1/2,+x+1/2,+z
-101 -x+1/2,-y+1/2,-z+1/2
-102 +y+1/2,-x+1/2,-z+1/2
-103 +x+1/2,+y+1/2,-z+1/2
-104 -y+1/2,+x+1/2,-z+1/2
-105 +x+1/2,-y+1/2,-z
-106 +y+1/2,+x+1/2,-z
-107 -x+1/2,+y+1/2,-z
-108 -y+1/2,-x+1/2,-z
loop_
_atom_site_type_symbol
_atom_site_label
_atom_site_fract_x
_atom_site_fract_y
_atom_site_fract_z
_atom_site_occupancy
_atom_site_thermal_displace_type
_atom_site_U_iso_or_equiv
_atom_site_symmetry_multiplicity
Sr Sr 0.0 0.5 0.25 0.73 Uiso 0.00482(17) 4
Ta Ta 0.0 0.0 0.0 0.73 Uiso 0.00519(13) 4
Li Li 0.0 0.0 0.0 0.27 Uiso 0.00519(13) 4
O O1 0.0 0.0 0.25 0.380(22) Uiso 0.0121(11) 4
N N1 0.0 0.0 0.25 0.121(7) Uiso 0.0121(11) 4
O O2 0.7745(9) 0.2745(9) 0.0 0.720(11) Uiso 0.0121(11) 8
N N2 0.7745(9) 0.2745(9) 0.0 0.2294(34) Uiso 0.0121(11) 8
loop_
_atom_type_symbol
_atom_type_number_in_cell
_atom_type_scat_dispersion_real
_atom_type_scat_dispersion_imag
_atom_type_scat_Cromer_Mann_a1
_atom_type_scat_Cromer_Mann_a2
_atom_type_scat_Cromer_Mann_a3
_atom_type_scat_Cromer_Mann_a4
_atom_type_scat_Cromer_Mann_b1
_atom_type_scat_Cromer_Mann_b2
_atom_type_scat_Cromer_Mann_b3
_atom_type_scat_Cromer_Mann_b4
_atom_type_scat_Cromer_Mann_c
_atom_type_scat_source
Sr 2.92 0.000 0.000 17.5663 1.55640 9.81840 14.0988 5.42200 0.16640 2.66940
132.376 2.50640 International_Tables_Vol_C
Ta 2.92 0.000 0.000 29.2024 1.77333 15.2293 9.37046 14.5135 0.29598 4.76492
63.3644 9.24354 International_Tables_Vol_C
Li 1.08 0.000 0.000 1.12820 3.95460 0.75080 1.05240 0.61750 85.3905 0.46530
168.261 0.03770 International_Tables_Vol_C
O 7.28 0.000 0.000 3.04850 13.2771 2.28680 5.70110 1.54630 0.32390 0.86700
32.9089 0.25080 International_Tables_Vol_C
N 2.32 0.000 0.000 12.2126 0.00570 3.13220 9.89330 2.01250 28.9975 1.16630
0.58260 -11.529 International_Tables_Vol_C
loop_
_geom_angle_atom_site_label_1
_geom_angle_atom_site_label_2
_geom_angle_atom_site_label_3
_geom_angle
_geom_angle_site_symmetry_1
_geom_angle_site_symmetry_3
_geom_angle_publ_flag
Sr Sr Sr 90.0 2_555 2_565 n
Sr Sr Sr 90.0 2_555 2_655 n
Sr Sr Sr 180.0 2_555 2_665 n
Sr Sr Sr 90.0 2_555 5_554 n
Sr Sr Sr 90.0 2_555 5_555 n
Sr Sr Ta 54.7684(4) 2_555 1_555 n
Sr Sr Ta 125.2316(4) 2_555 1_565 n
Sr Sr Ta 54.7684(4) 2_555 5_555 n
Sr Sr Ta 125.2316(4) 2_555 5_565 n
Sr Sr Ta 54.7684(4) 2_555 101_455 n
Sr Sr Ta 125.2316(4) 2_555 101_555 n
Sr Sr Ta 54.7684(4) 2_555 105_453 n
Sr Sr Ta 125.2316(4) 2_555 105_553 n
Sr Sr Li 54.7684(4) 2_555 1_555 n
Sr Sr Li 125.2316(4) 2_555 1_565 n
Sr Sr Li 54.7684(4) 2_555 5_555 n
Sr Sr Li 125.2316(4) 2_555 5_565 n
Sr Sr Li 54.7684(4) 2_555 101_455 n
Sr Sr Li 125.2316(4) 2_555 101_555 n
Sr Sr Li 54.7684(4) 2_555 105_453 n
Sr Sr Li 125.2316(4) 2_555 105_553 n
Sr Sr O1 45.0 2_555 1_555 n
Sr Sr O1 135.0 2_555 1_565 n
Sr Sr O1 45.0 2_555 105_453 n
Sr Sr Sr 180.0 2_565 2_655 n
Sr Sr Sr 90.0 2_565 2_665 n
Sr Sr Sr 90.0 2_565 5_554 n
Sr Sr Sr 90.0 2_565 5_555 n
Sr Sr Ta 125.2316(4) 2_565 1_555 n
Sr Sr Ta 54.7684(4) 2_565 1_565 n
Sr Sr Ta 125.2316(4) 2_565 5_555 n
Sr Sr Ta 54.7684(4) 2_565 5_565 n
Sr Sr Ta 54.7684(4) 2_565 101_455 n
Sr Sr Ta 125.2316(4) 2_565 101_555 n
Sr Sr Ta 54.7684(4) 2_565 105_453 n
Sr Sr Ta 125.2316(4) 2_565 105_553 n
Sr Sr Li 125.2316(4) 2_565 1_555 n
Sr Sr Li 54.7684(4) 2_565 1_565 n
Sr Sr Li 125.2316(4) 2_565 5_555 n
Sr Sr Li 54.7684(4) 2_565 5_565 n
Sr Sr Li 54.7684(4) 2_565 101_455 n
Sr Sr Li 125.2316(4) 2_565 101_555 n
Sr Sr Li 54.7684(4) 2_565 105_453 n
Sr Sr Li 125.2316(4) 2_565 105_553 n
Sr Sr O1 135.0 2_565 1_555 n
Sr Sr O1 45.0 2_565 1_565 n
Sr Sr O1 45.0 2_565 105_453 n
Sr Sr Sr 90.0 2_655 2_665 n
Sr Sr Sr 90.0 2_655 5_554 n
Sr Sr Sr 90.0 2_655 5_555 n
Sr Sr Ta 54.7684(4) 2_655 1_555 n
Sr Sr Ta 125.2316(4) 2_655 1_565 n
Sr Sr Ta 54.7684(4) 2_655 5_555 n
Sr Sr Ta 125.2316(4) 2_655 5_565 n
Sr Sr Ta 125.2316(4) 2_655 101_455 n
Sr Sr Ta 54.7684(4) 2_655 101_555 n
Sr Sr Ta 125.2316(4) 2_655 105_453 n
Sr Sr Ta 54.7684(4) 2_655 105_553 n
Sr Sr Li 54.7684(4) 2_655 1_555 n
Sr Sr Li 125.2316(4) 2_655 1_565 n
Sr Sr Li 54.7684(4) 2_655 5_555 n
Sr Sr Li 125.2316(4) 2_655 5_565 n
Sr Sr Li 125.2316(4) 2_655 101_455 n
Sr Sr Li 54.7684(4) 2_655 101_555 n
Sr Sr Li 125.2316(4) 2_655 105_453 n
Sr Sr Li 54.7684(4) 2_655 105_553 n
Sr Sr O1 45.0 2_655 1_555 n
Sr Sr O1 135.0 2_655 1_565 n
Sr Sr O1 135.0 2_655 105_453 n
Sr Sr Sr 90.0 2_665 5_554 n
Sr Sr Sr 90.0 2_665 5_555 n
Sr Sr Ta 125.2316(4) 2_665 1_555 n
Sr Sr Ta 54.7684(4) 2_665 1_565 n
Sr Sr Ta 125.2316(4) 2_665 5_555 n
Sr Sr Ta 54.7684(4) 2_665 5_565 n
Sr Sr Ta 125.2316(4) 2_665 101_455 n
Sr Sr Ta 54.7684(4) 2_665 101_555 n
Sr Sr Ta 125.2316(4) 2_665 105_453 n
Sr Sr Ta 54.7684(4) 2_665 105_553 n
Sr Sr Li 125.2316(4) 2_665 1_555 n
Sr Sr Li 54.7684(4) 2_665 1_565 n
Sr Sr Li 125.2316(4) 2_665 5_555 n
Sr Sr Li 54.7684(4) 2_665 5_565 n
Sr Sr Li 125.2316(4) 2_665 101_455 n
Sr Sr Li 54.7684(4) 2_665 101_555 n
Sr Sr Li 125.2316(4) 2_665 105_453 n
Sr Sr Li 54.7684(4) 2_665 105_553 n
Sr Sr O1 135.0 2_665 1_555 n
Sr Sr O1 45.0 2_665 1_565 n
Sr Sr O1 135.0 2_665 105_453 n
Sr Sr Sr 180.0 5_554 5_555 n
Sr Sr Ta 54.6700(7) 5_554 1_555 n
Sr Sr Ta 54.6700(7) 5_554 1_565 n
Sr Sr Ta 125.3300(7) 5_554 5_555 n
Sr Sr Ta 125.3300(7) 5_554 5_565 n
Sr Sr Ta 125.3300(7) 5_554 101_455 n
Sr Sr Ta 125.3300(7) 5_554 101_555 n
Sr Sr Ta 54.6700(7) 5_554 105_453 n
Sr Sr Ta 54.6700(7) 5_554 105_553 n
Sr Sr Li 54.6700(7) 5_554 1_555 n
Sr Sr Li 54.6700(7) 5_554 1_565 n
Sr Sr Li 125.3300(7) 5_554 5_555 n
Sr Sr Li 125.3300(7) 5_554 5_565 n
Sr Sr Li 125.3300(7) 5_554 101_455 n
Sr Sr Li 125.3300(7) 5_554 101_555 n
Sr Sr Li 54.6700(7) 5_554 105_453 n
Sr Sr Li 54.6700(7) 5_554 105_553 n
Sr Sr O1 90.0 5_554 1_555 n
Sr Sr O1 90.0 5_554 1_565 n
Sr Sr O1 90.0 5_554 105_453 n
Sr Sr Ta 125.3300(7) 5_555 1_555 n
Sr Sr Ta 125.3300(7) 5_555 1_565 n
Sr Sr Ta 54.6700(7) 5_555 5_555 n
Sr Sr Ta 54.6700(7) 5_555 5_565 n
Sr Sr Ta 54.6700(7) 5_555 101_455 n
Sr Sr Ta 54.6700(7) 5_555 101_555 n
Sr Sr Ta 125.3300(7) 5_555 105_453 n
Sr Sr Ta 125.3300(7) 5_555 105_553 n
Sr Sr Li 125.3300(7) 5_555 1_555 n
Sr Sr Li 125.3300(7) 5_555 1_565 n
Sr Sr Li 54.6700(7) 5_555 5_555 n
Sr Sr Li 54.6700(7) 5_555 5_565 n
Sr Sr Li 54.6700(7) 5_555 101_455 n
Sr Sr Li 54.6700(7) 5_555 101_555 n
Sr Sr Li 125.3300(7) 5_555 105_453 n
Sr Sr Li 125.3300(7) 5_555 105_553 n
Sr Sr O1 90.0 5_555 1_555 n
Sr Sr O1 90.0 5_555 1_565 n
Sr Sr O1 90.0 5_555 105_453 n
Ta Sr Ta 109.3401(15) 1_555 1_565 n
Ta Sr Ta 70.6599(15) 1_555 5_555 n
Ta Sr Ta 180.0 1_555 5_565 n
Ta Sr Ta 109.5368(7) 1_555 101_455 n
Ta Sr Ta 109.5368(7) 1_555 101_555 n
Ta Sr Ta 70.4632(7) 1_555 105_453 n
Ta Sr Ta 70.4632(7) 1_555 105_553 n
Ta Sr Li 0.0 1_555 1_555 n
Ta Sr Li 109.3401(15) 1_555 1_565 n
Ta Sr Li 70.6599(15) 1_555 5_555 n
Ta Sr Li 180.0 1_555 5_565 n
Ta Sr Li 109.5368(7) 1_555 101_455 n
Ta Sr Li 109.5368(7) 1_555 101_555 n
Ta Sr Li 70.4632(7) 1_555 105_453 n
Ta Sr Li 70.4632(7) 1_555 105_553 n
Ta Sr O1 35.3300(7) 1_555 1_555 n
Ta Sr O1 144.6700(7) 1_555 1_565 n
Ta Sr O1 90.0 1_555 105_453 n
Ta Sr Ta 180.0 1_565 5_555 n
Ta Sr Ta 70.6599(15) 1_565 5_565 n
Ta Sr Ta 109.5368(7) 1_565 101_455 n
Ta Sr Ta 109.5368(7) 1_565 101_555 n
Ta Sr Ta 70.4632(7) 1_565 105_453 n
Ta Sr Ta 70.4632(7) 1_565 105_553 n
Ta Sr Li 109.3401(15) 1_565 1_555 n
Ta Sr Li 0.0 1_565 1_565 n
Ta Sr Li 180.0 1_565 5_555 n
Ta Sr Li 70.6599(15) 1_565 5_565 n
Ta Sr Li 109.5368(7) 1_565 101_455 n
Ta Sr Li 109.5368(7) 1_565 101_555 n
Ta Sr Li 70.4632(7) 1_565 105_453 n
Ta Sr Li 70.4632(7) 1_565 105_553 n
Ta Sr O1 144.6700(7) 1_565 1_555 n
Ta Sr O1 35.3300(7) 1_565 1_565 n
Ta Sr O1 90.0 1_565 105_453 n
Ta Sr Ta 109.3401(15) 5_555 5_565 n
Ta Sr Ta 70.4632(7) 5_555 101_455 n
Ta Sr Ta 70.4632(7) 5_555 101_555 n
Ta Sr Ta 109.5368(7) 5_555 105_453 n
Ta Sr Ta 109.5368(7) 5_555 105_553 n
Ta Sr Li 70.6599(15) 5_555 1_555 n
Ta Sr Li 180.0 5_555 1_565 n
Ta Sr Li 0.0 5_555 5_555 n
Ta Sr Li 109.3401(15) 5_555 5_565 n
Ta Sr Li 70.4632(7) 5_555 101_455 n
Ta Sr Li 70.4632(7) 5_555 101_555 n
Ta Sr Li 109.5368(7) 5_555 105_453 n
Ta Sr Li 109.5368(7) 5_555 105_553 n
Ta Sr O1 35.3300(7) 5_555 1_555 n
Ta Sr O1 144.6700(7) 5_555 1_565 n
Ta Sr O1 90.0 5_555 105_453 n
Ta Sr Ta 70.4632(7) 5_565 101_455 n
Ta Sr Ta 70.4632(7) 5_565 101_555 n
Ta Sr Ta 109.5368(7) 5_565 105_453 n
Ta Sr Ta 109.5368(7) 5_565 105_553 n
Ta Sr Li 180.0 5_565 1_555 n
Ta Sr Li 70.6599(15) 5_565 1_565 n
Ta Sr Li 109.3401(15) 5_565 5_555 n
Ta Sr Li 0.0 5_565 5_565 n
Ta Sr Li 70.4632(7) 5_565 101_455 n
Ta Sr Li 70.4632(7) 5_565 101_555 n
Ta Sr Li 109.5368(7) 5_565 105_453 n
Ta Sr Li 109.5368(7) 5_565 105_553 n
Ta Sr O1 144.6700(7) 5_565 1_555 n
Ta Sr O1 35.3300(7) 5_565 1_565 n
Ta Sr O1 90.0 5_565 105_453 n
Ta Sr Ta 109.3401(15) 101_455 101_555 n
Ta Sr Ta 70.6599(15) 101_455 105_453 n
Ta Sr Ta 180.0 101_455 105_553 n
Ta Sr Li 109.5368(7) 101_455 1_555 n
Ta Sr Li 109.5368(7) 101_455 1_565 n
Ta Sr Li 70.4632(7) 101_455 5_555 n
Ta Sr Li 70.4632(7) 101_455 5_565 n
Ta Sr Li 0.0 101_455 101_455 n
Ta Sr Li 109.3401(15) 101_455 101_555 n
Ta Sr Li 70.6599(15) 101_455 105_453 n
Ta Sr Li 180.0 101_455 105_553 n
Ta Sr O1 90.0 101_455 1_555 n
Ta Sr O1 90.0 101_455 1_565 n
Ta Sr O1 35.3300(7) 101_455 105_453 n
Ta Sr Ta 180.0 101_555 105_453 n
Ta Sr Ta 70.6599(15) 101_555 105_553 n
Ta Sr Li 109.5368(7) 101_555 1_555 n
Ta Sr Li 109.5368(7) 101_555 1_565 n
Ta Sr Li 70.4632(7) 101_555 5_555 n
Ta Sr Li 70.4632(7) 101_555 5_565 n
Ta Sr Li 109.3401(15) 101_555 101_455 n
Ta Sr Li 0.0 101_555 101_555 n
Ta Sr Li 180.0 101_555 105_453 n
Ta Sr Li 70.6599(15) 101_555 105_553 n
Ta Sr O1 90.0 101_555 1_555 n
Ta Sr O1 90.0 101_555 1_565 n
Ta Sr O1 144.6700(7) 101_555 105_453 n
Ta Sr Ta 109.3401(15) 105_453 105_553 n
Ta Sr Li 70.4632(7) 105_453 1_555 n
Ta Sr Li 70.4632(7) 105_453 1_565 n
Ta Sr Li 109.5368(7) 105_453 5_555 n
Ta Sr Li 109.5368(7) 105_453 5_565 n
Ta Sr Li 70.6599(15) 105_453 101_455 n
Ta Sr Li 180.0 105_453 101_555 n
Ta Sr Li 0.0 105_453 105_453 n
Ta Sr Li 109.3401(15) 105_453 105_553 n
Ta Sr O1 90.0 105_453 1_555 n
Ta Sr O1 90.0 105_453 1_565 n
Ta Sr O1 35.3300(7) 105_453 105_453 n
Ta Sr Li 70.4632(7) 105_553 1_555 n
Ta Sr Li 70.4632(7) 105_553 1_565 n
Ta Sr Li 109.5368(7) 105_553 5_555 n
Ta Sr Li 109.5368(7) 105_553 5_565 n
Ta Sr Li 180.0 105_553 101_455 n
Ta Sr Li 70.6599(15) 105_553 101_555 n
Ta Sr Li 109.3401(15) 105_553 105_453 n
Ta Sr Li 0.0 105_553 105_553 n
Ta Sr O1 90.0 105_553 1_555 n
Ta Sr O1 90.0 105_553 1_565 n
Ta Sr O1 144.6700(7) 105_553 105_453 n
Li Sr Li 109.3401(15) 1_555 1_565 n
Li Sr Li 70.6599(15) 1_555 5_555 n
Li Sr Li 180.0 1_555 5_565 n
Li Sr Li 109.5368(7) 1_555 101_455 n
Li Sr Li 109.5368(7) 1_555 101_555 n
Li Sr Li 70.4632(7) 1_555 105_453 n
Li Sr Li 70.4632(7) 1_555 105_553 n
Li Sr O1 35.3300(7) 1_555 1_555 n
Li Sr O1 144.6700(7) 1_555 1_565 n
Li Sr O1 90.0 1_555 105_453 n
Li Sr Li 180.0 1_565 5_555 n
Li Sr Li 70.6599(15) 1_565 5_565 n
Li Sr Li 109.5368(7) 1_565 101_455 n
Li Sr Li 109.5368(7) 1_565 101_555 n
Li Sr Li 70.4632(7) 1_565 105_453 n
Li Sr Li 70.4632(7) 1_565 105_553 n
Li Sr O1 144.6700(7) 1_565 1_555 n
Li Sr O1 35.3300(7) 1_565 1_565 n
Li Sr O1 90.0 1_565 105_453 n
Li Sr Li 109.3401(15) 5_555 5_565 n
Li Sr Li 70.4632(7) 5_555 101_455 n
Li Sr Li 70.4632(7) 5_555 101_555 n
Li Sr Li 109.5368(7) 5_555 105_453 n
Li Sr Li 109.5368(7) 5_555 105_553 n
Li Sr O1 35.3300(7) 5_555 1_555 n
Li Sr O1 144.6700(7) 5_555 1_565 n
Li Sr O1 90.0 5_555 105_453 n
Li Sr Li 70.4632(7) 5_565 101_455 n
Li Sr Li 70.4632(7) 5_565 101_555 n
Li Sr Li 109.5368(7) 5_565 105_453 n
Li Sr Li 109.5368(7) 5_565 105_553 n
Li Sr O1 144.6700(7) 5_565 1_555 n
Li Sr O1 35.3300(7) 5_565 1_565 n
Li Sr O1 90.0 5_565 105_453 n
Li Sr Li 109.3401(15) 101_455 101_555 n
Li Sr Li 70.6599(15) 101_455 105_453 n
Li Sr Li 180.0 101_455 105_553 n
Li Sr O1 90.0 101_455 1_555 n
Li Sr O1 90.0 101_455 1_565 n
Li Sr O1 35.3300(7) 101_455 105_453 n
Li Sr Li 180.0 101_555 105_453 n
Li Sr Li 70.6599(15) 101_555 105_553 n
Li Sr O1 90.0 101_555 1_555 n
Li Sr O1 90.0 101_555 1_565 n
Li Sr O1 144.6700(7) 101_555 105_453 n
Li Sr Li 109.3401(15) 105_453 105_553 n
Li Sr O1 90.0 105_453 1_555 n
Li Sr O1 90.0 105_453 1_565 n
Li Sr O1 35.3300(7) 105_453 105_453 n
Li Sr O1 90.0 105_553 1_555 n
Li Sr O1 90.0 105_553 1_565 n
Li Sr O1 144.6700(7) 105_553 105_453 n
O1 Sr O1 180.0 1_555 1_565 n
O1 Sr O1 90.0 1_555 105_453 n
O1 Sr O1 90.0 1_565 105_453 n
Sr Ta Sr 109.3401(15) 1_545 1_555 n
Sr Ta Sr 70.4632(7) 1_545 2_555 n
Sr Ta Sr 70.4632(7) 1_545 2_655 n
Sr Ta Sr 70.6599(15) 1_545 5_544 n
Sr Ta Sr 180.0 1_545 5_554 n
Sr Ta Sr 109.5368(7) 1_545 6_554 n
Sr Ta Sr 109.5368(7) 1_545 6_654 n
Sr Ta O1 54.6700(7) 1_545 1_555 n
Sr Ta O1 125.3300(7) 1_545 5_554 n
Sr Ta N1 54.6700(7) 1_545 1_555 n
Sr Ta N1 125.3300(7) 1_545 5_554 n
Sr Ta O2 129.08(13) 1_545 1_455 n
Sr Ta O2 58.81(15) 1_545 2_545 n
Sr Ta O2 50.92(13) 1_545 3_655 n
Sr Ta O2 121.19(15) 1_545 4_565 n
Sr Ta N2 129.08(13) 1_545 1_455 n
Sr Ta N2 58.81(15) 1_545 2_545 n
Sr Ta N2 50.92(13) 1_545 3_655 n
Sr Ta N2 121.19(15) 1_545 4_565 n
Sr Ta Sr 70.4632(7) 1_555 2_555 n
Sr Ta Sr 70.4632(7) 1_555 2_655 n
Sr Ta Sr 180.0 1_555 5_544 n
Sr Ta Sr 70.6599(15) 1_555 5_554 n
Sr Ta Sr 109.5368(7) 1_555 6_554 n
Sr Ta Sr 109.5368(7) 1_555 6_654 n
Sr Ta O1 54.6700(7) 1_555 1_555 n
Sr Ta O1 125.3300(7) 1_555 5_554 n
Sr Ta N1 54.6700(7) 1_555 1_555 n
Sr Ta N1 125.3300(7) 1_555 5_554 n
Sr Ta O2 50.92(13) 1_555 1_455 n
Sr Ta O2 121.19(15) 1_555 2_545 n
Sr Ta O2 129.08(13) 1_555 3_655 n
Sr Ta O2 58.81(15) 1_555 4_565 n
Sr Ta N2 50.92(13) 1_555 1_455 n
Sr Ta N2 121.19(15) 1_555 2_545 n
Sr Ta N2 129.08(13) 1_555 3_655 n
Sr Ta N2 58.81(15) 1_555 4_565 n
Sr Ta Sr 109.3401(15) 2_555 2_655 n
Sr Ta Sr 109.5368(7) 2_555 5_544 n
Sr Ta Sr 109.5368(7) 2_555 5_554 n
Sr Ta Sr 70.6599(15) 2_555 6_554 n
Sr Ta Sr 180.0 2_555 6_654 n
Sr Ta O1 54.6700(7) 2_555 1_555 n
Sr Ta O1 125.3300(7) 2_555 5_554 n
Sr Ta N1 54.6700(7) 2_555 1_555 n
Sr Ta N1 125.3300(7) 2_555 5_554 n
Sr Ta O2 58.81(15) 2_555 1_455 n
Sr Ta O2 50.92(13) 2_555 2_545 n
Sr Ta O2 121.19(15) 2_555 3_655 n
Sr Ta O2 129.08(13) 2_555 4_565 n
Sr Ta N2 58.81(15) 2_555 1_455 n
Sr Ta N2 50.92(13) 2_555 2_545 n
Sr Ta N2 121.19(15) 2_555 3_655 n
Sr Ta N2 129.08(13) 2_555 4_565 n
Sr Ta Sr 109.5368(7) 2_655 5_544 n
Sr Ta Sr 109.5368(7) 2_655 5_554 n
Sr Ta Sr 180.0 2_655 6_554 n
Sr Ta Sr 70.6599(15) 2_655 6_654 n
Sr Ta O1 54.6700(7) 2_655 1_555 n
Sr Ta O1 125.3300(7) 2_655 5_554 n
Sr Ta N1 54.6700(7) 2_655 1_555 n
Sr Ta N1 125.3300(7) 2_655 5_554 n
Sr Ta O2 121.19(15) 2_655 1_455 n
Sr Ta O2 129.08(13) 2_655 2_545 n
Sr Ta O2 58.81(15) 2_655 3_655 n
Sr Ta O2 50.92(13) 2_655 4_565 n
Sr Ta N2 121.19(15) 2_655 1_455 n
Sr Ta N2 129.08(13) 2_655 2_545 n
Sr Ta N2 58.81(15) 2_655 3_655 n
Sr Ta N2 50.92(13) 2_655 4_565 n
Sr Ta Sr 109.3401(15) 5_544 5_554 n
Sr Ta Sr 70.4632(7) 5_544 6_554 n
Sr Ta Sr 70.4632(7) 5_544 6_654 n
Sr Ta O1 125.3300(7) 5_544 1_555 n
Sr Ta O1 54.6700(7) 5_544 5_554 n
Sr Ta N1 125.3300(7) 5_544 1_555 n
Sr Ta N1 54.6700(7) 5_544 5_554 n
Sr Ta O2 129.08(13) 5_544 1_455 n
Sr Ta O2 58.81(15) 5_544 2_545 n
Sr Ta O2 50.92(13) 5_544 3_655 n
Sr Ta O2 121.19(15) 5_544 4_565 n
Sr Ta N2 129.08(13) 5_544 1_455 n
Sr Ta N2 58.81(15) 5_544 2_545 n
Sr Ta N2 50.92(13) 5_544 3_655 n
Sr Ta N2 121.19(15) 5_544 4_565 n
Sr Ta Sr 70.4632(7) 5_554 6_554 n
Sr Ta Sr 70.4632(7) 5_554 6_654 n
Sr Ta O1 125.3300(7) 5_554 1_555 n
Sr Ta O1 54.6700(7) 5_554 5_554 n
Sr Ta N1 125.3300(7) 5_554 1_555 n
Sr Ta N1 54.6700(7) 5_554 5_554 n
Sr Ta O2 50.92(13) 5_554 1_455 n
Sr Ta O2 121.19(15) 5_554 2_545 n
Sr Ta O2 129.08(13) 5_554 3_655 n
Sr Ta O2 58.81(15) 5_554 4_565 n
Sr Ta N2 50.92(13) 5_554 1_455 n
Sr Ta N2 121.19(15) 5_554 2_545 n
Sr Ta N2 129.08(13) 5_554 3_655 n
Sr Ta N2 58.81(15) 5_554 4_565 n
Sr Ta Sr 109.3401(15) 6_554 6_654 n
Sr Ta O1 125.3300(7) 6_554 1_555 n
Sr Ta O1 54.6700(7) 6_554 5_554 n
Sr Ta N1 125.3300(7) 6_554 1_555 n
Sr Ta N1 54.6700(7) 6_554 5_554 n
Sr Ta O2 58.81(15) 6_554 1_455 n
Sr Ta O2 50.92(13) 6_554 2_545 n
Sr Ta O2 121.19(15) 6_554 3_655 n
Sr Ta O2 129.08(13) 6_554 4_565 n
Sr Ta N2 58.81(15) 6_554 1_455 n
Sr Ta N2 50.92(13) 6_554 2_545 n
Sr Ta N2 121.19(15) 6_554 3_655 n
Sr Ta N2 129.08(13) 6_554 4_565 n
Sr Ta O1 125.3300(7) 6_654 1_555 n
Sr Ta O1 54.6700(7) 6_654 5_554 n
Sr Ta N1 125.3300(7) 6_654 1_555 n
Sr Ta N1 54.6700(7) 6_654 5_554 n
Sr Ta O2 121.19(15) 6_654 1_455 n
Sr Ta O2 129.08(13) 6_654 2_545 n
Sr Ta O2 58.81(15) 6_654 3_655 n
Sr Ta O2 50.92(13) 6_654 4_565 n
Sr Ta N2 121.19(15) 6_654 1_455 n
Sr Ta N2 129.08(13) 6_654 2_545 n
Sr Ta N2 58.81(15) 6_654 3_655 n
Sr Ta N2 50.92(13) 6_654 4_565 n
O1 Ta O1 180.0 1_555 5_554 n
O1 Ta N1 0.0 1_555 1_555 n
O1 Ta N1 180.0 1_555 5_554 n
O1 Ta O2 90.0 1_555 1_455 n
O1 Ta O2 90.0 1_555 2_545 n
O1 Ta O2 90.0 1_555 3_655 n
O1 Ta O2 90.0 1_555 4_565 n
O1 Ta N2 90.0 1_555 1_455 n
O1 Ta N2 90.0 1_555 2_545 n
O1 Ta N2 90.0 1_555 3_655 n
O1 Ta N2 90.0 1_555 4_565 n
O1 Ta N1 180.0 5_554 1_555 n
O1 Ta N1 0.0 5_554 5_554 n
O1 Ta O2 90.0 5_554 1_455 n
O1 Ta O2 90.0 5_554 2_545 n
O1 Ta O2 90.0 5_554 3_655 n
O1 Ta O2 90.0 5_554 4_565 n
O1 Ta N2 90.0 5_554 1_455 n
O1 Ta N2 90.0 5_554 2_545 n
O1 Ta N2 90.0 5_554 3_655 n
O1 Ta N2 90.0 5_554 4_565 n
N1 Ta N1 180.0 1_555 5_554 n
N1 Ta O2 90.0 1_555 1_455 n
N1 Ta O2 90.0 1_555 2_545 n
N1 Ta O2 90.0 1_555 3_655 n
N1 Ta O2 90.0 1_555 4_565 n
N1 Ta N2 90.0 1_555 1_455 n
N1 Ta N2 90.0 1_555 2_545 n
N1 Ta N2 90.0 1_555 3_655 n
N1 Ta N2 90.0 1_555 4_565 n
N1 Ta O2 90.0 5_554 1_455 n
N1 Ta O2 90.0 5_554 2_545 n
N1 Ta O2 90.0 5_554 3_655 n
N1 Ta O2 90.0 5_554 4_565 n
N1 Ta N2 90.0 5_554 1_455 n
N1 Ta N2 90.0 5_554 2_545 n
N1 Ta N2 90.0 5_554 3_655 n
N1 Ta N2 90.0 5_554 4_565 n
O2 Ta O2 90.0 1_455 2_545 n
O2 Ta O2 180.0 1_455 3_655 n
O2 Ta O2 90.0 1_455 4_565 n
O2 Ta N2 0.0 1_455 1_455 n
O2 Ta N2 90.0 1_455 2_545 n
O2 Ta N2 180.0 1_455 3_655 n
O2 Ta N2 90.0 1_455 4_565 n
O2 Ta O2 90.0 2_545 3_655 n
O2 Ta O2 180.0 2_545 4_565 n
O2 Ta N2 90.0 2_545 1_455 n
O2 Ta N2 0.0 2_545 2_545 n
O2 Ta N2 90.0 2_545 3_655 n
O2 Ta N2 180.0 2_545 4_565 n
O2 Ta O2 90.0 3_655 4_565 n
O2 Ta N2 180.0 3_655 1_455 n
O2 Ta N2 90.0 3_655 2_545 n
O2 Ta N2 0.0 3_655 3_655 n
O2 Ta N2 90.0 3_655 4_565 n
O2 Ta N2 90.0 4_565 1_455 n
O2 Ta N2 180.0 4_565 2_545 n
O2 Ta N2 90.0 4_565 3_655 n
O2 Ta N2 0.0 4_565 4_565 n
N2 Ta N2 90.0 1_455 2_545 n
N2 Ta N2 180.0 1_455 3_655 n
N2 Ta N2 90.0 1_455 4_565 n
N2 Ta N2 90.0 2_545 3_655 n
N2 Ta N2 180.0 2_545 4_565 n
N2 Ta N2 90.0 3_655 4_565 n
Sr Li Sr 109.3401(15) 1_545 1_555 n
Sr Li Sr 70.4632(7) 1_545 2_555 n
Sr Li Sr 70.4632(7) 1_545 2_655 n
Sr Li Sr 70.6599(15) 1_545 5_544 n
Sr Li Sr 180.0 1_545 5_554 n
Sr Li Sr 109.5368(7) 1_545 6_554 n
Sr Li Sr 109.5368(7) 1_545 6_654 n
Sr Li O1 54.6700(7) 1_545 1_555 n
Sr Li O1 125.3300(7) 1_545 5_554 n
Sr Li N1 54.6700(7) 1_545 1_555 n
Sr Li N1 125.3300(7) 1_545 5_554 n
Sr Li O2 129.08(13) 1_545 1_455 n
Sr Li O2 58.81(15) 1_545 2_545 n
Sr Li O2 50.92(13) 1_545 3_655 n
Sr Li O2 121.19(15) 1_545 4_565 n
Sr Li N2 129.08(13) 1_545 1_455 n
Sr Li N2 58.81(15) 1_545 2_545 n
Sr Li N2 50.92(13) 1_545 3_655 n
Sr Li N2 121.19(15) 1_545 4_565 n
Sr Li Sr 70.4632(7) 1_555 2_555 n
Sr Li Sr 70.4632(7) 1_555 2_655 n
Sr Li Sr 180.0 1_555 5_544 n
Sr Li Sr 70.6599(15) 1_555 5_554 n
Sr Li Sr 109.5368(7) 1_555 6_554 n
Sr Li Sr 109.5368(7) 1_555 6_654 n
Sr Li O1 54.6700(7) 1_555 1_555 n
Sr Li O1 125.3300(7) 1_555 5_554 n
Sr Li N1 54.6700(7) 1_555 1_555 n
Sr Li N1 125.3300(7) 1_555 5_554 n
Sr Li O2 50.92(13) 1_555 1_455 n
Sr Li O2 121.19(15) 1_555 2_545 n
Sr Li O2 129.08(13) 1_555 3_655 n
Sr Li O2 58.81(15) 1_555 4_565 n
Sr Li N2 50.92(13) 1_555 1_455 n
Sr Li N2 121.19(15) 1_555 2_545 n
Sr Li N2 129.08(13) 1_555 3_655 n
Sr Li N2 58.81(15) 1_555 4_565 n
Sr Li Sr 109.3401(15) 2_555 2_655 n
Sr Li Sr 109.5368(7) 2_555 5_544 n
Sr Li Sr 109.5368(7) 2_555 5_554 n
Sr Li Sr 70.6599(15) 2_555 6_554 n
Sr Li Sr 180.0 2_555 6_654 n
Sr Li O1 54.6700(7) 2_555 1_555 n
Sr Li O1 125.3300(7) 2_555 5_554 n
Sr Li N1 54.6700(7) 2_555 1_555 n
Sr Li N1 125.3300(7) 2_555 5_554 n
Sr Li O2 58.81(15) 2_555 1_455 n
Sr Li O2 50.92(13) 2_555 2_545 n
Sr Li O2 121.19(15) 2_555 3_655 n
Sr Li O2 129.08(13) 2_555 4_565 n
Sr Li N2 58.81(15) 2_555 1_455 n
Sr Li N2 50.92(13) 2_555 2_545 n
Sr Li N2 121.19(15) 2_555 3_655 n
Sr Li N2 129.08(13) 2_555 4_565 n
Sr Li Sr 109.5368(7) 2_655 5_544 n
Sr Li Sr 109.5368(7) 2_655 5_554 n
Sr Li Sr 180.0 2_655 6_554 n
Sr Li Sr 70.6599(15) 2_655 6_654 n
Sr Li O1 54.6700(7) 2_655 1_555 n
Sr Li O1 125.3300(7) 2_655 5_554 n
Sr Li N1 54.6700(7) 2_655 1_555 n
Sr Li N1 125.3300(7) 2_655 5_554 n
Sr Li O2 121.19(15) 2_655 1_455 n
Sr Li O2 129.08(13) 2_655 2_545 n
Sr Li O2 58.81(15) 2_655 3_655 n
Sr Li O2 50.92(13) 2_655 4_565 n
Sr Li N2 121.19(15) 2_655 1_455 n
Sr Li N2 129.08(13) 2_655 2_545 n
Sr Li N2 58.81(15) 2_655 3_655 n
Sr Li N2 50.92(13) 2_655 4_565 n
Sr Li Sr 109.3401(15) 5_544 5_554 n
Sr Li Sr 70.4632(7) 5_544 6_554 n
Sr Li Sr 70.4632(7) 5_544 6_654 n
Sr Li O1 125.3300(7) 5_544 1_555 n
Sr Li O1 54.6700(7) 5_544 5_554 n
Sr Li N1 125.3300(7) 5_544 1_555 n
Sr Li N1 54.6700(7) 5_544 5_554 n
Sr Li O2 129.08(13) 5_544 1_455 n
Sr Li O2 58.81(15) 5_544 2_545 n
Sr Li O2 50.92(13) 5_544 3_655 n
Sr Li O2 121.19(15) 5_544 4_565 n
Sr Li N2 129.08(13) 5_544 1_455 n
Sr Li N2 58.81(15) 5_544 2_545 n
Sr Li N2 50.92(13) 5_544 3_655 n
Sr Li N2 121.19(15) 5_544 4_565 n
Sr Li Sr 70.4632(7) 5_554 6_554 n
Sr Li Sr 70.4632(7) 5_554 6_654 n
Sr Li O1 125.3300(7) 5_554 1_555 n
Sr Li O1 54.6700(7) 5_554 5_554 n
Sr Li N1 125.3300(7) 5_554 1_555 n
Sr Li N1 54.6700(7) 5_554 5_554 n
Sr Li O2 50.92(13) 5_554 1_455 n
Sr Li O2 121.19(15) 5_554 2_545 n
Sr Li O2 129.08(13) 5_554 3_655 n
Sr Li O2 58.81(15) 5_554 4_565 n
Sr Li N2 50.92(13) 5_554 1_455 n
Sr Li N2 121.19(15) 5_554 2_545 n
Sr Li N2 129.08(13) 5_554 3_655 n
Sr Li N2 58.81(15) 5_554 4_565 n
Sr Li Sr 109.3401(15) 6_554 6_654 n
Sr Li O1 125.3300(7) 6_554 1_555 n
Sr Li O1 54.6700(7) 6_554 5_554 n
Sr Li N1 125.3300(7) 6_554 1_555 n
Sr Li N1 54.6700(7) 6_554 5_554 n
Sr Li O2 58.81(15) 6_554 1_455 n
Sr Li O2 50.92(13) 6_554 2_545 n
Sr Li O2 121.19(15) 6_554 3_655 n
Sr Li O2 129.08(13) 6_554 4_565 n
Sr Li N2 58.81(15) 6_554 1_455 n
Sr Li N2 50.92(13) 6_554 2_545 n
Sr Li N2 121.19(15) 6_554 3_655 n
Sr Li N2 129.08(13) 6_554 4_565 n
Sr Li O1 125.3300(7) 6_654 1_555 n
Sr Li O1 54.6700(7) 6_654 5_554 n
Sr Li N1 125.3300(7) 6_654 1_555 n
Sr Li N1 54.6700(7) 6_654 5_554 n
Sr Li O2 121.19(15) 6_654 1_455 n
Sr Li O2 129.08(13) 6_654 2_545 n
Sr Li O2 58.81(15) 6_654 3_655 n
Sr Li O2 50.92(13) 6_654 4_565 n
Sr Li N2 121.19(15) 6_654 1_455 n
Sr Li N2 129.08(13) 6_654 2_545 n
Sr Li N2 58.81(15) 6_654 3_655 n
Sr Li N2 50.92(13) 6_654 4_565 n
O1 Li O1 180.0 1_555 5_554 n
O1 Li N1 0.0 1_555 1_555 n
O1 Li N1 180.0 1_555 5_554 n
O1 Li O2 90.0 1_555 1_455 n
O1 Li O2 90.0 1_555 2_545 n
O1 Li O2 90.0 1_555 3_655 n
O1 Li O2 90.0 1_555 4_565 n
O1 Li N2 90.0 1_555 1_455 n
O1 Li N2 90.0 1_555 2_545 n
O1 Li N2 90.0 1_555 3_655 n
O1 Li N2 90.0 1_555 4_565 n
O1 Li N1 180.0 5_554 1_555 n
O1 Li N1 0.0 5_554 5_554 n
O1 Li O2 90.0 5_554 1_455 n
O1 Li O2 90.0 5_554 2_545 n
O1 Li O2 90.0 5_554 3_655 n
O1 Li O2 90.0 5_554 4_565 n
O1 Li N2 90.0 5_554 1_455 n
O1 Li N2 90.0 5_554 2_545 n
O1 Li N2 90.0 5_554 3_655 n
O1 Li N2 90.0 5_554 4_565 n
N1 Li N1 180.0 1_555 5_554 n
N1 Li O2 90.0 1_555 1_455 n
N1 Li O2 90.0 1_555 2_545 n
N1 Li O2 90.0 1_555 3_655 n
N1 Li O2 90.0 1_555 4_565 n
N1 Li N2 90.0 1_555 1_455 n
N1 Li N2 90.0 1_555 2_545 n
N1 Li N2 90.0 1_555 3_655 n
N1 Li N2 90.0 1_555 4_565 n
N1 Li O2 90.0 5_554 1_455 n
N1 Li O2 90.0 5_554 2_545 n
N1 Li O2 90.0 5_554 3_655 n
N1 Li O2 90.0 5_554 4_565 n
N1 Li N2 90.0 5_554 1_455 n
N1 Li N2 90.0 5_554 2_545 n
N1 Li N2 90.0 5_554 3_655 n
N1 Li N2 90.0 5_554 4_565 n
O2 Li O2 90.0 1_455 2_545 n
O2 Li O2 180.0 1_455 3_655 n
O2 Li O2 90.0 1_455 4_565 n
O2 Li N2 0.0 1_455 1_455 n
O2 Li N2 90.0 1_455 2_545 n
O2 Li N2 180.0 1_455 3_655 n
O2 Li N2 90.0 1_455 4_565 n
O2 Li O2 90.0 2_545 3_655 n
O2 Li O2 180.0 2_545 4_565 n
O2 Li N2 90.0 2_545 1_455 n
O2 Li N2 0.0 2_545 2_545 n
O2 Li N2 90.0 2_545 3_655 n
O2 Li N2 180.0 2_545 4_565 n
O2 Li O2 90.0 3_655 4_565 n
O2 Li N2 180.0 3_655 1_455 n
O2 Li N2 90.0 3_655 2_545 n
O2 Li N2 0.0 3_655 3_655 n
O2 Li N2 90.0 3_655 4_565 n
O2 Li N2 90.0 4_565 1_455 n
O2 Li N2 180.0 4_565 2_545 n
O2 Li N2 90.0 4_565 3_655 n
O2 Li N2 0.0 4_565 4_565 n
N2 Li N2 90.0 1_455 2_545 n
N2 Li N2 180.0 1_455 3_655 n
N2 Li N2 90.0 1_455 4_565 n
N2 Li N2 90.0 2_545 3_655 n
N2 Li N2 180.0 2_545 4_565 n
N2 Li N2 90.0 3_655 4_565 n
Sr O1 Sr 180.0 1_545 1_555 n
Sr O1 Sr 90.0 1_545 2_555 n
Sr O1 Sr 90.0 1_545 2_655 n
Sr O1 Ta 90.0 1_545 1_555 n
Sr O1 Ta 90.0 1_545 5_555 n
Sr O1 Li 90.0 1_545 1_555 n
Sr O1 Li 90.0 1_545 5_555 n
Sr O1 Sr 90.0 1_555 2_555 n
Sr O1 Sr 90.0 1_555 2_655 n
Sr O1 Ta 90.0 1_555 1_555 n
Sr O1 Ta 90.0 1_555 5_555 n
Sr O1 Li 90.0 1_555 1_555 n
Sr O1 Li 90.0 1_555 5_555 n
Sr O1 Sr 180.0 2_555 2_655 n
Sr O1 Ta 90.0 2_555 1_555 n
Sr O1 Ta 90.0 2_555 5_555 n
Sr O1 Li 90.0 2_555 1_555 n
Sr O1 Li 90.0 2_555 5_555 n
Sr O1 Ta 90.0 2_655 1_555 n
Sr O1 Ta 90.0 2_655 5_555 n
Sr O1 Li 90.0 2_655 1_555 n
Sr O1 Li 90.0 2_655 5_555 n
Ta O1 Ta 180.0 1_555 5_555 n
Ta O1 Li 0.0 1_555 1_555 n
Ta O1 Li 180.0 1_555 5_555 n
Ta O1 Li 180.0 5_555 1_555 n
Ta O1 Li 0.0 5_555 5_555 n
Li O1 Li 180.0 1_555 5_555 n
Sr N1 Sr 180.0 1_545 1_555 n
Sr N1 Sr 90.0 1_545 2_555 n
Sr N1 Sr 90.0 1_545 2_655 n
Sr N1 Ta 90.0 1_545 1_555 n
Sr N1 Ta 90.0 1_545 5_555 n
Sr N1 Li 90.0 1_545 1_555 n
Sr N1 Li 90.0 1_545 5_555 n
Sr N1 Sr 90.0 1_555 2_555 n
Sr N1 Sr 90.0 1_555 2_655 n
Sr N1 Ta 90.0 1_555 1_555 n
Sr N1 Ta 90.0 1_555 5_555 n
Sr N1 Li 90.0 1_555 1_555 n
Sr N1 Li 90.0 1_555 5_555 n
Sr N1 Sr 180.0 2_555 2_655 n
Sr N1 Ta 90.0 2_555 1_555 n
Sr N1 Ta 90.0 2_555 5_555 n
Sr N1 Li 90.0 2_555 1_555 n
Sr N1 Li 90.0 2_555 5_555 n
Sr N1 Ta 90.0 2_655 1_555 n
Sr N1 Ta 90.0 2_655 5_555 n
Sr N1 Li 90.0 2_655 1_555 n
Sr N1 Li 90.0 2_655 5_555 n
Ta N1 Ta 180.0 1_555 5_555 n
Ta N1 Li 0.0 1_555 1_555 n
Ta N1 Li 180.0 1_555 5_555 n
Ta N1 Li 180.0 5_555 1_555 n
Ta N1 Li 0.0 5_555 5_555 n
Li N1 Li 180.0 1_555 5_555 n
Sr O2 Sr 89.586(20) 1_655 2_655 n
Sr O2 Sr 96.04(23) 1_655 5_654 n
Sr O2 Sr 174.38(21) 1_655 6_654 n
Sr O2 Ta 93.74(13) 1_655 1_655 n
Sr O2 Ta 93.74(13) 1_655 105_553 n
Sr O2 Li 93.74(13) 1_655 1_655 n
Sr O2 Li 93.74(13) 1_655 105_553 n
Sr O2 Sr 174.37(21) 2_655 5_654 n
Sr O2 Sr 84.79(19) 2_655 6_654 n
Sr O2 Ta 85.87(16) 2_655 1_655 n
Sr O2 Ta 85.87(16) 2_655 105_553 n
Sr O2 Li 85.87(16) 2_655 1_655 n
Sr O2 Li 85.87(16) 2_655 105_553 n
Sr O2 Sr 89.586(20) 5_654 6_654 n
Sr O2 Ta 93.74(13) 5_654 1_655 n
Sr O2 Ta 93.74(13) 5_654 105_553 n
Sr O2 Li 93.74(13) 5_654 1_655 n
Sr O2 Li 93.74(13) 5_654 105_553 n
Sr O2 Ta 85.87(16) 6_654 1_655 n
Sr O2 Ta 85.87(16) 6_654 105_553 n
Sr O2 Li 85.87(16) 6_654 1_655 n
Sr O2 Li 85.87(16) 6_654 105_553 n
Ta O2 Ta 168.8(4) 1_655 105_553 n
Ta O2 Li 0.0 1_655 1_655 n
Ta O2 Li 168.8(4) 1_655 105_553 n
Ta O2 Li 168.8(4) 105_553 1_655 n
Ta O2 Li 0.0 105_553 105_553 n
Li O2 Li 168.8(4) 1_655 105_553 n
Sr N2 Sr 89.586(20) 1_655 2_655 n
Sr N2 Sr 96.04(23) 1_655 5_654 n
Sr N2 Sr 174.38(21) 1_655 6_654 n
Sr N2 Ta 93.74(13) 1_655 1_655 n
Sr N2 Ta 93.74(13) 1_655 105_553 n
Sr N2 Li 93.74(13) 1_655 1_655 n
Sr N2 Li 93.74(13) 1_655 105_553 n
Sr N2 Sr 174.37(21) 2_655 5_654 n
Sr N2 Sr 84.79(19) 2_655 6_654 n
Sr N2 Ta 85.87(16) 2_655 1_655 n
Sr N2 Ta 85.87(16) 2_655 105_553 n
Sr N2 Li 85.87(16) 2_655 1_655 n
Sr N2 Li 85.87(16) 2_655 105_553 n
Sr N2 Sr 89.586(20) 5_654 6_654 n
Sr N2 Ta 93.74(13) 5_654 1_655 n
Sr N2 Ta 93.74(13) 5_654 105_553 n
Sr N2 Li 93.74(13) 5_654 1_655 n
Sr N2 Li 93.74(13) 5_654 105_553 n
Sr N2 Ta 85.87(16) 6_654 1_655 n
Sr N2 Ta 85.87(16) 6_654 105_553 n
Sr N2 Li 85.87(16) 6_654 1_655 n
Sr N2 Li 85.87(16) 6_654 105_553 n
Ta N2 Ta 168.8(4) 1_655 105_553 n
Ta N2 Li 0.0 1_655 1_655 n
Ta N2 Li 168.8(4) 1_655 105_553 n
Ta N2 Li 168.8(4) 105_553 1_655 n
Ta N2 Li 0.0 105_553 105_553 n
Li N2 Li 168.8(4) 1_655 105_553 n
loop_
_geom_bond_atom_site_label_1
_geom_bond_atom_site_label_2
_geom_bond_distance
_geom_bond_site_symmetry_2
_geom_bond_publ_flag
Sr Sr 4.02369(5) 2_555 n
Sr Sr 4.02369(5) 2_565 n
Sr Sr 4.02369(5) 2_655 n
Sr Sr 4.02369(5) 2_665 n
Sr Sr 4.03346(10) 5_554 n
Sr Sr 4.03346(10) 5_555 n
Sr Ta 3.48744(4) 1_555 n
Sr Ta 3.48744(4) 1_565 n
Sr Ta 3.48744(4) 5_555 n
Sr Ta 3.48744(4) 5_565 n
Sr Ta 3.48744(4) 101_455 n
Sr Ta 3.48744(4) 101_555 n
Sr Ta 3.48744(4) 105_455 n
Sr Ta 3.48744(4) 105_555 n
Sr Li 3.48744(4) 1_555 n
Sr Li 3.48744(4) 1_565 n
Sr Li 3.48744(4) 5_555 n
Sr Li 3.48744(4) 5_565 n
Sr Li 3.48744(4) 101_455 n
Sr Li 3.48744(4) 101_555 n
Sr Li 3.48744(4) 105_455 n
Sr Li 3.48744(4) 105_555 n
Sr O1 2.84518(4) 1_555 n
Sr O1 2.84518(4) 1_565 n
Sr O1 2.84518(4) 105_455 n
Sr O1 2.84518(4) 105_555 n
Sr N1 2.84518(4) 1_555 n
Sr N1 2.84518(4) 1_565 n
Sr N1 2.84518(4) 105_455 n
Sr N1 2.84518(4) 105_555 n
Sr O2 2.713(5) 1_455 n
Sr O2 2.991(5) 2_555 n
Sr O2 2.713(5) 3_665 n
Sr O2 2.991(5) 4_565 n
Sr O2 2.713(5) 5_655 n
Sr O2 2.991(5) 6_565 n
Sr O2 2.713(5) 7_465 n
Sr O2 2.991(5) 8_555 n
Sr N2 2.713(5) 1_455 n
Sr N2 2.991(5) 2_555 n
Sr N2 2.713(5) 3_665 n
Sr N2 2.991(5) 4_565 n
Sr N2 2.713(5) 5_655 n
Sr N2 2.991(5) 6_565 n
Sr N2 2.713(5) 7_465 n
Sr N2 2.991(5) 8_555 n
Ta Sr 3.48744(4) 1_545 n
Ta Sr 3.48744(4) 1_555 n
Ta Sr 3.48744(4) 2_555 n
Ta Sr 3.48744(4) 2_655 n
Ta Sr 3.48744(4) 5_544 n
Ta Sr 3.48744(4) 5_554 n
Ta Sr 3.48744(4) 6_554 n
Ta Sr 3.48744(4) 6_654 n
Ta O1 2.01673(5) 1_555 n
Ta O1 2.01673(5) 5_554 n
Ta N1 2.01673(5) 1_555 n
Ta N1 2.01673(5) 5_554 n
Ta O2 2.0215(7) 1_455 n
Ta O2 2.0215(7) 2_545 n
Ta O2 2.0215(7) 3_655 n
Ta O2 2.0215(7) 4_565 n
Ta N2 2.0215(7) 1_455 n
Ta N2 2.0215(7) 2_545 n
Ta N2 2.0215(7) 3_655 n
Ta N2 2.0215(7) 4_565 n
Li Sr 3.48744(4) 1_545 n
Li Sr 3.48744(4) 1_555 n
Li Sr 3.48744(4) 2_555 n
Li Sr 3.48744(4) 2_655 n
Li Sr 3.48744(4) 5_544 n
Li Sr 3.48744(4) 5_554 n
Li Sr 3.48744(4) 6_554 n
Li Sr 3.48744(4) 6_654 n
Li O1 2.01673(5) 1_555 n
Li O1 2.01673(5) 5_554 n
Li N1 2.01673(5) 1_555 n
Li N1 2.01673(5) 5_554 n
Li O2 2.0215(7) 1_455 n
Li O2 2.0215(7) 2_545 n
Li O2 2.0215(7) 3_655 n
Li O2 2.0215(7) 4_565 n
Li N2 2.0215(7) 1_455 n
Li N2 2.0215(7) 2_545 n
Li N2 2.0215(7) 3_655 n
Li N2 2.0215(7) 4_565 n
O1 Sr 2.84518(4) 1_545 n
O1 Sr 2.84518(4) 1_555 n
O1 Sr 2.84518(4) 2_555 n
O1 Sr 2.84518(4) 2_655 n
O1 Ta 2.01673(5) 1_555 n
O1 Ta 2.01673(5) 5_555 n
O1 Li 2.01673(5) 1_555 n
O1 Li 2.01673(5) 5_555 n
N1 Sr 2.84518(4) 1_545 n
N1 Sr 2.84518(4) 1_555 n
N1 Sr 2.84518(4) 2_555 n
N1 Sr 2.84518(4) 2_655 n
N1 Ta 2.01673(5) 1_555 n
N1 Ta 2.01673(5) 5_555 n
N1 Li 2.01673(5) 1_555 n
N1 Li 2.01673(5) 5_555 n
O2 Sr 2.713(5) 1_655 n
O2 Sr 2.991(5) 2_655 n
O2 Sr 2.713(5) 5_654 n
O2 Sr 2.991(5) 6_654 n
O2 Ta 2.0215(7) 1_655 n
O2 Ta 2.0215(7) 105_555 n
O2 Li 2.0215(7) 1_655 n
O2 Li 2.0215(7) 105_555 n
N2 Sr 2.713(5) 1_655 n
N2 Sr 2.991(5) 2_655 n
N2 Sr 2.713(5) 5_654 n
N2 Sr 2.991(5) 6_654 n
N2 Ta 2.0215(7) 1_655 n
N2 Ta 2.0215(7) 105_555 n
N2 Li 2.0215(7) 1_655 n
N2 Li 2.0215(7) 105_555 n
loop_
_pd_meas_2theta_scan
_pd_proc_2theta_corrected
_pd_meas_counts_total
_pd_proc_ls_weight
_pd_proc_intensity_bkg_calc
_pd_calc_intensity_total
15.0000 14.9152 219.0 0.0 170.42886 .
15.0167 14.9319 243.0 0.00411 170.36700 170.36436
15.0334 14.9486 220.0 0.00455 170.30515 170.30249
15.0502 14.9654 235.0 0.00426 170.24290 170.24026
15.0669 14.9821 216.0 0.00463 170.18105 170.17839
15.0836 14.9988 207.0 0.00483 170.11919 170.11653
15.1003 15.0155 221.0 0.00452 170.05731 170.05467
15.1170 15.0322 234.0 0.00427 169.99545 169.99280
15.1338 15.0490 187.0 0.00535 169.93323 169.93057
15.1505 15.0657 233.0 0.00429 169.87135 169.86870
15.1672 15.0824 193.0 0.00518 169.80949 169.80682
15.1839 15.0991 230.0 0.00435 169.74763 169.74496
15.2006 15.1158 229.0 0.00437 169.68576 169.68311
15.2173 15.1325 197.0 0.00507 169.62390 169.62123
15.2341 15.1493 208.0 0.00481 169.56168 169.55901
15.2508 15.1660 240.0 0.00417 169.49980 169.49713
15.2675 15.1827 223.0 0.00449 169.43794 169.43527
15.2842 15.1994 204.0 0.00490 169.37608 169.37341
15.3009 15.2161 203.0 0.00492 169.31422 169.31154
15.3177 15.2329 228.0 0.00439 169.25198 169.24930
15.3344 15.2496 236.0 0.00424 169.19012 169.18744
15.3511 15.2663 204.0 0.00490 169.12827 169.12558
15.3678 15.2830 223.0 0.00449 169.06639 169.06371
15.3845 15.2997 225.0 0.00444 169.00453 169.00185
15.4013 15.3165 234.0 0.00427 168.94231 168.93961
15.4180 15.3332 226.0 0.00443 168.88043 168.87773
15.4347 15.3499 258.0 0.00388 168.81857 168.81587
15.4514 15.3666 257.0 0.00389 168.75671 168.75401
15.4681 15.3833 243.0 0.00411 168.69485 168.69214
15.4848 15.4000 246.0 0.00407 168.63298 168.63028
15.5016 15.4168 260.0 0.00385 168.57076 168.56804
15.5183 15.4335 238.0 0.00420 168.50888 168.50616
15.5350 15.4502 247.0 0.00405 168.44702 168.44431
15.5517 15.4669 258.0 0.00388 168.38516 168.38245
15.5684 15.4836 250.0 0.00400 168.32330 168.32057
15.5852 15.5004 267.0 0.00375 168.26106 168.25835
15.6019 15.5171 270.0 0.00370 168.19920 168.19649
15.6186 15.5338 246.0 0.00407 168.13734 168.13461
15.6353 15.5505 300.0 0.003334 168.07549 168.07274
15.6520 15.5672 234.0 0.00427 168.01361 168.01088
15.6688 15.5840 277.0 0.00361 167.95139 167.94865
15.6855 15.6007 258.0 0.00388 167.88953 167.88678
15.7022 15.6174 250.0 0.00400 167.82765 167.82491
15.7189 15.6341 266.0 0.00376 167.76579 167.76305
15.7356 15.6508 269.0 0.00372 167.70393 167.70119
15.7523 15.6675 289.0 0.003460 167.64206 167.63931
15.7691 15.6843 261.0 0.00383 167.57983 167.57709
15.7858 15.7010 238.0 0.00420 167.51797 167.51521
15.8025 15.7177 257.0 0.00389 167.45612 167.45335
15.8192 15.7344 210.0 0.00476 167.39424 167.39148
15.8359 15.7511 245.0 0.00408 167.33238 167.32962
15.8527 15.7679 228.0 0.00439 167.27014 167.26738
15.8694 15.7846 202.0 0.00495 167.20830 167.20552
15.8861 15.8013 209.0 0.00478 167.14642 167.14365
15.9028 15.8180 201.0 0.00497 167.08456 167.08179
15.9195 15.8347 173.0 0.00578 167.02269 167.01993
15.9363 15.8515 215.0 0.00465 166.96046 166.95769
15.9530 15.8682 230.0 0.00435 166.89861 166.89581
15.9697 15.8849 200.0 0.00500 166.83673 166.83395
15.9864 15.9016 203.0 0.00492 166.77489 166.77209
16.0031 15.9183 196.0 0.00510 166.71301 166.71022
16.0198 15.9350 225.0 0.00444 166.65115 166.64836
16.0366 15.9518 196.0 0.00510 166.58893 166.58614
16.0533 15.9685 167.0 0.00599 166.52705 166.52425
16.0700 15.9852 160.0 0.00625 166.46519 166.46239
16.0867 16.0019 188.0 0.00532 166.40334 166.40053
16.1034 16.0186 180.0 0.00555 166.34146 166.33865
16.1202 16.0354 175.0 0.00571 166.27922 166.27641
16.1369 16.0521 185.0 0.00541 166.21736 166.21455
16.1536 16.0688 180.0 0.00555 166.15550 166.15269
16.1703 16.0855 172.0 0.00582 166.09364 166.09084
16.1870 16.1022 188.0 0.00532 166.03178 166.02896
16.2038 16.1190 177.0 0.00565 165.96956 165.96674
16.2205 16.1357 170.0 0.00588 165.90768 165.90486
16.2372 16.1524 170.0 0.00588 165.84581 165.84299
16.2539 16.1691 182.0 0.00550 165.78397 165.78113
16.2706 16.1858 190.0 0.00527 165.72209 165.71925
16.2873 16.2025 188.0 0.00532 165.66023 165.65739
16.3041 16.2193 161.0 0.00621 165.59799 165.59517
16.3208 16.2360 159.0 0.00629 165.53613 165.53329
16.3375 16.2527 169.0 0.00592 165.47427 165.47144
16.3542 16.2694 160.0 0.00625 165.41241 165.40958
16.3709 16.2861 177.0 0.00565 165.35054 165.34770
16.3877 16.3029 158.0 0.00633 165.28831 165.28546
16.4044 16.3196 134.0 0.00746 165.22646 165.22360
16.4211 16.3363 165.0 0.00606 165.16458 165.16173
16.4378 16.3530 150.0 0.00666 165.10272 165.09987
16.4545 16.3697 161.0 0.00621 165.04086 165.03801
16.4713 16.3865 178.0 0.00562 164.97864 164.97577
16.4880 16.4032 165.0 0.00606 164.91676 164.91389
16.5047 16.4199 165.0 0.00606 164.85489 164.85204
16.5214 16.4366 154.0 0.00649 164.79305 164.79018
16.5381 16.4533 141.0 0.00710 164.73117 164.72830
16.5548 16.4700 149.0 0.00671 164.66931 164.66643
16.5716 16.4868 142.0 0.00704 164.60707 164.60420
16.5883 16.5035 137.0 0.00731 164.54521 164.54233
16.6050 16.5202 155.0 0.00645 164.48335 164.48047
16.6217 16.5369 168.0 0.00595 164.42149 164.41861
16.6384 16.5536 137.0 0.00731 164.35962 164.35674
16.6552 16.5704 142.0 0.00704 164.29739 164.29449
16.6719 16.5871 156.0 0.00641 164.23553 164.23264
16.6886 16.6038 139.0 0.00719 164.17366 164.17078
16.7053 16.6205 141.0 0.00710 164.11180 164.10892
16.7220 16.6372 160.0 0.00625 164.04994 164.04704
16.7388 16.6540 138.0 0.00724 163.98772 163.98482
16.7555 16.6707 163.0 0.00613 163.92584 163.92294
16.7722 16.6874 160.0 0.00625 163.86397 163.86107
16.7889 16.7041 149.0 0.00671 163.80212 163.79921
16.8056 16.7208 147.0 0.00681 163.74025 163.73734
16.8223 16.7375 138.0 0.00724 163.67839 163.67548
16.8391 16.7543 142.0 0.00704 163.61617 163.61325
16.8558 16.7710 134.0 0.00746 163.55429 163.55138
16.8725 16.7877 137.0 0.00731 163.49243 163.48952
16.8892 16.8044 152.0 0.00658 163.43057 163.42766
16.9059 16.8211 150.0 0.00666 163.36870 163.36578
16.9227 16.8379 160.0 0.00625 163.30647 163.30354
16.9394 16.8546 140.0 0.00715 163.24461 163.24168
16.9561 16.8713 138.0 0.00724 163.18274 163.17981
16.9728 16.8880 165.0 0.00606 163.12088 163.11795
16.9895 16.9047 142.0 0.00704 163.05902 163.05609
17.0063 16.9215 146.0 0.00685 162.99680 162.99385
17.0230 16.9382 135.0 0.00741 162.93492 162.93198
17.0397 16.9549 159.0 0.00629 162.87306 162.87012
17.0564 16.9716 146.0 0.00685 162.81120 162.80826
17.0731 16.9883 157.0 0.00637 162.74933 162.74638
17.0898 17.0050 134.0 0.00746 162.68747 162.68451
17.1066 17.0218 139.0 0.00719 162.62524 162.62228
17.1233 17.0385 133.0 0.00752 162.56337 162.56041
17.1400 17.0552 147.0 0.00681 162.50151 162.49855
17.1567 17.0719 132.0 0.00757 162.43965 162.43669
17.1734 17.0886 137.0 0.00731 162.37778 162.37482
17.1902 17.1054 129.0 0.00775 162.31555 162.31258
17.2069 17.1221 149.0 0.00671 162.25369 162.25072
17.2236 17.1388 134.0 0.00746 162.19183 162.18886
17.2403 17.1555 148.0 0.00675 162.12996 162.12698
17.2570 17.1722 148.0 0.00675 162.06810 162.06512
17.2738 17.1890 149.0 0.00671 162.00587 162.00290
17.2905 17.2057 134.0 0.00746 161.94400 161.94102
17.3072 17.2224 139.0 0.00719 161.88214 161.87915
17.3239 17.2391 140.0 0.00715 161.82028 161.81729
17.3406 17.2558 132.0 0.00757 161.75841 161.75542
17.3573 17.2725 152.0 0.00658 161.69655 161.69356
17.3741 17.2893 154.0 0.00649 161.63432 161.63133
17.3908 17.3060 134.0 0.00746 161.57245 161.56946
17.4075 17.3227 134.0 0.00746 161.51059 161.50760
17.4242 17.3394 136.0 0.00736 161.44873 161.44572
17.4409 17.3561 127.0 0.00787 161.38687 161.38387
17.4577 17.3729 120.0 0.00834 161.32463 161.32162
17.4744 17.3896 122.0 0.00819 161.26277 161.25977
17.4911 17.4063 167.0 0.00599 161.20091 161.19789
17.5078 17.4230 134.0 0.00746 161.13904 161.13603
17.5245 17.4397 166.0 0.00603 161.07718 161.07417
17.5413 17.4565 148.0 0.00675 161.01495 161.01193
17.5580 17.4732 145.0 0.00690 160.95308 160.95006
17.5747 17.4899 134.0 0.00746 160.89122 160.88820
17.5914 17.5066 127.0 0.00787 160.82936 160.82634
17.6081 17.5233 139.0 0.00719 160.76750 160.76447
17.6248 17.5400 132.0 0.00757 160.70563 160.70259
17.6416 17.5568 145.0 0.00690 160.64340 160.64037
17.6583 17.5735 130.0 0.00769 160.58154 160.57849
17.6750 17.5902 130.0 0.00769 160.51968 160.51663
17.6917 17.6069 139.0 0.00719 160.45781 160.45477
17.7084 17.6236 116.0 0.00862 160.39595 160.39290
17.7252 17.6404 142.0 0.00704 160.33371 160.33066
17.7419 17.6571 138.0 0.00724 160.27185 160.26880
17.7586 17.6738 155.0 0.00645 160.20999 160.20694
17.7753 17.6905 152.0 0.00658 160.14812 160.14507
17.7920 17.7072 151.0 0.00662 160.08626 160.08321
17.8088 17.7240 134.0 0.00746 160.02403 160.02097
17.8255 17.7407 137.0 0.00731 159.96217 159.95911
17.8422 17.7574 124.0 0.00806 159.90030 159.89723
17.8589 17.7741 132.0 0.00757 159.83846 159.83537
17.8756 17.7908 142.0 0.00704 159.77658 159.77350
17.8923 17.8075 147.0 0.00681 159.71471 159.71164
17.9091 17.8243 131.0 0.00763 159.65248 159.64941
17.9258 17.8410 153.0 0.00654 159.59062 159.58754
17.9425 17.8577 138.0 0.00724 159.52876 159.52568
17.9592 17.8744 149.0 0.00671 159.46689 159.46381
17.9759 17.8911 164.0 0.00609 159.40503 159.40195
17.9927 17.9079 167.0 0.00599 159.34279 159.33971
18.0094 17.9246 130.0 0.00769 159.28093 159.27785
18.0261 17.9413 160.0 0.00625 159.21907 159.21597
18.0428 17.9580 130.0 0.00769 159.15721 159.15411
18.0595 17.9747 149.0 0.00671 159.09534 159.09224
18.0763 17.9915 127.0 0.00787 159.03311 159.03001
18.0930 18.0082 127.0 0.00787 158.97125 158.96814
18.1097 18.0249 147.0 0.00681 158.90938 158.90628
18.1264 18.0416 160.0 0.00625 158.84753 158.84442
18.1431 18.0583 135.0 0.00741 158.78566 158.78255
18.1598 18.0750 142.0 0.00704 158.72379 158.72067
18.1766 18.0918 126.0 0.00794 158.66156 158.65845
18.1933 18.1085 140.0 0.00715 158.59970 158.59657
18.2100 18.1252 140.0 0.00715 158.53784 158.53471
18.2267 18.1419 139.0 0.00719 158.47597 158.47285
18.2434 18.1586 152.0 0.00658 158.41411 158.41098
18.2602 18.1754 141.0 0.00710 158.35188 158.34874
18.2769 18.1921 148.0 0.00675 158.29002 158.28688
18.2936 18.2088 133.0 0.00752 158.22815 158.22501
18.3103 18.2255 175.0 0.00571 158.16629 158.16315
18.3270 18.2422 160.0 0.00625 158.10442 158.10129
18.3438 18.2590 130.0 0.00769 158.04219 158.03905
18.3605 18.2757 120.0 0.00834 157.98033 157.97719
18.3772 18.2924 156.0 0.00641 157.91846 157.91531
18.3939 18.3091 128.0 0.00782 157.85661 157.85345
18.4106 18.3258 135.0 0.00741 157.79474 157.79158
18.4273 18.3425 133.0 0.00752 157.73288 157.72972
18.4441 18.3593 133.0 0.00752 157.67064 157.66750
18.4608 18.3760 141.0 0.00710 157.60878 157.60562
18.4775 18.3927 139.0 0.00719 157.54692 157.54375
18.4942 18.4094 141.0 0.00710 157.48506 157.48189
18.5109 18.4261 143.0 0.00699 157.42319 157.42003
18.5277 18.4429 145.0 0.00690 157.36096 157.35779
18.5444 18.4596 126.0 0.00794 157.29910 157.29593
18.5611 18.4763 135.0 0.00741 157.23723 157.23405
18.5778 18.4930 122.0 0.00819 157.17537 157.17220
18.5945 18.5097 135.0 0.00741 157.11349 157.11032
18.6112 18.5264 148.0 0.00675 157.05164 157.04846
18.6280 18.5432 128.0 0.00782 156.98941 156.98622
18.6447 18.5599 130.0 0.00769 156.92754 156.92436
18.6614 18.5766 143.0 0.00699 156.86569 156.86249
18.6781 18.5933 133.0 0.00752 156.80382 156.80063
18.6948 18.6100 135.0 0.00741 156.74196 156.73875
18.7116 18.6268 168.0 0.00595 156.67973 156.67653
18.7283 18.6435 117.0 0.00854 156.61786 156.61465
18.7450 18.6602 131.0 0.00763 156.55600 156.55280
18.7617 18.6769 133.0 0.00752 156.49414 156.49094
18.7784 18.6936 132.0 0.00757 156.43227 156.42906
18.7952 18.7104 128.0 0.00782 156.37004 156.36682
18.8119 18.7271 118.0 0.00848 156.30818 156.30496
18.8286 18.7438 140.0 0.00715 156.24631 156.24309
18.8453 18.7605 120.0 0.00834 156.18445 156.18123
18.8620 18.7772 138.0 0.00724 156.12259 156.11937
18.8788 18.7940 135.0 0.00741 156.06036 156.05713
18.8955 18.8107 124.0 0.00806 155.99849 155.99527
18.9122 18.8274 152.0 0.00658 155.93663 155.93340
18.9289 18.8441 135.0 0.00741 155.87477 155.87154
18.9456 18.8608 159.0 0.00629 155.81290 155.80966
18.9623 18.8775 146.0 0.00685 155.75104 155.74780
18.9791 18.8943 153.0 0.00654 155.68881 155.68558
18.9958 18.9110 131.0 0.00763 155.62694 155.62370
19.0125 18.9277 122.0 0.00819 155.56508 155.56183
19.0292 18.9444 162.0 0.00617 155.50322 155.49997
19.0459 18.9611 147.0 0.00681 155.44135 155.43811
19.0627 18.9779 137.0 0.00731 155.37912 155.37587
19.0794 18.9946 148.0 0.00675 155.31726 155.31401
19.0961 19.0113 142.0 0.00704 155.25539 155.25214
19.1128 19.0280 142.0 0.00704 155.19353 155.19028
19.1295 19.0447 133.0 0.00752 155.13167 155.12840
19.1462 19.0614 150.0 0.00666 155.06979 155.06653
19.1630 19.0782 152.0 0.00658 155.00757 155.00430
19.1797 19.0949 140.0 0.00715 154.94571 154.94244
19.1964 19.1116 130.0 0.00769 154.88385 154.88057
19.2131 19.1283 128.0 0.00782 154.82198 154.81871
19.2298 19.1450 120.0 0.00834 154.76012 154.75684
19.2466 19.1618 142.0 0.00704 154.69789 154.69461
19.2633 19.1785 140.0 0.00715 154.63602 154.63274
19.2800 19.1952 148.0 0.00675 154.57416 154.57088
19.2967 19.2119 144.0 0.00694 154.51230 154.50902
19.3134 19.2286 116.0 0.00862 154.45044 154.44714
19.3302 19.2454 152.0 0.00658 154.38820 154.38490
19.3469 19.2621 132.0 0.00757 154.32634 154.32304
19.3636 19.2788 125.0 0.00800 154.26447 154.26117
19.3803 19.2955 117.0 0.00854 154.20261 154.19931
19.3970 19.3122 121.0 0.00826 154.14075 154.13745
19.4138 19.3290 131.0 0.00763 154.07852 154.07521
19.4305 19.3457 137.0 0.00731 154.01665 154.01335
19.4472 19.3624 139.0 0.00719 153.95479 153.95148
19.4639 19.3791 128.0 0.00782 153.89293 153.88962
19.4806 19.3958 150.0 0.00666 153.83107 153.82774
19.4973 19.4125 120.0 0.00834 153.76920 153.76588
19.5141 19.4293 132.0 0.00757 153.70697 153.70366
19.5308 19.4460 142.0 0.00704 153.64511 153.64178
19.5475 19.4627 156.0 0.00641 153.58324 153.57991
19.5642 19.4794 149.0 0.00671 153.52138 153.51805
19.5809 19.4961 138.0 0.00724 153.45952 153.45619
19.5977 19.5129 142.0 0.00704 153.39728 153.39395
19.6144 19.5296 157.0 0.00637 153.33542 153.33209
19.6311 19.5463 130.0 0.00769 153.27354 153.27022
19.6478 19.5630 151.0 0.00662 153.21169 153.20836
19.6645 19.5797 129.0 0.00775 153.14983 153.14648
19.6812 19.5964 138.0 0.00724 153.08797 153.08461
19.6980 19.6132 128.0 0.00782 153.02574 153.02238
19.7147 19.6299 136.0 0.00736 152.96387 152.96053
19.7314 19.6466 137.0 0.00731 152.90201 152.89865
19.7481 19.6633 145.0 0.00690 152.84015 152.83679
19.7648 19.6800 138.0 0.00724 152.77827 152.77492
19.7816 19.6968 137.0 0.00731 152.71605 152.71269
19.7983 19.7135 163.0 0.00613 152.65417 153.97319
19.8150 19.7302 146.0 0.00685 152.59232 153.93082
19.8317 19.7469 141.0 0.00710 152.53046 153.88889
19.8484 19.7636 158.0 0.00633 152.46860 156.43085
19.8652 19.7804 160.0 0.00625 152.40636 156.42781
19.8819 19.7971 161.0 0.00621 152.34450 156.42613
19.8986 19.8138 160.0 0.00625 152.28264 156.42577
19.9153 19.8305 158.0 0.00633 152.22078 156.42685
19.9320 19.8472 128.0 0.00782 152.15891 156.42937
19.9488 19.8640 129.0 0.00775 152.09668 156.43338
19.9655 19.8807 150.0 0.00666 152.03482 156.43892
19.9822 19.8974 139.0 0.00719 151.97295 156.44603
19.9989 19.9141 145.0 0.00690 151.91109 156.45479
20.0156 19.9308 146.0 0.00685 151.84923 156.46523
20.0323 19.9475 130.0 0.00769 151.78735 156.47740
20.0491 19.9643 135.0 0.00741 151.72513 156.49146
20.0658 19.9810 134.0 0.00746 151.66325 156.50728
20.0825 19.9977 150.0 0.00666 151.60139 156.52502
20.0992 20.0144 147.0 0.00681 151.53954 156.54474
20.1159 20.0311 144.0 0.00694 151.47768 156.56651
20.1327 20.0479 148.0 0.00675 151.41545 156.59053
20.1494 20.0646 163.0 0.00613 151.35359 156.61661
20.1661 20.0813 136.0 0.00736 151.29172 156.64494
20.1828 20.0980 152.0 0.00658 151.22986 156.67560
20.1995 20.1147 142.0 0.00704 151.16800 156.70866
20.2162 20.1314 151.0 0.00662 151.10612 156.74425
20.2330 20.1482 176.0 0.00568 151.04390 156.78267
20.2497 20.1649 146.0 0.00685 150.98203 156.82355
20.2664 20.1816 147.0 0.00681 150.92017 156.86717
20.2831 20.1983 164.0 0.00609 150.85831 156.91373
20.2998 20.2150 151.0 0.00662 150.79645 156.96326
20.3166 20.2318 129.0 0.00775 150.73421 157.01619
20.3333 20.2485 170.0 0.00588 150.67235 157.07205
20.3500 20.2652 148.0 0.00675 150.61049 157.13126
20.3667 20.2819 148.0 0.00675 150.54863 157.19391
20.3834 20.2986 163.0 0.00613 150.48676 157.26016
20.4002 20.3154 158.0 0.00633 150.42453 157.33058
20.4169 20.3321 150.0 0.00666 150.36267 157.40448
20.4336 20.3488 149.0 0.00671 150.30080 157.48242
20.4503 20.3655 155.0 0.00645 150.23894 157.56456
20.4670 20.3822 158.0 0.00633 150.17706 157.65108
20.4838 20.3990 154.0 0.00649 150.11484 157.74269
20.5005 20.4157 170.0 0.00588 150.05298 157.83853
20.5172 20.4324 136.0 0.00736 149.99112 157.93925
20.5339 20.4491 155.0 0.00645 149.92924 158.04518
20.5506 20.4658 144.0 0.00694 149.86739 158.15645
20.5673 20.4825 171.0 0.00585 149.80553 158.27330
20.5841 20.4993 165.0 0.00606 149.74329 158.39676
20.6008 20.5160 155.0 0.00645 149.68143 158.52557
20.6175 20.5327 151.0 0.00662 149.61957 158.66077
20.6342 20.5494 172.0 0.00582 149.55769 158.80263
20.6509 20.5661 150.0 0.00666 149.49585 158.95140
20.6677 20.5829 161.0 0.00621 149.43361 159.10844
20.6844 20.5996 154.0 0.00649 149.37175 159.27217
20.7011 20.6163 199.0 0.00502 149.30988 159.44389
20.7178 20.6330 169.0 0.00592 149.24802 159.62395
20.7345 20.6497 178.0 0.00562 149.18616 159.81276
20.7513 20.6665 191.0 0.00524 149.12392 160.01199
20.7680 20.6832 154.0 0.00649 149.06206 160.21968
20.7847 20.6999 153.0 0.00654 149.00021 160.43748
20.8014 20.7166 162.0 0.00617 148.93832 160.66599
20.8181 20.7333 162.0 0.00617 148.87646 160.90564
20.8348 20.7500 177.0 0.00565 148.81461 161.15701
20.8516 20.7668 149.0 0.00671 148.75237 161.42247
20.8683 20.7835 166.0 0.00603 148.69051 161.69936
20.8850 20.8002 167.0 0.00599 148.62865 161.99002
20.9017 20.8169 162.0 0.00617 148.56677 162.29521
20.9184 20.8336 182.0 0.00550 148.50493 162.61565
20.9352 20.8504 176.0 0.00568 148.44269 162.95439
20.9519 20.8671 209.0 0.00478 148.38083 163.30824
20.9686 20.8838 187.0 0.00535 148.31895 163.68024
20.9853 20.9005 178.0 0.00562 148.25710 164.07133
21.0020 20.9172 187.0 0.00535 148.19524 164.48276
21.0188 20.9340 186.0 0.00537 148.13300 164.91843
21.0355 20.9507 170.0 0.00588 148.07114 165.37437
21.0522 20.9674 182.0 0.00550 148.00929 165.85454
21.0689 20.9841 189.0 0.00529 147.94740 166.36073
21.0856 21.0008 182.0 0.00550 147.88554 166.89432
21.1023 21.0175 203.0 0.00492 147.82368 167.45718
21.1191 21.0343 176.0 0.00568 147.76144 168.05507
21.1358 21.0510 193.0 0.00518 147.69958 168.68279
21.1525 21.0677 203.0 0.00492 147.63773 169.34618
21.1692 21.0844 208.0 0.00481 147.57587 170.04788
21.1859 21.1011 174.0 0.00575 147.51401 170.79024
21.2027 21.1179 217.0 0.00461 147.45177 171.58159
21.2194 21.1346 216.0 0.00463 147.38991 172.41537
21.2361 21.1513 197.0 0.00507 147.32803 173.29997
21.2528 21.1680 186.0 0.00537 147.26617 174.23904
21.2695 21.1847 205.0 0.00488 147.20432 175.23694
21.2863 21.2015 188.0 0.00532 147.14207 176.30513
21.3030 21.2182 200.0 0.00500 147.08022 177.43573
21.3197 21.2349 229.0 0.00437 147.01837 178.64061
21.3364 21.2516 205.0 0.00488 146.95648 179.92682
21.3531 21.2683 190.0 0.00527 146.89464 181.30043
21.3698 21.2850 206.0 0.00486 146.83276 182.76955
21.3866 21.3018 232.0 0.00431 146.77052 184.35284
21.4033 21.3185 201.0 0.00497 146.70866 186.04068
21.4200 21.3352 198.0 0.00505 146.64680 187.85316
21.4367 21.3519 238.0 0.00420 146.58495 189.80266
21.4534 21.3686 220.0 0.00455 146.52309 191.90187
21.4702 21.3854 224.0 0.00446 146.46085 194.18141
21.4869 21.4021 229.0 0.00437 146.39897 196.63092
21.5036 21.4188 240.0 0.00417 146.33711 199.28268
21.5203 21.4355 244.0 0.00410 146.27525 202.15933
21.5370 21.4522 253.0 0.00395 146.21339 205.28624
21.5538 21.4690 240.0 0.00417 146.15115 208.71437
21.5705 21.4857 212.0 0.00472 146.08929 212.43544
21.5872 21.5024 271.0 0.00369 146.02745 216.50746
21.6039 21.5191 265.0 0.00377 145.96558 220.97757
21.6206 21.5358 260.0 0.00385 145.90372 225.89453
21.6373 21.5525 272.0 0.00368 145.84184 231.32016
21.6541 21.5693 294.0 0.003400 145.77960 237.36444
21.6708 21.5860 281.0 0.00356 145.71774 244.03810
21.6875 21.6027 305.0 0.003280 145.65588 251.47624
21.7042 21.6194 323.0 0.003097 145.59402 259.80060
21.7209 21.6361 328.0 0.003049 145.53217 269.15482
21.7377 21.6529 305.0 0.003280 145.46992 279.79813
21.7544 21.6696 353.0 0.002832 145.40807 291.84842
21.7711 21.6863 355.0 0.002817 145.34621 305.70926
21.7878 21.7030 354.0 0.002826 145.28435 321.90393
21.8045 21.7197 420.0 0.002382 145.22249 341.26880
21.8213 21.7365 436.0 0.002294 145.16025 365.36221
21.8380 21.7532 530.0 0.001887 145.09837 396.24890
21.8547 21.7699 532.0 0.001879 145.03653 437.94345
21.8714 21.7866 651.0 0.001537 144.97466 496.69855
21.8881 21.8033 746.0 0.001341 144.91280 581.95001
21.9048 21.8200 916.0 0.001091 144.85092 707.29816
21.9216 21.8368 1125.0 0.000889 144.78868 892.24457
21.9383 21.8535 1390.0 0.000720 144.72682 1156.94141
21.9550 21.8702 1683.0 0.000594 144.66496 1526.94116
21.9717 21.8869 2199.0 0.000455 144.60310 2025.73389
21.9884 21.9036 2630.0 0.000380 144.54126 2670.00024
22.0052 21.9204 3420.0 0.0002924 144.47902 3469.19116
22.0219 21.9371 4113.0 0.0002432 144.41714 4397.28027
22.0386 21.9538 5035.0 0.0001986 144.35529 5416.01514
22.0553 21.9705 5966.0 0.0001676 144.29343 6454.72168
22.0720 21.9872 6846.0 0.0001461 144.23157 7418.96484
22.0888 22.0040 7343.0 0.0001362 144.16933 8207.81738
22.1055 22.0207 7638.0 0.0001309 144.10745 8714.51758
22.1222 22.0374 7789.0 0.0001284 144.04561 8875.78027
22.1389 22.0541 7724.0 0.0001295 143.98373 8664.28613
22.1556 22.0708 6979.0 0.0001433 143.92186 8101.85156
22.1723 22.0875 6223.0 0.0001607 143.86002 7261.16846
22.1891 22.1043 5326.0 0.0001878 143.79778 6245.69580
22.2058 22.1210 4358.0 0.0002294 143.73592 5185.07227
22.2225 22.1377 3410.0 0.0002932 143.67406 4169.53711
22.2392 22.1544 2579.0 0.000388 143.61218 3263.51489
22.2559 22.1711 2039.0 0.000490 143.55034 2501.40552
22.2727 22.1879 1496.0 0.000668 143.48810 1888.69751
22.2894 22.2046 1173.0 0.000852 143.42622 1423.98462
22.3061 22.2213 898.0 0.001113 143.36436 1083.26074
22.3228 22.2380 697.0 0.001435 143.30251 841.76947
22.3395 22.2547 642.0 0.001557 143.24063 674.89404
22.3563 22.2715 525.0 0.001905 143.17841 560.54761
22.3730 22.2882 461.0 0.002169 143.11653 483.01215
22.3897 22.3049 453.0 0.002208 143.05469 429.02344
22.4064 22.3216 376.0 0.002660 142.99281 390.06903
22.4231 22.3383 380.0 0.002633 142.93095 360.70270
22.4398 22.3550 328.0 0.003049 142.86909 337.53073
22.4566 22.3718 332.0 0.003012 142.80685 318.41833
22.4733 22.3885 272.0 0.00368 142.74500 302.38574
22.4900 22.4052 321.0 0.003114 142.68314 288.57245
22.5067 22.4219 278.0 0.00360 142.62126 276.50934
22.5234 22.4386 283.0 0.00353 142.55940 265.88266
22.5402 22.4554 271.0 0.00369 142.49718 256.40024
22.5569 22.4721 284.0 0.00352 142.43530 247.99794
22.5736 22.4888 287.0 0.003485 142.37344 240.47304
22.5903 22.5055 264.0 0.00379 142.31158 233.70601
22.6070 22.5222 265.0 0.00377 142.24973 227.59818
22.6238 22.5390 278.0 0.00360 142.18748 222.03423
22.6405 22.5557 245.0 0.00408 142.12563 217.01128
22.6572 22.5724 283.0 0.00353 142.06377 212.43434
22.6739 22.5891 295.0 0.003388 142.00189 208.24948
22.6906 22.6058 311.0 0.003214 141.94003 204.41562
22.7073 22.6225 295.0 0.003388 141.87817 200.89323
22.7241 22.6393 273.0 0.00366 141.81593 197.63000
22.7408 22.6560 256.0 0.00391 141.75407 194.63670
22.7575 22.6727 270.0 0.00370 141.69221 191.86739
22.7742 22.6894 257.0 0.00389 141.63034 189.29951
22.7909 22.7061 292.0 0.003424 141.56848 186.91472
22.8077 22.7229 292.0 0.003424 141.50626 184.68152
22.8244 22.7396 271.0 0.00369 141.44438 182.61198
22.8411 22.7563 261.0 0.0 141.38252 .
22.8578 22.7730 242.0 0.0 141.32066 .
22.8745 22.7897 242.0 0.0 141.25880 .
22.8913 22.8065 239.0 0.0 141.19656 .
22.9080 22.8232 266.0 0.0 141.13470 .
22.9247 22.8399 234.0 0.0 141.07285 .
22.9414 22.8566 220.0 0.0 141.01097 .
22.9581 22.8733 223.0 0.0 140.94911 .
22.9748 22.8900 198.0 0.0 140.88725 .
22.9916 22.9068 225.0 0.0 140.82501 .
23.0083 22.9235 206.0 0.0 140.76315 .
23.0250 22.9402 207.0 0.0 140.70129 .
23.0417 22.9569 178.0 0.0 140.63942 .
23.0584 22.9736 178.0 0.0 140.57758 .
23.0752 22.9904 214.0 0.0 140.51534 .
23.0919 23.0071 216.0 0.0 140.45346 .
23.1086 23.0238 229.0 0.0 140.39160 .
23.1253 23.0405 206.0 0.0 140.32974 .
23.1420 23.0572 218.0 0.0 140.26788 .
23.1588 23.0740 219.0 0.0 140.20564 .
23.1755 23.0907 202.0 0.0 140.14378 .
23.1922 23.1074 219.0 0.0 140.08192 .
23.2089 23.1241 215.0 0.0 140.02007 .
23.2256 23.1408 222.0 0.0 139.95819 .
23.2423 23.1575 216.0 0.0 139.89633 .
23.2591 23.1743 245.0 0.0 139.83409 .
23.2758 23.1910 234.0 0.0 139.77223 .
23.2925 23.2077 243.0 0.0 139.71037 .
23.3092 23.2244 258.0 0.0 139.64850 .
23.3259 23.2411 278.0 0.0 139.58665 .
23.3427 23.2579 262.0 0.0 139.52441 .
23.3594 23.2746 346.0 0.0 139.46254 .
23.3761 23.2913 356.0 0.0 139.40068 .
23.3928 23.3080 461.0 0.0 139.33882 .
23.4095 23.3247 485.0 0.0 139.27696 .
23.4263 23.3415 628.0 0.0 139.21472 .
23.4430 23.3582 650.0 0.0 139.15286 .
23.4597 23.3749 722.0 0.0 139.09102 .
23.4764 23.3916 848.0 0.0 139.02913 .
23.4931 23.4083 852.0 0.0 138.96727 .
23.5098 23.4250 857.0 0.0 138.90541 .
23.5266 23.4418 864.0 0.0 138.84317 .
23.5433 23.4585 819.0 0.0 138.78131 .
23.5600 23.4752 775.0 0.0 138.71945 .
23.5767 23.4919 651.0 0.0 138.65758 .
23.5934 23.5086 629.0 0.0 138.59573 .
23.6102 23.5254 510.0 0.0 138.53349 .
23.6269 23.5421 420.0 0.0 138.47163 .
23.6436 23.5588 437.0 0.0 138.40977 .
23.6603 23.5755 354.0 0.0 138.34790 .
23.6770 23.5922 287.0 0.0 138.28604 .
23.6938 23.6090 282.0 0.0 138.22380 .
23.7105 23.6257 286.0 0.0 138.16194 .
23.7272 23.6424 241.0 0.0 138.10010 .
23.7439 23.6591 233.0 0.0 138.03821 .
23.7606 23.6758 259.0 0.0 137.97635 .
23.7773 23.6925 242.0 0.0 137.91449 .
23.7941 23.7093 229.0 0.0 137.85225 .
23.8108 23.7260 209.0 0.00478 137.79039 144.96971
23.8275 23.7427 202.0 0.00495 137.72853 144.76811
23.8442 23.7594 203.0 0.00492 137.66667 144.57050
23.8609 23.7761 230.0 0.00435 137.60481 144.37686
23.8777 23.7929 213.0 0.00470 137.54257 144.18575
23.8944 23.8096 194.0 0.00515 137.48071 143.99939
23.9111 23.8263 164.0 0.00609 137.41885 143.81653
23.9278 23.8430 203.0 0.00492 137.35698 143.63698
23.9445 23.8597 177.0 0.00565 137.29512 143.46065
23.9613 23.8765 172.0 0.00582 137.23288 143.28638
23.9780 23.8932 171.0 0.00585 137.17102 143.11617
23.9947 23.9099 177.0 0.00565 137.10918 142.94884
24.0114 23.9266 180.0 0.00555 137.04729 142.78424
24.0281 23.9433 169.0 0.00592 136.99545 142.63239
24.0448 23.9600 157.0 0.00637 136.94611 142.48561
24.0616 23.9768 149.0 0.00671 136.89645 142.34048
24.0783 23.9935 155.0 0.00645 136.84709 142.19864
24.0950 24.0102 147.0 0.00681 136.79774 142.05914
24.1117 24.0269 150.0 0.00666 136.74838 141.92188
24.1284 24.0436 150.0 0.00666 136.69904 141.78683
24.1452 24.0604 141.0 0.00710 136.64938 141.65308
24.1619 24.0771 160.0 0.00625 136.60002 141.52216
24.1786 24.0938 158.0 0.00633 136.55066 141.39325
24.1953 24.1105 148.0 0.00675 136.50131 141.26622
24.2120 24.1272 162.0 0.00617 136.45195 141.14108
24.2288 24.1440 133.0 0.00752 136.40230 141.01695
24.2455 24.1607 134.0 0.00746 136.35295 140.89532
24.2622 24.1774 160.0 0.00625 136.30360 140.77541
24.2789 24.1941 162.0 0.00617 136.25423 140.65710
24.2956 24.2108 127.0 0.00787 136.20488 140.54036
24.3123 24.2275 161.0 0.00621 136.15553 140.42517
24.3291 24.2443 141.0 0.00710 136.10587 140.31078
24.3458 24.2610 152.0 0.00658 136.05652 140.19852
24.3625 24.2777 133.0 0.00752 136.00717 140.08768
24.3792 24.2944 142.0 0.00704 135.95781 138.66165
24.3959 24.3111 143.0 0.00699 135.90846 138.57243
24.4127 24.3279 165.0 0.00606 135.85880 138.48355
24.4294 24.3446 125.0 0.00800 135.80945 135.80574
24.4461 24.3613 135.0 0.00741 135.76009 135.75639
24.4628 24.3780 158.0 0.00633 135.71074 135.70705
24.4795 24.3947 148.0 0.00675 135.66138 135.65771
24.4963 24.4115 132.0 0.00757 135.61172 135.60806
24.5130 24.4282 147.0 0.00681 135.56238 135.55873
24.5297 24.4449 156.0 0.00641 135.51303 135.50938
24.5464 24.4616 162.0 0.00617 135.46365 135.46004
24.5631 24.4783 137.0 0.00731 135.41431 135.41069
24.5798 24.4950 128.0 0.00782 135.36494 135.36136
24.5966 24.5118 151.0 0.00662 135.31529 135.31171
24.6133 24.5285 138.0 0.00724 135.26595 135.26236
24.6300 24.5452 138.0 0.00724 135.21658 135.21303
24.6467 24.5619 139.0 0.00719 135.16722 135.16368
24.6634 24.5786 132.0 0.00757 135.11787 135.11433
24.6802 24.5954 137.0 0.00731 135.06822 135.06470
24.6969 24.6121 120.0 0.00834 135.01886 135.01535
24.7136 24.6288 132.0 0.00757 134.96951 134.96600
24.7303 24.6455 161.0 0.00621 134.92015 134.91666
24.7470 24.6622 137.0 0.00731 134.87080 134.86732
24.7638 24.6790 144.0 0.00694 134.82115 134.81767
24.7805 24.6957 153.0 0.00654 134.77179 134.76834
24.7972 24.7124 132.0 0.00757 134.72244 134.71901
24.8139 24.7291 152.0 0.00658 134.67308 134.66965
24.8306 24.7458 138.0 0.00724 134.62373 134.62030
24.8473 24.7625 128.0 0.00782 134.57437 134.57097
24.8641 24.7793 151.0 0.00662 134.52472 134.52132
24.8808 24.7960 156.0 0.00641 134.47537 134.47198
24.8975 24.8127 128.0 0.00782 134.42601 134.42264
24.9142 24.8294 147.0 0.00681 134.37665 134.37329
24.9309 24.8461 138.0 0.00724 134.32730 134.32396
24.9477 24.8629 150.0 0.00666 134.27765 134.27431
24.9644 24.8796 123.0 0.00813 134.22829 134.22496
24.9811 24.8963 150.0 0.00666 134.17892 134.17561
24.9978 24.9130 146.0 0.00685 134.12959 134.12628
25.0145 24.9297 139.0 0.00719 134.08022 134.07693
25.0313 24.9465 137.0 0.00731 134.03056 134.02728
25.0480 24.9632 144.0 0.00694 133.98122 133.97795
25.0647 24.9799 152.0 0.00658 133.93187 133.92862
25.0814 24.9966 131.0 0.00763 133.88251 133.87926
25.0981 25.0133 141.0 0.00710 133.83315 133.82991
25.1148 25.0300 115.0 0.00870 133.78380 133.78058
25.1316 25.0468 159.0 0.00629 133.73415 133.73093
25.1483 25.0635 138.0 0.00724 133.68478 133.68159
25.1650 25.0802 159.0 0.00629 133.63544 133.63225
25.1817 25.0969 146.0 0.00685 133.58607 133.58290
25.1984 25.1136 129.0 0.00775 133.53673 133.53357
25.2152 25.1304 138.0 0.00724 133.48708 133.48392
25.2319 25.1471 145.0 0.00690 133.43771 133.43457
25.2486 25.1638 135.0 0.00741 133.38835 133.38522
25.2653 25.1805 147.0 0.00681 133.33900 133.33589
25.2820 25.1972 141.0 0.00710 133.28964 133.28654
25.2988 25.2140 153.0 0.00654 133.23999 133.23691
25.3155 25.2307 144.0 0.00694 133.19064 133.18756
25.3322 25.2474 155.0 0.00645 133.14130 133.13823
25.3489 25.2641 143.0 0.00699 133.09192 133.08887
25.3656 25.2808 154.0 0.00649 133.04257 133.03954
25.3823 25.2975 136.0 0.00736 132.99323 132.99019
25.3991 25.3143 151.0 0.00662 132.94356 132.94054
25.4158 25.3310 134.0 0.00746 132.89421 132.89120
25.4325 25.3477 146.0 0.00685 132.84485 132.84186
25.4492 25.3644 127.0 0.00787 132.79550 132.79251
25.4659 25.3811 131.0 0.00763 132.74615 132.74318
25.4827 25.3979 136.0 0.00736 132.69649 132.69353
25.4994 25.4146 152.0 0.00658 132.64714 132.64418
25.5161 25.4313 142.0 0.00704 132.59778 132.59483
25.5328 25.4480 136.0 0.00736 132.54843 132.54550
25.5495 25.4647 149.0 0.00671 132.49907 132.49615
25.5663 25.4815 154.0 0.00649 132.44942 132.44652
25.5830 25.4982 133.0 0.00752 132.40007 132.39717
25.5997 25.5149 120.0 0.00834 132.35072 132.34784
25.6164 25.5316 130.0 0.00769 132.30135 132.29848
25.6331 25.5483 136.0 0.00736 132.25200 132.24915
25.6498 25.5650 132.0 0.00757 132.20264 132.19980
25.6666 25.5818 141.0 0.00710 132.15298 132.15016
25.6833 25.5985 132.0 0.00757 132.10364 132.10081
25.7000 25.6152 139.0 0.00719 132.05428 132.05147
25.7167 25.6319 127.0 0.00787 132.00491 132.00212
25.7334 25.6486 126.0 0.00794 131.95557 131.95279
25.7502 25.6654 121.0 0.00826 131.90591 131.90314
25.7669 25.6821 135.0 0.00741 131.85655 131.85379
25.7836 25.6988 125.0 0.00800 131.80721 131.80446
25.8003 25.7155 136.0 0.00736 131.75784 131.75511
25.8170 25.7322 155.0 0.00645 131.70850 131.70576
25.8338 25.7490 147.0 0.00681 131.65884 131.65613
25.8505 25.7657 130.0 0.00769 131.60948 131.60678
25.8672 25.7824 130.0 0.00769 131.56013 131.55745
25.8839 25.7991 135.0 0.00741 131.51077 131.50809
25.9006 25.8158 147.0 0.00681 131.46143 131.45876
25.9173 25.8325 154.0 0.00649 131.41206 131.40941
25.9341 25.8493 121.0 0.00826 131.36241 131.35977
25.9508 25.8660 127.0 0.00787 131.31306 131.31042
25.9675 25.8827 143.0 0.00699 131.26370 131.26108
25.9842 25.8994 116.0 0.00862 131.21434 131.21173
26.0009 25.9161 152.0 0.00658 131.16499 131.16240
26.0177 25.9329 146.0 0.00685 131.11534 131.11276
26.0344 25.9496 133.0 0.00752 131.06598 131.06342
26.0511 25.9663 141.0 0.00710 131.01662 131.01407
26.0678 25.9830 126.0 0.00794 130.96727 130.96472
26.0845 25.9997 115.0 0.00870 130.91791 130.91537
26.1013 26.0165 148.0 0.00675 130.86826 130.86574
26.1180 26.0332 134.0 0.00746 130.81891 130.81639
26.1347 26.0499 100.0 0.01000 130.76956 130.76706
26.1514 26.0666 96.0 0.01042 130.72020 130.71771
26.1681 26.0833 119.0 0.00840 130.67084 130.66837
26.1848 26.1000 126.0 0.00794 130.62149 130.61902
26.2016 26.1168 121.0 0.00826 130.57184 130.56938
26.2183 26.1335 120.0 0.00834 130.52248 130.52003
26.2350 26.1502 119.0 0.00840 130.47313 130.47069
26.2517 26.1669 124.0 0.00806 130.42377 130.42134
26.2684 26.1836 122.0 0.00819 130.37442 130.37201
26.2852 26.2004 119.0 0.00840 130.32477 130.32237
26.3019 26.2171 124.0 0.00806 130.27541 130.27301
26.3186 26.2338 114.0 0.00877 130.22604 130.22368
26.3353 26.2505 139.0 0.00719 130.17670 130.17433
26.3520 26.2672 131.0 0.00763 130.12733 130.12500
26.3688 26.2840 130.0 0.00769 130.07768 130.07535
26.3855 26.3007 133.0 0.00752 130.02834 130.02602
26.4022 26.3174 141.0 0.00710 129.97899 129.97667
26.4189 26.3341 124.0 0.00806 129.92961 129.92732
26.4356 26.3508 108.0 0.00926 129.88026 129.87798
26.4523 26.3675 122.0 0.00819 129.83092 129.82864
26.4691 26.3843 105.0 0.00952 129.78125 129.77899
26.4858 26.4010 131.0 0.00763 129.73190 129.72964
26.5025 26.4177 119.0 0.00840 129.68254 129.68031
26.5192 26.4344 123.0 0.00813 129.63319 129.63097
26.5359 26.4511 116.0 0.00862 129.58385 129.58162
26.5527 26.4679 127.0 0.00787 129.53418 129.53198
26.5694 26.4846 117.0 0.00854 129.48482 129.48264
26.5861 26.5013 113.0 0.00885 129.43547 129.43329
26.6028 26.5180 128.0 0.00782 129.38612 129.38396
26.6195 26.5347 141.0 0.00710 129.33676 129.33459
26.6363 26.5515 117.0 0.00854 129.28711 129.28496
26.6530 26.5682 138.0 0.00724 129.23776 129.23563
26.6697 26.5849 141.0 0.00710 129.18842 129.18629
26.6864 26.6016 123.0 0.00813 129.13904 129.13693
26.7031 26.6183 122.0 0.00819 129.08969 129.08759
26.7198 26.6350 125.0 0.00800 129.04033 129.03825
26.7366 26.6518 118.0 0.00848 128.99068 128.98860
26.7533 26.6685 120.0 0.00834 128.94131 128.93925
26.7700 26.6852 101.0 0.00990 128.89197 128.88992
26.7867 26.7019 115.0 0.00870 128.84261 128.84058
26.8034 26.7186 131.0 0.00763 128.79326 128.79123
26.8202 26.7354 123.0 0.00813 128.74361 128.74159
26.8369 26.7521 125.0 0.00800 128.69424 128.69225
26.8536 26.7688 111.0 0.00900 128.64490 128.64290
26.8703 26.7855 127.0 0.00787 128.59554 128.59357
26.8870 26.8022 128.0 0.00782 128.54619 128.54422
26.9038 26.8190 142.0 0.00704 128.49654 128.49457
26.9205 26.8357 124.0 0.00806 128.44717 128.44524
26.9372 26.8524 118.0 0.00848 128.39783 128.39590
26.9539 26.8691 137.0 0.00731 128.34846 128.34654
26.9706 26.8858 119.0 0.00840 128.29912 128.29720
26.9873 26.9025 132.0 0.00757 128.24976 128.24786
27.0041 26.9193 129.0 0.00775 128.20010 128.19821
27.0208 26.9360 115.0 0.00870 128.15074 128.14886
27.0375 26.9527 113.0 0.00885 128.10139 128.09953
27.0542 26.9694 137.0 0.00731 128.05203 128.05019
27.0709 26.9861 133.0 0.00752 128.00269 128.00085
27.0877 27.0029 111.0 0.00900 127.95303 127.95120
27.1044 27.0196 126.0 0.00794 127.90367 127.90186
27.1211 27.0363 113.0 0.00885 127.85432 127.85251
27.1378 27.0530 113.0 0.00885 127.80497 127.80318
27.1545 27.0697 119.0 0.00840 127.75560 127.75382
27.1713 27.0865 124.0 0.00806 127.70596 127.70419
27.1880 27.1032 125.0 0.00800 127.65660 127.65485
27.2047 27.1199 126.0 0.00794 127.60725 127.60551
27.2214 27.1366 116.0 0.00862 127.55788 127.55615
27.2381 27.1533 131.0 0.00763 127.50854 127.50681
27.2548 27.1700 133.0 0.00752 127.45918 127.45747
27.2716 27.1868 147.0 0.00681 127.40952 127.40783
27.2883 27.2035 129.0 0.00775 127.36017 127.35848
27.3050 27.2202 115.0 0.00870 127.31081 127.30914
27.3217 27.2369 136.0 0.00736 127.26146 127.25980
27.3384 27.2536 116.0 0.00862 127.21211 127.21046
27.3552 27.2704 137.0 0.00731 127.16245 127.16082
27.3719 27.2871 125.0 0.00800 127.11309 127.11147
27.3886 27.3038 126.0 0.00794 127.06374 127.06213
27.4053 27.3205 119.0 0.00840 127.01439 127.01279
27.4220 27.3372 111.0 0.00900 126.96503 126.96344
27.4388 27.3540 126.0 0.00794 126.91537 126.91380
27.4555 27.3707 132.0 0.00757 126.86603 126.86446
27.4722 27.3874 118.0 0.00848 126.81668 126.81512
27.4889 27.4041 114.0 0.00877 126.76731 126.76576
27.5056 27.4208 129.0 0.00775 126.71796 126.71642
27.5223 27.4375 135.0 0.00741 126.66860 126.66708
27.5391 27.4543 116.0 0.00862 126.61895 126.61744
27.5558 27.4710 113.0 0.00885 126.56959 126.56809
27.5725 27.4877 118.0 0.00848 126.52024 126.51875
27.5892 27.5044 120.0 0.00834 126.47088 126.46941
27.6059 27.5211 119.0 0.00840 126.42153 126.42007
27.6227 27.5379 112.0 0.00893 126.37188 126.37043
27.6394 27.5546 128.0 0.00782 126.32252 126.32108
27.6561 27.5713 118.0 0.00848 126.27316 126.27174
27.6728 27.5880 141.0 0.00710 126.22382 126.22240
27.6895 27.6047 116.0 0.00862 126.17445 126.17304
27.7063 27.6215 119.0 0.00840 126.12480 126.12341
27.7230 27.6382 122.0 0.00819 126.07545 126.07407
27.7397 27.6549 115.0 0.00870 126.02610 126.02473
27.7564 27.6716 134.0 0.00746 125.97673 125.97538
27.7731 27.6883 127.0 0.00787 125.92738 125.92604
27.7898 27.7050 131.0 0.00763 125.87802 125.87669
27.8066 27.7218 112.0 0.00893 125.82837 125.82705
27.8233 27.7385 137.0 0.00731 125.77901 125.77771
27.8400 27.7552 109.0 0.00917 125.72966 125.72836
27.8567 27.7719 145.0 0.00690 125.68031 125.67902
27.8734 27.7886 129.0 0.00775 125.63096 125.62968
27.8902 27.8054 133.0 0.00752 125.58130 125.58004
27.9069 27.8221 130.0 0.00769 125.53194 125.53069
27.9236 27.8388 109.0 0.00917 125.48258 125.48135
27.9403 27.8555 121.0 0.00826 125.43324 125.43201
27.9570 27.8722 139.0 0.00719 125.38388 125.38267
27.9738 27.8890 124.0 0.00806 125.33422 125.33302
27.9905 27.9057 91.0 0.01099 125.28487 125.28368
28.0072 27.9224 136.0 0.00736 125.23553 125.23434
28.0239 27.9391 108.0 0.00926 125.18616 125.18499
28.0406 27.9558 116.0 0.00862 125.13680 125.13565
28.0573 27.9725 114.0 0.00877 125.08745 125.08630
28.0741 27.9893 115.0 0.00870 125.03779 125.03666
28.0908 28.0060 125.0 0.00800 124.98844 124.98732
28.1075 28.0227 105.0 0.00952 124.93909 124.93798
28.1242 28.0394 116.0 0.00862 124.88972 124.88863
28.1409 28.0561 125.0 0.00800 124.84038 124.83929
28.1577 28.0729 105.0 0.00952 124.79073 124.78965
28.1744 28.0896 132.0 0.00757 124.74136 124.74030
28.1911 28.1063 128.0 0.00782 124.69201 124.69096
28.2078 28.1230 121.0 0.00826 124.64266 124.64162
28.2245 28.1397 118.0 0.00848 124.59329 124.59227
28.2413 28.1565 137.0 0.00731 124.54365 124.54263
28.2580 28.1732 105.0 0.00952 124.49429 124.49329
28.2747 28.1899 125.0 0.00800 124.44495 124.44396
28.2914 28.2066 130.0 0.00769 124.39558 124.39460
28.3081 28.2233 157.0 0.00637 124.34623 124.34526
28.3248 28.2400 110.0 0.00909 124.29687 124.29591
28.3416 28.2568 111.0 0.00900 124.24722 124.24627
28.3583 28.2735 136.0 0.00736 124.19786 124.19693
28.3750 28.2902 124.0 0.00806 124.14851 124.14759
28.3917 28.3069 130.0 0.00769 124.09915 124.09824
28.4084 28.3236 122.0 0.00819 124.04980 124.04891
28.4252 28.3404 121.0 0.00826 124.00014 123.99927
28.4419 28.3571 125.0 0.00800 123.95078 123.94991
28.4586 28.3738 129.0 0.00775 123.90144 123.90057
28.4753 28.3905 131.0 0.00763 123.85208 131.11392
28.4920 28.4072 128.0 0.00782 123.80273 131.14578
28.5088 28.4240 127.0 0.00787 123.75307 131.17923
28.5255 28.4407 131.0 0.00763 123.70371 131.21385
28.5422 28.4574 129.0 0.00775 123.65437 131.24991
28.5589 28.4741 138.0 0.00724 123.60500 131.28746
28.5756 28.4908 129.0 0.00775 123.55565 131.32649
28.5923 28.5075 111.0 0.00900 123.50629 131.36705
28.6091 28.5243 123.0 0.00813 123.45663 131.40945
28.6258 28.5410 131.0 0.00763 123.40729 131.45319
28.6425 28.5577 129.0 0.00775 123.35793 131.49858
28.6592 28.5744 115.0 0.00870 123.30857 131.54567
28.6759 28.5911 130.0 0.00769 123.25923 131.59445
28.6927 28.6079 132.0 0.00757 123.20957 131.64532
28.7094 28.6246 121.0 0.00826 123.16021 131.69771
28.7261 28.6413 149.0 0.00671 123.11086 131.75194
28.7428 28.6580 134.0 0.00746 123.06151 131.80804
28.7595 28.6747 146.0 0.00685 123.01214 131.86612
28.7763 28.6915 116.0 0.00862 122.96249 131.92654
28.7930 28.7082 142.0 0.00704 122.91314 131.98865
28.8097 28.7249 143.0 0.00699 122.86379 132.05283
28.8264 28.7416 134.0 0.00746 122.81443 132.11919
28.8431 28.7583 110.0 0.00909 122.76507 132.18771
28.8598 28.7750 139.0 0.00719 122.71571 132.25851
28.8766 28.7918 126.0 0.00794 122.66606 132.33206
28.8933 28.8085 118.0 0.00848 122.61671 132.40755
28.9100 28.8252 119.0 0.00840 122.56735 132.48546
28.9267 28.8419 126.0 0.00794 122.51799 132.56589
28.9434 28.8586 137.0 0.00731 122.46865 132.64885
28.9602 28.8754 139.0 0.00719 122.41899 132.73499
28.9769 28.8921 129.0 0.00775 122.36963 132.82332
28.9936 28.9088 146.0 0.00685 122.32028 132.91440
29.0103 28.9255 138.0 0.00724 122.27093 133.00833
29.0270 28.9422 143.0 0.00699 122.22157 133.10519
29.0438 28.9590 147.0 0.00681 122.17192 133.20569
29.0605 28.9757 131.0 0.00763 122.12256 133.30867
29.0772 28.9924 129.0 0.00775 122.07321 133.41479
29.0939 29.0091 127.0 0.00787 122.02385 133.52425
29.1106 29.0258 137.0 0.00731 121.97449 133.63701
29.1273 29.0425 155.0 0.00645 121.92514 133.75323
29.1441 29.0593 143.0 0.00699 121.87548 133.87373
29.1608 29.0760 151.0 0.00662 121.82613 147.02332
29.1775 29.0927 150.0 0.00666 121.77678 147.34274
29.1942 29.1094 112.0 0.00893 121.72742 147.67038
29.2109 29.1261 121.0 0.00826 121.67807 148.00632
29.2277 29.1429 152.0 0.00658 121.62842 148.35309
29.2444 29.1596 129.0 0.00775 121.57906 148.70671
29.2611 29.1763 149.0 0.00671 121.52970 149.06947
29.2778 29.1930 157.0 0.00637 121.48035 149.44164
29.2945 29.2097 160.0 0.00625 121.43098 149.82372
29.3113 29.2265 137.0 0.00731 121.38133 150.21811
29.3280 29.2432 124.0 0.00806 121.33199 150.62056
29.3447 29.2599 157.0 0.00637 121.28264 151.03363
29.3614 29.2766 142.0 0.00704 121.23328 151.45795
29.3781 29.2933 140.0 0.00715 121.18391 151.89351
29.3948 29.3100 144.0 0.00694 121.13456 152.34085
29.4116 29.3268 149.0 0.00671 121.08491 152.80318
29.4283 29.3435 154.0 0.00649 121.03555 153.27525
29.4450 29.3602 153.0 0.00654 120.98620 153.76030
29.4617 29.3769 132.0 0.00757 120.93684 154.25879
29.4784 29.3936 152.0 0.00658 120.88749 154.77098
29.4952 29.4104 138.0 0.00724 120.83784 155.30084
29.5119 29.4271 154.0 0.00649 120.78848 155.84239
29.5286 29.4438 169.0 0.00592 120.73913 156.39919
29.5453 29.4605 154.0 0.00649 120.68977 156.97182
29.5620 29.4772 142.0 0.00704 120.64041 157.56084
29.5788 29.4940 165.0 0.00606 120.59076 158.17064
29.5955 29.5107 157.0 0.00637 120.54140 158.79437
29.6122 29.5274 176.0 0.00568 120.49206 159.43623
29.6289 29.5441 178.0 0.00562 120.44270 160.09727
29.6456 29.5608 158.0 0.00633 120.39334 160.77773
29.6623 29.5775 187.0 0.00535 120.34399 161.47849
29.6791 29.5943 153.0 0.00654 120.29433 162.20483
29.6958 29.6110 169.0 0.00592 120.24498 162.94870
29.7125 29.6277 158.0 0.00633 120.19563 163.71526
29.7292 29.6444 150.0 0.00666 120.14626 164.50554
29.7459 29.6611 159.0 0.00629 120.09692 165.32008
29.7627 29.6779 169.0 0.00592 120.04726 166.16545
29.7794 29.6946 165.0 0.00606 119.99790 167.03236
29.7961 29.7113 148.0 0.00675 119.94855 167.92670
29.8128 29.7280 164.0 0.00609 119.89920 168.84956
29.8295 29.7447 197.0 0.00507 119.84983 169.80266
29.8463 29.7615 170.0 0.00588 119.80018 170.79254
29.8630 29.7782 163.0 0.00613 119.75083 171.80901
29.8797 29.7949 181.0 0.00553 119.70148 172.85904
29.8964 29.8116 195.0 0.00513 119.65212 173.94472
29.9131 29.8283 186.0 0.00537 119.60276 175.06676
29.9298 29.8450 160.0 0.00625 119.55341 176.22708
29.9466 29.8618 196.0 0.00510 119.50375 177.43488
29.9633 29.8785 183.0 0.00546 119.45440 178.67720
29.9800 29.8952 135.0 0.00741 119.40504 179.96313
29.9967 29.9119 157.0 0.00637 119.35568 181.29488
30.0134 29.9286 193.0 0.00518 119.30634 182.67398
30.0302 29.9454 169.0 0.00592 119.25668 184.11214
30.0469 29.9621 176.0 0.00568 119.20732 185.59421
30.0636 29.9788 189.0 0.00529 119.15797 187.13087
30.0803 29.9955 155.0 0.00645 119.10862 188.72498
30.0970 30.0122 165.0 0.00606 119.05927 190.37933
30.1138 30.0290 149.0 0.00671 119.00961 192.10767
30.1305 30.0457 184.0 0.00544 118.96025 193.89206
30.1472 30.0624 197.0 0.00507 118.91090 195.74597
30.1639 30.0791 189.0 0.00529 118.86153 197.67407
30.1806 30.0958 181.0 0.00553 118.81219 199.67879
30.1973 30.1125 212.0 0.00472 118.76283 201.76472
30.2141 30.1293 212.0 0.00472 118.71317 203.94984
30.2308 30.1460 210.0 0.00476 118.66383 206.21213
30.2475 30.1627 211.0 0.00474 118.61447 208.56958
30.2642 30.1794 212.0 0.00472 118.56511 211.02783
30.2809 30.1961 212.0 0.00472 118.51576 213.59149
30.2977 30.2129 198.0 0.00505 118.46610 216.28447
30.3144 30.2296 218.0 0.00459 118.41675 219.08051
30.3311 30.2463 214.0 0.00467 118.36739 222.00185
30.3478 30.2630 232.0 0.00431 118.31805 225.05594
30.3645 30.2797 235.0 0.00426 118.26868 228.25266
30.3813 30.2965 217.0 0.00461 118.21902 231.61896
30.3980 30.3132 241.0 0.00415 118.16968 235.12505
30.4147 30.3299 198.0 0.00505 118.12033 238.80005
30.4314 30.3466 218.0 0.00459 118.07096 242.65715
30.4481 30.3633 231.0 0.00433 118.02161 246.70537
30.4648 30.3800 216.0 0.00463 117.97226 250.95856
30.4816 30.3968 242.0 0.00413 117.92260 255.45885
30.4983 30.4135 227.0 0.00440 117.87325 260.16635
30.5150 30.4302 262.0 0.00382 117.82390 265.12430
30.5317 30.4469 255.0 0.00392 117.77453 270.35132
30.5484 30.4636 284.0 0.00352 117.72518 275.86444
30.5652 30.4804 239.0 0.00418 117.67553 281.72406
30.5819 30.4971 296.0 0.003380 117.62617 287.88217
30.5986 30.5138 257.0 0.00389 117.57682 294.39722
30.6153 30.5305 273.0 0.00366 117.52746 301.29797
30.6320 30.5472 291.0 0.003436 117.47811 308.61520
30.6488 30.5640 294.0 0.003400 117.42845 316.43188
30.6655 30.5807 286.0 0.003497 117.37910 324.69009
30.6822 30.5974 298.0 0.003357 117.32975 333.47607
30.6989 30.6141 358.0 0.002794 117.28038 342.84091
30.7156 30.6308 341.0 0.002931 117.23103 352.82861
30.7323 30.6475 345.0 0.002900 117.18168 363.49823
30.7491 30.6643 370.0 0.002701 117.13202 374.98526
30.7658 30.6810 356.0 0.002808 117.08267 387.22006
30.7825 30.6977 380.0 0.002633 117.03332 400.34915
30.7992 30.7144 403.0 0.002483 116.98396 414.46317
30.8159 30.7311 390.0 0.002564 116.93461 429.65524
30.8327 30.7479 409.0 0.002446 116.88495 446.14880
30.8494 30.7646 439.0 0.002278 116.83559 463.87112
30.8661 30.7813 423.0 0.002363 116.78624 483.05865
30.8828 30.7980 449.0 0.002227 116.73689 503.87567
30.8995 30.8147 495.0 0.002020 116.68752 526.52362
30.9163 30.8315 490.0 0.002040 116.63787 551.35730
30.9330 30.8482 534.0 0.001872 116.58852 578.33752
30.9497 30.8649 585.0 0.001709 116.53918 607.88971
30.9664 30.8816 591.0 0.001692 116.48981 640.36694
30.9831 30.8983 628.0 0.001592 116.44045 676.13623
30.9998 30.9150 663.0 0.001508 116.39111 715.66382
31.0166 30.9318 712.0 0.001405 116.34145 759.77167
31.0333 30.9485 735.0 0.001361 116.29209 808.56403
31.0500 30.9652 771.0 0.001297 116.24274 863.06360
31.0667 30.9819 832.0 0.001202 116.19337 924.21515
31.0834 30.9986 923.0 0.001083 116.14403 993.16156
31.1002 31.0154 992.0 0.001008 116.09438 1071.97522
31.1169 31.0321 1154.0 0.000867 116.04501 1161.83264
31.1336 31.0488 1204.0 0.000831 115.99567 1266.31445
31.1503 31.0655 1381.0 0.000724 115.94630 1390.42566
31.1670 31.0822 1558.0 0.000642 115.89696 1542.40222
31.1838 31.0990 1859.0 0.000538 115.84730 1737.37488
31.2005 31.1157 2131.0 0.000469 115.79795 1995.81982
31.2172 31.1324 2504.0 0.000399 115.74859 2355.41772
31.2339 31.1491 3188.0 0.0003137 115.69923 2871.38086
31.2506 31.1658 3927.0 0.0002546 115.64988 3623.10645
31.2673 31.1825 4921.0 0.0002032 115.60052 4715.92383
31.2841 31.1993 6347.0 0.0001575 115.55087 6288.96631
31.3008 31.2160 8298.0 0.0001205 115.50152 8461.80469
31.3175 31.2327 11097.0 0.0000902 115.45216 11368.08594
31.3342 31.2494 14573.0 0.0000686 115.40280 15089.69238
31.3509 31.2661 18739.0 0.0000534 115.35345 19624.94727
31.3677 31.2829 23912.0 0.0000418 115.30379 24893.29883
31.3844 31.2996 30175.0 0.0000331 115.25444 30568.38086
31.4011 31.3163 36083.0 0.0000277 115.20509 36256.27734
31.4178 31.3330 41437.0 0.0000241 115.15574 41379.36328
31.4345 31.3497 45926.0 0.0000218 115.10637 45270.10156
31.4513 31.3665 48187.0 0.0000208 115.05672 47329.61719
31.4680 31.3832 48259.0 0.0000207 115.00738 47209.37500
31.4847 31.3999 46106.0 0.0000217 114.95801 44986.05859
31.5014 31.4166 42476.0 0.0000235 114.90865 41049.79688
31.5181 31.4333 37327.0 0.0000268 114.85930 35986.66797
31.5348 31.4500 30939.0 0.0000323 114.80995 30429.14063
31.5516 31.4668 25180.0 0.0000397 114.76029 24892.31445
31.5683 31.4835 20075.0 0.0000498 114.71094 19838.59570
31.5850 31.5002 15340.0 0.0000651 114.66159 15462.27734
31.6017 31.5169 11470.0 0.0000872 114.61222 11852.73047
31.6184 31.5336 8888.0 0.0001125 114.56287 8998.64063
31.6352 31.5504 6817.0 0.0001467 114.51322 6808.85010
31.6519 31.5671 5295.0 0.0001888 114.46386 5198.46826
31.6686 31.5838 4166.0 0.0002401 114.41451 4033.34448
31.6853 31.6005 3403.0 0.0002938 114.36515 3202.62207
31.7020 31.6172 2664.0 0.000375 114.31580 2613.20239
31.7188 31.6340 2282.0 0.000438 114.26614 2190.07666
31.7355 31.6507 1951.0 0.000513 114.21680 1884.56128
31.7522 31.6674 1735.0 0.000576 114.16743 1655.92908
31.7689 31.6841 1467.0 0.000682 114.11807 1479.08374
31.7856 31.7008 1236.0 0.000809 114.06873 1337.45813
31.8023 31.7175 1200.0 0.000833 114.01937 1220.50586
31.8191 31.7343 1130.0 0.000885 113.96971 1120.95728
31.8358 31.7510 955.0 0.001047 113.92036 1035.69434
31.8525 31.7677 834.0 0.001199 113.87100 961.20587
31.8692 31.7844 825.0 0.001212 113.82165 895.50415
31.8859 31.8011 739.0 0.001354 113.77230 837.17334
31.9027 31.8179 734.0 0.001363 113.72264 784.77985
31.9194 31.8346 652.0 0.001534 113.67329 738.08447
31.9361 31.8513 661.0 0.001513 113.62393 696.04700
31.9528 31.8680 577.0 0.001733 113.57458 658.06970
31.9695 31.8847 530.0 0.001887 113.52522 623.63007
31.9863 31.9015 556.0 0.001799 113.47557 592.14832
32.0030 31.9182 492.0 0.002033 113.42622 563.62695
32.0197 31.9349 447.0 0.002238 113.37685 537.54077
32.0364 31.9516 453.0 0.002208 113.32751 513.63898
32.0531 31.9683 421.0 0.002375 113.27814 491.67938
32.0698 31.9850 377.0 0.002652 113.22879 471.45831
32.0866 32.0018 427.0 0.002343 113.17914 452.68768
32.1033 32.0185 401.0 0.002495 113.12978 435.43994
32.1200 32.0352 392.0 0.002551 113.08044 419.45914
32.1367 32.0519 352.0 0.002841 113.03107 404.62231
32.1534 32.0686 340.0 0.002941 112.98173 390.82910
32.1702 32.0854 300.0 0.003334 112.93207 377.90231
32.1869 32.1021 305.0 0.003280 112.88271 365.91553
32.2036 32.1188 316.0 0.003163 112.83335 354.71558
32.2203 32.1355 285.0 0.00351 112.78400 344.23352
32.2370 32.1522 287.0 0.003485 112.73466 334.41077
32.2537 32.1689 281.0 0.00356 112.68529 325.18784
32.2705 32.1857 267.0 0.00375 112.63565 316.47394
32.2872 32.2024 258.0 0.00388 112.58628 308.32132
32.3039 32.2191 264.0 0.00379 112.53693 300.64291
32.3206 32.2358 251.0 0.00399 112.48756 293.40051
32.3373 32.2525 253.0 0.00395 112.43822 286.56161
32.3541 32.2693 218.0 0.00459 112.38856 280.05804
32.3708 32.2860 213.0 0.00470 112.33921 273.94223
32.3875 32.3027 231.0 0.00433 112.28985 268.14883
32.4042 32.3194 229.0 0.00437 112.24049 262.65469
32.4209 32.3361 208.0 0.00481 112.19115 257.44168
32.4377 32.3529 251.0 0.00399 112.14149 252.45901
32.4544 32.3696 191.0 0.00524 112.09212 247.75035
32.4711 32.3863 193.0 0.00518 112.04278 243.27002
32.4878 32.4030 193.0 0.00518 111.99343 239.00340
32.5045 32.4197 198.0 0.00505 111.94406 234.93465
32.5213 32.4365 185.0 0.00541 111.89442 231.03168
32.5380 32.4532 177.0 0.00565 111.84507 227.32886
32.5547 32.4699 185.0 0.00541 111.79570 223.78964
32.5714 32.4866 190.0 0.00527 111.74635 220.40697
32.5881 32.5033 191.0 0.00524 111.69699 217.17061
32.6048 32.5200 171.0 0.00585 111.64764 214.07216
32.6216 32.5368 184.0 0.00544 111.59798 211.08598
32.6383 32.5535 155.0 0.00645 111.54863 208.24117
32.6550 32.5702 165.0 0.00606 111.49928 205.51234
32.6717 32.5869 172.0 0.00582 111.44991 202.89279
32.6884 32.6036 178.0 0.00562 111.40057 200.37778
32.7052 32.6204 187.0 0.00535 111.35091 197.94612
32.7219 32.6371 162.0 0.00617 111.30156 195.62236
32.7386 32.6538 198.0 0.00505 111.25220 193.38721
32.7553 32.6705 161.0 0.00621 111.20285 191.23586
32.7720 32.6872 160.0 0.00625 111.15350 189.16403
32.7888 32.7040 171.0 0.00585 111.10383 187.15581
32.8055 32.7207 180.0 0.00555 111.05450 185.23219
32.8222 32.7374 154.0 0.00649 111.00513 183.37613
32.8389 32.7541 153.0 0.00654 110.95577 181.58571
32.8556 32.7708 136.0 0.00736 110.90641 179.85728
32.8723 32.7875 160.0 0.00625 110.85706 178.18796
32.8891 32.8043 151.0 0.00662 110.80740 176.56525
32.9058 32.8210 133.0 0.00752 110.75806 175.00641
32.9225 32.8377 160.0 0.00625 110.70869 173.49887
32.9392 32.8544 159.0 0.00629 110.65934 172.04016
32.9559 32.8711 133.0 0.00752 110.60999 170.62874
32.9727 32.8879 136.0 0.00736 110.56033 169.25362
32.9894 32.9046 141.0 0.00710 110.51097 167.92973
33.0061 32.9213 138.0 0.00724 110.46162 166.64705
33.0228 32.9380 139.0 0.00719 110.44468 165.43620
33.0395 32.9547 149.0 0.00671 110.44913 164.28386
33.0563 32.9715 138.0 0.00724 110.45361 163.16133
33.0730 32.9882 124.0 0.00806 110.45805 162.08034
33.0897 33.0049 138.0 0.00724 110.46250 161.03204
33.1064 33.0216 145.0 0.00690 110.46695 160.01588
33.1231 33.0383 138.0 0.00724 110.47140 159.03030
33.1398 33.0550 139.0 0.00719 110.47585 158.07407
33.1566 33.0718 151.0 0.00662 110.48032 157.14041
33.1733 33.0885 135.0 0.00741 110.48477 156.23965
33.1900 33.1052 141.0 0.00710 110.48922 155.36497
33.2067 33.1219 152.0 0.00658 110.49368 154.51524
33.2234 33.1386 142.0 0.00704 110.49812 153.68988
33.2402 33.1554 129.0 0.00775 110.50259 152.88277
33.2569 33.1721 130.0 0.00769 110.50704 152.10292
33.2736 33.1888 139.0 0.00719 110.51149 151.34473
33.2903 33.2055 151.0 0.00662 110.51594 150.60732
33.3070 33.2222 144.0 0.00694 110.52039 149.89001
33.3237 33.2389 168.0 0.00595 110.52484 149.19173
33.3405 33.2557 168.0 0.00595 110.52931 148.50833
33.3572 33.2724 155.0 0.00645 110.53376 147.84676
33.3739 33.2891 162.0 0.00617 110.53821 147.20273
33.3906 33.3058 170.0 0.00588 110.54266 146.57544
33.4073 33.3225 198.0 0.00505 110.54711 145.96434
33.4241 33.3393 142.0 0.00704 110.55158 145.36525
33.4408 33.3560 160.0 0.00625 110.55603 144.78496
33.4575 33.3727 179.0 0.00559 110.56048 144.21928
33.4742 33.3894 173.0 0.00578 110.56493 143.66763
33.4909 33.4061 173.0 0.00578 110.56938 143.12981
33.5077 33.4229 186.0 0.00537 110.57385 142.60193
33.5244 33.4396 192.0 0.00521 110.57830 142.09003
33.5411 33.4563 214.0 0.00467 110.58275 141.59056
33.5578 33.4730 160.0 0.00625 110.58720 141.10318
33.5745 33.4897 168.0 0.00595 110.59165 140.62717
33.5913 33.5065 187.0 0.00535 110.59612 140.15981
33.6080 33.5232 186.0 0.00537 110.60057 139.70622
33.6247 33.5399 205.0 0.00488 110.60503 139.26300
33.6414 33.5566 193.0 0.00518 110.60947 138.83014
33.6581 33.5733 203.0 0.00492 110.61392 138.40721
33.6748 33.5900 217.0 0.00461 110.61837 137.99393
33.6916 33.6068 209.0 0.00478 110.62284 137.58752
33.7083 33.6235 217.0 0.00461 110.62730 137.19269
33.7250 33.6402 217.0 0.00461 110.63174 136.80666
33.7417 33.6569 245.0 0.00408 110.63619 136.42911
33.7584 33.6736 214.0 0.00467 110.64064 136.05997
33.7752 33.6904 233.0 0.00429 110.64511 135.69664
33.7919 33.7071 209.0 0.00478 110.64957 135.34334
33.8086 33.7238 197.0 0.00507 110.65401 134.99768
33.8253 33.7405 231.0 0.00433 110.65846 134.65941
33.8420 33.7572 230.0 0.00435 110.66291 134.32832
33.8588 33.7740 205.0 0.00488 110.66739 134.00226
33.8755 33.7907 178.0 0.00562 110.67184 133.68504
33.8922 33.8074 217.0 0.00461 110.67628 133.37428
33.9089 33.8241 203.0 0.00492 110.68073 133.07004
33.9256 33.8408 182.0 0.00550 110.68518 132.77206
33.9423 33.8575 180.0 0.00555 110.68963 132.48016
33.9591 33.8743 171.0 0.00585 110.69411 132.19244
33.9758 33.8910 155.0 0.00645 110.69855 131.91226
33.9925 33.9077 203.0 0.00492 110.70300 131.63770
34.0092 33.9244 182.0 0.00550 110.70745 131.36856
34.0259 33.9411 164.0 0.00609 110.71190 131.10483
34.0427 33.9579 179.0 0.00559 110.71638 130.84468
34.0594 33.9746 179.0 0.00559 110.72083 130.59113
34.0761 33.9913 170.0 0.00588 110.72527 130.34256
34.0928 34.0080 161.0 0.00621 110.72972 130.09882
34.1095 34.0247 157.0 0.00637 110.73417 129.85965
34.1263 34.0415 155.0 0.00645 110.73865 129.62373
34.1430 34.0582 129.0 0.00775 110.74310 129.39371
34.1597 34.0749 155.0 0.00645 110.74754 129.16792
34.1764 34.0916 153.0 0.00654 110.75199 128.94644
34.1931 34.1083 148.0 0.00675 110.75644 128.72908
34.2098 34.1250 136.0 0.00736 110.76089 128.51576
34.2266 34.1418 136.0 0.00736 110.76537 128.30510
34.2433 34.1585 160.0 0.00625 110.76981 128.09956
34.2600 34.1752 156.0 0.00641 110.77426 127.89778
34.2767 34.1919 141.0 0.00710 110.77871 127.69963
34.2934 34.2086 132.0 0.00757 110.78316 127.50510
34.3102 34.2254 132.0 0.00757 110.78764 127.31288
34.3269 34.2421 121.0 0.00826 110.79208 127.12522
34.3436 34.2588 133.0 0.00752 110.79653 126.94092
34.3603 34.2755 120.0 0.00834 110.80098 126.75986
34.3770 34.2922 146.0 0.00685 110.80543 126.58201
34.3937 34.3089 133.0 0.00752 110.80988 126.40719
34.4105 34.3257 117.0 0.00854 110.81435 126.23447
34.4272 34.3424 153.0 0.00654 110.81880 126.06566
34.4439 34.3591 122.0 0.00819 110.82325 125.94923
34.4606 34.3758 132.0 0.00757 110.82770 125.78685
34.4773 34.3925 125.0 0.00800 110.83215 125.62725
34.4941 34.4093 126.0 0.00794 110.83662 110.88911
34.5108 34.4260 127.0 0.00787 110.84107 110.89421
34.5275 34.4427 128.0 0.00782 110.84552 110.89933
34.5442 34.4594 121.0 0.00826 110.84997 110.90446
34.5609 34.4761 123.0 0.00813 110.85442 110.90960
34.5777 34.4929 130.0 0.00769 110.85889 110.91479
34.5944 34.5096 123.0 0.00813 110.86334 110.91997
34.6111 34.5263 107.0 0.00935 110.86779 110.92516
34.6278 34.5430 116.0 0.00862 110.87224 110.93036
34.6445 34.5597 128.0 0.00782 110.87669 110.93557
34.6613 34.5765 105.0 0.00952 110.88116 110.94084
34.6780 34.5932 119.0 0.00840 110.88561 110.94609
34.6947 34.6099 135.0 0.00741 110.89006 110.95136
34.7114 34.6266 116.0 0.00862 110.89451 110.95665
34.7281 34.6433 142.0 0.00704 110.89896 110.96194
34.7448 34.6600 120.0 0.00834 110.90340 110.96728
34.7616 34.6768 114.0 0.00877 110.90788 110.97265
34.7783 34.6935 123.0 0.00813 110.91233 110.97801
34.7950 34.7102 122.0 0.00819 110.91678 110.98339
34.8117 34.7269 117.0 0.00854 110.92123 110.98879
34.8284 34.7436 115.0 0.00870 110.92567 110.99422
34.8452 34.7604 122.0 0.00819 110.93015 110.99969
34.8619 34.7771 124.0 0.00806 110.93460 111.00517
34.8786 34.7938 124.0 0.00806 110.93905 111.01067
34.8953 34.8105 85.0 0.01176 110.94350 111.01618
34.9120 34.8272 104.0 0.00961 110.94794 111.02173
34.9288 34.8440 109.0 0.00917 110.95242 111.02733
34.9455 34.8607 122.0 0.00819 110.95687 111.03293
34.9622 34.8774 94.0 0.01064 110.96132 111.03854
34.9789 34.8941 103.0 0.00971 110.96577 111.04420
34.9956 34.9108 121.0 0.00826 110.97022 111.04988
35.0123 34.9275 128.0 0.00782 110.97467 111.05559
35.0291 34.9443 123.0 0.00813 110.97914 111.06137
35.0458 34.9610 111.0 0.00900 110.98359 111.06714
35.0625 34.9777 106.0 0.00943 110.98804 111.07294
35.0792 34.9944 103.0 0.00971 110.99249 111.07879
35.0959 35.0111 104.0 0.00961 110.99694 111.08466
35.1127 35.0279 124.0 0.00806 111.00141 111.09061
35.1294 35.0446 113.0 0.00885 111.00586 111.09657
35.1461 35.0613 111.0 0.00900 111.01031 111.10256
35.1628 35.0780 93.0 0.01075 111.01476 111.10860
35.1795 35.0947 113.0 0.00885 111.01921 111.11467
35.1963 35.1115 96.0 0.01042 111.02368 111.12083
35.2130 35.1282 114.0 0.00877 111.02813 111.12698
35.2297 35.1449 113.0 0.00885 111.03258 111.13319
35.2464 35.1616 114.0 0.00877 111.03703 111.13946
35.2631 35.1783 102.0 0.00980 111.04148 111.14576
35.2798 35.1950 104.0 0.00961 111.04593 111.15212
35.2966 35.2118 109.0 0.00917 111.05040 111.15858
35.3133 35.2285 115.0 0.00870 111.05485 111.16505
35.3300 35.2452 95.0 0.01053 111.05930 111.17158
35.3467 35.2619 100.0 0.01000 111.06375 111.17817
35.3634 35.2786 112.0 0.00893 111.06820 111.18482
35.3802 35.2954 110.0 0.00909 111.07267 111.19158
35.3969 35.3121 112.0 0.00893 111.07712 111.19836
35.4136 35.3288 127.0 0.00787 111.08157 111.20522
35.4303 35.3455 96.0 0.01042 111.08602 111.21216
35.4470 35.3622 87.0 0.01150 111.09047 111.21916
35.4637 35.3789 107.0 0.00935 111.09492 111.22625
35.4805 35.3957 110.0 0.00909 111.09939 111.23346
35.4972 35.4124 92.0 0.01087 111.10384 111.24072
35.5139 35.4291 91.0 0.01099 111.10829 111.24806
35.5306 35.4458 99.0 0.01010 111.11274 111.25550
35.5473 35.4625 108.0 0.00926 111.11719 111.26305
35.5641 35.4793 119.0 0.00840 111.12167 111.27074
35.5808 35.4960 102.0 0.00980 111.12611 111.27848
35.5975 35.5127 112.0 0.00893 111.13056 111.28634
35.6142 35.5294 103.0 0.00971 111.13501 111.29432
35.6309 35.5461 118.0 0.00848 111.13946 111.30242
35.6477 35.5629 96.0 0.01042 111.14394 111.31069
35.6644 35.5796 117.0 0.00854 111.14838 111.31906
35.6811 35.5963 119.0 0.00840 111.15283 111.32756
35.6978 35.6130 117.0 0.00854 111.15728 111.33621
35.7145 35.6297 115.0 0.00870 111.16173 111.34502
35.7313 35.6465 112.0 0.00893 111.16621 111.35403
35.7480 35.6632 104.0 0.00961 111.17065 111.36317
35.7647 35.6799 123.0 0.00813 111.17510 111.37249
35.7814 35.6966 125.0 0.00800 111.17955 111.38199
35.7981 35.7133 110.0 0.00909 111.18400 111.39170
35.8148 35.7300 111.0 0.00900 111.18845 111.40160
35.8316 35.7468 127.0 0.00787 111.19292 111.41180
35.8483 35.7635 139.0 0.00719 111.19737 111.42215
35.8650 35.7802 123.0 0.00813 111.20182 111.43275
35.8817 35.7969 138.0 0.00724 111.20627 111.44362
35.8984 35.8136 132.0 0.00757 111.21072 111.45475
35.9152 35.8304 124.0 0.00806 111.21519 111.46624
35.9319 35.8471 119.0 0.00840 111.21964 111.47796
35.9486 35.8638 117.0 0.00854 111.22409 111.49000
35.9653 35.8805 141.0 0.00710 111.22854 111.50239
35.9820 35.8972 118.0 0.00848 111.23299 111.51514
35.9988 35.9140 145.0 0.00690 111.23746 111.52834
36.0155 35.9307 152.0 0.00658 111.24191 111.54188
36.0322 35.9474 128.0 0.00782 111.24636 111.55585
36.0489 35.9641 136.0 0.00736 111.25081 111.57028
36.0656 35.9808 172.0 0.00582 111.25526 111.58521
36.0823 35.9975 142.0 0.00704 111.25970 111.60065
36.0991 36.0143 175.0 0.00571 111.26418 111.61675
36.1158 36.0310 187.0 0.00535 111.26863 111.63335
36.1325 36.0477 185.0 0.00541 111.27308 111.78752
36.1492 36.0644 171.0 0.00585 111.27753 111.80720
36.1659 36.0811 183.0 0.00546 111.28197 111.82763
36.1827 36.0979 193.0 0.00518 111.28645 111.84902
36.1994 36.1146 210.0 0.00476 111.29090 111.87118
36.2161 36.1313 186.0 0.00537 111.29535 111.89427
36.2328 36.1480 185.0 0.00541 111.29980 111.91838
36.2495 36.1647 220.0 0.00455 111.30424 111.94360
36.2663 36.1815 175.0 0.00571 111.30872 111.97016
36.2830 36.1982 178.0 0.00562 111.31317 111.99784
36.2997 36.2149 164.0 0.00609 111.31762 112.02692
36.3164 36.2316 201.0 0.00497 111.32207 112.05749
36.3331 36.2483 158.0 0.00633 111.32652 112.08968
36.3498 36.2650 156.0 0.00641 111.33096 112.12367
36.3666 36.2818 177.0 0.00565 111.33544 112.15980
36.3833 36.2985 202.0 0.00495 111.33989 112.19784
36.4000 36.3152 170.0 0.00588 111.34434 112.23818
36.4167 36.3319 165.0 0.00606 111.34879 112.28107
36.4334 36.3486 157.0 0.00637 111.35323 112.32674
36.4502 36.3654 169.0 0.00592 111.35771 112.37579
36.4669 36.3821 154.0 0.00649 111.36216 112.42796
36.4836 36.3988 152.0 0.00658 111.36661 112.48386
36.5003 36.4155 156.0 0.00641 111.37106 112.54395
36.5170 36.4322 132.0 0.00757 111.37550 112.60867
36.5338 36.4490 156.0 0.00641 111.37998 112.67901
36.5505 36.4657 163.0 0.00613 111.38443 112.75474
36.5672 36.4824 148.0 0.00675 111.38888 112.83702
36.5839 36.4991 156.0 0.00641 111.39333 112.92663
36.6006 36.5158 161.0 0.00621 111.39777 113.02455
36.6173 36.5325 166.0 0.00603 111.40222 113.13193
36.6341 36.5493 170.0 0.00588 111.40670 113.25082
36.6508 36.5660 161.0 0.00621 111.41115 113.38138
36.6675 36.5827 146.0 0.00685 111.41560 113.52618
36.6842 36.5994 177.0 0.00565 111.42004 113.68761
36.7009 36.6161 165.0 0.00606 111.42449 113.86850
36.7177 36.6329 156.0 0.00641 111.42897 114.07418
36.7344 36.6496 170.0 0.00588 111.43342 114.30762
36.7511 36.6663 233.0 0.00429 111.43787 114.57798
36.7678 36.6830 257.0 0.00389 111.44231 114.89768
36.7845 36.6997 280.0 0.00357 111.44677 115.28659
36.8013 36.7165 318.0 0.003146 111.45124 115.77912
36.8180 36.7332 273.0 0.00366 111.45569 116.41879
36.8347 36.7499 347.0 0.002881 111.46014 117.28342
36.8514 36.7666 304.0 0.003288 111.46459 118.48112
36.8681 36.7833 309.0 0.003236 111.46904 120.16172
36.8848 36.8000 294.0 0.003400 111.47349 122.51822
36.9016 36.8168 292.0 0.003424 111.47796 125.80386
36.9183 36.8335 250.0 0.00400 111.48241 130.22731
36.9350 36.8502 245.0 0.00408 111.48685 136.03584
36.9517 36.8669 235.0 0.00426 111.49131 143.39468
36.9684 36.8836 205.0 0.00488 111.49576 152.33994
36.9852 36.9004 171.0 0.00585 111.50023 162.79889
37.0019 36.9171 218.0 0.00459 111.50468 174.26018
37.0186 36.9338 157.0 0.00637 111.50912 186.11310
37.0353 36.9505 160.0 0.00625 111.51358 197.37450
37.0520 36.9672 191.0 0.00524 111.51803 206.75632
37.0688 36.9840 188.0 0.00532 111.52250 212.85872
37.0855 37.0007 153.0 0.00654 111.52695 214.46167
37.1022 37.0174 174.0 0.00575 111.53140 211.27948
37.1189 37.0341 167.0 0.00599 111.53585 203.96748
37.1356 37.0508 171.0 0.00585 111.54030 193.82205
37.1523 37.0675 171.0 0.00585 111.54475 182.25551
37.1691 37.0843 176.0 0.00568 111.54922 170.39169
37.1858 37.1010 162.0 0.00617 111.55367 159.25531
37.2025 37.1177 155.0 0.00645 111.55812 149.33922
37.2192 37.1344 141.0 0.00710 111.56257 140.93903
37.2359 37.1511 152.0 0.00658 111.56702 134.13428
37.2527 37.1679 146.0 0.00685 111.57149 128.80548
37.2694 37.1846 131.0 0.00763 111.57594 124.82484
37.2861 37.2013 132.0 0.00757 111.58039 121.91552
37.3028 37.2180 152.0 0.00658 111.58484 119.83244
37.3195 37.2347 151.0 0.00662 111.58929 118.35564
37.3363 37.2515 116.0 0.00862 111.59376 117.30238
37.3530 37.2682 105.0 0.00952 111.59821 116.54886
37.3697 37.2849 121.0 0.00826 111.60266 115.99116
37.3864 37.3016 131.0 0.00763 111.60711 115.56459
37.4031 37.3183 123.0 0.00813 111.61156 115.22665
37.4198 37.3350 110.0 0.00909 111.61600 114.95049
37.4366 37.3518 119.0 0.00840 111.62048 114.71799
37.4533 37.3685 137.0 0.00731 111.62493 114.52127
37.4700 37.3852 103.0 0.00971 111.62938 114.35181
37.4867 37.4019 127.0 0.00787 111.63383 114.20479
37.5034 37.4186 95.0 0.01053 111.63828 114.07675
37.5202 37.4354 98.0 0.01021 111.64275 113.96433
37.5369 37.4521 112.0 0.00893 111.64720 113.86676
37.5536 37.4688 111.0 0.00900 111.65165 113.78159
37.5703 37.4855 98.0 0.01021 111.65610 113.70737
37.5870 37.5022 117.0 0.00854 111.66055 113.64287
37.6038 37.5190 126.0 0.00794 111.66502 113.58677
37.6205 37.5357 104.0 0.00961 111.66947 113.53887
37.6372 37.5524 133.0 0.00752 111.67392 113.49804
37.6539 37.5691 120.0 0.00834 111.67837 113.46371
37.6706 37.5858 103.0 0.00971 111.68282 113.43530
37.6873 37.6025 87.0 0.01150 111.68726 113.41238
37.7041 37.6193 119.0 0.00840 111.69174 113.39446
37.7208 37.6360 120.0 0.00834 111.69619 113.38145
37.7375 37.6527 106.0 0.00943 111.70064 113.37295
37.7542 37.6694 117.0 0.00854 111.70509 113.36873
37.7709 37.6861 110.0 0.00909 111.70953 113.36861
37.7877 37.7029 109.0 0.00917 111.71401 113.37251
37.8044 37.7196 84.0 0.01191 111.71846 113.38025
37.8211 37.7363 125.0 0.00800 111.72291 113.39178
37.8378 37.7530 123.0 0.00813 111.72736 113.40704
37.8545 37.7697 93.0 0.01075 111.73180 113.42603
37.8713 37.7865 107.0 0.00935 111.73628 113.44891
37.8880 37.8032 111.0 0.00900 111.74073 113.47543
37.9047 37.8199 106.0 0.00943 111.74518 113.50583
37.9214 37.8366 100.0 0.01000 111.74963 113.54016
37.9381 37.8533 111.0 0.00900 111.75407 113.57856
37.9548 37.8700 106.0 0.00943 111.75852 113.62120
37.9716 37.8868 111.0 0.00900 111.76300 113.66856
37.9883 37.9035 107.0 0.00935 111.76745 113.72030
38.0050 37.9202 112.0 0.00893 111.77190 113.77693
38.0217 37.9369 107.0 0.00935 111.77634 113.83878
38.0384 37.9536 137.0 0.00731 111.78079 113.90617
38.0552 37.9704 114.0 0.00877 111.78527 113.97999
38.0719 37.9871 106.0 0.00943 111.78972 114.05980
38.0886 38.0038 116.0 0.00862 111.79417 114.14651
38.1053 38.0205 98.0 0.01021 111.79861 114.24075
38.1220 38.0372 126.0 0.00794 111.80306 114.34315
38.1388 38.0540 113.0 0.00885 111.80754 114.45521
38.1555 38.0707 95.0 0.01053 111.81199 114.57642
38.1722 38.0874 96.0 0.01042 111.81644 114.70848
38.1889 38.1041 120.0 0.00834 111.82088 114.85244
38.2056 38.1208 103.0 0.00971 111.82533 115.00966
38.2223 38.1375 110.0 0.00909 111.82978 115.18160
38.2391 38.1543 109.0 0.00917 111.83426 115.37123
38.2558 38.1710 96.0 0.01042 111.83871 115.57824
38.2725 38.1877 102.0 0.00980 111.84315 115.80604
38.2892 38.2044 131.0 0.00763 111.84760 116.05740
38.3059 38.2211 111.0 0.00900 111.85205 116.33537
38.3227 38.2379 106.0 0.00943 111.85653 116.64581
38.3394 38.2546 105.0 0.00952 111.86098 116.98939
38.3561 38.2713 128.0 0.00782 111.86543 117.37317
38.3728 38.2880 111.0 0.00900 111.86987 117.80369
38.3895 38.3047 128.0 0.00782 111.87433 118.28947
38.4063 38.3215 126.0 0.00794 111.87880 118.84461
38.4230 38.3382 126.0 0.00794 111.88325 119.47784
38.4397 38.3549 126.0 0.00794 111.88770 120.21537
38.4564 38.3716 147.0 0.00681 111.89214 121.09235
38.4731 38.3883 107.0 0.00935 111.89659 122.16680
38.4898 38.4050 153.0 0.00654 111.90105 123.53336
38.5066 38.4218 136.0 0.00736 111.90552 125.35770
38.5233 38.4385 143.0 0.00699 111.90997 127.85793
38.5400 38.4552 185.0 0.00541 111.91441 131.40160
38.5567 38.4719 162.0 0.00617 111.91887 136.49542
38.5734 38.4886 181.0 0.00553 111.92332 143.80493
38.5902 38.5054 220.0 0.00455 111.92779 154.22101
38.6069 38.5221 232.0 0.00431 111.93224 168.51567
38.6236 38.5388 259.0 0.00386 111.93668 187.58418
38.6403 38.5555 253.0 0.00395 111.94114 212.04236
38.6570 38.5722 280.0 0.00357 111.94559 242.05000
38.6738 38.5890 284.0 0.00352 111.95006 277.31503
38.6905 38.6057 321.0 0.003114 111.95451 315.99655
38.7072 38.6224 332.0 0.003012 111.95895 355.90005
38.7239 38.6391 361.0 0.002770 111.96340 393.48587
38.7406 38.6558 390.0 0.002564 111.96786 424.27917
38.7573 38.6725 350.0 0.002857 111.97231 443.46149
38.7741 38.6893 346.0 0.002891 111.97678 447.33078
38.7908 38.7060 359.0 0.002785 111.98122 435.02628
38.8075 38.7227 281.0 0.00356 111.98567 409.12460
38.8242 38.7394 280.0 0.00357 111.99013 374.12894
38.8409 38.7561 223.0 0.00449 111.99458 334.82794
38.8577 38.7729 195.0 0.00513 111.99905 294.97293
38.8744 38.7896 187.0 0.00535 112.00349 257.99185
38.8911 38.8063 178.0 0.00562 112.00795 225.50851
38.9078 38.8230 147.0 0.00681 112.01240 198.43100
38.9245 38.8397 128.0 0.00782 112.01685 176.87915
38.9412 38.8564 107.0 0.00935 112.02129 160.44063
38.9580 38.8732 117.0 0.00854 112.02576 148.28574
38.9747 38.8899 104.0 0.00961 112.03022 139.65880
38.9914 38.9066 90.0 0.01111 112.03467 133.61946
39.0081 38.9233 99.0 0.01010 112.03912 129.42349
39.0248 38.9400 106.0 0.00943 112.04356 126.48898
39.0416 38.9568 89.0 0.01124 112.04804 124.38050
39.0583 38.9735 88.0 0.01136 112.05249 122.83153
39.0750 38.9902 106.0 0.00943 112.05694 121.63759
39.0917 39.0069 98.0 0.01021 112.06139 120.67967
39.1084 39.0236 88.0 0.01136 112.06583 119.88522
39.1252 39.0404 102.0 0.00980 112.07030 119.20535
39.1419 39.0571 93.0 0.01075 112.07476 118.62036
39.1586 39.0738 88.0 0.01136 112.07921 118.10773
39.1753 39.0905 108.0 0.00926 112.08366 117.65472
39.1920 39.1072 79.0 0.01266 112.08810 117.25195
39.2088 39.1240 104.0 0.00961 112.09258 116.89004
39.2255 39.1407 94.0 0.01064 112.09703 116.56756
39.2422 39.1574 88.0 0.01136 112.10148 116.27716
39.2589 39.1741 101.0 0.00990 112.10593 116.01498
39.2756 39.1908 84.0 0.01191 112.11037 115.77750
39.2923 39.2075 95.0 0.01053 112.11482 115.56178
39.3091 39.2243 101.0 0.00990 112.11930 115.36415
39.3258 39.2410 85.0 0.01176 112.12375 115.18485
39.3425 39.2577 95.0 0.01053 112.12820 115.02075
39.3592 39.2744 81.0 0.01235 112.13264 114.87022
39.3759 39.2911 100.0 0.01000 112.13709 114.73188
39.3927 39.3079 91.0 0.01099 112.14157 114.60371
39.4094 39.3246 91.0 0.01099 112.14602 114.48617
39.4261 39.3413 68.0 0.01471 112.15047 114.37755
39.4428 39.3580 76.0 0.01316 112.15491 114.27697
39.4595 39.3747 93.0 0.01075 112.15936 114.18365
39.4763 39.3915 84.0 0.01191 112.16384 114.09652
39.4930 39.4082 87.0 0.01150 112.16829 114.01598
39.5097 39.4249 108.0 0.00926 112.17274 113.94093
39.5264 39.4416 83.0 0.01205 112.17719 113.87097
39.5431 39.4583 82.0 0.01220 112.18163 113.80564
39.5598 39.4750 94.0 0.01064 112.18608 113.74458
39.5766 39.4918 110.0 0.00909 112.19056 113.68709
39.5933 39.5085 83.0 0.01205 112.19501 113.63358
39.6100 39.5252 91.0 0.01099 112.19946 113.58340
39.6267 39.5419 86.0 0.01163 112.20390 113.53630
39.6434 39.5586 93.0 0.01075 112.20835 113.49207
39.6602 39.5754 87.0 0.01150 112.21283 113.45023
39.6769 39.5921 77.0 0.01299 112.21728 113.41111
39.6936 39.6088 78.0 0.01282 112.22173 113.37428
39.7103 39.6255 91.0 0.01099 112.22617 113.33957
39.7270 39.6422 82.0 0.01220 112.23062 113.25763
39.7438 39.6590 92.0 0.01087 112.23510 113.22720
39.7605 39.6757 78.0 0.01282 112.23955 113.19867
39.7772 39.6924 90.0 0.01111 112.24400 113.17175
39.7939 39.7091 91.0 0.01099 112.24844 113.14632
39.8106 39.7258 81.0 0.01235 112.25289 113.12231
39.8273 39.7425 111.0 0.00900 112.25734 113.09963
39.8441 39.7593 87.0 0.01150 112.26182 113.07806
39.8608 39.7760 102.0 0.00980 112.26627 113.05779
39.8775 39.7927 99.0 0.01010 112.27071 113.03861
39.8942 39.8094 85.0 0.01176 112.27516 113.02048
39.9109 39.8261 91.0 0.01099 112.27961 113.00331
39.9277 39.8429 105.0 0.00952 112.28409 112.98696
39.9444 39.8596 71.0 0.01409 112.28854 112.97160
39.9611 39.8763 91.0 0.01099 112.29298 112.95704
39.9778 39.8930 97.0 0.01031 112.29743 112.94327
39.9945 39.9097 102.0 0.00980 112.30188 112.93022
40.0112 39.9264 107.0 0.00935 112.30633 112.91788
40.0280 39.9432 86.0 0.01163 112.31081 112.90612
40.0447 39.9599 95.0 0.01053 112.31525 112.89506
40.0614 39.9766 93.0 0.01075 112.31970 112.88459
40.0781 39.9933 83.0 0.01205 112.32415 112.87469
40.0948 40.0100 114.0 0.00877 112.32860 112.86532
40.1116 40.0268 93.0 0.01075 112.33308 112.85641
40.1283 40.0435 92.0 0.01087 112.33752 112.84803
40.1450 40.0602 112.0 0.00893 112.34197 112.84012
40.1617 40.0769 81.0 0.01235 112.34642 112.83265
40.1784 40.0936 98.0 0.01021 112.35087 112.82559
40.1952 40.1104 83.0 0.01205 112.35535 112.81889
40.2119 40.1271 89.0 0.01124 112.35979 112.81262
40.2286 40.1438 93.0 0.01075 112.36424 112.80671
40.2453 40.1605 85.0 0.01176 112.36869 112.80116
40.2620 40.1772 81.0 0.01235 112.37315 112.79592
40.2788 40.1940 107.0 0.00935 112.37762 112.79098
40.2955 40.2107 101.0 0.00990 112.38206 112.78637
40.3122 40.2274 100.0 0.01000 112.38651 112.78205
40.3289 40.2441 88.0 0.01136 112.39097 112.77802
40.3456 40.2608 111.0 0.00900 112.39542 112.77424
40.3623 40.2775 94.0 0.01064 112.39986 112.77072
40.3791 40.2943 91.0 0.01099 112.40434 112.76743
40.3958 40.3110 105.0 0.00952 112.40878 112.76440
40.4125 40.3277 90.0 0.01111 112.41323 112.76160
40.4292 40.3444 92.0 0.01087 112.41769 112.75900
40.4459 40.3611 89.0 0.01124 112.42213 112.75661
40.4627 40.3779 96.0 0.01042 112.42661 112.75442
40.4794 40.3946 98.0 0.01021 112.43105 112.75243
40.4961 40.4113 89.0 0.01124 112.43550 112.75063
40.5128 40.4280 84.0 0.01191 112.43995 112.74899
40.5295 40.4447 100.0 0.01000 112.44440 112.74754
40.5463 40.4615 102.0 0.00980 112.44888 112.74623
40.5630 40.4782 86.0 0.01163 112.45332 112.74510
40.5797 40.4949 71.0 0.01409 112.45777 112.74413
40.5964 40.5116 91.0 0.01099 112.46223 112.74329
40.6131 40.5283 89.0 0.01124 112.46667 112.74260
40.6298 40.5450 114.0 0.00877 112.47112 112.74205
40.6466 40.5618 98.0 0.01021 112.47559 112.74162
40.6633 40.5785 103.0 0.00971 112.48004 112.74133
40.6800 40.5952 81.0 0.01235 112.48450 112.74116
40.6967 40.6119 95.0 0.01053 112.48895 112.74110
40.7134 40.6286 93.0 0.01075 112.49339 112.74117
40.7302 40.6454 99.0 0.01010 112.49786 112.74134
40.7469 40.6621 86.0 0.01163 112.50232 112.74163
40.7636 40.6788 79.0 0.01266 112.50677 112.74201
40.7803 40.6955 88.0 0.01136 112.51122 112.74249
40.7970 40.7122 96.0 0.01042 112.51566 112.74308
40.8138 40.7290 94.0 0.01064 112.52013 112.74376
40.8305 40.7457 98.0 0.01021 112.52458 112.74453
40.8472 40.7624 104.0 0.00961 112.52904 112.74538
40.8639 40.7791 94.0 0.01064 112.53349 112.74632
40.8806 40.7958 105.0 0.00952 112.53793 112.74735
40.8973 40.8125 96.0 0.01042 112.54238 112.74845
40.9141 40.8293 93.0 0.01075 112.54686 112.74964
40.9308 40.8460 95.0 0.01053 112.55131 112.75089
40.9475 40.8627 107.0 0.00935 112.55576 112.75222
40.9642 40.8794 92.0 0.01087 112.56020 112.75362
40.9809 40.8961 102.0 0.00980 112.56465 112.75509
40.9977 40.9129 118.0 0.00848 112.56913 112.75663
41.0144 40.9296 92.0 0.01087 112.57357 112.75823
41.0311 40.9463 114.0 0.00877 112.57803 112.75990
41.0478 40.9630 110.0 0.00909 112.58247 112.76161
41.0645 40.9797 129.0 0.00775 112.58692 112.76339
41.0813 40.9965 99.0 0.01010 112.59139 112.76524
41.0980 41.0132 94.0 0.01064 112.59585 112.76714
41.1147 41.0299 105.0 0.00952 112.60030 112.76907
41.1314 41.0466 101.0 0.00990 112.60474 112.77108
41.1481 41.0633 113.0 0.00885 112.60919 112.77313
41.1648 41.0800 114.0 0.00877 112.61364 112.77523
41.1816 41.0968 112.0 0.00893 112.61812 112.77739
41.1983 41.1135 109.0 0.00917 112.62257 112.77959
41.2150 41.1302 130.0 0.00769 112.62701 112.78183
41.2317 41.1469 120.0 0.00834 112.63146 112.78412
41.2484 41.1636 112.0 0.00893 112.63591 112.78645
41.2652 41.1804 124.0 0.00806 112.64039 112.78883
41.2819 41.1971 119.0 0.00840 112.64484 112.79124
41.2986 41.2138 115.0 0.00870 112.64928 112.79369
41.3153 41.2305 122.0 0.00819 112.65373 112.79619
41.3320 41.2472 109.0 0.00917 112.65818 112.79871
41.3488 41.2640 105.0 0.00952 112.66266 112.80129
41.3655 41.2807 126.0 0.00794 112.66711 112.80389
41.3822 41.2974 126.0 0.00794 112.67155 112.80653
41.3989 41.3141 121.0 0.00826 112.67600 112.67146
41.4156 41.3308 125.0 0.00800 112.68045 112.67590
41.4323 41.3475 121.0 0.00826 112.68490 112.68033
41.4491 41.3643 125.0 0.00800 112.68938 112.68479
41.4658 41.3810 117.0 0.00854 112.69382 112.68923
41.4825 41.3977 111.0 0.00900 112.69827 112.69366
41.4992 41.4144 103.0 0.00971 112.70272 112.69810
41.5159 41.4311 126.0 0.00794 112.70717 112.70254
41.5327 41.4479 115.0 0.00870 112.71165 112.70699
41.5494 41.4646 116.0 0.00862 112.71609 112.71143
41.5661 41.4813 123.0 0.00813 112.72054 112.71587
41.5828 41.4980 92.0 0.01087 112.72499 112.72030
41.5995 41.5147 109.0 0.00917 112.72944 112.72474
41.6163 41.5315 98.0 0.01021 112.73392 112.72919
41.6330 41.5482 102.0 0.00980 112.73837 112.73363
41.6497 41.5649 121.0 0.00826 112.74281 112.73807
41.6664 41.5816 110.0 0.00909 112.74726 112.74250
41.6831 41.5983 105.0 0.00952 112.75171 116.10797
41.6998 41.6150 121.0 0.00826 112.75616 116.14546
41.7166 41.6318 118.0 0.00848 112.76064 116.18371
41.7333 41.6485 135.0 0.00741 112.76508 116.22220
41.7500 41.6652 115.0 0.00870 112.76953 116.26120
41.7667 41.6819 121.0 0.00826 112.77398 116.30074
41.7834 41.6986 135.0 0.00741 112.77843 116.34080
41.8002 41.7154 146.0 0.00685 112.78291 116.38164
41.8169 41.7321 117.0 0.00854 112.78735 116.42278
41.8336 41.7488 105.0 0.00952 112.79180 116.46452
41.8503 41.7655 132.0 0.00757 112.79625 116.50682
41.8670 41.7822 116.0 0.00862 112.80070 116.54970
41.8838 41.7990 155.0 0.00645 112.80518 116.59344
41.9005 41.8157 151.0 0.00662 112.80962 116.63755
41.9172 41.8324 123.0 0.00813 112.81407 116.68227
41.9339 41.8491 130.0 0.00769 112.81852 116.72763
41.9506 41.8658 130.0 0.00769 112.82297 116.77364
41.9673 41.8825 129.0 0.00775 112.82742 118.24794
41.9841 41.8993 133.0 0.00752 112.83189 118.31163
42.0008 41.9160 147.0 0.00681 112.83634 118.37587
42.0175 41.9327 160.0 0.00625 112.81878 118.41910
42.0342 41.9494 154.0 0.00649 112.76870 118.43085
42.0509 41.9661 144.0 0.00694 112.71860 118.44363
42.0677 41.9829 148.0 0.00675 112.66822 118.45753
42.0844 41.9996 145.0 0.00690 112.61814 118.47242
42.1011 42.0163 137.0 0.00731 112.56803 118.48843
42.1178 42.0330 160.0 0.00625 112.51795 118.50556
42.1345 42.0497 154.0 0.00649 112.46786 118.52383
42.1513 42.0665 162.0 0.00617 112.41749 118.54340
42.1680 42.0832 134.0 0.00746 112.36739 118.56406
42.1847 42.0999 150.0 0.00666 112.31730 118.58595
42.2014 42.1166 155.0 0.00645 112.26723 118.60910
42.2181 42.1333 170.0 0.00588 112.21713 118.63352
42.2348 42.1500 166.0 0.00603 112.16707 118.65928
42.2516 42.1668 149.0 0.00671 112.11666 118.68655
42.2683 42.1835 161.0 0.00621 112.06658 118.71506
42.2850 42.2002 167.0 0.00599 112.01649 118.74496
42.3017 42.2169 160.0 0.00625 111.96640 118.77632
42.3184 42.2336 179.0 0.00559 111.91631 118.80917
42.3352 42.2504 149.0 0.00671 111.86593 118.84376
42.3519 42.2671 162.0 0.00617 111.81586 118.87968
42.3686 42.2838 170.0 0.00588 111.76575 118.91725
42.3853 42.3005 199.0 0.00502 111.71566 118.95642
42.4020 42.3172 217.0 0.00461 111.66558 118.99728
42.4188 42.3340 180.0 0.00555 111.61520 119.04010
42.4355 42.3507 226.0 0.00443 111.56511 119.08447
42.4522 42.3674 242.0 0.00413 111.51501 119.13063
42.4689 42.3841 251.0 0.00399 111.46493 119.17865
42.4856 42.4008 275.0 0.00364 111.41485 119.22858
42.5023 42.4175 301.0 0.003322 111.36477 119.28044
42.5191 42.4343 320.0 0.003124 111.31438 119.33469
42.5358 42.4510 292.0 0.003424 111.26428 119.39064
42.5525 42.4677 338.0 0.002960 111.21420 119.44872
42.5692 42.4844 291.0 0.003436 111.16412 119.50896
42.5859 42.5011 331.0 0.003022 111.11402 119.57146
42.6027 42.5179 294.0 0.003400 111.06364 119.63661
42.6194 42.5346 269.0 0.00372 111.01357 119.70372
42.6361 42.5513 248.0 0.00403 110.96346 119.77331
42.6528 42.5680 235.0 0.00426 110.91338 119.84535
42.6695 42.5847 260.0 0.00385 110.86329 119.91994
42.6863 42.6015 223.0 0.00449 110.81290 119.99763
42.7030 42.6182 216.0 0.00463 110.76281 120.07757
42.7197 42.6349 191.0 0.00524 110.71272 120.16026
42.7364 42.6516 174.0 0.00575 110.66264 120.24583
42.7531 42.6683 154.0 0.00649 110.61256 120.33435
42.7698 42.6850 170.0 0.00588 110.56248 120.42585
42.7866 42.7018 188.0 0.00532 110.51208 120.52111
42.8033 42.7185 166.0 0.00603 110.46200 120.61900
42.8200 42.7352 176.0 0.00568 110.41191 120.72016
42.8367 42.7519 117.0 0.00854 110.36182 120.82473
42.8534 42.7686 146.0 0.00685 110.31172 120.93284
42.8702 42.7854 136.0 0.00736 110.26134 121.04520
42.8869 42.8021 151.0 0.00662 110.21128 121.16059
42.9036 42.8188 143.0 0.00699 110.16117 121.27993
42.9203 42.8355 140.0 0.00715 110.11108 121.40314
42.9370 42.8522 146.0 0.00685 110.06100 121.53046
42.9538 42.8690 134.0 0.00746 110.01060 121.66279
42.9705 42.8857 122.0 0.00819 109.96052 121.79868
42.9872 42.9024 137.0 0.00731 109.91044 121.93906
43.0039 42.9191 141.0 0.00710 109.86035 122.08404
43.0206 42.9358 144.0 0.00694 109.81027 122.23383
43.0373 42.9525 150.0 0.00666 109.76019 122.38850
43.0541 42.9693 137.0 0.00731 109.70979 122.54938
43.0708 42.9860 139.0 0.00719 109.65971 122.71449
43.0875 43.0027 134.0 0.00746 109.60962 122.88507
43.1042 43.0194 141.0 0.00710 109.55954 123.06129
43.1209 43.0361 174.0 0.00575 109.50944 123.24339
43.1377 43.0529 156.0 0.00641 109.45906 123.43259
43.1544 43.0696 175.0 0.00571 109.40899 123.62689
43.1711 43.0863 161.0 0.00621 109.35887 123.82784
43.1878 43.1030 156.0 0.00641 109.30879 124.03537
43.2045 43.1197 168.0 0.00595 109.25871 124.24983
43.2213 43.1365 164.0 0.00609 109.20832 124.47287
43.2380 43.1532 159.0 0.00629 109.15823 124.70202
43.2547 43.1699 178.0 0.00562 109.10814 124.93889
43.2714 43.1866 186.0 0.00537 109.05807 125.18378
43.2881 43.2033 187.0 0.00535 109.00797 125.43700
43.3048 43.2200 188.0 0.00532 108.95791 125.69875
43.3216 43.2368 209.0 0.00478 108.90750 125.97133
43.3383 43.2535 201.0 0.00497 108.85741 126.25149
43.3550 43.2702 165.0 0.00606 108.80733 126.54134
43.3717 43.2869 200.0 0.00500 108.75724 126.84123
43.3884 43.3036 178.0 0.00562 108.70715 127.15168
43.4052 43.3204 176.0 0.00568 108.65677 127.47483
43.4219 43.3371 153.0 0.00654 108.60670 127.80735
43.4386 43.3538 166.0 0.00603 108.55659 128.15196
43.4553 43.3705 133.0 0.00752 108.50650 128.50864
43.4720 43.3872 173.0 0.00578 108.45642 128.87813
43.4888 43.4040 159.0 0.00629 108.40602 129.26332
43.5055 43.4207 148.0 0.00675 108.35593 129.66011
43.5222 43.4374 143.0 0.00699 108.30585 130.07143
43.5389 43.4541 143.0 0.00699 108.25577 130.49786
43.5556 43.4708 135.0 0.00741 108.20569 130.94012
43.5723 43.4875 135.0 0.00741 108.15562 131.39876
43.5891 43.5043 125.0 0.00800 108.10522 131.87793
43.6058 43.5210 129.0 0.00775 108.05512 132.37215
43.6225 43.5377 101.0 0.00990 108.00504 132.88524
43.6392 43.5544 114.0 0.00877 107.95496 133.41814
43.6559 43.5711 131.0 0.00763 107.90486 133.97191
43.6727 43.5879 106.0 0.00943 107.85448 134.55066
43.6894 43.6046 141.0 0.00710 107.80441 135.14871
43.7061 43.6213 127.0 0.00787 107.75430 135.77118
43.7228 43.6380 115.0 0.00870 107.70422 136.41838
43.7395 43.6547 135.0 0.00741 107.65413 137.09192
43.7563 43.6715 117.0 0.00854 107.60374 137.79753
43.7730 43.6882 134.0 0.00746 107.55365 138.52805
43.7897 43.7049 144.0 0.00694 107.50356 139.28920
43.8064 43.7216 126.0 0.00794 107.45348 140.08263
43.8231 43.7383 130.0 0.00769 107.40340 140.91005
43.8398 43.7550 107.0 0.00935 107.35333 141.77309
43.8566 43.7718 112.0 0.00893 107.30292 142.68010
43.8733 43.7885 129.0 0.00775 107.25283 143.62140
43.8900 43.8052 136.0 0.00736 107.20275 144.60495
43.9067 43.8219 127.0 0.00787 107.15266 145.63315
43.9234 43.8386 125.0 0.00800 107.10256 146.70894
43.9402 43.8554 134.0 0.00746 107.05219 147.84123
43.9569 43.8721 133.0 0.00752 107.00212 149.01985
43.9736 43.8888 139.0 0.00719 106.95201 150.25589
43.9903 43.9055 109.0 0.00917 106.90192 151.55106
44.0070 43.9222 134.0 0.00746 106.85183 152.90984
44.0238 43.9390 155.0 0.00645 106.80145 154.34529
44.0405 43.9557 158.0 0.00633 106.75136 155.84431
44.0572 43.9724 129.0 0.00775 106.70128 157.42023
44.0739 43.9891 132.0 0.00757 106.65119 159.07817
44.0906 44.0058 143.0 0.00699 106.60111 160.82381
44.1073 44.0225 138.0 0.00724 106.55103 162.66263
44.1241 44.0393 148.0 0.00675 106.50063 164.61519
44.1408 44.0560 148.0 0.00675 106.45055 166.66328
44.1575 44.0727 123.0 0.00813 106.40046 168.82692
44.1742 44.0894 147.0 0.00681 106.35038 171.11482
44.1909 44.1061 165.0 0.00606 106.30028 173.53708
44.2077 44.1229 148.0 0.00675 106.24990 176.11815
44.2244 44.1396 180.0 0.00555 106.19983 178.83934
44.2411 44.1563 167.0 0.00599 106.14971 181.73112
44.2578 44.1730 175.0 0.00571 106.09964 184.80319
44.2745 44.1897 166.0 0.00603 106.04955 188.07246
44.2913 44.2065 173.0 0.00578 105.99915 191.57797
44.3080 44.2232 162.0 0.00617 105.94907 195.29585
44.3247 44.2399 183.0 0.00546 105.89898 199.26772
44.3414 44.2566 161.0 0.00621 105.84891 203.51688
44.3581 44.2733 194.0 0.00515 105.79881 208.06934
44.3748 44.2900 166.0 0.00603 105.74875 212.95282
44.3916 44.3068 223.0 0.00449 105.69834 218.23788
44.4083 44.3235 200.0 0.00500 105.64825 223.89270
44.4250 44.3402 223.0 0.00449 105.59818 229.99146
44.4417 44.3569 213.0 0.00470 105.54808 236.58127
44.4584 44.3736 208.0 0.00481 105.49799 243.71791
44.4752 44.3904 201.0 0.00497 105.44761 251.50543
44.4919 44.4071 213.0 0.00470 105.39754 259.92294
44.5086 44.4238 227.0 0.00440 105.34743 269.10477
44.5253 44.4405 265.0 0.00377 105.29734 279.13071
44.5420 44.4572 257.0 0.00389 105.24725 290.11423
44.5588 44.4740 303.0 0.003299 105.19687 302.26065
44.5755 44.4907 275.0 0.00364 105.14677 315.57541
44.5922 44.5074 330.0 0.003029 105.09669 330.31693
44.6089 44.5241 343.0 0.002916 105.04661 346.72299
44.6256 44.5408 347.0 0.002881 104.99653 365.10645
44.6423 44.5575 377.0 0.002652 104.94646 385.88904
44.6591 44.5743 426.0 0.002347 104.89604 409.85449
44.6758 44.5910 402.0 0.002488 104.84597 437.57794
44.6925 44.6077 490.0 0.002040 104.79588 470.49637
44.7092 44.6244 498.0 0.002007 104.74580 510.49612
44.7259 44.6411 618.0 0.001618 104.69570 560.29413
44.7427 44.6579 680.0 0.001470 104.64532 624.04132
44.7594 44.6746 801.0 0.001249 104.59525 706.05994
44.7761 44.6913 945.0 0.001058 104.54514 813.29858
44.7928 44.7080 1097.0 0.000912 104.49506 953.58081
44.8095 44.7247 1306.0 0.000766 104.44497 1136.19031
44.8263 44.7415 1621.0 0.000617 104.39457 1372.78296
44.8430 44.7582 1832.0 0.000546 104.34449 1670.61377
44.8597 44.7749 2187.0 0.000457 104.29440 2040.10657
44.8764 44.7916 2659.0 0.000376 104.24432 2488.24854
44.8931 44.8083 3299.0 0.0003031 104.19424 3018.38892
44.9098 44.8250 3774.0 0.0002650 104.14417 3628.22656
44.9266 44.8418 4439.0 0.0002252 104.09376 4312.87549
44.9433 44.8585 5217.0 0.0001917 104.04367 5043.61377
44.9600 44.8752 6028.0 0.0001659 103.99359 5794.81006
44.9767 44.8919 7004.0 0.0001428 103.94350 6531.21973
44.9934 44.9086 7858.0 0.0001272 103.89340 7221.93604
45.0102 44.9254 8794.0 0.0001137 103.84303 7850.66602
45.0269 44.9421 9370.0 0.0001067 103.79296 8399.24609
45.0436 44.9588 9984.0 0.0001002 103.74285 8856.22559
45.0603 44.9755 10453.0 0.0000957 103.69276 9187.53809
45.0770 44.9922 10412.0 0.0000961 103.64267 9341.96680
45.0938 45.0090 10152.0 0.0000984 103.59229 9264.46484
45.1105 45.0257 9877.0 0.0001013 103.54220 8927.08691
45.1272 45.0424 8943.0 0.0001118 103.49212 8346.95996
45.1439 45.0591 8125.0 0.0001231 103.44203 7583.01758
45.1606 45.0758 7135.0 0.0001402 103.39195 6713.22119
45.1773 45.0925 6321.0 0.0001582 103.34187 5811.41113
45.1941 45.1093 5250.0 0.0001905 103.29147 4928.93701
45.2108 45.1260 4338.0 0.0002305 103.24139 4116.90039
45.2275 45.1427 3647.0 0.0002742 103.19130 3393.39355
45.2442 45.1594 2916.0 0.0003429 103.14122 2769.99829
45.2609 45.1761 2366.0 0.000423 103.09112 2248.61572
45.2777 45.1929 2053.0 0.000487 103.04074 1822.27051
45.2944 45.2096 1617.0 0.000618 102.99067 1485.89502
45.3111 45.2263 1397.0 0.000716 102.94055 1223.82019
45.3278 45.2430 1140.0 0.000877 102.89046 1023.02551
45.3445 45.2597 990.0 0.001010 102.84039 870.46967
45.3613 45.2765 849.0 0.001178 102.78999 754.14795
45.3780 45.2932 760.0 0.001316 102.73991 665.98492
45.3947 45.3099 640.0 0.001562 102.68982 597.74298
45.4114 45.3266 611.0 0.001636 102.63975 543.84180
45.4281 45.3433 529.0 0.001890 102.58965 500.24448
45.4448 45.3600 479.0 0.002087 102.53959 464.12650
45.4616 45.3768 463.0 0.002159 102.48918 433.33597
45.4783 45.3935 439.0 0.002278 102.43909 406.94443
45.4950 45.4102 381.0 0.002624 102.38902 383.83295
45.5117 45.4269 402.0 0.002488 102.33893 363.37076
45.5284 45.4436 324.0 0.003086 102.28883 345.10022
45.5452 45.4604 360.0 0.002779 102.23845 328.60403
45.5619 45.4771 311.0 0.003214 102.18839 313.81055
45.5786 45.4938 333.0 0.003002 102.13827 300.39410
45.5953 45.5105 307.0 0.003258 102.08818 288.20322
45.6120 45.5272 307.0 0.003258 102.03809 277.08569
45.6288 45.5440 267.0 0.00375 101.98771 266.85928
45.6455 45.5607 277.0 0.00361 101.93761 257.54306
45.6622 45.5774 259.0 0.00386 101.88754 248.98093
45.6789 45.5941 232.0 0.00431 101.83745 241.09377
45.6956 45.6108 231.0 0.00433 101.78736 233.81259
45.7123 45.6275 214.0 0.00467 101.73730 227.07883
45.7291 45.6443 210.0 0.00476 101.68688 220.79674
45.7458 45.6610 196.0 0.00510 101.63681 215.00151
45.7625 45.6777 182.0 0.00550 101.58672 209.61005
45.7792 45.6944 198.0 0.00505 101.53664 204.58560
45.7959 45.7111 185.0 0.00541 101.48654 199.89412
45.8127 45.7279 187.0 0.00535 101.43616 195.48439
45.8294 45.7446 155.0 0.00645 101.38609 191.38127
45.8461 45.7613 180.0 0.00555 101.33598 187.53036
45.8628 45.7780 170.0 0.00588 101.28589 183.91641
45.8795 45.7947 153.0 0.00654 101.23581 180.51826
45.8963 45.8115 155.0 0.00645 101.18541 177.29982
45.9130 45.8282 179.0 0.00559 101.13533 174.28493
45.9297 45.8449 157.0 0.00637 101.08524 171.43944
45.9464 45.8616 143.0 0.00699 101.03516 168.75072
45.9631 45.8783 148.0 0.00675 100.98508 166.20729
45.9798 45.8950 137.0 0.00731 100.93501 163.79944
45.9966 45.9118 156.0 0.00641 100.88460 161.50189
46.0133 45.9285 153.0 0.00654 100.83451 159.33600
46.0300 45.9452 123.0 0.00813 100.78443 157.27872
46.0467 45.9619 133.0 0.00752 100.73434 155.32278
46.0634 45.9786 130.0 0.00769 100.68424 153.46095
46.0802 45.9954 122.0 0.00819 100.63387 151.67805
46.0969 46.0121 122.0 0.00819 100.58380 149.98906
46.1136 46.0288 129.0 0.00775 100.53369 148.37622
46.1303 46.0455 129.0 0.00775 100.48360 146.83711
46.1470 46.0622 113.0 0.00885 100.43351 145.36635
46.1638 46.0790 138.0 0.00724 100.38313 143.95137
46.1805 46.0957 143.0 0.00699 100.33304 142.60558
46.1972 46.1124 139.0 0.00719 100.28296 141.31668
46.2139 46.1291 110.0 0.00909 100.23287 140.08138
46.2306 46.1458 99.0 0.01010 100.18278 138.89659
46.2473 46.1625 126.0 0.00794 100.13271 137.75987
46.2641 46.1793 124.0 0.00806 100.08231 136.66103
46.2808 46.1960 95.0 0.01053 100.03223 135.61194
46.2975 46.2127 116.0 0.00862 99.98214 134.60318
46.3142 46.2294 117.0 0.00854 99.93206 133.63263
46.3309 46.2461 113.0 0.00885 99.88196 132.70889
46.3477 46.2629 127.0 0.00787 99.83157 131.80377
46.3644 46.2796 79.0 0.01266 99.78151 130.93686
46.3811 46.2963 119.0 0.00840 99.73139 130.10011
46.3978 46.3130 93.0 0.01075 99.68130 129.29324
46.4145 46.3297 104.0 0.00961 99.63123 128.51431
46.4313 46.3465 129.0 0.00775 99.58083 127.75742
46.4480 46.3632 107.0 0.00935 99.53075 127.03053
46.4647 46.3799 110.0 0.00909 99.48067 126.32773
46.4814 46.3966 91.0 0.01099 99.43059 125.64790
46.4981 46.4133 93.0 0.01075 99.38049 124.98999
46.5148 46.4300 93.0 0.01075 99.33043 124.35315
46.5316 46.4468 118.0 0.00848 99.28002 123.73218
46.5483 46.4635 111.0 0.00900 99.22993 123.13429
46.5650 46.4802 96.0 0.01042 99.17986 122.55463
46.5817 46.4969 85.0 0.01176 99.12977 121.99238
46.5984 46.5136 93.0 0.01075 99.07967 121.44663
46.6152 46.5304 100.0 0.01000 99.02929 120.91396
46.6319 46.5471 116.0 0.00862 98.97923 120.39983
46.6486 46.5638 113.0 0.00885 98.92910 119.89989
46.6653 46.5805 115.0 0.00870 98.87902 119.41427
46.6820 46.5972 91.0 0.01099 98.82893 118.94209
46.6988 46.6140 120.0 0.00834 98.77855 118.48004
46.7155 46.6307 93.0 0.01075 98.72845 118.03322
46.7322 46.6474 79.0 0.01266 98.67838 117.59829
46.7489 46.6641 95.0 0.01053 98.62829 117.17475
46.7656 46.6808 87.0 0.01150 98.57820 116.76219
46.7823 46.6975 105.0 0.00952 98.52814 116.36030
46.7991 46.7143 98.0 0.01021 98.47772 115.96593
46.8158 46.7310 90.0 0.01111 98.42765 115.58388
46.8325 46.7477 100.0 0.01000 98.37756 115.21120
46.8492 46.7644 89.0 0.01124 98.32748 114.84756
46.8659 46.7811 100.0 0.01000 98.27738 114.49252
46.8827 46.7979 87.0 0.01150 98.22700 114.14397
46.8994 46.8146 110.0 0.00909 98.17693 113.80564
46.9161 46.8313 98.0 0.01021 98.12682 113.47481
46.9328 46.8480 113.0 0.00885 98.07673 113.66367
46.9495 46.8647 90.0 0.01111 98.02665 113.35228
46.9663 46.8815 90.0 0.01111 97.97625 113.04610
46.9830 46.8982 97.0 0.01031 97.92617 112.74861
46.9997 46.9149 105.0 0.00952 97.87608 112.45770
47.0164 46.9316 74.0 0.01351 97.82600 112.17314
47.0331 46.9483 98.0 0.01021 97.77592 111.89474
47.0498 46.9650 91.0 0.01099 97.72585 111.62236
47.0666 46.9818 107.0 0.00935 97.67544 111.35396
47.0833 46.9985 83.0 0.01205 97.62535 111.09283
47.1000 47.0152 93.0 0.01075 97.57527 110.83710
47.1167 47.0319 88.0 0.01136 97.52518 110.58659
47.1334 47.0486 98.0 0.01021 97.47508 110.34106
47.1502 47.0654 84.0 0.01191 97.42471 110.09908
47.1669 47.0821 90.0 0.01111 97.37464 109.86336
47.1836 47.0988 99.0 0.01010 97.32452 109.63200
47.2003 47.1155 107.0 0.00935 97.27444 109.40527
47.2170 47.1322 108.0 0.00926 97.22435 109.18284
47.2338 47.1490 95.0 0.01053 97.17397 108.96329
47.2505 47.1657 104.0 0.00961 97.12388 108.74915
47.2672 47.1824 78.0 0.01282 97.07380 108.53897
47.2839 47.1991 91.0 0.01099 97.02371 108.33262
47.3006 47.2158 78.0 0.01282 96.97363 108.13000
47.3173 47.2325 86.0 0.01163 96.92355 107.93107
47.3341 47.2493 83.0 0.01205 96.87315 108.21839
47.3508 47.2660 91.0 0.01099 96.82307 108.03114
47.3675 47.2827 96.0 0.01042 96.77298 107.84728
47.3842 47.2994 108.0 0.00926 96.72289 107.66674
47.4009 47.3161 108.0 0.00926 96.67280 107.48936
47.4177 47.3329 101.0 0.00990 96.62241 107.31418
47.4344 47.3496 99.0 0.01010 96.57235 107.14314
47.4511 47.3663 92.0 0.01087 96.52224 106.97495
47.4678 47.3830 95.0 0.01053 96.47215 106.80974
47.4845 47.3997 107.0 0.00935 96.42207 106.64741
47.5013 47.4165 91.0 0.01099 96.37167 106.48685
47.5180 47.4332 99.0 0.01010 96.32159 106.33000
47.5347 47.4499 109.0 0.00917 96.27151 106.17580
47.5514 47.4666 83.0 0.01205 96.22141 106.02419
47.5681 47.4833 87.0 0.01150 96.17134 105.87510
47.5848 47.5000 104.0 0.00961 96.12127 105.72854
47.6016 47.5168 92.0 0.01087 96.07086 105.58340
47.6183 47.5335 93.0 0.01075 96.02077 105.44158
47.6350 47.5502 74.0 0.01351 95.97070 105.30209
47.6517 47.5669 92.0 0.01087 95.92061 105.52240
47.6684 47.5836 91.0 0.01099 95.87051 105.39134
47.6852 47.6004 97.0 0.01031 95.82013 105.26183
47.7019 47.6171 104.0 0.00961 95.77007 105.13531
47.7186 47.6338 99.0 0.01010 95.71994 105.01086
47.7353 47.6505 97.0 0.01031 95.66986 104.88860
47.7520 47.6672 109.0 0.00917 95.61977 104.76843
47.7688 47.6840 93.0 0.01075 95.56939 104.64962
47.7855 47.7007 113.0 0.00885 95.51929 104.53355
47.8022 47.7174 104.0 0.00961 95.46922 104.41948
47.8189 47.7341 128.0 0.00782 95.41913 104.30737
47.8356 47.7508 117.0 0.00854 95.36904 104.19719
47.8523 47.7675 90.0 0.01111 95.31898 104.08897
47.8691 47.7843 105.0 0.00952 95.26857 103.98191
47.8858 47.8010 104.0 0.00961 95.21849 103.87743
47.9025 47.8177 107.0 0.00935 95.16840 103.77477
47.9192 47.8344 136.0 0.00736 95.11831 103.67393
47.9359 47.8511 108.0 0.00926 95.06822 103.57487
47.9527 47.8679 132.0 0.00757 95.01784 103.47704
47.9694 47.8846 89.0 0.01124 94.96777 103.38161
47.9861 47.9013 99.0 0.01010 94.91766 103.28782
48.0028 47.9180 116.0 0.00862 94.86757 103.19581
48.0195 47.9347 114.0 0.00877 94.81749 103.10556
48.0363 47.9515 92.0 0.01087 94.76709 103.01643
48.0530 47.9682 125.0 0.00800 94.71701 102.92959
48.0697 47.9849 113.0 0.00885 94.66692 102.84442
48.0864 48.0016 122.0 0.00819 94.61684 102.76093
48.1031 48.0183 105.0 0.00952 94.56676 102.67914
48.1198 48.0350 107.0 0.00935 94.51668 102.59900
48.1366 48.0518 107.0 0.00935 94.46629 102.52005
48.1533 48.0685 116.0 0.00862 94.41619 102.44325
48.1700 48.0852 104.0 0.00961 94.36611 102.36810
48.1867 48.1019 103.0 0.00971 94.31602 102.29465
48.2034 48.1186 106.0 0.00943 94.26592 102.22280
48.2202 48.1354 101.0 0.00990 94.21555 102.15226
48.2369 48.1521 122.0 0.00819 94.16548 102.08383
48.2536 48.1688 106.0 0.00943 94.11536 102.01701
48.2703 48.1855 85.0 0.01176 94.06528 101.95190
48.2870 48.2022 102.0 0.00980 94.01519 101.88850
48.3038 48.2190 119.0 0.00840 93.96481 101.82644
48.3205 48.2357 122.0 0.00819 93.91472 101.76646
48.3372 48.2524 124.0 0.00806 93.86463 101.70823
48.3539 48.2691 95.0 0.01053 93.81455 101.65175
48.3706 48.2858 95.0 0.01053 93.76447 101.59704
48.3873 48.3025 121.0 0.00826 93.71439 101.54413
48.4041 48.3193 107.0 0.00935 93.66399 101.49269
48.4208 48.3360 123.0 0.00813 93.61391 101.44343
48.4375 48.3527 113.0 0.00885 93.56382 101.39603
48.4542 48.3694 103.0 0.00971 93.51373 101.35052
48.4709 48.3861 114.0 0.00877 93.46364 101.30698
48.4877 48.4029 110.0 0.00909 93.41325 101.26512
48.5044 48.4196 98.0 0.01021 93.36319 96.79385
48.5211 48.4363 117.0 0.00854 93.31308 96.79911
48.5378 48.4530 102.0 0.00980 93.26299 96.80585
48.5545 48.4697 102.0 0.00980 93.21291 96.81416
48.5713 48.4865 111.0 0.00900 93.16251 96.82413
48.5880 48.5032 89.0 0.01124 93.11243 96.83575
48.6047 48.5199 117.0 0.00854 93.06235 96.84913
48.6214 48.5366 98.0 0.01021 93.01225 96.86439
48.6381 48.5533 97.0 0.01031 92.96218 96.88158
48.6548 48.5700 123.0 0.00813 92.91210 96.90083
48.6716 48.5868 118.0 0.00848 92.86170 96.92239
48.6883 48.6035 101.0 0.00990 92.81161 96.94608
48.7050 48.6202 99.0 0.01010 92.76152 96.97218
48.7217 48.6369 115.0 0.00870 92.71145 97.00087
48.7384 48.6536 98.0 0.01021 92.66135 97.03225
48.7552 48.6704 97.0 0.01031 92.61097 97.06672
48.7719 48.6871 106.0 0.00943 92.56089 97.10403
48.7886 48.7038 113.0 0.00885 92.51078 97.14468
48.8053 48.7205 92.0 0.01087 92.46070 97.18884
48.8220 48.7372 97.0 0.01031 92.41061 97.23679
48.8388 48.7540 111.0 0.00900 92.36023 97.28916
48.8555 48.7707 135.0 0.00741 92.31013 97.34567
48.8722 48.7874 115.0 0.00870 92.26005 97.40703
48.8889 48.8041 111.0 0.00900 92.20997 97.47369
48.9056 48.8208 108.0 0.00926 92.15988 97.54617
48.9223 48.8375 107.0 0.00935 92.10982 97.62515
48.9391 48.8543 137.0 0.00731 92.05941 97.71207
48.9558 48.8710 141.0 0.00710 92.00933 97.80688
48.9725 48.8877 136.0 0.00736 91.95924 97.91164
48.9892 48.9044 141.0 0.00710 91.90915 98.02857
49.0059 48.9211 154.0 0.00649 91.85905 98.16106
49.0227 48.9379 147.0 0.00681 91.80868 98.31517
49.0394 48.9546 184.0 0.00544 91.75861 98.49705
49.0561 48.9713 199.0 0.00502 91.70850 98.71980
49.0728 48.9880 185.0 0.00541 91.65841 99.00071
49.0895 49.0047 210.0 0.00476 91.60833 99.36478
49.1063 49.0215 232.0 0.00431 91.55793 99.84873
49.1230 49.0382 194.0 0.00515 91.50785 100.48923
49.1397 49.0549 238.0 0.00420 91.45776 101.33881
49.1564 49.0716 240.0 0.00417 91.40768 102.45159
49.1731 49.0883 232.0 0.00431 91.35760 103.87952
49.1898 49.1050 231.0 0.00433 91.30752 105.66269
49.2066 49.1218 253.0 0.00395 91.25713 107.83578
49.2233 49.1385 235.0 0.00426 91.20703 110.35528
49.2400 49.1552 197.0 0.00507 91.15694 113.17412
49.2567 49.1719 164.0 0.00609 91.10686 116.17932
49.2734 49.1886 202.0 0.00495 91.05676 119.19826
49.2902 49.2054 186.0 0.00537 91.00639 122.00726
49.3069 49.2221 150.0 0.00666 90.95631 124.28240
49.3236 49.2388 159.0 0.00629 90.90620 125.74341
49.3403 49.2555 155.0 0.00645 90.85612 126.16629
49.3570 49.2722 131.0 0.00763 90.80604 125.50182
49.3738 49.2890 132.0 0.00757 90.75565 123.88326
49.3905 49.3057 161.0 0.00621 90.70556 121.60578
49.4072 49.3224 150.0 0.00666 90.65547 118.96604
49.4239 49.3391 129.0 0.00775 90.60539 116.23119
49.4406 49.3558 124.0 0.00806 90.55531 113.60724
49.4573 49.3725 127.0 0.00787 90.50523 111.23814
49.4741 49.3893 151.0 0.00662 90.45483 109.19676
49.4908 49.4060 111.0 0.00900 90.40475 107.54710
49.5075 49.4227 123.0 0.00813 90.35466 106.27258
49.5242 49.4394 122.0 0.00819 90.30457 105.34296
49.5409 49.4561 123.0 0.00813 90.25447 104.71140
49.5577 49.4729 135.0 0.00741 90.20409 104.32351
49.5744 49.4896 132.0 0.00757 90.15403 104.13156
49.5911 49.5063 109.0 0.00917 90.10392 104.08712
49.6078 49.5230 110.0 0.00909 90.05383 104.15343
49.6245 49.5397 122.0 0.00819 90.00375 104.30255
49.6413 49.5565 128.0 0.00782 89.95335 104.51600
49.6580 49.5732 95.0 0.01053 89.90327 104.77773
49.6747 49.5899 120.0 0.00834 89.85319 105.08039
49.6914 49.6066 111.0 0.00900 89.80309 105.41893
49.7081 49.6233 127.0 0.00787 89.75302 105.79070
49.7248 49.6400 101.0 0.00990 89.70294 106.19440
49.7416 49.6568 100.0 0.01000 89.65254 106.63306
49.7583 49.6735 123.0 0.00813 89.60246 107.10152
49.7750 49.6902 120.0 0.00834 89.55237 107.60347
49.7917 49.7069 122.0 0.00819 89.50229 108.14035
49.8084 49.7236 123.0 0.00813 89.45219 108.71402
49.8252 49.7404 140.0 0.00715 89.40181 109.32986
49.8419 49.7571 121.0 0.00826 89.35173 109.98299
49.8586 49.7738 129.0 0.00775 89.30162 110.68028
49.8753 49.7905 102.0 0.00980 89.25154 111.42368
49.8920 49.8072 116.0 0.00862 89.20145 112.21683
49.9088 49.8240 101.0 0.00990 89.15107 113.06878
49.9255 49.8407 131.0 0.00763 89.10098 113.97321
49.9422 49.8574 121.0 0.00826 89.05089 114.93968
49.9589 49.8741 134.0 0.00746 89.00081 115.97324
49.9756 49.8908 130.0 0.00769 88.95072 117.07951
49.9923 49.9075 127.0 0.00787 88.90066 118.26440
50.0091 49.9243 139.0 0.00719 88.85025 119.54404
50.0258 49.9410 111.0 0.00900 88.80016 120.90961
50.0425 49.9577 102.0 0.00980 88.75008 122.37779
50.0592 49.9744 110.0 0.00909 88.69999 123.95838
50.0759 49.9911 147.0 0.00681 88.64989 125.66301
50.0927 50.0079 128.0 0.00782 88.59952 127.51432
50.1094 50.0246 137.0 0.00731 88.54945 129.50487
50.1261 50.0413 141.0 0.00710 88.49934 131.66348
50.1428 50.0580 117.0 0.00854 88.44925 134.00531
50.1595 50.0747 162.0 0.00617 88.39917 136.55238
50.1763 50.0915 136.0 0.00736 88.34877 139.34631
50.1930 50.1082 164.0 0.00609 88.29868 142.38068
50.2097 50.1249 146.0 0.00685 88.24860 145.70367
50.2264 50.1416 150.0 0.00666 88.19852 149.35268
50.2431 50.1583 166.0 0.00603 88.14844 153.37219
50.2598 50.1750 136.0 0.00736 88.09836 157.81485
50.2766 50.1918 149.0 0.00671 88.04796 162.78433
50.2933 50.2085 183.0 0.00546 87.99787 168.30402
50.3100 50.2252 172.0 0.00582 87.94778 174.52234
50.3267 50.2419 169.0 0.00592 87.89771 181.60515
50.3434 50.2586 189.0 0.00529 87.84760 189.79391
50.3602 50.2754 200.0 0.00500 87.79723 199.49522
50.3769 50.2921 216.0 0.00463 87.74715 211.11060
50.3936 50.3088 237.0 0.00422 87.69704 225.45284
50.4103 50.3255 290.0 0.003448 87.64697 243.55991
50.4270 50.3422 291.0 0.003436 87.59687 266.89529
50.4438 50.3590 308.0 0.003247 87.54649 297.60559
50.4605 50.3757 340.0 0.002941 87.49640 337.78735
50.4772 50.3924 388.0 0.002577 87.44631 390.58066
50.4939 50.4091 533.0 0.001876 87.39623 459.38773
50.5106 50.4258 525.0 0.001905 87.34615 547.83917
50.5273 50.4425 615.0 0.001626 87.29607 659.44409
50.5441 50.4593 805.0 0.001242 87.24567 798.27350
50.5608 50.4760 891.0 0.001122 87.19558 964.50763
50.5775 50.4927 1064.0 0.000940 87.14550 1159.22961
50.5942 50.5094 1280.0 0.000781 87.09541 1380.32629
50.6109 50.5261 1413.0 0.000708 87.04531 1622.64587
50.6277 50.5429 1729.0 0.000578 86.99493 1878.74121
50.6444 50.5596 1967.0 0.000508 86.94487 2133.49170
50.6611 50.5763 2229.0 0.000449 86.89475 2374.86255
50.6778 50.5930 2364.0 0.000423 86.84467 2589.20459
50.6945 50.6097 2596.0 0.000385 86.79458 2764.86328
50.7113 50.6265 2674.0 0.000374 86.74419 2891.05908
50.7280 50.6432 2650.0 0.000377 86.69410 2954.26611
50.7447 50.6599 2648.0 0.000378 86.64403 2944.89990
50.7614 50.6766 2584.0 0.000387 86.59393 2858.48755
50.7781 50.6933 2381.0 0.000420 86.54386 2700.34155
50.7948 50.7100 2182.0 0.000458 86.49378 2485.33423
50.8116 50.7268 1855.0 0.000539 86.44338 2231.91113
50.8283 50.7435 1669.0 0.000599 86.39330 1964.19409
50.8450 50.7602 1489.0 0.000672 86.34320 1698.22559
50.8617 50.7769 1233.0 0.000811 86.29313 1446.96521
50.8784 50.7936 1048.0 0.000954 86.24303 1218.75037
50.8952 50.8104 817.0 0.001224 86.19265 1017.17926
50.9119 50.8271 756.0 0.001322 86.14257 846.12012
50.9286 50.8438 592.0 0.001689 86.09246 703.46796
50.9453 50.8605 509.0 0.001965 86.04238 587.25562
50.9620 50.8772 424.0 0.002359 85.99229 494.29022
50.9788 50.8940 422.0 0.002370 85.94189 420.65973
50.9955 50.9107 361.0 0.002770 85.89182 363.70279
51.0122 50.9274 293.0 0.003412 85.86327 319.64142
51.0289 50.9441 287.0 0.003485 85.91824 285.65594
51.0456 50.9608 242.0 0.00413 85.97322 259.26434
51.0623 50.9775 227.0 0.00440 86.02818 238.55751
51.0791 50.9943 241.0 0.00415 86.08352 221.95456
51.0958 51.0110 207.0 0.00483 86.13850 208.56860
51.1125 51.0277 205.0 0.00488 86.19347 197.48048
51.1292 51.0444 172.0 0.00582 86.24845 188.11711
51.1459 51.0611 187.0 0.00535 86.30345 180.07036
51.1627 51.0779 196.0 0.00510 86.35875 173.01973
51.1794 51.0946 192.0 0.00521 86.41370 166.84149
51.1961 51.1113 159.0 0.00629 86.46871 161.33792
51.2128 51.1280 130.0 0.00769 86.52370 156.40797
51.2295 51.1447 159.0 0.00629 86.57868 151.96484
51.2463 51.1615 150.0 0.00666 86.63400 147.91942
51.2630 51.1782 148.0 0.00675 86.68897 144.26781
51.2797 51.1949 147.0 0.00681 86.74395 140.94020
51.2964 51.2116 121.0 0.00826 86.79893 137.89966
51.3131 51.2283 134.0 0.00746 86.85390 135.11459
51.3298 51.2450 158.0 0.00633 86.90887 132.55852
51.3466 51.2618 137.0 0.00731 86.96421 130.19176
51.3633 51.2785 127.0 0.00787 87.01918 128.02458
51.3800 51.2952 131.0 0.00763 87.07417 126.02314
51.3967 51.3119 131.0 0.00763 87.12914 124.17146
51.4134 51.3286 130.0 0.00769 87.18413 122.45500
51.4302 51.3454 112.0 0.00893 87.23943 120.85329
51.4469 51.3621 123.0 0.00813 87.29440 119.37373
51.4636 51.3788 112.0 0.00893 87.34940 117.99512
51.4803 51.3955 116.0 0.00862 87.40438 116.71070
51.4970 51.4122 148.0 0.00675 87.45936 115.51176
51.5138 51.4290 118.0 0.00848 87.51469 114.38459
51.5305 51.4457 122.0 0.00819 87.56966 113.33650
51.5472 51.4624 105.0 0.00952 87.62464 112.35469
51.5639 51.4791 103.0 0.00971 87.67961 111.43395
51.5806 51.4958 111.0 0.00900 87.73459 110.56963
51.5973 51.5125 114.0 0.00877 87.78955 109.75767
51.6141 51.5293 121.0 0.00826 87.84489 108.98901
51.6308 51.5460 98.0 0.01021 87.89987 108.27020
51.6475 51.5627 106.0 0.00943 87.95484 107.59295
51.6642 51.5794 117.0 0.00854 88.00983 106.95438
51.6809 51.5961 118.0 0.00848 88.06482 106.35164
51.6977 51.6129 95.0 0.01053 88.12012 105.77938
51.7144 51.6296 123.0 0.00813 88.17508 105.24201
51.7311 51.6463 110.0 0.00909 88.23009 104.73346
51.7478 51.6630 134.0 0.00746 88.28506 104.25258
51.7645 51.6797 107.0 0.00935 88.34005 103.79732
51.7813 51.6965 101.0 0.00990 88.39536 103.36349
51.7980 51.7132 124.0 0.00806 88.45035 102.95493
51.8147 51.7299 125.0 0.00800 88.50532 102.56753
51.8314 51.7466 108.0 0.00926 88.56030 102.20004
51.8481 51.7633 111.0 0.00900 88.61527 101.85125
51.8648 51.7800 111.0 0.00900 88.67024 101.52022
51.8816 51.7968 104.0 0.00961 88.72558 101.20373
51.8983 51.8135 120.0 0.00834 88.78055 100.90501
51.9150 51.8302 110.0 0.00909 88.83553 100.62109
51.9317 51.8469 106.0 0.00943 88.89050 100.35116
51.9484 51.8636 89.0 0.01124 88.94550 100.09441
51.9652 51.8804 110.0 0.00909 89.00079 99.84886
51.9819 51.8971 109.0 0.00917 89.05576 99.61671
51.9986 51.9138 102.0 0.00980 89.11078 99.39560
52.0153 51.9305 115.0 0.00870 89.16576 99.18532
52.0320 51.9472 113.0 0.00885 89.22073 98.98512
52.0488 51.9640 102.0 0.00980 89.27605 98.79343
52.0655 51.9807 120.0 0.00834 89.33102 98.61206
52.0822 51.9974 124.0 0.00806 89.38601 98.43938
52.0989 52.0141 94.0 0.01064 89.44098 98.27498
52.1156 52.0308 97.0 0.01031 89.49596 98.11844
52.1323 52.0475 97.0 0.01031 89.55092 97.96945
52.1491 52.0643 83.0 0.01205 89.60625 97.82670
52.1658 52.0810 105.0 0.00952 89.66124 97.69168
52.1825 52.0977 96.0 0.01042 89.71621 97.56319
52.1992 52.1144 130.0 0.00769 89.77119 97.44090
52.2159 52.1311 115.0 0.00870 89.82619 97.32451
52.2327 52.1479 113.0 0.00885 89.88148 97.21320
52.2494 52.1646 98.0 0.01021 89.93645 97.10802
52.2661 52.1813 106.0 0.00943 89.99146 97.00794
52.2828 52.1980 108.0 0.00926 90.04644 96.91290
52.2995 52.2147 102.0 0.00980 90.10142 96.82262
52.3163 52.2315 103.0 0.00971 90.15673 96.73637
52.3330 52.2482 99.0 0.01010 90.21172 96.65506
52.3497 52.2649 94.0 0.01064 90.26669 96.56707
52.3664 52.2816 106.0 0.00943 90.32167 96.49408
52.3831 52.2983 107.0 0.00935 90.37666 96.42495
52.3998 52.3150 98.0 0.01021 90.43161 96.35955
52.4166 52.3318 92.0 0.01087 90.48695 96.29729
52.4333 52.3485 83.0 0.01205 90.54192 96.23886
52.4500 52.3652 101.0 0.00990 90.59690 96.18372
52.4667 52.3819 107.0 0.00935 90.65187 96.13174
52.4834 52.3986 96.0 0.01042 90.70687 96.08279
52.5002 52.4154 90.0 0.01111 90.76216 96.03651
52.5169 52.4321 116.0 0.00862 90.81714 95.99338
52.5336 52.4488 112.0 0.00893 90.87215 95.95290
52.5503 52.4655 114.0 0.00877 90.92713 95.91506
52.5670 52.4822 103.0 0.00971 90.98210 100.99627
52.5838 52.4990 110.0 0.00909 91.03742 101.01383
52.6005 52.5157 94.0 0.01064 91.09239 101.03437
52.6172 52.5324 107.0 0.00935 91.14738 101.05794
52.6339 52.5491 104.0 0.00961 91.20235 101.08447
52.6506 52.5658 90.0 0.01111 91.25733 101.11389
52.6673 52.5825 100.0 0.01000 91.31229 101.14615
52.6841 52.5993 116.0 0.00862 91.36762 101.18144
52.7008 52.6160 104.0 0.00961 91.42261 101.21925
52.7175 52.6327 116.0 0.00862 91.47758 101.25975
52.7342 52.6494 112.0 0.00893 91.53256 101.30291
52.7509 52.6661 96.0 0.01042 91.58755 101.34869
52.7677 52.6829 106.0 0.00943 91.64285 101.39731
52.7844 52.6996 106.0 0.00943 91.69781 101.44818
52.8011 52.7163 100.0 0.01000 91.75282 101.50159
52.8178 52.7330 119.0 0.00840 91.80781 101.55746
52.8345 52.7497 98.0 0.01021 91.86279 101.61579
52.8513 52.7665 107.0 0.00935 91.91810 101.67690
52.8680 52.7832 104.0 0.00961 91.97308 101.74007
52.8847 52.7999 110.0 0.00909 92.02805 101.80560
52.9014 52.8166 103.0 0.00971 92.08304 103.73940
52.9181 52.8333 104.0 0.00961 92.13802 103.83052
52.9348 52.8500 98.0 0.01021 92.19298 103.92428
52.9516 52.8668 120.0 0.00834 92.24831 104.02139
52.9683 52.8835 84.0 0.01191 92.30328 104.12056
52.9850 52.9002 113.0 0.00885 92.35827 104.22243
53.0017 52.9169 102.0 0.00980 92.41324 104.32696
53.0184 52.9336 115.0 0.00870 92.46824 104.43423
53.0352 52.9504 118.0 0.00848 92.52354 104.54483
53.0519 52.9671 111.0 0.00900 92.57851 104.65746
53.0686 52.9838 120.0 0.00834 92.63351 104.77291
53.0853 53.0005 109.0 0.00917 92.68850 104.89104
53.1020 53.0172 109.0 0.00917 92.74347 105.01191
53.1188 53.0340 91.0 0.01099 92.79879 105.13632
53.1355 53.0507 119.0 0.00840 92.85376 105.26276
53.1522 53.0674 124.0 0.00806 92.90874 105.39204
53.1689 53.0841 119.0 0.00840 92.96371 105.52412
53.1856 53.1008 100.0 0.01000 93.01870 105.65910
53.2023 53.1175 96.0 0.01042 93.07366 105.79691
53.2191 53.1343 98.0 0.01021 93.12899 105.93864
53.2358 53.1510 119.0 0.00840 93.18398 106.08240
53.2525 53.1677 118.0 0.00848 93.23895 106.22916
53.2692 53.1844 114.0 0.00877 93.29393 106.37896
53.2859 53.2011 116.0 0.00862 93.34893 106.53188
53.3027 53.2179 117.0 0.00854 93.40423 106.68880
53.3194 53.2346 102.0 0.00980 93.45918 106.84794
53.3361 53.2513 112.0 0.00893 93.51421 107.01044
53.3528 53.2680 127.0 0.00787 93.56918 107.17609
53.3695 53.2847 99.0 0.01010 93.62416 107.34507
53.3863 53.3015 113.0 0.00885 93.67947 107.51847
53.4030 53.3182 111.0 0.00900 93.73445 107.69429
53.4197 53.3349 109.0 0.00917 93.78942 107.87359
53.4364 53.3516 96.0 0.01042 93.84441 108.05645
53.4531 53.3683 125.0 0.00800 93.89939 108.24294
53.4698 53.3850 115.0 0.00870 93.95435 108.43306
53.4866 53.4018 111.0 0.00900 94.00968 108.62828
53.5033 53.4185 120.0 0.00834 94.06465 108.82610
53.5200 53.4352 115.0 0.00870 94.11964 109.02786
53.5367 53.4519 113.0 0.00885 94.17461 109.23363
53.5534 53.4686 104.0 0.00961 94.22961 109.44357
53.5702 53.4854 108.0 0.00926 94.28491 109.65891
53.5869 53.5021 106.0 0.00943 94.33987 109.87723
53.6036 53.5188 96.0 0.01042 94.39488 110.10012
53.6203 53.5355 116.0 0.00862 94.44987 110.32739
53.6370 53.5522 119.0 0.00840 94.50484 110.55925
53.6538 53.5690 112.0 0.00893 94.56016 110.79730
53.6705 53.5857 125.0 0.00800 94.61513 111.03873
53.6872 53.6024 112.0 0.00893 94.67011 111.28513
53.7039 53.6191 105.0 0.00952 94.72510 111.53661
53.7206 53.6358 112.0 0.00893 94.78007 111.79327
53.7373 53.6525 108.0 0.00926 94.83503 112.05523
53.7541 53.6693 111.0 0.00900 94.89037 112.32449
53.7708 53.6860 139.0 0.00719 94.94534 112.59770
53.7875 53.7027 109.0 0.00917 95.00032 112.87669
53.8042 53.7194 109.0 0.00917 95.05530 113.16166
53.8209 53.7361 115.0 0.00870 95.11030 113.45284
53.8377 53.7529 127.0 0.00787 95.16560 113.75198
53.8544 53.7696 117.0 0.00854 95.22055 114.05581
53.8711 53.7863 118.0 0.00848 95.27557 114.36660
53.8878 53.8030 107.0 0.00935 95.33054 114.68408
53.9045 53.8197 127.0 0.00787 95.38553 115.00867
53.9213 53.8365 101.0 0.00990 95.44084 115.34261
53.9380 53.8532 113.0 0.00885 95.49582 115.68207
53.9547 53.8699 117.0 0.00854 95.55080 116.02929
53.9714 53.8866 107.0 0.00935 95.60577 116.38453
53.9881 53.9033 110.0 0.00909 95.66076 116.74805
54.0048 53.9200 119.0 0.00840 95.71572 117.11999
54.0216 53.9368 110.0 0.00909 95.77106 117.50331
54.0383 53.9535 113.0 0.00885 95.82603 117.89334
54.0550 53.9702 114.0 0.00877 95.88100 118.29281
54.0717 53.9869 122.0 0.00819 95.93599 118.70200
54.0884 54.0036 111.0 0.00900 95.99097 119.12135
54.1052 54.0204 111.0 0.00900 96.04629 119.55358
54.1219 54.0371 101.0 0.00990 96.10124 119.99397
54.1386 54.0538 109.0 0.00917 96.15625 120.44591
54.1553 54.0705 118.0 0.00848 96.21124 120.90918
54.1720 54.0872 113.0 0.00885 96.26620 121.38441
54.1888 54.1040 117.0 0.00854 96.32153 121.87511
54.2055 54.1207 129.0 0.00775 96.37650 122.37574
54.2222 54.1374 120.0 0.00834 96.43148 122.88974
54.2389 54.1541 106.0 0.00943 96.48647 123.41763
54.2556 54.1708 133.0 0.00752 96.54144 123.95988
54.2723 54.1875 114.0 0.00877 96.59640 124.51695
54.2891 54.2043 114.0 0.00877 96.65173 125.09347
54.3058 54.2210 97.0 0.01031 96.70672 125.68249
54.3225 54.2377 123.0 0.00813 96.76169 126.28834
54.3392 54.2544 119.0 0.00840 96.81667 126.91167
54.3559 54.2711 115.0 0.00870 96.87167 127.55338
54.3727 54.2879 137.0 0.00731 96.92696 128.21779
54.3894 54.3046 124.0 0.00806 96.98192 128.89792
54.4061 54.3213 98.0 0.01021 97.03694 129.59927
54.4228 54.3380 137.0 0.00731 97.09191 130.32166
54.4395 54.3547 114.0 0.00877 97.14690 131.06645
54.4563 54.3715 108.0 0.00926 97.20221 131.83939
54.4730 54.3882 134.0 0.00746 97.25719 132.63210
54.4897 54.4049 110.0 0.00909 97.31216 133.45029
54.5064 54.4216 120.0 0.00834 97.36714 134.29515
54.5231 54.4383 130.0 0.00769 97.42213 135.16789
54.5398 54.4550 119.0 0.00840 97.47709 136.06952
54.5566 54.4718 124.0 0.00806 97.53242 137.00806
54.5733 54.4885 148.0 0.00675 97.58739 137.97267
54.5900 54.5052 115.0 0.00870 97.64238 138.97083
54.6067 54.5219 134.0 0.00746 97.69736 138.90894
54.6234 54.5386 114.0 0.00877 97.75234 139.98885
54.6402 54.5554 119.0 0.00840 97.80766 141.11378
54.6569 54.5721 143.0 0.00699 97.86261 142.27252
54.6736 54.5888 124.0 0.00806 97.91762 143.47501
54.6903 54.6055 134.0 0.00746 97.97260 144.72173
54.7070 54.6222 112.0 0.00893 98.02757 146.01572
54.7238 54.6390 128.0 0.00782 98.08290 147.36795
54.7405 54.6557 136.0 0.00736 98.13787 148.76460
54.7572 54.6724 127.0 0.00787 98.19286 150.21669
54.7739 54.6891 139.0 0.00719 98.24783 151.72729
54.7906 54.7058 146.0 0.00685 98.30281 153.29970
54.8073 54.7225 140.0 0.00715 98.35778 154.93698
54.8241 54.7393 136.0 0.00736 98.41310 156.65509
54.8408 54.7560 124.0 0.00806 98.46809 158.43570
54.8575 54.7727 138.0 0.00724 98.52306 160.29393
54.8742 54.7894 146.0 0.00685 98.57804 162.23454
54.8909 54.8061 134.0 0.00746 98.63303 164.26318
54.9077 54.8229 140.0 0.00715 98.68833 166.39684
54.9244 54.8396 158.0 0.00633 98.74329 168.61655
54.9411 54.8563 159.0 0.00629 98.79831 170.94353
54.9578 54.8730 147.0 0.00681 98.85329 173.38129
54.9745 54.8897 166.0 0.00603 98.90826 175.93872
54.9913 54.9065 159.0 0.00629 98.96358 178.64076
55.0080 54.9232 184.0 0.00544 99.01856 181.46333
55.0247 54.9399 150.0 0.00666 99.07355 184.43211
55.0414 54.9566 162.0 0.00617 99.12852 187.55753
55.0581 54.9733 181.0 0.00553 99.18350 190.85095
55.0748 54.9900 171.0 0.00585 99.23846 194.32378
55.0916 55.0068 199.0 0.00502 99.29379 198.01590
55.1083 55.0235 176.0 0.00568 99.34876 201.89412
55.1250 55.0402 165.0 0.00606 99.40375 205.99774
55.1417 55.0569 189.0 0.00529 99.45873 210.34476
55.1584 55.0736 200.0 0.00500 99.51372 214.95633
55.1752 55.0904 184.0 0.00544 99.56902 219.88118
55.1919 55.1071 202.0 0.00495 99.62399 225.08598
55.2086 55.1238 230.0 0.00435 99.67899 230.63170
55.2253 55.1405 220.0 0.00455 99.73398 236.54008
55.2420 55.1572 185.0 0.00541 99.78895 242.84732
55.2588 55.1740 236.0 0.00424 99.84427 249.63304
55.2755 55.1907 221.0 0.00452 99.89924 256.85577
55.2922 55.2074 229.0 0.00437 99.95422 264.60162
55.3089 55.2241 246.0 0.00407 100.00921 272.92239
55.3256 55.2408 278.0 0.00360 100.06418 281.87631
55.3423 55.2575 300.0 0.003334 100.11915 291.52618
55.3591 55.2743 280.0 0.00357 100.17447 302.02185
55.3758 55.2910 275.0 0.00364 100.22945 313.31152
55.3925 55.3077 328.0 0.003049 100.28444 325.55603
55.4092 55.3244 344.0 0.002906 100.33941 338.86588
55.4259 55.3411 372.0 0.002687 100.39440 353.37259
55.4427 55.3579 381.0 0.002624 100.44970 369.31195
55.4594 55.3746 360.0 0.002779 100.50468 386.67108
55.4761 55.3913 415.0 0.002410 100.55968 405.76642
55.4928 55.4080 389.0 0.002571 100.61465 426.82162
55.5095 55.4247 450.0 0.002223 100.66964 450.16193
55.5263 55.4415 475.0 0.002106 100.72495 476.36588
55.5430 55.4582 504.0 0.001984 100.77993 505.67041
55.5597 55.4749 531.0 0.001884 100.83492 539.00452
55.5764 55.4916 620.0 0.001613 100.88988 577.48871
55.5931 55.5083 636.0 0.001572 100.94487 622.76147
55.6098 55.5250 740.0 0.001352 100.99982 677.20435
55.6266 55.5418 815.0 0.001227 101.05516 744.80774
55.6433 55.5585 946.0 0.001057 101.11013 829.66302
55.6600 55.5752 1090.0 0.000917 101.16512 938.98914
55.6767 55.5919 1211.0 0.000826 101.22010 1081.89636
55.6934 55.6086 1454.0 0.000688 101.27509 1270.11145
55.7102 55.6254 1694.0 0.000590 101.33039 1519.43091
55.7269 55.6421 1974.0 0.000507 101.38535 1843.46338
55.7436 55.6588 2356.0 0.000424 101.44036 2261.79321
55.7603 55.6755 2842.0 0.000352 101.49535 2791.64917
55.7770 55.6922 3404.0 0.0002938 101.55032 3448.93604
55.7938 55.7090 4055.0 0.0002466 101.60564 4250.03076
55.8105 55.7257 5094.0 0.0001963 101.66061 5188.63867
55.8272 55.7424 6112.0 0.0001636 101.71559 6261.94775
55.8439 55.7591 7419.0 0.0001348 101.77058 7448.80762
55.8606 55.7758 8643.0 0.0001157 101.82555 8711.43750
55.8773 55.7925 10169.0 0.0000984 101.88052 9993.95020
55.8941 55.8093 11565.0 0.0000865 101.93584 11234.07910
55.9108 55.8260 12884.0 0.0000776 101.99082 12336.92188
55.9275 55.8427 13883.0 0.0000721 102.04581 13234.25000
55.9442 55.8594 14628.0 0.0000684 102.10079 13857.15137
55.9609 55.8761 14776.0 0.0000676 102.15578 14145.52832
55.9777 55.8929 14581.0 0.0000685 102.21107 14055.05957
55.9944 55.9096 13739.0 0.0000728 102.26604 13577.95215
56.0111 55.9263 12841.0 0.0000779 102.32105 12752.98145
56.0278 55.9430 11636.0 0.0000859 102.37602 11663.46973
56.0445 55.9597 10325.0 0.0000969 102.43101 10412.03516
56.0613 55.9765 8838.0 0.0001131 102.48631 9089.83496
56.0780 55.9932 7679.0 0.0001302 102.54130 7794.22363
56.0947 56.0099 6571.0 0.0001522 102.59628 6575.58008
56.1114 56.0266 5450.0 0.0001835 102.65125 5471.65771
56.1281 56.0433 4573.0 0.0002187 102.70624 4503.12402
56.1448 56.0600 3805.0 0.0002629 102.76119 3677.33105
56.1616 56.0768 3161.0 0.0003164 102.81653 2986.64429
56.1783 56.0935 2717.0 0.000368 102.87151 2429.60498
56.1950 56.1102 2373.0 0.000421 102.92648 1986.27087
56.2117 56.1269 1842.0 0.000543 102.98148 1639.28418
56.2284 56.1436 1667.0 0.000600 103.03647 1371.32458
56.2452 56.1604 1434.0 0.000697 103.09177 1164.86792
56.2619 56.1771 1238.0 0.000808 103.14672 1007.95313
56.2786 56.1938 1028.0 0.000973 103.20173 887.15912
56.2953 56.2105 991.0 0.001009 103.25671 793.22314
56.3120 56.2272 849.0 0.001178 103.31168 718.84888
56.3288 56.2440 762.0 0.001313 103.36700 658.37518
56.3455 56.2607 662.0 0.001510 103.42199 608.69824
56.3622 56.2774 601.0 0.001663 103.47696 566.72430
56.3789 56.2941 561.0 0.001782 103.53194 530.58765
56.3956 56.3108 508.0 0.001968 103.58691 498.99518
56.4123 56.3275 481.0 0.002079 103.64188 471.05011
56.4291 56.3443 399.0 0.002508 103.69721 445.93881
56.4458 56.3610 428.0 0.002336 103.75219 423.51422
56.4625 56.3777 383.0 0.002611 103.80717 403.24631
56.4792 56.3944 356.0 0.002808 103.86216 384.84586
56.4959 56.4111 342.0 0.002925 103.91714 368.09302
56.5127 56.4279 296.0 0.003380 103.97244 352.70468
56.5294 56.4446 330.0 0.003029 104.02741 338.70047
56.5461 56.4613 280.0 0.00357 104.08242 325.83215
56.5628 56.4780 260.0 0.00385 104.13739 313.99838
56.5795 56.4947 237.0 0.00422 104.19238 303.08627
56.5963 56.5115 273.0 0.00366 104.24769 292.94434
56.6130 56.5282 232.0 0.00431 104.30267 283.61511
56.6297 56.5449 244.0 0.00410 104.35765 274.96298
56.6464 56.5616 240.0 0.00417 104.41262 266.92490
56.6631 56.5783 240.0 0.00417 104.46761 259.44492
56.6798 56.5950 215.0 0.00465 104.52257 252.47523
56.6966 56.6118 235.0 0.00426 104.57790 245.92697
56.7133 56.6285 214.0 0.00467 104.63288 239.84607
56.7300 56.6452 205.0 0.00488 104.68786 234.15369
56.7467 56.6619 215.0 0.00465 104.74285 228.81641
56.7634 56.6786 172.0 0.00582 104.79784 223.80861
56.7802 56.6954 185.0 0.00541 104.85313 219.07610
56.7969 56.7121 178.0 0.00562 104.90809 214.65167
56.8136 56.7288 172.0 0.00582 104.96310 210.48077
56.8303 56.7455 195.0 0.00513 105.01808 206.55042
56.8470 56.7622 178.0 0.00562 105.07305 202.84061
56.8638 56.7790 157.0 0.00637 105.12838 199.31454
56.8805 56.7957 163.0 0.00613 105.18336 196.00066
56.8972 56.8124 158.0 0.00633 105.23833 192.86360
56.9139 56.8291 172.0 0.00582 105.29331 189.89130
56.9306 56.8458 153.0 0.00654 105.34828 187.07257
56.9473 56.8625 159.0 0.00629 105.40326 184.39809
56.9641 56.8793 140.0 0.00715 105.45858 181.84096
56.9808 56.8960 150.0 0.00666 105.51357 179.42603
56.9975 56.9127 158.0 0.00633 105.56854 177.12860
57.0142 56.9294 138.0 0.00724 105.62354 174.94073
57.0309 56.9461 145.0 0.00690 105.67851 172.85698
57.0477 56.9629 156.0 0.00641 105.73381 170.85907
57.0644 56.9796 164.0 0.00609 105.78878 168.96498
57.0811 56.9963 158.0 0.00633 105.84379 167.15530
57.0978 57.0130 146.0 0.00685 105.89876 165.42776
57.1145 57.0297 143.0 0.00699 105.95374 163.77667
57.1313 57.0465 139.0 0.00719 106.00906 162.18820
57.1480 57.0632 133.0 0.00752 106.06404 160.67780
57.1647 57.0799 124.0 0.00806 106.11902 159.23174
57.1814 57.0966 149.0 0.00671 106.17400 157.84662
57.1981 57.1133 152.0 0.00658 106.22897 156.51915
57.2148 57.1300 170.0 0.00588 106.28394 155.24670
57.2316 57.1468 138.0 0.00724 106.33927 154.01797
57.2483 57.1635 156.0 0.00641 106.39426 152.84642
57.2650 57.1802 137.0 0.00731 106.44923 151.72150
57.2817 57.1969 123.0 0.00813 106.50422 150.64059
57.2984 57.2136 145.0 0.00690 106.55920 149.60214
57.3152 57.2304 137.0 0.00731 106.61450 148.59804
57.3319 57.2471 150.0 0.00666 106.66946 147.63829
57.3486 57.2638 142.0 0.00704 106.72446 146.71408
57.3653 57.2805 147.0 0.00681 106.77945 145.82501
57.3820 57.2972 141.0 0.00710 106.83443 144.96895
57.3988 57.3140 138.0 0.00724 106.88975 144.13940
57.4155 57.3307 130.0 0.00769 106.94473 143.34506
57.4322 57.3474 132.0 0.00757 106.99970 142.57941
57.4489 57.3641 148.0 0.00675 107.05468 141.84119
57.4656 57.3808 136.0 0.00736 107.10966 141.12915
57.4823 57.3975 152.0 0.00658 107.16463 140.44243
57.4991 57.4143 128.0 0.00782 107.21995 139.77528
57.5158 57.4310 121.0 0.00826 107.27493 139.13547
57.5325 57.4477 120.0 0.00834 107.32992 138.51764
57.5492 57.4644 136.0 0.00736 107.38491 137.92072
57.5659 57.4811 135.0 0.00741 107.43988 137.34418
57.5827 57.4979 132.0 0.00757 107.49518 136.78384
57.5994 57.5146 135.0 0.00741 107.55015 136.24557
57.6161 57.5313 140.0 0.00715 107.60516 135.72470
57.6328 57.5480 135.0 0.00741 107.66013 135.22128
57.6495 57.5647 146.0 0.00685 107.71511 134.73433
57.6663 57.5815 130.0 0.00769 107.77044 134.26039
57.6830 57.5982 148.0 0.00675 107.82541 133.80460
57.6997 57.6149 136.0 0.00736 107.88039 133.36345
57.7164 57.6316 140.0 0.00715 107.93536 132.93637
57.7331 57.6483 128.0 0.00782 107.99035 132.52287
57.7498 57.6650 117.0 0.00854 108.04530 132.12257
57.7666 57.6818 139.0 0.00719 108.10064 131.73225
57.7833 57.6985 136.0 0.00736 108.15562 131.35658
57.8000 57.7152 131.0 0.00763 108.21059 130.99260
57.8167 57.7319 119.0 0.00840 108.26559 130.63979
57.8334 57.7486 132.0 0.00757 108.32057 130.29796
57.8502 57.7654 136.0 0.00736 108.37587 129.96469
57.8669 57.7821 122.0 0.00819 108.43083 129.64360
57.8836 57.7988 120.0 0.00834 108.48584 129.33202
57.9003 57.8155 111.0 0.00900 108.54082 129.03004
57.9170 57.8322 114.0 0.00877 108.59580 128.73720
57.9338 57.8490 127.0 0.00787 108.65112 128.45143
57.9505 57.8657 138.0 0.00724 108.70610 128.17596
57.9672 57.8824 122.0 0.00819 108.76107 127.90871
57.9839 57.8991 120.0 0.00834 108.81606 127.64944
58.0006 57.9158 128.0 0.00782 108.87103 127.39787
58.0173 57.9325 120.0 0.00834 108.92599 127.15385
58.0341 57.9493 128.0 0.00782 108.98133 126.91544
58.0508 57.9660 118.0 0.00848 109.03630 126.68559
58.0675 57.9827 126.0 0.00794 109.09129 126.46249
58.0842 57.9994 122.0 0.00819 109.14628 126.24590
58.1009 58.0161 119.0 0.00840 109.20125 126.03571
58.1177 58.0329 105.0 0.00952 109.25655 125.83053
58.1344 58.0496 124.0 0.00806 109.31152 125.63259
58.1511 58.0663 131.0 0.00763 109.36653 125.44026
58.1678 58.0830 114.0 0.00877 109.42150 125.25365
58.1845 58.0997 107.0 0.00935 109.47649 125.07253
58.2013 58.1165 104.0 0.00961 109.53181 124.89562
58.2180 58.1332 126.0 0.00794 109.58678 124.72494
58.2347 58.1499 102.0 0.00980 109.64176 124.55925
58.2514 58.1666 119.0 0.00840 109.69673 124.39840
58.2681 58.1833 90.0 0.01111 109.75172 124.24226
58.2848 58.2000 111.0 0.00900 109.80667 124.09074
58.3016 58.2168 115.0 0.00870 109.86201 123.94269
58.3183 58.2335 114.0 0.00877 109.91699 123.79992
58.3350 58.2502 110.0 0.00909 109.97196 123.66135
58.3517 58.2669 125.0 0.00800 110.02696 123.52682
58.3684 58.2836 106.0 0.00943 110.08194 123.39632
58.3852 58.3004 112.0 0.00893 110.13724 123.26896
58.4019 58.3171 116.0 0.00862 110.19220 123.14614
58.4186 58.3338 123.0 0.00813 110.24721 123.02689
58.4353 58.3505 129.0 0.00775 110.30219 122.91129
58.4520 58.3672 123.0 0.00813 110.35717 122.79916
58.4688 58.3840 124.0 0.00806 110.41248 122.68975
58.4855 58.4007 109.0 0.00917 110.46747 122.58434
58.5022 58.4174 128.0 0.00782 110.52244 122.48212
58.5189 58.4341 125.0 0.00800 110.57742 122.38306
58.5356 58.4508 113.0 0.00885 110.63239 122.28706
58.5523 58.4675 120.0 0.00834 110.68736 122.19409
58.5691 58.4843 115.0 0.00870 110.74270 122.10342
58.5858 58.5010 106.0 0.00943 110.79767 122.01618
58.6025 58.5177 158.0 0.00633 110.85265 121.93172
58.6192 58.5344 130.0 0.00769 110.90765 121.84996
58.6359 58.5511 111.0 0.00900 110.96262 121.77087
58.6527 58.5679 142.0 0.00704 111.01792 121.69393
58.6694 58.5846 135.0 0.00741 111.07289 121.62003
58.6861 58.6013 135.0 0.00741 111.12790 121.54852
58.7028 58.6180 143.0 0.00699 111.18288 121.47948
58.7195 58.6347 140.0 0.00715 111.23785 121.41282
58.7363 58.6515 155.0 0.00645 111.29317 121.34811
58.7530 58.6682 142.0 0.00704 111.34814 121.28609
58.7697 58.6849 162.0 0.00617 111.40313 121.22629
58.7864 58.7016 178.0 0.00562 111.45810 121.16869
58.8031 58.7183 162.0 0.00617 111.51308 121.11325
58.8198 58.7350 179.0 0.00559 111.56804 121.05995
58.8366 58.7518 174.0 0.00575 111.62337 121.00840
58.8533 58.7685 152.0 0.00658 111.67836 120.95923
58.8700 58.7852 146.0 0.00685 111.73333 120.91207
58.8867 58.8019 141.0 0.00710 111.78833 120.86691
58.9034 58.8186 151.0 0.00662 111.84331 120.82372
58.9202 58.8354 154.0 0.00649 111.89861 120.78224
58.9369 58.8521 131.0 0.00763 111.95357 120.74294
58.9536 58.8688 134.0 0.00746 112.00858 120.70550
58.9703 58.8855 133.0 0.00752 112.06356 120.67000
58.9870 58.9022 126.0 0.00794 112.11855 120.63638
59.0038 58.9190 116.0 0.00862 112.17385 120.60443
59.0205 58.9357 126.0 0.00794 112.22884 120.57457
59.0372 58.9524 116.0 0.00862 112.28381 120.54655
59.0539 58.9691 118.0 0.00848 112.33879 120.52045
59.0706 58.9858 122.0 0.00819 112.39378 120.49622
59.0873 59.0025 124.0 0.00806 112.44873 120.47392
59.1041 59.0193 123.0 0.00813 112.50407 120.45342
59.1208 59.0360 122.0 0.00819 112.55904 120.43501
59.1375 59.0527 130.0 0.00769 112.61402 120.41863
59.1542 59.0694 111.0 0.00900 112.66902 120.40430
59.1709 59.0861 135.0 0.00741 112.72399 120.39211
59.1877 59.1029 116.0 0.00862 112.77929 120.38204
59.2044 59.1196 131.0 0.00763 112.83426 120.37438
59.2211 59.1363 113.0 0.00885 112.88927 120.36912
59.2378 59.1530 110.0 0.00909 112.94425 120.36644
59.2545 59.1697 119.0 0.00840 112.99922 120.36652
59.2713 59.1865 121.0 0.00826 113.05454 120.36966
59.2880 59.2032 125.0 0.00800 113.10951 120.37612
59.3047 59.2199 123.0 0.00813 113.16450 120.38643
59.3214 59.2366 130.0 0.00769 113.21947 120.40118
59.3381 59.2533 121.0 0.00826 113.27445 120.42130
59.3548 59.2700 119.0 0.00840 113.32941 120.44801
59.3716 59.2868 133.0 0.00752 113.38474 120.48334
59.3883 59.3035 124.0 0.00806 113.43973 113.98126
59.4050 59.3202 140.0 0.00715 113.49470 114.10455
59.4217 59.3369 124.0 0.00806 113.54970 114.24520
59.4384 59.3536 127.0 0.00787 113.60468 114.40849
59.4552 59.3704 102.0 0.00980 113.65998 114.60226
59.4719 59.3871 136.0 0.00736 113.71494 114.83200
59.4886 59.4038 107.0 0.00935 113.76994 115.10771
59.5053 59.4205 141.0 0.00710 113.82493 115.43822
59.5220 59.4372 144.0 0.00694 113.87991 115.83263
59.5388 59.4540 105.0 0.00952 113.93522 116.30190
59.5555 59.4707 120.0 0.00834 113.99020 116.84598
59.5722 59.4874 129.0 0.00775 114.04517 117.46963
59.5889 59.5041 141.0 0.00710 114.10016 118.17024
59.6056 59.5208 123.0 0.00813 114.15514 118.93900
59.6223 59.5375 120.0 0.00834 114.21011 119.75925
59.6391 59.5543 120.0 0.00834 114.26543 120.61127
59.6558 59.5710 102.0 0.00980 114.32041 121.44705
59.6725 59.5877 121.0 0.00826 114.37539 122.22334
59.6892 59.6044 129.0 0.00775 114.43039 122.88123
59.7059 59.6211 100.0 0.01000 114.48536 123.35795
59.7227 59.6379 135.0 0.00741 114.54067 123.60228
59.7394 59.6546 111.0 0.00900 114.59563 123.58546
59.7561 59.6713 105.0 0.00952 114.65063 123.31944
59.7728 59.6880 120.0 0.00834 114.70562 122.84658
59.7895 59.7047 122.0 0.00819 114.76059 122.22647
59.8063 59.7215 107.0 0.00935 114.81591 121.51648
59.8230 59.7382 106.0 0.00943 114.87089 120.77937
59.8397 59.7549 135.0 0.00741 114.92587 120.05311
59.8564 59.7716 113.0 0.00885 114.98083 119.36812
59.8731 59.7883 93.0 0.01075 115.03582 118.74486
59.8898 59.8050 129.0 0.00775 115.09078 118.19551
59.9066 59.8218 121.0 0.00826 115.14612 117.72230
59.9233 59.8385 104.0 0.00961 115.20110 117.33128
59.9400 59.8552 91.0 0.01099 115.25607 117.01493
59.9567 59.8719 114.0 0.00877 115.31107 116.76622
59.9734 59.8886 109.0 0.00917 115.36605 116.57670
59.9902 59.9054 100.0 0.01000 115.42135 116.43637
60.0069 59.9221 102.0 0.00980 115.47548 116.33707
60.0236 59.9388 97.0 0.01031 115.38285 116.12358
60.0403 59.9555 122.0 0.00819 115.29031 115.93578
60.0570 59.9722 113.0 0.00885 115.19774 115.76756
60.0738 59.9890 99.0 0.01010 115.10463 115.61331
60.0905 60.0057 118.0 0.00848 115.01206 115.47118
60.1072 60.0224 102.0 0.00980 114.91952 115.33747
60.1239 60.0391 100.0 0.01000 114.82695 115.21010
60.1406 60.0558 107.0 0.00935 114.73439 115.08760
60.1573 60.0725 118.0 0.00848 114.64186 114.96895
60.1741 60.0893 101.0 0.00990 114.54871 114.85256
60.1908 60.1060 107.0 0.00935 114.45616 114.73943
60.2075 60.1227 99.0 0.01010 114.36359 114.62836
60.2242 60.1394 88.0 0.01136 114.27101 114.51901
60.2409 60.1561 87.0 0.01150 114.17847 114.41124
60.2577 60.1729 85.0 0.01176 114.08535 114.30415
60.2744 60.1896 114.0 0.00877 113.99283 114.19893
60.2911 60.2063 105.0 0.00952 113.90022 114.09465
60.3078 60.2230 98.0 0.01021 113.80766 113.99135
60.3245 60.2397 108.0 0.00926 113.71511 113.88891
60.3413 60.2565 122.0 0.00819 113.62197 113.78658
60.3580 60.2732 112.0 0.00893 113.52943 113.68556
60.3747 60.2899 117.0 0.00854 113.43687 113.58514
60.3914 60.3066 110.0 0.00909 113.34430 113.48528
60.4081 60.3233 112.0 0.00893 113.25175 113.38595
60.4248 60.3400 114.0 0.00877 113.15923 113.28709
60.4416 60.3568 107.0 0.00935 113.06608 113.18798
60.4583 60.3735 112.0 0.00893 112.97351 113.08989
60.4750 60.3902 102.0 0.00980 112.88097 112.99216
60.4917 60.4069 109.0 0.00917 112.78838 112.89473
60.5084 60.4236 111.0 0.00900 112.69582 112.79761
60.5252 60.4404 112.0 0.00893 112.60272 112.70020
60.5419 60.4571 84.0 0.01191 112.51020 112.60365
60.5586 60.4738 113.0 0.00885 112.41757 112.50722
60.5753 60.4905 114.0 0.00877 112.32503 112.41109
60.5920 60.5072 106.0 0.00943 112.23246 112.31513
60.6088 60.5240 99.0 0.01010 112.13934 112.21880
60.6255 60.5407 103.0 0.00971 112.04678 112.12321
60.6422 60.5574 96.0 0.01042 111.95423 112.02779
60.6589 60.5741 114.0 0.00877 111.86167 111.93250
60.6756 60.5908 114.0 0.00877 111.76910 111.83736
60.6923 60.6075 133.0 0.00752 111.67658 111.74238
60.7091 60.6243 110.0 0.00909 111.58343 111.64687
60.7258 60.6410 134.0 0.00746 111.49088 111.55210
60.7425 60.6577 119.0 0.00840 111.39832 111.45743
60.7592 60.6744 102.0 0.00980 111.30573 111.36282
60.7759 60.6911 125.0 0.00800 111.21318 111.26836
60.7927 60.7079 118.0 0.00848 111.12007 111.17339
60.8094 60.7246 128.0 0.00782 111.02754 111.07912
60.8261 60.7413 148.0 0.00675 110.93494 110.98483
60.8428 60.7580 133.0 0.00752 110.84237 110.89066
60.8595 60.7747 141.0 0.00710 110.74983 110.79659
60.8763 60.7915 118.0 0.00848 110.65669 110.70197
60.8930 60.8082 117.0 0.00854 110.56415 111.67133
60.9097 60.8249 122.0 0.00819 110.47158 111.58492
60.9264 60.8416 143.0 0.00699 110.37902 111.49863
60.9431 60.8583 113.0 0.00885 110.28648 111.41251
60.9598 60.8750 125.0 0.00800 110.19395 111.32652
60.9766 60.8918 120.0 0.00834 110.10079 111.24009
60.9933 60.9085 132.0 0.00757 110.00822 111.15433
61.0100 60.9252 137.0 0.00731 109.91568 111.06872
61.0267 60.9419 113.0 0.00885 109.82310 110.98319
61.0434 60.9586 129.0 0.00775 109.73053 110.89780
61.0602 60.9754 113.0 0.00885 109.63744 110.81207
61.0769 60.9921 122.0 0.00819 109.54491 110.72698
61.0936 61.0088 131.0 0.00763 109.45229 110.64191
61.1103 61.0255 157.0 0.00637 109.35974 110.55705
61.1270 61.0422 123.0 0.00813 109.26717 110.47230
61.1438 61.0590 111.0 0.00900 109.17406 110.38716
61.1605 61.0757 114.0 0.00877 109.08150 110.30265
61.1772 61.0924 134.0 0.00746 108.98895 110.21828
61.1939 61.1091 117.0 0.00854 108.89639 110.13402
61.2106 61.1258 110.0 0.00909 108.80382 110.04990
61.2273 61.1425 120.0 0.00834 108.71130 109.96593
61.2441 61.1593 127.0 0.00787 108.61814 109.88150
61.2608 61.1760 147.0 0.00681 108.52560 109.79777
61.2775 61.1927 101.0 0.00990 108.43303 109.71414
61.2942 61.2094 99.0 0.01010 108.34045 109.63063
61.3109 61.2261 122.0 0.00819 108.24790 109.54728
61.3277 61.2429 114.0 0.00877 108.15479 109.46355
61.3444 61.2596 101.0 0.00990 108.06226 109.38048
61.3611 61.2763 136.0 0.00736 107.96966 109.29747
61.3778 61.2930 121.0 0.00826 107.87709 109.21464
61.3945 61.3097 114.0 0.00877 107.78455 109.13195
61.4113 61.3265 125.0 0.00800 107.69141 109.04887
61.4280 61.3432 136.0 0.00736 107.59886 108.96647
61.4447 61.3599 141.0 0.00710 107.50630 108.88418
61.4614 61.3766 93.0 0.01075 107.41373 108.80204
61.4781 61.3933 129.0 0.00775 107.32119 108.72005
61.4948 61.4100 133.0 0.00752 107.22865 108.63821
61.5116 61.4268 141.0 0.00710 107.13551 108.55598
61.5283 61.4435 130.0 0.00769 107.04295 108.47442
61.5450 61.4602 123.0 0.00813 106.95040 108.39304
61.5617 61.4769 160.0 0.00625 106.85781 108.31174
61.5784 61.4936 131.0 0.00763 106.76525 108.23064
61.5952 61.5104 147.0 0.00681 106.67216 108.14922
61.6119 61.5271 143.0 0.00699 106.57964 108.06845
61.6286 61.5438 155.0 0.00645 106.48701 107.98776
61.6453 61.5605 176.0 0.00568 106.39446 107.90730
61.6620 61.5772 131.0 0.00763 106.30190 107.82700
61.6788 61.5940 152.0 0.00658 106.20878 107.74638
61.6955 61.6107 161.0 0.00621 106.11621 107.66640
61.7122 61.6274 155.0 0.00645 106.02365 107.58659
61.7289 61.6441 145.0 0.00690 105.93111 108.94521
61.7456 61.6608 174.0 0.00575 105.83854 108.87836
61.7623 61.6775 168.0 0.00595 105.74602 108.81191
61.7791 61.6943 175.0 0.00571 105.65285 108.74534
61.7958 61.7110 138.0 0.00724 105.56032 108.67957
61.8125 61.7277 159.0 0.00629 105.46775 108.61415
61.8292 61.7444 175.0 0.00571 105.37516 108.54907
61.8459 61.7611 145.0 0.00690 105.28262 108.48442
61.8627 61.7779 149.0 0.00671 105.18951 108.41975
61.8794 61.7946 139.0 0.00719 105.09698 108.35587
61.8961 61.8113 162.0 0.00617 105.00437 108.29234
61.9128 61.8280 124.0 0.00806 104.91180 108.22923
61.9295 61.8447 130.0 0.00769 104.81926 108.16655
61.9463 61.8615 135.0 0.00741 104.72613 108.10390
61.9630 61.8782 143.0 0.00699 104.63358 108.04206
61.9797 61.8949 123.0 0.00813 104.54102 107.98063
61.9964 61.9116 149.0 0.00671 104.44846 107.91965
62.0131 61.9283 143.0 0.00699 104.35591 107.85914
62.0298 61.9450 142.0 0.00704 104.26337 107.79908
62.0466 61.9618 135.0 0.00741 104.17023 107.73910
62.0633 61.9785 150.0 0.00666 104.07766 107.67996
62.0800 61.9952 152.0 0.00658 103.98510 107.62130
62.0967 62.0119 132.0 0.00757 103.89253 107.56315
62.1134 62.0286 189.0 0.00529 103.79996 107.50548
62.1302 62.0454 151.0 0.00662 103.70687 107.44800
62.1469 62.0621 165.0 0.00606 103.61433 107.39138
62.1636 62.0788 152.0 0.00658 103.52172 107.33525
62.1803 62.0955 172.0 0.00582 103.42918 107.27971
62.1970 62.1122 172.0 0.00582 103.33661 107.22470
62.2138 62.1290 160.0 0.00625 103.24350 107.16991
62.2305 62.1457 184.0 0.00544 103.15093 107.11604
62.2472 62.1624 192.0 0.00521 103.05836 107.06274
62.2639 62.1791 190.0 0.00527 102.96582 107.01006
62.2806 62.1958 200.0 0.00500 102.87325 106.95795
62.2973 62.2125 233.0 0.00429 102.78073 106.90651
62.3141 62.2293 208.0 0.00481 102.68758 106.85533
62.3308 62.2460 191.0 0.00524 102.59503 106.80515
62.3475 62.2627 179.0 0.00559 102.50246 106.75561
62.3642 62.2794 165.0 0.00606 102.40988 106.70672
62.3809 62.2961 172.0 0.00582 102.31731 106.65853
62.3977 62.3129 175.0 0.00571 102.22427 106.61079
62.4144 62.3296 148.0 0.00675 102.13164 106.56398
62.4311 62.3463 164.0 0.00609 102.03909 106.51795
62.4478 62.3630 140.0 0.00715 101.94653 106.47263
62.4645 62.3797 134.0 0.00746 101.85398 106.42811
62.4813 62.3965 136.0 0.00736 101.76084 106.38406
62.4980 62.4132 126.0 0.00794 101.66830 106.34109
62.5147 62.4299 122.0 0.00819 101.57574 106.29893
62.5314 62.4466 124.0 0.00806 101.48317 106.25758
62.5481 62.4633 130.0 0.00769 101.39063 106.21709
62.5648 62.4800 113.0 0.00885 101.29808 106.17746
62.5816 62.4968 111.0 0.00900 101.20495 106.13847
62.5983 62.5135 111.0 0.00900 101.11238 106.10062
62.6150 62.5302 116.0 0.00862 101.01981 106.06368
62.6317 62.5469 124.0 0.00806 100.92725 106.02770
62.6484 62.5636 106.0 0.00943 100.83469 105.99266
62.6652 62.5804 106.0 0.00943 100.74161 105.95843
62.6819 62.5971 105.0 0.00952 100.64900 105.92539
62.6986 62.6138 116.0 0.00862 100.55643 105.89338
62.7153 62.6305 102.0 0.00980 100.46390 105.86244
62.7320 62.6472 122.0 0.00819 100.37133 105.83257
62.7488 62.6640 102.0 0.00980 100.27821 105.80365
62.7655 62.6807 89.0 0.01124 100.18565 105.77601
62.7822 62.6974 92.0 0.01087 100.09309 105.74953
62.7989 62.7141 118.0 0.00848 100.00054 105.72426
62.8156 62.7308 102.0 0.00980 99.90797 105.70016
62.8323 62.7475 101.0 0.00990 99.81545 105.67733
62.8491 62.7643 117.0 0.00854 99.72229 105.65562
62.8658 62.7810 97.0 0.01031 99.62975 105.63538
62.8825 62.7977 97.0 0.01031 99.53719 105.61645
62.8992 62.8144 114.0 0.00877 99.44460 105.59888
62.9159 62.8311 112.0 0.00893 99.35204 105.58272
62.9327 62.8479 102.0 0.00980 99.25898 105.56792
62.9494 62.8646 101.0 0.00990 99.16635 105.55465
62.9661 62.8813 98.0 0.01021 99.07381 105.54293
62.9828 62.8980 106.0 0.00943 98.98124 105.53273
62.9995 62.9147 92.0 0.01087 98.88869 105.52415
63.0163 62.9315 112.0 0.00893 98.79556 105.51712
63.0330 62.9482 100.0 0.01000 98.70300 105.51181
63.0497 62.9649 98.0 0.01021 98.61045 105.50824
63.0664 62.9816 104.0 0.00961 98.51789 105.50641
63.0831 62.9983 98.0 0.01021 98.42535 105.50640
63.0998 63.0150 88.0 0.01136 98.33280 105.50822
63.1166 63.0318 105.0 0.00952 98.23966 105.51199
63.1333 63.0485 107.0 0.00935 98.14709 105.51769
63.1500 63.0652 121.0 0.00826 98.05453 105.52539
63.1667 63.0819 85.0 0.01176 97.96197 105.53518
63.1834 63.0986 110.0 0.00909 97.86940 105.54706
63.2002 63.1154 95.0 0.01053 97.77633 105.56121
63.2169 63.1321 98.0 0.01021 97.68372 105.57754
63.2336 63.1488 71.0 0.01409 97.59116 105.59615
63.2503 63.1655 90.0 0.01111 97.49861 105.61716
63.2670 63.1822 101.0 0.00990 97.40604 105.64057
63.2838 63.1990 88.0 0.01136 97.31293 105.66667
63.3005 63.2157 98.0 0.01021 97.22037 105.69518
63.3172 63.2324 105.0 0.00952 97.12780 105.72635
63.3339 63.2491 97.0 0.01031 97.03526 105.76027
63.3506 63.2658 106.0 0.00943 96.94269 105.79697
63.3673 63.2825 87.0 0.01150 96.85017 105.83658
63.3841 63.2993 94.0 0.01064 96.75701 105.87944
63.4008 63.3160 91.0 0.01099 96.66444 105.92512
63.4175 63.3327 110.0 0.00909 96.57190 105.97398
63.4342 63.3494 99.0 0.01010 96.47932 106.02610
63.4509 63.3661 91.0 0.01099 96.38675 106.08157
63.4677 63.3829 100.0 0.01000 96.29368 106.14085
63.4844 63.3996 113.0 0.00885 96.20107 106.20344
63.5011 63.4163 108.0 0.00926 96.10853 106.26970
63.5178 63.4330 103.0 0.00971 96.01596 106.33974
63.5345 63.4497 77.0 0.01299 95.92342 106.41374
63.5513 63.4665 96.0 0.01042 95.83028 106.49226
63.5680 63.4832 103.0 0.00971 95.73772 106.57003
63.5847 63.4999 91.0 0.01099 95.64517 106.65668
63.6014 63.5166 109.0 0.00917 95.55260 106.74780
63.6181 63.5333 89.0 0.01124 95.46006 106.84355
63.6348 63.5500 112.0 0.00893 95.36752 106.94403
63.6516 63.5668 102.0 0.00980 95.27438 107.05021
63.6683 63.5835 119.0 0.00840 95.18182 107.16083
63.6850 63.6002 116.0 0.00862 95.08925 107.27674
63.7017 63.6169 73.0 0.01370 94.99667 107.39817
63.7184 63.6336 97.0 0.01031 94.90412 107.52528
63.7352 63.6504 93.0 0.01075 94.81104 107.65898
63.7519 63.6671 108.0 0.00926 94.71844 107.79814
63.7686 63.6838 108.0 0.00926 94.62587 107.94353
63.7853 63.7005 100.0 0.01000 94.53333 108.09547
63.8020 63.7172 83.0 0.01205 94.44077 108.25420
63.8188 63.7340 108.0 0.00926 94.34765 108.42101
63.8355 63.7507 86.0 0.01163 94.25508 108.59410
63.8522 63.7674 84.0 0.01191 94.16252 108.77479
63.8689 63.7841 100.0 0.01000 94.06998 108.96336
63.8856 63.8008 119.0 0.00840 93.97741 109.16009
63.9023 63.8175 100.0 0.01000 93.88489 109.36526
63.9191 63.8343 102.0 0.00980 93.79173 109.58072
63.9358 63.8510 104.0 0.00961 93.69917 109.80402
63.9525 63.8677 128.0 0.00782 93.60662 110.03690
63.9692 63.8844 105.0 0.00952 93.51403 110.27977
63.9859 63.9011 100.0 0.01000 93.42147 110.53294
64.0027 63.9179 112.0 0.00893 93.32841 110.79839
64.0194 63.9346 99.0 0.01010 93.23581 111.07381
64.0361 63.9513 115.0 0.00870 93.14324 111.36078
64.0528 63.9680 110.0 0.00909 93.05067 111.65997
64.0695 63.9847 117.0 0.00854 92.95811 111.97189
64.0863 64.0015 100.0 0.01000 92.86500 112.29919
64.1030 64.0182 108.0 0.00926 92.77243 112.63840
64.1197 64.0349 128.0 0.00782 92.67986 112.99214
64.1364 64.0516 105.0 0.00952 92.58734 113.36111
64.1531 64.0683 112.0 0.00893 92.49478 113.74590
64.1698 64.0850 97.0 0.01031 92.40225 114.14719
64.1866 64.1018 109.0 0.00917 92.30910 114.56871
64.2033 64.1185 109.0 0.00917 92.21653 115.00581
64.2200 64.1352 102.0 0.00980 92.12397 115.46201
64.2367 64.1519 125.0 0.00800 92.03140 115.93838
64.2534 64.1686 112.0 0.00893 91.93884 116.43559
64.2702 64.1854 101.0 0.00990 91.84576 116.95779
64.2869 64.2021 110.0 0.00909 91.75316 117.50066
64.3036 64.2188 110.0 0.00909 91.66059 118.07745
64.3203 64.2355 108.0 0.00926 91.56802 118.67000
64.3370 64.2522 105.0 0.00952 91.47546 119.28947
64.3538 64.2690 109.0 0.00917 91.38235 119.94140
64.3705 64.2857 111.0 0.00900 91.28978 120.61931
64.3872 64.3024 127.0 0.00787 91.19726 121.32877
64.4039 64.3191 117.0 0.00854 91.10469 122.07146
64.4206 64.3358 120.0 0.00834 91.01212 122.84926
64.4373 64.3525 102.0 0.00980 90.91960 123.66394
64.4541 64.3693 107.0 0.00935 90.82645 124.52370
64.4708 64.3860 114.0 0.00877 90.73388 125.41963
64.4875 64.4027 127.0 0.00787 90.64131 126.35957
64.5042 64.4194 122.0 0.00819 90.54875 127.34646
64.5209 64.4361 110.0 0.00909 90.45618 128.38254
64.5377 64.4529 114.0 0.00877 90.36311 129.47734
64.5544 64.4696 121.0 0.00826 90.27050 130.62283
64.5711 64.4863 106.0 0.00943 90.17794 131.82709
64.5878 64.5030 119.0 0.00840 90.08542 133.09465
64.6045 64.5197 123.0 0.00813 89.99285 134.42963
64.6213 64.5365 122.0 0.00819 89.89970 135.84544
64.6380 64.5532 128.0 0.00782 89.80717 137.32977
64.6547 64.5699 119.0 0.00840 89.71461 138.89632
64.6714 64.5866 110.0 0.00909 89.62204 140.55086
64.6881 64.6033 117.0 0.00854 89.52947 142.29971
64.7048 64.6200 106.0 0.00943 89.43695 144.14923
64.7216 64.6368 123.0 0.00813 89.34380 146.12094
64.7383 64.6535 123.0 0.00813 89.25123 148.19908
64.7550 64.6702 124.0 0.00806 89.15871 150.40155
64.7717 64.6869 126.0 0.00794 89.06610 152.74054
64.7884 64.7036 121.0 0.00826 88.97353 155.22565
64.8052 64.7204 142.0 0.00704 88.88046 157.88464
64.8219 64.7371 141.0 0.00710 88.78785 160.70311
64.8386 64.7538 162.0 0.00617 88.69533 163.70665
64.8553 64.7705 153.0 0.00654 88.60276 166.91299
64.8720 64.7872 152.0 0.00658 88.51020 170.34012
64.8888 64.8040 126.0 0.00794 88.41708 174.03133
64.9055 64.8207 150.0 0.00666 88.32452 177.96393
64.9222 64.8374 137.0 0.00731 88.23196 182.18465
64.9389 64.8541 137.0 0.00731 88.13939 186.72136
64.9556 64.8708 163.0 0.00613 88.04687 191.60547
64.9723 64.8875 174.0 0.00575 87.95430 196.87064
64.9891 64.9043 170.0 0.00588 87.86115 202.59813
65.0058 64.9210 183.0 0.00546 87.76862 208.75922
65.0225 64.9377 188.0 0.00532 87.67606 215.44136
65.0392 64.9544 184.0 0.00544 87.58344 222.70778
65.0559 64.9711 230.0 0.00435 87.49092 230.62605
65.0727 64.9879 203.0 0.00492 87.39785 239.33473
65.0894 65.0046 247.0 0.00405 87.30524 248.85220
65.1061 65.0213 217.0 0.00461 87.21268 259.34430
65.1228 65.0380 232.0 0.00431 87.12011 270.99438
65.1395 65.0547 265.0 0.00377 87.02755 284.03848
65.1563 65.0715 264.0 0.00379 86.93443 298.89697
65.1730 65.0882 307.0 0.003258 86.84187 315.84042
65.1897 65.1049 352.0 0.002841 86.74930 335.58124
65.2064 65.1216 351.0 0.002851 86.65678 358.99036
65.2231 65.1383 386.0 0.002590 86.56421 387.26160
65.2398 65.1550 394.0 0.002538 86.47169 421.99066
65.2566 65.1718 448.0 0.002231 86.37853 465.62018
65.2733 65.1885 539.0 0.001855 86.28596 520.29315
65.2900 65.2052 545.0 0.001834 86.19341 589.58435
65.3067 65.2219 624.0 0.001603 86.10084 677.46680
65.3234 65.2386 741.0 0.001350 86.00827 788.35883
65.3402 65.2554 870.0 0.001149 85.91520 927.93542
65.3569 65.2721 962.0 0.001039 85.82259 1099.59155
65.3736 65.2888 1209.0 0.000827 85.73003 1308.19446
65.3903 65.3055 1434.0 0.000697 85.63746 1557.25134
65.4070 65.3222 1708.0 0.000585 85.54489 1848.62024
65.4238 65.3390 2059.0 0.000486 85.45178 2184.20386
65.4405 65.3557 2375.0 0.000421 85.35921 2556.63867
65.4572 65.3724 2870.0 0.0003485 85.26669 2961.32568
65.4739 65.3891 3309.0 0.0003022 85.17413 3387.65015
65.4906 65.4058 3745.0 0.0002670 85.08156 3820.39771
65.5073 65.4225 4068.0 0.0002458 84.98904 4239.38818
65.5241 65.4393 4594.0 0.0002177 84.89588 4622.95264
65.5408 65.4560 4890.0 0.0002045 84.80331 4940.11621
65.5575 65.4727 5247.0 0.0001906 84.71075 5170.64697
65.5742 65.4894 5463.0 0.0001831 84.61819 5299.76709
65.5909 65.5061 5361.0 0.0001865 84.52562 5323.28223
65.6077 65.5229 5381.0 0.0001858 84.43255 5245.72900
65.6244 65.5396 5078.0 0.0001969 84.33994 5078.51807
65.6411 65.5563 4823.0 0.0002073 84.24738 4834.64258
65.6578 65.5730 4411.0 0.0002267 84.15481 4528.37500
65.6745 65.5897 3785.0 0.0002642 84.06229 4175.79590
65.6913 65.6065 3526.0 0.0002836 83.96913 3792.15381
65.7080 65.6232 3193.0 0.0003131 83.87660 3400.09644
65.7247 65.6399 2711.0 0.000369 83.78404 3013.38354
65.7414 65.6566 2410.0 0.000415 83.69147 2644.87695
65.7581 65.6733 2190.0 0.000457 83.59891 2303.52026
65.7748 65.6900 1799.0 0.000556 83.50639 1994.64978
65.7916 65.7068 1611.0 0.000621 83.41323 1718.63989
65.8083 65.7235 1369.0 0.000730 83.32066 1479.05823
65.8250 65.7402 1263.0 0.000792 83.22814 1272.43384
65.8417 65.7569 1052.0 0.000951 83.13554 1096.17810
65.8584 65.7736 896.0 0.001116 83.04297 947.34357
65.8752 65.7904 806.0 0.001241 82.94990 822.18530
65.8919 65.8071 759.0 0.001318 82.85728 718.42102
65.9086 65.8238 636.0 0.001572 82.76476 632.53180
65.9253 65.8405 566.0 0.001767 82.67220 561.62836
65.9420 65.8572 541.0 0.001848 82.57964 503.17865
65.9587 65.8739 448.0 0.002231 82.48707 454.96231
65.9755 65.8907 389.0 0.002571 82.39395 414.84875
65.9922 65.9074 351.0 0.002851 82.30138 381.71136
66.0089 65.9241 363.0 0.002756 82.20882 353.95035
66.0256 65.9408 344.0 0.002906 82.11626 330.48181
66.0423 65.9575 312.0 0.003206 82.02374 310.44186
66.0591 65.9743 282.0 0.00355 81.93058 293.02740
66.0758 65.9910 252.0 0.00397 81.83805 277.92722
66.0925 66.0077 238.0 0.00420 81.74549 264.60553
66.1092 66.0244 239.0 0.00418 81.65288 252.73807
66.1259 66.0411 207.0 0.00483 81.56036 242.08423
66.1427 66.0579 214.0 0.00467 81.46729 232.39789
66.1594 66.0746 189.0 0.00529 81.37468 223.63147
66.1761 66.0913 196.0 0.00510 81.28211 215.62125
66.1928 66.1080 201.0 0.00497 81.18954 208.26762
66.2095 66.1247 179.0 0.00559 81.09698 201.49358
66.2262 66.1414 178.0 0.00562 81.00442 195.23534
66.2430 66.1582 191.0 0.00524 80.91130 189.40479
66.2597 66.1749 164.0 0.00609 80.81873 184.28123
66.2764 66.1916 167.0 0.00599 80.72621 179.28119
66.2931 66.2083 143.0 0.00699 80.63364 174.62193
66.3098 66.2250 142.0 0.00704 80.54112 170.27406
66.3266 66.2418 171.0 0.00585 80.44797 166.18236
66.3433 66.2585 135.0 0.00741 80.35540 162.37614
66.3600 66.2752 148.0 0.00675 80.26284 158.80653
66.3767 66.2919 152.0 0.00658 80.17027 155.45322
66.3934 66.3086 150.0 0.00666 80.07771 152.30057
66.4102 66.3254 130.0 0.00769 79.98463 149.31575
66.4269 66.3421 123.0 0.00813 79.89203 146.51585
66.4436 66.3588 149.0 0.00671 79.79946 143.87424
66.4603 66.3755 115.0 0.00870 79.70689 141.37744
66.4770 66.3922 119.0 0.00840 79.61433 139.01485
66.4938 66.4090 132.0 0.00757 79.52122 136.76338
66.5105 66.4257 136.0 0.00736 79.42865 134.64165
66.5272 66.4424 106.0 0.00943 79.33613 132.62746
66.5439 66.4591 119.0 0.00840 79.24356 130.71342
66.5606 66.4758 133.0 0.00752 79.15099 128.89275
66.5773 66.4925 120.0 0.00834 79.05847 127.15981
66.5941 66.5093 111.0 0.00900 78.96532 125.49746
66.6108 66.5260 126.0 0.00794 78.87275 123.92220
66.6275 66.5427 120.0 0.00834 78.78018 122.41831
66.6442 66.5594 101.0 0.00990 78.68762 120.98101
66.6609 66.5761 108.0 0.00926 78.59505 119.60693
66.6777 66.5929 116.0 0.00862 78.50198 118.28474
66.6944 66.6096 116.0 0.00862 78.40937 117.02480
66.7111 66.6263 112.0 0.00893 78.31681 115.81783
66.7278 66.6430 112.0 0.00893 78.22424 114.66009
66.7445 66.6597 98.0 0.01021 78.13172 113.54880
66.7613 66.6765 113.0 0.00885 78.03856 112.47479
66.7780 66.6932 123.0 0.00813 77.94604 111.44890
66.7947 66.7099 127.0 0.00787 77.85348 110.46206
66.8114 66.7266 118.0 0.00848 77.76091 109.51219
66.8281 66.7433 107.0 0.00935 77.66834 108.59734
66.8448 66.7600 105.0 0.00952 77.57582 107.71595
66.8616 66.7768 128.0 0.00782 77.48267 106.86039
66.8783 66.7935 105.0 0.00952 77.39010 106.04021
66.8950 66.8102 98.0 0.01021 77.29758 105.24842
66.9117 66.8269 120.0 0.00834 77.20496 104.48328
66.9284 66.8436 115.0 0.00870 77.11240 103.74399
66.9452 66.8604 99.0 0.01010 77.01933 103.02517
66.9619 66.8771 106.0 0.00943 76.92672 102.33318
66.9786 66.8938 107.0 0.00935 76.83416 101.66367
66.9953 66.9105 121.0 0.00826 76.74163 101.01526
67.0120 66.9272 112.0 0.00893 76.64907 100.38689
67.0288 66.9440 115.0 0.00870 76.55595 99.77404
67.0455 66.9607 96.0 0.01042 76.46339 99.18330
67.0622 66.9774 95.0 0.01053 76.37082 98.61002
67.0789 66.9941 105.0 0.00952 76.27826 98.05347
67.0956 67.0108 116.0 0.00862 76.18569 97.51293
67.1123 67.0275 88.0 0.01136 76.09317 96.98787
67.1291 67.0443 92.0 0.01087 76.00002 96.47407
67.1458 67.0610 111.0 0.00900 75.90749 95.97768
67.1625 67.0777 91.0 0.01099 75.81493 95.49474
67.1792 67.0944 90.0 0.01111 75.72231 95.02454
67.1959 67.1111 93.0 0.01075 75.62979 94.56697
67.2127 67.1279 81.0 0.01235 75.53672 94.11883
67.2294 67.1446 99.0 0.01010 75.44411 93.68436
67.2461 67.1613 90.0 0.01111 75.35155 93.26115
67.2628 67.1780 92.0 0.01087 75.25898 92.84853
67.2795 67.1947 121.0 0.00826 75.16642 92.44606
67.2963 67.2115 102.0 0.00980 75.07330 92.05103
67.3130 67.2282 113.0 0.00885 74.98074 91.66786
67.3297 67.2449 114.0 0.00877 74.88817 91.29379
67.3464 67.2616 91.0 0.01099 74.79561 90.92846
67.3631 67.2783 81.0 0.01235 74.70308 90.57165
67.3798 67.2950 87.0 0.01150 74.61056 90.22305
67.3966 67.3118 103.0 0.00971 74.51740 89.88006
67.4133 67.3285 101.0 0.00990 74.42484 89.54688
67.4300 67.3452 82.0 0.01220 74.33227 89.22107
67.4467 67.3619 98.0 0.01021 74.23971 88.90231
67.4634 67.3786 98.0 0.01021 74.14714 88.59048
67.4802 67.3954 90.0 0.01111 74.05407 88.28366
67.4969 67.4121 73.0 0.01370 73.96146 87.98482
67.5136 67.4288 100.0 0.01000 73.86890 87.69242
67.5303 67.4455 90.0 0.01111 73.77633 87.40608
67.5470 67.4622 81.0 0.01235 73.68376 87.12561
67.5638 67.4790 92.0 0.01087 73.59065 86.84921
67.5805 67.4957 79.0 0.01266 73.49809 86.58007
67.5972 67.5124 88.0 0.01136 73.40556 86.31632
67.6139 67.5291 89.0 0.01124 73.31300 86.05779
67.6306 67.5458 83.0 0.01205 73.22043 85.80435
67.6473 67.5625 102.0 0.00980 73.12791 85.55600
67.6641 67.5793 88.0 0.01136 73.03475 85.31082
67.6808 67.5960 80.0 0.01250 72.94218 85.07195
67.6975 67.6127 90.0 0.01111 72.84962 84.83767
67.7142 67.6294 89.0 0.01124 72.75706 84.60785
67.7309 67.6461 71.0 0.01409 72.66449 84.38246
67.7477 67.6629 90.0 0.01111 72.57142 84.16017
67.7644 67.6796 79.0 0.01266 72.47881 83.94321
67.7811 67.6963 86.0 0.01163 72.38625 83.73046
67.7978 67.7130 87.0 0.01150 72.29368 83.52176
67.8145 67.7297 86.0 0.01163 72.20116 83.31703
67.8313 67.7465 89.0 0.01124 72.10799 83.11492
67.8480 67.7632 83.0 0.01205 72.01547 82.91794
67.8647 67.7799 93.0 0.01075 71.92291 82.72466
67.8814 67.7966 82.0 0.01220 71.83035 82.53511
67.8981 67.8133 83.0 0.01205 71.73778 82.34917
67.9148 67.8300 82.0 0.01220 71.64526 82.16692
67.9316 67.8468 93.0 0.01075 71.55210 81.98702
67.9483 67.8635 89.0 0.01124 71.45953 81.81181
67.9650 67.8802 81.0 0.01235 71.36701 81.64010
67.9817 67.8969 77.0 0.01299 71.27440 81.47175
67.9984 67.9136 83.0 0.01205 71.18184 81.30691
68.0152 67.9304 94.0 0.01064 71.08877 81.14458
68.0319 67.9471 79.0 0.01266 70.99615 80.98647
68.0486 67.9638 83.0 0.01205 70.90359 80.83183
68.0653 67.9805 84.0 0.01191 70.81107 80.68061
68.0820 67.9972 78.0 0.01282 70.71851 80.53275
68.0988 68.0140 88.0 0.01136 70.62539 80.38742
68.1155 68.0307 85.0 0.01176 70.53282 80.24639
68.1322 68.0474 95.0 0.01053 70.44025 80.10876
68.1489 68.0641 97.0 0.01031 70.34769 79.97459
68.1656 68.0808 71.0 0.01409 70.25513 79.84391
68.1823 68.0975 75.0 0.01333 70.16261 79.71680
68.1991 68.1143 79.0 0.01266 70.06944 79.59245
68.2158 68.1310 98.0 0.01021 69.97692 79.47258
68.2325 68.1477 65.0 0.01539 69.88436 79.35635
68.2492 68.1644 78.0 0.01282 69.79175 79.24389
68.2659 68.1811 73.0 0.01370 69.69923 79.13537
68.2827 68.1979 90.0 0.01111 69.60616 79.03021
68.2994 68.2146 81.0 0.01235 69.51350 78.92963
68.3161 68.2313 87.0 0.01150 69.42098 78.83342
68.3328 68.2480 92.0 0.01087 69.32841 78.74153
68.3495 68.2647 70.0 0.01428 69.23585 78.65417
68.3662 68.2814 83.0 0.01205 69.14329 78.57153
68.3830 68.2982 73.0 0.01370 69.05017 78.49338
68.3997 68.3149 111.0 0.00900 68.95760 78.42088
68.4164 68.3316 103.0 0.00971 68.86504 78.35383
68.4331 68.3483 74.0 0.01351 68.77251 78.29259
68.4498 68.3650 76.0 0.01316 68.67995 78.23743
68.4666 68.3818 96.0 0.01042 68.58684 78.18865
68.4833 68.3985 75.0 0.01333 68.49427 78.14725
68.5000 68.4152 86.0 0.01163 68.40170 78.11363
68.5167 68.4319 79.0 0.01266 68.30914 78.08867
68.5334 68.4486 96.0 0.01042 68.21658 78.07338
68.5502 68.4654 72.0 0.01389 68.12350 78.06927
68.5669 68.4821 63.0 0.01587 68.03089 78.07825
68.5836 68.4988 98.0 0.01021 67.93833 78.10281
68.6003 68.5155 93.0 0.01075 67.84576 78.14631
68.6170 68.5322 99.0 0.01010 67.75320 78.21320
68.6338 68.5490 93.0 0.01075 67.66009 78.30992
68.6505 68.5657 101.0 0.00990 67.56752 78.44260
68.6672 68.5824 73.0 0.01370 67.47495 78.62085
68.6839 68.5991 85.0 0.01176 67.38243 78.85577
68.7006 68.6158 83.0 0.01205 67.28986 79.16022
68.7173 68.6325 86.0 0.01163 67.19734 79.54897
68.7341 68.6493 91.0 0.01099 67.10419 80.04202
68.7508 68.6660 79.0 0.01266 67.01162 80.65016
68.7675 68.6827 75.0 0.01333 66.91905 81.39338
68.7842 68.6994 102.0 0.00980 66.82649 82.28799
68.8009 68.7161 88.0 0.01136 66.73392 83.34681
68.8177 68.7329 88.0 0.01136 66.64085 84.58669
68.8344 68.7496 102.0 0.00980 66.54824 85.99782
68.8511 68.7663 87.0 0.01150 66.45568 87.57948
68.8678 68.7830 93.0 0.01075 66.36311 89.31673
68.8845 68.7997 90.0 0.01111 66.27059 91.18201
68.9013 68.8165 80.0 0.01250 66.17743 93.14828
68.9180 68.8332 103.0 0.00971 66.08491 95.14317
68.9347 68.8499 84.0 0.01191 65.99235 97.12524
68.9514 68.8666 94.0 0.01064 65.89978 99.03915
68.9681 68.8833 108.0 0.00926 65.80721 100.82591
68.9848 68.9000 104.0 0.00961 65.71469 102.41751
69.0016 68.9168 105.0 0.00952 65.62154 103.74274
69.0183 68.9335 115.0 0.00870 65.62418 104.79092
69.0350 68.9502 101.0 0.00990 65.64956 105.41532
69.0517 68.9669 109.0 0.00917 65.67493 105.53316
69.0684 68.9836 87.0 0.01150 65.70031 105.12694
69.0852 69.0004 92.0 0.01087 65.72582 104.22558
69.1019 69.0171 115.0 0.00870 65.75121 102.92124
69.1186 69.0338 94.0 0.01064 65.77658 101.32444
69.1353 69.0505 107.0 0.00935 65.80194 99.55492
69.1520 69.0672 99.0 0.01010 65.82732 97.72319
69.1688 69.0840 105.0 0.00952 65.85284 95.90958
69.1855 69.1007 93.0 0.01075 65.87822 94.20589
69.2022 69.1174 82.0 0.01220 65.90359 92.65022
69.2189 69.1341 102.0 0.00980 65.92897 91.27485
69.2356 69.1508 110.0 0.00909 65.95434 90.09854
69.2523 69.1675 79.0 0.01266 65.97971 89.12941
69.2691 69.1843 79.0 0.01266 66.00524 88.36208
69.2858 69.2010 90.0 0.01111 66.03060 87.79981
69.3025 69.2177 94.0 0.01064 66.05598 87.42579
69.3192 69.2344 99.0 0.01010 66.08137 87.22604
69.3359 69.2511 85.0 0.01176 66.10674 87.95615
69.3527 69.2679 108.0 0.00926 66.13224 88.06569
69.3694 69.2846 101.0 0.00990 66.15764 88.30524
69.3861 69.3013 96.0 0.01042 66.18300 88.66247
69.4028 69.3180 102.0 0.00980 66.20837 89.12741
69.4195 69.3347 91.0 0.01099 66.23375 89.69244
69.4363 69.3515 94.0 0.01064 66.25928 90.35673
69.4530 69.3682 98.0 0.01021 66.28465 91.10956
69.4697 69.3849 94.0 0.01064 66.31002 91.95454
69.4864 69.4016 89.0 0.01124 66.33540 92.89372
69.5031 69.4183 85.0 0.01176 66.36076 93.93162
69.5198 69.4350 97.0 0.01031 66.38613 95.07474
69.5366 69.4518 118.0 0.00848 66.41166 96.34168
69.5533 69.4685 104.0 0.00961 66.43703 97.72852
69.5700 69.4852 98.0 0.01021 66.46241 99.25916
69.5867 69.5019 102.0 0.00980 66.48779 100.95490
69.6034 69.5186 92.0 0.01087 66.51316 102.84157
69.6202 69.5354 96.0 0.01042 66.53867 104.96667
69.6369 69.5521 105.0 0.00952 66.56406 107.35341
69.6536 69.5688 116.0 0.00862 66.58943 110.06866
69.6703 69.5855 133.0 0.00752 66.61481 113.19001
69.6870 69.6022 104.0 0.00961 66.64018 116.81681
69.7038 69.6190 123.0 0.00813 66.66570 121.10643
69.7205 69.6357 134.0 0.00746 66.69108 126.17389
69.7372 69.6524 134.0 0.00746 66.71645 132.25648
69.7539 69.6691 172.0 0.00582 66.74181 139.62410
69.7706 69.6858 162.0 0.00617 66.76719 148.61320
69.7873 69.7025 152.0 0.00658 66.79256 159.63240
69.8041 69.7193 210.0 0.00476 66.81809 173.27812
69.8208 69.7360 206.0 0.00486 66.84347 190.64711
69.8375 69.7527 224.0 0.00446 66.86884 211.08076
69.8542 69.7694 223.0 0.00449 66.89421 235.97838
69.8709 69.7861 286.0 0.003497 66.91959 266.04205
69.8877 69.8029 309.0 0.003236 66.94510 302.17300
69.9044 69.8196 304.0 0.003288 66.97049 344.56796
69.9211 69.8363 391.0 0.002559 66.99586 393.73004
69.9378 69.8530 461.0 0.002169 67.02124 449.76593
69.9545 69.8697 488.0 0.002049 67.04660 512.39502
69.9713 69.8865 512.0 0.001953 67.07214 581.35504
69.9880 69.9032 602.0 0.001661 67.09751 654.65063
70.0047 69.9199 652.0 0.001534 67.12287 731.06329
70.0214 69.9366 859.0 0.001164 67.14825 808.44354
70.0381 69.9533 905.0 0.001105 67.17362 884.03186
70.0548 69.9700 950.0 0.001053 67.19898 954.40100
70.0716 69.9868 1035.0 0.000966 67.22452 1016.03125
70.0883 70.0035 1005.0 0.000995 67.24989 1064.09094
70.1050 70.0202 1105.0 0.000905 67.27527 1095.58008
70.1217 70.0369 1109.0 0.000902 67.30064 1108.87183
70.1384 70.0536 1067.0 0.000937 67.32602 1101.97900
70.1552 70.0704 991.0 0.001009 67.35153 1075.96204
70.1719 70.0871 948.0 0.001055 67.37691 1032.90515
70.1886 70.1038 899.0 0.001113 67.40229 975.54767
70.2053 70.1205 802.0 0.001247 67.42766 907.36566
70.2220 70.1372 741.0 0.001350 67.45303 832.22021
70.2388 70.1540 684.0 0.001462 67.47855 753.42596
70.2555 70.1707 518.0 0.001930 67.50393 675.31934
70.2722 70.1874 535.0 0.001869 67.52930 600.11365
70.2889 70.2041 445.0 0.002246 67.55468 529.76239
70.3056 70.2208 417.0 0.002398 67.58006 465.52921
70.3223 70.2375 406.0 0.002463 67.60542 408.10471
70.3391 70.2543 293.0 0.003412 67.63095 357.35907
70.3558 70.2710 308.0 0.003247 67.65633 313.80890
70.3725 70.2877 274.0 0.00365 67.68169 276.70642
70.3892 70.3044 241.0 0.00415 67.70708 245.48000
70.4059 70.3211 245.0 0.00408 67.73245 217.53223
70.4227 70.3379 227.0 0.00440 67.75797 195.99567
70.4394 70.3546 187.0 0.00535 67.78335 178.44513
70.4561 70.3713 174.0 0.00575 67.80872 164.13603
70.4728 70.3880 175.0 0.00571 67.83408 152.48444
70.4895 70.4047 179.0 0.00559 67.85946 142.98904
70.5062 70.4214 143.0 0.00699 67.88483 135.22292
70.5230 70.4382 145.0 0.00690 67.91036 128.79532
70.5397 70.4549 123.0 0.00813 67.93574 123.49441
70.5564 70.4716 110.0 0.00909 67.96111 119.04639
70.5731 70.4883 102.0 0.00980 67.98647 115.26994
70.5898 70.5050 114.0 0.00877 68.01185 112.02534
70.6066 70.5218 112.0 0.00893 68.03737 109.18568
70.6233 70.5385 111.0 0.00900 68.06274 106.70560
70.6400 70.5552 99.0 0.01010 68.08812 104.50317
70.6567 70.5719 110.0 0.00909 68.11350 102.53021
70.6734 70.5886 99.0 0.01010 68.13887 100.75134
70.6902 70.6054 97.0 0.01031 68.16438 99.12914
70.7069 70.6221 103.0 0.00971 68.18977 97.65841
70.7236 70.6388 93.0 0.01075 68.21514 96.31366
70.7403 70.6555 96.0 0.01042 68.24052 95.07948
70.7570 70.6722 82.0 0.01220 68.26589 93.94392
70.7738 70.6890 87.0 0.01150 68.29142 92.89063
70.7905 70.7057 109.0 0.00917 68.31679 91.92371
70.8072 70.7224 91.0 0.01099 68.34216 91.02897
70.8239 70.7391 102.0 0.00980 68.36753 90.19978
70.8406 70.7558 93.0 0.01075 68.39291 89.43039
70.8573 70.7725 87.0 0.01150 68.41827 88.71577
70.8741 70.7893 81.0 0.01235 68.44380 88.04684
70.8908 70.8060 87.0 0.01150 68.46918 87.42822
70.9075 70.8227 86.0 0.01163 68.49455 86.85174
70.9242 70.8394 87.0 0.01150 68.51993 86.31395
70.9409 70.8561 86.0 0.01163 68.54530 85.81218
70.9577 70.8729 119.0 0.00840 68.57082 85.34103
70.9744 70.8896 111.0 0.00900 68.59620 84.90296
70.9911 70.9063 102.0 0.00980 68.62157 84.49359
71.0078 70.9230 116.0 0.00862 68.64695 84.11062
71.0245 70.9397 90.0 0.01111 68.67233 83.75221
71.0413 70.9565 104.0 0.00961 68.69785 83.41468
71.0580 70.9732 79.0 0.01266 68.72322 83.10059
71.0747 70.9899 86.0 0.01163 68.74858 82.80640
71.0914 71.0066 96.0 0.01042 68.77396 82.53088
71.1081 71.0233 99.0 0.01010 68.79933 82.27282
71.1248 71.0400 91.0 0.01099 68.82470 82.03115
71.1416 71.0568 83.0 0.01205 68.85023 81.80341
71.1583 71.0735 91.0 0.01099 68.87561 81.59161
71.1750 71.0902 106.0 0.00943 68.90098 81.39340
71.1917 71.1069 83.0 0.01205 68.92635 81.20796
71.2084 71.1236 91.0 0.01099 68.95173 81.03471
71.2252 71.1404 77.0 0.01299 68.97724 80.87196
71.2419 71.1571 86.0 0.01163 69.00263 80.72093
71.2586 71.1738 82.0 0.01220 69.02801 80.58018
71.2753 71.1905 89.0 0.01124 69.05337 80.44917
71.2920 71.2072 83.0 0.01205 69.07874 80.32741
71.3088 71.2240 84.0 0.01191 69.10428 80.21371
71.3255 71.2407 91.0 0.01099 69.12964 80.10909
71.3422 71.2574 72.0 0.01389 69.15501 80.01241
71.3589 71.2741 91.0 0.01099 69.18039 79.92330
71.3756 71.2908 79.0 0.01266 69.20576 79.84145
71.3923 71.3075 93.0 0.01075 69.23112 79.76653
71.4091 71.3243 90.0 0.01111 69.25666 79.69781
71.4258 71.3410 101.0 0.00990 69.28204 79.63589
71.4425 71.3577 80.0 0.01250 69.30740 79.58006
71.4592 71.3744 89.0 0.01124 69.33279 79.53007
71.4759 71.3911 79.0 0.01266 69.35816 79.48575
71.4927 71.4079 78.0 0.01282 69.38367 79.44663
71.5094 71.4246 76.0 0.01316 69.40906 79.41295
71.5261 71.4413 100.0 0.01000 69.43443 79.38433
71.5428 71.4580 96.0 0.01042 69.45980 79.36060
71.5595 71.4747 79.0 0.01266 69.48518 79.34159
71.5763 71.4915 83.0 0.01205 69.51070 79.32709
71.5930 71.5082 86.0 0.01163 69.53607 79.31710
71.6097 71.5249 88.0 0.01136 69.56145 79.31145
71.6264 71.5416 87.0 0.01150 69.58682 79.30997
71.6431 71.5583 76.0 0.01316 69.61218 79.31257
71.6598 71.5750 74.0 0.01351 69.63756 79.31915
71.6766 71.5918 68.0 0.01471 69.66309 79.32972
71.6933 71.6085 85.0 0.01176 69.68845 79.34401
71.7100 71.6252 62.0 0.01613 69.71383 79.36203
71.7267 71.6419 93.0 0.01075 69.73922 79.38370
71.7434 71.6586 81.0 0.01235 69.76458 79.40893
71.7602 71.6754 69.0 0.01449 69.79009 79.43784
71.7769 71.6921 88.0 0.01136 69.81548 79.47009
71.7936 71.7088 103.0 0.00971 69.84085 79.50573
71.8103 71.7255 84.0 0.01191 69.86623 79.54475
71.8270 71.7422 97.0 0.01031 69.89160 79.58705
71.8438 71.7590 79.0 0.01266 69.91713 79.63294
71.8605 71.7757 69.0 0.01449 69.94250 79.68182
71.8772 71.7924 68.0 0.01471 69.96788 79.73391
71.8939 71.8091 85.0 0.01176 69.99324 79.78921
71.9106 71.8258 75.0 0.01333 70.01862 79.84769
71.9273 71.8425 77.0 0.01299 70.04398 79.90932
71.9441 71.8593 91.0 0.01099 70.06951 79.97455
71.9608 71.8760 78.0 0.01282 70.09489 80.04252
71.9775 71.8927 83.0 0.01205 70.12026 80.11362
71.9942 71.9094 73.0 0.01370 70.14564 80.18793
72.0109 71.9261 86.0 0.01163 70.17101 80.26534
72.0277 71.9429 79.0 0.01266 70.19653 80.34637
72.0444 71.9596 81.0 0.01235 70.22191 80.43016
72.0611 71.9763 82.0 0.01220 70.24728 80.51711
72.0778 71.9930 66.0 0.01515 70.27266 80.60724
72.0945 72.0097 86.0 0.01163 70.29803 80.70061
72.1113 72.0265 76.0 0.01316 70.32356 80.79782
72.1280 72.0432 81.0 0.01235 70.34893 80.89774
72.1447 72.0599 79.0 0.01266 70.37430 81.00094
72.1614 72.0766 89.0 0.01124 70.39967 81.10749
72.1781 72.0933 72.0 0.01389 70.42504 81.21743
72.1948 72.1100 83.0 0.01205 70.45041 81.33077
72.2116 72.1268 77.0 0.01299 70.47594 81.44836
72.2283 72.1435 87.0 0.01150 70.50132 81.56876
72.2450 72.1602 75.0 0.01333 70.52670 81.69272
72.2617 72.1769 85.0 0.01176 70.55207 81.82034
72.2784 72.1936 78.0 0.01282 70.57744 81.95164
72.2952 72.2104 107.0 0.00935 70.60296 82.08745
72.3119 72.2271 83.0 0.01205 70.62834 82.22646
72.3286 72.2438 80.0 0.01250 70.65372 82.36928
72.3453 72.2605 84.0 0.01191 70.67909 82.51610
72.3620 72.2772 84.0 0.01191 70.70445 82.66697
72.3788 72.2940 81.0 0.01235 70.72999 82.82298
72.3955 72.3107 70.0 0.01428 70.75536 82.98229
72.4122 72.3274 93.0 0.01075 70.78072 83.14596
72.4289 72.3441 91.0 0.01099 70.80610 83.31409
72.4456 72.3608 83.0 0.01205 70.83147 83.48677
72.4623 72.3775 74.0 0.01351 70.85684 83.66407
72.4791 72.3943 74.0 0.01351 70.88238 83.84742
72.4958 72.4110 90.0 0.01111 70.90775 84.03453
72.5125 72.4277 104.0 0.00961 70.93311 84.22667
72.5292 72.4444 91.0 0.01099 70.95850 84.42411
72.5459 72.4611 90.0 0.01111 70.98387 84.62680
72.5627 72.4779 75.0 0.01333 71.00938 84.83616
72.5794 72.4946 86.0 0.01163 71.03477 85.05013
72.5961 72.5113 102.0 0.00980 71.06013 85.26981
72.6128 72.5280 80.0 0.01250 71.08551 85.49550
72.6295 72.5447 88.0 0.01136 71.11089 85.72738
72.6462 72.5614 88.0 0.01136 71.13626 85.96561
72.6630 72.5782 92.0 0.01087 71.16178 86.21196
72.6797 72.5949 95.0 0.01053 71.18716 86.46358
72.6964 72.6116 91.0 0.01099 71.21253 86.72226
72.7131 72.6283 96.0 0.01042 71.23791 86.98816
72.7298 72.6450 79.0 0.01266 71.26327 87.26149
72.7466 72.6618 93.0 0.01075 71.28880 87.54448
72.7633 72.6785 84.0 0.01191 71.31417 87.83369
72.7800 72.6952 99.0 0.01010 71.33955 88.13123
72.7967 72.7119 90.0 0.01111 71.36493 88.43746
72.8134 72.7286 85.0 0.01176 71.39029 88.75253
72.8302 72.7454 94.0 0.01064 71.41580 89.07867
72.8469 72.7621 95.0 0.01053 71.44119 89.41285
72.8636 72.7788 100.0 0.01000 71.46657 89.75677
72.8803 72.7955 82.0 0.01220 71.49194 90.11106
72.8970 72.8122 91.0 0.01099 71.51731 90.47610
72.9137 72.8289 94.0 0.01064 71.54269 90.85230
72.9305 72.8457 109.0 0.00917 71.56821 91.24256
72.9472 72.8624 97.0 0.01031 71.59359 91.64256
72.9639 72.8791 110.0 0.00909 71.61895 92.05514
72.9806 72.8958 90.0 0.01111 71.64433 92.48083
72.9973 72.9125 104.0 0.00961 71.66969 92.92008
73.0141 72.9293 100.0 0.01000 71.69522 93.37668
73.0308 72.9460 93.0 0.01075 71.72060 93.85013
73.0475 72.9627 79.0 0.01266 71.74597 94.33427
73.0642 72.9794 106.0 0.00943 71.77135 94.83475
73.0809 72.9961 103.0 0.00971 71.79672 95.35207
73.0977 73.0129 100.0 0.01000 71.82224 95.89011
73.1144 73.0296 91.0 0.01099 71.84762 96.44408
73.1311 73.0463 97.0 0.01031 71.87299 97.01713
73.1478 73.0630 89.0 0.01124 71.89837 97.61050
73.1645 73.0797 111.0 0.00900 71.92374 98.22516
73.1813 73.0965 87.0 0.01150 71.94927 98.86613
73.1980 73.1132 105.0 0.00952 71.97465 99.52666
73.2147 73.1299 91.0 0.01099 72.00001 100.21180
73.2314 73.1466 101.0 0.00990 72.02538 100.92280
73.2481 73.1633 107.0 0.00935 72.05076 101.66093
73.2648 73.1800 104.0 0.00961 72.07612 102.42743
73.2816 73.1968 97.0 0.01031 72.10165 103.22945
73.2983 73.2135 108.0 0.00926 72.12703 104.05817
73.3150 73.2302 89.0 0.01124 72.15240 104.92027
73.3317 73.2469 123.0 0.00813 72.17778 105.81789
73.3484 73.2636 91.0 0.01099 72.20316 106.75249
73.3652 73.2804 103.0 0.00971 72.22867 107.73195
73.3819 73.2971 107.0 0.00935 72.25405 108.74829
73.3986 73.3138 113.0 0.00885 72.27943 109.80809
73.4153 73.3305 116.0 0.00862 72.30480 110.91451
73.4320 73.3472 113.0 0.00885 72.33016 112.07036
73.4488 73.3640 87.0 0.01150 72.35570 113.28623
73.4655 73.3807 105.0 0.00952 72.38107 114.55057
73.4822 73.3974 113.0 0.00885 72.40644 115.87415
73.4989 73.4141 101.0 0.00990 72.43181 117.26073
73.5156 73.4308 109.0 0.00917 72.45718 118.71442
73.5323 73.4475 125.0 0.00800 72.48255 120.23921
73.5491 73.4643 123.0 0.00813 72.50809 121.85137
73.5658 73.4810 94.0 0.01064 72.53346 123.53509
73.5825 73.4977 96.0 0.01042 72.55882 125.30614
73.5992 73.5144 113.0 0.00885 72.58421 127.17126
73.6159 73.5311 103.0 0.00971 72.60958 129.13611
73.6327 73.5479 112.0 0.00893 72.63509 131.27892
73.6494 73.5646 127.0 0.00787 72.66048 133.46942
73.6661 73.5813 108.0 0.00926 72.68586 135.78326
73.6828 73.5980 134.0 0.00746 72.71122 138.23134
73.6995 73.6147 122.0 0.00819 72.73660 140.82437
73.7163 73.6315 149.0 0.00671 72.76212 143.59146
73.7330 73.6482 126.0 0.00794 72.78749 146.51189
73.7497 73.6649 145.0 0.00690 72.81287 149.61638
73.7664 73.6816 149.0 0.00671 72.83824 152.92090
73.7831 73.6983 138.0 0.00724 72.86362 156.44321
73.7998 73.7150 168.0 0.00595 72.88898 160.20215
73.8166 73.7318 165.0 0.00606 72.91452 164.23656
73.8333 73.7485 155.0 0.00645 72.93988 168.54448
73.8500 73.7652 172.0 0.00582 72.96526 173.16782
73.8667 73.7819 175.0 0.00571 72.99064 178.14246
73.8834 73.7986 175.0 0.00571 73.01601 183.50642
73.9002 73.8154 208.0 0.00481 73.04152 189.34430
73.9169 73.8321 213.0 0.00470 73.06690 195.65706
73.9336 73.8488 212.0 0.00472 73.09228 202.54607
73.9503 73.8655 236.0 0.00424 73.11765 210.11465
73.9670 73.8822 277.0 0.00361 73.14303 218.49261
73.9838 73.8990 238.0 0.00420 73.16855 227.91132
74.0005 73.9157 288.0 0.003472 73.19392 238.48108
74.0172 73.9324 267.0 0.00375 73.21930 250.54961
74.0339 73.9491 292.0 0.003424 73.24467 264.49765
74.0506 73.9658 319.0 0.003135 73.27003 280.81268
74.0673 73.9825 363.0 0.002756 73.29540 300.10214
74.0841 73.9993 393.0 0.002546 73.32094 323.29605
74.1008 74.0160 416.0 0.002403 73.34631 351.01047
74.1175 74.0327 460.0 0.002173 73.37168 384.45294
74.1342 74.0494 526.0 0.001902 73.39706 424.85971
74.1509 74.0661 556.0 0.001799 73.42243 473.55896
74.1677 74.0829 647.0 0.001545 73.44794 532.35565
74.1844 74.0996 685.0 0.001460 73.47334 602.12225
74.2011 74.1163 758.0 0.001319 73.49871 684.50287
74.2178 74.1330 849.0 0.001178 73.52408 780.83380
74.2345 74.1497 969.0 0.001032 73.54945 892.18683
74.2513 74.1665 1117.0 0.000895 73.57498 1020.12933
74.2680 74.1832 1234.0 0.000810 73.60036 1163.38586
74.2847 74.1999 1373.0 0.000728 73.62572 1322.38599
74.3014 74.2166 1546.0 0.000647 73.65109 1496.08594
74.3181 74.2333 1740.0 0.000575 73.67647 1682.52417
74.3348 74.2500 1915.0 0.000522 73.70183 1878.59766
74.3516 74.2668 2033.0 0.000492 73.72736 2081.53638
74.3683 74.2835 2176.0 0.000460 73.75274 2283.51831
74.3850 74.3002 2431.0 0.000411 73.77811 2480.33740
74.4017 74.3169 2628.0 0.000381 73.80349 2667.20557
74.4184 74.3336 2758.0 0.000363 73.82887 2840.85864
74.4352 74.3504 2921.0 0.0003423 73.85438 3001.23755
74.4519 74.3671 3146.0 0.0003179 73.87976 3147.47534
74.4686 74.3838 3213.0 0.0003113 73.90514 3281.60718
74.4853 74.4005 3599.0 0.0002779 73.93051 3404.10132
74.5020 74.4172 3627.0 0.0002758 73.95587 3513.17188
74.5188 74.4340 3780.0 0.0002646 73.98141 3604.80933
74.5355 74.4507 3901.0 0.0002563 74.00677 3670.82813
74.5522 74.4674 3932.0 0.0002543 74.03215 3703.31396
74.5689 74.4841 3930.0 0.0002545 74.05753 3694.01978
74.5856 74.5008 3881.0 0.0002576 74.08290 3637.14673
74.6023 74.5175 3685.0 0.0002714 74.10826 3531.16040
74.6191 74.5343 3495.0 0.0002861 74.13380 3378.20386
74.6358 74.5510 3157.0 0.0003167 74.15917 3187.80713
74.6525 74.5677 3003.0 0.0003330 74.18453 2969.18481
74.6692 74.5844 2668.0 0.000375 74.20992 2732.99561
74.6859 74.6011 2592.0 0.000386 74.23530 2489.35181
74.7027 74.6179 2266.0 0.000441 74.26081 2245.26318
74.7194 74.6346 1988.0 0.000503 74.28619 2009.91003
74.7361 74.6513 1818.0 0.000550 74.31157 1787.05798
74.7528 74.6680 1521.0 0.000657 74.33693 1579.89990
74.7695 74.6847 1437.0 0.000696 74.36230 1390.51025
74.7863 74.7015 1254.0 0.000798 74.38783 1218.94360
74.8030 74.7182 1088.0 0.000919 74.41321 1067.50586
74.8197 74.7349 1053.0 0.000950 74.43858 934.64056
74.8364 74.7516 869.0 0.001151 74.46395 819.39447
74.8531 74.7683 802.0 0.001247 74.48933 720.45178
74.8698 74.7850 744.0 0.001344 74.51469 636.28705
74.8866 74.8018 632.0 0.001582 74.54023 564.76489
74.9033 74.8185 556.0 0.001799 74.56559 505.12714
74.9200 74.8352 532.0 0.001879 74.59097 455.24057
74.9367 74.8519 513.0 0.001949 74.61635 413.56894
74.9534 74.8686 464.0 0.002155 74.64172 378.36990
74.9702 74.8854 424.0 0.002359 74.66723 349.05240
74.9869 74.9021 412.0 0.002427 74.69263 324.49335
75.0036 74.9188 334.0 0.002993 74.71799 303.67429
75.0203 74.9355 304.0 0.003288 74.74336 285.86298
75.0370 74.9522 312.0 0.003206 74.76874 270.47897
75.0537 74.9689 285.0 0.00351 74.79411 257.05820
75.0705 74.9857 253.0 0.00395 74.81963 245.16559
75.0872 75.0024 242.0 0.00413 74.84501 234.65741
75.1039 75.0191 253.0 0.00395 74.87038 225.23203
75.1206 75.0358 256.0 0.00391 74.89574 216.71440
75.1373 75.0525 212.0 0.00472 74.92112 208.96954
75.1541 75.0693 193.0 0.00518 74.94665 201.84120
75.1708 75.0860 203.0 0.00492 74.97202 195.33630
75.1875 75.1027 199.0 0.00502 74.99740 189.33778
75.2042 75.1194 175.0 0.00571 75.02277 183.78705
75.2209 75.1361 194.0 0.00515 75.04814 178.64000
75.2377 75.1529 163.0 0.00613 75.07366 173.82921
75.2544 75.1696 175.0 0.00571 75.09904 169.37080
75.2711 75.1863 169.0 0.00592 75.12442 165.21257
75.2878 75.2030 161.0 0.00621 75.14980 161.32573
75.3045 75.2197 153.0 0.00654 75.17517 157.68713
75.3213 75.2365 139.0 0.00719 75.20069 154.25597
75.3380 75.2532 167.0 0.00599 75.22607 151.05557
75.3547 75.2699 149.0 0.00671 75.25144 148.04779
75.3714 75.2866 139.0 0.00719 75.27680 145.21771
75.3881 75.3033 130.0 0.00769 75.30217 142.55257
75.4048 75.3200 155.0 0.00645 75.32757 140.03717
75.4216 75.3368 138.0 0.00724 75.35308 137.65059
75.4383 75.3535 150.0 0.00666 75.37846 135.40891
75.4550 75.3702 126.0 0.00794 75.40382 133.28862
75.4717 75.3869 119.0 0.00840 75.42920 131.28070
75.4884 75.4036 133.0 0.00752 75.45457 129.37859
75.5052 75.4204 127.0 0.00787 75.48009 127.56484
75.5219 75.4371 131.0 0.00763 75.50548 125.85202
75.5386 75.4538 128.0 0.00782 75.53085 124.22585
75.5553 75.4705 129.0 0.00775 75.55622 122.67982
75.5720 75.4872 111.0 0.00900 75.58159 121.20882
75.5888 75.5040 122.0 0.00819 75.60712 119.79989
75.6055 75.5207 120.0 0.00834 75.63248 118.46579
75.6222 75.5374 114.0 0.00877 75.65786 117.19377
75.6389 75.5541 139.0 0.00719 75.68324 115.98013
75.6556 75.5708 106.0 0.00943 75.70860 114.82176
75.6723 75.5875 126.0 0.00794 75.73399 113.71420
75.6891 75.6043 117.0 0.00854 75.75951 112.65008
75.7058 75.6210 126.0 0.00794 75.78488 111.63835
75.7225 75.6377 115.0 0.00870 75.81026 110.67011
75.7392 75.6544 118.0 0.00848 75.83563 109.74275
75.7559 75.6711 118.0 0.00848 75.86101 108.85458
75.7727 75.6879 133.0 0.00752 75.88652 107.99860
75.7894 75.7046 109.0 0.00917 75.91190 107.18188
75.8061 75.7213 125.0 0.00800 75.93728 106.39871
75.8228 75.7380 113.0 0.00885 75.96265 105.64695
75.8395 75.7547 115.0 0.00870 75.98801 104.92497
75.8563 75.7715 99.0 0.01010 76.01354 104.22713
75.8730 75.7882 91.0 0.01099 76.03892 103.56054
75.8897 75.8049 113.0 0.00885 76.06429 102.91956
75.9064 75.8216 95.0 0.01053 76.08967 102.30292
75.9231 75.8383 99.0 0.01010 76.11503 101.70966
75.9398 75.8550 105.0 0.00952 76.14041 101.13802
75.9566 75.8718 109.0 0.00917 76.16594 100.58464
75.9733 75.8885 97.0 0.01031 76.19130 100.05466
75.9900 75.9052 102.0 0.00980 76.21667 99.54388
76.0067 75.9219 82.0 0.01220 76.24207 99.05132
76.0234 75.9386 87.0 0.01150 76.26744 98.57642
76.0402 75.9554 83.0 0.01205 76.29294 98.11575
76.0569 75.9721 79.0 0.01266 76.31834 97.67351
76.0736 75.9888 97.0 0.01031 76.34370 97.24683
76.0903 76.0055 84.0 0.01191 76.36907 96.83487
76.1070 76.0222 64.0 0.01563 76.39445 96.43700
76.1238 76.0390 96.0 0.01042 76.41998 96.05029
76.1405 76.0557 74.0 0.01351 76.44535 95.67892
76.1572 76.0724 93.0 0.01075 76.47072 95.31997
76.1739 76.0891 86.0 0.01163 76.49609 94.97295
76.1906 76.1058 90.0 0.01111 76.52146 94.63747
76.2073 76.1225 88.0 0.01136 76.54684 94.31269
76.2241 76.1393 75.0 0.01333 76.57236 93.99688
76.2408 76.1560 95.0 0.01053 76.59773 93.69309
76.2575 76.1727 70.0 0.01428 76.62311 93.39910
76.2742 76.1894 84.0 0.01191 76.64848 93.11443
76.2909 76.2061 86.0 0.01163 76.67386 92.83891
76.3077 76.2229 93.0 0.01075 76.69937 92.57067
76.3244 76.2396 69.0 0.01449 76.72475 92.31219
76.3411 76.2563 71.0 0.01409 76.75013 92.06197
76.3578 76.2730 85.0 0.01176 76.77551 91.81959
76.3745 76.2897 79.0 0.01266 76.80088 91.58474
76.3913 76.3065 85.0 0.01176 76.82640 91.35580
76.4080 76.3232 76.0 0.01316 76.85178 91.13533
76.4247 76.3399 71.0 0.01409 76.87715 90.92166
76.4414 76.3566 79.0 0.01266 76.90252 90.71455
76.4581 76.3733 91.0 0.01099 76.92789 90.51385
76.4748 76.3900 104.0 0.00961 76.95328 90.31912
76.4916 76.4068 87.0 0.01150 76.97879 90.12936
76.5083 76.4235 87.0 0.01150 77.00417 89.94650
76.5250 76.4402 91.0 0.01099 77.02954 89.76921
76.5417 76.4569 87.0 0.01150 77.05492 89.59725
76.5584 76.4736 99.0 0.01010 77.08028 89.43060
76.5752 76.4904 78.0 0.01282 77.10580 89.26815
76.5919 76.5071 77.0 0.01299 77.13119 89.11143
76.6086 76.5238 91.0 0.01099 77.15656 88.95962
76.6253 76.5405 91.0 0.01099 77.18194 88.81244
76.6420 76.5572 95.0 0.01053 77.20730 88.66975
76.6588 76.5740 82.0 0.01220 77.23283 88.53066
76.6755 76.5907 94.0 0.01064 77.25821 88.39668
76.6922 76.6074 76.0 0.01316 77.28357 88.26687
76.7089 76.6241 79.0 0.01266 77.30894 88.14110
76.7256 76.6408 85.0 0.01176 77.33431 88.01929
76.7423 76.6575 98.0 0.01021 77.35970 87.90125
76.7591 76.6743 95.0 0.01053 77.38522 87.78639
76.7758 76.6910 98.0 0.01021 77.41059 87.67587
76.7925 76.7077 85.0 0.01176 77.43597 87.56892
76.8092 76.7244 82.0 0.01220 77.46134 87.46544
76.8259 76.7411 76.0 0.01316 77.48672 87.36544
76.8427 76.7579 71.0 0.01409 77.51223 87.26826
76.8594 76.7746 78.0 0.01282 77.53762 87.17487
76.8761 76.7913 81.0 0.01235 77.56299 87.08476
76.8928 76.8080 92.0 0.01087 77.58836 86.99783
76.9095 76.8247 88.0 0.01136 77.61373 86.91403
76.9263 76.8415 76.0 0.01316 77.63925 86.83282
76.9430 76.8582 81.0 0.01235 77.66463 86.75515
76.9597 76.8749 91.0 0.01099 77.69000 86.68048
76.9764 76.8916 81.0 0.01235 77.71538 86.60876
76.9931 76.9083 98.0 0.01021 77.74074 86.54002
77.0098 76.9250 104.0 0.00961 77.76613 86.47412
77.0266 76.9418 75.0 0.01333 77.79165 86.41080
77.0433 76.9585 91.0 0.01099 77.81702 86.35075
77.0600 76.9752 99.0 0.01010 77.84239 86.29356
77.0767 76.9919 90.0 0.01111 77.86777 86.23924
77.0934 77.0086 83.0 0.01205 77.89315 86.18784
77.1102 77.0254 83.0 0.01205 77.91866 86.13908
77.1269 77.0421 92.0 0.01087 77.94405 86.09350
77.1436 77.0588 82.0 0.01220 77.96941 86.05093
77.1603 77.0755 97.0 0.01031 77.99478 86.01135
77.1770 77.0922 75.0 0.01333 78.02016 85.97488
77.1937 77.1089 69.0 0.01449 78.04553 85.94157
77.2105 77.1257 85.0 0.01176 78.07106 85.91135
77.2272 77.1424 76.0 0.01316 78.09644 85.88474
77.2439 77.1591 86.0 0.01163 78.12181 85.86167
77.2606 77.1758 82.0 0.01220 78.14717 85.84242
77.2773 77.1925 87.0 0.01150 78.17255 85.82722
77.2941 77.2093 108.0 0.00926 78.19807 85.81646
77.3108 77.2260 91.0 0.01099 78.22344 85.81081
77.3275 77.2427 93.0 0.01075 78.24882 85.81083
77.3442 77.2594 79.0 0.01266 78.27421 85.81747
77.3609 77.2761 68.0 0.01471 78.29957 85.83192
77.3777 77.2929 83.0 0.01205 78.32508 85.85597
77.3944 77.3096 80.0 0.01250 78.35046 85.89141
77.4111 77.3263 87.0 0.01150 78.37584 85.94091
77.4278 77.3430 84.0 0.01191 78.40121 86.00770
77.4445 77.3597 77.0 0.01299 78.42659 86.09567
77.4613 77.3765 81.0 0.01235 78.45212 86.21025
77.4780 77.3932 83.0 0.01205 78.47749 86.35537
77.4947 77.4099 65.0 0.01539 78.50286 86.53756
77.5114 77.4266 74.0 0.01351 78.52823 86.76314
77.5281 77.4433 80.0 0.01250 78.55360 87.03852
77.5448 77.4600 83.0 0.01205 78.57899 87.37032
77.5616 77.4768 80.0 0.01250 78.60450 87.76615
77.5783 77.4935 77.0 0.01299 78.62988 88.22594
77.5950 77.5102 83.0 0.01205 78.65525 88.75431
77.6117 77.5269 97.0 0.01031 78.68063 89.35145
77.6284 77.5436 95.0 0.01053 78.70600 90.01398
77.6452 77.5604 66.0 0.01515 78.73151 90.73942
77.6619 77.5771 66.0 0.01515 78.75690 91.50900
77.6786 77.5938 84.0 0.01191 78.78227 92.30937
77.6953 77.6105 77.0 0.01299 78.80765 93.11890
77.7120 77.6272 98.0 0.01021 78.83302 93.90906
77.7288 77.6440 80.0 0.01250 78.85854 94.64909
77.7455 77.6607 84.0 0.01191 78.88392 95.28937
77.7622 77.6774 88.0 0.01136 78.90929 95.79225
77.7789 77.6941 101.0 0.00990 78.93465 96.11945
77.7956 77.7108 85.0 0.01176 78.96002 96.24415
77.8123 77.7275 84.0 0.01191 78.98540 96.15761
77.8291 77.7443 73.0 0.01370 79.01093 95.86936
77.8458 77.7610 95.0 0.01053 79.03631 95.41197
77.8625 77.7777 91.0 0.01099 79.06168 94.82395
77.8792 77.7944 100.0 0.01000 79.08705 94.14777
77.8959 77.8111 82.0 0.01220 79.11243 93.42393
77.9127 77.8279 96.0 0.01042 79.13794 92.68271
77.9294 77.8446 79.0 0.01266 79.16333 91.95992
77.9461 77.8613 71.0 0.01409 79.18871 91.27393
77.9628 77.8780 75.0 0.01333 79.21407 90.64019
77.9795 77.8947 88.0 0.01136 79.23944 90.06967
77.9963 77.9115 80.0 0.01250 79.26498 89.56615
78.0130 77.9282 91.0 0.01099 79.27226 89.12075
78.0297 77.9449 94.0 0.01064 79.26792 88.73672
78.0464 77.9616 82.0 0.01220 79.26359 88.42345
78.0631 77.9783 88.0 0.01136 79.25925 88.17707
78.0798 77.9950 79.0 0.01266 79.25491 87.99230
78.0966 78.0118 95.0 0.01053 79.25054 87.86322
78.1133 78.0285 90.0 0.01111 79.24620 87.78550
78.1300 78.0452 94.0 0.01064 79.24187 87.75284
78.1467 78.0619 90.0 0.01111 79.23753 87.76042
78.1634 78.0786 118.0 0.00848 79.23318 87.80419
78.1802 78.0954 103.0 0.00971 79.22882 87.88146
78.1969 78.1121 115.0 0.00870 79.22448 87.98930
78.2136 78.1288 110.0 0.00909 79.22015 88.12673
78.2303 78.1455 115.0 0.00870 79.21581 88.29371
78.2470 78.1622 95.0 0.01053 79.21146 88.49137
78.2638 78.1790 102.0 0.00980 79.20710 88.72363
78.2805 78.1957 118.0 0.00848 79.20276 88.99163
78.2972 78.2124 120.0 0.00834 79.19843 89.30248
78.3139 78.2291 101.0 0.00990 79.19408 89.66428
78.3306 78.2458 116.0 0.00862 79.18975 90.76965
78.3473 78.2625 132.0 0.00757 79.18541 91.27447
78.3641 78.2793 144.0 0.00694 79.18104 91.87746
78.3808 78.2960 125.0 0.00800 79.17670 92.59525
78.3975 78.3127 102.0 0.00980 79.17236 93.45981
78.4142 78.3294 124.0 0.00806 79.16802 94.50626
78.4309 78.3461 118.0 0.00848 79.16369 95.77496
78.4477 78.3629 124.0 0.00806 79.15932 97.32271
78.4644 78.3796 110.0 0.00909 79.15498 99.18648
78.4811 78.3963 112.0 0.00893 79.15064 101.42885
78.4978 78.4130 129.0 0.00775 79.14630 104.11031
78.5145 78.4297 125.0 0.00800 79.14197 107.29051
78.5313 78.4465 132.0 0.00757 79.13760 111.05107
78.5480 78.4632 120.0 0.00834 79.13326 115.39689
78.5647 78.4799 129.0 0.00775 79.12892 120.38956
78.5814 78.4966 114.0 0.00877 79.12459 126.05500
78.5981 78.5133 124.0 0.00806 79.12025 132.39775
78.6148 78.5300 135.0 0.00741 79.11591 139.40750
78.6316 78.5468 157.0 0.00637 79.11154 147.07103
78.6483 78.5635 166.0 0.00603 79.10720 155.21588
78.6650 78.5802 143.0 0.00699 79.10287 163.75658
78.6817 78.5969 151.0 0.00662 79.09853 172.52768
78.6984 78.6136 173.0 0.00578 79.09418 181.32863
78.7152 78.6304 206.0 0.00486 79.08982 190.01065
78.7319 78.6471 198.0 0.00505 79.08548 198.31068
78.7486 78.6638 207.0 0.00483 79.08115 206.14603
78.7653 78.6805 204.0 0.00490 79.07681 213.44780
78.7820 78.6972 235.0 0.00426 79.07246 220.16170
78.7988 78.7140 235.0 0.00426 79.06810 226.24420
78.8155 78.7307 233.0 0.00429 79.06376 231.47824
78.8322 78.7474 218.0 0.00459 79.05943 235.67755
78.8489 78.7641 248.0 0.00403 79.05508 238.54352
78.8656 78.7808 239.0 0.00418 79.05075 239.74777
78.8823 78.7975 234.0 0.00427 79.04641 239.00354
78.8991 78.8143 219.0 0.00457 79.04205 236.12282
78.9158 78.8310 244.0 0.00410 79.03770 231.15424
78.9325 78.8477 215.0 0.00465 79.03336 224.29292
78.9492 78.8644 212.0 0.00472 79.02902 215.89134
78.9659 78.8811 205.0 0.00488 79.02469 206.38834
78.9827 78.8979 177.0 0.00565 79.02032 196.16553
78.9994 78.9146 193.0 0.00518 79.01598 185.73039
79.0161 78.9313 143.0 0.00699 79.01164 175.37117
79.0328 78.9480 162.0 0.00617 79.00730 165.34010
79.0495 78.9647 124.0 0.00806 79.00297 155.82860
79.0663 78.9815 139.0 0.00719 78.99860 146.91821
79.0830 78.9982 129.0 0.00775 78.99426 138.80362
79.0997 79.0149 131.0 0.00763 78.98992 131.47372
79.1164 79.0316 116.0 0.00862 78.98559 124.94099
79.1331 79.0483 114.0 0.00877 78.98125 119.19271
79.1498 79.0650 109.0 0.00917 78.97691 114.18731
79.1666 79.0818 93.0 0.01075 78.97254 109.85795
79.1833 79.0985 103.0 0.00971 78.96820 106.18948
79.2000 79.1152 108.0 0.00926 78.96387 103.08665
79.2167 79.1319 89.0 0.01124 78.95953 100.47852
79.2334 79.1486 100.0 0.01000 78.95518 98.29772
79.2502 79.1654 112.0 0.00893 78.95082 96.46910
79.2669 79.1821 96.0 0.01042 78.94648 94.95240
79.2836 79.1988 90.0 0.01111 78.94215 93.68552
79.3003 79.2155 101.0 0.00990 78.93781 92.62189
79.3170 79.2322 98.0 0.01021 78.93346 91.72296
79.3337 79.2489 79.0 0.01266 78.92913 90.95676
79.3505 79.2657 102.0 0.00980 78.92476 90.29352
79.3672 79.2824 92.0 0.01087 78.92043 89.72041
79.3839 79.2991 89.0 0.01124 78.91608 89.21662
79.4006 79.3158 93.0 0.01075 78.91175 88.76940
79.4173 79.3325 75.0 0.01333 78.90741 88.36827
79.4341 79.3493 88.0 0.01136 78.90304 88.00402
79.4508 79.3660 75.0 0.01333 78.89870 87.67458
79.4675 79.3827 85.0 0.01176 78.89436 87.37302
79.4842 79.3994 79.0 0.01266 78.89002 87.09557
79.5009 79.4161 95.0 0.01053 78.88569 86.83943
79.5177 79.4329 77.0 0.01299 78.88132 86.60084
79.5344 79.4496 85.0 0.01176 78.87698 86.38032
79.5511 79.4663 78.0 0.01282 78.87264 86.17510
79.5678 79.4830 78.0 0.01282 78.86831 85.98363
79.5845 79.4997 80.0 0.01250 78.86397 85.80470
79.6012 79.5164 78.0 0.01282 78.85963 85.63722
79.6180 79.5332 102.0 0.00980 78.85526 85.47933
79.6347 79.5499 87.0 0.01150 78.85092 85.33212
79.6514 79.5666 87.0 0.01150 78.84659 85.19383
79.6681 79.5833 80.0 0.01250 78.84225 85.06382
79.6848 79.6000 86.0 0.01163 78.83791 84.94135
79.7016 79.6168 75.0 0.01333 78.83354 84.82538
79.7183 79.6335 90.0 0.01111 78.82920 84.71669
79.7350 79.6502 81.0 0.01235 78.82487 84.61414
79.7517 79.6669 65.0 0.01539 78.82053 84.51729
79.7684 79.6836 76.0 0.01316 78.81618 84.42579
79.7852 79.7004 85.0 0.01176 78.81182 84.33887
79.8019 79.7171 83.0 0.01205 78.80748 84.25703
79.8186 79.7338 80.0 0.01250 78.80315 84.17967
79.8353 79.7505 81.0 0.01235 78.79881 84.10641
79.8520 79.7672 86.0 0.01163 78.79446 82.32234
79.8688 79.7840 68.0 0.01471 78.79010 82.26707
79.8855 79.8007 87.0 0.01150 78.78576 82.21548
79.9022 79.8174 78.0 0.01282 78.78143 82.16706
79.9189 79.8341 98.0 0.01021 78.77708 82.12166
79.9356 79.8508 101.0 0.00990 78.77275 82.07909
79.9523 79.8675 89.0 0.01124 78.76841 82.03918
79.9691 79.8843 92.0 0.01087 78.76405 82.00163
79.9858 79.9010 89.0 0.01124 78.75970 81.96673
80.0025 79.9177 90.0 0.01111 78.75536 81.93623
80.0192 79.9344 86.0 0.01163 78.75102 81.90585
80.0359 79.9511 82.0 0.01220 78.74669 81.87759
80.0527 79.9679 103.0 0.00971 78.74232 81.85118
80.0694 79.9846 104.0 0.00961 78.73798 81.82685
80.0861 80.0013 78.0 0.01282 78.73364 81.80437
80.1028 80.0180 89.0 0.01124 78.72930 81.78366
80.1195 80.0347 72.0 0.01389 78.72497 81.76466
80.1363 80.0515 91.0 0.01099 78.72060 81.74720
80.1530 80.0682 85.0 0.01176 78.71626 81.73142
80.1697 80.0849 84.0 0.01191 78.71192 81.71718
80.1864 80.1016 79.0 0.01266 78.70759 81.70441
80.2031 80.1183 88.0 0.01136 78.70325 81.69307
80.2198 80.1350 78.0 0.01282 78.69891 81.68311
80.2366 80.1518 77.0 0.01299 78.69454 81.67445
80.2533 80.1685 88.0 0.01136 78.69020 81.66718
80.2700 80.1852 66.0 0.01515 78.68587 81.66118
80.2867 80.2019 82.0 0.01220 78.68153 81.65640
80.3034 80.2186 83.0 0.01205 78.67719 81.65288
80.3202 80.2354 78.0 0.01282 78.67282 81.65051
80.3369 80.2521 80.0 0.01250 78.66848 81.64933
80.3536 80.2688 86.0 0.01163 78.66415 81.64930
80.3703 80.2855 91.0 0.01099 78.65981 81.65041
80.3870 80.3022 94.0 0.01064 78.65546 81.65262
80.4038 80.3190 93.0 0.01075 78.65110 81.65594
80.4205 80.3357 83.0 0.01205 78.64677 81.66033
80.4372 80.3524 70.0 0.01428 78.64243 81.66579
80.4539 80.3691 76.0 0.01316 78.63808 81.67232
80.4706 80.3858 89.0 0.01124 78.63375 81.73434
80.4873 80.4025 80.0 0.01250 78.62941 81.74321
80.5041 80.4193 110.0 0.00909 78.62505 81.75320
80.5208 80.4360 74.0 0.01351 78.62070 81.76414
80.5375 80.4527 85.0 0.01176 78.61636 81.77614
80.5542 80.4694 80.0 0.01250 78.61202 81.78915
80.5709 80.4861 72.0 0.01389 78.60769 81.80320
80.5877 80.5029 72.0 0.01389 78.60332 81.81836
80.6044 80.5196 78.0 0.01282 78.59898 81.83447
80.6211 80.5363 81.0 0.01235 78.59464 81.85162
80.6378 80.5530 81.0 0.01235 78.59031 81.86980
80.6545 80.5697 82.0 0.01220 78.58597 81.88905
80.6713 80.5865 77.0 0.01299 78.58160 81.90948
80.6880 80.6032 79.0 0.01266 78.57726 81.93082
80.7047 80.6199 64.0 0.01563 78.57292 81.95325
80.7214 80.6366 87.0 0.01150 78.56859 81.97678
80.7381 80.6533 78.0 0.01282 78.56425 82.00138
80.7548 80.6700 85.0 0.01176 78.55991 82.02712
80.7716 80.6868 81.0 0.01235 78.55554 82.05415
80.7883 80.7035 79.0 0.01266 78.55121 82.08213
80.8050 80.7202 78.0 0.01282 78.54687 82.11128
80.8217 80.7369 75.0 0.01333 78.54253 82.14162
80.8384 80.7536 76.0 0.01316 78.53819 82.17314
80.8552 80.7704 98.0 0.01021 78.53382 82.20609
80.8719 80.7871 62.0 0.01613 78.52948 82.24010
80.8886 80.8038 83.0 0.01205 78.52515 82.27535
80.9053 80.8205 68.0 0.01471 78.52081 82.31190
80.9220 80.8372 87.0 0.01150 78.51646 82.34977
80.9388 80.8540 80.0 0.01250 78.51210 82.38923
80.9555 80.8707 85.0 0.01176 78.50776 82.42981
80.9722 80.8874 89.0 0.01124 78.50343 82.47182
80.9889 80.9041 88.0 0.01136 78.49908 82.51527
81.0056 80.9208 90.0 0.01111 78.49475 82.56019
81.0223 80.9375 73.0 0.01370 78.49041 82.60664
81.0391 80.9543 72.0 0.01389 78.48605 82.65492
81.0558 80.9710 60.0 0.01667 78.48170 82.70452
81.0725 80.9877 87.0 0.01150 78.47736 82.75574
81.0892 81.0044 84.0 0.01191 78.47302 82.80868
81.1059 81.0211 82.0 0.01220 78.46869 82.86332
81.1227 81.0379 83.0 0.01205 78.46432 82.92007
81.1394 81.0546 67.0 0.01493 78.45998 82.97837
81.1561 81.0713 82.0 0.01220 78.45564 83.03853
81.1728 81.0880 90.0 0.01111 78.45130 83.10062
81.1895 81.1047 83.0 0.01205 78.44697 83.16473
81.2063 81.1215 78.0 0.01282 78.44260 83.23132
81.2230 81.1382 89.0 0.01124 78.43826 83.29965
81.2397 81.1549 94.0 0.01064 78.43392 83.37017
81.2564 81.1716 91.0 0.01099 78.42959 83.44298
81.2731 81.1883 65.0 0.01539 78.42525 83.51811
81.2898 81.2050 91.0 0.01099 78.42091 83.59573
81.3066 81.2218 97.0 0.01031 78.41654 83.67631
81.3233 81.2385 78.0 0.01282 78.41220 83.75904
81.3400 81.2552 88.0 0.01136 78.40787 83.84447
81.3567 81.2719 83.0 0.01205 78.40353 83.93271
81.3734 81.2886 88.0 0.01136 78.39919 84.02383
81.3902 81.3054 81.0 0.01235 78.39482 84.11848
81.4069 81.3221 80.0 0.01250 78.39048 84.21581
81.4236 81.3388 80.0 0.01250 78.38615 84.31630
81.4403 81.3555 79.0 0.01266 78.38181 84.42080
81.4570 81.3722 102.0 0.00980 78.37746 84.52814
81.4738 81.3890 95.0 0.01053 78.37310 84.63982
81.4905 81.4057 87.0 0.01150 78.36877 84.75462
81.5072 81.4224 95.0 0.01053 78.36443 84.87332
81.5239 81.4391 88.0 0.01136 78.36008 84.99612
81.5406 81.4558 85.0 0.01176 78.35575 85.12315
81.5573 81.4725 91.0 0.01099 78.35141 85.25473
81.5741 81.4893 76.0 0.01316 78.34705 85.39166
81.5908 81.5060 96.0 0.01042 78.34270 85.53266
81.6075 81.5227 102.0 0.00980 78.33836 85.67868
81.6242 81.5394 88.0 0.01136 78.33402 85.83003
81.6409 81.5561 91.0 0.01099 78.32969 85.98681
81.6577 81.5729 102.0 0.00980 78.32533 86.15028
81.6744 81.5896 81.0 0.01235 78.32098 86.31895
81.6911 81.6063 96.0 0.01042 78.31664 86.49383
81.7078 81.6230 111.0 0.00900 78.31231 86.67529
81.7245 81.6397 79.0 0.01266 78.30797 86.86365
81.7412 81.6564 90.0 0.01111 78.30363 87.05924
81.7580 81.6732 94.0 0.01064 78.29926 87.26369
81.7747 81.6899 99.0 0.01010 78.29492 87.47490
81.7914 81.7066 87.0 0.01150 78.29059 87.69447
81.8081 81.7233 95.0 0.01053 78.28625 87.92274
81.8248 81.7400 102.0 0.00980 78.28191 88.16046
81.8416 81.7568 80.0 0.01250 78.27754 88.40928
81.8583 81.7735 92.0 0.01087 78.27321 88.66691
81.8750 81.7902 92.0 0.01087 78.26887 88.93533
81.8917 81.8069 102.0 0.00980 78.26453 89.21520
81.9084 81.8236 94.0 0.01064 78.26019 89.50692
81.9252 81.8404 98.0 0.01021 78.25582 89.81339
81.9419 81.8571 110.0 0.00909 78.25149 90.18209
81.9586 81.8738 110.0 0.00909 78.24715 90.51453
81.9753 81.8905 92.0 0.01087 78.24281 90.86198
81.9920 81.9072 89.0 0.01124 78.23846 91.22533
82.0088 81.9240 90.0 0.01111 78.23411 91.60777
82.0255 81.9407 89.0 0.01124 78.22977 92.00618
82.0422 81.9574 90.0 0.01111 78.22543 92.46853
82.0589 81.9741 101.0 0.00990 78.22108 92.90612
82.0756 81.9908 105.0 0.00952 78.21674 93.36520
82.0923 82.0075 102.0 0.00980 78.21241 93.84708
82.1091 82.0243 96.0 0.01042 78.20805 94.35641
82.1258 82.0410 108.0 0.00926 78.20370 94.88882
82.1425 82.0577 107.0 0.00935 78.19936 95.44897
82.1592 82.0744 102.0 0.00980 78.19503 96.03884
82.1759 82.0911 72.0 0.01389 78.19069 96.66047
82.1927 82.1079 99.0 0.01010 78.18633 97.32045
82.2094 82.1246 110.0 0.00909 78.18198 98.01285
82.2261 82.1413 110.0 0.00909 78.17764 98.74451
82.2428 82.1580 89.0 0.01124 78.17331 99.51833
82.2595 82.1747 99.0 0.01010 78.16897 100.33758
82.2763 82.1915 102.0 0.00980 78.16460 101.21102
82.2930 82.2082 110.0 0.00909 78.16026 102.13300
82.3097 82.2249 91.0 0.01099 78.15592 103.11163
82.3264 82.2416 105.0 0.00952 78.15159 104.15221
82.3431 82.2583 102.0 0.00980 78.14725 105.25996
82.3598 82.2750 119.0 0.00840 78.14291 106.44073
82.3766 82.2918 126.0 0.00794 78.13854 107.70862
82.3933 82.3085 98.0 0.01021 78.13420 109.05620
82.4100 82.3252 105.0 0.00952 78.12987 110.49882
82.4267 82.3419 125.0 0.00800 78.12553 112.04588
82.4434 82.3586 120.0 0.00834 78.12119 113.70820
82.4602 82.3754 96.0 0.01042 78.11682 115.51035
82.4769 82.3921 131.0 0.00763 78.11248 117.44447
82.4936 82.4088 110.0 0.00909 78.10815 119.53988
82.5103 82.4255 149.0 0.00671 78.10381 121.81916
82.5270 82.4422 139.0 0.00719 78.09947 124.31065
82.5438 82.4590 133.0 0.00752 78.09510 127.06757
82.5605 82.4757 131.0 0.00763 78.09076 130.10219
82.5772 82.4924 148.0 0.00675 78.08643 133.49759
82.5939 82.5091 157.0 0.00637 78.08208 137.33147
82.6106 82.5258 157.0 0.00637 78.07774 141.70979
82.6273 82.5425 143.0 0.00699 78.07341 146.77077
82.6441 82.5593 164.0 0.00609 78.06905 152.73073
82.6608 82.5760 200.0 0.00500 78.06470 159.75008
82.6775 82.5927 191.0 0.00524 78.06036 168.14854
82.6942 82.6094 185.0 0.00541 78.05603 178.28233
82.7109 82.6261 203.0 0.00492 78.05169 190.58342
82.7277 82.6429 224.0 0.00446 78.04733 205.67047
82.7444 82.6596 225.0 0.00444 78.04298 223.94684
82.7611 82.6763 233.0 0.00429 78.03864 246.16693
82.7778 82.6930 272.0 0.00368 78.03431 273.05716
82.7945 82.7097 309.0 0.003236 78.02997 305.37927
82.8113 82.7265 336.0 0.002976 78.02560 344.14035
82.8280 82.7432 378.0 0.002646 78.02126 389.63980
82.8447 82.7599 411.0 0.002434 78.01692 442.65015
82.8614 82.7766 441.0 0.002268 78.01259 503.65448
82.8781 82.7933 530.0 0.001887 78.00825 572.88519
82.8948 82.8100 622.0 0.001608 78.00391 650.28052
82.9116 82.8268 758.0 0.001319 77.99954 735.93671
82.9283 82.8435 804.0 0.001244 77.99521 828.00232
82.9450 82.8602 898.0 0.001113 77.99087 925.60864
82.9617 82.8769 1009.0 0.000991 77.98653 1026.85242
82.9784 82.8936 1110.0 0.000901 77.98219 1129.20471
82.9952 82.9104 1234.0 0.000810 77.97782 1230.08411
83.0119 82.9271 1349.0 0.000741 77.97349 1324.27063
83.0286 82.9438 1496.0 0.000668 77.96915 1407.90186
83.0453 82.9605 1539.0 0.000650 77.96481 1476.13428
83.0620 82.9772 1561.0 0.000641 77.96046 1524.32507
83.0788 82.9940 1588.0 0.000630 77.95611 1548.83008
83.0955 83.0107 1565.0 0.000639 77.95177 1547.31958
83.1122 83.0274 1527.0 0.000655 77.94743 1520.13831
83.1289 83.0441 1433.0 0.000698 77.94308 1469.54077
83.1456 83.0608 1309.0 0.000764 77.93874 1399.37866
83.1623 83.0775 1255.0 0.000797 77.93441 1314.35107
83.1791 83.0943 1154.0 0.000867 77.93005 1218.70996
83.1958 83.1110 1033.0 0.000968 77.92570 1118.04797
83.2125 83.1277 913.0 0.001095 77.92136 1015.66742
83.2292 83.1444 823.0 0.001215 77.91703 914.70349
83.2459 83.1611 758.0 0.001319 77.91269 817.61371
83.2627 83.1779 714.0 0.001401 77.90833 725.67090
83.2794 83.1946 585.0 0.001709 77.90398 641.34369
83.2961 83.2113 552.0 0.001812 77.89964 564.82397
83.3128 83.2280 486.0 0.002057 77.89531 496.49216
83.3295 83.2447 452.0 0.002212 77.89097 436.37430
83.3463 83.2615 398.0 0.002513 77.88660 383.92758
83.3630 83.2782 397.0 0.002520 77.88226 339.25555
83.3797 83.2949 386.0 0.002590 77.87792 301.44894
83.3964 83.3116 326.0 0.003066 77.87359 269.75415
83.4131 83.3283 312.0 0.003206 77.86925 243.40691
83.4298 83.3450 280.0 0.00357 77.86491 221.64806
83.4466 83.3618 250.0 0.00400 77.86054 203.66199
83.4633 83.3785 229.0 0.00437 77.85621 188.99519
83.4800 83.3952 214.0 0.00467 77.85187 176.94829
83.4967 83.4119 193.0 0.00518 77.84753 167.01775
83.5134 83.4286 196.0 0.00510 77.84319 158.78014
83.5302 83.4454 185.0 0.00541 77.83882 151.84653
83.5469 83.4621 174.0 0.00575 77.83449 146.02332
83.5636 83.4788 167.0 0.00599 77.83015 141.03963
83.5803 83.4955 163.0 0.00613 77.82581 136.72168
83.5970 83.5122 178.0 0.00562 77.82147 132.93513
83.6138 83.5290 135.0 0.00741 77.81710 129.55855
83.6305 83.5457 147.0 0.00681 77.81276 126.55070
83.6472 83.5624 124.0 0.00806 77.80843 123.83459
83.6639 83.5791 146.0 0.00685 77.80408 121.36260
83.6806 83.5958 130.0 0.00769 77.79975 119.09943
83.6973 83.6125 122.0 0.00819 77.79541 117.01742
83.7141 83.6293 122.0 0.00819 77.79105 115.08371
83.7308 83.6460 137.0 0.00731 77.78671 113.30287
83.7475 83.6627 112.0 0.00893 77.78237 111.64848
83.7642 83.6794 99.0 0.01010 77.77803 110.10812
83.7809 83.6961 121.0 0.00826 77.77369 108.67109
83.7977 83.7129 107.0 0.00935 77.76933 107.31987
83.8144 83.7296 128.0 0.00782 77.76498 106.06358
83.8311 83.7463 87.0 0.01150 77.76064 104.88602
83.8478 83.7630 98.0 0.01021 77.75631 103.78084
83.8645 83.7797 108.0 0.00926 77.75197 102.74228
83.8813 83.7965 105.0 0.00952 77.74760 101.75960
83.8980 83.8132 90.0 0.01111 77.74326 100.83899
83.9147 83.8299 108.0 0.00926 77.73892 99.97141
83.9314 83.8466 115.0 0.00870 77.73459 99.15241
83.9481 83.8633 111.0 0.00900 77.73025 98.37852
83.9648 83.8800 107.0 0.00935 77.72591 97.64651
83.9816 83.8968 95.0 0.01053 77.72154 96.94953
83.9983 83.9135 108.0 0.00926 77.71721 96.29297
84.0150 83.9302 98.0 0.01021 77.71287 95.67022
84.0317 83.9469 99.0 0.01010 77.70853 95.07906
84.0484 83.9636 88.0 0.01136 77.70419 94.51742
84.0652 83.9804 82.0 0.01220 77.69982 93.98001
84.0819 83.9971 93.0 0.01075 77.69549 93.47198
84.0986 84.0138 77.0 0.01299 77.69115 92.98819
84.1153 84.0305 102.0 0.00980 77.68681 92.52713
84.1320 84.0472 91.0 0.01099 77.68246 92.08743
84.1488 84.0640 95.0 0.01053 77.67811 91.59331
84.1655 84.0807 82.0 0.01220 77.67377 91.19295
84.1822 84.0974 104.0 0.00961 77.66943 90.81062
84.1989 84.1141 98.0 0.01021 77.66508 90.44508
84.2156 84.1308 82.0 0.01220 77.66074 90.09539
84.2323 84.1475 74.0 0.01351 77.65641 89.76067
84.2491 84.1643 95.0 0.01053 77.65205 89.43825
84.2658 84.1810 75.0 0.01333 77.64771 89.13112
84.2825 84.1977 99.0 0.01010 77.64336 88.83665
84.2992 84.2144 122.0 0.00819 77.63903 88.55421
84.3159 84.2311 86.0 0.01163 77.63469 88.28313
84.3327 84.2479 97.0 0.01031 77.63033 88.02122
84.3494 84.2646 84.0 0.01191 77.62598 87.77126
84.3661 84.2813 81.0 0.01235 77.62164 87.53105
84.3828 84.2980 98.0 0.01021 77.61731 87.30012
84.3995 84.3147 73.0 0.01370 77.61297 87.07801
84.4163 84.3315 111.0 0.00900 77.60860 86.86306
84.4330 84.3482 96.0 0.01042 77.60426 86.65729
84.4497 84.3649 81.0 0.01235 77.59992 86.45924
84.4664 84.3816 81.0 0.01235 77.59559 86.26850
84.4831 84.3983 101.0 0.00990 77.59125 86.08472
84.4998 84.4150 92.0 0.01087 77.58691 85.90759
84.5166 84.4318 75.0 0.01333 77.58254 85.73582
84.5333 84.4485 80.0 0.01250 77.57821 85.57114
84.5500 84.4652 108.0 0.00926 77.57387 85.41229
84.5667 84.4819 97.0 0.01031 77.56953 85.25902
84.5834 84.4986 77.0 0.01299 77.56519 85.11108
84.6002 84.5154 89.0 0.01124 77.56082 84.96735
84.6169 84.5321 74.0 0.01351 77.55649 84.82951
84.6336 84.5488 83.0 0.01205 77.55215 84.69636
84.6503 84.5655 81.0 0.01235 77.54781 84.56776
84.6670 84.5822 95.0 0.01053 77.54347 84.44353
84.6838 84.5990 100.0 0.01000 77.53911 84.32280
84.7005 84.6157 78.0 0.01282 77.53477 84.20676
84.7172 84.6324 84.0 0.01191 77.53043 84.09467
84.7339 84.6491 80.0 0.01250 77.52608 83.98635
84.7506 84.6658 82.0 0.01220 77.52175 83.88164
84.7673 84.6825 91.0 0.01099 77.51741 83.78043
84.7841 84.6993 84.0 0.01191 77.51305 83.68201
84.8008 84.7160 96.0 0.01042 77.50871 83.58746
84.8175 84.7327 80.0 0.01250 77.50437 83.49604
84.8342 84.7494 91.0 0.01099 77.50003 83.40769
84.8509 84.7661 83.0 0.01205 77.49569 83.32229
84.8677 84.7829 92.0 0.01087 77.49133 83.23921
84.8844 84.7996 75.0 0.01333 77.48698 83.15948
84.9011 84.8163 73.0 0.01370 77.48265 83.08242
84.9178 84.8330 96.0 0.01042 77.47831 83.00797
84.9345 84.8497 83.0 0.01205 77.47397 82.93610
84.9513 84.8665 67.0 0.01493 77.46960 82.86627
84.9680 84.8832 85.0 0.01176 77.46526 82.79924
84.9847 84.8999 87.0 0.01150 77.46092 82.73459
85.0014 84.9166 82.0 0.01220 77.45659 82.67224
85.0181 84.9333 92.0 0.01087 77.45225 82.61210
85.0348 84.9500 76.0 0.01316 77.44791 82.55416
85.0516 84.9668 94.0 0.01064 77.44354 82.49802
85.0683 84.9835 95.0 0.01053 77.43921 82.44431
85.0850 85.0002 99.0 0.01010 77.43487 82.39264
85.1017 85.0169 79.0 0.01266 77.43053 82.34297
85.1184 85.0336 92.0 0.01087 77.42619 82.29528
85.1352 85.0504 85.0 0.01176 77.42182 82.24922
85.1519 85.0671 87.0 0.01150 77.41749 82.20537
85.1686 85.0838 88.0 0.01136 77.41315 82.16341
85.1853 85.1005 86.0 0.01163 77.40881 82.12327
85.2020 85.1172 84.0 0.01191 77.40447 82.08498
85.2188 85.1340 89.0 0.01124 77.40011 82.04826
85.2355 85.1507 83.0 0.01205 77.39577 82.83385
85.2522 85.1674 78.0 0.01282 77.39143 82.80526
85.2689 85.1841 89.0 0.01124 77.38708 82.77843
85.2856 85.2008 82.0 0.01220 77.38275 82.75342
85.3023 85.2175 84.0 0.01191 77.37841 82.73015
85.3191 85.2343 82.0 0.01220 77.37405 82.70853
85.3358 85.2510 84.0 0.01191 77.36971 82.68879
85.3525 85.2677 91.0 0.01099 77.36536 82.67081
85.3692 85.2844 83.0 0.01205 77.36103 82.65461
85.3859 85.3011 99.0 0.01010 77.35669 82.64017
85.4027 85.3179 71.0 0.01409 77.35233 82.62743
85.4194 85.3346 67.0 0.01493 77.34798 82.61657
85.4361 85.3513 86.0 0.01163 77.34364 82.60749
85.4528 85.3680 86.0 0.01163 77.33931 82.60025
85.4695 85.3847 94.0 0.01064 77.33497 82.59485
85.4863 85.4015 88.0 0.01136 77.33060 82.59129
85.5030 85.4182 80.0 0.01250 77.32626 82.58967
85.5197 85.4349 84.0 0.01191 77.32192 82.58997
85.5364 85.4516 69.0 0.01449 77.31759 82.59224
85.5531 85.4683 96.0 0.01042 77.31325 82.59651
85.5698 85.4850 83.0 0.01205 77.30891 82.60286
85.5866 85.5018 89.0 0.01124 77.30454 82.61140
85.6033 85.5185 99.0 0.01010 77.30021 82.62210
85.6200 85.5352 87.0 0.01150 77.29587 82.63506
85.6367 85.5519 77.0 0.01299 77.29153 82.65038
85.6534 85.5686 97.0 0.01031 77.28719 82.66817
85.6702 85.5854 96.0 0.01042 77.28282 82.68873
85.6869 85.6021 74.0 0.01351 77.27849 82.71192
85.7036 85.6188 101.0 0.00990 77.27415 82.73811
85.7203 85.6355 76.0 0.01316 77.26981 83.40390
85.7370 85.6522 93.0 0.01075 77.26547 83.44048
85.7538 85.6690 101.0 0.00990 77.26111 83.48122
85.7705 85.6857 90.0 0.01111 77.25677 83.52615
85.7872 85.7024 110.0 0.00909 77.25243 83.57594
85.8039 85.7191 99.0 0.01010 77.24809 83.63138
85.8206 85.7358 85.0 0.01176 77.24375 83.69323
85.8373 85.7525 115.0 0.00870 77.23941 83.76247
85.8541 85.7693 98.0 0.01021 77.23505 83.84073
85.8708 85.7860 96.0 0.01042 77.23071 83.92843
85.8875 85.8027 87.0 0.01150 77.22637 84.02749
85.9042 85.8194 84.0 0.01191 77.22203 84.13957
85.9209 85.8361 106.0 0.00943 77.21769 84.26645
85.9377 85.8529 89.0 0.01124 77.21333 84.41103
85.9544 85.8696 80.0 0.01250 77.20898 84.57344
85.9711 85.8863 77.0 0.01299 77.20465 84.75643
85.9878 85.9030 91.0 0.01099 77.20031 84.96191
86.0045 85.9197 85.0 0.01176 77.19597 85.19146
86.0213 85.9365 89.0 0.01124 77.19160 85.44801
86.0380 85.9532 85.0 0.01176 77.18726 85.72964
86.0547 85.9699 99.0 0.01010 77.18292 86.03780
86.0714 85.9866 91.0 0.01099 77.17859 86.37230
86.0881 86.0033 102.0 0.00980 77.17425 86.73199
86.1048 86.0200 86.0 0.01163 77.16991 87.11469
86.1216 86.0368 115.0 0.00870 77.16554 87.51955
86.1383 86.0535 91.0 0.01099 77.16121 88.56514
86.1550 86.0702 84.0 0.01191 77.15687 88.99663
86.1717 86.0869 93.0 0.01075 77.15253 89.43119
86.1884 86.1036 87.0 0.01150 77.14819 89.86153
86.2052 86.1204 91.0 0.01099 77.14382 90.28271
86.2219 86.1371 91.0 0.01099 77.13949 90.68176
86.2386 86.1538 95.0 0.01053 77.13515 91.05401
86.2553 86.1705 92.0 0.01087 77.13081 91.39208
86.2720 86.1872 105.0 0.00952 77.12647 91.68864
86.2888 86.2040 97.0 0.01031 77.12211 91.93780
86.3055 86.2207 88.0 0.01136 77.11777 92.13071
86.3222 86.2374 107.0 0.00935 77.11343 92.26496
86.3389 86.2541 104.0 0.00961 77.10909 92.34042
86.3556 86.2708 87.0 0.01150 77.10475 92.36091
86.3723 86.2875 96.0 0.01042 77.10041 92.33437
86.3891 86.3043 78.0 0.01282 77.09605 92.27131
86.4058 86.3210 94.0 0.01064 77.09171 92.18523
86.4225 86.3377 86.0 0.01163 77.08737 92.08870
86.4392 86.3544 85.0 0.01176 77.08303 91.99382
86.4559 86.3711 96.0 0.01042 77.07869 91.91116
86.4727 86.3879 104.0 0.00961 77.07433 91.84933
86.4894 86.4046 87.0 0.01150 77.06998 91.81644
86.5061 86.4213 91.0 0.01099 77.06565 91.81790
86.5228 86.4380 87.0 0.01150 77.06131 91.85834
86.5395 86.4547 92.0 0.01087 77.05697 91.94152
86.5563 86.4715 90.0 0.01111 77.05260 92.07141
86.5730 86.4882 97.0 0.01031 77.04826 92.24926
86.5897 86.5049 92.0 0.01087 77.04392 92.47784
86.6064 86.5216 109.0 0.00917 77.03959 92.75967
86.6231 86.5383 90.0 0.01111 77.03525 93.09747
86.6398 86.5550 100.0 0.01000 77.03091 93.49455
86.6566 86.5718 79.0 0.01266 77.02654 93.95811
86.6733 86.5885 107.0 0.00935 77.02221 94.48849
86.6900 86.6052 112.0 0.00893 77.01787 95.09586
86.7067 86.6219 106.0 0.00943 77.01353 95.79044
86.7234 86.6386 106.0 0.00943 77.00919 96.58566
86.7402 86.6554 85.0 0.01176 77.00482 97.50545
86.7569 86.6721 91.0 0.01099 77.00049 98.56073
86.7736 86.6888 112.0 0.00893 76.99615 99.78561
86.7903 86.7055 94.0 0.01064 76.99181 101.21566
86.8070 86.7222 98.0 0.01021 76.98747 102.89442
86.8238 86.7390 120.0 0.00834 76.98311 104.88676
86.8405 86.7557 118.0 0.00848 76.97877 107.23301
86.8572 86.7724 115.0 0.00870 76.97443 110.01233
86.8739 86.7891 122.0 0.00819 76.97009 113.30650
86.8906 86.8058 141.0 0.00710 76.96575 117.20430
86.9073 86.8225 109.0 0.00917 76.96141 121.80105
86.9241 86.8393 132.0 0.00757 76.95705 127.23022
86.9408 86.8560 135.0 0.00741 76.95271 133.52899
86.9575 86.8727 164.0 0.00609 76.94837 140.82259
86.9742 86.8894 147.0 0.00681 76.94403 149.19809
86.9909 86.9061 169.0 0.00592 76.93969 158.72771
87.0077 86.9229 166.0 0.00603 76.93387 169.53412
87.0244 86.9396 168.0 0.00595 76.92598 181.50139
87.0411 86.9563 163.0 0.00613 76.91809 194.68391
87.0578 86.9730 214.0 0.00467 76.91020 209.02539
87.0745 86.9897 245.0 0.00408 76.90231 224.41783
87.0913 87.0065 248.0 0.00403 76.89438 240.79050
87.1080 87.0232 249.0 0.00402 76.88648 257.72583
87.1247 87.0399 283.0 0.00353 76.87859 274.98831
87.1414 87.0566 290.0 0.003448 76.87070 292.20993
87.1581 87.0733 313.0 0.003196 76.86282 308.95804
87.1748 87.0900 318.0 0.003146 76.85493 324.77432
87.1916 87.1068 374.0 0.002674 76.84698 339.29608
87.2083 87.1235 340.0 0.002941 76.83910 351.96899
87.2250 87.1402 366.0 0.002733 76.83121 362.58630
87.2417 87.1569 346.0 0.002891 76.82332 370.94412
87.2584 87.1736 364.0 0.002747 76.81543 376.91229
87.2752 87.1904 340.0 0.002941 76.80749 380.42380
87.2919 87.2071 375.0 0.002668 76.79961 381.38553
87.3086 87.2238 369.0 0.002710 76.79172 379.81424
87.3253 87.2405 412.0 0.002427 76.78382 375.74194
87.3420 87.2572 415.0 0.002410 76.77593 369.25864
87.3588 87.2740 323.0 0.003097 76.76800 360.46097
87.3755 87.2907 375.0 0.002668 76.76010 349.66296
87.3922 87.3074 353.0 0.002832 76.75222 337.10999
87.4089 87.3241 324.0 0.003086 76.74432 323.12567
87.4256 87.3408 286.0 0.003497 76.73643 308.07819
87.4423 87.3575 290.0 0.003448 76.72855 292.35471
87.4591 87.3743 268.0 0.00373 76.72061 276.24252
87.4758 87.3910 238.0 0.00420 76.71272 260.28223
87.4925 87.4077 222.0 0.00450 76.70483 244.68306
87.5092 87.4244 250.0 0.00400 76.69695 229.68890
87.5259 87.4411 194.0 0.00515 76.68906 215.48227
87.5427 87.4579 201.0 0.00497 76.68111 202.10600
87.5594 87.4746 174.0 0.00575 76.67323 189.80658
87.5761 87.4913 185.0 0.00541 76.66534 178.52916
87.5928 87.5080 146.0 0.00685 76.65745 168.27478
87.6095 87.5247 151.0 0.00662 76.64956 159.01979
87.6263 87.5415 155.0 0.00645 76.64162 150.67654
87.6430 87.5582 139.0 0.00719 76.63373 143.28316
87.6597 87.5749 158.0 0.00633 76.62584 136.73422
87.6764 87.5916 149.0 0.00671 76.61795 130.95769
87.6931 87.6083 119.0 0.00840 76.61006 125.88406
87.7098 87.6250 137.0 0.00731 76.60217 121.44408
87.7266 87.6418 118.0 0.00848 76.59424 117.54929
87.7433 87.6585 98.0 0.01021 76.58634 114.18034
87.7600 87.6752 109.0 0.00917 76.57845 111.25275
87.7767 87.6919 112.0 0.00893 76.57056 108.71072
87.7934 87.7086 108.0 0.00926 76.56268 106.50350
87.8102 87.7254 117.0 0.00854 76.55474 104.57378
87.8269 87.7421 100.0 0.01000 76.54685 102.90563
87.8436 87.7588 110.0 0.00909 76.53896 100.76801
87.8603 87.7755 107.0 0.00935 76.53107 99.49746
87.8770 87.7922 94.0 0.01064 76.52318 98.38086
87.8938 87.8090 97.0 0.01031 76.51524 97.38966
87.9105 87.8257 94.0 0.01064 76.50735 96.51530
87.9272 87.8424 88.0 0.01136 76.49946 95.73611
87.9439 87.8591 116.0 0.00862 76.49157 95.03776
87.9606 87.8758 93.0 0.01075 76.48369 94.40873
87.9773 87.8925 93.0 0.01075 76.47579 93.83942
87.9941 87.9093 82.0 0.01220 76.46786 93.31902
88.0108 87.9260 91.0 0.01099 76.45997 92.84702
88.0275 87.9427 72.0 0.01389 76.45208 92.41480
88.0442 87.9594 93.0 0.01075 76.44419 92.01781
88.0609 87.9761 104.0 0.00961 76.43630 91.65231
88.0777 87.9929 92.0 0.01087 76.42836 91.31299
88.0944 88.0096 88.0 0.01136 76.42047 91.00158
88.1111 88.0263 89.0 0.01124 76.41258 90.71345
88.1278 88.0430 97.0 0.01031 76.40469 90.44668
88.1445 88.0597 91.0 0.01099 76.39680 90.19954
88.1613 88.0765 83.0 0.01205 76.38887 89.96926
88.1780 88.0932 105.0 0.00952 76.38097 89.75705
88.1947 88.1099 85.0 0.01176 76.37309 89.56061
88.2114 88.1266 90.0 0.01111 76.36520 89.37877
88.2281 88.1433 89.0 0.01124 76.35731 89.21054
88.2448 88.1600 90.0 0.01111 76.34942 89.05510
88.2616 88.1768 100.0 0.01000 76.34148 88.91087
88.2783 88.1935 93.0 0.01075 76.33360 88.77880
88.2950 88.2102 82.0 0.01220 76.32571 88.65739
88.3117 88.2269 88.0 0.01136 76.31781 88.54601
88.3284 88.2436 92.0 0.01087 76.30992 88.44418
88.3452 88.2604 87.0 0.01150 76.30198 88.35079
88.3619 88.2771 82.0 0.01220 76.29409 88.26808
88.3786 88.2938 94.0 0.01064 76.28621 88.19203
88.3953 88.3105 94.0 0.01064 76.27831 88.12376
88.4120 88.3272 60.0 0.01667 76.27042 88.06287
88.4288 88.3440 71.0 0.01409 76.26249 88.00877
88.4455 88.3607 90.0 0.01111 76.25459 87.96173
88.4622 88.3774 91.0 0.01099 76.24671 87.92126
88.4789 88.3941 72.0 0.01389 76.23882 87.88701
88.4956 88.4108 70.0 0.01428 76.23093 87.85877
88.5123 88.4275 86.0 0.01163 76.22304 87.83634
88.5291 88.4443 88.0 0.01136 76.21510 87.81940
88.5458 88.4610 96.0 0.01042 76.20721 87.80798
88.5625 88.4777 101.0 0.00990 76.19933 87.80180
88.5792 88.4944 95.0 0.01053 76.19144 87.80072
88.5959 88.5111 74.0 0.01351 76.18355 87.80455
88.6127 88.5279 96.0 0.01042 76.17561 87.81329
88.6294 88.5446 92.0 0.01087 76.16772 87.82668
88.6461 88.5613 85.0 0.01176 76.15983 87.84467
88.6628 88.5780 87.0 0.01150 76.15194 87.86714
88.6795 88.5947 94.0 0.01064 76.14405 87.89400
88.6963 88.6115 95.0 0.01053 76.13612 87.92540
88.7130 88.6282 84.0 0.01191 76.12822 87.96088
88.7297 88.6449 78.0 0.01282 76.12033 88.00055
88.7464 88.6616 85.0 0.01176 76.11244 88.04435
88.7631 88.6783 81.0 0.01235 76.10455 88.09223
88.7798 88.6950 61.0 0.01639 76.09666 88.14415
88.7966 88.7118 98.0 0.01021 76.08873 88.20043
88.8133 88.7285 81.0 0.01235 76.08083 88.26038
88.8300 88.7452 99.0 0.01010 76.07294 88.32599
88.8467 88.7619 84.0 0.01191 76.06506 88.39385
88.8634 88.7786 87.0 0.01150 76.05717 88.46563
88.8802 88.7954 105.0 0.00952 76.04923 88.54182
88.8969 88.8121 78.0 0.01282 76.04134 88.62151
88.9136 88.8288 83.0 0.01205 76.03345 88.70509
88.9303 88.8455 75.0 0.01333 76.02556 88.79262
88.9470 88.8622 88.0 0.01136 76.01767 88.88412
88.9638 88.8790 98.0 0.01021 76.00974 88.98014
88.9805 88.8957 86.0 0.01163 76.00185 89.07968
88.9972 88.9124 76.0 0.01316 75.99395 89.18320
89.0139 88.9291 91.0 0.01099 75.98606 89.29078
89.0306 88.9458 81.0 0.01235 75.97817 89.40246
89.0473 88.9625 98.0 0.01021 75.97028 89.51830
89.0641 88.9793 81.0 0.01235 75.96235 89.63904
89.0808 88.9960 73.0 0.01370 75.95446 89.76333
89.0975 89.0127 83.0 0.01205 75.94657 89.89192
89.1142 89.0294 123.0 0.00813 75.93868 90.02489
89.1309 89.0461 80.0 0.01250 75.93079 90.16228
89.1477 89.0629 79.0 0.01266 75.92285 90.30512
89.1644 89.0796 98.0 0.01021 75.91496 90.45164
89.1811 89.0963 75.0 0.01333 75.90707 90.60282
89.1978 89.1130 93.0 0.01075 75.89919 90.75876
89.2145 89.1297 91.0 0.01099 75.89130 90.91953
89.2313 89.1465 92.0 0.01087 75.88336 91.08673
89.2480 89.1632 100.0 0.01000 75.87547 91.25761
89.2647 89.1799 88.0 0.01136 75.86758 91.43358
89.2814 89.1966 105.0 0.00952 75.85969 91.61481
89.2981 89.2133 100.0 0.01000 75.85180 91.80141
89.3148 89.2300 101.0 0.00990 75.84391 91.99358
89.3316 89.2468 86.0 0.01163 75.83597 92.19249
89.3483 89.2635 88.0 0.01136 75.82809 92.39611
89.3650 89.2802 99.0 0.01010 75.82020 92.60566
89.3817 89.2969 105.0 0.00952 75.81230 92.82127
89.3984 89.3136 101.0 0.00990 75.80441 93.04315
89.4152 89.3304 86.0 0.01163 75.79647 93.27294
89.4319 89.3471 93.0 0.01075 75.78858 93.50787
89.4486 89.3638 88.0 0.01136 75.78070 93.74958
89.4653 89.3805 85.0 0.01176 75.77280 93.99827
89.4820 89.3972 98.0 0.01021 75.76492 94.25413
89.4988 89.4140 89.0 0.01124 75.75698 94.51895
89.5155 89.4307 101.0 0.00990 75.74908 94.79001
89.5322 89.4474 97.0 0.01031 75.74120 95.06876
89.5489 89.4641 82.0 0.01220 75.73331 95.35558
89.5656 89.4808 90.0 0.01111 75.72542 95.65076
89.5823 89.4975 95.0 0.01053 75.71753 95.95453
89.5991 89.5143 90.0 0.01111 75.70959 96.26904
89.6158 89.5310 105.0 0.00952 75.70171 96.59092
89.6325 89.5477 99.0 0.01010 75.69382 96.92228
89.6492 89.5644 102.0 0.00980 75.68593 97.26342
89.6659 89.5811 96.0 0.01042 75.67804 97.61470
89.6827 89.5979 87.0 0.01150 75.67010 97.97881
89.6994 89.6146 96.0 0.01042 75.66221 98.35150
89.7161 89.6313 108.0 0.00926 75.65432 98.73540
89.7328 89.6480 75.0 0.01333 75.64643 99.13094
89.7495 89.6647 84.0 0.01191 75.63854 99.53853
89.7663 89.6815 104.0 0.00961 75.63061 99.96111
89.7830 89.6982 110.0 0.00909 75.62271 100.39451
89.7997 89.7149 110.0 0.00909 75.61482 100.84107
89.8164 89.7316 116.0 0.00862 75.60693 101.30164
89.8331 89.7483 105.0 0.00952 75.59904 101.77667
89.8498 89.7650 105.0 0.00952 75.59115 102.26680
89.8666 89.7818 123.0 0.00813 75.58322 102.77557
89.8833 89.7985 100.0 0.01000 75.57533 103.29773
89.9000 89.8152 105.0 0.00952 75.56744 103.83682
89.9167 89.8319 120.0 0.00834 75.55955 104.39354
89.9334 89.8486 97.0 0.01031 75.55166 104.96865
89.9502 89.8654 95.0 0.01053 75.54372 105.56677
89.9669 89.8821 109.0 0.00917 75.53583 106.18107
89.9836 89.8988 99.0 0.01010 75.52794 106.81615
90.0003 89.9155 117.0 0.00854 75.52005 107.47296
90.0170 89.9322 106.0 0.00943 75.51216 108.15237
90.0338 89.9490 101.0 0.00990 75.50423 108.85966
90.0505 89.9657 102.0 0.00980 75.49633 109.58804
90.0672 89.9824 92.0 0.01087 75.48844 110.34185
90.0839 89.9991 112.0 0.00893 75.48055 111.12267
90.1006 90.0158 112.0 0.00893 75.47266 111.93180
90.1173 90.0325 99.0 0.01010 75.46478 112.77052
90.1341 90.0493 102.0 0.00980 75.45684 113.64546
90.1508 90.0660 93.0 0.01075 75.44895 114.54794
90.1675 90.0827 123.0 0.00813 75.44106 115.48454
90.1842 90.0994 99.0 0.01010 75.43317 116.45693
90.2009 90.1161 118.0 0.00848 75.42529 117.46695
90.2177 90.1329 99.0 0.01010 75.41734 118.52335
90.2344 90.1496 91.0 0.01099 75.40945 119.61469
90.2511 90.1663 107.0 0.00935 75.40157 120.74975
90.2678 90.1830 108.0 0.00926 75.39368 121.93083
90.2845 90.1997 126.0 0.00794 75.38579 123.16042
90.3013 90.2165 120.0 0.00834 75.37785 124.44878
90.3180 90.2332 114.0 0.00877 75.36996 125.78452
90.3347 90.2499 133.0 0.00752 75.36207 127.17646
90.3514 90.2666 124.0 0.00806 75.35418 128.62857
90.3681 90.2833 126.0 0.00794 75.34629 130.14427
90.3848 90.3000 126.0 0.00794 75.33840 131.72733
90.4016 90.3168 107.0 0.00935 75.33046 133.39156
90.4183 90.3335 113.0 0.00885 75.32257 135.12187
90.4350 90.3502 131.0 0.00763 75.31469 136.93239
90.4517 90.3669 123.0 0.00813 75.30679 138.82799
90.4684 90.3836 159.0 0.00629 75.29890 140.81398
90.4852 90.4004 143.0 0.00699 75.29096 142.90993
90.5019 90.4171 136.0 0.00736 75.28307 145.09520
90.5186 90.4338 154.0 0.00649 75.27519 147.38962
90.5353 90.4505 150.0 0.00666 75.26730 149.80048
90.5520 90.4672 139.0 0.00719 75.25941 152.33562
90.5688 90.4840 148.0 0.00675 75.25147 155.01967
90.5855 90.5007 137.0 0.00731 75.24358 157.83247
90.6022 90.5174 163.0 0.00613 75.23569 160.79610
90.6189 90.5341 159.0 0.00629 75.22780 163.92336
90.6356 90.5508 134.0 0.00746 75.21991 167.22635
90.6523 90.5675 155.0 0.00645 75.21202 170.71854
90.6691 90.5843 175.0 0.00571 75.20409 174.43701
90.6858 90.6010 175.0 0.00571 75.19620 178.35513
90.7025 90.6177 145.0 0.00690 75.18831 182.51239
90.7192 90.6344 185.0 0.00541 75.18042 186.92979
90.7359 90.6511 181.0 0.00553 75.17253 191.63123
90.7527 90.6679 183.0 0.00546 75.16459 196.67775
90.7694 90.6846 187.0 0.00535 75.15670 202.03752
90.7861 90.7013 193.0 0.00518 75.14881 207.78055
90.8028 90.7180 221.0 0.00452 75.14092 213.95363
90.8195 90.7347 231.0 0.00433 75.13303 220.61407
90.8363 90.7515 204.0 0.00490 75.12510 227.87688
90.8530 90.7682 213.0 0.00470 75.11720 235.75146
90.8697 90.7849 226.0 0.00443 75.10931 244.38068
90.8864 90.8016 279.0 0.00359 75.10143 253.90942
90.9031 90.8183 292.0 0.003424 75.09354 264.51459
90.9198 90.8350 300.0 0.003334 75.08564 276.41818
90.9366 90.8518 335.0 0.002986 75.07771 289.98151
90.9533 90.8685 286.0 0.003497 75.06982 305.39182
90.9700 90.8852 346.0 0.002891 75.06193 323.14395
90.9867 90.9019 383.0 0.002611 75.05404 343.74768
91.0034 90.9186 434.0 0.002305 75.04615 367.81192
91.0202 90.9354 440.0 0.002272 75.03822 396.25021
91.0369 90.9521 473.0 0.002114 75.03032 429.53323
91.0536 90.9688 509.0 0.001965 75.02243 468.77176
91.0703 90.9855 580.0 0.001725 75.01454 515.01685
91.0870 91.0022 606.0 0.001650 75.00665 569.41351
91.1038 91.0190 640.0 0.001562 74.99872 633.58240
91.1205 91.0357 750.0 0.001333 74.99082 708.08881
91.1372 91.0524 841.0 0.001189 74.98293 794.44879
91.1539 91.0691 881.0 0.001135 74.97504 893.90826
91.1706 91.0858 1003.0 0.000997 74.96716 1007.56226
91.1873 91.1025 1162.0 0.000860 74.95927 1136.32593
91.2041 91.1193 1277.0 0.000783 74.95133 1281.75342
91.2208 91.1360 1377.0 0.000726 74.94344 1442.48328
91.2375 91.1527 1574.0 0.000635 74.93555 1619.22375
91.2542 91.1694 1730.0 0.000578 74.92767 1811.37952
91.2709 91.1861 1872.0 0.000534 74.91978 2017.75708
91.2877 91.2029 2177.0 0.000459 74.91183 2237.91846
91.3044 91.2196 2423.0 0.000413 74.90395 2466.38135
91.3211 91.2363 2727.0 0.000367 74.89606 2701.03809
91.3378 91.2530 2925.0 0.0003419 74.88817 2937.59351
91.3545 91.2697 3118.0 0.0003207 74.88028 3171.04663
91.3713 91.2865 3449.0 0.0002899 74.87234 3397.20435
91.3880 91.3032 3518.0 0.0002843 74.86445 3607.93872
91.4047 91.3199 3821.0 0.0002617 74.85656 3799.03271
91.4214 91.3366 4002.0 0.0002499 74.84867 3965.89478
91.4381 91.3533 4192.0 0.0002385 74.84078 4104.53174
91.4548 91.3700 4249.0 0.0002354 74.83289 4211.62988
91.4716 91.3868 4441.0 0.0002252 74.82495 4284.75146
91.4883 91.4035 4349.0 0.0002299 74.81706 4320.79150
91.5050 91.4202 4317.0 0.0002317 74.80917 4318.66162
91.5217 91.4369 4145.0 0.0002413 74.80128 4277.63672
91.5384 91.4536 4151.0 0.0002409 74.79340 4198.18164
91.5552 91.4704 3983.0 0.0002511 74.78545 4081.30054
91.5719 91.4871 3787.0 0.0002640 74.77757 3931.81421
91.5886 91.5038 3687.0 0.0002712 74.76968 3753.70313
91.6053 91.5205 3331.0 0.0003003 74.76179 3552.56152
91.6220 91.5372 3110.0 0.0003215 74.75390 3334.53979
91.6388 91.5540 2781.0 0.000360 74.74596 3104.51709
91.6555 91.5707 2609.0 0.000383 74.73807 2870.96021
91.6722 91.5874 2345.0 0.000426 74.73018 2638.08008
91.6889 91.6041 2235.0 0.000447 74.72229 2410.15723
91.7056 91.6208 2052.0 0.000487 74.71440 2190.71631
91.7223 91.6375 1856.0 0.000539 74.70651 1982.41772
91.7391 91.6543 1624.0 0.000616 74.69858 1786.03955
91.7558 91.6710 1548.0 0.000646 74.69069 1605.06934
91.7725 91.6877 1374.0 0.000728 74.68280 1438.95325
91.7892 91.7044 1307.0 0.000765 74.67491 1287.85229
91.8059 91.7211 1149.0 0.000870 74.66702 1151.55371
91.8227 91.7379 1052.0 0.000951 74.65908 1028.81189
91.8394 91.7546 946.0 0.001057 74.65119 920.46545
91.8561 91.7713 914.0 0.001094 74.64330 824.79877
91.8728 91.7880 847.0 0.001181 74.63541 740.82263
91.8895 91.8047 728.0 0.001374 74.62753 667.49011
91.9063 91.8215 698.0 0.001433 74.61959 603.53723
91.9230 91.8382 625.0 0.001600 74.61169 548.32898
91.9397 91.8549 609.0 0.001642 74.60381 500.66556
91.9564 91.8716 573.0 0.001745 74.59592 459.56000
91.9731 91.8883 511.0 0.001956 74.58803 424.13220
91.9898 91.9050 492.0 0.002033 74.58013 393.58249
92.0066 91.9218 416.0 0.002403 74.57220 367.05182
92.0233 91.9385 408.0 0.002451 74.56431 344.21487
92.0400 91.9552 324.0 0.003086 74.55642 324.35663
92.0567 91.9719 351.0 0.002851 74.54853 307.00482
92.0734 91.9886 317.0 0.003156 74.54064 291.75729
92.0902 92.0054 339.0 0.002950 74.53271 278.19370
92.1069 92.0221 300.0 0.003334 74.52481 266.20306
92.1236 92.0388 267.0 0.00375 74.51692 255.45901
92.1403 92.0555 224.0 0.00446 74.50903 245.76831
92.1570 92.0722 267.0 0.00375 74.50114 236.97255
92.1738 92.0890 245.0 0.00408 74.49321 228.89720
92.1905 92.1057 200.0 0.00500 74.48531 221.52565
92.2072 92.1224 200.0 0.00500 74.47742 214.73090
92.2239 92.1391 217.0 0.00461 74.46954 208.43756
92.2406 92.1558 201.0 0.00497 74.46165 202.58710
92.2573 92.1725 182.0 0.00550 74.45376 197.13107
92.2741 92.1893 151.0 0.00662 74.44582 191.99998
92.2908 92.2060 182.0 0.00550 74.43793 187.21918
92.3075 92.2227 174.0 0.00575 74.43005 182.72856
92.3242 92.2394 162.0 0.00617 74.42216 178.50294
92.3409 92.2561 150.0 0.00666 74.41427 174.52048
92.3577 92.2729 147.0 0.00681 74.40633 170.73833
92.3744 92.2896 151.0 0.00662 74.39844 167.18767
92.3911 92.3063 133.0 0.00752 74.39055 163.82846
92.4078 92.3230 162.0 0.00617 74.38265 160.64684
92.4245 92.3397 157.0 0.00637 74.37477 157.63049
92.4413 92.3565 131.0 0.00763 74.36683 154.75175
92.4580 92.3732 147.0 0.00681 74.35894 152.03221
92.4747 92.3899 132.0 0.00757 74.35105 149.44846
92.4914 92.4066 147.0 0.00681 74.34316 146.99020
92.5081 92.4233 141.0 0.00710 74.33527 144.64949
92.5248 92.4400 127.0 0.00787 74.32738 142.41895
92.5416 92.4568 132.0 0.00757 74.31944 140.27969
92.5583 92.4735 104.0 0.00961 74.31155 138.25032
92.5750 92.4902 117.0 0.00854 74.30367 136.31230
92.5917 92.5069 121.0 0.00826 74.29578 134.46025
92.6084 92.5236 126.0 0.00794 74.28789 132.68919
92.6252 92.5404 107.0 0.00935 74.27995 130.98375
92.6419 92.5571 121.0 0.00826 74.27206 129.36153
92.6586 92.5738 121.0 0.00826 74.26417 127.80524
92.6753 92.5905 113.0 0.00885 74.25628 126.31529
92.6920 92.6072 118.0 0.00848 74.24839 124.88614
92.7088 92.6240 96.0 0.01042 74.24046 123.50667
92.7255 92.6407 107.0 0.00935 74.23256 122.18911
92.7422 92.6574 120.0 0.00834 74.22467 120.92398
92.7589 92.6741 115.0 0.00870 74.21678 119.70785
92.7756 92.6908 97.0 0.01031 74.20889 118.53818
92.7923 92.7075 89.0 0.01124 74.20100 117.48087
92.8091 92.7243 114.0 0.00877 74.19307 116.39142
92.8258 92.7410 104.0 0.00961 74.18518 115.34834
92.8425 92.7577 113.0 0.00885 74.17729 114.34322
92.8592 92.7744 83.0 0.01205 74.16940 113.37424
92.8759 92.7911 106.0 0.00943 74.16151 112.43967
92.8927 92.8079 99.0 0.01010 74.15357 111.53225
92.9094 92.8246 103.0 0.00971 74.14568 110.66203
92.9261 92.8413 113.0 0.00885 74.13779 109.82167
92.9428 92.8580 97.0 0.01031 74.12991 109.00982
92.9595 92.8747 91.0 0.01099 74.12202 108.22521
92.9763 92.8915 99.0 0.01010 74.11408 107.46227
92.9930 92.9082 101.0 0.00990 74.10619 106.72829
93.0097 92.9249 97.0 0.01031 74.09830 106.01859
93.0264 92.9416 97.0 0.01031 74.09041 105.33164
93.0431 92.9583 95.0 0.01053 74.08252 104.66656
93.0598 92.9750 98.0 0.01021 74.07462 104.02237
93.0766 92.9918 106.0 0.00943 74.06670 103.39465
93.0933 93.0085 96.0 0.01042 74.05880 102.78983
93.1100 93.0252 77.0 0.01299 74.05091 102.20345
93.1267 93.0419 88.0 0.01136 74.04302 101.63480
93.1434 93.0586 107.0 0.00935 74.03513 101.08312
93.1602 93.0754 108.0 0.00926 74.02720 100.54440
93.1769 93.0921 87.0 0.01150 74.01930 100.02483
93.1936 93.1088 97.0 0.01031 74.01141 99.52037
93.2103 93.1255 103.0 0.00971 74.00352 99.03039
93.2270 93.1422 100.0 0.01000 73.99564 98.55439
93.2438 93.1590 85.0 0.01176 73.98770 98.08915
93.2605 93.1757 91.0 0.01099 73.97980 97.63933
93.2772 93.1924 85.0 0.01176 73.97192 97.20227
93.2939 93.2091 92.0 0.01087 73.96403 96.77718
93.3106 93.2258 96.0 0.01042 73.95614 96.36370
93.3273 93.2425 81.0 0.01235 73.94825 95.96134
93.3441 93.2593 87.0 0.01150 73.94032 95.56754
93.3608 93.2760 104.0 0.00961 73.93243 95.18645
93.3775 93.2927 75.0 0.01333 73.92454 94.81541
93.3942 93.3094 81.0 0.01235 73.91665 94.45407
93.4109 93.3261 89.0 0.01124 73.90876 94.10210
93.4277 93.3429 88.0 0.01136 73.90082 93.75701
93.4444 93.3596 86.0 0.01163 73.89293 93.42291
93.4611 93.3763 93.0 0.01075 73.88504 93.09730
93.4778 93.3930 91.0 0.01099 73.87714 92.77987
93.4945 93.4097 80.0 0.01250 73.86926 92.47040
93.5113 93.4265 86.0 0.01163 73.86132 92.16687
93.5280 93.4432 83.0 0.01205 73.85343 91.87242
93.5447 93.4599 95.0 0.01053 73.84554 91.58535
93.5614 93.4766 95.0 0.01053 73.83765 91.30533
93.5781 93.4933 87.0 0.01150 73.82977 91.03208
93.5948 93.5100 79.0 0.01266 73.82188 90.76542
93.6116 93.5268 84.0 0.01191 73.81393 90.50368
93.6283 93.5435 75.0 0.01333 73.80605 90.24971
93.6450 93.5602 90.0 0.01111 73.79816 90.00178
93.6617 93.5769 89.0 0.01124 73.79027 89.75977
93.6784 93.5936 94.0 0.01064 73.78238 89.52346
93.6952 93.6104 101.0 0.00990 73.77444 89.29128
93.7119 93.6271 86.0 0.01163 73.76655 89.06606
93.7286 93.6438 85.0 0.01176 73.75866 88.84612
93.7453 93.6605 97.0 0.01031 73.75077 88.63139
93.7620 93.6772 96.0 0.01042 73.74288 88.42172
93.7788 93.6940 64.0 0.01563 73.73495 88.21582
93.7955 93.7107 82.0 0.01220 73.72705 88.01585
93.8122 93.7274 88.0 0.01136 73.71916 87.82076
93.8289 93.7441 90.0 0.01111 73.71127 87.63034
93.8456 93.7608 92.0 0.01087 73.70338 87.44451
93.8623 93.7775 90.0 0.01111 73.69550 87.26323
93.8791 93.7943 79.0 0.01266 73.68756 87.08537
93.8958 93.8110 92.0 0.01087 73.67967 86.91302
93.9125 93.8277 79.0 0.01266 73.67178 86.74508
93.9292 93.8444 84.0 0.01191 73.66389 86.58159
93.9459 93.8611 63.0 0.01587 73.65600 86.42251
93.9627 93.8779 90.0 0.01111 73.64806 86.26698
93.9794 93.8946 96.0 0.01042 73.64017 86.11703
93.9961 93.9113 70.0 0.01428 73.63229 85.97185
94.0128 93.9280 86.0 0.01163 73.62440 85.83159
94.0295 93.9447 100.0 0.01000 73.61651 85.69653
94.0463 93.9615 100.0 0.01000 73.60857 85.56626
94.0630 93.9782 108.0 0.00926 73.60068 85.44267
94.0797 93.9949 90.0 0.01111 73.59279 85.32565
94.0964 94.0116 80.0 0.01250 73.58490 85.21581
94.1131 94.0283 80.0 0.01250 73.57701 85.11393
94.1298 94.0450 97.0 0.01031 73.56911 85.02093
94.1466 94.0618 83.0 0.01205 73.56119 84.93751
94.1633 94.0785 88.0 0.01136 73.55329 84.86584
94.1800 94.0952 88.0 0.01136 73.54540 84.80685
94.1967 94.1119 71.0 0.01409 73.53751 84.76215
94.2134 94.1286 83.0 0.01205 73.52962 84.73351
94.2302 94.1454 97.0 0.01031 73.52169 84.72267
94.2469 94.1621 71.0 0.01409 73.51379 84.73180
94.2636 94.1788 74.0 0.01351 73.50591 84.76270
94.2803 94.1955 88.0 0.01136 73.49802 84.81729
94.2970 94.2122 93.0 0.01075 73.49013 84.78922
94.3138 94.2290 88.0 0.01136 73.48219 84.89768
94.3305 94.2457 92.0 0.01087 73.47430 85.03405
94.3472 94.2624 87.0 0.01150 73.46641 85.19956
94.3639 94.2791 90.0 0.01111 73.45852 85.39455
94.3806 94.2958 94.0 0.01064 73.45063 85.61846
94.3973 94.3125 99.0 0.01010 73.44274 85.87002
94.4141 94.3293 72.0 0.01389 73.43481 86.14854
94.4308 94.3460 64.0 0.01563 73.42692 86.44743
94.4475 94.3627 84.0 0.01191 73.41903 86.76384
94.4642 94.3794 70.0 0.01428 73.41113 87.09238
94.4809 94.3961 100.0 0.01000 73.40325 87.42676
94.4977 94.4129 94.0 0.01064 73.39531 87.76199
94.5144 94.4296 102.0 0.00980 73.38742 88.08588
94.5311 94.4463 65.0 0.01539 73.37953 88.39202
94.5478 94.4630 71.0 0.01409 73.37164 88.67101
94.5645 94.4797 79.0 0.01266 73.36375 88.91291
94.5813 94.4965 106.0 0.00943 73.35581 89.10847
94.5980 94.5132 111.0 0.00900 73.34792 89.24573
94.6147 94.5299 81.0 0.01235 73.34003 89.31736
94.6314 94.5466 103.0 0.00971 73.33214 89.31713
94.6481 94.5633 108.0 0.00926 73.32426 89.24149
94.6648 94.5800 82.0 0.01220 73.31637 89.08973
94.6816 94.5968 93.0 0.01075 73.30843 88.86256
94.6983 94.6135 98.0 0.01021 73.30054 88.56752
94.7150 94.6302 88.0 0.01136 73.29265 88.21074
94.7317 94.6469 95.0 0.01053 73.28476 87.80122
94.7484 94.6636 68.0 0.01471 73.27687 87.34943
94.7652 94.6804 91.0 0.01099 73.26893 86.86327
94.7819 94.6971 94.0 0.01064 73.26104 86.36018
94.7986 94.7138 97.0 0.01031 73.25315 85.84764
94.8153 94.7305 94.0 0.01064 73.24526 85.33519
94.8320 94.7472 82.0 0.01220 73.23737 84.83095
94.8488 94.7640 98.0 0.01021 73.22944 84.33878
94.8655 94.7807 72.0 0.01389 73.22154 83.86939
94.8822 94.7974 95.0 0.01053 73.21365 83.42427
94.8989 94.8141 79.0 0.01266 73.20576 83.00574
94.9156 94.8308 85.0 0.01176 73.19788 82.61536
94.9323 94.8475 84.0 0.01191 73.18999 82.25373
94.9491 94.8643 83.0 0.01205 73.18205 81.91892
94.9658 94.8810 90.0 0.01111 73.17416 81.61409
94.9825 94.8977 67.0 0.01493 73.16628 81.33603
94.9992 94.9144 87.0 0.01150 73.15839 81.08321
95.0159 94.9311 74.0 0.01351 73.15049 80.85389
95.0327 94.9479 83.0 0.01205 73.14256 80.64490
95.0494 94.9646 89.0 0.01124 73.13467 80.45690
95.0661 94.9813 67.0 0.01493 73.12678 80.28654
95.0828 94.9980 76.0 0.01316 73.11889 80.13192
95.0995 95.0147 74.0 0.01351 73.11099 79.99120
95.1163 95.0315 83.0 0.01205 73.10306 79.86197
95.1330 95.0482 95.0 0.01053 73.09517 79.74412
95.1497 95.0649 85.0 0.01176 73.08728 79.63557
95.1664 95.0816 79.0 0.01266 73.07939 79.53501
95.1831 95.0983 93.0 0.01075 73.07150 79.44137
95.1998 95.1150 72.0 0.01389 73.06361 79.35365
95.2166 95.1318 73.0 0.01370 73.05567 79.27058
95.2333 95.1485 77.0 0.01299 73.04778 79.19241
95.2500 95.1652 99.0 0.01010 73.03989 79.11803
95.2667 95.1819 76.0 0.01316 73.03201 79.04699
95.2834 95.1986 70.0 0.01428 73.02412 78.97881
95.3002 95.2154 86.0 0.01163 73.01618 78.91279
95.3169 95.2321 94.0 0.01064 73.00829 78.84943
95.3336 95.2488 80.0 0.01250 73.00040 78.78810
95.3503 95.2655 82.0 0.01220 72.99251 78.72855
95.3670 95.2822 51.0 0.01961 72.98462 78.67069
95.3838 95.2990 86.0 0.01163 72.97668 78.61401
95.4005 95.3157 75.0 0.01333 72.96879 78.55902
95.4172 95.3324 88.0 0.01136 72.96090 78.50536
95.4339 95.3491 67.0 0.01493 72.95301 78.45293
95.4506 95.3658 65.0 0.01539 72.94512 78.40162
95.4673 95.3825 83.0 0.01205 72.93723 78.35143
95.4841 95.3993 72.0 0.01389 72.92930 78.30196
95.5008 95.4160 91.0 0.01099 72.92141 78.25375
95.5175 95.4327 93.0 0.01075 72.91352 78.20649
95.5342 95.4494 82.0 0.01220 72.90562 78.16016
95.5509 95.4661 82.0 0.01220 72.89774 78.14689
95.5677 95.4829 81.0 0.01235 72.88980 78.10207
95.5844 95.4996 78.0 0.01282 72.88191 78.05837
95.6011 95.5163 88.0 0.01136 72.87402 78.01541
95.6178 95.5330 82.0 0.01220 72.86613 77.97322
95.6345 95.5497 92.0 0.01087 72.85825 77.93178
95.6513 95.5665 73.0 0.01370 72.85030 77.89077
95.6680 95.5832 75.0 0.01333 72.84241 77.85070
95.6847 95.5999 77.0 0.01299 72.83453 77.81131
95.7014 95.6166 80.0 0.01250 72.82663 77.77277
95.7181 95.6333 93.0 0.01075 72.81874 77.73467
95.7348 95.6500 85.0 0.01176 72.81086 77.69719
95.7516 95.6668 72.0 0.01389 72.80292 77.66009
95.7683 95.6835 67.0 0.01493 72.79503 77.62382
95.7850 95.7002 81.0 0.01235 72.78714 77.58809
95.8017 95.7169 79.0 0.01266 72.77925 77.55296
95.8184 95.7336 57.0 0.01754 72.77136 77.51837
95.8352 95.7504 69.0 0.01449 72.76342 77.48412
95.8519 95.7671 90.0 0.01111 72.75553 77.45062
95.8686 95.7838 88.0 0.01136 72.74764 77.41763
95.8853 95.8005 79.0 0.01266 72.73975 77.38515
95.9020 95.8172 90.0 0.01111 72.73186 77.35318
95.9188 95.8340 83.0 0.01205 72.72393 77.32152
95.9355 95.8507 77.0 0.01299 72.71603 77.29051
95.9522 95.8674 93.0 0.01075 72.70815 77.26001
95.9689 95.8841 78.0 0.01282 72.70026 77.22999
95.9856 95.9008 82.0 0.01220 72.69237 77.20041
96.0023 95.9175 77.0 0.01299 72.68985 77.17668
96.0191 95.9343 63.0 0.01587 72.70828 77.17425
96.0358 95.9510 70.0 0.01428 72.72659 77.17227
96.0525 95.9677 101.0 0.00990 72.74491 77.17075
96.0692 95.9844 71.0 0.01409 72.76324 77.16964
96.0859 96.0011 85.0 0.01176 72.78156 77.16899
96.1027 96.0179 80.0 0.01250 72.79999 77.16875
96.1194 96.0346 84.0 0.01191 72.81831 77.16892
96.1361 96.0513 86.0 0.01163 72.83662 77.16952
96.1528 96.0680 79.0 0.01266 72.85494 77.17052
96.1695 96.0847 82.0 0.01220 72.87326 77.17194
96.1863 96.1015 80.0 0.01250 72.89169 77.17378
96.2030 96.1182 77.0 0.01299 72.91002 77.17600
96.2197 96.1349 78.0 0.01282 72.92833 77.17863
96.2364 96.1516 82.0 0.01220 72.94666 77.18166
96.2531 96.1683 95.0 0.01053 72.96497 77.18507
96.2698 96.1850 91.0 0.01099 72.98329 77.18885
96.2866 96.2018 69.0 0.01449 73.00172 77.19304
96.3033 96.2185 68.0 0.01471 73.02003 77.19762
96.3200 96.2352 89.0 0.01124 73.03835 77.20257
96.3367 96.2519 79.0 0.01266 73.05667 77.20789
96.3534 96.2686 93.0 0.01075 73.07500 77.21361
96.3702 96.2854 95.0 0.01053 73.09343 77.21972
96.3869 96.3021 83.0 0.01205 73.11174 77.22618
96.4036 96.3188 74.0 0.01351 73.13007 77.23301
96.4203 96.3355 83.0 0.01205 73.14838 77.24023
96.4370 96.3522 89.0 0.01124 73.16670 77.24780
96.4538 96.3690 95.0 0.01053 73.18513 77.25577
96.4705 96.3857 74.0 0.01351 73.20345 77.26408
96.4872 96.4024 77.0 0.01299 73.22177 77.27279
96.5039 96.4191 73.0 0.01370 73.24009 77.28182
96.5206 96.4358 89.0 0.01124 73.25842 77.29125
96.5373 96.4525 86.0 0.01163 73.27673 77.30103
96.5541 96.4693 98.0 0.01021 73.29515 77.31123
96.5708 96.4860 87.0 0.01150 73.31348 77.32175
96.5875 96.5027 76.0 0.01316 73.33179 77.33263
96.6042 96.5194 80.0 0.01250 73.35011 77.34390
96.6209 96.5361 79.0 0.01266 73.36842 77.35551
96.6377 96.5529 87.0 0.01150 73.38686 77.36757
96.6544 96.5696 83.0 0.01205 73.40518 77.37994
96.6711 96.5863 74.0 0.01351 73.42350 77.39267
96.6878 96.6030 77.0 0.01299 73.44183 77.40579
96.7045 96.6197 76.0 0.01316 73.46014 77.41926
96.7213 96.6365 84.0 0.01191 73.47856 77.43320
96.7380 96.6532 68.0 0.01471 73.49689 77.44746
96.7547 96.6699 71.0 0.01409 73.51521 77.46206
96.7714 96.6866 78.0 0.01282 73.53353 77.47705
96.7881 96.7033 90.0 0.01111 73.55185 77.49243
96.8048 96.7200 87.0 0.01150 73.57017 77.54044
96.8216 96.7368 101.0 0.00990 73.58859 77.55682
96.8383 96.7535 83.0 0.01205 73.60691 77.57351
96.8550 96.7702 70.0 0.01428 73.62524 77.59058
96.8717 96.7869 95.0 0.01053 73.64355 77.60805
96.8884 96.8036 78.0 0.01282 73.66187 77.62594
96.9052 96.8204 94.0 0.01064 73.68031 77.64431
96.9219 96.8371 92.0 0.01087 73.69862 77.66299
96.9386 96.8538 80.0 0.01250 73.71694 77.68208
96.9553 96.8705 81.0 0.01235 73.73525 77.70158
96.9720 96.8872 87.0 0.01150 73.75358 77.72151
96.9888 96.9040 80.0 0.01250 73.77200 77.74197
97.0055 96.9207 66.0 0.01515 73.79033 77.76276
97.0222 96.9374 89.0 0.01124 73.80865 77.78397
97.0389 96.9541 79.0 0.01266 73.82697 77.80560
97.0556 96.9708 83.0 0.01205 73.84528 77.82767
97.0723 96.9875 80.0 0.01250 73.86360 77.85021
97.0891 97.0043 68.0 0.01471 73.88203 77.89658
97.1058 97.0210 74.0 0.01351 73.90035 77.92013
97.1225 97.0377 76.0 0.01316 73.91866 77.94412
97.1392 97.0544 86.0 0.01163 73.93698 77.96862
97.1559 97.0711 90.0 0.01111 73.95531 77.99361
97.1727 97.0879 79.0 0.01266 73.97374 78.01923
97.1894 97.1046 87.0 0.01150 73.99207 78.04516
97.2061 97.1213 77.0 0.01299 74.01038 78.07159
97.2228 97.1380 83.0 0.01205 74.02869 78.09855
97.2395 97.1547 73.0 0.01370 74.04701 78.12604
97.2563 97.1715 93.0 0.01075 74.06544 78.15419
97.2730 97.1882 86.0 0.01163 74.08377 78.18273
97.2897 97.2049 68.0 0.01471 74.10208 78.21179
97.3064 97.2216 80.0 0.01250 74.12041 78.24141
97.3231 97.2383 86.0 0.01163 74.13873 78.27160
97.3398 97.2550 75.0 0.01333 74.15704 78.36330
97.3566 97.2718 92.0 0.01087 74.17546 78.39513
97.3733 97.2885 103.0 0.00971 74.19379 78.42736
97.3900 97.3052 80.0 0.01250 74.21210 78.46019
97.4067 97.3219 81.0 0.01235 74.23042 78.49366
97.4234 97.3386 85.0 0.01176 74.24875 78.52775
97.4402 97.3554 73.0 0.01370 74.26718 78.56269
97.4569 97.3721 76.0 0.01316 74.28549 78.59808
97.4736 97.3888 87.0 0.01150 74.30382 78.63416
97.4903 97.4055 80.0 0.01250 74.32214 78.67090
97.5070 97.4222 75.0 0.01333 74.34045 78.70835
97.5238 97.4390 81.0 0.01235 74.35887 78.74672
97.5405 97.4557 69.0 0.01449 74.37720 78.78565
97.5572 97.4724 95.0 0.01053 74.39552 78.82531
97.5739 97.4891 71.0 0.01409 74.41384 78.86573
97.5906 97.5058 87.0 0.01150 74.43217 78.90694
97.6073 97.5225 95.0 0.01053 74.45049 78.94892
97.6241 97.5393 73.0 0.01370 74.46890 78.99200
97.6408 97.5560 85.0 0.01176 74.48723 79.03569
97.6575 97.5727 93.0 0.01075 74.50555 79.08022
97.6742 97.5894 92.0 0.01087 74.52386 79.12566
97.6909 97.6061 91.0 0.01099 74.54218 79.17197
97.7077 97.6229 80.0 0.01250 74.56062 79.21954
97.7244 97.6396 74.0 0.01351 74.57893 79.26778
97.7411 97.6563 107.0 0.00935 74.59725 79.31697
97.7578 97.6730 79.0 0.01266 74.61558 79.36719
97.7745 97.6897 101.0 0.00990 74.63390 79.41845
97.7913 97.7065 93.0 0.01075 74.65231 79.47106
97.8080 97.7232 93.0 0.01075 74.67065 79.55652
97.8247 97.7399 81.0 0.01235 74.68896 79.61122
97.8414 97.7566 83.0 0.01205 74.70728 79.66711
97.8581 97.7733 89.0 0.01124 74.72560 79.72416
97.8748 97.7900 72.0 0.01389 74.74391 79.78247
97.8916 97.8068 76.0 0.01316 74.76234 79.84238
97.9083 97.8235 95.0 0.01053 74.78066 78.15536
97.9250 97.8402 78.0 0.01282 74.79899 78.22666
97.9417 97.8569 90.0 0.01111 74.81730 78.29927
97.9584 97.8736 79.0 0.01266 74.83562 78.37325
97.9752 97.8904 78.0 0.01282 74.85406 78.44913
97.9919 97.9071 77.0 0.01299 74.87238 78.52598
98.0086 97.9238 73.0 0.01370 74.89069 78.60433
98.0253 97.9405 93.0 0.01075 74.90900 78.68424
98.0420 97.9572 80.0 0.01250 74.92732 78.76577
98.0588 97.9740 74.0 0.01351 74.94576 78.84945
98.0755 97.9907 85.0 0.01176 74.96408 78.93443
98.0922 98.0074 85.0 0.01176 74.98241 79.02116
98.1089 98.0241 64.0 0.01563 75.00072 79.10976
98.1256 98.0408 79.0 0.01266 75.01904 79.20026
98.1423 98.0575 94.0 0.01064 75.03735 79.29277
98.1591 98.0743 77.0 0.01299 75.05579 79.38792
98.1758 98.0910 94.0 0.01064 75.07410 79.48466
98.1925 98.1077 95.0 0.01053 75.09241 79.58364
98.2092 98.1244 84.0 0.01191 75.11073 79.68494
98.2259 98.1411 75.0 0.01333 75.12906 79.78865
98.2427 98.1579 99.0 0.01010 75.14749 79.89559
98.2594 98.1746 91.0 0.01099 75.16582 80.00443
98.2761 98.1913 88.0 0.01136 75.18413 80.11597
98.2928 98.2080 71.0 0.01409 75.20245 80.23038
98.3095 98.2247 85.0 0.01176 75.22076 80.34771
98.3263 98.2415 79.0 0.01266 75.23920 80.46881
98.3430 98.2582 82.0 0.01220 75.25752 80.59248
98.3597 98.2749 87.0 0.01150 75.27584 80.71941
98.3764 98.2916 82.0 0.01220 75.29416 80.84982
98.3931 98.3083 87.0 0.01150 75.31248 80.98383
98.4098 98.3250 79.0 0.01266 75.33080 81.12167
98.4266 98.3418 74.0 0.01351 75.34923 81.26427
98.4433 98.3585 97.0 0.01031 75.36754 81.41018
98.4600 98.3752 79.0 0.01266 75.38586 81.56041
98.4767 98.3919 77.0 0.01299 75.40417 81.71515
98.4934 98.4086 101.0 0.00990 75.42249 81.87461
98.5102 98.4254 80.0 0.01250 75.44093 82.04012
98.5269 98.4421 82.0 0.01220 75.45924 82.20975
98.5436 98.4588 91.0 0.01099 75.47756 82.38484
98.5603 98.4755 96.0 0.01042 75.49589 82.56565
98.5770 98.4922 95.0 0.01053 75.51421 82.75241
98.5938 98.5090 82.0 0.01220 75.53265 82.94675
98.6105 98.5257 88.0 0.01136 75.55096 83.14647
98.6272 98.5424 77.0 0.01299 75.56927 83.35313
98.6439 98.5591 73.0 0.01370 75.58759 83.56712
98.6606 98.5758 83.0 0.01205 75.60592 83.78880
98.6773 98.5925 86.0 0.01163 75.62424 84.01861
98.6941 98.6093 74.0 0.01351 75.64265 84.25840
98.7108 98.6260 84.0 0.01191 75.66097 84.50585
98.7275 98.6427 81.0 0.01235 75.67930 84.76285
98.7442 98.6594 64.0 0.01563 75.69762 85.02994
98.7609 98.6761 91.0 0.01099 75.71593 85.30770
98.7777 98.6929 93.0 0.01075 75.73437 85.59869
98.7944 98.7096 92.0 0.01087 75.75269 85.89983
98.8111 98.7263 93.0 0.01075 75.77100 86.21378
98.8278 98.7430 83.0 0.01205 75.78932 86.54124
98.8445 98.7597 91.0 0.01099 75.80765 86.88314
98.8613 98.7765 90.0 0.01111 75.82607 87.24265
98.8780 98.7932 80.0 0.01250 75.84440 87.61684
98.8947 98.8099 93.0 0.01075 75.86272 88.00855
98.9114 98.8266 100.0 0.01000 75.88103 88.41937
98.9281 98.8433 81.0 0.01235 75.89935 88.85088
98.9448 98.8600 101.0 0.00990 75.91766 89.30476
98.9616 98.8768 101.0 0.00990 75.93610 89.78603
98.9783 98.8935 100.0 0.01000 75.95441 90.29144
98.9950 98.9102 98.0 0.01021 75.97273 90.82647
99.0117 98.9269 100.0 0.01000 75.99105 91.39444
99.0284 98.9436 99.0 0.01010 76.00937 91.99928
99.0452 98.9604 90.0 0.01111 76.02780 92.64977
99.0619 98.9771 98.0 0.01021 76.04613 93.34322
99.0786 98.9938 106.0 0.00943 76.06445 94.09010
99.0953 99.0105 111.0 0.00900 76.08276 94.89811
99.1120 99.0272 99.0 0.01010 76.10107 95.77646
99.1288 99.0440 107.0 0.00935 76.11951 96.74232
99.1455 99.0607 108.0 0.00926 76.13783 97.79597
99.1622 99.0774 106.0 0.00943 76.15616 98.95800
99.1789 99.0941 119.0 0.00840 76.17448 100.24528
99.1956 99.1108 105.0 0.00952 76.19279 101.67710
99.2123 99.1275 109.0 0.00917 76.21111 103.27528
99.2291 99.1443 105.0 0.00952 76.22954 105.07545
99.2458 99.1610 120.0 0.00834 76.24786 107.08380
99.2625 99.1777 123.0 0.00813 76.26617 109.47810
99.2792 99.1944 130.0 0.00769 76.28448 112.01432
99.2959 99.2111 135.0 0.00741 76.30281 114.86410
99.3127 99.2279 123.0 0.00813 76.32124 118.08475
99.3294 99.2446 148.0 0.00675 76.33956 121.67165
99.3461 99.2613 149.0 0.00671 76.35788 125.68098
99.3628 99.2780 146.0 0.00685 76.37620 130.14886
99.3795 99.2947 149.0 0.00671 76.39452 135.11003
99.3963 99.3115 153.0 0.00654 76.41295 140.63034
99.4130 99.3282 150.0 0.00666 76.43127 146.67816
99.4297 99.3449 183.0 0.00546 76.44959 153.30101
99.4464 99.3616 176.0 0.00568 76.46790 160.52051
99.4631 99.3783 215.0 0.00465 76.48623 168.34793
99.4798 99.3950 172.0 0.00582 76.50455 176.78630
99.4966 99.4118 169.0 0.00592 76.52297 185.88356
99.5133 99.4285 237.0 0.00422 76.54129 195.51573
99.5300 99.4452 204.0 0.00490 76.55961 205.70247
99.5467 99.4619 242.0 0.00413 76.57793 216.39687
99.5634 99.4786 253.0 0.00395 76.59624 227.53423
99.5802 99.4954 252.0 0.00397 76.61469 239.10469
99.5969 99.5121 239.0 0.00418 76.63300 250.85356
99.6136 99.5288 275.0 0.00364 76.65131 262.72678
99.6303 99.5455 314.0 0.003185 76.66964 274.57968
99.6470 99.5622 287.0 0.003485 76.68796 286.25797
99.6638 99.5790 294.0 0.003400 76.70640 297.68137
99.6805 99.5957 324.0 0.003086 76.72472 308.56998
99.6972 99.6124 283.0 0.00353 76.74303 318.90106
99.7139 99.6291 328.0 0.003049 76.76134 328.62906
99.7306 99.6458 303.0 0.003299 76.77966 337.76785
99.7473 99.6625 323.0 0.003097 76.79799 346.38907
99.7641 99.6793 358.0 0.002794 76.81641 354.65833
99.7808 99.6960 372.0 0.002687 76.83472 362.62668
99.7975 99.7127 368.0 0.002718 76.85305 370.49545
99.8142 99.7294 365.0 0.002741 76.87137 378.40131
99.8309 99.7461 412.0 0.002427 76.88969 386.44775
99.8477 99.7629 416.0 0.002403 76.90812 394.74481
99.8644 99.7796 392.0 0.002551 76.92644 403.18637
99.8811 99.7963 465.0 0.002151 76.94476 411.76224
99.8978 99.8130 386.0 0.002590 76.96307 420.34335
99.9145 99.8297 432.0 0.002316 76.98140 429.17532
99.9313 99.8465 447.0 0.002238 76.99982 437.16306
99.9480 99.8632 448.0 0.002231 77.01814 444.33908
99.9647 99.8799 478.0 0.002093 77.03647 450.38492
99.9814 99.8966 478.0 0.002093 77.05479 454.92877
99.9981 99.9133 463.0 0.002159 77.07310 457.60602
100.0150 99.9302 443.0 0.002257 77.09164 458.09189
100.0320 99.9472 460.0 0.002173 77.11029 456.08188
100.0480 99.9632 481.0 0.002079 77.12782 451.79208
100.0650 99.9802 465.0 0.002151 77.14648 444.67990
100.0820 99.9972 433.0 0.002309 77.16513 435.08560
100.0980 100.0132 470.0 0.002128 77.18268 424.02328
100.1150 100.0302 470.0 0.002128 77.20133 410.39871
100.1320 100.0472 417.0 0.002398 77.21997 395.25858
100.1490 100.0642 363.0 0.002756 77.23863 378.96478
100.1650 100.0802 379.0 0.002638 77.25618 362.94958
100.1820 100.0972 344.0 0.002906 77.27482 345.53305
100.1990 100.1142 327.0 0.003059 77.29349 327.98154
100.2150 100.1302 283.0 0.00353 77.31103 311.60767
100.2320 100.1472 290.0 0.003448 77.32967 294.55835
100.2490 100.1642 281.0 0.00356 77.34833 278.01624
100.2660 100.1812 284.0 0.00352 77.36698 262.14828
100.2820 100.1972 272.0 0.00368 77.38451 247.92804
100.2990 100.2142 212.0 0.00472 77.40318 233.61333
100.3160 100.2312 212.0 0.00472 77.42184 220.19969
100.3330 100.2482 222.0 0.00450 77.44048 207.70874
100.3490 100.2642 201.0 0.00497 77.45803 196.80942
100.3660 100.2812 201.0 0.00497 77.47668 186.12669
100.3830 100.2982 173.0 0.00578 77.49533 176.35571
100.3990 100.3142 171.0 0.00585 77.51287 167.96881
100.4160 100.3312 190.0 0.00527 77.53152 159.87460
100.4330 100.3482 165.0 0.00606 77.55016 152.58841
100.4500 100.3652 162.0 0.00617 77.56881 146.03880
100.4660 100.3812 152.0 0.00658 77.58637 140.51204
100.4830 100.3982 163.0 0.00613 77.60500 135.26813
100.5000 100.4152 131.0 0.00763 77.62366 130.59920
100.5160 100.4312 119.0 0.00840 77.64122 126.68958
100.5330 100.4482 127.0 0.00787 77.65985 123.00188
100.5500 100.4652 112.0 0.00893 77.67851 119.73220
100.5670 100.4822 129.0 0.00775 77.69716 116.84000
100.5830 100.4982 128.0 0.00782 77.71470 114.42271
100.6000 100.5152 142.0 0.00704 77.73336 112.13277
100.6170 100.5322 117.0 0.00854 77.75201 110.09846
100.6330 100.5482 101.0 0.00990 77.76955 108.38776
100.6500 100.5652 109.0 0.00917 77.78821 106.75423
100.6670 100.5822 105.0 0.00952 77.80685 105.28956
100.6840 100.5992 118.0 0.00848 77.82552 103.96770
100.7000 100.6152 115.0 0.00870 77.84306 102.83918
100.7170 100.6322 104.0 0.00961 77.86170 101.74587
100.7340 100.6492 98.0 0.01021 77.88036 100.74606
100.7500 100.6652 116.0 0.00862 77.89790 99.88149
100.7670 100.6822 101.0 0.00990 77.91654 99.03339
100.7840 100.6992 103.0 0.00971 77.93520 98.24828
100.8010 100.7162 81.0 0.01235 77.95385 97.52009
100.8170 100.7322 116.0 0.00862 77.97140 96.88129
100.8340 100.7492 93.0 0.01075 77.99006 96.24525
100.8510 100.7662 97.0 0.01031 78.00871 95.65028
100.8680 100.7832 96.0 0.01042 78.02736 95.09203
100.8840 100.7992 121.0 0.00826 78.04490 94.59740
100.9010 100.8162 105.0 0.00952 78.06355 94.10146
100.9180 100.8332 85.0 0.01176 78.08221 93.63372
100.9340 100.8492 90.0 0.01111 78.09975 93.21751
100.9510 100.8662 93.0 0.01075 78.11840 92.79858
100.9680 100.8832 87.0 0.01150 78.13703 92.40263
100.9850 100.9002 96.0 0.01042 78.15569 92.02698
101.0010 100.9162 92.0 0.01087 78.17325 91.69145
101.0180 100.9332 83.0 0.01205 78.19188 91.35328
101.0350 100.9502 97.0 0.01031 78.21054 91.03178
101.0510 100.9662 97.0 0.01031 78.22810 90.74413
101.0680 100.9832 97.0 0.01031 78.24673 90.45374
101.0850 101.0002 96.0 0.01042 78.26539 90.17730
101.1020 101.0172 91.0 0.01099 78.28404 89.91460
101.1180 101.0332 85.0 0.01176 78.30157 89.67930
101.1350 101.0502 86.0 0.01163 78.32024 89.44075
101.1520 101.0672 83.0 0.01205 78.33888 89.21383
101.1680 101.0832 76.0 0.01316 78.35643 89.01044
101.1850 101.1002 70.0 0.01428 78.37508 88.80405
101.2020 101.1172 83.0 0.01205 78.39373 88.60771
101.2190 101.1342 83.0 0.01205 78.41238 88.42052
101.2350 101.1502 80.0 0.01250 78.42993 88.25259
101.2520 101.1672 86.0 0.01163 78.44857 88.08241
101.2690 101.1842 71.0 0.01409 78.46723 87.92006
101.2850 101.2002 83.0 0.01205 78.48479 87.77441
101.3020 101.2172 110.0 0.00909 78.50343 87.62681
101.3190 101.2342 76.0 0.01316 78.52208 87.48598
101.3360 101.2512 80.0 0.01250 78.54073 87.35193
101.3520 101.2672 79.0 0.01266 78.55827 87.23170
101.3690 101.2842 77.0 0.01299 78.57693 87.10967
101.3860 101.3012 62.0 0.01613 78.59559 86.99354
101.4030 101.3182 76.0 0.01316 78.61423 86.88298
101.4190 101.3342 84.0 0.01191 78.63178 86.78386
101.4360 101.3512 80.0 0.01250 78.65043 86.68349
101.4530 101.3682 88.0 0.01136 78.66908 86.58805
101.4690 101.3842 75.0 0.01333 78.68662 86.67982
101.4860 101.4012 76.0 0.01316 78.70528 86.59425
101.5030 101.4182 80.0 0.01250 78.72391 86.51320
101.5200 101.4352 81.0 0.01235 78.74256 86.43620
101.5360 101.4512 64.0 0.01563 78.76012 86.36749
101.5530 101.4682 84.0 0.01191 78.77876 86.29837
101.5700 101.4852 100.0 0.01000 78.79742 86.23293
101.5860 101.5012 77.0 0.01299 78.81497 86.17472
101.6030 101.5182 86.0 0.01163 78.83360 86.11636
101.6200 101.5352 82.0 0.01220 78.85226 86.27338
101.6370 101.5522 73.0 0.01370 78.87091 86.22272
101.6530 101.5682 88.0 0.01136 78.88845 86.17506
101.6700 101.5852 74.0 0.01351 78.90711 86.13052
101.6870 101.6022 83.0 0.01205 78.92577 86.08904
101.7030 101.6182 89.0 0.01124 78.94330 86.05270
101.7200 101.6352 85.0 0.01176 78.96196 86.01680
101.7370 101.6522 92.0 0.01087 78.98060 85.98373
101.7540 101.6692 81.0 0.01235 78.99926 85.95330
101.7700 101.6852 94.0 0.01064 79.01681 85.92709
101.7870 101.7022 87.0 0.01150 79.03545 85.90175
101.8040 101.7192 93.0 0.01075 79.05411 85.87888
101.8200 101.7352 89.0 0.01124 79.07166 85.85960
101.8370 101.7522 69.0 0.01449 79.09029 85.84145
101.8540 101.7692 85.0 0.01176 79.10896 85.82562
101.8710 101.7862 82.0 0.01220 79.12760 85.81210
101.8870 101.8022 87.0 0.01150 79.14515 85.80144
101.9040 101.8192 84.0 0.01191 79.16381 85.79224
101.9210 101.8362 69.0 0.01449 79.18246 85.78522
101.9380 101.8532 85.0 0.01176 79.20111 85.78034
101.9540 101.8692 75.0 0.01333 79.21865 85.77765
101.9710 101.8862 72.0 0.01389 79.23730 85.77682
101.9880 101.9032 64.0 0.01563 79.25595 85.77803
102.0040 101.9192 77.0 0.01299 79.27351 85.78104
102.0210 101.9362 85.0 0.01176 79.29215 85.78617
102.0380 101.9532 72.0 0.01389 79.31078 85.79327
102.0550 101.9702 83.0 0.01205 79.32944 85.80235
102.0710 101.9862 96.0 0.01042 79.34700 85.81265
102.0880 102.0032 98.0 0.01021 79.36563 85.82549
102.1050 102.0202 80.0 0.01250 79.38429 85.84029
102.1210 102.0362 80.0 0.01250 79.40185 85.85593
102.1380 102.0532 80.0 0.01250 79.42048 85.87440
102.1550 102.0702 79.0 0.01266 79.43914 85.89481
102.1720 102.0872 95.0 0.01053 79.45779 85.91714
102.1880 102.1032 82.0 0.01220 79.47533 85.93983
102.2050 102.1202 99.0 0.01010 79.49399 85.96588
102.2220 102.1372 75.0 0.01333 79.51263 85.99382
102.2380 102.1532 80.0 0.01250 79.53018 86.02184
102.2550 102.1702 85.0 0.01176 79.54884 86.05357
102.2720 102.1872 87.0 0.01150 79.56748 86.08720
102.2890 102.2042 69.0 0.01449 79.58614 86.12281
102.3050 102.2202 79.0 0.01266 79.60368 86.15814
102.3220 102.2372 71.0 0.01409 79.62232 86.19761
102.3390 102.2542 88.0 0.01136 79.64098 86.23913
102.3550 102.2702 90.0 0.01111 79.65854 86.28007
102.3720 102.2872 77.0 0.01299 79.67718 86.32558
102.3890 102.3042 73.0 0.01370 79.69584 86.37325
102.4060 102.3212 92.0 0.01087 79.71449 86.42306
102.4220 102.3372 77.0 0.01299 79.73202 86.47186
102.4390 102.3542 79.0 0.01266 79.75068 86.52599
102.4560 102.3712 87.0 0.01150 79.76933 86.58237
102.4730 102.3882 78.0 0.01282 79.78798 86.64104
102.4890 102.4042 84.0 0.01191 79.80553 86.69846
102.5060 102.4212 91.0 0.01099 79.82418 86.76186
102.5230 102.4382 83.0 0.01205 79.84283 86.82777
102.5390 102.4542 106.0 0.00943 79.86037 86.89214
102.5560 102.4712 76.0 0.01316 79.87903 86.96315
102.5730 102.4882 95.0 0.01053 79.89766 87.03683
102.5900 102.5052 80.0 0.01250 79.91631 87.11348
102.6060 102.5212 94.0 0.01064 79.93388 87.19077
102.6230 102.5382 77.0 0.01299 79.95251 87.27314
102.6400 102.5552 82.0 0.01220 79.97117 87.35883
102.6560 102.5712 86.0 0.01163 79.98872 87.44250
102.6730 102.5882 75.0 0.01333 80.00735 87.53461
102.6900 102.6052 124.0 0.00806 80.02602 87.63053
102.7070 102.6222 87.0 0.01150 80.04466 87.73019
102.7230 102.6382 78.0 0.01282 80.06221 87.82751
102.7400 102.6552 90.0 0.01111 80.08086 87.93510
102.7570 102.6722 82.0 0.01220 80.09952 88.04704
102.7730 102.6882 82.0 0.01220 80.11705 88.15644
102.7900 102.7052 90.0 0.01111 80.13571 88.27756
102.8070 102.7222 69.0 0.01449 80.15435 88.40353
102.8240 102.7392 86.0 0.01163 80.17301 88.53497
102.8400 102.7552 92.0 0.01087 80.19056 88.66360
102.8570 102.7722 100.0 0.01000 80.20921 88.80584
102.8740 102.7892 79.0 0.01266 80.22786 88.95427
102.8900 102.8052 102.0 0.00980 80.24541 89.09956
102.9070 102.8222 88.0 0.01136 80.26405 89.26022
102.9240 102.8392 79.0 0.01266 80.28271 89.42783
102.9410 102.8562 86.0 0.01163 80.30136 89.60232
102.9570 102.8722 107.0 0.00935 80.31890 89.77294
102.9740 102.8892 96.0 0.01042 80.33756 89.96172
102.9910 102.9062 97.0 0.01031 80.35621 90.15798
103.0080 102.9232 80.0 0.01250 80.37486 90.36201
103.0240 102.9392 89.0 0.01124 80.39240 90.56122
103.0410 102.9562 74.0 0.01351 80.41106 90.78075
103.0580 102.9732 94.0 0.01064 80.42970 91.00844
103.0740 102.9892 86.0 0.01163 80.44726 91.23017
103.0910 103.0062 83.0 0.01205 80.46590 91.47392
103.1080 103.0232 79.0 0.01266 80.48454 91.72566
103.1250 103.0402 90.0 0.01111 80.50320 91.98623
103.1410 103.0562 98.0 0.01021 80.52075 92.23914
103.1580 103.0732 103.0 0.00971 80.53938 92.51582
103.1750 103.0902 105.0 0.00952 80.55804 92.80185
103.1910 103.1062 90.0 0.01111 80.57561 93.07952
103.2080 103.1232 115.0 0.00870 80.59423 93.38384
103.2250 103.1402 101.0 0.00990 80.61289 93.69975
103.2420 103.1572 92.0 0.01087 80.63155 94.02784
103.2580 103.1732 99.0 0.01010 80.64908 94.34908
103.2750 103.1902 100.0 0.01000 80.66774 94.70647
103.2920 103.2072 96.0 0.01042 80.68639 95.08195
103.3080 103.2232 74.0 0.01351 80.70393 95.45412
103.3250 103.2402 79.0 0.01266 80.72259 95.87335
103.3420 103.2572 92.0 0.01087 80.74123 96.31946
103.3590 103.2742 95.0 0.01053 80.75989 96.79732
103.3750 103.2902 88.0 0.01136 80.77744 97.27921
103.3920 103.3072 106.0 0.00943 80.79607 97.83048
103.4090 103.3242 102.0 0.00980 80.81474 98.42888
103.4250 103.3402 102.0 0.00980 80.83229 99.03994
103.4420 103.3572 80.0 0.01250 80.85093 99.74794
103.4590 103.3742 90.0 0.01111 80.86959 100.52633
103.4760 103.3912 105.0 0.00952 80.88824 101.38418
103.4920 103.4072 101.0 0.00990 80.90577 102.27431
103.5090 103.4242 77.0 0.01299 80.92443 103.32340
103.5260 103.4412 120.0 0.00834 80.94308 104.49195
103.5430 103.4582 114.0 0.00877 80.96173 105.79801
103.5590 103.4742 119.0 0.00840 80.97929 107.16989
103.5760 103.4912 123.0 0.00813 80.99793 108.80093
103.5930 103.5082 99.0 0.01010 81.01659 110.63390
103.6090 103.5242 127.0 0.00787 81.03413 112.56660
103.6260 103.5412 125.0 0.00800 81.05278 114.86969
103.6430 103.5582 125.0 0.00800 81.07141 117.45680
103.6600 103.5752 136.0 0.00736 81.09007 120.36922
103.6760 103.5912 120.0 0.00834 81.10763 123.43457
103.6930 103.6082 121.0 0.00826 81.12626 127.06709
103.7100 103.6252 138.0 0.00724 81.14492 131.13626
103.7260 103.6412 141.0 0.00710 81.16248 135.40785
103.7430 103.6582 154.0 0.00649 81.18111 140.41684
103.7600 103.6752 167.0 0.00599 81.19977 145.98030
103.7770 103.6922 168.0 0.00595 81.21841 152.12344
103.7930 103.7082 169.0 0.00592 81.23596 158.46132
103.8100 103.7252 166.0 0.00603 81.25462 165.83139
103.8270 103.7422 187.0 0.00535 81.27327 173.86400
103.8430 103.7582 194.0 0.00515 81.29080 182.03760
103.8600 103.7752 218.0 0.00459 81.30946 191.39987
103.8770 103.7922 207.0 0.00483 81.32810 201.42651
103.8940 103.8092 233.0 0.00429 81.34676 212.11729
103.9100 103.8252 231.0 0.00433 81.36432 222.73062
103.9270 103.8422 243.0 0.00411 81.38296 234.54837
103.9440 103.8592 271.0 0.00369 81.40161 246.87253
103.9600 103.8752 236.0 0.00424 81.41916 258.83786
103.9770 103.8922 310.0 0.003225 81.43780 271.86218
103.9940 103.9092 285.0 0.00351 81.45646 285.13031
104.0110 103.9262 315.0 0.003174 81.47511 298.51849
104.0270 103.9422 303.0 0.003299 81.49265 311.12933
104.0440 103.9592 355.0 0.002817 81.51131 324.46722
104.0610 103.9762 373.0 0.002682 81.52996 337.59485
104.0780 103.9932 377.0 0.002652 81.54861 350.38525
104.0940 104.0092 389.0 0.002571 81.56615 361.97632
104.1110 104.0262 383.0 0.002611 81.58481 373.66724
104.1280 104.0432 399.0 0.002508 81.60345 384.53323
104.1440 104.0592 445.0 0.002246 81.62101 393.83438
104.1610 104.0762 437.0 0.002289 81.63966 402.55835
104.1780 104.0932 401.0 0.002495 81.65829 409.89233
104.1950 104.1102 469.0 0.002131 81.67695 415.67627
104.2110 104.1262 439.0 0.002278 81.69450 419.54208
104.2280 104.1432 462.0 0.002165 81.71313 421.83701
104.2450 104.1602 449.0 0.002227 81.73180 422.16156
104.2610 104.1762 431.0 0.002320 81.74936 420.59995
104.2780 104.1932 476.0 0.002100 81.76797 416.94562
104.2950 104.2102 421.0 0.002375 81.78664 411.26080
104.3120 104.2272 428.0 0.002336 81.80530 403.65161
104.3280 104.2432 443.0 0.002257 81.82283 394.87607
104.3450 104.2602 379.0 0.002638 81.84149 384.00363
104.3620 104.2772 363.0 0.002756 81.86014 371.79068
104.3780 104.2932 360.0 0.002779 81.87768 359.31342
104.3950 104.3102 368.0 0.002718 81.89634 345.23724
104.4120 104.3272 327.0 0.003059 81.91499 330.61969
104.4290 104.3442 323.0 0.003097 81.93364 315.68472
104.4450 104.3602 309.0 0.003236 81.95119 301.57559
104.4620 104.3772 292.0 0.003424 81.96983 286.71567
104.4790 104.3942 274.0 0.00365 81.98849 272.14429
104.4950 104.4102 278.0 0.00360 82.00604 258.85294
104.5120 104.4272 258.0 0.00388 82.02468 245.28052
104.5290 104.4442 218.0 0.00459 82.04334 232.34413
104.5460 104.4612 229.0 0.00437 82.06199 220.13107
104.5620 104.4772 198.0 0.00505 82.07952 209.33849
104.5790 104.4942 201.0 0.00497 82.09818 198.61148
104.5960 104.5112 176.0 0.00568 82.11684 188.67874
104.6130 104.5282 215.0 0.00465 82.13548 179.52791
104.6290 104.5442 185.0 0.00541 82.15304 171.61693
104.6460 104.5612 162.0 0.00617 82.17168 163.92609
104.6630 104.5782 160.0 0.00625 82.19034 156.94244
104.6790 104.5942 166.0 0.00603 82.20788 150.98337
104.6960 104.6112 169.0 0.00592 82.22653 145.25963
104.7130 104.6282 181.0 0.00553 82.24516 140.12680
104.7300 104.6452 157.0 0.00637 82.26382 135.52521
104.7460 104.6612 139.0 0.00719 82.28138 131.64853
104.7630 104.6782 135.0 0.00741 82.30000 127.97288
104.7800 104.6952 138.0 0.00724 82.31867 124.70003
104.7960 104.7112 135.0 0.00741 82.33623 121.95744
104.8130 104.7282 113.0 0.00885 82.35486 119.36735
104.8300 104.7452 128.0 0.00782 82.37352 117.06721
104.8470 104.7622 122.0 0.00819 82.39217 115.02911
104.8630 104.7782 114.0 0.00877 82.40971 113.32303
104.8800 104.7952 131.0 0.00763 82.42837 111.70468
104.8970 104.8122 113.0 0.00885 82.44702 110.26581
104.9130 104.8282 105.0 0.00952 82.46455 109.05565
104.9300 104.8452 104.0 0.00961 82.48322 107.90086
104.9470 104.8622 93.0 0.01075 82.50185 106.86712
104.9640 104.8792 99.0 0.01010 82.52052 105.93667
104.9800 104.8952 98.0 0.01021 82.53807 105.14519
104.9970 104.9122 115.0 0.00870 82.55653 104.38176
105.0140 104.9292 107.0 0.00935 82.54229 103.65487
105.0300 104.9452 97.0 0.01031 82.52891 103.02772
105.0470 104.9622 105.0 0.00952 82.51469 102.41422
105.0640 104.9792 94.0 0.01064 82.50047 101.84824
105.0810 104.9962 103.0 0.00971 82.48624 101.32529
105.0970 105.0122 111.0 0.00900 82.47286 100.86835
105.1140 105.0292 115.0 0.00870 82.45863 100.41539
105.1310 105.0462 97.0 0.01031 82.44440 99.99358
105.1480 105.0632 100.0 0.01000 82.43018 99.59974
105.1640 105.0792 102.0 0.00980 82.41680 99.25245
105.1810 105.0962 93.0 0.01075 82.40257 98.90597
105.1980 105.1132 110.0 0.00909 82.38835 98.58093
105.2140 105.1292 89.0 0.01124 82.37497 98.29323
105.2310 105.1462 86.0 0.01163 82.36075 98.00529
105.2480 105.1632 80.0 0.01250 82.34653 97.73479
105.2650 105.1802 95.0 0.01053 82.33231 97.47984
105.2810 105.1962 107.0 0.00935 82.31891 97.25360
105.2980 105.2132 95.0 0.01053 82.30470 97.02720
105.3150 105.2302 95.0 0.01053 82.29047 96.81369
105.3310 105.2462 97.0 0.01031 82.27708 96.62425
105.3480 105.2632 109.0 0.00917 82.26287 96.43475
105.3650 105.2802 99.0 0.01010 82.24864 96.25614
105.3820 105.2972 118.0 0.00848 82.23441 96.08830
105.3980 105.3132 103.0 0.00971 82.22104 95.93974
105.4150 105.3302 104.0 0.00961 82.20681 95.79102
105.4320 105.3472 83.0 0.01205 82.19259 95.65160
105.4480 105.3632 92.0 0.01087 82.17921 95.52853
105.4650 105.3802 97.0 0.01031 82.16498 95.40575
105.4820 105.3972 103.0 0.00971 82.15076 95.29119
105.4990 105.4142 83.0 0.01205 82.13653 95.20487
105.5150 105.4302 105.0 0.00952 82.12315 95.11117
105.5320 105.4472 101.0 0.00990 82.10893 95.01859
105.5490 105.4642 93.0 0.01075 82.09470 94.93275
105.5650 105.4802 99.0 0.01010 82.08131 94.85809
105.5820 105.4972 98.0 0.01021 82.06709 94.78502
105.5990 105.5142 110.0 0.00909 82.05286 94.71804
105.6160 105.5312 89.0 0.01124 82.03864 94.65709
105.6320 105.5472 85.0 0.01176 82.02527 94.60509
105.6490 105.5642 96.0 0.01042 82.01103 94.55519
105.6660 105.5812 95.0 0.01053 81.99681 94.51083
105.6830 105.5982 119.0 0.00840 81.98259 94.47179
105.6990 105.6142 120.0 0.00834 81.96920 94.43977
105.7160 105.6312 100.0 0.01000 81.95498 94.41062
105.7330 105.6482 98.0 0.01021 81.94075 94.38646
105.7490 105.6642 78.0 0.01282 81.92738 94.36813
105.7660 105.6812 102.0 0.00980 81.91315 94.35322
105.7830 105.6982 101.0 0.00990 81.89894 94.34296
105.8000 105.7152 106.0 0.00943 81.88470 94.33725
105.8160 105.7312 106.0 0.00943 81.87132 94.33597
105.8330 105.7482 100.0 0.01000 81.85711 94.33889
105.8500 105.7652 94.0 0.01064 81.84287 94.34615
105.8660 105.7812 86.0 0.01163 81.82948 94.35691
105.8830 105.7982 99.0 0.01010 81.81528 94.37241
105.9000 105.8152 101.0 0.00990 81.80104 94.39220
105.9170 105.8322 108.0 0.00926 81.78682 94.41609
105.9330 105.8482 100.0 0.01000 81.77345 94.44232
105.9500 105.8652 111.0 0.00900 81.75922 94.47422
105.9670 105.8822 112.0 0.00893 81.74499 94.51018
105.9830 105.8982 91.0 0.01099 81.73161 94.54773
106.0000 105.9152 118.0 0.00848 81.71738 94.59159
106.0170 105.9322 92.0 0.01087 81.70316 94.63945
106.0340 105.9492 90.0 0.01111 81.68893 94.69142
106.0500 105.9652 92.0 0.01087 81.67554 94.74396
106.0670 105.9822 111.0 0.00900 81.66133 94.80371
106.0840 105.9992 118.0 0.00848 81.64709 94.86761
106.1000 106.0152 89.0 0.01124 81.63372 94.93143
106.1170 106.0322 105.0 0.00952 81.61951 95.00320
106.1340 106.0492 110.0 0.00909 81.60527 95.07919
106.1510 106.0662 89.0 0.01124 81.59104 95.15928
106.1670 106.0822 82.0 0.01220 81.57767 95.23843
106.1840 106.0992 101.0 0.00990 81.56344 95.32678
106.2010 106.1162 113.0 0.00885 81.54922 95.41933
106.2180 106.1332 83.0 0.01205 81.53499 95.51620
106.2340 106.1492 101.0 0.00990 81.52161 95.61140
106.2510 106.1662 120.0 0.00834 81.50738 95.71687
106.2680 106.1832 102.0 0.00980 81.49316 95.82683
106.2840 106.1992 102.0 0.00980 81.47977 95.93445
106.3010 106.2162 98.0 0.01021 81.46555 96.05333
106.3180 106.2332 85.0 0.01176 81.45135 96.17681
106.3350 106.2502 103.0 0.00971 81.43711 96.30531
106.3510 106.2662 99.0 0.01010 81.42372 96.43063
106.3680 106.2832 98.0 0.01021 81.40951 96.56848
106.3850 106.3002 92.0 0.01087 81.39528 96.71162
106.4010 106.3162 84.0 0.01191 81.38188 96.85104
106.4180 106.3332 95.0 0.01053 81.36768 97.00407
106.4350 106.3502 109.0 0.00917 81.35345 97.16280
106.4520 106.3672 112.0 0.00893 81.33922 97.32696
106.4680 106.3832 78.0 0.01282 81.32585 97.48645
106.4850 106.4002 105.0 0.00952 81.31161 97.66181
106.5020 106.4172 100.0 0.01000 81.29739 97.84300
106.5180 106.4332 106.0 0.00943 81.28401 98.01891
106.5350 106.4502 95.0 0.01053 81.26978 98.21213
106.5520 106.4672 109.0 0.00917 81.25557 98.41154
106.5690 106.4842 87.0 0.01150 81.24134 98.61775
106.5850 106.5002 84.0 0.01191 81.22795 98.81779
106.6020 106.5172 111.0 0.00900 81.21374 99.03702
106.6190 106.5342 95.0 0.01053 81.19950 99.26362
106.6350 106.5502 106.0 0.00943 81.18612 99.48338
106.6520 106.5672 99.0 0.01010 81.17191 99.72417
106.6690 106.5842 104.0 0.00961 81.15767 99.97301
106.6860 106.6012 117.0 0.00854 81.14345 100.22970
106.7020 106.6172 100.0 0.01000 81.13007 100.47861
106.7190 106.6342 115.0 0.00870 81.11584 100.75174
106.7360 106.6512 109.0 0.00917 81.10162 101.03352
106.7530 106.6682 90.0 0.01111 81.08739 101.32438
106.7690 106.6842 105.0 0.00952 81.07401 101.60659
106.7860 106.7012 96.0 0.01042 81.05978 101.91595
106.8030 106.7182 106.0 0.00943 81.04556 102.23533
106.8190 106.7342 82.0 0.01220 81.03218 102.54528
106.8360 106.7512 106.0 0.00943 81.01795 102.88509
106.8530 106.7682 93.0 0.01075 81.00375 103.23561
106.8700 106.7852 106.0 0.00943 80.98951 103.59827
106.8860 106.8012 100.0 0.01000 80.97612 103.95034
106.9030 106.8182 100.0 0.01000 80.96191 104.33590
106.9200 106.8352 100.0 0.01000 80.94769 104.73490
106.9360 106.8512 94.0 0.01064 80.93430 105.12249
106.9530 106.8682 92.0 0.01087 80.92008 105.54710
106.9700 106.8852 88.0 0.01136 80.90585 105.98677
106.9870 106.9022 108.0 0.00926 80.89162 106.70301
107.0030 106.9182 82.0 0.01220 80.87825 107.14510
107.0200 106.9352 107.0 0.00935 80.86402 107.63121
107.0370 106.9522 98.0 0.01021 80.84979 108.13381
107.0530 106.9682 77.0 0.01299 80.83642 108.62231
107.0700 106.9852 108.0 0.00926 80.82219 109.15981
107.0870 107.0022 101.0 0.00990 80.80798 109.71567
107.1040 107.0192 95.0 0.01053 80.79374 110.29190
107.1200 107.0352 108.0 0.00926 80.78036 110.85258
107.1370 107.0522 115.0 0.00870 80.76614 111.46906
107.1540 107.0692 87.0 0.01150 80.75191 112.10873
107.1700 107.0852 96.0 0.01042 80.73853 112.73166
107.1870 107.1022 107.0 0.00935 80.72431 113.41720
107.2040 107.1192 85.0 0.01176 80.71008 114.12921
107.2210 107.1362 122.0 0.00819 80.69585 114.86771
107.2370 107.1522 107.0 0.00935 80.68248 115.58781
107.2540 107.1692 108.0 0.00926 80.66824 116.38273
107.2710 107.1862 114.0 0.00877 80.65402 117.20816
107.2880 107.2032 116.0 0.00862 80.63979 118.06603
107.3040 107.2192 99.0 0.01010 80.62642 118.90434
107.3210 107.2362 112.0 0.00893 80.61219 119.83009
107.3380 107.2532 106.0 0.00943 80.59797 120.79351
107.3540 107.2692 116.0 0.00862 80.58458 121.73613
107.3710 107.2862 98.0 0.01021 80.57036 122.77849
107.3880 107.3032 110.0 0.00909 80.55615 123.86354
107.4050 107.3202 127.0 0.00787 80.54192 124.99696
107.4210 107.3362 113.0 0.00885 80.52853 126.10820
107.4380 107.3532 110.0 0.00909 80.51432 127.33755
107.4550 107.3702 135.0 0.00741 80.50008 128.62402
107.4710 107.3862 113.0 0.00885 80.48669 129.88777
107.4880 107.4032 126.0 0.00794 80.47248 131.28879
107.5050 107.4202 118.0 0.00848 80.45826 132.75836
107.5220 107.4372 144.0 0.00694 80.44403 134.29794
107.5380 107.4532 125.0 0.00800 80.43066 135.81483
107.5550 107.4702 137.0 0.00731 80.41642 137.50833
107.5720 107.4872 133.0 0.00752 80.40220 139.28912
107.5880 107.5032 125.0 0.00800 80.38882 141.05093
107.6050 107.5202 155.0 0.00645 80.37459 143.02719
107.6220 107.5372 133.0 0.00752 80.36037 145.11555
107.6390 107.5542 127.0 0.00787 80.34614 147.33286
107.6550 107.5702 145.0 0.00690 80.33276 149.54576
107.6720 107.5872 143.0 0.00699 80.31854 152.04796
107.6890 107.6042 135.0 0.00741 80.30431 154.72827
107.7050 107.6202 153.0 0.00654 80.29092 157.42876
107.7220 107.6372 158.0 0.00633 80.27671 160.51393
107.7390 107.6542 171.0 0.00585 80.26248 163.85670
107.7560 107.6712 194.0 0.00515 80.24826 167.48790
107.7720 107.6872 168.0 0.00595 80.23488 171.20486
107.7890 107.7042 170.0 0.00588 80.22065 175.52925
107.8060 107.7212 177.0 0.00565 80.20642 180.28679
107.8230 107.7382 209.0 0.00478 80.19220 185.54477
107.8390 107.7542 217.0 0.00461 80.17882 191.01472
107.8560 107.7712 221.0 0.00452 80.16460 197.46396
107.8730 107.7882 199.0 0.00502 80.15037 204.65959
107.8890 107.8042 237.0 0.00422 80.13699 212.20395
107.9060 107.8212 244.0 0.00410 80.12276 221.15466
107.9230 107.8382 277.0 0.00361 80.10855 231.17606
107.9400 107.8552 284.0 0.00352 80.09432 242.43288
107.9560 107.8712 290.0 0.003448 80.08092 254.26666
107.9730 107.8882 296.0 0.003380 80.06672 268.28479
107.9900 107.9052 311.0 0.003214 80.05249 283.99310
108.0060 107.9212 320.0 0.003124 80.03910 300.44247
108.0230 107.9382 358.0 0.002794 80.02489 319.82443
108.0400 107.9552 364.0 0.002747 80.01066 341.39523
108.0570 107.9722 408.0 0.002451 79.99644 365.27341
108.0730 107.9882 461.0 0.002169 79.98306 389.98190
108.0900 108.0052 442.0 0.002263 79.96883 418.81775
108.1070 108.0222 472.0 0.002118 79.95461 450.38669
108.1230 108.0382 522.0 0.001915 79.94123 482.67892
108.1400 108.0552 561.0 0.001782 79.92699 519.90479
108.1570 108.0722 577.0 0.001733 79.91278 560.09161
108.1740 108.0892 606.0 0.001650 79.89854 603.16125
108.1900 108.1052 637.0 0.001570 79.88516 646.58759
108.2070 108.1222 778.0 0.001286 79.87095 695.56482
108.2240 108.1392 772.0 0.001296 79.85671 747.40857
108.2400 108.1552 775.0 0.001290 79.84333 798.54926
108.2570 108.1722 869.0 0.001151 79.82912 855.16498
108.2740 108.1892 899.0 0.001113 79.81489 913.88324
108.2910 108.2062 930.0 0.001075 79.80066 974.20642
108.3070 108.2222 1030.0 0.000971 79.78728 1032.01343
108.3240 108.2392 1053.0 0.000950 79.77305 1094.42444
108.3410 108.2562 1165.0 0.000858 79.75883 1156.79822
108.3580 108.2732 1183.0 0.000846 79.74461 1218.87549
108.3740 108.2892 1272.0 0.000786 79.73122 1276.58411
108.3910 108.3062 1343.0 0.000744 79.71700 1336.77026
108.4080 108.3232 1326.0 0.000754 79.70277 1395.38647
108.4240 108.3392 1366.0 0.000732 79.68939 1448.78149
108.4410 108.3562 1402.0 0.000713 79.67516 1503.34485
108.4580 108.3732 1557.0 0.000642 79.66096 1555.25635
108.4750 108.3902 1600.0 0.000625 79.64673 1604.30200
108.4910 108.4062 1607.0 0.000622 79.63333 1647.40637
108.5080 108.4232 1645.0 0.000608 79.61913 1689.53894
108.5250 108.4402 1725.0 0.000580 79.60489 1727.62610
108.5410 108.4562 1798.0 0.000556 79.59150 1759.32788
108.5580 108.4732 1770.0 0.000565 79.57729 1788.18176
108.5750 108.4902 1821.0 0.000549 79.56306 1811.72156
108.5920 108.5072 1818.0 0.000550 79.54884 1829.42078
108.6080 108.5232 1830.0 0.000546 79.53546 1840.31042
108.6250 108.5402 1917.0 0.000522 79.52123 1845.28967
108.6420 108.5572 1854.0 0.000539 79.50701 1842.96655
108.6580 108.5732 1825.0 0.000548 79.49363 1833.72998
108.6750 108.5902 1806.0 0.000554 79.47939 1816.08289
108.6920 108.6072 1846.0 0.000542 79.46518 1790.26587
108.7090 108.6242 1732.0 0.000577 79.45095 1756.30212
108.7250 108.6402 1682.0 0.000595 79.43757 1717.26001
108.7420 108.6572 1604.0 0.000623 79.42336 1668.80481
108.7590 108.6742 1582.0 0.000632 79.40912 1613.88708
108.7750 108.6902 1485.0 0.000673 79.39574 1557.27759
108.7920 108.7072 1351.0 0.000740 79.38152 1492.89636
108.8090 108.7242 1333.0 0.000750 79.36729 1425.15710
108.8260 108.7412 1272.0 0.000786 79.35307 1355.27332
108.8420 108.7572 1258.0 0.000795 79.33968 1288.49463
108.8590 108.7742 1137.0 0.000879 79.32545 1217.18152
108.8760 108.7912 1062.0 0.000942 79.31123 1146.45166
108.8930 108.8082 1025.0 0.000975 79.29701 1076.96094
108.9090 108.8242 957.0 0.001045 79.28362 1013.23035
108.9260 108.8412 925.0 0.001081 79.26940 947.69019
108.9430 108.8582 848.0 0.001179 79.25517 884.77570
108.9590 108.8742 827.0 0.001209 79.24179 828.23132
108.9760 108.8912 695.0 0.001439 79.22757 771.13843
108.9930 108.9082 717.0 0.001394 79.21336 717.33551
109.0100 108.9252 648.0 0.001543 79.19913 666.74670
109.0260 108.9412 628.0 0.001592 79.18574 622.19330
109.0430 108.9582 592.0 0.001689 79.17152 578.13129
109.0600 108.9752 610.0 0.001639 79.15730 537.25262
109.0760 108.9912 514.0 0.001946 79.14391 501.69272
109.0930 109.0082 463.0 0.002159 79.12970 466.93356
109.1100 109.0252 485.0 0.002062 79.11546 435.05115
109.1270 109.0422 390.0 0.002564 79.10124 405.97546
109.1430 109.0582 418.0 0.002391 79.08787 381.03622
109.1600 109.0752 406.0 0.002463 79.07363 356.89139
109.1770 109.0922 352.0 0.002841 79.05941 335.05710
109.1930 109.1082 340.0 0.002941 79.04604 316.46567
109.2100 109.1252 366.0 0.002733 79.03181 298.58051
109.2270 109.1422 300.0 0.003334 79.01759 282.50424
109.2440 109.1592 329.0 0.003039 79.00336 268.03632
109.2600 109.1752 270.0 0.00370 78.98997 255.77666
109.2770 109.1922 285.0 0.00351 78.97575 244.04062
109.2940 109.2092 276.0 0.00362 78.96152 233.48338
109.3100 109.2252 278.0 0.00360 78.94814 224.52953
109.3270 109.2422 218.0 0.00459 78.93392 215.93871
109.3440 109.2592 221.0 0.00452 78.91969 208.18214
109.3610 109.2762 232.0 0.00431 78.90546 201.39223
109.3770 109.2922 206.0 0.00486 78.89209 195.40709
109.3940 109.3092 215.0 0.00465 78.87786 189.60361
109.4110 109.3262 216.0 0.00463 78.86364 184.31754
109.4280 109.3432 174.0 0.00575 78.84941 179.48369
109.4440 109.3592 160.0 0.00625 78.83603 175.30014
109.4610 109.3762 176.0 0.00568 78.82180 171.19562
109.4780 109.3932 165.0 0.00606 78.80758 167.40300
109.4940 109.4092 163.0 0.00613 78.79420 164.08733
109.5110 109.4262 150.0 0.00666 78.77997 160.80176
109.5280 109.4432 154.0 0.00649 78.76577 157.73917
109.5450 109.4602 169.0 0.00592 78.75153 154.86740
109.5610 109.4762 168.0 0.00595 78.73814 152.32660
109.5780 109.4932 140.0 0.00715 78.72393 149.78506
109.5950 109.5102 141.0 0.00710 78.70970 147.38354
109.6110 109.5262 158.0 0.00633 78.69631 145.24423
109.6280 109.5432 130.0 0.00769 78.68210 143.09090
109.6450 109.5602 142.0 0.00704 78.66787 141.06149
109.6620 109.5772 137.0 0.00731 78.65364 139.11792
109.6780 109.5932 137.0 0.00731 78.64027 137.37637
109.6950 109.6102 123.0 0.00813 78.62604 135.60802
109.7120 109.6272 110.0 0.00909 78.61181 133.92218
109.7280 109.6432 123.0 0.00813 78.59843 132.40654
109.7450 109.6602 112.0 0.00893 78.58421 130.86290
109.7620 109.6772 141.0 0.00710 78.56999 129.38792
109.7790 109.6942 129.0 0.00775 78.55576 127.97425
109.7950 109.7102 134.0 0.00746 78.54237 126.69910
109.8120 109.7272 130.0 0.00769 78.52816 125.39883
109.8290 109.7442 124.0 0.00806 78.51393 124.14998
109.8450 109.7602 103.0 0.00971 78.50054 123.02145
109.8620 109.7772 114.0 0.00877 78.48633 121.86861
109.8790 109.7942 95.0 0.01053 78.47209 120.75948
109.8960 109.8112 104.0 0.00961 78.45787 119.69369
109.9120 109.8272 95.0 0.01053 78.44450 118.72855
109.9290 109.8442 109.0 0.00917 78.43027 117.73896
109.9460 109.8612 115.0 0.00870 78.41604 116.78663
109.9630 109.8782 113.0 0.00885 78.40182 115.86922
109.9790 109.8942 105.0 0.00952 78.38844 115.03647
109.9960 109.9112 114.0 0.00877 78.37421 114.18212
110.0130 109.9282 112.0 0.00893 78.35999 113.35803
110.0290 109.9442 108.0 0.00926 78.34660 112.60909
110.0460 109.9612 107.0 0.00935 78.33237 111.83981
110.0630 109.9782 110.0 0.00909 78.31817 111.09773
110.0800 109.9952 113.0 0.00885 78.30393 110.37959
110.0960 110.0112 99.0 0.01010 78.29054 109.72591
110.1130 110.0282 107.0 0.00935 78.27634 109.05474
110.1300 110.0452 124.0 0.00806 78.26211 108.40447
110.1460 110.0612 113.0 0.00885 78.24872 107.81202
110.1630 110.0782 99.0 0.01010 78.23450 107.20302
110.1800 110.0952 116.0 0.00862 78.22028 106.61248
110.1970 110.1122 88.0 0.01136 78.20605 106.04088
110.2130 110.1282 104.0 0.00961 78.19267 105.51976
110.2300 110.1452 107.0 0.00935 78.17844 104.98188
110.2470 110.1622 89.0 0.01124 78.16422 104.46084
110.2630 110.1782 82.0 0.01220 78.15085 103.98537
110.2800 110.1952 115.0 0.00870 78.13661 103.49422
110.2970 110.2122 87.0 0.01150 78.12240 103.01829
110.3140 110.2292 79.0 0.01266 78.10816 102.55592
110.3300 110.2452 90.0 0.01111 78.09478 102.13352
110.3470 110.2622 104.0 0.00961 78.08056 101.69754
110.3640 110.2792 109.0 0.00917 78.06633 101.27361
110.3800 110.2952 115.0 0.00870 78.05295 100.88612
110.3970 110.3122 98.0 0.01021 78.03873 100.48581
110.4140 110.3292 101.0 0.00990 78.02450 100.09637
110.4310 110.3462 109.0 0.00917 78.01028 99.71802
110.4470 110.3622 87.0 0.01150 77.99690 99.37186
110.4640 110.3792 95.0 0.01053 77.98267 99.01334
110.4810 110.3962 99.0 0.01010 77.96844 98.66484
110.4980 110.4132 105.0 0.00952 77.95422 98.32579
110.5140 110.4292 99.0 0.01010 77.94083 98.01516
110.5310 110.4462 106.0 0.00943 77.92661 97.69362
110.5480 110.4632 108.0 0.00926 77.91239 97.38062
110.5640 110.4792 87.0 0.01150 77.89900 97.09373
110.5810 110.4962 84.0 0.01191 77.88478 96.79657
110.5980 110.5132 112.0 0.00893 77.87057 96.50795
110.6150 110.5302 96.0 0.01042 77.85634 96.22596
110.6310 110.5462 94.0 0.01064 77.84295 95.96729
110.6480 110.5632 90.0 0.01111 77.82874 95.69973
110.6650 110.5802 87.0 0.01150 77.81451 95.43858
110.6810 110.5962 86.0 0.01163 77.80112 95.19894
110.6980 110.6132 107.0 0.00935 77.78691 94.95102
110.7150 110.6302 83.0 0.01205 77.77268 94.70892
110.7320 110.6472 99.0 0.01010 77.75845 94.47310
110.7480 110.6632 91.0 0.01099 77.74508 94.25682
110.7650 110.6802 75.0 0.01333 77.73084 94.03226
110.7820 110.6972 86.0 0.01163 77.71662 93.81346
110.7980 110.7132 106.0 0.00943 77.70325 93.61275
110.8150 110.7302 101.0 0.00990 77.68901 93.40437
110.8320 110.7472 100.0 0.01000 77.67480 93.20146
110.8490 110.7642 79.0 0.01266 77.66056 93.00338
110.8650 110.7802 102.0 0.00980 77.64719 92.82168
110.8820 110.7972 112.0 0.00893 77.63297 92.63337
110.8990 110.8142 83.0 0.01205 77.61874 92.44958
110.9150 110.8302 107.0 0.00935 77.60535 92.28101
110.9320 110.8472 78.0 0.01282 77.59113 92.10634
110.9490 110.8642 104.0 0.00961 77.57690 91.93594
110.9660 110.8812 101.0 0.00990 77.56268 91.77002
110.9820 110.8972 87.0 0.01150 77.54930 91.61794
110.9990 110.9142 88.0 0.01136 77.53507 91.46020
111.0160 110.9312 113.0 0.00885 77.52084 91.30669
111.0330 110.9482 83.0 0.01205 77.50662 91.15734
111.0490 110.9642 93.0 0.01075 77.49324 91.02050
111.0660 110.9812 89.0 0.01124 77.47901 90.87894
111.0830 110.9982 80.0 0.01250 77.46479 90.74146
111.0990 111.0142 84.0 0.01191 77.45141 90.61568
111.1160 111.0312 78.0 0.01282 77.43719 90.48589
111.1330 111.0482 95.0 0.01053 77.42297 90.36025
111.1500 111.0652 88.0 0.01136 77.40874 90.23841
111.1660 111.0812 103.0 0.00971 77.39535 90.12751
111.1830 111.0982 83.0 0.01205 77.38114 90.01382
111.2000 111.1152 110.0 0.00909 77.36691 89.90420
111.2160 111.1312 96.0 0.01042 77.35352 89.80500
111.2330 111.1482 90.0 0.01111 77.33932 89.70408
111.2500 111.1652 90.0 0.01111 77.32508 89.60765
111.2670 111.1822 76.0 0.01316 77.31086 89.51617
111.2830 111.1982 96.0 0.01042 77.29748 89.43665
111.3000 111.2152 75.0 0.01333 77.28325 89.35524
111.3170 111.2322 84.0 0.01191 77.26903 89.27953
111.3330 111.2482 76.0 0.01316 77.25565 89.21381
111.3500 111.2652 83.0 0.01205 77.24142 89.15013
111.3670 111.2822 88.0 0.01136 77.22720 89.09331
111.3840 111.2992 87.0 0.01150 77.21297 89.04375
111.4000 111.3152 87.0 0.01150 77.19958 89.00427
111.4170 111.3322 63.0 0.01587 77.18537 88.97041
111.4340 111.3492 76.0 0.01316 77.17113 88.94542
111.4500 111.3652 73.0 0.01370 77.15776 88.93056
111.4670 111.3822 87.0 0.01150 77.14354 88.92456
111.4840 111.3992 82.0 0.01220 77.12931 88.92922
111.5010 111.4162 71.0 0.01409 77.11508 88.94518
111.5170 111.4322 82.0 0.01220 77.10171 88.97102
111.5340 111.4492 89.0 0.01124 77.08747 89.01057
111.5510 111.4662 86.0 0.01163 77.07325 89.06300
111.5680 111.4832 100.0 0.01000 77.05903 89.12880
111.5840 111.4992 86.0 0.01163 77.04564 89.20325
111.6010 111.5162 93.0 0.01075 77.03142 89.29598
111.6180 111.5332 81.0 0.01235 77.01719 89.40284
111.6340 111.5492 84.0 0.01191 77.00381 89.51631
111.6510 111.5662 94.0 0.01064 76.98959 89.65054
111.6680 111.5832 95.0 0.01053 76.97538 89.79830
111.6850 111.6002 96.0 0.01042 76.96115 89.95950
111.7010 111.6162 72.0 0.01389 76.94776 90.12256
111.7180 111.6332 100.0 0.01000 76.93355 90.30676
111.7350 111.6502 81.0 0.01235 76.91931 90.50166
111.7510 111.6662 96.0 0.01042 76.90592 90.69327
111.7680 111.6832 78.0 0.01282 76.89172 90.90368
111.7850 111.7002 95.0 0.01053 76.87748 91.12000
111.8020 111.7172 79.0 0.01266 76.86326 91.33968
111.8180 111.7332 89.0 0.01124 76.84988 91.59573
111.8350 111.7502 81.0 0.01235 76.83566 91.81564
111.8520 111.7672 61.0 0.01639 76.82143 92.03159
111.8680 111.7832 107.0 0.00935 76.80805 92.22859
111.8850 111.8002 104.0 0.00961 76.79382 92.42901
111.9020 111.8172 87.0 0.01150 76.77960 92.61652
111.9190 111.8342 97.0 0.01031 76.76537 92.78854
111.9350 111.8502 82.0 0.01220 76.75199 92.93331
111.9520 111.8672 94.0 0.01064 76.73777 93.06623
111.9690 111.8842 99.0 0.01010 76.72354 93.17522
111.9850 111.9002 105.0 0.00952 76.71016 93.25357
112.0020 111.9172 97.0 0.01031 76.69595 93.30933
112.0190 111.9342 105.0 0.00952 76.68171 93.33536
112.0360 111.9512 83.0 0.01205 76.66749 93.33065
112.0520 111.9672 91.0 0.01099 76.65411 93.29806
112.0690 111.9842 87.0 0.01150 76.63988 93.23394
112.0860 112.0012 94.0 0.01064 76.62566 93.14085
112.1030 112.0182 86.0 0.01163 76.61143 93.02106
112.1190 112.0342 97.0 0.01031 76.59805 92.88658
112.1360 112.0512 94.0 0.01064 76.58382 92.72401
112.1530 112.0682 90.0 0.01111 76.56960 92.54530
112.1690 112.0842 100.0 0.01000 76.55621 92.36645
112.1860 112.1012 89.0 0.01124 76.54199 92.16937
112.2030 112.1182 86.0 0.01163 76.52779 91.96996
112.2200 112.1352 108.0 0.00926 76.51355 91.77215
112.2360 112.1512 79.0 0.01266 76.50016 91.59183
112.2530 112.1682 83.0 0.01205 76.48595 91.41064
112.2700 112.1852 89.0 0.01124 76.47173 91.24354
112.2860 112.2012 97.0 0.01031 76.45833 91.10297
112.3030 112.2182 103.0 0.00971 76.44412 90.97506
112.3200 112.2352 90.0 0.01111 76.42989 90.87254
112.3370 112.2522 101.0 0.00990 76.41566 90.79942
112.3530 112.2682 91.0 0.01099 76.40229 90.76094
112.3700 112.2852 102.0 0.00980 76.38805 90.75602
112.3870 112.3022 104.0 0.00961 76.37383 90.79245
112.4030 112.3182 104.0 0.00961 76.36046 90.86848
112.4200 112.3352 101.0 0.00990 76.34623 90.99932
112.4370 112.3522 89.0 0.01124 76.33201 91.18508
112.4540 112.3692 104.0 0.00961 76.31778 91.43265
112.4700 112.3852 104.0 0.00961 76.30439 91.77323
112.4870 112.4022 95.0 0.01053 76.29018 92.15797
112.5040 112.4192 104.0 0.00961 76.27595 92.62395
112.5200 112.4352 101.0 0.00990 76.26257 93.14237
112.5370 112.4522 93.0 0.01075 76.24834 93.78534
112.5540 112.4692 99.0 0.01010 76.23412 94.53175
112.5710 112.4862 121.0 0.00826 76.21989 95.38797
112.5870 112.5022 85.0 0.01176 76.20652 96.30036
112.6040 112.5192 118.0 0.00848 76.19228 97.39220
112.6210 112.5362 98.0 0.01021 76.17806 98.61455
112.6380 112.5532 126.0 0.00794 76.16383 99.97395
112.6540 112.5692 82.0 0.01220 76.15045 101.38241
112.6710 112.5862 83.0 0.01205 76.13623 103.02060
112.6880 112.6032 113.0 0.00885 76.12200 104.80652
112.7040 112.6192 109.0 0.00917 76.10862 106.62210
112.7210 112.6362 139.0 0.00719 76.09439 108.69435
112.7380 112.6532 98.0 0.01021 76.08018 110.90723
112.7550 112.6702 123.0 0.00813 76.06596 113.26109
112.7710 112.6862 116.0 0.00862 76.05257 115.59305
112.7880 112.7032 115.0 0.00870 76.03836 118.18030
112.8050 112.7202 140.0 0.00715 76.02412 120.87360
112.8210 112.7362 137.0 0.00731 76.01073 123.48368
112.8380 112.7532 122.0 0.00819 75.99652 126.31195
112.8550 112.7702 133.0 0.00752 75.98229 129.17976
112.8720 112.7872 125.0 0.00800 75.96807 132.04947
112.8880 112.8032 164.0 0.00609 75.95470 134.71965
112.9050 112.8202 142.0 0.00704 75.94046 137.49393
112.9220 112.8372 148.0 0.00675 75.92623 140.15617
112.9380 112.8532 184.0 0.00544 75.91286 142.51924
112.9550 112.8702 145.0 0.00690 75.89863 144.84238
112.9720 112.8872 173.0 0.00578 75.88441 146.92392
112.9890 112.9042 179.0 0.00559 75.87018 148.73010
113.0050 112.9202 172.0 0.00582 75.85680 150.14601
113.0220 112.9372 185.0 0.00541 75.84258 151.32713
113.0390 112.9542 169.0 0.00592 75.82835 152.16129
113.0550 112.9702 161.0 0.00621 75.81496 152.62190
113.0720 112.9872 163.0 0.00613 75.80075 152.76901
113.0890 113.0042 195.0 0.00513 75.78651 152.57115
113.1060 113.0212 166.0 0.00603 75.77229 152.04120
113.1220 113.0372 202.0 0.00495 75.75892 151.13245
113.1390 113.0542 157.0 0.00637 75.74468 150.00620
113.1560 113.0712 151.0 0.00662 75.73046 148.60185
113.1730 113.0882 162.0 0.00617 75.71624 146.94066
113.1890 113.1042 145.0 0.00690 75.70286 145.16420
113.2060 113.1212 151.0 0.00662 75.68863 143.07372
113.2230 113.1382 143.0 0.00699 75.67441 140.80249
113.2390 113.1542 144.0 0.00694 75.66102 138.52769
113.2560 113.1712 150.0 0.00666 75.64680 135.99384
113.2730 113.1882 130.0 0.00769 75.63259 133.37556
113.2900 113.2052 132.0 0.00757 75.61835 130.69788
113.3060 113.2212 135.0 0.00741 75.60497 128.15640
113.3230 113.2382 115.0 0.00870 75.59076 125.46409
113.3400 113.2552 131.0 0.00763 75.57653 122.79739
113.3560 113.2712 112.0 0.00893 75.56314 120.33653
113.3730 113.2882 130.0 0.00769 75.54893 117.79523
113.3900 113.3052 111.0 0.00900 75.53470 115.33710
113.4070 113.3222 106.0 0.00943 75.52047 112.98048
113.4230 113.3382 140.0 0.00715 75.50710 110.86443
113.4400 113.3552 112.0 0.00893 75.49286 108.72510
113.4570 113.3722 89.0 0.01124 75.47864 106.70691
113.4730 113.3882 114.0 0.00877 75.46526 104.92040
113.4900 113.4052 108.0 0.00926 75.45103 103.13780
113.5070 113.4222 96.0 0.01042 75.43682 101.47787
113.5240 113.4392 111.0 0.00900 75.42258 99.93429
113.5400 113.4552 104.0 0.00961 75.40920 98.58762
113.5570 113.4722 134.0 0.00746 75.39499 97.30125
113.5740 113.4892 89.0 0.01124 75.38075 96.08212
113.5900 113.5052 106.0 0.00943 75.36737 95.02750
113.6070 113.5222 109.0 0.00917 75.35315 93.99924
113.6240 113.5392 102.0 0.00980 75.33892 93.05910
113.6410 113.5562 81.0 0.01235 75.32470 92.20290
113.6570 113.5722 106.0 0.00943 75.31133 91.46870
113.6740 113.5892 72.0 0.01389 75.29709 90.75739
113.6910 113.6062 89.0 0.01124 75.28286 90.11301
113.7080 113.6232 87.0 0.01150 75.26864 89.52976
113.7240 113.6392 93.0 0.01075 75.25526 89.03219
113.7410 113.6562 106.0 0.00943 75.24104 88.55301
113.7580 113.6732 84.0 0.01191 75.22681 88.12043
113.7740 113.6892 96.0 0.01042 75.21343 87.75208
113.7910 113.7062 90.0 0.01111 75.19920 87.39778
113.8080 113.7232 88.0 0.01136 75.18499 87.07843
113.8250 113.7402 88.0 0.01136 75.17076 86.78965
113.8410 113.7562 105.0 0.00952 75.15737 86.54352
113.8580 113.7732 104.0 0.00961 75.14317 86.30670
113.8750 113.7902 97.0 0.01031 75.12893 86.09201
113.8910 113.8062 89.0 0.01124 75.11554 85.90845
113.9080 113.8232 87.0 0.01150 75.10133 85.73119
113.9250 113.8402 79.0 0.01266 75.08710 85.56977
113.9420 113.8572 102.0 0.00980 75.07288 85.42291
113.9580 113.8732 84.0 0.01191 75.05950 85.29662
113.9750 113.8902 92.0 0.01087 75.04527 85.17352
113.9920 113.9072 105.0 0.00952 75.03104 85.06092
114.0080 113.9232 94.0 0.01064 75.06114 85.00716
114.0250 113.9402 94.0 0.01064 75.10350 84.96856
114.0420 113.9572 102.0 0.00980 75.14580 84.93771
114.0590 113.9742 80.0 0.01250 75.18816 84.91387
114.0750 113.9902 84.0 0.01191 75.22797 84.89729
114.0920 114.0072 90.0 0.01111 75.27029 84.88545
114.1090 114.0242 81.0 0.01235 75.31264 84.87897
114.1250 114.0402 93.0 0.01075 75.35247 84.87754
114.1420 114.0572 103.0 0.00971 75.39477 84.88055
114.1590 114.0742 104.0 0.00961 75.43713 84.88795
114.1760 114.0912 89.0 0.01124 75.47945 84.89943
114.1920 114.1072 103.0 0.00971 75.51926 84.91381
114.2090 114.1242 87.0 0.01150 75.56162 84.93267
114.2260 114.1412 79.0 0.01266 75.60394 84.95495
114.2430 114.1582 92.0 0.01087 75.64629 84.98060
114.2590 114.1742 86.0 0.01163 75.68610 85.00761
114.2760 114.1912 99.0 0.01010 75.72844 85.03929
114.2930 114.2082 88.0 0.01136 75.77076 85.07388
114.3090 114.2242 92.0 0.01087 75.81059 85.10903
114.3260 114.2412 104.0 0.00961 75.85291 85.14902
114.3430 114.2582 98.0 0.01021 75.89520 85.19163
114.3600 114.2752 80.0 0.01250 75.93755 85.23685
114.3760 114.2912 82.0 0.01220 75.97741 85.28172
114.3930 114.3082 76.0 0.01316 76.01969 85.33167
114.4100 114.3252 80.0 0.01250 76.06205 85.38411
114.4260 114.3412 87.0 0.01150 76.10188 85.43552
114.4430 114.3582 88.0 0.01136 76.14417 85.49234
114.4600 114.3752 107.0 0.00935 76.18652 85.55148
114.4770 114.3922 98.0 0.01021 76.22886 85.61277
114.4930 114.4082 84.0 0.01191 76.26865 85.67241
114.5100 114.4252 108.0 0.00926 76.31102 85.73791
114.5270 114.4422 80.0 0.01250 76.35334 85.80548
114.5430 114.4582 75.0 0.01333 76.39315 85.87092
114.5600 114.4752 90.0 0.01111 76.43549 85.94254
114.5770 114.4922 87.0 0.01150 76.47781 86.01615
114.5940 114.5092 85.0 0.01176 76.52015 86.09184
114.6100 114.5252 93.0 0.01075 76.55998 86.16482
114.6270 114.5422 95.0 0.01053 76.60229 86.24434
114.6440 114.5592 84.0 0.01191 76.64465 86.32590
114.6600 114.5752 92.0 0.01087 76.68448 86.40443
114.6770 114.5922 87.0 0.01150 76.72678 86.48973
114.6940 114.6092 96.0 0.01042 76.76912 86.57713
114.7110 114.6262 85.0 0.01176 76.81146 86.66644
114.7270 114.6422 83.0 0.01205 76.85126 86.75222
114.7440 114.6592 94.0 0.01064 76.89362 86.84544
114.7610 114.6762 89.0 0.01124 76.93596 86.94061
114.7780 114.6932 99.0 0.01010 76.97828 87.03774
114.7940 114.7092 106.0 0.00943 77.01811 87.13096
114.8110 114.7262 85.0 0.01176 77.06043 87.23200
114.8280 114.7432 90.0 0.01111 77.10277 87.33506
114.8440 114.7592 85.0 0.01176 77.14259 87.43390
114.8610 114.7762 93.0 0.01075 77.18492 87.54095
114.8780 114.7932 92.0 0.01087 77.22720 87.64996
114.8950 114.8102 92.0 0.01087 77.26955 87.76123
114.9110 114.8262 89.0 0.01124 77.30939 87.86789
114.9280 114.8432 95.0 0.01053 77.35168 87.98311
114.9450 114.8602 86.0 0.01163 77.39404 88.10071
114.9610 114.8762 81.0 0.01235 77.43389 88.21336
114.9780 114.8932 95.0 0.01053 77.47617 88.33506
114.9950 114.9102 107.0 0.00935 77.51853 88.45922
115.0120 114.9272 91.0 0.01099 77.56085 88.58560
115.0280 114.9432 92.0 0.01087 77.60065 88.70653
115.0450 114.9602 91.0 0.01099 77.64301 88.83755
115.0620 114.9772 102.0 0.00980 77.68535 88.97089
115.0780 114.9932 86.0 0.01163 77.72514 89.09849
115.0950 115.0102 91.0 0.01099 77.76750 89.23668
115.1120 115.0272 95.0 0.01053 77.80981 89.37722
115.1290 115.0442 95.0 0.01053 77.85217 89.52053
115.1450 115.0602 95.0 0.01053 77.89198 89.65765
115.1620 115.0772 85.0 0.01176 77.93430 89.80595
115.1790 115.0942 96.0 0.01042 77.97664 89.95709
115.1950 115.1102 83.0 0.01205 78.01647 90.10178
115.2120 115.1272 91.0 0.01099 78.05878 90.25824
115.2290 115.1442 80.0 0.01250 78.10114 90.41779
115.2460 115.1612 102.0 0.00980 78.14346 90.58019
115.2620 115.1772 91.0 0.01099 78.18327 90.73566
115.2790 115.1942 99.0 0.01010 78.22562 90.90409
115.2960 115.2112 84.0 0.01191 78.26795 91.07561
115.3130 115.2282 96.0 0.01042 78.31029 91.25040
115.3290 115.2442 91.0 0.01099 78.35011 91.41782
115.3460 115.2612 94.0 0.01064 78.39244 91.59911
115.3630 115.2782 108.0 0.00926 78.43476 91.78388
115.3790 115.2942 92.0 0.01087 78.47459 91.96096
115.3960 115.3112 78.0 0.01282 78.51691 92.15274
115.4130 115.3282 97.0 0.01031 78.55920 92.34804
115.4300 115.3452 101.0 0.00990 78.60156 92.54749
115.4460 115.3612 89.0 0.01124 78.64141 92.73877
115.4630 115.3782 76.0 0.01316 78.68369 92.94567
115.4800 115.3952 95.0 0.01053 78.72605 93.15707
115.4960 115.4112 91.0 0.01099 78.76588 93.35985
115.5130 115.4282 97.0 0.01031 78.80817 93.57928
115.5300 115.4452 94.0 0.01064 78.85052 93.80361
115.5470 115.4622 82.0 0.01220 78.89287 94.03244
115.5630 115.4782 113.0 0.00885 78.93266 94.25195
115.5800 115.4952 93.0 0.01075 78.97502 94.49029
115.5970 115.5122 97.0 0.01031 79.01734 94.73353
115.6130 115.5282 105.0 0.00952 79.05716 94.96703
115.6300 115.5452 90.0 0.01111 79.09949 95.22069
115.6470 115.5622 94.0 0.01064 79.14182 95.47953
115.6640 115.5792 87.0 0.01150 79.18416 95.74433
115.6800 115.5952 98.0 0.01021 79.22399 95.99873
115.6970 115.6122 107.0 0.00935 79.26629 96.27478
115.7140 115.6292 98.0 0.01021 79.30865 96.55741
115.7300 115.6452 90.0 0.01111 79.34849 96.82902
115.7470 115.6622 88.0 0.01136 79.39079 97.12394
115.7640 115.6792 107.0 0.00935 79.43314 97.42607
115.7810 115.6962 88.0 0.01136 79.47546 97.73505
115.7970 115.7122 105.0 0.00952 79.51526 98.03229
115.8140 115.7292 96.0 0.01042 79.55762 98.35586
115.8310 115.7462 99.0 0.01010 79.59996 98.68707
115.8480 115.7632 109.0 0.00917 79.64228 99.02633
115.8640 115.7792 91.0 0.01099 79.68211 99.35315
115.8810 115.7962 101.0 0.00990 79.72443 99.70887
115.8980 115.8132 89.0 0.01124 79.76678 100.07352
115.9140 115.8292 80.0 0.01250 79.80659 100.42506
115.9310 115.8462 100.0 0.01000 79.84893 100.80799
115.9480 115.8632 113.0 0.00885 79.89121 101.20036
115.9650 115.8802 121.0 0.00826 79.93356 101.60368
115.9810 115.8962 101.0 0.00990 79.97340 101.99296
115.9980 115.9132 89.0 0.01124 80.01569 102.41667
116.0150 115.9302 128.0 0.00782 80.05804 102.85260
116.0310 115.9462 88.0 0.01136 80.09790 103.27364
116.0480 115.9632 93.0 0.01075 80.14018 103.73236
116.0650 115.9802 87.0 0.01150 80.18254 104.20472
116.0820 115.9972 107.0 0.00935 80.22486 104.69017
116.0980 116.0132 108.0 0.00926 80.26467 105.15929
116.1150 116.0302 97.0 0.01031 80.30701 105.67250
116.1320 116.0472 97.0 0.01031 80.34936 106.20047
116.1480 116.0632 91.0 0.01099 80.38915 106.71118
116.1650 116.0802 107.0 0.00935 80.43151 107.27042
116.1820 116.0972 93.0 0.01075 80.47381 107.84602
116.1990 116.1142 114.0 0.00877 80.51617 108.43996
116.2150 116.1302 103.0 0.00971 80.55598 109.01529
116.2320 116.1472 111.0 0.00900 80.59830 109.64516
116.2490 116.1642 113.0 0.00885 80.64065 110.29581
116.2650 116.1802 101.0 0.00990 80.68047 110.92685
116.2820 116.1972 93.0 0.01075 80.72278 111.61840
116.2990 116.2142 103.0 0.00971 80.76514 112.33376
116.3160 116.2312 115.0 0.00870 80.80748 113.07277
116.3320 116.2472 125.0 0.00800 80.84727 113.79060
116.3490 116.2642 102.0 0.00980 80.88963 114.58013
116.3660 116.2812 122.0 0.00819 80.93195 115.39695
116.3830 116.2982 119.0 0.00840 80.97430 116.24295
116.3990 116.3142 116.0 0.00862 81.01411 117.06689
116.4160 116.3312 116.0 0.00862 81.05645 117.97407
116.4330 116.3482 106.0 0.00943 81.09877 118.91540
116.4490 116.3642 123.0 0.00813 81.13860 119.83404
116.4660 116.3812 108.0 0.00926 81.18092 120.84756
116.4830 116.3982 118.0 0.00848 81.22321 121.90056
116.5000 116.4152 121.0 0.00826 81.26556 122.99878
116.5160 116.4312 124.0 0.00806 81.30541 124.07446
116.5330 116.4482 128.0 0.00782 81.34770 125.26398
116.5500 116.4652 123.0 0.00813 81.39006 126.50908
116.5660 116.4812 107.0 0.00935 81.42991 127.73332
116.5830 116.4982 129.0 0.00775 81.47218 129.09303
116.6000 116.5152 149.0 0.00671 81.51453 130.52333
116.6170 116.5322 136.0 0.00736 81.55687 132.02757
116.6330 116.5482 128.0 0.00782 81.59666 133.51682
116.6500 116.5652 135.0 0.00741 81.63902 135.18941
116.6670 116.5822 144.0 0.00694 81.68135 136.96121
116.6830 116.5982 130.0 0.00769 81.72116 138.72861
116.7000 116.6152 142.0 0.00704 81.76350 140.72975
116.7170 116.6322 154.0 0.00649 81.80582 142.86705
116.7340 116.6492 147.0 0.00681 81.84816 145.16232
116.7500 116.6652 166.0 0.00603 81.88799 147.47998
116.7670 116.6822 167.0 0.00599 81.93030 150.13199
116.7840 116.6992 151.0 0.00662 81.97266 153.00764
116.8000 116.7152 176.0 0.00568 82.01249 155.93793
116.8170 116.7322 154.0 0.00649 82.05479 159.32074
116.8340 116.7492 175.0 0.00571 82.09715 163.02040
116.8510 116.7662 172.0 0.00582 82.13947 167.06952
116.8670 116.7822 195.0 0.00513 82.17927 171.23557
116.8840 116.7992 171.0 0.00585 82.22163 176.29312
116.9010 116.8162 196.0 0.00510 82.26396 181.63951
116.9180 116.8332 202.0 0.00495 82.30629 187.52962
116.9340 116.8492 200.0 0.00500 82.34612 193.62024
116.9510 116.8662 242.0 0.00413 82.38844 200.73682
116.9680 116.8832 229.0 0.00437 82.43078 208.58044
116.9840 116.8992 223.0 0.00449 82.47060 216.68546
117.0010 116.9162 228.0 0.00439 82.51293 226.13885
117.0180 116.9332 239.0 0.00418 82.55521 236.51555
117.0350 116.9502 255.0 0.00392 82.59757 247.91998
117.0510 116.9662 264.0 0.00379 82.63741 259.63928
117.0680 116.9832 328.0 0.003049 82.67970 273.19159
117.0850 117.0002 300.0 0.003334 82.72205 287.99072
117.1010 117.0162 330.0 0.003029 82.76190 303.09357
117.1180 117.0332 318.0 0.003146 82.80418 320.42734
117.1350 117.0502 325.0 0.003076 82.84654 339.19885
117.1520 117.0672 355.0 0.002817 82.88886 359.41687
117.1680 117.0832 373.0 0.002682 82.92868 379.79285
117.1850 117.1002 406.0 0.002463 82.97102 402.95789
117.2020 117.1172 437.0 0.002289 83.01336 427.65411
117.2180 117.1332 457.0 0.002188 83.05315 452.28705
117.2350 117.1502 497.0 0.002013 83.09551 479.99106
117.2520 117.1672 492.0 0.002033 83.13782 509.16803
117.2690 117.1842 510.0 0.001961 83.18018 539.83380
117.2850 117.2002 551.0 0.001815 83.22001 569.93054
117.3020 117.2172 593.0 0.001687 83.26231 603.14575
117.3190 117.2342 622.0 0.001608 83.30465 637.55817
117.3350 117.2502 656.0 0.001525 83.34448 670.83301
117.3520 117.2672 722.0 0.001385 83.38679 706.97516
117.3690 117.2842 727.0 0.001376 83.42915 743.76471
117.3860 117.3012 689.0 0.001451 83.47148 780.89209
117.4020 117.3172 784.0 0.001276 83.51128 815.88715
117.4190 117.3342 800.0 0.001250 83.55363 852.94507
117.4360 117.3512 814.0 0.001229 83.59595 889.50879
117.4530 117.3682 878.0 0.001139 83.63830 925.31537
117.4690 117.3842 910.0 0.001099 83.67811 958.07684
117.4860 117.4012 945.0 0.001058 83.72045 992.02167
117.5030 117.4182 921.0 0.001086 83.76277 1024.22314
117.5190 117.4342 1023.0 0.000978 83.80260 1053.10266
117.5360 117.4512 1039.0 0.000963 83.84492 1082.20947
117.5530 117.4682 1125.0 0.000889 83.88721 1109.60364
117.5700 117.4852 1056.0 0.000947 83.92957 1135.34375
117.5860 117.5012 1119.0 0.000894 83.96942 1158.00110
117.6030 117.5182 1129.0 0.000886 84.01170 1180.37317
117.6200 117.5352 1128.0 0.000886 84.05406 1201.02698
117.6360 117.5512 1183.0 0.000846 84.09392 1218.78870
117.6530 117.5682 1207.0 0.000829 84.13618 1235.75159
117.6700 117.5852 1272.0 0.000786 84.17854 1250.63831
117.6870 117.6022 1290.0 0.000775 84.22088 1263.20020
117.7030 117.6182 1323.0 0.000756 84.26067 1272.67749
117.7200 117.6352 1281.0 0.000781 84.30303 1280.02026
117.7370 117.6522 1282.0 0.000780 84.34535 1284.26221
117.7530 117.6682 1338.0 0.000747 84.38517 1285.19202
117.7700 117.6852 1331.0 0.000751 84.42751 1282.70703
117.7870 117.7022 1257.0 0.000796 84.46983 1276.47546
117.8040 117.7192 1268.0 0.000789 84.51217 1266.37366
117.8200 117.7352 1272.0 0.000786 84.55200 1253.32007
117.8370 117.7522 1200.0 0.000833 84.59430 1235.72778
117.8540 117.7692 1278.0 0.000782 84.63666 1214.39978
117.8700 117.7852 1261.0 0.000793 84.67649 1191.14063
117.8870 117.8022 1225.0 0.000816 84.71880 1163.29272
117.9040 117.8192 1063.0 0.000941 84.76115 1132.49768
117.9210 117.8362 1100.0 0.000909 84.80347 1099.18091
117.9370 117.8522 1074.0 0.000931 84.84327 1065.90015
117.9540 117.8692 996.0 0.001004 84.88563 1028.79785
117.9710 117.8862 1018.0 0.000982 84.92797 990.39001
117.9880 117.9032 926.0 0.001080 84.97029 951.06250
118.0040 117.9192 902.0 0.001109 85.01012 913.56781
118.0210 117.9362 840.0 0.001191 85.05244 873.53149
118.0380 117.9532 822.0 0.001217 85.09479 833.62561
118.0540 117.9692 765.0 0.001307 85.13460 796.45996
118.0710 117.9862 710.0 0.001408 85.17694 757.60291
118.0880 118.0032 716.0 0.001396 85.21922 719.66809
118.1050 118.0202 621.0 0.001610 85.26158 682.73126
118.1210 118.0362 635.0 0.001575 85.30141 649.08484
118.1380 118.0532 561.0 0.001782 85.34370 614.67322
118.1550 118.0702 579.0 0.001727 85.38605 581.62280
118.1710 118.0862 543.0 0.001842 85.42590 551.17346
118.1880 118.1032 514.0 0.001946 85.46819 521.11041
118.2050 118.1202 489.0 0.002046 85.51055 492.55499
118.2220 118.1372 489.0 0.002046 85.55287 465.58505
118.2380 118.1532 451.0 0.002217 85.59268 441.65195
118.2550 118.1702 421.0 0.002375 85.63503 417.68369
118.2720 118.1872 408.0 0.002451 85.67736 395.24500
118.2880 118.2032 378.0 0.002646 85.71716 375.49390
118.3050 118.2202 367.0 0.002724 85.75952 355.86526
118.3220 118.2372 370.0 0.002701 85.80182 337.63641
118.3390 118.2542 328.0 0.003049 85.84418 320.70691
118.3550 118.2702 326.0 0.003066 85.88401 305.93704
118.3720 118.2872 298.0 0.003357 85.92632 291.40515
118.3890 118.3042 302.0 0.003311 85.96867 277.98544
118.4050 118.3202 283.0 0.00353 86.00848 266.33658
118.4220 118.3372 286.0 0.003497 86.05079 254.92732
118.4390 118.3542 265.0 0.00377 86.09315 244.43469
118.4560 118.3712 237.0 0.00422 86.13549 234.81177
118.4720 118.3872 260.0 0.00385 86.17529 226.49390
118.4890 118.4042 228.0 0.00439 86.21764 218.36104
118.5060 118.4212 226.0 0.00443 86.25996 210.91504
118.5230 118.4382 241.0 0.00415 86.30230 204.09460
118.5390 118.4542 216.0 0.00463 86.34212 198.20108
118.5560 118.4712 198.0 0.00505 86.38445 192.44566
118.5730 118.4882 206.0 0.00486 86.42678 187.16846
118.5890 118.5042 217.0 0.00461 86.46661 182.60097
118.6060 118.5212 183.0 0.00546 86.50893 178.13019
118.6230 118.5382 190.0 0.00527 86.55122 174.02315
118.6400 118.5552 174.0 0.00575 86.59357 170.23399
118.6560 118.5712 153.0 0.00654 86.63342 166.93776
118.6730 118.5882 158.0 0.00633 86.67570 163.69832
118.6900 118.6052 169.0 0.00592 86.71806 160.69412
118.7060 118.6212 146.0 0.00685 86.75792 158.06696
118.7230 118.6382 154.0 0.00649 86.80020 155.46992
118.7400 118.6552 162.0 0.00617 86.84254 153.04671
118.7570 118.6722 155.0 0.00645 86.88488 150.78603
118.7730 118.6882 156.0 0.00641 86.92467 148.79361
118.7900 118.7052 139.0 0.00719 86.96703 146.80215
118.8070 118.7222 145.0 0.00690 87.00935 144.93250
118.8230 118.7382 127.0 0.00787 87.04917 143.27475
118.8400 118.7552 160.0 0.00625 87.09151 141.60805
118.8570 118.7722 139.0 0.00719 87.13383 140.03502
118.8740 118.7892 133.0 0.00752 87.17617 138.54431
118.8900 118.8052 135.0 0.00741 87.21600 137.21320
118.9070 118.8222 118.0 0.00848 87.25831 135.86832
118.9240 118.8392 140.0 0.00715 87.30067 134.58789
118.9400 118.8552 129.0 0.00775 87.34050 133.43977
118.9570 118.8722 141.0 0.00710 87.38280 132.27525
118.9740 118.8892 130.0 0.00769 87.42516 131.16235
118.9910 118.9062 118.0 0.00848 87.46748 130.09959
119.0070 118.9222 113.0 0.00885 87.50728 129.14262
119.0240 118.9392 104.0 0.00961 87.54964 128.16644
119.0410 118.9562 136.0 0.00736 87.59197 127.23182
119.0580 118.9732 119.0 0.00840 87.63429 126.33574
119.0740 118.9892 125.0 0.00800 87.67413 125.52599
119.0910 119.0062 139.0 0.00719 87.71645 124.69872
119.1080 119.0232 101.0 0.00990 87.75879 123.90422
119.1240 119.0392 97.0 0.01031 87.79861 123.18507
119.1410 119.0562 114.0 0.00877 87.84094 122.44936
119.1580 119.0732 106.0 0.00943 87.88322 121.74252
119.1750 119.0902 130.0 0.00769 87.92558 121.06131
119.1910 119.1062 137.0 0.00731 87.96544 120.44369
119.2080 119.1232 125.0 0.00800 88.00770 119.81203
119.2250 119.1402 122.0 0.00819 88.05006 119.20260
119.2410 119.1562 99.0 0.01010 88.08991 118.64962
119.2580 119.1732 118.0 0.00848 88.13219 118.08359
119.2750 119.1902 100.0 0.01000 88.17455 117.53706
119.2920 119.2072 98.0 0.01021 88.21687 117.01043
119.3080 119.2232 114.0 0.00877 88.25669 116.53242
119.3250 119.2402 106.0 0.00943 88.29903 116.04127
119.3420 119.2572 108.0 0.00926 88.34137 115.56776
119.3580 119.2732 127.0 0.00787 88.38116 115.13769
119.3750 119.2902 126.0 0.00794 88.42352 114.69561
119.3920 119.3072 101.0 0.00990 88.46583 114.26942
119.4090 119.3242 92.0 0.01087 88.50819 113.85757
119.4250 119.3402 97.0 0.01031 88.54802 113.48332
119.4420 119.3572 98.0 0.01021 88.59032 113.09904
119.4590 119.3742 115.0 0.00870 88.63268 112.72758
119.4750 119.3902 112.0 0.00893 88.67249 112.38993
119.4920 119.4072 104.0 0.00961 88.71479 112.04321
119.5090 119.4242 99.0 0.01010 88.75715 111.70794
119.5260 119.4412 94.0 0.01064 88.79949 111.38432
119.5420 119.4572 91.0 0.01099 88.83929 111.09010
119.5590 119.4742 107.0 0.00935 88.88165 110.78738
119.5760 119.4912 117.0 0.00854 88.92397 110.49513
119.5930 119.5082 103.0 0.00971 88.96631 110.21289
119.6090 119.5242 106.0 0.00943 89.00612 109.95610
119.6260 119.5412 120.0 0.00834 89.04846 109.69225
119.6430 119.5582 101.0 0.00990 89.09078 109.43742
119.6590 119.5742 102.0 0.00980 89.13062 109.20565
119.6760 119.5912 110.0 0.00909 89.17294 108.96754
119.6930 119.6082 102.0 0.00980 89.21522 108.73787
119.7100 119.6252 112.0 0.00893 89.25758 108.51579
119.7260 119.6412 122.0 0.00819 89.29743 108.31390
119.7430 119.6582 81.0 0.01235 89.33971 108.10692
119.7600 119.6752 87.0 0.01150 89.38207 107.90689
119.7760 119.6912 106.0 0.00943 89.42192 107.72511
119.7930 119.7082 108.0 0.00926 89.46421 107.53893
119.8100 119.7252 113.0 0.00885 89.50655 107.35909
119.8270 119.7422 90.0 0.01111 89.54889 107.18583
119.8430 119.7582 98.0 0.01021 89.58868 107.02869
119.8600 119.7752 97.0 0.01031 89.63104 106.86744
119.8770 119.7922 111.0 0.00900 89.67336 106.71227
119.8930 119.8082 104.0 0.00961 89.71317 106.57171
119.9100 119.8252 91.0 0.01099 89.75553 106.42764
119.9270 119.8422 93.0 0.01075 89.79784 106.28927
119.9440 119.8592 91.0 0.01099 89.84018 106.15617
119.9600 119.8752 101.0 0.00990 89.88001 106.03587
119.9770 119.8922 94.0 0.01064 89.92231 105.91306
119.9940 119.9092 112.0 0.00893 89.96467 105.79518
120.0100 119.9252 105.0 0.00952 90.00450 105.68885
120.0270 119.9422 95.0 0.01053 90.04681 105.58058
120.0440 119.9592 100.0 0.01000 90.08916 105.47697
120.0610 119.9762 97.0 0.01031 90.13148 105.37802
120.0770 119.9922 99.0 0.01010 90.17130 105.28915
120.0940 120.0092 110.0 0.00909 90.21364 105.19892
120.1110 120.0262 104.0 0.00961 90.25598 105.11317
120.1280 120.0432 89.0 0.01124 90.29830 105.03172
120.1440 120.0592 101.0 0.00990 90.33813 104.95896
120.1610 120.0762 113.0 0.00885 90.38046 104.88570
120.1780 120.0932 96.0 0.01042 90.42279 104.81660
120.1940 120.1092 99.0 0.01010 90.46261 104.75526
120.2110 120.1262 94.0 0.01064 90.50495 104.69401
120.2280 120.1432 94.0 0.01064 90.54723 104.63683
120.2450 120.1602 83.0 0.01205 90.58959 104.58346
120.2610 120.1762 105.0 0.00952 90.62944 104.53689
120.2780 120.1932 102.0 0.00980 90.67171 104.49120
120.2950 120.2102 96.0 0.01042 90.71407 104.44935
120.3110 120.2262 107.0 0.00935 90.75391 104.41354
120.3280 120.2432 100.0 0.01000 90.79620 104.37930
120.3450 120.2602 70.0 0.01428 90.83856 104.34888
120.3620 120.2772 79.0 0.01266 90.88088 104.32241
120.3780 120.2932 116.0 0.00862 90.92069 104.30116
120.3950 120.3102 107.0 0.00935 90.96304 104.28240
120.4120 120.3272 105.0 0.00952 91.00537 104.26769
120.4280 120.3432 85.0 0.01176 91.04517 104.25768
120.4450 120.3602 98.0 0.01021 91.08752 104.25111
120.4620 120.3772 100.0 0.01000 91.12983 104.24883
120.4790 120.3942 113.0 0.00885 91.17219 104.25105
120.4950 120.4102 98.0 0.01021 91.21202 104.25733
120.5120 120.4272 108.0 0.00926 91.25433 104.26859
120.5290 120.4442 88.0 0.01136 91.29668 104.28483
120.5450 120.4602 100.0 0.01000 91.33649 104.30496
120.5620 120.4772 105.0 0.00952 91.37880 104.33140
120.5790 120.4942 97.0 0.01031 91.42116 104.36346
120.5960 120.5112 102.0 0.00980 91.46350 104.40144
120.6120 120.5272 117.0 0.00854 91.50330 104.44279
120.6290 120.5442 98.0 0.01021 91.54565 104.49315
120.6460 120.5612 118.0 0.00848 91.58797 104.55028
120.6630 120.5782 100.0 0.01000 91.63031 104.61468
120.6790 120.5942 110.0 0.00909 91.67013 104.68217
120.6960 120.6112 96.0 0.01042 91.71246 104.76166
120.7130 120.6282 83.0 0.01205 91.75478 104.84949
120.7290 120.6442 85.0 0.01176 91.79462 104.94015
120.7460 120.6612 100.0 0.01000 91.83694 105.04541
120.7630 120.6782 103.0 0.00971 91.87923 105.16007
120.7800 120.6952 106.0 0.00943 91.92159 105.28493
120.7960 120.7112 96.0 0.01042 91.96143 105.41190
120.8130 120.7282 115.0 0.00870 92.00372 105.55695
120.8300 120.7452 100.0 0.01000 92.04607 105.71330
120.8460 120.7612 106.0 0.00943 92.08593 105.87078
120.8630 120.7782 97.0 0.01031 92.12821 106.04906
120.8800 120.7952 111.0 0.00900 92.17056 106.23944
120.8970 120.8122 102.0 0.00980 92.21289 106.44164
120.9130 120.8282 101.0 0.00990 92.25269 106.64268
120.9300 120.8452 93.0 0.01075 92.29504 106.86830
120.9470 120.8622 109.0 0.00917 92.33736 107.10571
120.9630 120.8782 126.0 0.00794 92.37718 107.33962
120.9800 120.8952 107.0 0.00935 92.41954 107.59965
120.9970 120.9122 100.0 0.01000 92.46185 107.87050
121.0140 120.9292 111.0 0.00900 92.50420 108.15213
121.0300 120.9452 99.0 0.01010 92.54401 108.42604
121.0470 120.9622 84.0 0.01191 92.58632 108.72585
121.0640 120.9792 96.0 0.01042 92.62868 109.03424
121.0800 120.9952 108.0 0.00926 92.66851 109.33085
121.0970 121.0122 101.0 0.00990 92.71081 109.65185
121.1140 121.0292 97.0 0.01031 92.75317 109.97812
121.1310 121.0462 94.0 0.01064 92.79549 110.30780
121.1470 121.0622 102.0 0.00980 92.83530 110.61990
121.1640 121.0792 104.0 0.00961 92.87765 110.95304
121.1810 121.0962 118.0 0.00848 92.91998 111.28579
121.1980 121.1132 117.0 0.00854 92.96230 111.61715
121.2140 121.1292 110.0 0.00909 93.00214 111.92674
121.2310 121.1462 111.0 0.00900 93.04446 112.25248
121.2480 121.1632 106.0 0.00943 93.08680 112.57400
121.2640 121.1792 107.0 0.00935 93.12663 112.87195
121.2810 121.1962 116.0 0.00862 93.16895 113.18307
121.2980 121.2132 113.0 0.00885 93.21124 113.48751
121.3150 121.2302 123.0 0.00813 93.25359 113.78544
121.3310 121.2462 112.0 0.00893 93.29345 114.05884
121.3480 121.2632 127.0 0.00787 93.33573 114.34105
121.3650 121.2802 101.0 0.00990 93.37807 114.61536
121.3810 121.2962 113.0 0.00885 93.41792 114.86571
121.3980 121.3132 118.0 0.00848 93.46021 115.12328
121.4150 121.3302 112.0 0.00893 93.50256 115.37361
121.4320 121.3472 109.0 0.00917 93.54488 115.61725
121.4480 121.3632 124.0 0.00806 93.58470 115.84187
121.4650 121.3802 117.0 0.00854 93.62704 116.07839
121.4820 121.3972 115.0 0.00870 93.66938 116.31520
121.4980 121.4132 108.0 0.00926 93.70918 116.54147
121.5150 121.4302 125.0 0.00800 93.75153 116.79030
121.5320 121.4472 117.0 0.00854 93.79383 117.04943
121.5490 121.4642 120.0 0.00834 93.83620 117.32991
121.5650 121.4802 114.0 0.00877 93.87603 117.61602
121.5820 121.4972 114.0 0.00877 93.91833 117.94976
121.5990 121.5142 119.0 0.00840 93.96069 118.32159
121.6150 121.5302 123.0 0.00813 94.00050 118.71207
121.6320 121.5472 118.0 0.00848 94.04280 119.17767
121.6490 121.5642 139.0 0.00719 94.08516 119.70422
121.6660 121.5812 116.0 0.00862 94.12750 120.29940
121.6820 121.5972 123.0 0.00813 94.16730 120.92990
121.6990 121.6142 135.0 0.00741 94.20966 121.68533
121.7160 121.6312 127.0 0.00787 94.25198 122.53694
121.7330 121.6482 131.0 0.00763 94.29432 123.49550
121.7490 121.6642 123.0 0.00813 94.33413 124.50449
121.7660 121.6812 106.0 0.00943 94.37647 125.70996
121.7830 121.6982 137.0 0.00731 94.41879 127.04650
121.7990 121.7142 129.0 0.00775 94.45863 128.44196
121.8160 121.7312 150.0 0.00666 94.50096 130.08319
121.8330 121.7482 136.0 0.00736 94.54323 131.89693
121.8500 121.7652 156.0 0.00641 94.58559 133.90077
121.8660 121.7812 137.0 0.00731 94.62544 135.96783
121.8830 121.7982 147.0 0.00681 94.66772 138.36491
121.9000 121.8152 136.0 0.00736 94.71008 140.98775
121.9160 121.8312 143.0 0.00699 94.74993 143.66800
121.9330 121.8482 158.0 0.00633 94.79221 146.74664
121.9500 121.8652 142.0 0.00704 94.83456 150.08228
121.9670 121.8822 190.0 0.00527 94.87690 153.67586
121.9830 121.8982 188.0 0.00532 94.91669 157.29799
122.0000 121.9152 170.0 0.00588 94.95905 161.41652
122.0170 121.9322 190.0 0.00527 95.00137 165.80818
122.0330 121.9482 154.0 0.00649 95.04118 170.19034
122.0500 121.9652 194.0 0.00515 95.08354 175.12204
122.0670 121.9822 173.0 0.00578 95.12585 180.32141
122.0840 121.9992 200.0 0.00500 95.16821 185.79442
122.1000 122.0152 182.0 0.00550 95.20802 191.17682
122.1170 122.0322 235.0 0.00426 95.25032 197.13324
122.1340 122.0492 213.0 0.00470 95.29268 203.32697
122.1500 122.0652 204.0 0.00490 95.33251 209.34309
122.1670 122.0822 232.0 0.00431 95.37482 215.91458
122.1840 122.0992 272.0 0.00368 95.41718 222.65176
122.2010 122.1162 242.0 0.00413 95.45950 229.50990
122.2170 122.1322 265.0 0.00377 95.49931 236.03882
122.2340 122.1492 292.0 0.003424 95.54165 243.03317
122.2510 122.1662 257.0 0.00389 95.58399 250.02881
122.2680 122.1832 278.0 0.00360 95.62631 256.98471
122.2840 122.1992 269.0 0.00372 95.66615 263.45224
122.3010 122.2162 273.0 0.00366 95.70847 270.20334
122.3180 122.2332 286.0 0.003497 95.75080 276.78787
122.3340 122.2492 306.0 0.003269 95.79063 282.79871
122.3510 122.2662 318.0 0.003146 95.83295 288.96262
122.3680 122.2832 336.0 0.002976 95.87524 294.86401
122.3850 122.3002 309.0 0.003236 95.91760 300.50049
122.4010 122.3162 353.0 0.002832 95.95745 305.53882
122.4180 122.3332 388.0 0.002577 95.99973 310.59216
122.4350 122.3502 332.0 0.003012 96.04208 315.34103
122.4510 122.3662 345.0 0.002900 96.08192 319.51114
122.4680 122.3832 358.0 0.002794 96.12421 323.60425
122.4850 122.4002 370.0 0.002701 96.16657 327.34140
122.5020 122.4172 360.0 0.002779 96.20889 330.68604
122.5180 122.4332 368.0 0.002718 96.24870 333.44516
122.5350 122.4502 366.0 0.002733 96.29106 335.93356
122.5520 122.4672 380.0 0.002633 96.33338 337.91681
122.5680 122.4832 390.0 0.002564 96.37318 339.28122
122.5850 122.5002 392.0 0.002551 96.41553 340.15714
122.6020 122.5172 423.0 0.002363 96.45784 340.39694
122.6190 122.5342 399.0 0.002508 96.50020 339.96396
122.6350 122.5502 395.0 0.002533 96.54003 338.91699
122.6520 122.5672 385.0 0.002598 96.58234 337.08151
122.6690 122.5842 395.0 0.002533 96.62469 334.54880
122.6850 122.6002 342.0 0.002925 96.66451 331.51569
122.7020 122.6172 363.0 0.002756 96.70683 327.62378
122.7190 122.6342 363.0 0.002756 96.74917 323.07190
122.7360 122.6512 355.0 0.002817 96.79150 317.91528
122.7520 122.6672 348.0 0.002875 96.83130 312.56503
122.7690 122.6842 368.0 0.002718 96.87366 306.40015
122.7860 122.7012 335.0 0.002986 96.91599 299.82239
122.8030 122.7182 328.0 0.003049 96.95832 292.90167
122.8190 122.7342 300.0 0.003334 96.99814 286.14294
122.8360 122.7512 291.0 0.003436 97.04047 278.76450
122.8530 122.7682 338.0 0.002960 97.08279 271.25241
122.8690 122.7842 259.0 0.00386 97.12263 264.12012
122.8860 122.8012 254.0 0.00394 97.16497 256.52637
122.9030 122.8182 289.0 0.003460 97.20724 248.97983
122.9200 122.8352 265.0 0.00377 97.24960 241.50597
122.9360 122.8512 245.0 0.00408 97.28944 234.58923
122.9530 122.8682 246.0 0.00407 97.33173 227.40648
122.9700 122.8852 235.0 0.00426 97.37408 220.40196
122.9860 122.9012 226.0 0.00443 97.41394 214.00858
123.0030 122.9182 228.0 0.00439 97.44176 207.43910
123.0200 122.9352 187.0 0.00535 97.45966 201.10040
123.0370 122.9522 231.0 0.00433 97.47754 195.03014
123.0530 122.9682 187.0 0.00535 97.49435 189.57227
123.0700 122.9852 218.0 0.00459 97.51224 184.03600
123.0870 123.0022 190.0 0.00527 97.53012 178.78607
123.1030 123.0182 211.0 0.00474 97.54693 174.10869
123.1200 123.0352 201.0 0.00497 97.56483 169.40558
123.1370 123.0522 192.0 0.00521 97.58270 164.98683
123.1540 123.0692 185.0 0.00541 97.60059 160.83711
123.1700 123.0852 166.0 0.00603 97.61740 157.17935
123.1870 123.1022 180.0 0.00555 97.63527 153.54539
123.2040 123.1192 141.0 0.00710 97.65316 150.15805
123.2200 123.1352 170.0 0.00588 97.66999 147.19289
123.2370 123.1522 169.0 0.00592 97.68786 144.26633
123.2540 123.1692 156.0 0.00641 97.70575 141.55583
123.2710 123.1862 158.0 0.00633 97.72363 139.05467
123.2870 123.2022 155.0 0.00645 97.74044 136.88179
123.3040 123.2192 152.0 0.00658 97.75832 134.74854
123.3210 123.2362 135.0 0.00741 97.77621 132.78940
123.3380 123.2532 142.0 0.00704 97.79409 130.99127
123.3540 123.2692 155.0 0.00645 97.81091 129.43631
123.3710 123.2862 134.0 0.00746 97.82879 127.91836
123.3880 123.3032 130.0 0.00769 97.84667 126.52879
123.4040 123.3192 114.0 0.00877 97.86349 125.32944
123.4210 123.3362 127.0 0.00787 97.88138 124.16016
123.4380 123.3532 132.0 0.00757 97.89924 123.09173
123.4550 123.3702 133.0 0.00752 97.91713 122.11240
123.4710 123.3862 153.0 0.00654 97.93396 121.26687
123.4880 123.4032 102.0 0.00980 97.95182 120.44295
123.5050 123.4202 132.0 0.00757 97.96970 119.68633
123.5210 123.4362 131.0 0.00763 97.98654 119.03146
123.5380 123.4532 131.0 0.00763 98.00440 118.39138
123.5550 123.4702 133.0 0.00752 98.02229 117.80146
123.5720 123.4872 121.0 0.00826 98.04017 117.25812
123.5880 123.5032 116.0 0.00862 98.05698 116.78545
123.6050 123.5202 103.0 0.00971 98.07487 116.31924
123.6220 123.5372 128.0 0.00782 98.09275 115.88765
123.6380 123.5532 119.0 0.00840 98.10957 115.51018
123.6550 123.5702 116.0 0.00862 98.12746 115.13588
123.6720 123.5872 113.0 0.00885 98.14532 114.78758
123.6890 123.6042 115.0 0.00870 98.16322 114.46217
123.7050 123.6202 104.0 0.00961 98.18004 114.17549
123.7220 123.6372 113.0 0.00885 98.19791 113.88972
123.7390 123.6542 107.0 0.00935 98.21581 113.62137
123.7550 123.6702 118.0 0.00848 98.23262 113.38385
123.7720 123.6872 89.0 0.01124 98.25050 113.14606
123.7890 123.7042 136.0 0.00736 98.26838 112.92186
123.8060 123.7212 103.0 0.00971 98.28626 112.71054
123.8220 123.7372 115.0 0.00870 98.30307 112.52269
123.8390 123.7542 103.0 0.00971 98.32097 112.33349
123.8560 123.7712 94.0 0.01064 98.33884 112.15475
123.8730 123.7882 113.0 0.00885 98.35673 112.00584
123.8890 123.8042 126.0 0.00794 98.37355 111.85508
123.9060 123.8212 90.0 0.01111 98.39143 111.70316
123.9230 123.8382 97.0 0.01031 98.40930 111.55936
123.9390 123.8542 121.0 0.00826 98.42613 111.43104
123.9560 123.8712 119.0 0.00840 98.44402 111.30171
123.9730 123.8882 112.0 0.00893 98.46188 111.17945
123.9900 123.9052 105.0 0.00952 98.47976 111.06357
124.0060 123.9212 111.0 0.00900 98.49659 110.96030
124.0230 123.9382 137.0 0.00731 98.51445 110.85656
124.0400 123.9552 129.0 0.00775 98.53234 110.75843
124.0560 123.9712 116.0 0.00862 98.54918 110.67117
124.0730 123.9882 124.0 0.00806 98.56704 110.58374
124.0900 124.0052 127.0 0.00787 98.58492 110.50127
124.1070 124.0222 103.0 0.00971 98.60281 110.42381
124.1230 124.0382 113.0 0.00885 98.61961 110.35531
124.1400 124.0552 94.0 0.01064 98.63750 110.28689
124.1570 124.0722 108.0 0.00926 98.65540 110.22295
124.1730 124.0882 110.0 0.00909 98.67220 110.16674
124.1900 124.1052 102.0 0.00980 98.69009 110.11098
124.2070 124.1222 112.0 0.00893 98.70796 110.05928
124.2240 124.1392 105.0 0.00952 98.72585 110.01146
124.2400 124.1552 106.0 0.00943 98.74267 109.96998
124.2570 124.1722 89.0 0.01124 98.76054 109.92947
124.2740 124.1892 107.0 0.00935 98.77843 109.89256
124.2900 124.2052 125.0 0.00800 98.79526 109.86102
124.3070 124.2222 101.0 0.00990 98.81313 109.83082
124.3240 124.2392 105.0 0.00952 98.83102 109.80392
124.3410 124.2562 113.0 0.00885 98.84889 109.78027
124.3570 124.2722 96.0 0.01042 98.86572 109.76096
124.3740 124.2892 112.0 0.00893 98.88360 109.74339
124.3910 124.3062 113.0 0.00885 98.90148 109.72888
124.4080 124.3232 119.0 0.00840 98.91936 109.71734
124.4240 124.3392 119.0 0.00840 98.93618 109.70914
124.4410 124.3562 101.0 0.00990 98.95406 109.70324
124.4580 124.3732 99.0 0.01010 98.97194 109.70009
124.4740 124.3892 126.0 0.00794 98.98877 109.69968
124.4910 124.4062 110.0 0.00909 99.00665 110.09050
124.5080 124.4232 113.0 0.00885 99.02451 110.09627
124.5250 124.4402 105.0 0.00952 99.04240 110.10464
124.5410 124.4562 130.0 0.00769 99.05923 110.11491
124.5580 124.4732 118.0 0.00848 99.07709 110.12833
124.5750 124.4902 124.0 0.00806 99.09497 110.14428
124.5910 124.5062 99.0 0.01010 99.11181 110.16159
124.6080 124.5232 120.0 0.00834 99.12967 110.18236
124.6250 124.5402 111.0 0.00900 99.14756 110.20565
124.6420 124.5572 106.0 0.00943 99.16544 110.23135
124.6580 124.5732 93.0 0.01075 99.18225 110.25773
124.6750 124.5902 95.0 0.01053 99.20015 110.28815
124.6920 124.6072 122.0 0.00819 99.21803 110.32093
124.7080 124.6232 115.0 0.00870 99.23483 110.35391
124.7250 124.6402 121.0 0.00826 99.25272 110.39134
124.7420 124.6572 117.0 0.00854 99.27059 110.43110
124.7590 124.6742 116.0 0.00862 99.28848 110.47324
124.7750 124.6902 99.0 0.01010 99.30531 110.51501
124.7920 124.7072 103.0 0.00971 99.32318 110.56169
124.8090 124.7242 121.0 0.00826 99.34107 110.61077
124.8250 124.7402 98.0 0.01021 99.35789 110.65907
124.8420 124.7572 109.0 0.00917 99.37576 110.71266
124.8590 124.7742 102.0 0.00980 99.39365 110.76867
124.8760 124.7912 130.0 0.00769 99.41153 110.82702
124.8920 124.8072 103.0 0.00971 99.42834 110.88407
124.9090 124.8242 113.0 0.00885 99.44624 110.94711
124.9260 124.8412 101.0 0.00990 99.46411 111.01830
124.9430 124.8582 97.0 0.01031 99.48199 111.08614
124.9590 124.8742 113.0 0.00885 99.49882 111.15219
124.9760 124.8912 106.0 0.00943 99.51669 111.22479
124.9930 124.9082 117.0 0.00854 99.53458 111.29985
125.0090 124.9242 87.0 0.01150 99.55140 111.37278
125.0260 124.9412 117.0 0.00854 99.56928 111.45271
125.0430 124.9582 94.0 0.01064 99.58714 111.53514
125.0600 124.9752 117.0 0.00854 99.60503 111.62028
125.0760 124.9912 119.0 0.00840 99.62186 111.70275
125.0930 125.0082 108.0 0.00926 99.63972 111.79284
125.1100 125.0252 106.0 0.00943 99.65762 111.88577
125.1260 125.0412 108.0 0.00926 99.67445 111.97569
125.1430 125.0582 103.0 0.00971 99.69231 112.07375
125.1600 125.0752 102.0 0.00980 99.71020 112.17479
125.1770 125.0922 105.0 0.00952 99.72807 112.27860
125.1930 125.1082 116.0 0.00862 99.74488 112.37885
125.2100 125.1252 107.0 0.00935 99.76278 112.48838
125.2270 125.1422 121.0 0.00826 99.78066 112.60084
125.2430 125.1582 98.0 0.01021 99.79747 112.70935
125.2600 125.1752 126.0 0.00794 99.81536 112.82782
125.2770 125.1922 118.0 0.00848 99.83323 112.94930
125.2940 125.2092 125.0 0.00800 99.85112 113.07413
125.3100 125.2252 105.0 0.00952 99.86794 113.19453
125.3270 125.2422 125.0 0.00800 99.88582 113.32565
125.3440 125.2592 123.0 0.00813 99.90370 113.46031
125.3600 125.2752 101.0 0.00990 99.92052 113.59015
125.3770 125.2922 93.0 0.01075 99.93839 113.73150
125.3940 125.3092 107.0 0.00935 99.95628 113.87668
125.4110 125.3262 111.0 0.00900 99.97417 114.02547
125.4270 125.3422 127.0 0.00787 99.99098 114.16886
125.4440 125.3592 115.0 0.00870 100.00887 114.32521
125.4610 125.3762 105.0 0.00952 100.02675 114.48547
125.4780 125.3932 125.0 0.00800 100.04462 114.64985
125.4940 125.4092 121.0 0.00826 100.06145 114.80830
125.5110 125.4262 117.0 0.00854 100.07934 114.98089
125.5280 125.4432 158.0 0.00633 100.09721 115.15788
125.5440 125.4592 131.0 0.00763 100.11404 115.32853
125.5610 125.4762 99.0 0.01010 100.13191 115.51438
125.5780 125.4932 143.0 0.00699 100.14977 115.70480
125.5950 125.5102 114.0 0.00877 100.16766 115.90044
125.6110 125.5262 123.0 0.00813 100.18450 116.08909
125.6280 125.5432 123.0 0.00813 100.20236 116.43063
125.6450 125.5602 114.0 0.00877 100.22025 116.64162
125.6610 125.5762 137.0 0.00731 100.23708 116.84515
125.6780 125.5932 144.0 0.00694 100.25494 117.06654
125.6950 125.6102 135.0 0.00741 100.27283 117.29411
125.7120 125.6272 121.0 0.00826 100.29071 117.52748
125.7280 125.6432 131.0 0.00763 100.30753 117.75252
125.7450 125.6602 126.0 0.00794 100.32542 117.99814
125.7620 125.6772 99.0 0.01010 100.34329 118.25014
125.7780 125.6932 136.0 0.00736 100.36010 118.49322
125.7950 125.7102 115.0 0.00870 100.37799 118.75864
125.8120 125.7272 133.0 0.00752 100.39586 119.03091
125.8290 125.7442 133.0 0.00752 100.41375 119.31089
125.8450 125.7602 144.0 0.00694 100.43058 119.58110
125.8620 125.7772 118.0 0.00848 100.44845 119.87583
125.8790 125.7942 128.0 0.00782 100.46634 120.17902
125.8950 125.8102 134.0 0.00746 100.48315 120.47182
125.9120 125.8272 145.0 0.00690 100.50103 120.79129
125.9290 125.8442 121.0 0.00826 100.51892 121.12012
125.9460 125.8612 87.0 0.01150 100.53680 121.45814
125.9620 125.8772 117.0 0.00854 100.55361 121.78473
125.9790 125.8942 119.0 0.00840 100.57150 122.14202
125.9960 125.9112 127.0 0.00787 100.58938 122.51048
126.0130 125.9282 137.0 0.00731 100.60726 122.88865
126.0290 125.9442 136.0 0.00736 100.62409 123.25468
126.0460 125.9612 102.0 0.00980 100.64197 123.65491
126.0630 125.9782 108.0 0.00926 100.65985 124.06714
126.0790 125.9942 129.0 0.00775 100.67667 124.46635
126.0960 126.0112 114.0 0.00877 100.69455 124.90325
126.1130 126.0282 114.0 0.00877 100.71241 125.35301
126.1300 126.0452 107.0 0.00935 100.73029 125.81760
126.1460 126.0612 135.0 0.00741 100.74713 126.26804
126.1630 126.0782 123.0 0.00813 100.76499 126.76060
126.1800 126.0952 140.0 0.00715 100.78288 127.26985
126.1960 126.1112 108.0 0.00926 100.79971 127.76953
126.2130 126.1282 91.0 0.01099 100.81757 128.31052
126.2300 126.1452 144.0 0.00694 100.83546 128.87038
126.2470 126.1622 134.0 0.00746 100.85334 129.44872
126.2630 126.1782 118.0 0.00848 100.87016 130.01039
126.2800 126.1952 120.0 0.00834 100.88805 130.62814
126.2970 126.2122 123.0 0.00813 100.90593 131.26717
126.3130 126.2282 113.0 0.00885 100.92274 131.88873
126.3300 126.2452 128.0 0.00782 100.94063 132.57343
126.3470 126.2622 124.0 0.00806 100.95850 133.28247
126.3640 126.2792 114.0 0.00877 100.97639 134.01910
126.3800 126.2952 143.0 0.00699 100.99321 134.73761
126.3970 126.3122 140.0 0.00715 101.01109 135.53000
126.4140 126.3292 121.0 0.00826 101.02897 136.35527
126.4300 126.3452 151.0 0.00662 101.04579 137.16280
126.4470 126.3622 125.0 0.00800 101.06366 138.05576
126.4640 126.3792 137.0 0.00731 101.08156 138.98909
126.4810 126.3962 146.0 0.00685 101.09943 139.96437
126.4970 126.4122 146.0 0.00685 101.11625 140.92322
126.5140 126.4292 131.0 0.00763 101.13414 141.99196
126.5310 126.4462 142.0 0.00704 101.15202 143.11427
126.5480 126.4632 151.0 0.00662 101.16989 144.29588
126.5640 126.4792 138.0 0.00724 101.18672 145.46695
126.5810 126.4962 155.0 0.00645 101.20461 146.95851
126.5980 126.5132 147.0 0.00681 101.22248 148.35159
126.6140 126.5292 147.0 0.00681 101.23930 149.74153
126.6310 126.5462 153.0 0.00654 101.25718 151.31213
126.6480 126.5632 150.0 0.00666 101.27504 152.98734
126.6650 126.5802 159.0 0.00629 101.29293 154.78398
126.6810 126.5962 159.0 0.00629 101.30977 156.59486
126.6980 126.6132 166.0 0.00603 101.32763 158.65831
126.7150 126.6302 161.0 0.00621 101.34551 160.88843
126.7310 126.6462 158.0 0.00633 101.36234 163.15273
126.7480 126.6632 185.0 0.00541 101.38020 165.75090
126.7650 126.6802 148.0 0.00675 101.39810 168.57822
126.7820 126.6972 151.0 0.00662 101.41599 171.98698
126.7980 126.7132 175.0 0.00571 101.43279 175.13237
126.8150 126.7302 214.0 0.00467 101.45068 178.77774
126.8320 126.7472 187.0 0.00535 101.46856 182.76074
126.8480 126.7632 175.0 0.00571 101.48537 186.84761
126.8650 126.7802 167.0 0.00599 101.50327 191.59717
126.8820 126.7972 194.0 0.00515 101.52113 196.79401
126.8990 126.8142 211.0 0.00474 101.53902 202.49400
126.9150 126.8302 195.0 0.00513 101.55585 208.34911
126.9320 126.8472 225.0 0.00444 101.57372 215.14131
126.9490 126.8642 234.0 0.00427 101.59161 222.58231
126.9650 126.8802 211.0 0.00474 101.60843 230.21141
126.9820 126.8972 241.0 0.00415 101.62630 239.03893
126.9990 126.9142 216.0 0.00463 101.64419 248.67744
127.0160 126.9312 258.0 0.00388 101.66207 259.17114
127.0320 126.9472 229.0 0.00437 101.67888 269.86630
127.0490 126.9642 281.0 0.00356 101.69677 282.18594
127.0660 126.9812 246.0 0.00407 101.71465 295.51846
127.0830 126.9982 282.0 0.00355 101.73254 309.92294
127.0990 127.0142 293.0 0.003412 101.74936 324.49792
127.1160 127.0312 271.0 0.00369 101.76723 341.11957
127.1330 127.0482 328.0 0.003049 101.78512 358.94562
127.1490 127.0642 351.0 0.002851 101.80193 376.84781
127.1660 127.0812 364.0 0.002747 101.81982 397.10431
127.1830 127.0982 347.0 0.002881 101.83768 418.62091
127.2000 127.1152 391.0 0.002559 101.85557 441.47211
127.2160 127.1312 429.0 0.002332 101.87240 464.15915
127.2330 127.1482 422.0 0.002370 101.89026 489.47928
127.2500 127.1652 481.0 0.002079 101.90815 516.11133
127.2660 127.1812 458.0 0.002184 101.92498 542.29669
127.2830 127.1982 498.0 0.002007 101.94284 571.22925
127.3000 127.2152 544.0 0.001839 101.96074 601.33624
127.3170 127.2322 581.0 0.001722 101.97861 632.47058
127.3330 127.2482 626.0 0.001597 101.99542 662.61078
127.3500 127.2652 641.0 0.001560 102.01331 695.49640
127.3670 127.2822 595.0 0.001681 102.03120 729.06726
127.3830 127.2982 754.0 0.001326 102.04800 761.13696
127.4000 127.3152 769.0 0.001300 102.06590 795.63293
127.4170 127.3322 872.0 0.001147 102.08377 830.27509
127.4340 127.3492 839.0 0.001192 102.10166 864.92206
127.4500 127.3652 872.0 0.001147 102.11848 897.25031
127.4670 127.3822 958.0 0.001044 102.13635 931.07275
127.4840 127.3992 1015.0 0.000985 102.15424 964.11737
127.5000 127.4152 985.0 0.001016 102.17107 994.16919
127.5170 127.4322 1085.0 0.000922 102.18893 1024.70459
127.5340 127.4492 1088.0 0.000919 102.20683 1053.51794
127.5510 127.4662 1112.0 0.000899 102.22470 1080.22412
127.5670 127.4822 1215.0 0.000823 102.24152 1103.13306
127.5840 127.4992 1193.0 0.000838 102.25941 1124.86694
127.6010 127.5162 1238.0 0.000808 102.27729 1143.57727
127.6180 127.5332 1200.0 0.000833 102.29517 1159.01855
127.6340 127.5492 1239.0 0.000807 102.31199 1170.36780
127.6510 127.5662 1328.0 0.000753 102.32987 1178.89221
127.6680 127.5832 1284.0 0.000779 102.34775 1183.66150
127.6840 127.5992 1325.0 0.000755 102.36457 1184.67029
127.7010 127.6162 1179.0 0.000848 102.38245 1182.04871
127.7180 127.6332 1180.0 0.000848 102.40031 1175.68823
127.7350 127.6502 1171.0 0.000854 102.41821 1165.68164
127.7510 127.6662 1147.0 0.000872 102.43504 1153.08704
127.7680 127.6832 1163.0 0.000860 102.45290 1136.54602
127.7850 127.7002 1146.0 0.000873 102.47079 1116.92957
127.8010 127.7162 1077.0 0.000928 102.48762 1095.92603
127.8180 127.7332 1098.0 0.000911 102.50548 1071.21399
127.8350 127.7502 977.0 0.001023 102.52337 1044.24976
127.8520 127.7672 933.0 0.001071 102.54125 1015.39960
127.8680 127.7832 887.0 0.001128 102.55806 986.81812
127.8850 127.8002 888.0 0.001126 102.57595 955.14667
127.9020 127.8172 904.0 0.001106 102.59383 922.49127
127.9180 127.8332 850.0 0.001177 102.61065 891.12830
127.9350 127.8502 829.0 0.001206 102.62853 857.30975
127.9520 127.8672 753.0 0.001328 102.64641 823.44379
127.9690 127.8842 809.0 0.001236 102.66429 789.43427
127.9850 127.9002 709.0 0.001410 102.68111 757.66144
128.0020 127.9172 687.0 0.001456 102.69899 724.30829
128.0190 127.9342 648.0 0.001543 102.71687 691.49219
128.0350 127.9502 594.0 0.001684 102.73370 661.29095
128.0520 127.9672 629.0 0.001590 102.75156 630.02576
128.0690 127.9842 565.0 0.001770 102.76945 599.67279
128.0860 128.0012 523.0 0.001912 102.78733 570.37421
128.1020 128.0172 558.0 0.001792 102.80415 543.83569
128.1190 128.0342 478.0 0.002093 102.82204 516.72363
128.1360 128.0512 468.0 0.002137 102.83992 490.83072
128.1530 128.0682 465.0 0.002151 102.85781 466.16876
128.1690 128.0842 480.0 0.002083 102.87463 444.10388
128.1860 128.1012 417.0 0.002398 102.89250 421.86551
128.2030 128.1182 428.0 0.002336 102.91038 400.87274
128.2190 128.1342 370.0 0.002701 102.92722 382.24628
128.2360 128.1512 359.0 0.002785 102.94509 363.62250
128.2530 128.1682 370.0 0.002701 102.96295 346.19934
128.2700 128.1852 350.0 0.002857 102.98084 329.89307
128.2860 128.2012 341.0 0.002931 102.99767 315.56329
128.3030 128.2182 340.0 0.002941 103.01553 301.39099
128.3200 128.2352 342.0 0.002925 103.03342 288.21344
128.3360 128.2512 284.0 0.00352 103.05025 276.70233
128.3530 128.2682 316.0 0.003163 103.06811 265.38132
128.3700 128.2852 299.0 0.003345 103.08600 254.91154
128.3870 128.3022 268.0 0.00373 103.10389 245.26639
128.4030 128.3182 280.0 0.00357 103.12069 236.89755
128.4200 128.3352 285.0 0.00351 103.13858 228.68860
128.4370 128.3522 255.0 0.00392 103.15646 221.15311
128.4530 128.3682 263.0 0.00380 103.17328 214.63399
128.4700 128.3852 256.0 0.00391 103.19117 208.25484
128.4870 128.4022 284.0 0.00352 103.20905 202.41347
128.5040 128.4192 203.0 0.00492 103.22692 197.05348
128.5200 128.4352 209.0 0.00478 103.24375 192.42267
128.5370 128.4522 209.0 0.00478 103.26161 187.90158
128.5540 128.4692 220.0 0.00455 103.27951 183.75076
128.5700 128.4852 228.0 0.00439 103.29634 180.16046
128.5870 128.5022 213.0 0.00470 103.31420 176.64890
128.6040 128.5192 227.0 0.00440 103.33209 173.41699
128.6210 128.5362 199.0 0.00502 103.34997 170.44391
128.6370 128.5522 202.0 0.00495 103.36679 167.86093
128.6540 128.5692 190.0 0.00527 103.38468 165.31711
128.6710 128.5862 193.0 0.00518 103.40256 162.96585
128.6880 128.6032 185.0 0.00541 103.42043 160.78712
128.7040 128.6192 160.0 0.00625 103.43726 158.87965
128.7210 128.6362 197.0 0.00507 103.45514 156.98921
128.7380 128.6532 161.0 0.00621 103.47301 155.22646
128.7540 128.6692 181.0 0.00553 103.48984 153.14453
128.7710 128.6862 142.0 0.00704 103.50773 151.59726
128.7880 128.7032 158.0 0.00633 103.52559 150.14665
128.8050 128.7202 151.0 0.00662 103.54346 148.77974
128.8210 128.7362 161.0 0.00621 103.56030 147.56532
128.8380 128.7532 145.0 0.00690 103.57816 146.34607
128.8550 128.7702 151.0 0.00662 103.59605 145.19002
128.8710 128.7862 137.0 0.00731 103.61288 144.15703
128.8880 128.8032 134.0 0.00746 103.63074 143.11415
128.9050 128.8202 142.0 0.00704 103.64864 142.12007
128.9220 128.8372 120.0 0.00834 103.66651 141.17302
128.9380 128.8532 121.0 0.00826 103.68333 140.32187
128.9550 128.8702 131.0 0.00763 103.70123 139.45493
128.9720 128.8872 148.0 0.00675 103.71910 138.62561
128.9880 128.9032 169.0 0.00592 103.73592 137.87750
129.0050 128.9202 118.0 0.00848 103.75381 137.11287
129.0220 128.9372 169.0 0.00592 103.77167 136.37949
129.0390 128.9542 139.0 0.00719 103.78956 135.67390
129.0550 128.9702 144.0 0.00694 103.80637 135.03494
129.0720 128.9872 120.0 0.00834 103.82426 134.38084
129.0890 129.0042 127.0 0.00787 103.84215 133.75003
129.1050 129.0202 128.0 0.00782 103.85896 133.17767
129.1220 129.0372 132.0 0.00757 103.87684 132.59065
129.1390 129.0542 130.0 0.00769 103.89473 132.02357
129.1560 129.0712 128.0 0.00782 103.91261 131.47639
129.1720 129.0872 112.0 0.00893 103.92943 130.97891
129.1890 129.1042 142.0 0.00704 103.94732 130.46681
129.2060 129.1212 139.0 0.00719 103.96519 129.97212
129.2230 129.1382 132.0 0.00757 103.98307 129.49365
129.2390 129.1542 118.0 0.00848 103.99989 129.05774
129.2560 129.1712 149.0 0.00671 104.01778 128.60904
129.2730 129.1882 113.0 0.00885 104.03566 128.17461
129.2890 129.2042 147.0 0.00681 104.05247 127.77901
129.3060 129.2212 125.0 0.00800 104.07035 127.37087
129.3230 129.2382 115.0 0.00870 104.08821 126.97588
129.3400 129.2552 127.0 0.00787 104.10610 126.59245
129.3560 129.2712 119.0 0.00840 104.12293 126.24245
129.3730 129.2882 102.0 0.00980 104.14079 125.88210
129.3900 129.3052 128.0 0.00782 104.15869 125.53205
129.4060 129.3212 119.0 0.00840 104.17552 125.21230
129.4230 129.3382 149.0 0.00671 104.19338 124.88287
129.4400 129.3552 120.0 0.00834 104.21127 124.56266
129.4570 129.3722 103.0 0.00971 104.22915 124.25207
129.4730 129.3882 113.0 0.00885 104.24596 123.98530
129.4900 129.4052 127.0 0.00787 104.26386 123.69192
129.5070 129.4222 145.0 0.00690 104.28174 123.40720
129.5230 129.4382 134.0 0.00746 104.29855 123.14697
129.5400 129.4552 129.0 0.00775 104.31643 122.87768
129.5570 129.4722 125.0 0.00800 104.33430 122.61642
129.5740 129.4892 118.0 0.00848 104.35220 122.36223
129.5900 129.5052 118.0 0.00848 104.36902 122.12975
129.6070 129.5222 118.0 0.00848 104.38689 121.88950
129.6240 129.5392 112.0 0.00893 104.40479 121.65566
129.6400 129.5552 105.0 0.00952 104.42160 121.44171
129.6570 129.5722 132.0 0.00757 104.43948 121.22054
129.6740 129.5892 113.0 0.00885 104.45737 121.00516
129.6910 129.6062 127.0 0.00787 104.47525 120.79581
129.7070 129.6222 115.0 0.00870 104.49205 120.60414
129.7240 129.6392 98.0 0.01021 104.50994 120.40556
129.7410 129.6562 137.0 0.00731 104.52783 120.21246
129.7580 129.6732 115.0 0.00870 104.54571 120.02457
129.7740 129.6892 134.0 0.00746 104.56252 119.85233
129.7910 129.7062 132.0 0.00757 104.58041 119.67406
129.8080 129.7232 124.0 0.00806 104.59830 119.50052
129.8240 129.7392 115.0 0.00870 104.61511 119.34144
129.8410 129.7562 103.0 0.00971 104.63299 119.17669
129.8580 129.7732 141.0 0.00710 104.65085 119.01646
129.8750 129.7902 86.0 0.01163 104.66874 118.86020
129.8910 129.8062 112.0 0.00893 104.68558 118.71687
129.9080 129.8232 118.0 0.00848 104.70344 118.56871
129.9250 129.8402 119.0 0.00840 104.72133 118.42412
129.9410 129.8562 107.0 0.00935 104.73816 118.29155
129.9580 129.8732 131.0 0.00763 104.75602 118.15440
129.9750 129.8902 109.0 0.00917 104.77391 118.02064
129.9920 129.9072 104.0 0.00961 104.79179 117.89035
130.0080 129.9232 111.0 0.00900 104.80861 117.77095
130.0250 129.9402 102.0 0.00980 104.82648 117.64705
130.0420 129.9572 127.0 0.00787 104.84438 117.52644
130.0580 129.9732 121.0 0.00826 104.86118 117.41586
130.0750 129.9902 119.0 0.00840 104.87907 117.30113
130.0920 130.0072 126.0 0.00794 104.89694 117.18949
130.1090 130.0242 107.0 0.00935 104.91484 117.08060
130.1250 130.0402 100.0 0.01000 104.93166 116.99472
130.1420 130.0572 128.0 0.00782 104.94953 116.89137
130.1590 130.0742 121.0 0.00826 104.96741 116.79055
130.1750 130.0902 120.0 0.00834 104.98424 116.69817
130.1920 130.1072 104.0 0.00961 105.00210 116.60249
130.2090 130.1242 124.0 0.00806 105.01999 116.50916
130.2260 130.1412 132.0 0.00757 105.03789 116.41833
130.2420 130.1572 129.0 0.00775 105.05469 116.33510
130.2590 130.1742 122.0 0.00819 105.07258 116.24874
130.2760 130.1912 120.0 0.00834 105.09045 116.16479
130.2920 130.2072 123.0 0.00813 105.10727 116.08781
130.3090 130.2242 117.0 0.00854 105.12517 116.00800
130.3260 130.2412 96.0 0.01042 105.14304 115.93036
130.3430 130.2582 119.0 0.00840 105.16092 115.85483
130.3590 130.2742 104.0 0.00961 105.17775 115.78565
130.3760 130.2912 118.0 0.00848 105.19563 115.71404
130.3930 130.3082 106.0 0.00943 105.21349 115.64445
130.4100 130.3252 111.0 0.00900 105.23138 115.57672
130.4260 130.3412 127.0 0.00787 105.24821 115.51472
130.4430 130.3582 128.0 0.00782 105.26608 115.45073
130.4600 130.3752 107.0 0.00935 105.28397 115.38850
130.4760 130.3912 95.0 0.01053 105.30080 115.33160
130.4930 130.4082 119.0 0.00840 105.31864 115.27294
130.5100 130.4252 108.0 0.00926 105.33653 115.21596
130.5270 130.4422 126.0 0.00794 105.35443 115.16080
130.5430 130.4582 112.0 0.00893 105.37123 115.11048
130.5600 130.4752 107.0 0.00935 105.38912 115.05862
130.5770 130.4922 125.0 0.00800 105.40700 115.00848
130.5930 130.5082 114.0 0.00877 105.42381 114.96288
130.6100 130.5252 90.0 0.01111 105.44170 114.91602
130.6270 130.5422 153.0 0.00654 105.45958 114.87084
130.6440 130.5592 116.0 0.00862 105.47746 114.82735
130.6600 130.5752 131.0 0.00763 105.49429 114.78798
130.6770 130.5922 107.0 0.00935 105.51215 114.74776
130.6940 130.6092 97.0 0.01031 105.53004 114.70921
130.7100 130.6252 129.0 0.00775 105.54688 114.67450
130.7270 130.6422 104.0 0.00961 105.56474 114.63924
130.7440 130.6592 131.0 0.00763 105.58263 114.60571
130.7610 130.6762 106.0 0.00943 105.60051 114.57387
130.7770 130.6922 108.0 0.00926 105.61732 114.54556
130.7940 130.7092 102.0 0.00980 105.63522 114.51714
130.8110 130.7262 93.0 0.01075 105.65309 114.49051
130.8270 130.7422 105.0 0.00952 105.66991 114.46712
130.8440 130.7592 111.0 0.00900 105.68781 114.44401
130.8610 130.7762 107.0 0.00935 105.70568 114.42278
130.8780 130.7932 108.0 0.00926 105.72356 114.40339
130.8940 130.8092 124.0 0.00806 105.74037 114.38695
130.9110 130.8262 123.0 0.00813 105.75826 114.37135
130.9280 130.8432 127.0 0.00787 105.77612 114.35773
130.9450 130.8602 126.0 0.00794 105.79402 114.34612
130.9610 130.8762 134.0 0.00746 105.81084 114.33706
130.9780 130.8932 124.0 0.00806 105.82870 114.32945
130.9950 130.9102 120.0 0.00834 105.84659 114.32401
131.0110 130.9262 130.0 0.00769 105.86342 114.32079
131.0280 130.9432 112.0 0.00893 105.88128 114.31956
131.0450 130.9602 134.0 0.00746 105.89917 114.32053
131.0620 130.9772 113.0 0.00885 105.91705 114.32378
131.0780 130.9932 120.0 0.00834 105.93387 114.32893
131.0950 131.0102 117.0 0.00854 105.95176 114.33667
131.1120 131.0272 114.0 0.00877 105.96964 114.34676
131.1280 131.0432 110.0 0.00909 105.98645 114.35841
131.1450 131.0602 111.0 0.00900 106.00434 114.37315
131.1620 131.0772 119.0 0.00840 106.02220 114.39027
131.1790 131.0942 123.0 0.00813 106.04010 114.40983
131.1950 131.1102 100.0 0.01000 106.05693 114.43050
131.2120 131.1272 109.0 0.00917 106.07479 114.45479
131.2290 131.1442 97.0 0.01031 106.09268 114.48154
131.2450 131.1602 110.0 0.00909 106.10950 114.50887
131.2620 131.1772 111.0 0.00900 106.12738 114.54034
131.2790 131.1942 119.0 0.00840 106.14527 114.68799
131.2960 131.2112 117.0 0.00854 106.16315 114.72421
131.3120 131.2272 112.0 0.00893 106.17996 114.76035
131.3290 131.2442 120.0 0.00834 106.19785 114.80097
131.3460 131.2612 119.0 0.00840 106.21573 114.84373
131.3630 131.2782 117.0 0.00854 106.23360 114.88861
131.3790 131.2942 116.0 0.00862 106.25043 114.93275
131.3960 131.3112 115.0 0.00870 106.26832 114.98162
131.4130 131.3282 116.0 0.00862 106.28619 115.03245
131.4290 131.3442 112.0 0.00893 106.30301 115.08203
131.4460 131.3612 117.0 0.00854 106.32088 115.13659
131.4630 131.3782 123.0 0.00813 106.33875 115.19290
131.4800 131.3952 128.0 0.00782 106.35664 115.25117
131.4960 131.4112 116.0 0.00862 106.37347 115.30764
131.5130 131.4282 111.0 0.00900 106.39133 115.36919
131.5300 131.4452 106.0 0.00943 106.40923 115.43259
131.5460 131.4612 113.0 0.00885 106.42606 115.49370
131.5630 131.4782 135.0 0.00741 106.44392 115.56001
131.5800 131.4952 122.0 0.00819 106.46181 115.62788
131.5970 131.5122 122.0 0.00819 106.47969 115.69697
131.6130 131.5282 101.0 0.00990 106.49651 115.76295
131.6300 131.5452 115.0 0.00870 106.51440 115.83405
131.6470 131.5622 109.0 0.00917 106.53227 115.90575
131.6630 131.5782 99.0 0.01010 106.54909 115.97346
131.6800 131.5952 126.0 0.00794 106.56697 116.04556
131.6970 131.6122 122.0 0.00819 106.58485 116.11722
131.7140 131.6292 110.0 0.00909 106.60274 116.18816
131.7300 131.6452 104.0 0.00961 106.61955 116.25368
131.7470 131.6622 126.0 0.00794 106.63743 116.32159
131.7640 131.6792 120.0 0.00834 106.65532 116.38729
131.7800 131.6952 115.0 0.00870 106.67214 116.44636
131.7970 131.7122 117.0 0.00854 106.69002 116.50571
131.8140 131.7292 109.0 0.00917 106.70791 116.56100
131.8310 131.7462 142.0 0.00704 106.72578 116.61147
131.8470 131.7622 125.0 0.00800 106.74258 116.65401
131.8640 131.7792 111.0 0.00900 106.76048 116.69350
131.8810 131.7962 101.0 0.00990 106.77837 116.72648
131.8980 131.8132 118.0 0.00848 106.79625 116.75243
131.9140 131.8292 122.0 0.00819 106.81306 116.77013
131.9310 131.8462 127.0 0.00787 106.83094 116.78144
131.9480 131.8632 125.0 0.00800 106.84883 116.78489
131.9640 131.8792 133.0 0.00752 106.86565 116.78096
131.9810 131.8962 127.0 0.00787 106.88352 116.76894
131.9980 131.9132 119.0 0.00840 106.90476 116.75246
132.0150 131.9302 119.0 0.00840 106.93083 116.73315
132.0310 131.9462 129.0 0.00775 106.95535 116.99585
132.0480 131.9632 90.0 0.01111 106.98137 116.96339
132.0650 131.9802 120.0 0.00834 107.00744 116.92450
132.0810 131.9962 139.0 0.00719 107.03196 116.88267
132.0980 132.0132 108.0 0.00926 107.05798 116.83323
132.1150 132.0302 109.0 0.00917 107.08405 116.77916
132.1320 132.0472 129.0 0.00775 107.11009 116.72121
132.1480 132.0632 119.0 0.00840 107.13459 116.66373
132.1650 132.0802 125.0 0.00800 107.16064 116.59995
132.1820 132.0972 139.0 0.00719 107.18671 116.53413
132.1980 132.1132 132.0 0.00757 107.21118 116.47085
132.2150 132.1302 112.0 0.00893 107.23724 116.40252
132.2320 132.1472 109.0 0.00917 107.26329 116.33378
132.2490 132.1642 112.0 0.00893 107.28936 116.26493
132.2650 132.1802 109.0 0.00917 107.31386 116.20052
132.2820 132.1972 106.0 0.00943 107.33990 116.13282
132.2990 132.2142 128.0 0.00782 107.36597 116.06610
132.3150 132.2302 112.0 0.00893 107.39046 116.00461
132.3320 132.2472 130.0 0.00769 107.41649 115.94090
132.3490 132.2642 115.0 0.00870 107.44256 115.87899
132.3660 132.2812 118.0 0.00848 107.46862 115.81924
132.3820 132.2972 132.0 0.00757 107.49310 115.76510
132.3990 132.3142 135.0 0.00741 107.51917 115.70985
132.4160 132.3312 134.0 0.00746 107.54521 115.65712
132.4330 132.3482 88.0 0.01136 107.57127 115.60712
132.4490 132.3642 120.0 0.00834 107.59578 115.56252
132.4660 132.3812 116.0 0.00862 107.62182 115.51785
132.4830 132.3982 99.0 0.01010 107.64787 115.47603
132.4990 132.4142 125.0 0.00800 107.67239 115.43932
132.5160 132.4312 105.0 0.00952 107.69843 115.40307
132.5330 132.4482 134.0 0.00746 107.72445 115.36977
132.5500 132.4652 107.0 0.00935 107.75052 115.33928
132.5660 132.4812 115.0 0.00870 107.77504 115.31316
132.5830 132.4982 118.0 0.00848 107.80106 115.28821
132.6000 132.5152 115.0 0.00870 107.82713 115.26595
132.6160 132.5312 107.0 0.00935 107.85165 115.24750
132.6330 132.5482 117.0 0.00854 107.87767 115.23052
132.6500 132.5652 134.0 0.00746 107.90372 115.21604
132.6670 132.5822 86.0 0.01163 107.92978 115.20417
132.6830 132.5982 119.0 0.00840 107.95425 115.19515
132.7000 132.6152 102.0 0.00980 107.98032 115.18783
132.7170 132.6322 107.0 0.00935 108.00637 115.18283
132.7330 132.6482 133.0 0.00752 108.03087 115.18011
132.7500 132.6652 106.0 0.00943 108.05694 115.17926
132.7670 132.6822 108.0 0.00926 108.08298 115.18040
132.7840 132.6992 109.0 0.00917 108.10902 115.18346
132.8000 132.7152 116.0 0.00862 108.13354 115.18801
132.8170 132.7322 126.0 0.00794 108.15957 115.19454
132.8340 132.7492 117.0 0.00854 108.18563 115.20273
132.8500 132.7652 127.0 0.00787 108.21015 115.21192
132.8670 132.7822 124.0 0.00806 108.23618 115.22307
132.8840 132.7992 126.0 0.00794 108.26225 115.23570
132.9010 132.8162 126.0 0.00794 108.28828 115.24962
132.9170 132.8322 113.0 0.00885 108.31278 115.26387
132.9340 132.8492 124.0 0.00806 108.33885 115.28027
132.9510 132.8662 128.0 0.00782 108.36490 115.29773
132.9680 132.8832 135.0 0.00741 108.39094 115.31626
132.9840 132.8992 113.0 0.00885 108.41547 115.33467
133.0010 132.9162 108.0 0.00926 108.44151 115.35514
133.0180 132.9332 113.0 0.00885 108.46755 115.37650
133.0340 132.9492 130.0 0.00769 108.49205 115.39739
133.0510 132.9662 111.0 0.00900 108.51812 115.42042
133.0680 132.9832 132.0 0.00757 108.54414 115.44415
133.0850 133.0002 124.0 0.00806 108.57021 115.46871
133.1010 133.0162 107.0 0.00935 108.59473 115.49241
133.1180 133.0332 118.0 0.00848 108.62073 115.51817
133.1350 133.0502 112.0 0.00893 108.64679 115.54465
133.1510 133.0662 112.0 0.00893 108.67132 115.57010
133.1680 133.0832 119.0 0.00840 108.69733 115.59769
133.1850 133.1002 118.0 0.00848 108.72340 115.62583
133.2020 133.1172 129.0 0.00775 108.74944 115.65451
133.2180 133.1332 125.0 0.00800 108.77394 115.68198
133.2350 133.1502 115.0 0.00870 108.80001 115.71162
133.2520 133.1672 116.0 0.00862 108.82606 115.74174
133.2680 133.1832 127.0 0.00787 108.85056 115.77049
133.2850 133.2002 117.0 0.00854 108.87663 115.80151
133.3020 133.2172 134.0 0.00746 108.90264 115.83294
133.3190 133.2342 114.0 0.00877 108.92871 115.86481
133.3350 133.2502 99.0 0.01010 108.95323 115.89517
133.3520 133.2672 119.0 0.00840 108.97926 115.92778
133.3690 133.2842 110.0 0.00909 109.00532 115.96083
133.3850 133.3002 116.0 0.00862 109.02982 115.99229
133.4020 133.3172 116.0 0.00862 109.05586 116.02605
133.4190 133.3342 90.0 0.01111 109.08193 116.06026
133.4360 133.3512 129.0 0.00775 109.10797 116.09475
133.4520 133.3672 126.0 0.00794 109.13248 116.12758
133.4690 133.3842 104.0 0.00961 109.15854 116.16282
133.4860 133.4012 108.0 0.00926 109.18459 116.19839
133.5030 133.4182 128.0 0.00782 109.21062 116.23432
133.5190 133.4342 127.0 0.00787 109.23513 116.26845
133.5360 133.4512 113.0 0.00885 109.26119 116.30508
133.5530 133.4682 111.0 0.00900 109.28724 116.34205
133.5690 133.4842 127.0 0.00787 109.31174 116.37713
133.5860 133.5012 129.0 0.00775 109.33778 116.41473
133.6030 133.5182 122.0 0.00819 109.36380 116.45264
133.6200 133.5352 124.0 0.00806 109.38987 116.49097
133.6360 133.5512 105.0 0.00952 109.41439 116.52731
133.6530 133.5682 138.0 0.00724 109.44041 116.56622
133.6700 133.5852 117.0 0.00854 109.46648 116.60555
133.6860 133.6012 124.0 0.00806 109.49100 116.64283
133.7030 133.6182 121.0 0.00826 109.51702 116.68271
133.7200 133.6352 131.0 0.00763 109.54309 116.72299
133.7370 133.6522 119.0 0.00840 109.56913 116.76360
133.7530 133.6682 119.0 0.00840 109.59364 116.80204
133.7700 133.6852 112.0 0.00893 109.61970 117.10379
133.7870 133.7022 142.0 0.00704 109.64574 117.14580
133.8030 133.7182 121.0 0.00826 109.67024 117.18561
133.8200 133.7352 115.0 0.00870 109.69631 117.22829
133.8370 133.7522 102.0 0.00980 109.72233 117.27124
133.8540 133.7692 120.0 0.00834 109.74840 117.31460
133.8700 133.7852 142.0 0.00704 109.77290 117.35566
133.8870 133.8022 125.0 0.00800 109.79894 117.39966
133.9040 133.8192 126.0 0.00794 109.82500 117.44400
133.9200 133.8352 112.0 0.00893 109.84951 117.48603
133.9370 133.8522 116.0 0.00862 109.87555 117.53101
133.9540 133.8692 115.0 0.00870 109.90162 117.57637
133.9710 133.8862 126.0 0.00794 109.92766 117.62204
133.9870 133.9022 108.0 0.00926 109.95216 117.66529
134.0040 133.9192 120.0 0.00834 109.97820 117.71166
134.0210 133.9362 150.0 0.00666 110.00427 117.75838
134.0380 133.9532 116.0 0.00862 110.03031 117.80544
134.0540 133.9692 118.0 0.00848 110.05482 117.85003
134.0710 133.9862 109.0 0.00917 110.08086 117.89774
134.0880 134.0032 132.0 0.00757 110.10693 117.94588
134.1040 134.0192 117.0 0.00854 110.13142 117.99146
134.1210 134.0362 116.0 0.00862 110.15747 118.04021
134.1380 134.0532 138.0 0.00724 110.18349 118.08937
134.1550 134.0702 112.0 0.00893 110.20956 118.13891
134.1710 134.0862 115.0 0.00870 110.23408 118.18589
134.1880 134.1032 104.0 0.00961 110.26010 118.23606
134.2050 134.1202 122.0 0.00819 110.28616 118.28674
134.2210 134.1362 121.0 0.00826 110.31069 118.33473
134.2380 134.1532 121.0 0.00826 110.33671 118.38600
134.2550 134.1702 111.0 0.00900 110.36278 118.43780
134.2720 134.1872 133.0 0.00752 110.38882 118.48987
134.2880 134.2032 113.0 0.00885 110.41332 118.53926
134.3050 134.2202 147.0 0.00681 110.43936 118.59216
134.3220 134.2372 126.0 0.00794 110.46543 118.64542
134.3380 134.2532 118.0 0.00848 110.48991 118.69589
134.3550 134.2702 116.0 0.00862 110.51598 118.74998
134.3720 134.2872 119.0 0.00840 110.54202 118.80441
134.3890 134.3042 126.0 0.00794 110.56808 118.85931
134.4050 134.3202 124.0 0.00806 110.59258 118.91129
134.4220 134.3372 111.0 0.00900 110.61863 118.96693
134.4390 134.3542 135.0 0.00741 110.64469 119.02306
134.4550 134.3702 126.0 0.00794 110.66920 119.07619
134.4720 134.3872 127.0 0.00787 110.69521 119.13307
134.4890 134.4042 114.0 0.00877 110.72128 119.19046
134.5060 134.4212 108.0 0.00926 110.74734 119.24829
134.5220 134.4372 136.0 0.00736 110.77183 119.30299
134.5390 134.4542 114.0 0.00877 110.79789 119.36168
134.5560 134.4712 128.0 0.00782 110.82394 119.42077
134.5730 134.4882 131.0 0.00763 110.85000 119.48032
134.5890 134.5042 150.0 0.00666 110.87450 119.53678
134.6060 134.5212 119.0 0.00840 110.90054 119.59721
134.6230 134.5382 112.0 0.00893 110.92659 119.65813
134.6390 134.5542 124.0 0.00806 110.95111 119.71590
134.6560 134.5712 111.0 0.00900 110.97716 119.77775
134.6730 134.5882 154.0 0.00649 111.00317 119.84003
134.6900 134.6052 142.0 0.00704 111.02924 119.90288
134.7060 134.6212 126.0 0.00794 111.05376 119.96248
134.7230 134.6382 115.0 0.00870 111.07979 120.02621
134.7400 134.6552 116.0 0.00862 111.10585 120.09053
134.7560 134.6712 116.0 0.00862 111.13038 120.15156
134.7730 134.6882 118.0 0.00848 111.15639 120.21677
134.7900 134.7052 143.0 0.00699 111.18244 120.28262
134.8070 134.7222 108.0 0.00926 111.20850 120.34902
134.8230 134.7382 123.0 0.00813 111.23299 120.41191
134.8400 134.7552 143.0 0.00699 111.25905 120.47940
134.8570 134.7722 114.0 0.00877 111.28510 120.54738
134.8730 134.7882 131.0 0.00763 111.30959 120.61183
134.8900 134.8052 108.0 0.00926 111.33566 120.68095
134.9070 134.8222 133.0 0.00752 111.36170 120.75055
134.9240 134.8392 118.0 0.00848 111.38777 120.82084
134.9400 134.8552 145.0 0.00690 111.41227 120.88743
134.9570 134.8722 150.0 0.00666 111.43829 120.95875
134.9740 134.8892 137.0 0.00731 111.46436 121.03082
134.9900 134.9052 136.0 0.00736 111.48888 121.09913
135.0070 134.9222 119.0 0.00840 111.51490 121.17230
135.0240 134.9392 133.0 0.00752 111.54097 121.24615
135.0410 134.9562 121.0 0.00826 111.56701 121.32062
135.0570 134.9722 139.0 0.00719 111.59151 121.39124
135.0740 134.9892 132.0 0.00757 111.61758 121.46701
135.0910 135.0062 116.0 0.00862 111.64362 121.54341
135.1070 135.0222 121.0 0.00826 111.66812 121.61588
135.1240 135.0392 116.0 0.00862 111.69419 121.69365
135.1410 135.0562 135.0 0.00741 111.72023 121.77205
135.1580 135.0732 142.0 0.00704 111.74628 121.85120
135.1740 135.0892 127.0 0.00787 111.77080 121.92630
135.1910 135.1062 127.0 0.00787 111.79684 122.00684
135.2080 135.1232 125.0 0.00800 111.82286 122.08799
135.2250 135.1402 132.0 0.00757 111.84893 122.17007
135.2410 135.1562 121.0 0.00826 111.87345 122.24796
135.2580 135.1732 133.0 0.00752 111.89948 122.33134
135.2750 135.1902 119.0 0.00840 111.92551 122.41567
135.2910 135.2062 130.0 0.00769 111.95004 122.49573
135.3080 135.2232 151.0 0.00662 111.97606 122.58148
135.3250 135.2402 128.0 0.00782 112.00213 122.66816
135.3420 135.2572 115.0 0.00870 112.02817 122.75565
135.3580 135.2732 125.0 0.00800 112.05267 122.83867
135.3750 135.2902 137.0 0.00731 112.07874 122.92786
135.3920 135.3072 133.0 0.00752 112.10478 123.01787
135.4080 135.3232 131.0 0.00763 112.12928 123.10331
135.4250 135.3402 130.0 0.00769 112.15535 123.19509
135.4420 135.3572 119.0 0.00840 112.18137 123.28768
135.4590 135.3742 136.0 0.00736 112.20744 123.38131
135.4750 135.3902 117.0 0.00854 112.23196 123.47022
135.4920 135.4072 132.0 0.00757 112.25798 123.56556
135.5090 135.4242 125.0 0.00800 112.28404 123.66203
135.5250 135.4402 127.0 0.00787 112.30855 123.75361
135.5420 135.4572 124.0 0.00806 112.33459 123.85191
135.5590 135.4742 120.0 0.00834 112.36066 123.95132
135.5760 135.4912 106.0 0.00943 112.38670 124.05172
135.5920 135.5072 133.0 0.00752 112.41120 124.14710
135.6090 135.5242 124.0 0.00806 112.43726 124.24963
135.6260 135.5412 121.0 0.00826 112.46331 124.35318
135.6430 135.5582 115.0 0.00870 112.48935 124.45785
135.6590 135.5742 124.0 0.00806 112.51385 124.55736
135.6760 135.5912 118.0 0.00848 112.53992 124.66433
135.6930 135.6082 115.0 0.00870 112.56596 124.77237
135.7090 135.6242 113.0 0.00885 112.59046 124.87514
135.7260 135.6412 129.0 0.00775 112.61653 124.98557
135.7430 135.6582 117.0 0.00854 112.64252 125.09707
135.7600 135.6752 131.0 0.00763 112.66859 125.21004
135.7760 135.6912 147.0 0.00681 112.69312 125.31752
135.7930 135.7082 124.0 0.00806 112.71914 125.43282
135.8100 135.7252 126.0 0.00794 112.74520 125.54963
135.8260 135.7412 125.0 0.00800 112.76973 125.66077
135.8430 135.7582 132.0 0.00757 112.79575 125.78006
135.8600 135.7752 135.0 0.00741 112.82182 125.90092
135.8770 135.7922 137.0 0.00731 112.84785 126.02315
135.8930 135.8082 122.0 0.00819 112.87236 126.13942
135.9100 135.8252 116.0 0.00862 112.89842 126.26461
135.9270 135.8422 128.0 0.00782 112.92447 126.39119
135.9430 135.8582 112.0 0.00893 112.94897 126.51167
135.9600 135.8752 109.0 0.00917 112.97504 126.64139
135.9770 135.8922 117.0 0.00854 113.00105 126.77251
135.9940 135.9092 142.0 0.00704 113.02712 126.90546
136.0100 135.9252 119.0 0.00840 113.05162 127.03198
136.0270 135.9422 123.0 0.00813 113.07767 127.16805
136.0440 135.9592 105.0 0.00952 113.10373 127.30595
136.0600 135.9752 143.0 0.00699 113.12823 127.43728
136.0770 135.9922 149.0 0.00671 113.15427 127.57854
136.0940 136.0092 126.0 0.00794 113.18034 127.72179
136.1110 136.0262 123.0 0.00813 113.20638 127.86681
136.1270 136.0422 121.0 0.00826 113.23089 128.00494
136.1440 136.0592 143.0 0.00699 113.25693 128.15376
136.1610 136.0762 124.0 0.00806 113.28300 128.30458
136.1780 136.0932 148.0 0.00675 113.30904 128.45737
136.1940 136.1092 111.0 0.00900 113.33354 128.60304
136.2110 136.1262 121.0 0.00826 113.35958 128.75993
136.2280 136.1432 133.0 0.00752 113.38565 128.91899
136.2440 136.1592 131.0 0.00763 113.41015 129.07065
136.2610 136.1762 126.0 0.00794 113.43620 129.23399
136.2780 136.1932 144.0 0.00694 113.46221 129.39952
136.2950 136.2102 131.0 0.00763 113.48828 129.56767
136.3110 136.2262 136.0 0.00736 113.51280 129.72807
136.3280 136.2432 133.0 0.00752 113.53883 129.90059
136.3450 136.2602 124.0 0.00806 113.56489 130.07602
136.3610 136.2762 139.0 0.00719 113.58942 130.24333
136.3780 136.2932 139.0 0.00719 113.61543 130.42346
136.3950 136.3102 146.0 0.00685 113.64150 130.60655
136.4120 136.3272 133.0 0.00752 113.66754 130.79230
136.4280 136.3432 127.0 0.00787 113.69205 130.96950
136.4450 136.3602 141.0 0.00710 113.71811 131.16087
136.4620 136.3772 136.0 0.00736 113.74416 131.35504
136.4780 136.3932 131.0 0.00763 113.76863 131.54037
136.4950 136.4102 131.0 0.00763 113.79470 131.74055
136.5120 136.4272 117.0 0.00854 113.82074 131.94365
136.5290 136.4442 116.0 0.00862 113.84681 132.15021
136.5450 136.4602 129.0 0.00775 113.87131 132.34741
136.5620 136.4772 134.0 0.00746 113.89735 132.56021
136.5790 136.4942 133.0 0.00752 113.92342 132.77669
136.5950 136.5102 144.0 0.00694 113.94792 132.98349
136.6120 136.5272 131.0 0.00763 113.97396 133.20665
136.6290 136.5442 117.0 0.00854 114.00001 133.43376
136.6460 136.5612 136.0 0.00736 114.02607 133.66454
136.6620 136.5772 109.0 0.00917 114.05055 133.88512
136.6790 136.5942 110.0 0.00909 114.07661 134.12372
136.6960 136.6112 118.0 0.00848 114.10266 134.36623
136.7130 136.6282 130.0 0.00769 114.12872 134.61298
136.7290 136.6442 127.0 0.00787 114.15323 134.84901
136.7460 136.6612 130.0 0.00769 114.17927 135.10417
136.7630 136.6782 122.0 0.00819 114.20531 135.36383
136.7790 136.6942 138.0 0.00724 114.22984 135.61244
136.7960 136.7112 113.0 0.00885 114.25588 135.88120
136.8130 136.7282 128.0 0.00782 114.28190 136.15456
136.8300 136.7452 144.0 0.00694 114.30797 136.43341
136.8460 136.7612 124.0 0.00806 114.33249 136.70044
136.8630 136.7782 128.0 0.00782 114.35851 136.98889
136.8800 136.7952 114.0 0.00877 114.38457 137.28325
136.8960 136.8112 134.0 0.00746 114.40910 137.56532
136.9130 136.8282 107.0 0.00935 114.43512 137.87009
136.9300 136.8452 142.0 0.00704 114.46117 138.18124
136.9470 136.8622 131.0 0.00763 114.48723 138.49834
136.9630 136.8782 127.0 0.00787 114.51171 138.80206
136.9800 136.8952 135.0 0.00741 114.53777 139.13148
136.9970 136.9122 135.0 0.00741 114.56384 139.46730
137.0130 136.9282 134.0 0.00746 114.58832 139.78914
137.0300 136.9452 142.0 0.00704 114.61439 140.13843
137.0470 136.9622 137.0 0.00731 114.64043 140.49445
137.0640 136.9792 127.0 0.00787 114.66650 140.85823
137.0800 136.9952 143.0 0.00699 114.69099 141.20714
137.0970 137.0122 122.0 0.00819 114.71702 141.58539
137.1140 137.0292 124.0 0.00806 114.74308 141.97206
137.1300 137.0452 134.0 0.00746 114.76761 142.34328
137.1470 137.0622 134.0 0.00746 114.79362 142.74586
137.1640 137.0792 122.0 0.00819 114.81969 143.15764
137.1810 137.0962 130.0 0.00769 114.84573 143.57831
137.1970 137.1122 136.0 0.00736 114.87024 143.98241
137.2140 137.1292 144.0 0.00694 114.89630 144.42181
137.2310 137.1462 139.0 0.00719 114.92235 144.87094
137.2480 137.1632 153.0 0.00654 114.94839 145.33044
137.2640 137.1792 122.0 0.00819 114.97292 145.77252
137.2810 137.1962 132.0 0.00757 114.99895 146.25317
137.2980 137.2132 139.0 0.00719 115.02500 146.74532
137.3140 137.2292 135.0 0.00741 115.04952 147.21925
137.3310 137.2462 147.0 0.00681 115.07557 147.73492
137.3480 137.2632 131.0 0.00763 115.10159 148.26286
137.3650 137.2802 147.0 0.00681 115.12766 148.80513
137.3810 137.2962 136.0 0.00736 115.15218 149.32803
137.3980 137.3132 146.0 0.00685 115.17820 149.89691
137.4150 137.3302 158.0 0.00633 115.20424 150.48186
137.4310 137.3462 161.0 0.00621 115.22877 151.04674
137.4480 137.3632 159.0 0.00629 115.25478 151.66217
137.4650 137.3802 157.0 0.00637 115.28085 152.29604
137.4820 137.3972 149.0 0.00671 115.30689 152.94785
137.4980 137.4132 149.0 0.00671 115.33140 153.57817
137.5150 137.4302 161.0 0.00621 115.35746 154.26868
137.5320 137.4472 175.0 0.00571 115.38351 154.98001
137.5480 137.4632 173.0 0.00578 115.40800 155.66954
137.5650 137.4802 144.0 0.00694 115.43407 156.42654
137.5820 137.4972 153.0 0.00654 115.46009 157.20799
137.5990 137.5142 153.0 0.00654 115.48616 158.01738
137.6150 137.5302 127.0 0.00787 115.51068 158.80476
137.6320 137.5472 174.0 0.00575 115.53671 159.67090
137.6490 137.5642 160.0 0.00625 115.56277 160.57091
137.6650 137.5802 166.0 0.00603 115.58727 161.44930
137.6820 137.5972 178.0 0.00562 115.61331 162.41887
137.6990 137.6142 155.0 0.00645 115.63938 163.42999
137.7160 137.6312 152.0 0.00658 115.66542 164.48421
137.7320 137.6472 156.0 0.00641 115.68993 165.51808
137.7490 137.6642 169.0 0.00592 115.71599 166.66745
137.7660 137.6812 156.0 0.00641 115.74203 167.87071
137.7830 137.6982 162.0 0.00617 115.76807 169.13283
137.7990 137.7142 162.0 0.00617 115.79260 170.37851
137.8160 137.7312 173.0 0.00578 115.81864 171.76936
137.8330 137.7482 173.0 0.00578 115.84469 173.23459
137.8490 137.7642 145.0 0.00690 115.86919 174.68663
137.8660 137.7812 170.0 0.00588 115.89526 176.31464
137.8830 137.7982 183.0 0.00546 115.92127 178.03471
137.9000 137.8152 198.0 0.00505 115.94732 179.85980
137.9160 137.8312 181.0 0.00553 115.97184 181.67781
137.9330 137.8482 169.0 0.00592 115.99786 183.72209
137.9500 137.8652 188.0 0.00532 116.02393 185.89857
137.9660 137.8812 212.0 0.00472 116.04845 188.07320
137.9830 137.8982 168.0 0.00595 116.07447 190.52533
138.0000 137.9152 180.0 0.00555 116.10054 193.14276
138.0170 137.9322 185.0 0.00541 116.12658 195.93219
138.0330 137.9482 196.0 0.00510 116.15108 198.72488
138.0500 137.9652 203.0 0.00492 116.17715 201.89091
138.0670 137.9822 207.0 0.00483 116.20319 205.26926
138.0830 137.9982 191.0 0.00524 116.22769 208.65494
138.1000 138.0152 211.0 0.00474 116.25376 212.49536
138.1170 138.0322 237.0 0.00422 116.27978 216.59230
138.1340 138.0492 201.0 0.00497 116.30585 220.97244
138.1500 138.0652 221.0 0.00452 116.33035 225.36122
138.1670 138.0822 246.0 0.00407 116.35639 230.32756
138.1840 138.0992 261.0 0.00383 116.38245 235.63217
138.2000 138.1152 227.0 0.00440 116.40696 240.94084
138.2170 138.1322 280.0 0.00357 116.43300 246.93918
138.2340 138.1492 242.0 0.00413 116.45907 253.33459
138.2510 138.1662 245.0 0.00408 116.48511 260.13644
138.2670 138.1822 260.0 0.00385 116.50961 266.92392
138.2840 138.1992 252.0 0.00397 116.53565 274.58298
138.3010 138.2162 260.0 0.00385 116.56172 282.70663
138.3180 138.2332 291.0 0.003436 116.58776 291.31870
138.3340 138.2492 285.0 0.00351 116.61227 299.88409
138.3510 138.2662 291.0 0.003436 116.63833 309.49799
138.3680 138.2832 318.0 0.003146 116.66438 319.65451
138.3840 138.2992 316.0 0.003163 116.68887 329.72083
138.4010 138.3162 312.0 0.003206 116.71492 340.97781
138.4180 138.3332 326.0 0.003066 116.74094 352.80984
138.4350 138.3502 302.0 0.003311 116.76701 365.26465
138.4510 138.3662 361.0 0.002770 116.79153 377.54388
138.4680 138.3832 353.0 0.002832 116.81755 391.17587
138.4850 138.4002 364.0 0.002747 116.84361 405.46198
138.5010 138.4162 387.0 0.002585 116.86814 419.48483
138.5180 138.4332 398.0 0.002513 116.89416 434.98245
138.5350 138.4502 431.0 0.002320 116.92023 451.14658
138.5520 138.4672 445.0 0.002246 116.94627 467.93890
138.5680 138.4832 438.0 0.002283 116.97077 484.30460
138.5850 138.5002 443.0 0.002257 116.99683 502.32559
138.6020 138.5172 463.0 0.002159 117.02288 520.94806
138.6180 138.5332 514.0 0.001946 117.04736 539.00201
138.6350 138.5502 556.0 0.001799 117.07343 558.77405
138.6520 138.5672 524.0 0.001909 117.09946 579.07648
138.6690 138.5842 548.0 0.001825 117.12553 599.92749
138.6850 138.6002 559.0 0.001789 117.15003 619.98376
138.7020 138.6172 582.0 0.001719 117.17608 641.73053
138.7190 138.6342 675.0 0.001482 117.20214 663.91620
138.7350 138.6502 657.0 0.001522 117.22665 685.11212
138.7520 138.6672 638.0 0.001567 117.25269 707.93341
138.7690 138.6842 713.0 0.001403 117.27873 731.03888
138.7860 138.7012 695.0 0.001439 117.30479 754.32611
138.8020 138.7172 732.0 0.001366 117.32928 776.33936
138.8190 138.7342 776.0 0.001288 117.35534 799.82098
138.8360 138.7512 751.0 0.001332 117.38139 823.27240
138.8530 138.7682 781.0 0.001280 117.40746 846.62836
138.8690 138.7842 839.0 0.001192 117.43195 868.44257
138.8860 138.8012 847.0 0.001181 117.45799 891.37970
138.9030 138.8182 936.0 0.001069 117.48406 913.97949
138.9190 138.8342 925.0 0.001081 117.50856 934.86029
138.9360 138.8512 918.0 0.001089 117.53461 956.57202
138.9530 138.8682 900.0 0.001111 117.56062 977.68677
138.9700 138.8852 941.0 0.001062 117.58669 998.19141
138.9860 138.9012 996.0 0.001004 117.61121 1016.83008
139.0030 138.9182 1007.0 0.000993 117.63724 1035.85217
139.0200 138.9352 1068.0 0.000936 117.66330 1054.06970
139.0360 138.9512 1041.0 0.000961 117.68783 1070.39575
139.0530 138.9682 1135.0 0.000881 117.71384 1086.80542
139.0700 138.9852 1089.0 0.000918 117.73991 1102.25513
139.0870 139.0022 1066.0 0.000938 117.76595 1116.66138
139.1030 139.0182 1178.0 0.000849 117.79044 1129.22473
139.1200 139.0352 1132.0 0.000883 117.81650 1141.50659
139.1370 139.0522 1192.0 0.000839 117.84257 1152.61816
139.1530 139.0682 1155.0 0.000866 117.86704 1161.96423
139.1700 139.0852 1189.0 0.000841 117.89311 1170.69299
139.1870 139.1022 1227.0 0.000815 117.91915 1178.11096
139.2040 139.1192 1256.0 0.000796 117.94522 1184.18628
139.2200 139.1352 1216.0 0.000822 117.96972 1188.61987
139.2370 139.1522 1240.0 0.000807 117.99577 1191.92407
139.2540 139.1692 1279.0 0.000782 118.02180 1193.73462
139.2700 139.1852 1226.0 0.000816 118.04633 1194.03088
139.2870 139.2022 1284.0 0.000779 118.07235 1192.81494
139.3040 139.2192 1260.0 0.000793 118.09842 1189.98767
139.3210 139.2362 1263.0 0.000792 118.12446 1185.53052
139.3370 139.2522 1235.0 0.000810 118.14896 1179.84143
139.3540 139.2692 1204.0 0.000831 118.17503 1172.19543
139.3710 139.2862 1235.0 0.000810 118.20107 1162.92798
139.3870 139.3022 1168.0 0.000856 118.22557 1152.75867
139.4040 139.3192 1139.0 0.000878 118.25164 1140.42908
139.4210 139.3362 1131.0 0.000884 118.27768 1126.61108
139.4380 139.3532 1135.0 0.000881 118.30373 1111.36963
139.4540 139.3692 1110.0 0.000901 118.32825 1095.80542
139.4710 139.3862 1108.0 0.000902 118.35429 1078.05078
139.4880 139.4032 1062.0 0.000942 118.38031 1059.17041
139.5050 139.4202 1063.0 0.000941 118.40638 1039.21948
139.5210 139.4362 972.0 0.001029 118.43090 1019.60199
139.5380 139.4532 981.0 0.001019 118.45692 998.00067
139.5550 139.4702 970.0 0.001031 118.48296 975.66541
139.5710 139.4862 909.0 0.001100 118.50749 954.11816
139.5880 139.5032 878.0 0.001139 118.53351 930.79932
139.6050 139.5202 927.0 0.001079 118.55958 907.07709
139.6220 139.5372 844.0 0.001185 118.58565 883.10950
139.6380 139.5532 823.0 0.001215 118.61012 860.42712
139.6550 139.5702 782.0 0.001279 118.63618 836.22241
139.6720 139.5872 769.0 0.001300 118.66223 812.04724
139.6880 139.6032 762.0 0.001313 118.68673 789.40259
139.7050 139.6202 739.0 0.001354 118.71280 765.46820
139.7220 139.6372 701.0 0.001426 118.73882 741.79413
139.7390 139.6542 677.0 0.001477 118.76488 718.38708
139.7550 139.6702 698.0 0.001433 118.78941 696.69525
139.7720 139.6872 631.0 0.001585 118.81543 674.03644
139.7890 139.7042 581.0 0.001722 118.84149 651.79053
139.8050 139.7202 598.0 0.001673 118.86600 631.30762
139.8220 139.7372 600.0 0.001667 118.89204 610.04248
139.8390 139.7542 551.0 0.001815 118.91811 589.29004
139.8560 139.7712 591.0 0.001692 118.94415 569.11108
139.8720 139.7872 537.0 0.001863 118.96865 550.66766
139.8890 139.8042 513.0 0.001949 118.99471 531.62140
139.9060 139.8212 507.0 0.001972 119.02076 513.19641
139.9230 139.8382 477.0 0.002096 119.04681 495.39124
139.9390 139.8542 485.0 0.002062 119.07133 479.21149
139.9560 139.8712 470.0 0.002128 119.09737 462.62579
139.9730 139.8882 440.0 0.002272 119.12341 446.67123
139.9890 139.9042 427.0 0.002343 119.14791 432.23575
140.0060 139.9212 471.0 0.002124 119.17398 417.50058
140.0230 139.9382 421.0 0.002375 119.20000 403.40231
140.0400 139.9552 416.0 0.002403 119.22604 389.89334
140.0560 139.9712 410.0 0.002439 119.25056 377.73569
140.0730 139.9882 383.0 0.002611 119.27659 365.41177
140.0900 140.0052 413.0 0.002422 119.30266 353.64859
140.1060 140.0212 380.0 0.002633 119.32718 343.10083
140.1230 140.0382 364.0 0.002747 119.35320 332.44675
140.1400 140.0552 341.0 0.002931 119.37926 322.31351
140.1570 140.0722 349.0 0.002866 119.40531 312.70911
140.1730 140.0882 356.0 0.002808 119.42981 304.14001
140.1900 140.1052 320.0 0.003124 119.45588 295.49597
140.2070 140.1222 304.0 0.003288 119.48192 287.32806
140.2230 140.1382 315.0 0.003174 119.50642 280.06158
140.2400 140.1552 341.0 0.002931 119.53249 272.75119
140.2570 140.1722 275.0 0.00364 119.55851 265.86563
140.2740 140.1892 307.0 0.003258 119.58457 259.37042
140.2900 140.2052 322.0 0.003107 119.60907 253.60986
140.3070 140.2222 249.0 0.00402 119.63512 247.84134
140.3240 140.2392 311.0 0.003214 119.66119 242.41025
140.3400 140.2552 237.0 0.00422 119.68568 237.60158
140.3570 140.2722 291.0 0.003436 119.71172 232.79326
140.3740 140.2892 265.0 0.00377 119.73779 228.27225
140.3910 140.3062 236.0 0.00424 119.76384 224.02982
140.4070 140.3222 235.0 0.00426 119.78834 220.27824
140.4240 140.3392 252.0 0.00397 119.81441 216.52391
140.4410 140.3562 271.0 0.00369 119.84045 213.00224
140.4580 140.3732 237.0 0.00422 119.86649 209.69662
140.4740 140.3892 227.0 0.00440 119.89099 206.77155
140.4910 140.4062 214.0 0.00467 119.91706 203.84668
140.5080 140.4232 222.0 0.00450 119.94310 201.09932
140.5240 140.4392 230.0 0.00435 119.96760 198.66588
140.5410 140.4562 246.0 0.00407 119.99364 196.22975
140.5580 140.4732 202.0 0.00495 120.01967 193.94066
140.5750 140.4902 202.0 0.00495 120.04573 191.78203
140.5910 140.5062 181.0 0.00553 120.07026 189.86559
140.6080 140.5232 253.0 0.00395 120.09628 187.94507
140.6250 140.5402 205.0 0.00488 120.12234 186.12970
140.6410 140.5562 200.0 0.00500 120.14687 184.51375
140.6580 140.5732 199.0 0.00502 120.17288 182.89000
140.6750 140.5902 198.0 0.00505 120.19895 181.35057
140.6920 140.6072 181.0 0.00553 120.22500 179.89287
140.7080 140.6232 199.0 0.00502 120.24950 178.59073
140.7250 140.6402 182.0 0.00550 120.27557 177.27286
140.7420 140.6572 215.0 0.00465 120.30161 176.02060
140.7580 140.6732 192.0 0.00521 120.32610 174.89822
140.7750 140.6902 187.0 0.00535 120.35215 173.75842
140.7920 140.7072 175.0 0.00571 120.37820 172.67220
140.8090 140.7242 177.0 0.00565 120.40426 171.63348
140.8250 140.7402 186.0 0.00537 120.42876 170.69820
140.8420 140.7572 186.0 0.00537 120.45480 169.74573
140.8590 140.7742 192.0 0.00521 120.48087 168.83192
140.8750 140.7902 188.0 0.00532 120.50537 168.00645
140.8920 140.8072 168.0 0.00595 120.53142 167.16341
140.9090 140.8242 182.0 0.00550 120.55746 166.35187
140.9260 140.8412 169.0 0.00592 120.58353 165.57143
140.9420 140.8572 193.0 0.00518 120.60800 164.86386
140.9590 140.8742 165.0 0.00606 120.63407 164.13728
140.9760 140.8912 155.0 0.00645 120.66013 163.43674
140.9930 140.9082 168.0 0.00595 120.68166 162.75587
141.0090 140.9242 167.0 0.00599 120.68822 162.12244
141.0260 140.9412 163.0 0.00613 120.69518 161.47026
141.0430 140.9582 166.0 0.00603 120.70216 160.83868
141.0590 140.9742 161.0 0.00621 120.70872 160.26241
141.0760 140.9912 164.0 0.00609 120.71570 159.66797
141.0930 141.0082 151.0 0.00662 120.72266 159.09200
141.1100 141.0252 154.0 0.00649 120.72964 158.53201
141.1260 141.0412 164.0 0.00609 120.73621 158.02003
141.1430 141.0582 157.0 0.00637 120.74318 157.49188
141.1600 141.0752 145.0 0.00690 120.75015 156.97775
141.1760 141.0912 172.0 0.00582 120.75672 156.50710
141.1930 141.1082 171.0 0.00585 120.76369 156.02110
141.2100 141.1252 127.0 0.00787 120.77067 155.54753
141.2270 141.1422 175.0 0.00571 120.77764 155.08694
141.2430 141.1582 158.0 0.00633 120.78419 154.66513
141.2600 141.1752 153.0 0.00654 120.79117 154.22771
141.2770 141.1922 167.0 0.00599 120.79815 153.80197
141.2930 141.2082 161.0 0.00621 120.80470 153.41179
141.3100 141.2252 143.0 0.00699 120.81168 153.00697
141.3270 141.2422 130.0 0.00769 120.81866 152.61293
141.3440 141.2592 141.0 0.00710 120.82564 152.22842
141.3600 141.2752 153.0 0.00654 120.83219 151.87572
141.3770 141.2922 128.0 0.00782 120.83916 151.51018
141.3940 141.3092 132.0 0.00757 120.84614 151.15334
141.4100 141.3252 127.0 0.00787 120.85271 150.82579
141.4270 141.3422 149.0 0.00671 120.85967 150.48624
141.4440 141.3592 158.0 0.00633 120.86665 150.15457
141.4610 141.3762 136.0 0.00736 120.87363 149.83116
141.4770 141.3922 158.0 0.00633 120.88018 149.53427
141.4940 141.4092 164.0 0.00609 120.88716 149.22574
141.5110 141.4262 150.0 0.00666 120.89413 148.92473
141.5280 141.4432 148.0 0.00675 120.90112 148.63095
141.5440 141.4592 143.0 0.00699 120.90768 148.36101
141.5610 141.4762 146.0 0.00685 120.91464 148.08060
141.5780 141.4932 141.0 0.00710 120.92162 147.80688
141.5940 141.5092 138.0 0.00724 120.92818 147.55525
141.6110 141.5262 136.0 0.00736 120.93516 147.29388
141.6280 141.5432 142.0 0.00704 120.94212 147.03896
141.6450 141.5602 126.0 0.00794 120.94910 146.78954
141.6610 141.5762 153.0 0.00654 120.95567 146.56021
141.6780 141.5932 131.0 0.00763 120.96263 146.32240
141.6950 141.6102 142.0 0.00704 120.96961 146.08963
141.7110 141.6262 122.0 0.00819 120.97617 145.87558
141.7280 141.6432 155.0 0.00645 120.98314 145.65358
141.7450 141.6602 127.0 0.00787 120.99012 145.43631
141.7620 141.6772 141.0 0.00710 120.99710 145.22415
141.7780 141.6932 145.0 0.00690 121.00365 145.02910
141.7950 141.7102 164.0 0.00609 121.01063 144.82622
141.8120 141.7272 156.0 0.00641 121.01760 144.62805
141.8280 141.7432 116.0 0.00862 121.02416 144.44586
141.8450 141.7602 135.0 0.00741 121.03114 144.25635
141.8620 141.7772 137.0 0.00731 121.03812 144.07135
141.8790 141.7942 146.0 0.00685 121.04509 143.89035
141.8950 141.8102 128.0 0.00782 121.05165 143.72392
141.9120 141.8272 152.0 0.00658 121.05862 143.55110
141.9290 141.8442 139.0 0.00719 121.06560 143.38202
141.9450 141.8602 148.0 0.00675 121.07217 143.22656
141.9620 141.8772 149.0 0.00671 121.07913 143.06506
141.9790 141.8942 154.0 0.00649 121.08611 142.90710
141.9960 141.9112 140.0 0.00715 121.09309 142.75288
142.0120 141.9272 145.0 0.00690 121.09964 142.61105
142.0290 141.9442 154.0 0.00649 121.10662 142.46355
142.0460 141.9612 128.0 0.00782 121.11359 142.31949
142.0630 141.9782 126.0 0.00794 121.12057 142.17874
142.0790 141.9942 159.0 0.00629 121.12714 142.04936
142.0960 142.0112 129.0 0.00775 121.13410 141.91489
142.1130 142.0282 151.0 0.00662 121.14108 141.78351
142.1290 142.0442 143.0 0.00699 121.14764 141.66275
142.1460 142.0612 136.0 0.00736 121.15462 141.53728
142.1630 142.0782 127.0 0.00787 121.16158 141.41496
142.1800 142.0952 129.0 0.00775 121.16856 141.29523
142.1960 142.1112 131.0 0.00763 121.17513 141.18527
142.2130 142.1282 124.0 0.00806 121.18209 141.07118
142.2300 142.1452 139.0 0.00719 121.18906 140.95973
142.2460 142.1612 145.0 0.00690 121.19563 140.85728
142.2630 142.1782 115.0 0.00870 121.20260 140.75114
142.2800 142.1952 151.0 0.00662 121.20958 140.64740
142.2970 142.2122 153.0 0.00654 121.21655 140.54630
142.3130 142.2282 148.0 0.00675 121.22311 140.45349
142.3300 142.2452 150.0 0.00666 121.23009 140.35712
142.3470 142.2622 152.0 0.00658 121.23706 140.26323
142.3630 142.2782 150.0 0.00666 121.24362 140.17709
142.3800 142.2952 158.0 0.00633 121.25060 140.08777
142.3970 142.3122 150.0 0.00666 121.25757 140.00081
142.4140 142.3292 132.0 0.00757 121.26455 139.91602
142.4300 142.3452 129.0 0.00775 121.27110 139.83835
142.4470 142.3622 138.0 0.00724 121.27808 139.75800
142.4640 142.3792 132.0 0.00757 121.28506 139.67973
142.4800 142.3952 117.0 0.00854 121.29162 139.60808
142.4970 142.4122 134.0 0.00746 121.29859 139.53398
142.5140 142.4292 143.0 0.00699 121.30557 139.46196
142.5310 142.4462 127.0 0.00787 121.31254 139.39198
142.5470 142.4622 151.0 0.00662 121.31910 139.32813
142.5640 142.4792 139.0 0.00719 121.32608 139.26210
142.5810 142.4962 145.0 0.00690 121.33305 139.19814
142.5980 142.5132 113.0 0.00885 121.34003 139.13612
142.6140 142.5292 146.0 0.00685 121.34659 139.07951
142.6310 142.5462 115.0 0.00870 121.35356 139.02129
142.6480 142.5632 143.0 0.00699 121.36053 138.96498
142.6640 142.5792 170.0 0.00588 121.36710 138.91373
142.6810 142.5962 117.0 0.00854 121.37407 138.86113
142.6980 142.6132 145.0 0.00690 121.38103 138.81046
142.7150 142.6302 124.0 0.00806 121.38802 138.76155
142.7310 142.6462 135.0 0.00741 121.39458 138.71732
142.7480 142.6632 113.0 0.00885 121.40155 138.67215
142.7650 142.6802 148.0 0.00675 121.40852 138.62878
142.7810 142.6962 147.0 0.00681 121.41509 138.58972
142.7980 142.7132 136.0 0.00736 121.42206 138.55000
142.8150 142.7302 135.0 0.00741 121.42904 138.51213
142.8320 142.7472 153.0 0.00654 121.43601 138.47615
142.8480 142.7632 150.0 0.00666 121.44257 138.44398
142.8650 142.7802 128.0 0.00782 121.44955 138.41162
142.8820 142.7972 137.0 0.00731 121.45652 138.38120
142.8980 142.8132 132.0 0.00757 121.46308 138.35425
142.9150 142.8302 120.0 0.00834 121.47005 138.32750
142.9320 142.8472 140.0 0.00715 121.47703 138.30269
142.9490 142.8642 135.0 0.00741 121.48401 138.27982
142.9650 142.8802 147.0 0.00681 121.49056 138.26015
142.9820 142.8972 138.0 0.00724 121.49754 138.24121
142.9990 142.9142 126.0 0.00794 121.50452 138.22421
143.0150 142.9302 141.0 0.00710 121.51108 138.21022
143.0320 142.9472 128.0 0.00782 121.51805 138.19731
143.0490 142.9642 139.0 0.00719 121.52503 138.18657
143.0660 142.9812 134.0 0.00746 121.53200 138.17801
143.0820 142.9972 146.0 0.00685 121.53855 138.17195
143.0990 143.0142 151.0 0.00662 121.54553 138.16771
143.1160 143.0312 109.0 0.00917 121.55251 138.16580
143.1330 143.0482 157.0 0.00637 121.55949 138.16623
143.1490 143.0642 139.0 0.00719 121.56605 138.16881
143.1660 143.0812 147.0 0.00681 121.57302 138.17398
143.1830 143.0982 147.0 0.00681 121.57999 138.18169
143.1990 143.1142 149.0 0.00671 121.58656 138.19128
143.2160 143.1312 127.0 0.00787 121.59353 138.20406
143.2330 143.1482 133.0 0.00752 121.60049 138.21951
143.2500 143.1652 141.0 0.00710 121.60748 138.23779
143.2660 143.1812 129.0 0.00775 121.61404 138.25757
143.2830 143.1982 149.0 0.00671 121.62101 138.28140
143.3000 143.2152 113.0 0.00885 121.62798 138.30824
143.3160 143.2312 131.0 0.00763 121.63455 138.33630
143.3330 143.2482 140.0 0.00715 121.64152 138.36913
143.3500 143.2652 120.0 0.00834 121.64850 138.40518
143.3670 143.2822 135.0 0.00741 121.65547 138.44449
143.3830 143.2982 141.0 0.00710 121.66203 138.48454
143.4000 143.3152 146.0 0.00685 121.66900 138.53046
143.4170 143.3322 127.0 0.00787 121.67598 138.57985
143.4330 143.3482 150.0 0.00666 121.68253 138.62956
143.4500 143.3652 138.0 0.00724 121.68951 138.68597
143.4670 143.3822 136.0 0.00736 121.69649 138.74602
143.4840 143.3992 144.0 0.00694 121.70347 138.80997
143.5000 143.4152 156.0 0.00641 121.71002 138.87354
143.5170 143.4322 145.0 0.00690 121.71700 138.94478
143.5340 143.4492 158.0 0.00633 121.72397 139.02013
143.5500 143.4652 120.0 0.00834 121.73054 139.09459
143.5670 143.4822 123.0 0.00813 121.73750 139.17761
143.5840 143.4992 149.0 0.00671 121.74448 139.26486
143.6010 143.5162 135.0 0.00741 121.75146 139.35612
143.6170 143.5322 118.0 0.00848 121.75801 139.44569
143.6340 143.5492 134.0 0.00746 121.76499 139.54501
143.6510 143.5662 137.0 0.00731 121.77197 139.64845
143.6670 143.5822 148.0 0.00675 121.77853 139.74960
143.6840 143.5992 155.0 0.00645 121.78551 139.86121
143.7010 143.6162 134.0 0.00746 121.79248 139.97694
143.7180 143.6332 133.0 0.00752 121.79945 140.09677
143.7340 143.6492 152.0 0.00658 121.80602 140.21327
143.7510 143.6662 129.0 0.00775 121.81299 140.34106
143.7680 143.6832 135.0 0.00741 121.81995 140.47267
143.7850 143.7002 144.0 0.00694 121.82693 140.60847
143.8010 143.7162 140.0 0.00715 121.83350 140.73982
143.8180 143.7332 143.0 0.00699 121.84047 140.88277
143.8350 143.7502 125.0 0.00800 121.84744 141.02971
143.8510 143.7662 148.0 0.00675 121.85401 141.17119
143.8680 143.7832 157.0 0.00637 121.86097 141.32463
143.8850 143.8002 136.0 0.00736 121.86795 141.48170
143.9020 143.8172 131.0 0.00763 121.87493 141.64185
143.9180 143.8332 138.0 0.00724 121.88148 141.79510
143.9350 143.8502 137.0 0.00731 121.88846 141.96095
143.9520 143.8672 147.0 0.00681 121.89543 142.12927
143.9680 143.8832 141.0 0.00710 121.90199 142.28978
143.9850 143.9002 138.0 0.00724 121.90897 142.46272
144.0020 143.9172 148.0 0.00675 121.91595 142.63748
144.0190 143.9342 135.0 0.00741 121.92292 142.81421
144.0350 143.9502 147.0 0.00681 121.92948 142.98167
144.0520 143.9672 139.0 0.00719 121.93645 143.16080
144.0690 143.9842 123.0 0.00813 121.94343 143.34111
144.0850 144.0002 148.0 0.00675 121.95000 143.51134
144.1020 144.0172 133.0 0.00752 121.95696 143.69255
144.1190 144.0342 151.0 0.00662 121.96394 143.87427
144.1360 144.0512 145.0 0.00690 121.97092 144.05576
144.1520 144.0672 132.0 0.00757 121.97747 144.22612
144.1690 144.0842 127.0 0.00787 121.98445 144.40691
144.1860 144.1012 149.0 0.00671 121.99142 144.58675
144.2020 144.1172 130.0 0.00769 121.99799 144.75499
144.2190 144.1342 109.0 0.00917 122.00497 144.93279
144.2360 144.1512 156.0 0.00641 122.01194 145.10922
144.2530 144.1682 157.0 0.00637 122.01891 145.28404
144.2690 144.1842 129.0 0.00775 122.02547 145.44705
144.2860 144.2012 126.0 0.00794 122.03245 145.61867
144.3030 144.2182 151.0 0.00662 122.03941 145.78830
144.3200 144.2352 151.0 0.00662 122.04639 145.95653
144.3360 144.2512 136.0 0.00736 122.05296 146.11314
144.3530 144.2682 151.0 0.00662 122.05992 146.27782
144.3700 144.2852 150.0 0.00666 122.06689 146.44125
144.3860 144.3012 144.0 0.00694 122.07346 146.59390
144.4030 144.3182 151.0 0.00662 122.08043 146.75481
144.4200 144.3352 161.0 0.00621 122.08741 146.91539
144.4370 144.3522 164.0 0.00609 122.09438 147.07564
144.4530 144.3682 131.0 0.00763 122.10094 147.22646
144.4700 144.3852 162.0 0.00617 122.10792 147.38765
144.4870 144.4022 147.0 0.00681 122.11489 147.55000
144.5030 144.4182 140.0 0.00715 122.12145 147.70445
144.5200 144.4352 152.0 0.00658 122.12843 147.87143
144.5370 144.4522 145.0 0.00690 122.13540 148.04160
144.5540 144.4692 155.0 0.00645 122.14238 148.21625
144.5700 144.4852 129.0 0.00775 122.14894 148.38524
144.5870 144.5022 151.0 0.00662 122.15591 148.57063
144.6040 144.5192 149.0 0.00671 122.16289 148.76334
144.6200 144.5352 148.0 0.00675 122.16945 148.95189
144.6370 144.5522 150.0 0.00666 122.17642 149.16110
144.6540 144.5692 141.0 0.00710 122.18340 149.38072
144.6710 144.5862 140.0 0.00715 122.19038 149.61160
144.6870 144.6022 145.0 0.00690 122.19693 149.84006
144.7040 144.6192 130.0 0.00769 122.20391 150.09644
144.7210 144.6362 150.0 0.00666 122.21088 150.36745
144.7380 144.6532 141.0 0.00710 122.21786 150.65450
144.7540 144.6692 156.0 0.00641 122.22442 150.94016
144.7710 144.6862 142.0 0.00704 122.23139 151.26173
144.7880 144.7032 135.0 0.00741 122.23837 151.60278
144.8040 144.7192 148.0 0.00675 122.24493 151.94264
144.8210 144.7362 158.0 0.00633 122.25190 152.32509
144.8380 144.7532 160.0 0.00625 122.25887 152.73021
144.8550 144.7702 144.0 0.00694 122.26585 153.16029
144.8710 144.7862 156.0 0.00641 122.27242 153.58821
144.8880 144.8032 163.0 0.00613 122.27938 154.06792
144.9050 144.8202 159.0 0.00629 122.28635 154.57616
144.9210 144.8362 134.0 0.00746 122.29292 155.08066
144.9380 144.8532 156.0 0.00641 122.29989 155.64485
144.9550 144.8702 168.0 0.00595 122.30687 156.24086
144.9720 144.8872 162.0 0.00617 122.31384 156.86855
144.9880 144.9032 152.0 0.00658 122.32040 157.48860
145.0050 144.9202 151.0 0.00662 122.32738 158.18134
145.0220 144.9372 159.0 0.00629 122.33435 158.90834
145.0380 144.9532 162.0 0.00617 122.34091 159.62436
145.0550 144.9702 155.0 0.00645 122.34789 160.42149
145.0720 144.9872 157.0 0.00637 122.35486 161.25482
145.0890 145.0042 166.0 0.00603 122.36184 162.12677
145.1050 145.0202 160.0 0.00625 122.36839 162.98174
145.1220 145.0372 157.0 0.00637 122.37537 163.92758
145.1390 145.0542 163.0 0.00613 122.38235 164.91383
145.1550 145.0702 137.0 0.00731 122.38891 165.87741
145.1720 145.0872 181.0 0.00553 122.39588 166.93964
145.1890 145.1042 156.0 0.00641 122.40286 168.04330
145.2060 145.1212 181.0 0.00553 122.40984 169.18649
145.2220 145.1372 173.0 0.00578 122.41639 170.29793
145.2390 145.1542 165.0 0.00606 122.42336 171.51953
145.2560 145.1712 157.0 0.00637 122.43034 172.78014
145.2730 145.1882 189.0 0.00529 122.43732 174.08006
145.2890 145.2042 190.0 0.00527 122.44388 175.33849
145.3060 145.2212 189.0 0.00529 122.45085 176.71310
145.3230 145.2382 161.0 0.00621 122.45782 178.12511
145.3390 145.2542 198.0 0.00505 122.46439 179.48691
145.3560 145.2712 170.0 0.00588 122.47136 180.96872
145.3730 145.2882 187.0 0.00535 122.47832 182.48305
145.3900 145.3052 164.0 0.00609 122.48531 184.03297
145.4060 145.3212 177.0 0.00565 122.49187 185.52002
145.4230 145.3382 183.0 0.00546 122.49884 187.12685
145.4400 145.3552 198.0 0.00505 122.50581 188.76465
145.4560 145.3712 177.0 0.00565 122.51238 190.32986
145.4730 145.3882 190.0 0.00527 122.51935 192.01418
145.4900 145.4052 186.0 0.00537 122.52633 193.72380
145.5070 145.4222 189.0 0.00529 122.53330 195.45255
145.5230 145.4382 203.0 0.00492 122.53986 197.09427
145.5400 145.4552 221.0 0.00452 122.54684 198.85614
145.5570 145.4722 221.0 0.00452 122.55381 200.62976
145.5730 145.4882 211.0 0.00474 122.56036 202.30652
145.5900 145.5052 209.0 0.00478 122.56734 204.09796
145.6070 145.5222 227.0 0.00440 122.57432 205.89148
145.6240 145.5392 213.0 0.00470 122.58130 207.68819
145.6400 145.5552 223.0 0.00449 122.58785 209.37576
145.6570 145.5722 209.0 0.00478 122.59483 211.16321
145.6740 145.5892 239.0 0.00418 122.60181 212.94386
145.6900 145.6052 230.0 0.00435 122.60837 214.60693
145.7070 145.6222 222.0 0.00450 122.61533 216.35814
145.7240 145.6392 241.0 0.00415 122.62231 218.09174
145.7410 145.6562 210.0 0.00476 122.62930 219.80087
145.7570 145.6722 238.0 0.00420 122.63584 221.38318
145.7740 145.6892 224.0 0.00446 122.64282 223.03683
145.7910 145.7062 235.0 0.00426 122.64980 224.65482
145.8080 145.7232 243.0 0.00411 122.65678 226.23412
145.8240 145.7392 245.0 0.00408 122.66334 227.68140
145.8410 145.7562 236.0 0.00424 122.67031 229.17517
145.8580 145.7732 247.0 0.00405 122.67728 230.61954
145.8740 145.7892 242.0 0.00413 122.68385 231.93018
145.8910 145.8062 267.0 0.00375 122.69082 233.26880
145.9080 145.8232 264.0 0.00379 122.69778 234.54683
145.9250 145.8402 271.0 0.00369 122.70477 235.76488
145.9410 145.8562 253.0 0.00395 122.71133 236.85141
145.9580 145.8732 257.0 0.00389 122.71830 237.93886
145.9750 145.8902 308.0 0.003247 122.72527 238.95811
145.9910 145.9062 277.0 0.00361 122.73184 239.85110
146.0080 145.9232 264.0 0.00379 122.73881 240.72665
146.0250 145.9402 288.0 0.003472 122.74578 241.52751
146.0420 145.9572 267.0 0.00375 122.75276 242.25006
146.0580 145.9732 266.0 0.00376 122.75932 242.85718
146.0750 145.9902 285.0 0.00351 122.76630 243.42500
146.0920 146.0072 267.0 0.00375 122.77326 243.91083
146.1080 146.0232 291.0 0.003436 122.77982 244.29221
146.1250 146.0402 295.0 0.003388 122.78680 244.61734
146.1420 146.0572 272.0 0.00368 122.79378 244.85837
146.1590 146.0742 269.0 0.00372 122.80075 245.01553
146.1750 146.0902 275.0 0.00364 122.80731 245.08646
146.1920 146.1072 281.0 0.00356 122.81429 245.08026
146.2090 146.1242 301.0 0.003322 122.82126 244.98996
146.2250 146.1402 279.0 0.00359 122.82783 244.82881
146.2420 146.1572 269.0 0.00372 122.83479 244.57704
146.2590 146.1742 250.0 0.00400 122.84177 244.24263
146.2760 146.1912 298.0 0.003357 122.84875 243.82678
146.2920 146.2072 273.0 0.00366 122.85530 243.36230
146.3090 146.2242 248.0 0.00403 122.86228 242.79083
146.3260 146.2412 284.0 0.00352 122.86926 242.14131
146.3430 146.2582 290.0 0.003448 122.87623 241.41502
146.3590 146.2742 278.0 0.00360 122.88280 240.66280
146.3760 146.2912 239.0 0.00418 122.88977 239.79172
146.3930 146.3082 275.0 0.00364 122.89674 238.84872
146.4090 146.3242 260.0 0.00385 122.90330 237.89778
146.4260 146.3412 256.0 0.00391 122.91028 236.82133
146.4430 146.3582 266.0 0.00376 122.91724 235.68091
146.4600 146.3752 261.0 0.00383 122.92422 234.47585
146.4760 146.3912 272.0 0.00368 122.93079 233.28729
146.4930 146.4082 276.0 0.00362 122.93775 231.97112
146.5100 146.4252 248.0 0.00403 122.94473 230.59891
146.5260 146.4412 264.0 0.00379 122.95129 229.26180
146.5430 146.4582 227.0 0.00440 122.95826 227.79776
146.5600 146.4752 242.0 0.00413 122.96524 226.28807
146.5770 146.4922 251.0 0.00399 122.97221 224.73997
146.5930 146.5082 238.0 0.00420 122.97878 223.25217
146.6100 146.5252 226.0 0.00443 122.98575 221.63834
146.6270 146.5422 225.0 0.00444 122.99272 219.99823
146.6430 146.5582 240.0 0.00417 122.99928 218.43483
146.6600 146.5752 219.0 0.00457 123.00626 216.75246
146.6770 146.5922 222.0 0.00450 123.01323 215.05675
146.6940 146.6092 234.0 0.00427 123.02021 213.34785
146.7100 146.6252 246.0 0.00407 123.02677 211.73415
146.7270 146.6422 214.0 0.00467 123.03374 210.01633
146.7440 146.6592 202.0 0.00495 123.04072 208.29631
146.7600 146.6752 224.0 0.00446 123.04728 206.68201
146.7770 146.6922 228.0 0.00439 123.05425 204.97334
146.7940 146.7092 231.0 0.00433 123.06123 203.27226
146.8110 146.7262 213.0 0.00470 123.06821 201.58459
146.8270 146.7422 224.0 0.00446 123.07476 200.01155
146.8440 146.7592 222.0 0.00450 123.08174 198.35463
146.8610 146.7762 196.0 0.00510 123.08871 196.71861
146.8780 146.7932 206.0 0.00486 123.09569 195.10445
146.8940 146.8092 199.0 0.00502 123.10225 193.60777
146.9110 146.8262 176.0 0.00568 123.10923 192.04169
146.9280 146.8432 213.0 0.00470 123.11620 190.50275
146.9440 146.8592 209.0 0.00478 123.12276 189.08096
146.9610 146.8762 203.0 0.00492 123.12973 187.59845
146.9780 146.8932 194.0 0.00515 123.13670 186.14839
146.9950 146.9102 187.0 0.00535 123.14368 184.72739
147.0110 146.9262 206.0 0.00486 123.15025 183.42004
147.0280 146.9432 176.0 0.00568 123.15721 182.06485
147.0450 146.9602 199.0 0.00502 123.16419 180.74081
147.0610 146.9762 170.0 0.00588 123.17075 179.52600
147.0780 146.9932 200.0 0.00500 123.17772 178.27014
147.0950 147.0102 166.0 0.00603 123.18470 177.04640
147.1120 147.0272 161.0 0.00621 123.19167 175.85773
147.1280 147.0432 183.0 0.00546 123.19823 174.77147
147.1450 147.0602 190.0 0.00527 123.20521 173.64880
147.1620 147.0772 179.0 0.00559 123.21218 172.56093
147.1780 147.0932 171.0 0.00585 123.21874 171.56905
147.1950 147.1102 197.0 0.00507 123.22572 170.54616
147.2120 147.1272 186.0 0.00537 123.23269 169.55785
147.2290 147.1442 180.0 0.00555 123.23967 168.60141
147.2450 147.1602 169.0 0.00592 123.24623 167.73177
147.2620 147.1772 156.0 0.00641 123.25320 166.83916
147.2790 147.1942 169.0 0.00592 123.26018 165.97713
147.2950 147.2102 189.0 0.00529 123.26674 165.19498
147.3120 147.2272 162.0 0.00617 123.27371 164.39369
147.3290 147.2442 167.0 0.00599 123.28069 163.62152
147.3460 147.2612 164.0 0.00609 123.28767 162.87917
147.3620 147.2772 175.0 0.00571 123.29422 162.20752
147.3790 147.2942 171.0 0.00585 123.30119 161.52003
147.3960 147.3112 184.0 0.00544 123.30817 160.86053
147.4130 147.3282 158.0 0.00633 123.31515 160.22786
147.4290 147.3442 172.0 0.00582 123.32171 159.65659
147.4460 147.3612 181.0 0.00553 123.32868 159.07414
147.4630 147.3782 157.0 0.00637 123.33566 158.51663
147.4790 147.3942 155.0 0.00645 123.34222 158.01418
147.4960 147.4112 186.0 0.00537 123.34919 157.50299
147.5130 147.4282 170.0 0.00588 123.35616 157.01532
147.5300 147.4452 144.0 0.00694 123.36314 156.54897
147.5460 147.4612 135.0 0.00741 123.36971 156.12981
147.5630 147.4782 151.0 0.00662 123.37667 155.70541
147.5800 147.4952 163.0 0.00613 123.38365 155.30054
147.5960 147.5112 152.0 0.00658 123.39021 154.93748
147.6130 147.5282 158.0 0.00633 123.39718 154.57063
147.6300 147.5452 138.0 0.00724 123.40416 154.22153
147.6470 147.5622 164.0 0.00609 123.41113 153.89029
147.6630 147.5782 149.0 0.00671 123.41769 153.59445
147.6800 147.5952 171.0 0.00585 123.42467 153.29567
147.6970 147.6122 149.0 0.00671 123.43164 153.01294
147.7130 147.6282 154.0 0.00649 123.43819 152.76108
147.7300 147.6452 139.0 0.00719 123.44518 152.50749
147.7470 147.6622 160.0 0.00625 123.45215 152.26833
147.7640 147.6792 154.0 0.00649 123.45913 152.04263
147.7800 147.6952 134.0 0.00746 123.46569 151.84241
147.7970 147.7122 145.0 0.00690 123.47266 151.64195
147.8140 147.7292 156.0 0.00641 123.47964 151.45348
147.8300 147.7452 145.0 0.00690 123.48620 151.28694
147.8470 147.7622 171.0 0.00585 123.49316 151.12088
147.8640 147.7792 149.0 0.00671 123.50014 150.96539
147.8810 147.7962 167.0 0.00599 123.50713 150.82040
147.8970 147.8122 157.0 0.00637 123.51368 150.69310
147.9140 147.8292 160.0 0.00625 123.52065 150.56688
147.9310 147.8462 149.0 0.00671 123.52763 150.44983
147.9480 147.8632 165.0 0.00606 123.53461 150.34151
147.9640 147.8792 143.0 0.00699 123.54117 150.24724
147.9810 147.8962 146.0 0.00685 123.54814 150.15486
147.9980 147.9132 152.0 0.00658 123.55511 150.07019
148.0140 147.9292 152.0 0.00658 123.56168 149.99725
148.0310 147.9462 141.0 0.00710 123.56865 149.92653
148.0480 147.9632 131.0 0.00763 123.57561 149.86273
148.0650 147.9802 143.0 0.00699 123.58260 149.80530
148.0810 147.9962 143.0 0.00699 123.58916 149.75697
148.0980 148.0132 156.0 0.00641 123.59613 149.71146
148.1150 148.0302 137.0 0.00731 123.60310 149.67155
148.1310 148.0462 169.0 0.00592 123.60967 149.63918
148.1480 148.0632 178.0 0.00562 123.61664 149.60980
148.1650 148.0802 127.0 0.00787 123.62361 149.58548
148.1820 148.0972 151.0 0.00662 123.63059 149.56604
148.1980 148.1132 141.0 0.00710 123.63715 149.55202
148.2150 148.1302 145.0 0.00690 123.64413 149.54144
148.2320 148.1472 139.0 0.00719 123.65110 149.53531
148.2480 148.1632 136.0 0.00736 123.65765 149.53325
148.2650 148.1802 168.0 0.00595 123.66463 149.53496
148.2820 148.1972 160.0 0.00625 123.67161 149.54053
148.2990 148.2142 139.0 0.00719 123.67859 149.54990
148.3150 148.2302 136.0 0.00736 123.68515 149.56194
148.3320 148.2472 150.0 0.00666 123.69212 149.57813
148.3490 148.2642 139.0 0.00719 123.69909 149.59773
148.3650 148.2802 145.0 0.00690 123.70566 149.61917
148.3820 148.2972 147.0 0.00681 123.71262 149.64496
148.3990 148.3142 154.0 0.00649 123.71960 149.67383
148.4160 148.3312 161.0 0.00621 123.72658 149.70575
148.4320 148.3472 165.0 0.00606 123.73314 149.73834
148.4490 148.3642 142.0 0.00704 123.74011 149.77577
148.4660 148.3812 127.0 0.00787 123.74709 149.81595
148.4820 148.3972 137.0 0.00731 123.75365 149.85614
148.4990 148.4142 143.0 0.00699 123.76063 149.90146
148.5160 148.4312 153.0 0.00654 123.76760 149.94931
148.5330 148.4482 139.0 0.00719 123.77457 149.99963
148.5490 148.4642 138.0 0.00724 123.78114 150.04924
148.5660 148.4812 143.0 0.00699 123.78811 150.10431
148.5830 148.4982 150.0 0.00666 123.79507 150.16158
148.6000 148.5152 153.0 0.00654 123.80206 150.22128
148.6160 148.5312 158.0 0.00633 123.80862 150.27954
148.6330 148.5482 127.0 0.00787 123.81559 150.34351
148.6500 148.5652 146.0 0.00685 123.82256 150.40979
148.6660 148.5812 134.0 0.00746 123.82912 150.47414
148.6830 148.5982 144.0 0.00694 123.83609 150.54440
148.7000 148.6152 140.0 0.00715 123.84307 150.61696
148.7170 148.6322 132.0 0.00757 123.85004 150.69157
148.7330 148.6482 151.0 0.00662 123.85661 150.76366
148.7500 148.6652 156.0 0.00641 123.86359 150.84222
148.7670 148.6822 175.0 0.00571 123.87055 150.92279
148.7830 148.6982 142.0 0.00704 123.87711 151.00044
148.8000 148.7152 168.0 0.00595 123.88409 151.08490
148.8170 148.7322 158.0 0.00633 123.89106 151.17125
148.8340 148.7492 145.0 0.00690 123.89804 151.25969
148.8500 148.7652 160.0 0.00625 123.90460 151.34459
148.8670 148.7822 163.0 0.00613 123.91158 151.43666
148.8840 148.7992 142.0 0.00704 123.91855 151.53078
148.9000 148.8152 124.0 0.00806 123.92511 151.62103
148.9170 148.8322 156.0 0.00641 123.93208 151.71877
148.9340 148.8492 151.0 0.00662 123.93906 151.81845
148.9510 148.8662 139.0 0.00719 123.94604 151.92001
148.9670 148.8822 148.0 0.00675 123.95260 152.01721
148.9840 148.8992 147.0 0.00681 123.95957 152.12248
149.0010 148.9162 143.0 0.00699 123.96655 152.22957
149.0180 148.9332 162.0 0.00617 123.97352 152.33855
149.0340 148.9492 162.0 0.00617 123.98008 152.44284
149.0510 148.9662 166.0 0.00603 123.98706 152.55550
149.0680 148.9832 150.0 0.00666 123.99403 152.67000
149.0840 148.9992 143.0 0.00699 124.00059 152.77943
149.1010 149.0162 132.0 0.00757 124.00757 152.89763
149.1180 149.0332 160.0 0.00625 124.01453 153.01752
149.1350 149.0502 146.0 0.00685 124.02151 153.13948
149.1510 149.0662 135.0 0.00741 124.02808 153.25601
149.1680 149.0832 137.0 0.00731 124.03504 153.38152
149.1850 149.1002 139.0 0.00719 124.04202 153.50908
149.2010 149.1162 148.0 0.00675 124.04858 153.63086
149.2180 149.1332 154.0 0.00649 124.05555 153.76193
149.2350 149.1502 199.0 0.00502 124.06253 153.89513
149.2520 149.1672 123.0 0.00813 124.06950 154.03018
149.2680 149.1832 162.0 0.00617 124.07607 154.15895
149.2850 149.2002 123.0 0.00813 124.08305 154.29785
149.3020 149.2172 140.0 0.00715 124.09001 154.43861
149.3180 149.2332 158.0 0.00633 124.09657 154.57278
149.3350 149.2502 138.0 0.00724 124.10355 154.71745
149.3520 149.2672 152.0 0.00658 124.11052 154.86392
149.3690 149.2842 143.0 0.00699 124.11750 155.01257
149.3850 149.3002 158.0 0.00633 124.12406 155.15413
149.4020 149.3172 150.0 0.00666 124.13103 155.30658
149.4190 149.3342 131.0 0.00763 124.13801 155.46114
149.4350 149.3502 159.0 0.00629 124.14457 155.60832
149.4520 149.3672 146.0 0.00685 124.15154 155.76671
149.4690 149.3842 158.0 0.00633 124.15852 155.92732
149.4860 149.4012 164.0 0.00609 124.16550 156.08989
149.5020 149.4172 135.0 0.00741 124.17205 156.24472
149.5190 149.4342 152.0 0.00658 124.17902 156.41156
149.5360 149.4512 164.0 0.00609 124.18600 156.58038
149.5530 149.4682 166.0 0.00603 124.19298 156.75137
149.5690 149.4842 160.0 0.00625 124.19954 156.91415
149.5860 149.5012 126.0 0.00794 124.20651 157.08934
149.6030 149.5182 121.0 0.00826 124.21349 157.26672
149.6190 149.5342 151.0 0.00662 124.22005 157.43564
149.6360 149.5512 149.0 0.00671 124.22702 157.61732
149.6530 149.5682 143.0 0.00699 124.23399 157.80109
149.6700 149.5852 160.0 0.00625 124.24097 157.98743
149.6860 149.6012 150.0 0.00666 124.24754 158.16484
149.7030 149.6182 168.0 0.00595 124.25450 158.35541
149.7200 149.6352 146.0 0.00685 124.26148 158.54852
149.7360 149.6512 158.0 0.00633 124.26804 158.73244
149.7530 149.6682 163.0 0.00613 124.27501 158.92989
149.7700 149.6852 147.0 0.00681 124.28199 159.13004
149.7870 149.7022 145.0 0.00690 124.28896 159.33258
149.8030 149.7182 157.0 0.00637 124.29552 159.52521
149.8200 149.7352 147.0 0.00681 124.30251 159.73260
149.8370 149.7522 164.0 0.00609 124.30947 159.94244
149.8530 149.7682 169.0 0.00592 124.31602 160.14203
149.8700 149.7852 162.0 0.00617 124.32301 160.35690
149.8870 149.8022 155.0 0.00645 124.32998 160.57414
149.9040 149.8192 149.0 0.00671 124.33696 160.79425
149.9200 149.8352 151.0 0.00662 124.34352 161.00357
149.9370 149.8522 166.0 0.00603 124.35049 161.22858
149.9540 149.8692 163.0 0.00613 124.35747 161.45656
149.9700 149.8852 189.0 0.00529 124.36403 161.67342
149.9870 149.9022 154.0 0.00649 124.37100 161.90651
150.0040 149.9192 153.0 . . .
150.0210 149.9362 147.0 . . .
150.0370 149.9522 159.0 . . .
150.0540 149.9692 160.0 . . .
150.0710 149.9862 160.0 . . .
150.0880 150.0032 154.0 . . .
150.1040 150.0192 156.0 . . .
150.1210 150.0362 149.0 . . .
150.1380 150.0532 159.0 . . .
150.1540 150.0692 155.0 . . .
150.1710 150.0862 151.0 . . .
150.1880 150.1032 150.0 . . .
150.2050 150.1202 139.0 . . .
150.2210 150.1362 159.0 . . .
150.2380 150.1532 164.0 . . .
150.2550 150.1702 160.0 . . .
150.2710 150.1862 161.0 . . .
150.2880 150.2032 160.0 . . .
150.3050 150.2202 142.0 . . .
150.3220 150.2372 161.0 . . .
150.3380 150.2532 180.0 . . .
150.3550 150.2702 165.0 . . .
150.3720 150.2872 175.0 . . .
150.3880 150.3032 145.0 . . .
150.4050 150.3202 175.0 . . .
150.4220 150.3372 160.0 . . .
150.4390 150.3542 182.0 . . .
150.4550 150.3702 174.0 . . .
150.4720 150.3872 165.0 . . .
150.4890 150.4042 156.0 . . .
150.5050 150.4202 160.0 . . .
150.5220 150.4372 162.0 . . .
150.5390 150.4542 170.0 . . .
150.5560 150.4712 180.0 . . .
150.5720 150.4872 166.0 . . .
150.5890 150.5042 155.0 . . .
150.6060 150.5212 169.0 . . .
150.6230 150.5382 162.0 . . .
150.6390 150.5542 161.0 . . .
150.6560 150.5712 155.0 . . .
150.6730 150.5882 164.0 . . .
150.6890 150.6042 183.0 . . .
150.7060 150.6212 151.0 . . .
150.7230 150.6382 166.0 . . .
150.7400 150.6552 154.0 . . .
150.7560 150.6712 175.0 . . .
150.7730 150.6882 176.0 . . .
150.7900 150.7052 149.0 . . .
150.8060 150.7212 152.0 . . .
150.8230 150.7382 165.0 . . .
150.8400 150.7552 191.0 . . .
150.8570 150.7722 177.0 . . .
150.8730 150.7882 149.0 . . .
150.8900 150.8052 174.0 . . .
150.9070 150.8222 157.0 . . .
150.9230 150.8382 158.0 . . .
150.9400 150.8552 179.0 . . .
150.9570 150.8722 154.0 . . .
150.9740 150.8892 181.0 . . .
150.9900 150.9052 158.0 . . .
151.0070 150.9222 156.0 . . .
151.0240 150.9392 171.0 . . .
151.0400 150.9552 138.0 . . .
151.0570 150.9722 184.0 . . .
151.0740 150.9892 155.0 . . .
151.0910 151.0062 174.0 . . .
151.1070 151.0222 161.0 . . .
151.1240 151.0392 161.0 . . .
151.1410 151.0562 180.0 . . .
151.1580 151.0732 207.0 . . .
151.1740 151.0892 185.0 . . .
151.1910 151.1062 160.0 . . .
151.2080 151.1232 180.0 . . .
151.2240 151.1392 194.0 . . .
151.2410 151.1562 172.0 . . .
151.2580 151.1732 179.0 . . .
151.2750 151.1902 171.0 . . .
151.2910 151.2062 177.0 . . .
151.3080 151.2232 166.0 . . .
151.3250 151.2402 176.0 . . .
151.3410 151.2562 169.0 . . .
151.3580 151.2732 174.0 . . .
151.3750 151.2902 178.0 . . .
151.3920 151.3072 189.0 . . .
151.4080 151.3232 203.0 . . .
151.4250 151.3402 190.0 . . .
151.4420 151.3572 156.0 . . .
151.4580 151.3732 181.0 . . .
151.4750 151.3902 211.0 . . .
151.4920 151.4072 155.0 . . .
151.5090 151.4242 214.0 . . .
151.5250 151.4402 207.0 . . .
151.5420 151.4572 170.0 . . .
loop_
_refln_index_h
_refln_index_k
_refln_index_l
_refln_observed_status
_refln_F_squared_meas
_refln_F_squared_calc
_refln_phase_calc
_refln_d_spacing
_gsas_i100_meas
0 0 2 o 17872.113 18479.738 0.00 4.03346 10.79
1 1 0 o 11926.888 12640.981 0.00 4.02369 18.00
2 0 0 o 60511.88 60237.70 0.00 2.84518 69.82
1 1 2 o 68675.04 68467.80 0.00 2.84862 100.00
2 1 1 o 510.748 130.297 0.00 2.42691 1.47
2 0 2 o 1499.669 2108.220 0.00 2.32495 0.46
2 2 0 o 89170.37 81764.53 0.00 2.01184 36.22
0 0 4 o 90946.43 83668.24 0.00 2.01673 13.86
2 1 3 o 277.416 80.869 0.00 1.84831 0.36
3 1 0 o 8769.058 9047.524 0.00 1.79945 5.16
2 2 2 o 10343.021 10751.225 0.00 1.80032 4.87
1 1 4 o 8354.724 8557.290 0.00 1.80294 3.20
3 1 2 o 50053.69 49285.91 0.00 1.64333 49.96
2 0 4 o 44555.56 43927.82 0.00 1.64532 17.47
3 2 1 o 12.069 44.554 0.00 1.54886 0.01
4 0 0 o 55218.66 55391.69 0.00 1.42259 13.05
2 2 4 o 55418.84 56437.46 0.00 1.42431 16.37
4 1 1 o 151.660 141.087 180.00 1.36035 0.14
3 2 3 o 34.041 31.925 0.00 1.36110 0.02
2 1 5 o 43.402 39.013 0.00 1.36261 0.03
3 3 0 o 5773.950 5861.114 0.00 1.34123 0.67
0 0 6 o 8133.149 8100.836 0.00 1.34449 0.38
4 0 2 o 7277.894 7416.856 0.00 1.34159 2.06
3 1 4 o 6634.097 6733.932 0.00 1.34267 2.80
4 2 0 o 36575.97 35460.65 0.00 1.27240 10.67
3 3 2 o 36747.24 35701.62 0.00 1.27271 9.39
1 1 6 o 38070.71 37054.27 0.00 1.27518 7.77
4 1 3 o 59.399 106.048 180.00 1.22783 0.04
4 2 2 o 2729.079 2705.770 0.00 1.21345 0.87
2 0 6 o 2518.271 2394.817 0.00 1.21560 0.30
4 0 4 o 42789.13 41919.08 0.00 1.16248 9.40
4 3 1 o 84.243 67.813 0.00 1.12691 0.04
5 1 0 o 4849.515 4811.355 0.00 1.11597 1.01
3 2 5 o 25.757 18.730 0.00 1.12820 0.01
2 2 6 o 5980.335 5899.963 0.00 1.11784 0.82
3 3 4 o 4651.247 4618.519 0.00 1.11680 0.67
5 1 2 o 28843.365 29213.078 0.00 1.07556 13.56
4 2 4 o 28251.057 28607.146 0.00 1.07612 10.51
3 1 6 o 29940.115 30169.225 0.00 1.07705 9.88
5 2 1 o 11.253 9.667 180.00 1.04772 0.01
4 3 3 o 63.249 54.627 0.00 1.04807 0.03
4 1 5 o 74.743 66.687 180.00 1.04875 0.03
2 1 7 o 19.273 18.412 0.00 1.04979 0.01
4 4 0 o 34051.090 32545.303 0.00 1.00592 3.41
0 0 8 o 36656.06 34324.980 0.00 1.00837 1.38
5 3 0 o 4767.871 4566.600 0.00 0.97589 0.79
5 2 3 o 7.716 7.986 180.00 0.98346 0.00
4 4 2 o 4421.438 4242.636 0.00 0.97603 0.67
1 1 8 o 4217.014 4022.356 0.00 0.97812 0.48
5 1 4 o 4035.585 3876.078 0.00 0.97644 1.23
4 0 6 o 4711.220 4506.447 0.00 0.97714 0.64
6 0 0 o 24168.447 24289.609 0.00 0.94839 3.27
5 3 2 o 25541.199 25717.047 0.00 0.94852 10.52
2 0 8 o 23169.438 23046.975 0.00 0.95044 3.52
3 3 6 o 23689.639 23792.748 0.00 0.94954 3.98
6 1 1 o 91.202 88.238 0.00 0.92926 0.06
6 0 2 o 2412.370 2201.327 0.00 0.92321 0.43
3 2 7 o 9.165 10.498 0.00 0.93070 0.00
4 3 5 o 36.243 38.048 0.00 0.92998 0.02
4 2 6 o 2211.582 2014.781 0.00 0.92416 0.53
6 2 0 o 26235.945 26364.977 0.00 0.89972 7.02
4 4 4 o 26539.164 26728.543 0.00 0.90016 5.51
2 2 8 o 27360.783 27709.488 0.00 0.90147 4.77
5 4 1 o 20.508 20.930 0.00 0.88334 0.01
6 1 3 o 72.788 75.666 0.00 0.88355 0.05
6 2 2 o 3671.884 3362.653 0.00 0.87814 1.55
5 2 5 o 5.307 5.774 180.00 0.88396 0.00
4 1 7 o 33.672 39.800 180.00 0.88458 0.02
5 3 4 o 4083.262 3733.128 0.00 0.87845 1.49
3 1 8 o 3707.453 3426.256 0.00 0.87966 1.08
6 0 4 o 20579.186 20387.500 0.00 0.85823 5.75
5 1 6 o 20255.488 20254.928 0.00 0.85870 9.45
6 3 1 o 65.460 53.911 180.00 0.84362 0.05
5 4 3 o 21.970 18.194 0.00 0.84380 0.02
2 1 9 o 10.673 9.539 0.00 0.84542 0.01
7 1 0 o 3173.552 2931.421 0.00 0.80474 1.33
6 2 4 o 22191.992 22075.613 0.00 0.82166 15.70
5 5 0 o 2508.151 2325.326 0.00 0.80474 0.37
6 3 3 o 44.206 47.385 180.00 0.80897 0.05
4 0 8 o 22464.896 22847.811 0.00 0.82266 6.23
0 0 10 o 3417.064 3286.751 0.00 0.80669 0.20
6 1 5 o 53.258 57.803 0.00 0.80929 0.05
4 3 7 o 22.720 24.911 0.00 0.80976 0.02
4 4 6 o 3182.624 2920.414 0.00 0.80544 0.89
3 3 8 o 2791.225 2604.497 0.00 0.80599 0.68
