#------------------------------------------------------------------------------
#$Date: 2016-03-25 23:14:46 +0200 (Fri, 25 Mar 2016) $
#$Revision: 180031 $
#$URL: svn://www.crystallography.net/cod/cif/7/03/25/7032565.cif $
#------------------------------------------------------------------------------
#
# This file is available in the Crystallography Open Database (COD),
# http://www.crystallography.net/
#
# All data on this site have been placed in the public domain by the
# contributors.
#
data_7032565
loop_
_publ_author_name
'Kim, Jung-Mi'
'Kim, Young-Il'
'Park, Chee-Sung'
'Park, Cheol-Hee'
_publ_section_title
;
 Transformation of a layered perovskite to a defect perovskite via
 cooperative Li-insertion and O/N substitution.
;
_journal_issue                   44
_journal_name_full
'Dalton transactions (Cambridge, England : 2003)'
_journal_page_first              16830
_journal_page_last               16837
_journal_paper_doi               10.1039/c4dt02335h
_journal_volume                  43
_journal_year                    2014
_chemical_formula_sum            'Li0.68 N2.96 O7.52 Sr3.32 Ta3.32'
_chemical_formula_weight         1058.14
_chemical_name_systematic        ' ?'
_space_group_IT_number           140
_symmetry_cell_setting           tetragonal
_symmetry_space_group_name_Hall  '-I 4 2c'
_symmetry_space_group_name_H-M   'I 4/m c m'
_audit_creation_date             2014-07-31T15:01
_audit_creation_method           'from EXP file using GSAS2CIF'
_audit_update_record
' 2014-07-31T15:01  Initial CIF as created by GSAS2CIF'
_cell_angle_alpha                90.0
_cell_angle_beta                 90.0
_cell_angle_gamma                90.0
_cell_formula_units_Z            1
_cell_length_a                   5.69444(5)
_cell_length_b                   5.69444
_cell_length_c                   8.06977(15)
_cell_volume                     261.676(5)
_computing_structure_refinement  GSAS
_diffrn_radiation_polarisn_ratio 0.582
_diffrn_radiation_probe          x-ray
_diffrn_radiation_wavelength     1.5406
_exptl_absorpt_correction_T_max  1.00000
_exptl_absorpt_correction_T_min  1.00000
_exptl_absorpt_process_details
;   GSAS Absorption/surface roughness correction: function number 0
 No correction is applied.
;
_pd_block_id                     2014-07-31T15:01|LI02CIF|Young-Il_Kim|X-ray_Cu
_pd_calc_method                  'Rietveld Refinement'
_pd_instr_location               ' ?'
_pd_meas_number_of_points        8168
_pd_phase_name                   I4/mcm
_pd_proc_info_datetime           2014-07-31T15:01:29
_pd_proc_info_excluded_regions   ' ?'
_pd_proc_ls_background_function
;   GSAS Background function number 7 with 16 terms.
 Linear interpolation
      1:    135.897     2:    146.621     3:    113.291     4:    112.412    
      5:    90.5216     6:    116.687     7:    69.9302     8:    86.4843    
      9:    80.4945    10:    84.7202    11:    88.4800    12:    84.5038    
     13:    107.678    14:    121.570    15:    135.494    16:    130.682    
;
_pd_proc_ls_peak_cutoff          0.00050
_pd_proc_ls_pref_orient_corr
;   March-Dollase
 AXIS  1 Ratio=     0.728 Frac     0.500  h= 1.000  k= 0.000  l= 0.000
 AXIS  2 Ratio=     0.981 Frac     0.500  h= 0.000  k= 0.000  l= 1.000
 Prefered orientation correction range: Min=   0.83972, Max=   1.28972
;
_pd_proc_ls_profile_function
;
 CW Profile function number 3 with  19 terms
 Pseudovoigt profile coefficients as parameterized in
 P. Thompson, D.E. Cox & J.B. Hastings (1987). J. Appl. Cryst.,20,79-83.
 Asymmetry correction of L.W. Finger, D.E. Cox & A. P. Jephcoat (1994).
 J. Appl. Cryst.,27,892-900.
 Peak tails are ignored  where the intensity is below 0.0005 times the peak
   Aniso. broadening axis   0.0   0.0   1.0
;
_pd_proc_ls_prof_R_factor        0.0638
_pd_proc_ls_prof_wR_expected     0.0475
_pd_proc_ls_prof_wR_factor       0.0888
_pd_proc_number_of_points        8168
_pd_spec_mounting                ' ?'
_refine_ls_goodness_of_fit_all   1.87
_refine_ls_matrix_type           full
_refine_ls_number_parameters     30
_refine_ls_number_restraints     0
_refine_ls_R_Fsqd_factor         0.02892
_refine_ls_shift/su_max          0.06
_refine_ls_shift/su_mean         0.00
_reflns_d_resolution_high        0.805
_reflns_d_resolution_low         4.035
_reflns_limit_h_max              7
_reflns_limit_h_min              0
_reflns_limit_k_max              5
_reflns_limit_k_min              0
_reflns_limit_l_max              10
_reflns_limit_l_min              0
_reflns_number_total             85
_cod_data_source_file            c4dt02335h2.cif
_cod_data_source_block           LI02CIF_publ
_cod_depositor_comments
;
The following automatic conversions were performed:

'_geom_bond_publ_flag' value 'N' changed to 'n' according to
/usr/data/users/saulius/crontab/automatic-downloads/rss-feeds/RSC/lib/dictionaries/cif_core.dic
dictionary named 'cif_core.dic' version 2.4.2 from 2011-04-26 (118
times).

'_geom_angle_publ_flag' value 'N' changed to 'n' according
to
/usr/data/users/saulius/crontab/automatic-downloads/rss-feeds/RSC/lib/dictionaries/cif_core.dic
dictionary named 'cif_core.dic' version 2.4.2 from 2011-04-26 (792
times).

Automatic conversion script
Id: cif_fix_values 2281 2013-09-26 08:29:07Z andrius 

 Adding full bibliography for 7032562--7032565.cif.
;
_cod_original_cell_volume        261.676(4)
_cod_database_code               7032565
#BEGIN Tags that were not found in dictionaries:
_gsas_exptl_extinct_corr_t_min   1.00000
_gsas_exptl_extinct_corr_t_max   1.00000
#END Tags that were not found in dictionaries
loop_
_symmetry_equiv_pos_site_id
_symmetry_equiv_pos_as_xyz
1 +x,+y,+z
2 -y,+x,+z
3 -x,-y,+z
4 +y,-x,+z
5 -x,+y,+z+1/2
6 -y,-x,+z+1/2
7 +x,-y,+z+1/2
8 +y,+x,+z+1/2
-1 -x,-y,-z
-2 +y,-x,-z
-3 +x,+y,-z
-4 -y,+x,-z
-5 +x,-y,-z+1/2
-6 +y,+x,-z+1/2
-7 -x,+y,-z+1/2
-8 -y,-x,-z+1/2
101 +x+1/2,+y+1/2,+z+1/2
102 -y+1/2,+x+1/2,+z+1/2
103 -x+1/2,-y+1/2,+z+1/2
104 +y+1/2,-x+1/2,+z+1/2
105 -x+1/2,+y+1/2,+z
106 -y+1/2,-x+1/2,+z
107 +x+1/2,-y+1/2,+z
108 +y+1/2,+x+1/2,+z
-101 -x+1/2,-y+1/2,-z+1/2
-102 +y+1/2,-x+1/2,-z+1/2
-103 +x+1/2,+y+1/2,-z+1/2
-104 -y+1/2,+x+1/2,-z+1/2
-105 +x+1/2,-y+1/2,-z
-106 +y+1/2,+x+1/2,-z
-107 -x+1/2,+y+1/2,-z
-108 -y+1/2,-x+1/2,-z
loop_
_atom_site_type_symbol
_atom_site_label
_atom_site_fract_x
_atom_site_fract_y
_atom_site_fract_z
_atom_site_occupancy
_atom_site_thermal_displace_type
_atom_site_U_iso_or_equiv
_atom_site_symmetry_multiplicity
Sr Sr 0.0 0.5 0.25 0.83 Uiso 0.00570(13) 4
Ta Ta 0.0 0.0 0.0 0.83 Uiso 0.00455(9) 4
Li Li 0.0 0.0 0.0 0.17 Uiso 0.00455(9) 4
O O1 0.0 0.0 0.25 0.44 Uiso 0.0093(8) 4
N N1 0.0 0.0 0.25 0.18 Uiso 0.0093(8) 4
O O2 0.7721(7) 0.2721(7) 0.0 0.72 Uiso 0.0093(8) 8
N N2 0.7721(7) 0.2721(7) 0.0 0.28 Uiso 0.0093(8) 8
loop_
_atom_type_symbol
_atom_type_number_in_cell
_atom_type_scat_dispersion_real
_atom_type_scat_dispersion_imag
_atom_type_scat_Cromer_Mann_a1
_atom_type_scat_Cromer_Mann_a2
_atom_type_scat_Cromer_Mann_a3
_atom_type_scat_Cromer_Mann_a4
_atom_type_scat_Cromer_Mann_b1
_atom_type_scat_Cromer_Mann_b2
_atom_type_scat_Cromer_Mann_b3
_atom_type_scat_Cromer_Mann_b4
_atom_type_scat_Cromer_Mann_c
_atom_type_scat_source
Sr 3.32 0.000 0.000 17.5663 1.55640 9.81840 14.0988 5.42200 0.16640 2.66940
132.376 2.50640 International_Tables_Vol_C
Ta 3.32 0.000 0.000 29.2024 1.77333 15.2293 9.37046 14.5135 0.29598 4.76492
63.3644 9.24354 International_Tables_Vol_C
Li 0.68 0.000 0.000 1.12820 3.95460 0.75080 1.05240 0.61750 85.3905 0.46530
168.261 0.03770 International_Tables_Vol_C
O 7.52 0.000 0.000 3.04850 13.2771 2.28680 5.70110 1.54630 0.32390 0.86700
32.9089 0.25080 International_Tables_Vol_C
N 2.96 0.000 0.000 12.2126 0.00570 3.13220 9.89330 2.01250 28.9975 1.16630
0.58260 -11.529 International_Tables_Vol_C
loop_
_geom_angle_atom_site_label_1
_geom_angle_atom_site_label_2
_geom_angle_atom_site_label_3
_geom_angle
_geom_angle_site_symmetry_1
_geom_angle_site_symmetry_3
_geom_angle_publ_flag
Sr Sr Sr 90.0 2_555 2_565 n
Sr Sr Sr 90.0 2_555 2_655 n
Sr Sr Sr 180.0 2_555 2_665 n
Sr Sr Sr 90.0 2_555 5_554 n
Sr Sr Sr 90.0 2_555 5_555 n
Sr Sr Ta 54.76350(30) 2_555 1_555 n
Sr Sr Ta 125.23650(30) 2_555 1_565 n
Sr Sr Ta 54.76350(30) 2_555 5_555 n
Sr Sr Ta 125.23650(30) 2_555 5_565 n
Sr Sr Ta 54.76350(30) 2_555 101_455 n
Sr Sr Ta 125.23650(30) 2_555 101_555 n
Sr Sr Ta 54.76350(30) 2_555 105_453 n
Sr Sr Ta 125.23650(30) 2_555 105_553 n
Sr Sr Li 54.76350(30) 2_555 1_555 n
Sr Sr Li 125.23650(30) 2_555 1_565 n
Sr Sr Li 54.76350(30) 2_555 5_555 n
Sr Sr Li 125.23650(30) 2_555 5_565 n
Sr Sr Li 54.76350(30) 2_555 101_455 n
Sr Sr Li 125.23650(30) 2_555 101_555 n
Sr Sr Li 54.76350(30) 2_555 105_453 n
Sr Sr Li 125.23650(30) 2_555 105_553 n
Sr Sr O1 45.0 2_555 1_555 n
Sr Sr O1 135.0 2_555 1_565 n
Sr Sr O1 45.0 2_555 105_453 n
Sr Sr Sr 180.0 2_565 2_655 n
Sr Sr Sr 90.0 2_565 2_665 n
Sr Sr Sr 90.0 2_565 5_554 n
Sr Sr Sr 90.0 2_565 5_555 n
Sr Sr Ta 125.23650(30) 2_565 1_555 n
Sr Sr Ta 54.76350(30) 2_565 1_565 n
Sr Sr Ta 125.23650(30) 2_565 5_555 n
Sr Sr Ta 54.76350(30) 2_565 5_565 n
Sr Sr Ta 54.76350(30) 2_565 101_455 n
Sr Sr Ta 125.23650(30) 2_565 101_555 n
Sr Sr Ta 54.76350(30) 2_565 105_453 n
Sr Sr Ta 125.23650(30) 2_565 105_553 n
Sr Sr Li 125.23650(30) 2_565 1_555 n
Sr Sr Li 54.76350(30) 2_565 1_565 n
Sr Sr Li 125.23650(30) 2_565 5_555 n
Sr Sr Li 54.76350(30) 2_565 5_565 n
Sr Sr Li 54.76350(30) 2_565 101_455 n
Sr Sr Li 125.23650(30) 2_565 101_555 n
Sr Sr Li 54.76350(30) 2_565 105_453 n
Sr Sr Li 125.23650(30) 2_565 105_553 n
Sr Sr O1 135.0 2_565 1_555 n
Sr Sr O1 45.0 2_565 1_565 n
Sr Sr O1 45.0 2_565 105_453 n
Sr Sr Sr 90.0 2_655 2_665 n
Sr Sr Sr 90.0 2_655 5_554 n
Sr Sr Sr 90.0 2_655 5_555 n
Sr Sr Ta 54.76350(30) 2_655 1_555 n
Sr Sr Ta 125.23650(30) 2_655 1_565 n
Sr Sr Ta 54.76350(30) 2_655 5_555 n
Sr Sr Ta 125.23650(30) 2_655 5_565 n
Sr Sr Ta 125.23650(30) 2_655 101_455 n
Sr Sr Ta 54.76350(30) 2_655 101_555 n
Sr Sr Ta 125.23650(30) 2_655 105_453 n
Sr Sr Ta 54.76350(30) 2_655 105_553 n
Sr Sr Li 54.76350(30) 2_655 1_555 n
Sr Sr Li 125.23650(30) 2_655 1_565 n
Sr Sr Li 54.76350(30) 2_655 5_555 n
Sr Sr Li 125.23650(30) 2_655 5_565 n
Sr Sr Li 125.23650(30) 2_655 101_455 n
Sr Sr Li 54.76350(30) 2_655 101_555 n
Sr Sr Li 125.23650(30) 2_655 105_453 n
Sr Sr Li 54.76350(30) 2_655 105_553 n
Sr Sr O1 45.0 2_655 1_555 n
Sr Sr O1 135.0 2_655 1_565 n
Sr Sr O1 135.0 2_655 105_453 n
Sr Sr Sr 90.0 2_665 5_554 n
Sr Sr Sr 90.0 2_665 5_555 n
Sr Sr Ta 125.23650(30) 2_665 1_555 n
Sr Sr Ta 54.76350(30) 2_665 1_565 n
Sr Sr Ta 125.23650(30) 2_665 5_555 n
Sr Sr Ta 54.76350(30) 2_665 5_565 n
Sr Sr Ta 125.23650(30) 2_665 101_455 n
Sr Sr Ta 54.76350(30) 2_665 101_555 n
Sr Sr Ta 125.23650(30) 2_665 105_453 n
Sr Sr Ta 54.76350(30) 2_665 105_553 n
Sr Sr Li 125.23650(30) 2_665 1_555 n
Sr Sr Li 54.76350(30) 2_665 1_565 n
Sr Sr Li 125.23650(30) 2_665 5_555 n
Sr Sr Li 54.76350(30) 2_665 5_565 n
Sr Sr Li 125.23650(30) 2_665 101_455 n
Sr Sr Li 54.76350(30) 2_665 101_555 n
Sr Sr Li 125.23650(30) 2_665 105_453 n
Sr Sr Li 54.76350(30) 2_665 105_553 n
Sr Sr O1 135.0 2_665 1_555 n
Sr Sr O1 45.0 2_665 1_565 n
Sr Sr O1 135.0 2_665 105_453 n
Sr Sr Sr 180.0 5_554 5_555 n
Sr Sr Ta 54.6799(6) 5_554 1_555 n
Sr Sr Ta 54.6799(6) 5_554 1_565 n
Sr Sr Ta 125.3201(6) 5_554 5_555 n
Sr Sr Ta 125.3201(6) 5_554 5_565 n
Sr Sr Ta 125.3201(6) 5_554 101_455 n
Sr Sr Ta 125.3201(6) 5_554 101_555 n
Sr Sr Ta 54.6799(6) 5_554 105_453 n
Sr Sr Ta 54.6799(6) 5_554 105_553 n
Sr Sr Li 54.6799(6) 5_554 1_555 n
Sr Sr Li 54.6799(6) 5_554 1_565 n
Sr Sr Li 125.3201(6) 5_554 5_555 n
Sr Sr Li 125.3201(6) 5_554 5_565 n
Sr Sr Li 125.3201(6) 5_554 101_455 n
Sr Sr Li 125.3201(6) 5_554 101_555 n
Sr Sr Li 54.6799(6) 5_554 105_453 n
Sr Sr Li 54.6799(6) 5_554 105_553 n
Sr Sr O1 90.0 5_554 1_555 n
Sr Sr O1 90.0 5_554 1_565 n
Sr Sr O1 90.0 5_554 105_453 n
Sr Sr Ta 125.3201(6) 5_555 1_555 n
Sr Sr Ta 125.3201(6) 5_555 1_565 n
Sr Sr Ta 54.6799(6) 5_555 5_555 n
Sr Sr Ta 54.6799(6) 5_555 5_565 n
Sr Sr Ta 54.6799(6) 5_555 101_455 n
Sr Sr Ta 54.6799(6) 5_555 101_555 n
Sr Sr Ta 125.3201(6) 5_555 105_453 n
Sr Sr Ta 125.3201(6) 5_555 105_553 n
Sr Sr Li 125.3201(6) 5_555 1_555 n
Sr Sr Li 125.3201(6) 5_555 1_565 n
Sr Sr Li 54.6799(6) 5_555 5_555 n
Sr Sr Li 54.6799(6) 5_555 5_565 n
Sr Sr Li 54.6799(6) 5_555 101_455 n
Sr Sr Li 54.6799(6) 5_555 101_555 n
Sr Sr Li 125.3201(6) 5_555 105_453 n
Sr Sr Li 125.3201(6) 5_555 105_553 n
Sr Sr O1 90.0 5_555 1_555 n
Sr Sr O1 90.0 5_555 1_565 n
Sr Sr O1 90.0 5_555 105_453 n
Ta Sr Ta 109.3598(11) 1_555 1_565 n
Ta Sr Ta 70.6402(11) 1_555 5_555 n
Ta Sr Ta 180.0 1_555 5_565 n
Ta Sr Ta 109.5269(6) 1_555 101_455 n
Ta Sr Ta 109.5269(6) 1_555 101_555 n
Ta Sr Ta 70.4731(6) 1_555 105_453 n
Ta Sr Ta 70.4731(6) 1_555 105_553 n
Ta Sr Li 0.0 1_555 1_555 n
Ta Sr Li 109.3598(11) 1_555 1_565 n
Ta Sr Li 70.6402(11) 1_555 5_555 n
Ta Sr Li 180.0 1_555 5_565 n
Ta Sr Li 109.5269(6) 1_555 101_455 n
Ta Sr Li 109.5269(6) 1_555 101_555 n
Ta Sr Li 70.4731(6) 1_555 105_453 n
Ta Sr Li 70.4731(6) 1_555 105_553 n
Ta Sr O1 35.3201(6) 1_555 1_555 n
Ta Sr O1 144.6799(6) 1_555 1_565 n
Ta Sr O1 90.0 1_555 105_453 n
Ta Sr Ta 180.0 1_565 5_555 n
Ta Sr Ta 70.6402(11) 1_565 5_565 n
Ta Sr Ta 109.5269(6) 1_565 101_455 n
Ta Sr Ta 109.5269(6) 1_565 101_555 n
Ta Sr Ta 70.4731(6) 1_565 105_453 n
Ta Sr Ta 70.4731(6) 1_565 105_553 n
Ta Sr Li 109.3598(11) 1_565 1_555 n
Ta Sr Li 0.0 1_565 1_565 n
Ta Sr Li 180.0 1_565 5_555 n
Ta Sr Li 70.6402(11) 1_565 5_565 n
Ta Sr Li 109.5269(6) 1_565 101_455 n
Ta Sr Li 109.5269(6) 1_565 101_555 n
Ta Sr Li 70.4731(6) 1_565 105_453 n
Ta Sr Li 70.4731(6) 1_565 105_553 n
Ta Sr O1 144.6799(6) 1_565 1_555 n
Ta Sr O1 35.3201(6) 1_565 1_565 n
Ta Sr O1 90.0 1_565 105_453 n
Ta Sr Ta 109.3598(11) 5_555 5_565 n
Ta Sr Ta 70.4731(6) 5_555 101_455 n
Ta Sr Ta 70.4731(6) 5_555 101_555 n
Ta Sr Ta 109.5269(6) 5_555 105_453 n
Ta Sr Ta 109.5269(6) 5_555 105_553 n
Ta Sr Li 70.6402(11) 5_555 1_555 n
Ta Sr Li 180.0 5_555 1_565 n
Ta Sr Li 0.0 5_555 5_555 n
Ta Sr Li 109.3598(11) 5_555 5_565 n
Ta Sr Li 70.4731(6) 5_555 101_455 n
Ta Sr Li 70.4731(6) 5_555 101_555 n
Ta Sr Li 109.5269(6) 5_555 105_453 n
Ta Sr Li 109.5269(6) 5_555 105_553 n
Ta Sr O1 35.3201(6) 5_555 1_555 n
Ta Sr O1 144.6799(6) 5_555 1_565 n
Ta Sr O1 90.0 5_555 105_453 n
Ta Sr Ta 70.4731(6) 5_565 101_455 n
Ta Sr Ta 70.4731(6) 5_565 101_555 n
Ta Sr Ta 109.5269(6) 5_565 105_453 n
Ta Sr Ta 109.5269(6) 5_565 105_553 n
Ta Sr Li 180.0 5_565 1_555 n
Ta Sr Li 70.6402(11) 5_565 1_565 n
Ta Sr Li 109.3598(11) 5_565 5_555 n
Ta Sr Li 0.0 5_565 5_565 n
Ta Sr Li 70.4731(6) 5_565 101_455 n
Ta Sr Li 70.4731(6) 5_565 101_555 n
Ta Sr Li 109.5269(6) 5_565 105_453 n
Ta Sr Li 109.5269(6) 5_565 105_553 n
Ta Sr O1 144.6799(6) 5_565 1_555 n
Ta Sr O1 35.3201(6) 5_565 1_565 n
Ta Sr O1 90.0 5_565 105_453 n
Ta Sr Ta 109.3598(11) 101_455 101_555 n
Ta Sr Ta 70.6402(11) 101_455 105_453 n
Ta Sr Ta 180.0 101_455 105_553 n
Ta Sr Li 109.5269(6) 101_455 1_555 n
Ta Sr Li 109.5269(6) 101_455 1_565 n
Ta Sr Li 70.4731(6) 101_455 5_555 n
Ta Sr Li 70.4731(6) 101_455 5_565 n
Ta Sr Li 0.0 101_455 101_455 n
Ta Sr Li 109.3598(11) 101_455 101_555 n
Ta Sr Li 70.6402(11) 101_455 105_453 n
Ta Sr Li 180.0 101_455 105_553 n
Ta Sr O1 90.0 101_455 1_555 n
Ta Sr O1 90.0 101_455 1_565 n
Ta Sr O1 35.3201(6) 101_455 105_453 n
Ta Sr Ta 180.0 101_555 105_453 n
Ta Sr Ta 70.6402(11) 101_555 105_553 n
Ta Sr Li 109.5269(6) 101_555 1_555 n
Ta Sr Li 109.5269(6) 101_555 1_565 n
Ta Sr Li 70.4731(6) 101_555 5_555 n
Ta Sr Li 70.4731(6) 101_555 5_565 n
Ta Sr Li 109.3598(11) 101_555 101_455 n
Ta Sr Li 0.0 101_555 101_555 n
Ta Sr Li 180.0 101_555 105_453 n
Ta Sr Li 70.6402(11) 101_555 105_553 n
Ta Sr O1 90.0 101_555 1_555 n
Ta Sr O1 90.0 101_555 1_565 n
Ta Sr O1 144.6799(6) 101_555 105_453 n
Ta Sr Ta 109.3598(11) 105_453 105_553 n
Ta Sr Li 70.4731(6) 105_453 1_555 n
Ta Sr Li 70.4731(6) 105_453 1_565 n
Ta Sr Li 109.5269(6) 105_453 5_555 n
Ta Sr Li 109.5269(6) 105_453 5_565 n
Ta Sr Li 70.6402(11) 105_453 101_455 n
Ta Sr Li 180.0 105_453 101_555 n
Ta Sr Li 0.0 105_453 105_453 n
Ta Sr Li 109.3598(11) 105_453 105_553 n
Ta Sr O1 90.0 105_453 1_555 n
Ta Sr O1 90.0 105_453 1_565 n
Ta Sr O1 35.3201(6) 105_453 105_453 n
Ta Sr Li 70.4731(6) 105_553 1_555 n
Ta Sr Li 70.4731(6) 105_553 1_565 n
Ta Sr Li 109.5269(6) 105_553 5_555 n
Ta Sr Li 109.5269(6) 105_553 5_565 n
Ta Sr Li 180.0 105_553 101_455 n
Ta Sr Li 70.6402(11) 105_553 101_555 n
Ta Sr Li 109.3598(11) 105_553 105_453 n
Ta Sr Li 0.0 105_553 105_553 n
Ta Sr O1 90.0 105_553 1_555 n
Ta Sr O1 90.0 105_553 1_565 n
Ta Sr O1 144.6799(6) 105_553 105_453 n
Li Sr Li 109.3598(11) 1_555 1_565 n
Li Sr Li 70.6402(11) 1_555 5_555 n
Li Sr Li 180.0 1_555 5_565 n
Li Sr Li 109.5269(6) 1_555 101_455 n
Li Sr Li 109.5269(6) 1_555 101_555 n
Li Sr Li 70.4731(6) 1_555 105_453 n
Li Sr Li 70.4731(6) 1_555 105_553 n
Li Sr O1 35.3201(6) 1_555 1_555 n
Li Sr O1 144.6799(6) 1_555 1_565 n
Li Sr O1 90.0 1_555 105_453 n
Li Sr Li 180.0 1_565 5_555 n
Li Sr Li 70.6402(11) 1_565 5_565 n
Li Sr Li 109.5269(6) 1_565 101_455 n
Li Sr Li 109.5269(6) 1_565 101_555 n
Li Sr Li 70.4731(6) 1_565 105_453 n
Li Sr Li 70.4731(6) 1_565 105_553 n
Li Sr O1 144.6799(6) 1_565 1_555 n
Li Sr O1 35.3201(6) 1_565 1_565 n
Li Sr O1 90.0 1_565 105_453 n
Li Sr Li 109.3598(11) 5_555 5_565 n
Li Sr Li 70.4731(6) 5_555 101_455 n
Li Sr Li 70.4731(6) 5_555 101_555 n
Li Sr Li 109.5269(6) 5_555 105_453 n
Li Sr Li 109.5269(6) 5_555 105_553 n
Li Sr O1 35.3201(6) 5_555 1_555 n
Li Sr O1 144.6799(6) 5_555 1_565 n
Li Sr O1 90.0 5_555 105_453 n
Li Sr Li 70.4731(6) 5_565 101_455 n
Li Sr Li 70.4731(6) 5_565 101_555 n
Li Sr Li 109.5269(6) 5_565 105_453 n
Li Sr Li 109.5269(6) 5_565 105_553 n
Li Sr O1 144.6799(6) 5_565 1_555 n
Li Sr O1 35.3201(6) 5_565 1_565 n
Li Sr O1 90.0 5_565 105_453 n
Li Sr Li 109.3598(11) 101_455 101_555 n
Li Sr Li 70.6402(11) 101_455 105_453 n
Li Sr Li 180.0 101_455 105_553 n
Li Sr O1 90.0 101_455 1_555 n
Li Sr O1 90.0 101_455 1_565 n
Li Sr O1 35.3201(6) 101_455 105_453 n
Li Sr Li 180.0 101_555 105_453 n
Li Sr Li 70.6402(11) 101_555 105_553 n
Li Sr O1 90.0 101_555 1_555 n
Li Sr O1 90.0 101_555 1_565 n
Li Sr O1 144.6799(6) 101_555 105_453 n
Li Sr Li 109.3598(11) 105_453 105_553 n
Li Sr O1 90.0 105_453 1_555 n
Li Sr O1 90.0 105_453 1_565 n
Li Sr O1 35.3201(6) 105_453 105_453 n
Li Sr O1 90.0 105_553 1_555 n
Li Sr O1 90.0 105_553 1_565 n
Li Sr O1 144.6799(6) 105_553 105_453 n
O1 Sr O1 180.0 1_555 1_565 n
O1 Sr O1 90.0 1_555 105_453 n
O1 Sr O1 90.0 1_565 105_453 n
Sr Ta Sr 109.3598(11) 1_545 1_555 n
Sr Ta Sr 70.4731(6) 1_545 2_555 n
Sr Ta Sr 70.4731(6) 1_545 2_655 n
Sr Ta Sr 70.6402(11) 1_545 5_544 n
Sr Ta Sr 180.0 1_545 5_554 n
Sr Ta Sr 109.5269(6) 1_545 6_554 n
Sr Ta Sr 109.5269(6) 1_545 6_654 n
Sr Ta O1 54.6799(6) 1_545 1_555 n
Sr Ta O1 125.3201(6) 1_545 5_554 n
Sr Ta N1 54.6799(6) 1_545 1_555 n
Sr Ta N1 125.3201(6) 1_545 5_554 n
Sr Ta O2 128.71(11) 1_545 1_455 n
Sr Ta O2 58.40(12) 1_545 2_545 n
Sr Ta O2 51.29(11) 1_545 3_655 n
Sr Ta O2 121.60(12) 1_545 4_565 n
Sr Ta N2 128.71(11) 1_545 1_455 n
Sr Ta N2 58.40(12) 1_545 2_545 n
Sr Ta N2 51.29(11) 1_545 3_655 n
Sr Ta N2 121.60(12) 1_545 4_565 n
Sr Ta Sr 70.4731(6) 1_555 2_555 n
Sr Ta Sr 70.4731(6) 1_555 2_655 n
Sr Ta Sr 180.0 1_555 5_544 n
Sr Ta Sr 70.6402(11) 1_555 5_554 n
Sr Ta Sr 109.5269(6) 1_555 6_554 n
Sr Ta Sr 109.5269(6) 1_555 6_654 n
Sr Ta O1 54.6799(6) 1_555 1_555 n
Sr Ta O1 125.3201(6) 1_555 5_554 n
Sr Ta N1 54.6799(6) 1_555 1_555 n
Sr Ta N1 125.3201(6) 1_555 5_554 n
Sr Ta O2 51.29(11) 1_555 1_455 n
Sr Ta O2 121.60(12) 1_555 2_545 n
Sr Ta O2 128.71(11) 1_555 3_655 n
Sr Ta O2 58.40(12) 1_555 4_565 n
Sr Ta N2 51.29(11) 1_555 1_455 n
Sr Ta N2 121.60(12) 1_555 2_545 n
Sr Ta N2 128.71(11) 1_555 3_655 n
Sr Ta N2 58.40(12) 1_555 4_565 n
Sr Ta Sr 109.3598(11) 2_555 2_655 n
Sr Ta Sr 109.5269(6) 2_555 5_544 n
Sr Ta Sr 109.5269(6) 2_555 5_554 n
Sr Ta Sr 70.6402(11) 2_555 6_554 n
Sr Ta Sr 180.0 2_555 6_654 n
Sr Ta O1 54.6799(6) 2_555 1_555 n
Sr Ta O1 125.3201(6) 2_555 5_554 n
Sr Ta N1 54.6799(6) 2_555 1_555 n
Sr Ta N1 125.3201(6) 2_555 5_554 n
Sr Ta O2 58.40(12) 2_555 1_455 n
Sr Ta O2 51.29(11) 2_555 2_545 n
Sr Ta O2 121.60(12) 2_555 3_655 n
Sr Ta O2 128.71(11) 2_555 4_565 n
Sr Ta N2 58.40(12) 2_555 1_455 n
Sr Ta N2 51.29(11) 2_555 2_545 n
Sr Ta N2 121.60(12) 2_555 3_655 n
Sr Ta N2 128.71(11) 2_555 4_565 n
Sr Ta Sr 109.5269(6) 2_655 5_544 n
Sr Ta Sr 109.5269(6) 2_655 5_554 n
Sr Ta Sr 180.0 2_655 6_554 n
Sr Ta Sr 70.6402(11) 2_655 6_654 n
Sr Ta O1 54.6799(6) 2_655 1_555 n
Sr Ta O1 125.3201(6) 2_655 5_554 n
Sr Ta N1 54.6799(6) 2_655 1_555 n
Sr Ta N1 125.3201(6) 2_655 5_554 n
Sr Ta O2 121.60(12) 2_655 1_455 n
Sr Ta O2 128.71(11) 2_655 2_545 n
Sr Ta O2 58.40(12) 2_655 3_655 n
Sr Ta O2 51.29(11) 2_655 4_565 n
Sr Ta N2 121.60(12) 2_655 1_455 n
Sr Ta N2 128.71(11) 2_655 2_545 n
Sr Ta N2 58.40(12) 2_655 3_655 n
Sr Ta N2 51.29(11) 2_655 4_565 n
Sr Ta Sr 109.3598(11) 5_544 5_554 n
Sr Ta Sr 70.4731(6) 5_544 6_554 n
Sr Ta Sr 70.4731(6) 5_544 6_654 n
Sr Ta O1 125.3201(6) 5_544 1_555 n
Sr Ta O1 54.6799(6) 5_544 5_554 n
Sr Ta N1 125.3201(6) 5_544 1_555 n
Sr Ta N1 54.6799(6) 5_544 5_554 n
Sr Ta O2 128.71(11) 5_544 1_455 n
Sr Ta O2 58.40(12) 5_544 2_545 n
Sr Ta O2 51.29(11) 5_544 3_655 n
Sr Ta O2 121.60(12) 5_544 4_565 n
Sr Ta N2 128.71(11) 5_544 1_455 n
Sr Ta N2 58.40(12) 5_544 2_545 n
Sr Ta N2 51.29(11) 5_544 3_655 n
Sr Ta N2 121.60(12) 5_544 4_565 n
Sr Ta Sr 70.4731(6) 5_554 6_554 n
Sr Ta Sr 70.4731(6) 5_554 6_654 n
Sr Ta O1 125.3201(6) 5_554 1_555 n
Sr Ta O1 54.6799(6) 5_554 5_554 n
Sr Ta N1 125.3201(6) 5_554 1_555 n
Sr Ta N1 54.6799(6) 5_554 5_554 n
Sr Ta O2 51.29(11) 5_554 1_455 n
Sr Ta O2 121.60(12) 5_554 2_545 n
Sr Ta O2 128.71(11) 5_554 3_655 n
Sr Ta O2 58.40(12) 5_554 4_565 n
Sr Ta N2 51.29(11) 5_554 1_455 n
Sr Ta N2 121.60(12) 5_554 2_545 n
Sr Ta N2 128.71(11) 5_554 3_655 n
Sr Ta N2 58.40(12) 5_554 4_565 n
Sr Ta Sr 109.3598(11) 6_554 6_654 n
Sr Ta O1 125.3201(6) 6_554 1_555 n
Sr Ta O1 54.6799(6) 6_554 5_554 n
Sr Ta N1 125.3201(6) 6_554 1_555 n
Sr Ta N1 54.6799(6) 6_554 5_554 n
Sr Ta O2 58.40(12) 6_554 1_455 n
Sr Ta O2 51.29(11) 6_554 2_545 n
Sr Ta O2 121.60(12) 6_554 3_655 n
Sr Ta O2 128.71(11) 6_554 4_565 n
Sr Ta N2 58.40(12) 6_554 1_455 n
Sr Ta N2 51.29(11) 6_554 2_545 n
Sr Ta N2 121.60(12) 6_554 3_655 n
Sr Ta N2 128.71(11) 6_554 4_565 n
Sr Ta O1 125.3201(6) 6_654 1_555 n
Sr Ta O1 54.6799(6) 6_654 5_554 n
Sr Ta N1 125.3201(6) 6_654 1_555 n
Sr Ta N1 54.6799(6) 6_654 5_554 n
Sr Ta O2 121.60(12) 6_654 1_455 n
Sr Ta O2 128.71(11) 6_654 2_545 n
Sr Ta O2 58.40(12) 6_654 3_655 n
Sr Ta O2 51.29(11) 6_654 4_565 n
Sr Ta N2 121.60(12) 6_654 1_455 n
Sr Ta N2 128.71(11) 6_654 2_545 n
Sr Ta N2 58.40(12) 6_654 3_655 n
Sr Ta N2 51.29(11) 6_654 4_565 n
O1 Ta O1 180.0 1_555 5_554 n
O1 Ta N1 0.0 1_555 1_555 n
O1 Ta N1 180.0 1_555 5_554 n
O1 Ta O2 90.0 1_555 1_455 n
O1 Ta O2 90.0 1_555 2_545 n
O1 Ta O2 90.0 1_555 3_655 n
O1 Ta O2 90.0 1_555 4_565 n
O1 Ta N2 90.0 1_555 1_455 n
O1 Ta N2 90.0 1_555 2_545 n
O1 Ta N2 90.0 1_555 3_655 n
O1 Ta N2 90.0 1_555 4_565 n
O1 Ta N1 180.0 5_554 1_555 n
O1 Ta N1 0.0 5_554 5_554 n
O1 Ta O2 90.0 5_554 1_455 n
O1 Ta O2 90.0 5_554 2_545 n
O1 Ta O2 90.0 5_554 3_655 n
O1 Ta O2 90.0 5_554 4_565 n
O1 Ta N2 90.0 5_554 1_455 n
O1 Ta N2 90.0 5_554 2_545 n
O1 Ta N2 90.0 5_554 3_655 n
O1 Ta N2 90.0 5_554 4_565 n
N1 Ta N1 180.0 1_555 5_554 n
N1 Ta O2 90.0 1_555 1_455 n
N1 Ta O2 90.0 1_555 2_545 n
N1 Ta O2 90.0 1_555 3_655 n
N1 Ta O2 90.0 1_555 4_565 n
N1 Ta N2 90.0 1_555 1_455 n
N1 Ta N2 90.0 1_555 2_545 n
N1 Ta N2 90.0 1_555 3_655 n
N1 Ta N2 90.0 1_555 4_565 n
N1 Ta O2 90.0 5_554 1_455 n
N1 Ta O2 90.0 5_554 2_545 n
N1 Ta O2 90.0 5_554 3_655 n
N1 Ta O2 90.0 5_554 4_565 n
N1 Ta N2 90.0 5_554 1_455 n
N1 Ta N2 90.0 5_554 2_545 n
N1 Ta N2 90.0 5_554 3_655 n
N1 Ta N2 90.0 5_554 4_565 n
O2 Ta O2 90.0 1_455 2_545 n
O2 Ta O2 180.0 1_455 3_655 n
O2 Ta O2 90.0 1_455 4_565 n
O2 Ta N2 0.0 1_455 1_455 n
O2 Ta N2 90.0 1_455 2_545 n
O2 Ta N2 180.0 1_455 3_655 n
O2 Ta N2 90.0 1_455 4_565 n
O2 Ta O2 90.0 2_545 3_655 n
O2 Ta O2 180.0 2_545 4_565 n
O2 Ta N2 90.0 2_545 1_455 n
O2 Ta N2 0.0 2_545 2_545 n
O2 Ta N2 90.0 2_545 3_655 n
O2 Ta N2 180.0 2_545 4_565 n
O2 Ta O2 90.0 3_655 4_565 n
O2 Ta N2 180.0 3_655 1_455 n
O2 Ta N2 90.0 3_655 2_545 n
O2 Ta N2 0.0 3_655 3_655 n
O2 Ta N2 90.0 3_655 4_565 n
O2 Ta N2 90.0 4_565 1_455 n
O2 Ta N2 180.0 4_565 2_545 n
O2 Ta N2 90.0 4_565 3_655 n
O2 Ta N2 0.0 4_565 4_565 n
N2 Ta N2 90.0 1_455 2_545 n
N2 Ta N2 180.0 1_455 3_655 n
N2 Ta N2 90.0 1_455 4_565 n
N2 Ta N2 90.0 2_545 3_655 n
N2 Ta N2 180.0 2_545 4_565 n
N2 Ta N2 90.0 3_655 4_565 n
Sr Li Sr 109.3598(11) 1_545 1_555 n
Sr Li Sr 70.4731(6) 1_545 2_555 n
Sr Li Sr 70.4731(6) 1_545 2_655 n
Sr Li Sr 70.6402(11) 1_545 5_544 n
Sr Li Sr 180.0 1_545 5_554 n
Sr Li Sr 109.5269(6) 1_545 6_554 n
Sr Li Sr 109.5269(6) 1_545 6_654 n
Sr Li O1 54.6799(6) 1_545 1_555 n
Sr Li O1 125.3201(6) 1_545 5_554 n
Sr Li N1 54.6799(6) 1_545 1_555 n
Sr Li N1 125.3201(6) 1_545 5_554 n
Sr Li O2 128.71(11) 1_545 1_455 n
Sr Li O2 58.40(12) 1_545 2_545 n
Sr Li O2 51.29(11) 1_545 3_655 n
Sr Li O2 121.60(12) 1_545 4_565 n
Sr Li N2 128.71(11) 1_545 1_455 n
Sr Li N2 58.40(12) 1_545 2_545 n
Sr Li N2 51.29(11) 1_545 3_655 n
Sr Li N2 121.60(12) 1_545 4_565 n
Sr Li Sr 70.4731(6) 1_555 2_555 n
Sr Li Sr 70.4731(6) 1_555 2_655 n
Sr Li Sr 180.0 1_555 5_544 n
Sr Li Sr 70.6402(11) 1_555 5_554 n
Sr Li Sr 109.5269(6) 1_555 6_554 n
Sr Li Sr 109.5269(6) 1_555 6_654 n
Sr Li O1 54.6799(6) 1_555 1_555 n
Sr Li O1 125.3201(6) 1_555 5_554 n
Sr Li N1 54.6799(6) 1_555 1_555 n
Sr Li N1 125.3201(6) 1_555 5_554 n
Sr Li O2 51.29(11) 1_555 1_455 n
Sr Li O2 121.60(12) 1_555 2_545 n
Sr Li O2 128.71(11) 1_555 3_655 n
Sr Li O2 58.40(12) 1_555 4_565 n
Sr Li N2 51.29(11) 1_555 1_455 n
Sr Li N2 121.60(12) 1_555 2_545 n
Sr Li N2 128.71(11) 1_555 3_655 n
Sr Li N2 58.40(12) 1_555 4_565 n
Sr Li Sr 109.3598(11) 2_555 2_655 n
Sr Li Sr 109.5269(6) 2_555 5_544 n
Sr Li Sr 109.5269(6) 2_555 5_554 n
Sr Li Sr 70.6402(11) 2_555 6_554 n
Sr Li Sr 180.0 2_555 6_654 n
Sr Li O1 54.6799(6) 2_555 1_555 n
Sr Li O1 125.3201(6) 2_555 5_554 n
Sr Li N1 54.6799(6) 2_555 1_555 n
Sr Li N1 125.3201(6) 2_555 5_554 n
Sr Li O2 58.40(12) 2_555 1_455 n
Sr Li O2 51.29(11) 2_555 2_545 n
Sr Li O2 121.60(12) 2_555 3_655 n
Sr Li O2 128.71(11) 2_555 4_565 n
Sr Li N2 58.40(12) 2_555 1_455 n
Sr Li N2 51.29(11) 2_555 2_545 n
Sr Li N2 121.60(12) 2_555 3_655 n
Sr Li N2 128.71(11) 2_555 4_565 n
Sr Li Sr 109.5269(6) 2_655 5_544 n
Sr Li Sr 109.5269(6) 2_655 5_554 n
Sr Li Sr 180.0 2_655 6_554 n
Sr Li Sr 70.6402(11) 2_655 6_654 n
Sr Li O1 54.6799(6) 2_655 1_555 n
Sr Li O1 125.3201(6) 2_655 5_554 n
Sr Li N1 54.6799(6) 2_655 1_555 n
Sr Li N1 125.3201(6) 2_655 5_554 n
Sr Li O2 121.60(12) 2_655 1_455 n
Sr Li O2 128.71(11) 2_655 2_545 n
Sr Li O2 58.40(12) 2_655 3_655 n
Sr Li O2 51.29(11) 2_655 4_565 n
Sr Li N2 121.60(12) 2_655 1_455 n
Sr Li N2 128.71(11) 2_655 2_545 n
Sr Li N2 58.40(12) 2_655 3_655 n
Sr Li N2 51.29(11) 2_655 4_565 n
Sr Li Sr 109.3598(11) 5_544 5_554 n
Sr Li Sr 70.4731(6) 5_544 6_554 n
Sr Li Sr 70.4731(6) 5_544 6_654 n
Sr Li O1 125.3201(6) 5_544 1_555 n
Sr Li O1 54.6799(6) 5_544 5_554 n
Sr Li N1 125.3201(6) 5_544 1_555 n
Sr Li N1 54.6799(6) 5_544 5_554 n
Sr Li O2 128.71(11) 5_544 1_455 n
Sr Li O2 58.40(12) 5_544 2_545 n
Sr Li O2 51.29(11) 5_544 3_655 n
Sr Li O2 121.60(12) 5_544 4_565 n
Sr Li N2 128.71(11) 5_544 1_455 n
Sr Li N2 58.40(12) 5_544 2_545 n
Sr Li N2 51.29(11) 5_544 3_655 n
Sr Li N2 121.60(12) 5_544 4_565 n
Sr Li Sr 70.4731(6) 5_554 6_554 n
Sr Li Sr 70.4731(6) 5_554 6_654 n
Sr Li O1 125.3201(6) 5_554 1_555 n
Sr Li O1 54.6799(6) 5_554 5_554 n
Sr Li N1 125.3201(6) 5_554 1_555 n
Sr Li N1 54.6799(6) 5_554 5_554 n
Sr Li O2 51.29(11) 5_554 1_455 n
Sr Li O2 121.60(12) 5_554 2_545 n
Sr Li O2 128.71(11) 5_554 3_655 n
Sr Li O2 58.40(12) 5_554 4_565 n
Sr Li N2 51.29(11) 5_554 1_455 n
Sr Li N2 121.60(12) 5_554 2_545 n
Sr Li N2 128.71(11) 5_554 3_655 n
Sr Li N2 58.40(12) 5_554 4_565 n
Sr Li Sr 109.3598(11) 6_554 6_654 n
Sr Li O1 125.3201(6) 6_554 1_555 n
Sr Li O1 54.6799(6) 6_554 5_554 n
Sr Li N1 125.3201(6) 6_554 1_555 n
Sr Li N1 54.6799(6) 6_554 5_554 n
Sr Li O2 58.40(12) 6_554 1_455 n
Sr Li O2 51.29(11) 6_554 2_545 n
Sr Li O2 121.60(12) 6_554 3_655 n
Sr Li O2 128.71(11) 6_554 4_565 n
Sr Li N2 58.40(12) 6_554 1_455 n
Sr Li N2 51.29(11) 6_554 2_545 n
Sr Li N2 121.60(12) 6_554 3_655 n
Sr Li N2 128.71(11) 6_554 4_565 n
Sr Li O1 125.3201(6) 6_654 1_555 n
Sr Li O1 54.6799(6) 6_654 5_554 n
Sr Li N1 125.3201(6) 6_654 1_555 n
Sr Li N1 54.6799(6) 6_654 5_554 n
Sr Li O2 121.60(12) 6_654 1_455 n
Sr Li O2 128.71(11) 6_654 2_545 n
Sr Li O2 58.40(12) 6_654 3_655 n
Sr Li O2 51.29(11) 6_654 4_565 n
Sr Li N2 121.60(12) 6_654 1_455 n
Sr Li N2 128.71(11) 6_654 2_545 n
Sr Li N2 58.40(12) 6_654 3_655 n
Sr Li N2 51.29(11) 6_654 4_565 n
O1 Li O1 180.0 1_555 5_554 n
O1 Li N1 0.0 1_555 1_555 n
O1 Li N1 180.0 1_555 5_554 n
O1 Li O2 90.0 1_555 1_455 n
O1 Li O2 90.0 1_555 2_545 n
O1 Li O2 90.0 1_555 3_655 n
O1 Li O2 90.0 1_555 4_565 n
O1 Li N2 90.0 1_555 1_455 n
O1 Li N2 90.0 1_555 2_545 n
O1 Li N2 90.0 1_555 3_655 n
O1 Li N2 90.0 1_555 4_565 n
O1 Li N1 180.0 5_554 1_555 n
O1 Li N1 0.0 5_554 5_554 n
O1 Li O2 90.0 5_554 1_455 n
O1 Li O2 90.0 5_554 2_545 n
O1 Li O2 90.0 5_554 3_655 n
O1 Li O2 90.0 5_554 4_565 n
O1 Li N2 90.0 5_554 1_455 n
O1 Li N2 90.0 5_554 2_545 n
O1 Li N2 90.0 5_554 3_655 n
O1 Li N2 90.0 5_554 4_565 n
N1 Li N1 180.0 1_555 5_554 n
N1 Li O2 90.0 1_555 1_455 n
N1 Li O2 90.0 1_555 2_545 n
N1 Li O2 90.0 1_555 3_655 n
N1 Li O2 90.0 1_555 4_565 n
N1 Li N2 90.0 1_555 1_455 n
N1 Li N2 90.0 1_555 2_545 n
N1 Li N2 90.0 1_555 3_655 n
N1 Li N2 90.0 1_555 4_565 n
N1 Li O2 90.0 5_554 1_455 n
N1 Li O2 90.0 5_554 2_545 n
N1 Li O2 90.0 5_554 3_655 n
N1 Li O2 90.0 5_554 4_565 n
N1 Li N2 90.0 5_554 1_455 n
N1 Li N2 90.0 5_554 2_545 n
N1 Li N2 90.0 5_554 3_655 n
N1 Li N2 90.0 5_554 4_565 n
O2 Li O2 90.0 1_455 2_545 n
O2 Li O2 180.0 1_455 3_655 n
O2 Li O2 90.0 1_455 4_565 n
O2 Li N2 0.0 1_455 1_455 n
O2 Li N2 90.0 1_455 2_545 n
O2 Li N2 180.0 1_455 3_655 n
O2 Li N2 90.0 1_455 4_565 n
O2 Li O2 90.0 2_545 3_655 n
O2 Li O2 180.0 2_545 4_565 n
O2 Li N2 90.0 2_545 1_455 n
O2 Li N2 0.0 2_545 2_545 n
O2 Li N2 90.0 2_545 3_655 n
O2 Li N2 180.0 2_545 4_565 n
O2 Li O2 90.0 3_655 4_565 n
O2 Li N2 180.0 3_655 1_455 n
O2 Li N2 90.0 3_655 2_545 n
O2 Li N2 0.0 3_655 3_655 n
O2 Li N2 90.0 3_655 4_565 n
O2 Li N2 90.0 4_565 1_455 n
O2 Li N2 180.0 4_565 2_545 n
O2 Li N2 90.0 4_565 3_655 n
O2 Li N2 0.0 4_565 4_565 n
N2 Li N2 90.0 1_455 2_545 n
N2 Li N2 180.0 1_455 3_655 n
N2 Li N2 90.0 1_455 4_565 n
N2 Li N2 90.0 2_545 3_655 n
N2 Li N2 180.0 2_545 4_565 n
N2 Li N2 90.0 3_655 4_565 n
Sr O1 Sr 180.0 1_545 1_555 n
Sr O1 Sr 90.0 1_545 2_555 n
Sr O1 Sr 90.0 1_545 2_655 n
Sr O1 Ta 90.0 1_545 1_555 n
Sr O1 Ta 90.0 1_545 5_555 n
Sr O1 Li 90.0 1_545 1_555 n
Sr O1 Li 90.0 1_545 5_555 n
Sr O1 Sr 90.0 1_555 2_555 n
Sr O1 Sr 90.0 1_555 2_655 n
Sr O1 Ta 90.0 1_555 1_555 n
Sr O1 Ta 90.0 1_555 5_555 n
Sr O1 Li 90.0 1_555 1_555 n
Sr O1 Li 90.0 1_555 5_555 n
Sr O1 Sr 180.0 2_555 2_655 n
Sr O1 Ta 90.0 2_555 1_555 n
Sr O1 Ta 90.0 2_555 5_555 n
Sr O1 Li 90.0 2_555 1_555 n
Sr O1 Li 90.0 2_555 5_555 n
Sr O1 Ta 90.0 2_655 1_555 n
Sr O1 Ta 90.0 2_655 5_555 n
Sr O1 Li 90.0 2_655 1_555 n
Sr O1 Li 90.0 2_655 5_555 n
Ta O1 Ta 180.0 1_555 5_555 n
Ta O1 Li 0.0 1_555 1_555 n
Ta O1 Li 180.0 1_555 5_555 n
Ta O1 Li 180.0 5_555 1_555 n
Ta O1 Li 0.0 5_555 5_555 n
Li O1 Li 180.0 1_555 5_555 n
Sr N1 Sr 180.0 1_545 1_555 n
Sr N1 Sr 90.0 1_545 2_555 n
Sr N1 Sr 90.0 1_545 2_655 n
Sr N1 Ta 90.0 1_545 1_555 n
Sr N1 Ta 90.0 1_545 5_555 n
Sr N1 Li 90.0 1_545 1_555 n
Sr N1 Li 90.0 1_545 5_555 n
Sr N1 Sr 90.0 1_555 2_555 n
Sr N1 Sr 90.0 1_555 2_655 n
Sr N1 Ta 90.0 1_555 1_555 n
Sr N1 Ta 90.0 1_555 5_555 n
Sr N1 Li 90.0 1_555 1_555 n
Sr N1 Li 90.0 1_555 5_555 n
Sr N1 Sr 180.0 2_555 2_655 n
Sr N1 Ta 90.0 2_555 1_555 n
Sr N1 Ta 90.0 2_555 5_555 n
Sr N1 Li 90.0 2_555 1_555 n
Sr N1 Li 90.0 2_555 5_555 n
Sr N1 Ta 90.0 2_655 1_555 n
Sr N1 Ta 90.0 2_655 5_555 n
Sr N1 Li 90.0 2_655 1_555 n
Sr N1 Li 90.0 2_655 5_555 n
Ta N1 Ta 180.0 1_555 5_555 n
Ta N1 Li 0.0 1_555 1_555 n
Ta N1 Li 180.0 1_555 5_555 n
Ta N1 Li 180.0 5_555 1_555 n
Ta N1 Li 0.0 5_555 5_555 n
Li N1 Li 180.0 1_555 5_555 n
Sr O2 Sr 89.659(14) 1_655 2_655 n
Sr O2 Sr 95.40(17) 1_655 5_654 n
Sr O2 Sr 174.94(16) 1_655 6_654 n
Sr O2 Ta 93.39(10) 1_655 1_655 n
Sr O2 Ta 93.39(10) 1_655 105_553 n
Sr O2 Li 93.39(10) 1_655 1_655 n
Sr O2 Li 93.39(10) 1_655 105_553 n
Sr O2 Sr 174.94(16) 2_655 5_654 n
Sr O2 Sr 85.28(14) 2_655 6_654 n
Sr O2 Ta 86.29(12) 2_655 1_655 n
Sr O2 Ta 86.29(12) 2_655 105_553 n
Sr O2 Li 86.29(12) 2_655 1_655 n
Sr O2 Li 86.29(12) 2_655 105_553 n
Sr O2 Sr 89.659(14) 5_654 6_654 n
Sr O2 Ta 93.39(10) 5_654 1_655 n
Sr O2 Ta 93.39(10) 5_654 105_553 n
Sr O2 Li 93.39(10) 5_654 1_655 n
Sr O2 Li 93.39(10) 5_654 105_553 n
Sr O2 Ta 86.29(12) 6_654 1_655 n
Sr O2 Ta 86.29(12) 6_654 105_553 n
Sr O2 Li 86.29(12) 6_654 1_655 n
Sr O2 Li 86.29(12) 6_654 105_553 n
Ta O2 Ta 169.92(31) 1_655 105_553 n
Ta O2 Li 0.0 1_655 1_655 n
Ta O2 Li 169.92(31) 1_655 105_553 n
Ta O2 Li 169.92(31) 105_553 1_655 n
Ta O2 Li 0.0 105_553 105_553 n
Li O2 Li 169.92(31) 1_655 105_553 n
Sr N2 Sr 89.659(14) 1_655 2_655 n
Sr N2 Sr 95.40(17) 1_655 5_654 n
Sr N2 Sr 174.94(16) 1_655 6_654 n
Sr N2 Ta 93.39(10) 1_655 1_655 n
Sr N2 Ta 93.39(10) 1_655 105_553 n
Sr N2 Li 93.39(10) 1_655 1_655 n
Sr N2 Li 93.39(10) 1_655 105_553 n
Sr N2 Sr 174.94(16) 2_655 5_654 n
Sr N2 Sr 85.28(14) 2_655 6_654 n
Sr N2 Ta 86.29(12) 2_655 1_655 n
Sr N2 Ta 86.29(12) 2_655 105_553 n
Sr N2 Li 86.29(12) 2_655 1_655 n
Sr N2 Li 86.29(12) 2_655 105_553 n
Sr N2 Sr 89.659(14) 5_654 6_654 n
Sr N2 Ta 93.39(10) 5_654 1_655 n
Sr N2 Ta 93.39(10) 5_654 105_553 n
Sr N2 Li 93.39(10) 5_654 1_655 n
Sr N2 Li 93.39(10) 5_654 105_553 n
Sr N2 Ta 86.29(12) 6_654 1_655 n
Sr N2 Ta 86.29(12) 6_654 105_553 n
Sr N2 Li 86.29(12) 6_654 1_655 n
Sr N2 Li 86.29(12) 6_654 105_553 n
Ta N2 Ta 169.92(31) 1_655 105_553 n
Ta N2 Li 0.0 1_655 1_655 n
Ta N2 Li 169.92(31) 1_655 105_553 n
Ta N2 Li 169.92(31) 105_553 1_655 n
Ta N2 Li 0.0 105_553 105_553 n
Li N2 Li 169.92(31) 1_655 105_553 n
loop_
_geom_bond_atom_site_label_1
_geom_bond_atom_site_label_2
_geom_bond_distance
_geom_bond_site_symmetry_2
_geom_bond_publ_flag
Sr Sr 4.02658(4) 2_555 n
Sr Sr 4.02658(4) 2_565 n
Sr Sr 4.02658(4) 2_655 n
Sr Sr 4.02658(4) 2_665 n
Sr Sr 4.03489(8) 5_554 n
Sr Sr 4.03489(8) 5_555 n
Sr Ta 3.489520(30) 1_555 n
Sr Ta 3.489520(30) 1_565 n
Sr Ta 3.489520(30) 5_555 n
Sr Ta 3.489520(30) 5_565 n
Sr Ta 3.489520(30) 101_455 n
Sr Ta 3.489520(30) 101_555 n
Sr Ta 3.489520(30) 105_455 n
Sr Ta 3.489520(30) 105_555 n
Sr Li 3.489520(30) 1_555 n
Sr Li 3.489520(30) 1_565 n
Sr Li 3.489520(30) 5_555 n
Sr Li 3.489520(30) 5_565 n
Sr Li 3.489520(30) 101_455 n
Sr Li 3.489520(30) 101_555 n
Sr Li 3.489520(30) 105_455 n
Sr Li 3.489520(30) 105_555 n
Sr O1 2.847220(30) 1_555 n
Sr O1 2.847220(30) 1_565 n
Sr O1 2.847220(30) 105_455 n
Sr O1 2.847220(30) 105_555 n
Sr N1 2.847220(30) 1_555 n
Sr N1 2.847220(30) 1_565 n
Sr N1 2.847220(30) 105_455 n
Sr N1 2.847220(30) 105_555 n
Sr O2 2.728(4) 1_455 n
Sr O2 2.978(4) 2_555 n
Sr O2 2.728(4) 3_665 n
Sr O2 2.978(4) 4_565 n
Sr O2 2.728(4) 5_655 n
Sr O2 2.978(4) 6_565 n
Sr O2 2.728(4) 7_465 n
Sr O2 2.978(4) 8_555 n
Sr N2 2.728(4) 1_455 n
Sr N2 2.978(4) 2_555 n
Sr N2 2.728(4) 3_665 n
Sr N2 2.978(4) 4_565 n
Sr N2 2.728(4) 5_655 n
Sr N2 2.978(4) 6_565 n
Sr N2 2.728(4) 7_465 n
Sr N2 2.978(4) 8_555 n
Ta Sr 3.489520(30) 1_545 n
Ta Sr 3.489520(30) 1_555 n
Ta Sr 3.489520(30) 2_555 n
Ta Sr 3.489520(30) 2_655 n
Ta Sr 3.489520(30) 5_544 n
Ta Sr 3.489520(30) 5_554 n
Ta Sr 3.489520(30) 6_554 n
Ta Sr 3.489520(30) 6_654 n
Ta O1 2.01744(4) 1_555 n
Ta O1 2.01744(4) 5_554 n
Ta N1 2.01744(4) 1_555 n
Ta N1 2.01744(4) 5_554 n
Ta O2 2.0211(5) 1_455 n
Ta O2 2.0211(5) 2_545 n
Ta O2 2.0211(5) 3_655 n
Ta O2 2.0211(5) 4_565 n
Ta N2 2.0211(5) 1_455 n
Ta N2 2.0211(5) 2_545 n
Ta N2 2.0211(5) 3_655 n
Ta N2 2.0211(5) 4_565 n
Li Sr 3.489520(30) 1_545 n
Li Sr 3.489520(30) 1_555 n
Li Sr 3.489520(30) 2_555 n
Li Sr 3.489520(30) 2_655 n
Li Sr 3.489520(30) 5_544 n
Li Sr 3.489520(30) 5_554 n
Li Sr 3.489520(30) 6_554 n
Li Sr 3.489520(30) 6_654 n
Li O1 2.01744(4) 1_555 n
Li O1 2.01744(4) 5_554 n
Li N1 2.01744(4) 1_555 n
Li N1 2.01744(4) 5_554 n
Li O2 2.0211(5) 1_455 n
Li O2 2.0211(5) 2_545 n
Li O2 2.0211(5) 3_655 n
Li O2 2.0211(5) 4_565 n
Li N2 2.0211(5) 1_455 n
Li N2 2.0211(5) 2_545 n
Li N2 2.0211(5) 3_655 n
Li N2 2.0211(5) 4_565 n
O1 Sr 2.847220(30) 1_545 n
O1 Sr 2.847220(30) 1_555 n
O1 Sr 2.847220(30) 2_555 n
O1 Sr 2.847220(30) 2_655 n
O1 Ta 2.01744(4) 1_555 n
O1 Ta 2.01744(4) 5_555 n
O1 Li 2.01744(4) 1_555 n
O1 Li 2.01744(4) 5_555 n
N1 Sr 2.847220(30) 1_545 n
N1 Sr 2.847220(30) 1_555 n
N1 Sr 2.847220(30) 2_555 n
N1 Sr 2.847220(30) 2_655 n
N1 Ta 2.01744(4) 1_555 n
N1 Ta 2.01744(4) 5_555 n
N1 Li 2.01744(4) 1_555 n
N1 Li 2.01744(4) 5_555 n
O2 Sr 2.728(4) 1_655 n
O2 Sr 2.978(4) 2_655 n
O2 Sr 2.728(4) 5_654 n
O2 Sr 2.978(4) 6_654 n
O2 Ta 2.0211(5) 1_655 n
O2 Ta 2.0211(5) 105_555 n
O2 Li 2.0211(5) 1_655 n
O2 Li 2.0211(5) 105_555 n
N2 Sr 2.728(4) 1_655 n
N2 Sr 2.978(4) 2_655 n
N2 Sr 2.728(4) 5_654 n
N2 Sr 2.978(4) 6_654 n
N2 Ta 2.0211(5) 1_655 n
N2 Ta 2.0211(5) 105_555 n
N2 Li 2.0211(5) 1_655 n
N2 Li 2.0211(5) 105_555 n
loop_
_pd_meas_2theta_scan
_pd_proc_2theta_corrected
_pd_meas_counts_total
_pd_proc_ls_weight
_pd_proc_intensity_bkg_calc
_pd_calc_intensity_total
15.0000 14.9446 171.0 0.0 135.87724 .
15.0167 14.9613 169.0 0.00592 135.89700 135.89726
15.0334 14.9780 166.0 0.00603 135.91676 135.91702
15.0502 14.9948 174.0 0.00575 135.93663 135.93689
15.0669 15.0115 180.0 0.00555 135.95639 135.95665
15.0836 15.0282 164.0 0.00609 135.97615 135.97641
15.1003 15.0449 172.0 0.00582 135.99591 135.99617
15.1170 15.0616 160.0 0.00625 136.01566 136.01591
15.1337 15.0783 173.0 0.00578 136.03542 136.03568
15.1505 15.0951 174.0 0.00575 136.05530 136.05556
15.1672 15.1118 168.0 0.00595 136.07504 136.07532
15.1839 15.1285 167.0 0.00599 136.09480 136.09506
15.2006 15.1452 184.0 0.00544 136.11456 136.11482
15.2173 15.1619 176.0 0.00568 136.13432 136.13458
15.2341 15.1787 147.0 0.00681 136.15419 136.15445
15.2508 15.1954 173.0 0.00578 136.17395 136.17421
15.2675 15.2121 169.0 0.00592 136.19371 136.19397
15.2842 15.2288 171.0 0.00585 136.21346 136.21373
15.3009 15.2455 151.0 0.00662 136.23322 136.23349
15.3177 15.2623 141.0 0.00710 136.25310 136.25336
15.3344 15.2790 172.0 0.00582 136.27286 136.27312
15.3511 15.2957 163.0 0.00613 136.29260 136.29288
15.3678 15.3124 160.0 0.00625 136.31236 136.31262
15.3845 15.3291 144.0 0.00694 136.33212 136.33238
15.4012 15.3458 156.0 0.00641 136.35188 136.35214
15.4180 15.3626 158.0 0.00633 136.37175 136.37202
15.4347 15.3793 165.0 0.00606 136.39151 136.39177
15.4514 15.3960 156.0 0.00641 136.41127 136.41153
15.4681 15.4127 155.0 0.00645 136.43102 136.43129
15.4848 15.4294 166.0 0.00603 136.45078 136.45105
15.5016 15.4462 177.0 0.00565 136.47066 136.47092
15.5183 15.4629 140.0 0.00715 136.49042 136.49068
15.5350 15.4796 145.0 0.00690 136.51016 136.51044
15.5517 15.4963 166.0 0.00603 136.52992 136.53018
15.5684 15.5130 184.0 0.00544 136.54968 136.54994
15.5852 15.5298 161.0 0.00621 136.56955 136.56982
15.6019 15.5465 158.0 0.00633 136.58931 136.58957
15.6186 15.5632 176.0 0.00568 136.60907 136.60933
15.6353 15.5799 168.0 0.00595 136.62883 136.62909
15.6520 15.5966 167.0 0.00599 136.64857 136.64885
15.6687 15.6133 179.0 0.00559 136.66833 136.66861
15.6855 15.6301 145.0 0.00690 136.68822 136.68848
15.7022 15.6468 146.0 0.00685 136.70796 136.70824
15.7189 15.6635 154.0 0.00649 136.72772 136.72800
15.7356 15.6802 170.0 0.00588 136.74748 136.74776
15.7523 15.6969 153.0 0.00654 136.76724 136.76750
15.7691 15.7137 155.0 0.00645 136.78711 136.78738
15.7858 15.7304 149.0 0.00671 136.80687 136.80714
15.8025 15.7471 160.0 0.00625 136.82663 136.82689
15.8192 15.7638 173.0 0.00578 136.84637 136.84665
15.8359 15.7805 172.0 0.00582 136.86613 136.86641
15.8527 15.7973 146.0 0.00685 136.88602 136.88629
15.8694 15.8140 137.0 0.00731 136.90576 136.90604
15.8861 15.8307 143.0 0.00699 136.92552 136.92580
15.9028 15.8474 163.0 0.00613 136.94528 136.94556
15.9195 15.8641 145.0 0.00690 136.96504 136.96532
15.9362 15.8808 157.0 0.00637 136.98480 136.98506
15.9530 15.8976 143.0 0.00699 137.00467 137.00494
15.9697 15.9143 143.0 0.00699 137.02443 137.02470
15.9864 15.9310 121.0 0.00826 137.04419 137.04445
16.0031 15.9477 163.0 0.00613 137.06395 137.06421
16.0198 15.9644 126.0 0.00794 137.08369 137.08397
16.0366 15.9812 154.0 0.00649 137.10358 137.10384
16.0533 15.9979 140.0 0.00715 137.12334 137.12360
16.0700 16.0146 136.0 0.00736 137.14308 137.14336
16.0867 16.0313 131.0 0.00763 137.16284 137.16312
16.1034 16.0480 143.0 0.00699 137.18260 137.18288
16.1202 16.0648 146.0 0.00685 137.20247 137.20274
16.1369 16.0815 137.0 0.00731 137.22223 137.22250
16.1536 16.0982 129.0 0.00775 137.24199 137.24226
16.1703 16.1149 147.0 0.00681 137.26175 137.26202
16.1870 16.1316 151.0 0.00662 137.28149 137.28177
16.2037 16.1483 140.0 0.00715 137.30125 137.30153
16.2205 16.1651 123.0 0.00813 137.32114 137.32141
16.2372 16.1818 137.0 0.00731 137.34088 137.34117
16.2539 16.1985 126.0 0.00794 137.36064 137.36092
16.2706 16.2152 150.0 0.00666 137.38040 137.38068
16.2873 16.2319 140.0 0.00715 137.40016 137.40044
16.3041 16.2487 137.0 0.00731 137.42003 137.42030
16.3208 16.2654 144.0 0.00694 137.43979 137.44006
16.3375 16.2821 150.0 0.00666 137.45955 137.45982
16.3542 16.2988 136.0 0.00736 137.47929 137.47958
16.3709 16.3155 148.0 0.00675 137.49905 137.49934
16.3877 16.3323 127.0 0.00787 137.51894 137.51921
16.4044 16.3490 151.0 0.00662 137.53870 137.53897
16.4211 16.3657 142.0 0.00704 137.55844 137.55873
16.4378 16.3824 131.0 0.00763 137.57820 137.57848
16.4545 16.3991 122.0 0.00819 137.59796 137.59824
16.4712 16.4158 131.0 0.00763 137.61772 137.61800
16.4880 16.4326 149.0 0.00671 137.63759 137.63786
16.5047 16.4493 135.0 0.00741 137.65735 137.65762
16.5214 16.4660 122.0 0.00819 137.67711 137.67738
16.5381 16.4827 137.0 0.00731 137.69685 137.69714
16.5548 16.4994 144.0 0.00694 137.71661 137.71690
16.5716 16.5162 145.0 0.00690 137.73650 137.73677
16.5883 16.5329 150.0 0.00666 137.75624 137.75653
16.6050 16.5496 128.0 0.00782 137.77600 137.77629
16.6217 16.5663 141.0 0.00710 137.79576 137.79604
16.6384 16.5830 146.0 0.00685 137.81552 137.81580
16.6552 16.5998 118.0 0.00848 137.83539 137.83568
16.6719 16.6165 144.0 0.00694 137.85515 137.85542
16.6886 16.6332 138.0 0.00724 137.87491 137.87518
16.7053 16.6499 124.0 0.00806 137.89465 137.89494
16.7220 16.6666 150.0 0.00666 137.91441 137.91470
16.7387 16.6833 111.0 0.00900 137.93417 137.93446
16.7555 16.7001 122.0 0.00819 137.95406 137.95433
16.7722 16.7168 133.0 0.00752 137.97380 137.97409
16.7889 16.7335 139.0 0.00719 137.99356 137.99385
16.8056 16.7502 127.0 0.00787 138.01332 138.01361
16.8223 16.7669 136.0 0.00736 138.03308 138.03336
16.8391 16.7837 128.0 0.00782 138.05295 138.05324
16.8558 16.8004 119.0 0.00840 138.07271 138.07300
16.8725 16.8171 140.0 0.00715 138.09247 138.09274
16.8892 16.8338 134.0 0.00746 138.11221 138.11250
16.9059 16.8505 142.0 0.00704 138.13197 138.13226
16.9227 16.8673 132.0 0.00757 138.15186 138.15213
16.9394 16.8840 132.0 0.00757 138.17160 138.17189
16.9561 16.9007 143.0 0.00699 138.19136 138.19165
16.9728 16.9174 137.0 0.00731 138.21112 138.21141
16.9895 16.9341 127.0 0.00787 138.23088 138.23117
17.0062 16.9508 160.0 0.00625 138.25064 138.25092
17.0230 16.9676 142.0 0.00704 138.27051 138.27080
17.0397 16.9843 129.0 0.00775 138.29027 138.29056
17.0564 17.0010 137.0 0.00731 138.31001 138.31030
17.0731 17.0177 135.0 0.00741 138.32977 138.33006
17.0898 17.0344 120.0 0.00834 138.34953 138.34982
17.1066 17.0512 142.0 0.00704 138.36942 138.36969
17.1233 17.0679 128.0 0.00782 138.38916 138.38945
17.1400 17.0846 125.0 0.00800 138.40892 138.40921
17.1567 17.1013 148.0 0.00675 138.42868 138.42897
17.1734 17.1180 136.0 0.00736 138.44844 138.44873
17.1901 17.1347 136.0 0.00736 138.46819 138.46848
17.2069 17.1515 110.0 0.00909 138.48807 138.48836
17.2236 17.1682 136.0 0.00736 138.50783 138.50812
17.2403 17.1849 133.0 0.00752 138.52759 138.52788
17.2570 17.2016 125.0 0.00800 138.54733 138.54762
17.2737 17.2183 153.0 0.00654 138.56709 138.56738
17.2905 17.2351 121.0 0.00826 138.58698 138.58727
17.3072 17.2518 139.0 0.00719 138.60672 138.60701
17.3239 17.2685 132.0 0.00757 138.62648 138.62677
17.3406 17.2852 147.0 0.00681 138.64624 138.64653
17.3573 17.3019 150.0 0.00666 138.66600 138.66629
17.3741 17.3187 117.0 0.00854 138.68587 138.68616
17.3908 17.3354 143.0 0.00699 138.70563 138.70592
17.4075 17.3521 130.0 0.00769 138.72539 138.72568
17.4242 17.3688 119.0 0.00840 138.74513 138.74544
17.4409 17.3855 112.0 0.00893 138.76489 138.76518
17.4576 17.4022 117.0 0.00854 138.78465 138.78494
17.4744 17.4190 153.0 0.00654 138.80452 138.80482
17.4911 17.4357 129.0 0.00775 138.82428 138.82457
17.5078 17.4524 135.0 0.00741 138.84404 138.84433
17.5245 17.4691 131.0 0.00763 138.86380 138.86409
17.5412 17.4858 122.0 0.00819 138.88356 138.88385
17.5580 17.5026 133.0 0.00752 138.90343 138.90372
17.5747 17.5193 129.0 0.00775 138.92319 138.92348
17.5914 17.5360 129.0 0.00775 138.94293 138.94324
17.6081 17.5527 120.0 0.00834 138.96269 138.96300
17.6248 17.5694 150.0 0.00666 138.98245 138.98276
17.6416 17.5862 142.0 0.00704 139.00233 139.00262
17.6583 17.6029 139.0 0.00719 139.02208 139.02238
17.6750 17.6196 131.0 0.00763 139.04184 139.04213
17.6917 17.6363 121.0 0.00826 139.06160 139.06189
17.7084 17.6530 148.0 0.00675 139.08136 139.08165
17.7251 17.6697 134.0 0.00746 139.10110 139.10141
17.7419 17.6865 135.0 0.00741 139.12099 139.12128
17.7586 17.7032 132.0 0.00757 139.14075 139.14104
17.7753 17.7199 137.0 0.00731 139.16051 139.16080
17.7920 17.7366 121.0 0.00826 139.18025 139.18056
17.8087 17.7533 143.0 0.00699 139.20001 139.20032
17.8255 17.7701 124.0 0.00806 139.21989 139.22018
17.8422 17.7868 120.0 0.00834 139.23964 139.23994
17.8589 17.8035 140.0 0.00715 139.25940 139.25969
17.8756 17.8202 136.0 0.00736 139.27916 139.27945
17.8923 17.8369 130.0 0.00769 139.29892 139.29921
17.9091 17.8537 160.0 0.00625 139.31879 139.31909
17.9258 17.8704 133.0 0.00752 139.33855 139.33884
17.9425 17.8871 150.0 0.00666 139.35831 139.35860
17.9592 17.9038 138.0 0.00724 139.37805 139.37836
17.9759 17.9205 131.0 0.00763 139.39781 139.39812
17.9926 17.9372 129.0 0.00775 139.41757 139.41788
18.0094 17.9540 115.0 0.00870 139.43744 139.43774
18.0261 17.9707 132.0 0.00757 139.45720 139.45750
18.0428 17.9874 135.0 0.00741 139.47696 139.47726
18.0595 18.0041 131.0 0.00763 139.49672 139.49702
18.0762 18.0208 147.0 0.00681 139.51648 139.51677
18.0930 18.0376 114.0 0.00877 139.53635 139.53665
18.1097 18.0543 126.0 0.00794 139.55611 139.55641
18.1264 18.0710 128.0 0.00782 139.57585 139.57616
18.1431 18.0877 136.0 0.00736 139.59561 139.59592
18.1598 18.1044 134.0 0.00746 139.61537 139.61568
18.1766 18.1212 137.0 0.00731 139.63525 139.63554
18.1933 18.1379 151.0 0.00662 139.65500 139.65530
18.2100 18.1546 130.0 0.00769 139.67476 139.67506
18.2267 18.1713 155.0 0.00645 139.69452 139.69482
18.2434 18.1880 144.0 0.00694 139.71428 139.71458
18.2601 18.2047 128.0 0.00782 139.73402 139.73433
18.2769 18.2215 121.0 0.00826 139.75391 139.75421
18.2936 18.2382 135.0 0.00741 139.77367 139.77397
18.3103 18.2549 155.0 0.00645 139.79343 139.79372
18.3270 18.2716 123.0 0.00813 139.81317 139.81348
18.3437 18.2883 130.0 0.00769 139.83293 139.83324
18.3605 18.3051 125.0 0.00800 139.85281 139.85312
18.3772 18.3218 119.0 0.00840 139.87256 139.87286
18.3939 18.3385 124.0 0.00806 139.89232 139.89262
18.4106 18.3552 153.0 0.00654 139.91208 139.91238
18.4273 18.3719 123.0 0.00813 139.93184 139.93214
18.4441 18.3887 112.0 0.00893 139.95171 139.95201
18.4608 18.4054 121.0 0.00826 139.97147 139.97177
18.4775 18.4221 117.0 0.00854 139.99123 139.99153
18.4942 18.4388 146.0 0.00685 140.01097 140.01128
18.5109 18.4555 151.0 0.00662 140.03073 140.03104
18.5276 18.4722 120.0 0.00834 140.05049 140.05080
18.5444 18.4890 151.0 0.00662 140.07036 140.07066
18.5611 18.5057 136.0 0.00736 140.09012 140.09042
18.5778 18.5224 128.0 0.00782 140.10988 140.11018
18.5945 18.5391 145.0 0.00690 140.12964 140.12994
18.6112 18.5558 130.0 0.00769 140.14940 140.14970
18.6280 18.5726 124.0 0.00806 140.16927 140.16957
18.6447 18.5893 120.0 0.00834 140.18903 140.18933
18.6614 18.6060 131.0 0.00763 140.20879 140.20909
18.6781 18.6227 135.0 0.00741 140.22853 140.22885
18.6948 18.6394 129.0 0.00775 140.24829 140.24860
18.7116 18.6562 144.0 0.00694 140.26817 140.26848
18.7283 18.6729 135.0 0.00741 140.28792 140.28824
18.7450 18.6896 142.0 0.00704 140.30768 140.30798
18.7617 18.7063 136.0 0.00736 140.32744 140.32774
18.7784 18.7230 136.0 0.00736 140.34720 140.34750
18.7951 18.7397 128.0 0.00782 140.36694 140.36726
18.8119 18.7565 143.0 0.00699 140.38683 140.38713
18.8286 18.7732 130.0 0.00769 140.40659 140.40689
18.8453 18.7899 123.0 0.00813 140.42635 140.42665
18.8620 18.8066 142.0 0.00704 140.44609 140.44641
18.8787 18.8233 145.0 0.00690 140.46585 140.46616
18.8955 18.8401 131.0 0.00763 140.48573 140.48604
18.9122 18.8568 153.0 0.00654 140.50548 140.50580
18.9289 18.8735 125.0 0.00800 140.52524 140.52554
18.9456 18.8902 123.0 0.00813 140.54500 140.54530
18.9623 18.9069 143.0 0.00699 140.56476 140.56506
18.9791 18.9237 146.0 0.00685 140.58463 140.58495
18.9958 18.9404 117.0 0.00854 140.60439 140.60469
19.0125 18.9571 136.0 0.00736 140.62415 140.62445
19.0292 18.9738 132.0 0.00757 140.64389 140.64421
19.0459 18.9905 143.0 0.00699 140.66365 140.66397
19.0626 19.0072 130.0 0.00769 140.68341 140.68372
19.0794 19.0240 130.0 0.00769 140.70328 140.70360
19.0961 19.0407 129.0 0.00775 140.72304 140.72336
19.1128 19.0574 135.0 0.00741 140.74280 140.74312
19.1295 19.0741 130.0 0.00769 140.76256 140.76286
19.1462 19.0908 128.0 0.00782 140.78232 140.78262
19.1630 19.1076 115.0 0.00870 140.80219 140.80251
19.1797 19.1243 122.0 0.00819 140.82195 140.82227
19.1964 19.1410 134.0 0.00746 140.84171 140.84201
19.2131 19.1577 113.0 0.00885 140.86145 140.86177
19.2298 19.1744 126.0 0.00794 140.88121 140.88153
19.2465 19.1911 130.0 0.00769 140.90097 140.90129
19.2633 19.2079 154.0 0.00649 140.92084 140.92116
19.2800 19.2246 133.0 0.00752 140.94060 140.94092
19.2967 19.2413 138.0 0.00724 140.96036 140.96068
19.3134 19.2580 124.0 0.00806 140.98012 140.98042
19.3301 19.2747 136.0 0.00736 140.99986 141.00018
19.3469 19.2915 137.0 0.00731 141.01974 141.02007
19.3636 19.3082 131.0 0.00763 141.03951 141.03983
19.3803 19.3249 130.0 0.00769 141.05925 141.05957
19.3970 19.3416 141.0 0.00710 141.07901 141.07933
19.4137 19.3583 133.0 0.00752 141.09877 141.09909
19.4305 19.3751 159.0 0.00629 141.11864 141.11896
19.4472 19.3918 137.0 0.00731 141.13840 141.13872
19.4639 19.4085 138.0 0.00724 141.15816 141.15848
19.4806 19.4252 115.0 0.00870 141.17792 141.17824
19.4973 19.4419 149.0 0.00671 141.19768 141.19800
19.5140 19.4586 155.0 0.00645 141.21742 141.21774
19.5308 19.4754 141.0 0.00710 141.23730 141.23763
19.5475 19.4921 127.0 0.00787 141.25706 141.25739
19.5642 19.5088 138.0 0.00724 141.27681 141.27713
19.5809 19.5255 138.0 0.00724 141.29657 141.29689
19.5976 19.5422 133.0 0.00752 141.31633 141.31665
19.6144 19.5590 129.0 0.00775 141.33620 141.33652
19.6311 19.5757 148.0 0.00675 141.35596 141.35628
19.6478 19.5924 132.0 0.00757 141.37572 141.37604
19.6645 19.6091 118.0 0.00848 141.39548 141.39580
19.6812 19.6258 152.0 0.00658 141.41524 141.41556
19.6980 19.6426 129.0 0.00775 141.43510 141.43542
19.7147 19.6593 154.0 0.00649 141.45486 141.45518
19.7314 19.6760 153.0 0.00654 141.47461 141.47495
19.7481 19.6927 146.0 0.00685 141.49437 141.49469
19.7648 19.7094 130.0 0.00769 141.51413 141.51445
19.7815 19.7261 126.0 0.00794 141.53389 141.53421
19.7983 19.7429 140.0 0.00715 141.55376 141.55409
19.8150 19.7596 111.0 0.00900 141.57352 144.74472
19.8317 19.7763 135.0 0.00741 141.59328 144.81134
19.8484 19.7930 145.0 0.00690 141.61304 144.87900
19.8651 19.8097 155.0 0.00645 141.63278 144.94774
19.8819 19.8265 137.0 0.00731 141.65266 145.01799
19.8986 19.8432 123.0 0.00813 141.67242 145.08900
19.9153 19.8599 129.0 0.00775 141.69217 145.16118
19.9320 19.8766 128.0 0.00782 141.71193 145.23456
19.9487 19.8933 144.0 0.00694 141.73169 145.30920
19.9655 19.9101 133.0 0.00752 141.75156 145.38560
19.9822 19.9268 132.0 0.00757 141.77132 145.46289
19.9989 19.9435 155.0 0.00645 141.79108 145.54153
20.0156 19.9602 133.0 0.00752 141.81084 145.62161
20.0323 19.9769 125.0 0.00800 141.83060 145.70316
20.0490 19.9936 147.0 0.00681 141.85034 145.78622
20.0658 20.0104 133.0 0.00752 141.87022 145.87134
20.0825 20.0271 135.0 0.00741 141.88998 145.95758
20.0992 20.0438 144.0 0.00694 141.90973 148.41756
20.1159 20.0605 138.0 0.00724 141.92949 148.54825
20.1326 20.0772 145.0 0.00690 141.94925 148.68178
20.1494 20.0940 139.0 0.00719 141.96912 148.81911
20.1661 20.1107 118.0 0.00848 141.98888 148.95872
20.1828 20.1274 138.0 0.00724 142.00864 149.10144
20.1995 20.1441 118.0 0.00848 142.02840 149.24748
20.2162 20.1608 135.0 0.00741 142.04816 149.39694
20.2330 20.1776 148.0 0.00675 142.06802 149.55083
20.2497 20.1943 131.0 0.00763 142.08778 149.70747
20.2664 20.2110 147.0 0.00681 142.10753 149.86789
20.2831 20.2277 125.0 0.00800 142.12729 150.03226
20.2998 20.2444 135.0 0.00741 142.14705 150.20070
20.3165 20.2611 162.0 0.00617 142.16681 150.37338
20.3333 20.2779 136.0 0.00736 142.18668 150.55150
20.3500 20.2946 129.0 0.00775 142.20644 150.73315
20.3667 20.3113 148.0 0.00675 142.22620 150.91954
20.3834 20.3280 129.0 0.00775 142.24596 151.11089
20.4001 20.3447 143.0 0.00699 142.26570 151.30734
20.4169 20.3615 126.0 0.00794 142.28558 151.51036
20.4336 20.3782 149.0 0.00671 142.30534 151.71776
20.4503 20.3949 132.0 0.00757 142.32509 151.93089
20.4670 20.4116 149.0 0.00671 142.34485 152.15005
20.4837 20.4283 143.0 0.00699 142.36461 152.37553
20.5005 20.4451 168.0 0.00595 142.38448 152.60892
20.5172 20.4618 152.0 0.00658 142.40424 152.84772
20.5339 20.4785 143.0 0.00699 142.42400 153.09373
20.5506 20.4952 160.0 0.00625 142.44376 153.34712
20.5673 20.5119 162.0 0.00617 142.46350 153.60823
20.5840 20.5286 149.0 0.00671 142.48326 153.87746
20.6008 20.5454 137.0 0.00731 142.50314 154.15689
20.6175 20.5621 132.0 0.00757 142.52290 154.44348
20.6342 20.5788 173.0 0.00578 142.54265 154.73938
20.6509 20.5955 139.0 0.00719 142.56241 155.04494
20.6676 20.6122 137.0 0.00731 142.58217 155.36063
20.6844 20.6290 158.0 0.00633 142.60204 155.68901
20.7011 20.6457 152.0 0.00658 142.62180 156.02666
20.7178 20.6624 141.0 0.00710 142.64156 156.37596
20.7345 20.6791 152.0 0.00658 142.66130 156.73752
20.7512 20.6958 151.0 0.00662 142.68108 157.11215
20.7680 20.7126 133.0 0.00752 142.70094 157.50259
20.7847 20.7293 147.0 0.00681 142.72069 157.90498
20.8014 20.7460 156.0 0.00641 142.74046 158.32257
20.8181 20.7627 157.0 0.00637 142.76021 158.75586
20.8348 20.7794 131.0 0.00763 142.77997 159.20581
20.8515 20.7961 162.0 0.00617 142.79973 159.67334
20.8683 20.8129 159.0 0.00629 142.81960 160.16248
20.8850 20.8296 161.0 0.00621 142.83936 160.66824
20.9017 20.8463 186.0 0.00537 142.85912 161.19479
20.9184 20.8630 159.0 0.00629 142.87888 161.74318
20.9351 20.8797 156.0 0.00641 142.89862 162.31462
20.9519 20.8965 157.0 0.00637 142.91850 162.91444
20.9686 20.9132 150.0 0.00666 142.93826 163.53679
20.9853 20.9299 164.0 0.00609 142.95801 164.18666
21.0020 20.9466 174.0 0.00575 142.97777 164.86575
21.0187 20.9633 167.0 0.00599 142.99753 165.57632
21.0355 20.9801 156.0 0.00641 143.01740 166.32443
21.0522 20.9968 162.0 0.00617 143.03716 167.10338
21.0689 21.0135 178.0 0.00562 143.05692 167.92035
21.0856 21.0302 175.0 0.00571 143.07668 168.77728
21.1023 21.0469 164.0 0.00609 143.09644 169.67717
21.1190 21.0636 181.0 0.00553 143.11618 170.62299
21.1358 21.0804 152.0 0.00658 143.13606 171.62422
21.1525 21.0971 171.0 0.00585 143.15582 172.67223
21.1692 21.1138 171.0 0.00585 143.17557 173.77699
21.1859 21.1305 167.0 0.00599 143.19533 174.94241
21.2026 21.1472 181.0 0.00553 143.21509 176.17308
21.2194 21.1640 177.0 0.00565 143.23495 177.48265
21.2361 21.1807 155.0 0.00645 143.25471 178.86076
21.2528 21.1974 171.0 0.00585 143.27448 180.32092
21.2695 21.2141 193.0 0.00518 143.29422 181.86986
21.2862 21.2308 178.0 0.00562 143.31400 183.51599
21.3029 21.2475 193.0 0.00518 143.33374 185.26637
21.3197 21.2643 207.0 0.00483 143.35361 187.14194
21.3364 21.2810 164.0 0.00609 143.37338 189.13168
21.3531 21.2977 164.0 0.00609 143.39313 191.25641
21.3698 21.3144 207.0 0.00483 143.41289 193.52936
21.3865 21.3311 189.0 0.00529 143.43265 195.96469
21.4033 21.3479 208.0 0.00481 143.45251 198.59503
21.4200 21.3646 220.0 0.00455 143.47227 201.40630
21.4367 21.3813 199.0 0.00502 143.49203 204.43469
21.4534 21.3980 237.0 0.00422 143.51180 207.70222
21.4701 21.4147 201.0 0.00497 143.53154 211.23540
21.4869 21.4315 206.0 0.00486 143.55142 215.08830
21.5036 21.4482 234.0 0.00427 143.57118 219.24799
21.5203 21.4649 224.0 0.00446 143.59093 223.77589
21.5370 21.4816 237.0 0.00422 143.61069 228.71602
21.5537 21.4983 240.0 0.00417 143.63045 234.12318
21.5704 21.5150 210.0 0.00476 143.65021 240.05356
21.5872 21.5318 240.0 0.00417 143.67007 246.61873
21.6039 21.5485 275.0 0.00364 143.68983 253.82690
21.6206 21.5652 269.0 0.00372 143.70959 261.80679
21.6373 21.5819 300.0 0.003334 143.72935 270.67462
21.6540 21.5986 283.0 0.00353 143.74910 280.56638
21.6708 21.6154 295.0 0.003388 143.76898 291.71707
21.6875 21.6321 305.0 0.003280 143.78874 304.18890
21.7042 21.6488 322.0 0.003107 143.80849 318.29056
21.7209 21.6655 330.0 0.003029 143.82825 334.32202
21.7376 21.6822 338.0 0.002960 143.84801 352.68179
21.7544 21.6990 388.0 0.002577 143.86787 374.05869
21.7711 21.7157 435.0 0.002298 143.88763 399.01300
21.7878 21.7324 487.0 0.002053 143.90739 428.97849
21.8045 21.7491 520.0 0.001924 143.92714 466.17416
21.8212 21.7658 607.0 0.001647 143.94690 514.48096
21.8379 21.7825 757.0 0.001321 143.96666 580.47778
21.8547 21.7993 956.0 0.001046 143.98654 675.79126
21.8714 21.8160 1150.0 0.000870 144.00629 816.65070
21.8881 21.8327 1303.0 0.000767 144.02605 1028.68225
21.9048 21.8494 1699.0 0.000589 144.04581 1345.99438
21.9215 21.8661 2269.0 0.000441 144.06557 1810.16260
21.9383 21.8829 2743.0 0.000365 144.08543 2470.29248
21.9550 21.8996 3599.0 0.0002779 144.10519 3356.94653
21.9717 21.9163 4503.0 0.0002221 144.12495 4493.40967
21.9884 21.9330 5666.0 0.0001765 144.14471 5865.24072
22.0051 21.9497 6943.0 0.0001440 144.16446 7410.17676
22.0219 21.9665 8070.0 0.0001239 144.18434 9018.74316
22.0386 21.9832 9497.0 0.0001053 144.20410 10499.24902
22.0553 21.9999 10407.0 0.0000961 144.22385 11662.46875
22.0720 22.0166 10956.0 0.0000912 144.24361 12326.76758
22.0887 22.0333 11157.0 0.0000897 144.26337 12376.96973
22.1054 22.0500 10377.0 0.0000963 144.28313 11791.62109
22.1222 22.0668 9441.0 0.0001059 144.30299 10650.20020
22.1389 22.0835 8218.0 0.0001217 144.32275 9152.41797
22.1556 22.1002 6371.0 0.0001570 144.34251 7517.21631
22.1723 22.1169 4851.0 0.0002061 144.36226 5934.69531
22.1890 22.1336 3714.0 0.0002693 144.38202 4531.82227
22.2058 22.1504 2690.0 0.000372 144.40190 3366.56396
22.2225 22.1671 1925.0 0.000520 144.42165 2467.12891
22.2392 22.1838 1425.0 0.000702 144.44141 1804.53577
22.2559 22.2005 1152.0 0.000868 144.46117 1338.57776
22.2726 22.2172 983.0 0.001017 144.48093 1022.56146
22.2894 22.2340 764.0 0.001309 144.50079 812.02026
22.3061 22.2507 649.0 0.001540 144.52055 674.07190
22.3228 22.2674 566.0 0.001767 144.54031 581.36688
22.3395 22.2841 482.0 0.002076 144.56006 516.60596
22.3562 22.3008 527.0 0.001897 144.57982 468.92935
22.3729 22.3175 450.0 0.002223 144.59958 431.95523
22.3897 22.3343 406.0 0.002463 144.61945 401.82660
22.4064 22.3510 360.0 0.002779 144.63921 376.77628
22.4231 22.3677 367.0 0.002724 144.65897 355.38849
22.4398 22.3844 326.0 0.003066 144.67873 336.87592
22.4565 22.4011 304.0 0.003288 144.69849 320.70605
22.4733 22.4179 294.0 0.003400 144.71835 306.40509
22.4900 22.4346 278.0 0.00360 144.73811 293.84204
22.5067 22.4513 283.0 0.00353 144.75787 282.67880
22.5234 22.4680 261.0 0.00383 144.77763 272.71921
22.5401 22.4847 241.0 0.00415 144.79738 263.79660
22.5569 22.5015 239.0 0.00418 144.81726 255.72636
22.5736 22.5182 223.0 0.00449 144.83702 248.49069
22.5903 22.5349 215.0 0.00465 144.85677 241.94002
22.6070 22.5516 241.0 0.00415 144.87653 235.99208
22.6237 22.5683 216.0 0.00463 144.89629 230.57271
22.6404 22.5850 227.0 0.00440 144.91605 225.62515
22.6572 22.6018 219.0 0.00457 144.93591 221.06999
22.6739 22.6185 206.0 0.00486 144.95567 216.91348
22.6906 22.6352 190.0 0.00527 144.97543 213.09103
22.7073 22.6519 185.0 0.00541 144.99518 209.56708
22.7240 22.6686 181.0 0.00553 145.01494 206.31158
22.7408 22.6854 197.0 0.00507 145.03482 203.28044
22.7575 22.7021 204.0 0.00490 145.05457 200.48727
22.7742 22.7188 183.0 0.00546 145.07433 197.89206
22.7909 22.7355 201.0 0.00497 145.09409 195.47737
22.8076 22.7522 181.0 0.00553 145.11385 193.22672
22.8244 22.7690 193.0 0.00518 145.13371 191.11324
22.8411 22.7857 172.0 0.00582 145.15347 189.14986
22.8578 22.8024 202.0 0.00495 145.17323 187.31174
22.8745 22.8191 179.0 0.00559 145.19298 185.58881
22.8912 22.8358 191.0 0.00524 145.21274 183.97086
22.9079 22.8525 173.0 0.00578 145.23250 182.45073
22.9247 22.8693 168.0 0.00595 145.25237 181.01227
22.9414 22.8860 173.0 0.00578 145.27213 179.66496
22.9581 22.9027 197.0 0.00507 145.29189 178.39479
22.9748 22.9194 167.0 0.00599 145.31165 177.19569
22.9915 22.9361 178.0 0.00562 145.33141 176.06259
23.0083 22.9529 166.0 0.00603 145.35127 174.98438
23.0250 22.9696 175.0 0.00571 145.37103 173.96996
23.0417 22.9863 163.0 0.00613 145.39079 173.00851
23.0584 23.0030 152.0 0.00658 145.41055 172.09677
23.0751 23.0197 140.0 0.00715 145.43030 171.23128
23.0919 23.0365 165.0 0.00606 145.45018 170.40416
23.1086 23.0532 182.0 0.00550 145.46994 169.62270
23.1253 23.0699 174.0 0.00575 145.48969 168.87912
23.1420 23.0866 159.0 0.00629 145.50945 168.17125
23.1587 23.1033 161.0 0.00621 145.52921 167.49646
23.1754 23.1200 192.0 0.00521 145.54897 166.85329
23.1922 23.1368 183.0 0.00546 145.56883 166.23610
23.2089 23.1535 150.0 0.00666 145.58859 165.65024
23.2256 23.1702 159.0 0.00629 145.60835 165.09074
23.2423 23.1869 164.0 0.00609 145.62810 164.55594
23.2590 23.2036 173.0 0.00578 145.64786 164.04446
23.2758 23.2204 192.0 0.00521 145.66774 163.55208
23.2925 23.2371 197.0 0.00507 145.68748 163.08359
23.3092 23.2538 161.0 0.00621 145.70724 162.63475
23.3259 23.2705 172.0 0.00582 145.72701 162.20461
23.3426 23.2872 172.0 0.00582 145.74677 161.79222
23.3593 23.3039 206.0 0.00486 145.76653 161.39644
23.3761 23.3207 177.0 0.00565 145.78639 161.01443
23.3928 23.3374 216.0 0.00463 145.80615 160.64987
23.4095 23.3541 223.0 0.00449 145.82590 160.29974
23.4262 23.3708 242.0 0.00413 145.84566 159.96307
23.4429 23.3875 251.0 0.00399 145.86542 159.63951
23.4597 23.4043 259.0 0.00386 145.88528 159.32652
23.4764 23.4210 289.0 0.003460 145.90506 159.02708
23.4931 23.4377 299.0 0.003345 145.92480 158.73895
23.5098 23.4544 248.0 0.00403 145.94456 158.46152
23.5265 23.4711 296.0 0.003380 145.96432 158.19431
23.5433 23.4879 231.0 0.00433 145.98419 157.93529
23.5600 23.5046 202.0 0.00495 146.00395 157.68719
23.5767 23.5213 187.0 0.00535 146.02371 157.44797
23.5934 23.5380 199.0 0.00502 146.04347 157.21729
23.6101 23.5547 183.0 0.00546 146.06322 156.99478
23.6268 23.5714 159.0 0.00629 146.08298 156.77995
23.6436 23.5882 184.0 0.00544 146.10286 156.57143
23.6603 23.6049 162.0 0.00617 146.12260 156.37134
23.6770 23.6216 147.0 0.00681 146.14236 156.17812
23.6937 23.6383 147.0 0.00681 146.16212 155.99138
23.7104 23.6550 141.0 0.00710 146.18188 155.81100
23.7272 23.6718 148.0 0.00675 146.20175 155.63568
23.7439 23.6885 141.0 0.00710 146.22151 155.46713
23.7606 23.7052 139.0 0.00719 146.24127 155.30420
23.7773 23.7219 143.0 0.00699 146.26102 155.14665
23.7940 23.7386 159.0 0.00629 146.28078 154.99426
23.8108 23.7554 142.0 0.00704 146.30066 154.84590
23.8275 23.7721 125.0 0.00800 146.32040 154.70325
23.8442 23.7888 139.0 0.00719 146.34016 154.56517
23.8609 23.8055 146.0 0.00685 146.35992 154.43150
23.8776 23.8222 137.0 0.00731 146.37968 154.30209
23.8943 23.8389 138.0 0.00724 146.39944 154.17677
23.9111 23.8557 144.0 0.00694 146.41931 154.05469
23.9278 23.8724 150.0 0.00666 146.43907 153.93715
23.9445 23.8891 144.0 0.00694 146.45882 153.82329
23.9612 23.9058 141.0 0.00710 146.47858 153.71292
23.9779 23.9225 163.0 0.00613 146.49834 153.60600
23.9947 23.9393 138.0 0.00724 146.51820 153.50180
24.0114 23.9560 151.0 0.00662 146.53798 153.40135
24.0281 23.9727 147.0 0.00681 146.55772 153.30402
24.0448 23.9894 150.0 0.00666 146.57748 153.20964
24.0615 24.0061 153.0 0.00654 146.59724 153.11815
24.0783 24.0229 153.0 0.00654 146.61711 153.02887
24.0950 24.0396 135.0 0.00741 146.57169 152.87767
24.1117 24.0563 155.0 0.00645 146.51027 152.71306
24.1284 24.0730 162.0 0.00617 146.44888 152.55098
24.1451 24.0897 127.0 0.00787 146.38748 152.39137
24.1618 24.1064 159.0 0.00629 146.32607 152.23402
24.1786 24.1232 154.0 0.00649 146.26430 152.07811
24.1953 24.1399 158.0 0.00633 146.20290 151.92529
24.2120 24.1566 156.0 0.00641 146.14151 151.77467
24.2287 24.1733 142.0 0.00704 146.08009 151.62605
24.2454 24.1900 141.0 0.00710 146.01869 151.47946
24.2622 24.2068 143.0 0.00699 145.95692 151.33398
24.2789 24.2235 163.0 0.00613 145.89551 151.19122
24.2956 24.2402 114.0 0.00877 145.83411 151.05032
24.3123 24.2569 134.0 0.00746 145.77271 150.91121
24.3290 24.2736 140.0 0.00715 145.71132 150.77380
24.3458 24.2904 150.0 0.00666 145.64954 150.63727
24.3625 24.3071 152.0 0.00658 145.58813 150.50317
24.3792 24.3238 126.0 0.00794 145.52672 145.52708
24.3959 24.3405 156.0 0.00641 145.46533 145.46568
24.4126 24.3572 161.0 0.00621 145.40393 145.40430
24.4293 24.3739 178.0 0.00562 145.34251 145.34286
24.4461 24.3907 122.0 0.00819 145.28075 145.28111
24.4628 24.4074 138.0 0.00724 145.21935 145.21970
24.4795 24.4241 167.0 0.00599 145.15796 145.15831
24.4962 24.4408 153.0 0.00654 145.09654 145.09689
24.5129 24.4575 152.0 0.00658 145.03514 145.03549
24.5297 24.4743 139.0 0.00719 144.97337 144.97372
24.5464 24.4910 143.0 0.00699 144.91196 144.91231
24.5631 24.5077 145.0 0.00690 144.85056 144.85091
24.5798 24.5244 148.0 0.00675 144.78915 144.78951
24.5965 24.5411 132.0 0.00757 144.72777 144.72810
24.6133 24.5579 132.0 0.00757 144.66599 144.66632
24.6300 24.5746 155.0 0.00645 144.60458 144.60493
24.6467 24.5913 183.0 0.00546 144.54317 144.54352
24.6634 24.6080 146.0 0.00685 144.48178 144.48212
24.6801 24.6247 128.0 0.00782 144.42038 144.42072
24.6968 24.6414 146.0 0.00685 144.35896 144.35930
24.7136 24.6582 135.0 0.00741 144.29720 144.29753
24.7303 24.6749 139.0 0.00719 144.23579 144.23613
24.7470 24.6916 144.0 0.00694 144.17441 144.17473
24.7637 24.7083 149.0 0.00671 144.11299 144.11333
24.7804 24.7250 154.0 0.00649 144.05159 144.05191
24.7972 24.7418 137.0 0.00731 143.98982 143.99016
24.8139 24.7585 140.0 0.00715 143.92841 143.92874
24.8306 24.7752 139.0 0.00719 143.86700 143.86734
24.8473 24.7919 153.0 0.00654 143.80560 143.80594
24.8640 24.8086 145.0 0.00690 143.74422 143.74454
24.8808 24.8254 141.0 0.00710 143.68243 143.68275
24.8975 24.8421 132.0 0.00757 143.62103 143.62135
24.9142 24.8588 152.0 0.00658 143.55962 143.55994
24.9309 24.8755 163.0 0.00613 143.49823 143.49855
24.9476 24.8922 151.0 0.00662 143.43683 143.43715
24.9643 24.9089 131.0 0.00763 143.37541 143.37573
24.9811 24.9257 115.0 0.00870 143.31364 143.31396
24.9978 24.9424 139.0 0.00719 143.25226 143.25258
25.0145 24.9591 144.0 0.00694 143.19084 143.19115
25.0312 24.9758 152.0 0.00658 143.12944 143.12975
25.0479 24.9925 142.0 0.00704 143.06804 143.06834
25.0647 25.0093 136.0 0.00736 143.00627 143.00659
25.0814 25.0260 152.0 0.00658 142.94485 142.94516
25.0981 25.0427 149.0 0.00671 142.88345 142.88376
25.1148 25.0594 147.0 0.00681 142.82207 142.82237
25.1315 25.0761 149.0 0.00671 142.76067 142.76097
25.1483 25.0929 143.0 0.00699 142.69888 142.69919
25.1650 25.1096 149.0 0.00671 142.63748 142.63779
25.1817 25.1263 146.0 0.00685 142.57608 142.57637
25.1984 25.1430 163.0 0.00613 142.51468 142.51497
25.2151 25.1597 136.0 0.00736 142.45328 142.45358
25.2318 25.1764 152.0 0.00658 142.39186 142.39217
25.2486 25.1932 104.0 0.00961 142.33009 142.33038
25.2653 25.2099 149.0 0.00671 142.26869 142.26898
25.2820 25.2266 147.0 0.00681 142.20731 142.20760
25.2987 25.2433 167.0 0.00599 142.14589 142.14618
25.3154 25.2600 158.0 0.00633 142.08449 142.08478
25.3322 25.2768 139.0 0.00719 142.02272 142.02301
25.3489 25.2935 156.0 0.00641 141.96130 141.96159
25.3656 25.3102 136.0 0.00736 141.89990 141.90019
25.3823 25.3269 155.0 0.00645 141.83852 141.83879
25.3990 25.3436 151.0 0.00662 141.77711 141.77739
25.4158 25.3604 151.0 0.00662 141.71533 141.71562
25.4325 25.3771 124.0 0.00806 141.65393 141.65421
25.4492 25.3938 133.0 0.00752 141.59253 141.59280
25.4659 25.4105 158.0 0.00633 141.53113 141.53140
25.4826 25.4272 152.0 0.00658 141.46973 141.47002
25.4993 25.4439 149.0 0.00671 141.40831 141.40858
25.5161 25.4607 156.0 0.00641 141.34654 141.34682
25.5328 25.4774 143.0 0.00699 141.28516 141.28543
25.5495 25.4941 127.0 0.00787 141.22374 141.22401
25.5662 25.5108 151.0 0.00662 141.16234 141.16261
25.5829 25.5275 142.0 0.00704 141.10094 141.10121
25.5997 25.5443 144.0 0.00694 141.03917 141.03944
25.6164 25.5610 127.0 0.00787 140.97775 140.97803
25.6331 25.5777 152.0 0.00658 140.91635 140.91663
25.6498 25.5944 160.0 0.00625 140.85497 140.85522
25.6665 25.6111 153.0 0.00654 140.79355 140.79381
25.6832 25.6278 150.0 0.00666 140.73216 140.73242
25.7000 25.6446 142.0 0.00704 140.67038 140.67064
25.7167 25.6613 156.0 0.00641 140.60898 140.60924
25.7334 25.6780 158.0 0.00633 140.54758 140.54784
25.7501 25.6947 155.0 0.00645 140.48618 140.48643
25.7668 25.7114 143.0 0.00699 140.42476 140.42502
25.7836 25.7282 154.0 0.00649 140.36299 140.36325
25.8003 25.7449 150.0 0.00666 140.30159 140.30185
25.8170 25.7616 150.0 0.00666 140.24020 140.24045
25.8337 25.7783 135.0 0.00741 140.17879 140.17903
25.8504 25.7950 139.0 0.00719 140.11739 140.11763
25.8672 25.8118 136.0 0.00736 140.05563 140.05588
25.8839 25.8285 142.0 0.00704 139.99420 139.99446
25.9006 25.8452 139.0 0.00719 139.93280 139.93306
25.9173 25.8619 163.0 0.00613 139.87141 139.87166
25.9340 25.8786 145.0 0.00690 139.81000 139.81024
25.9507 25.8953 131.0 0.00763 139.74861 139.74886
25.9675 25.9121 155.0 0.00645 139.68683 139.68707
25.9842 25.9288 159.0 0.00629 139.62543 139.62567
26.0009 25.9455 142.0 0.00704 139.56403 139.56427
26.0176 25.9622 145.0 0.00690 139.50262 139.50287
26.0343 25.9789 153.0 0.00654 139.44121 139.44145
26.0511 25.9957 155.0 0.00645 139.37944 139.37968
26.0678 26.0124 145.0 0.00690 139.31805 139.31828
26.0845 26.0291 145.0 0.00690 139.25664 139.25687
26.1012 26.0458 152.0 0.00658 139.19524 139.19547
26.1179 26.0625 143.0 0.00699 139.13383 139.13406
26.1347 26.0793 152.0 0.00658 139.07208 139.07231
26.1514 26.0960 142.0 0.00704 139.01065 139.01088
26.1681 26.1127 139.0 0.00719 138.94926 138.94949
26.1848 26.1294 142.0 0.00704 138.88786 138.88809
26.2015 26.1461 151.0 0.00662 138.82645 138.82668
26.2182 26.1628 126.0 0.00794 138.76506 138.76527
26.2350 26.1796 136.0 0.00736 138.70328 138.70351
26.2517 26.1963 140.0 0.00715 138.64188 138.64209
26.2684 26.2130 149.0 0.00671 138.58047 138.58069
26.2851 26.2297 145.0 0.00690 138.51907 138.51930
26.3018 26.2464 162.0 0.00617 138.45766 138.45789
26.3186 26.2632 129.0 0.00775 138.39589 138.39610
26.3353 26.2799 145.0 0.00690 138.33449 138.33470
26.3520 26.2966 142.0 0.00704 138.27310 138.27332
26.3687 26.3133 158.0 0.00633 138.21169 138.21190
26.3854 26.3300 129.0 0.00775 138.15028 138.15050
26.4022 26.3468 133.0 0.00752 138.08853 138.08873
26.4189 26.3635 141.0 0.00710 138.02710 138.02731
26.4356 26.3802 127.0 0.00787 137.96571 137.96591
26.4523 26.3969 144.0 0.00694 137.90431 137.90451
26.4690 26.4136 131.0 0.00763 137.84290 137.84311
26.4857 26.4303 136.0 0.00736 137.78151 137.78171
26.5025 26.4471 146.0 0.00685 137.71973 137.71992
26.5192 26.4638 144.0 0.00694 137.65833 137.65852
26.5359 26.4805 144.0 0.00694 137.59692 137.59712
26.5526 26.4972 130.0 0.00769 137.53554 137.53574
26.5693 26.5139 141.0 0.00710 137.47411 137.47430
26.5861 26.5307 127.0 0.00787 137.41234 137.41254
26.6028 26.5474 133.0 0.00752 137.35095 137.35115
26.6195 26.5641 145.0 0.00690 137.28954 137.28973
26.6362 26.5808 140.0 0.00715 137.22813 137.22832
26.6529 26.5975 125.0 0.00800 137.16673 137.16693
26.6697 26.6143 150.0 0.00666 137.10498 137.10516
26.6864 26.6310 157.0 0.00637 137.04355 137.04375
26.7031 26.6477 134.0 0.00746 136.98216 136.98235
26.7198 26.6644 139.0 0.00719 136.92076 136.92094
26.7365 26.6811 147.0 0.00681 136.85934 136.85953
26.7532 26.6978 152.0 0.00658 136.79796 136.79814
26.7700 26.7146 145.0 0.00690 136.73618 136.73636
26.7867 26.7313 144.0 0.00694 136.67477 136.67496
26.8034 26.7480 153.0 0.00654 136.61337 136.61356
26.8201 26.7647 151.0 0.00662 136.55199 136.55215
26.8368 26.7814 153.0 0.00654 136.49055 136.49074
26.8536 26.7982 136.0 0.00736 136.42879 136.42897
26.8703 26.8149 169.0 0.00592 136.36739 136.36757
26.8870 26.8316 154.0 0.00649 136.30600 136.30618
26.9037 26.8483 135.0 0.00741 136.24458 136.24475
26.9204 26.8650 147.0 0.00681 136.18318 136.18335
26.9372 26.8818 131.0 0.00763 136.12143 136.12160
26.9539 26.8985 153.0 0.00654 136.06000 136.06018
26.9706 26.9152 141.0 0.00710 135.99861 135.99878
26.9873 26.9319 156.0 0.00641 135.93721 135.93738
27.0040 26.9486 138.0 0.00724 135.87579 135.87596
27.0207 26.9653 131.0 0.00763 135.81441 135.81458
27.0375 26.9821 146.0 0.00685 135.75262 135.75279
27.0542 26.9988 137.0 0.00731 135.69122 135.69139
27.0709 27.0155 138.0 0.00724 135.62982 135.62999
27.0876 27.0322 112.0 0.00893 135.56844 135.56859
27.1043 27.0489 129.0 0.00775 135.50700 135.50717
27.1211 27.0657 144.0 0.00694 135.44524 135.44540
27.1378 27.0824 139.0 0.00719 135.38385 135.38400
27.1545 27.0991 128.0 0.00782 135.32243 135.32259
27.1712 27.1158 136.0 0.00736 135.26103 135.26118
27.1879 27.1325 163.0 0.00613 135.19963 135.19978
27.2047 27.1493 137.0 0.00731 135.13788 135.13803
27.2214 27.1660 160.0 0.00625 135.07646 135.07660
27.2381 27.1827 130.0 0.00769 135.01506 135.01521
27.2548 27.1994 124.0 0.00806 134.95366 134.95381
27.2715 27.2161 135.0 0.00741 134.89224 134.89240
27.2882 27.2328 141.0 0.00710 134.83086 134.83099
27.3050 27.2496 122.0 0.00819 134.76907 134.76923
27.3217 27.2663 151.0 0.00662 134.70767 134.70781
27.3384 27.2830 179.0 0.00559 134.64627 134.64641
27.3551 27.2997 129.0 0.00775 134.58488 134.58502
27.3718 27.3164 139.0 0.00719 134.52345 134.52361
27.3886 27.3332 157.0 0.00637 134.46169 134.46182
27.4053 27.3499 136.0 0.00736 134.40028 134.40042
27.4220 27.3666 154.0 0.00649 134.33890 134.33904
27.4387 27.3833 149.0 0.00671 134.27748 134.27762
27.4554 27.4000 150.0 0.00666 134.21608 134.21622
27.4722 27.4168 124.0 0.00806 134.15433 134.15446
27.4889 27.4335 126.0 0.00794 134.09291 134.09303
27.5056 27.4502 132.0 0.00757 134.03151 134.03163
27.5223 27.4669 142.0 0.00704 133.97009 133.97023
27.5390 27.4836 140.0 0.00715 133.90869 133.90883
27.5557 27.5003 150.0 0.00666 133.84731 133.84743
27.5725 27.5171 135.0 0.00741 133.78552 133.78564
27.5892 27.5338 141.0 0.00710 133.72412 133.72424
27.6059 27.5505 143.0 0.00699 133.66272 133.66284
27.6226 27.5672 152.0 0.00658 133.60133 133.60146
27.6393 27.5839 145.0 0.00690 133.53990 133.54002
27.6561 27.6007 155.0 0.00645 133.47813 133.47826
27.6728 27.6174 134.0 0.00746 133.41675 133.41687
27.6895 27.6341 136.0 0.00736 133.35533 133.35544
27.7062 27.6508 163.0 0.00613 133.29393 133.29405
27.7229 27.6675 129.0 0.00775 133.23253 133.23265
27.7396 27.6842 138.0 0.00724 133.17113 133.17125
27.7564 27.7010 155.0 0.00645 133.10936 133.10947
27.7731 27.7177 154.0 0.00649 133.04796 133.04807
27.7898 27.7344 148.0 0.00675 132.98656 132.98666
27.8065 27.7511 135.0 0.00741 132.92514 132.92525
27.8232 27.7678 153.0 0.00654 132.86375 132.86386
27.8400 27.7846 140.0 0.00715 132.80197 132.80208
27.8567 27.8013 145.0 0.00690 132.74057 132.74068
27.8734 27.8180 128.0 0.00782 132.67917 132.67926
27.8901 27.8347 142.0 0.00704 132.61777 132.61787
27.9068 27.8514 152.0 0.00658 132.55637 132.55646
27.9236 27.8682 145.0 0.00690 132.49458 132.49469
27.9403 27.8849 157.0 0.00637 132.43320 132.43329
27.9570 27.9016 163.0 0.00613 132.37180 132.37190
27.9737 27.9183 162.0 0.00617 132.31038 132.31047
27.9904 27.9350 159.0 0.00629 132.24898 132.24907
28.0071 27.9517 150.0 0.00666 132.18758 132.18767
28.0239 27.9685 158.0 0.00633 132.12581 132.12590
28.0406 27.9852 148.0 0.00675 132.06441 132.06450
28.0573 28.0019 145.0 0.00690 132.00301 132.00308
28.0740 28.0186 118.0 0.00848 131.94159 131.94168
28.0907 28.0353 151.0 0.00662 131.88020 131.88029
28.1075 28.0521 140.0 0.00715 131.81842 131.81851
28.1242 28.0688 151.0 0.00662 131.75702 131.75711
28.1409 28.0855 155.0 0.00645 131.69562 131.69569
28.1576 28.1022 157.0 0.00637 131.63422 131.63431
28.1743 28.1189 149.0 0.00671 131.57281 131.57289
28.1911 28.1357 134.0 0.00746 131.51103 131.51112
28.2078 28.1524 142.0 0.00704 131.44965 131.44972
28.2245 28.1691 157.0 0.00637 131.38823 131.38831
28.2412 28.1858 145.0 0.00690 131.32683 131.32690
28.2579 28.2025 150.0 0.00666 131.26543 131.26550
28.2746 28.2192 130.0 0.00769 131.20403 131.20410
28.2914 28.2360 148.0 0.00675 131.14226 131.14233
28.3081 28.2527 160.0 0.00625 131.08086 131.08093
28.3248 28.2694 141.0 0.00710 131.01945 131.01952
28.3415 28.2861 147.0 0.00681 130.95804 130.95811
28.3582 28.3028 150.0 0.00666 130.89665 130.89671
28.3750 28.3196 153.0 0.00654 130.83487 130.83495
28.3917 28.3363 128.0 0.00782 130.77347 130.77353
28.4084 28.3530 140.0 0.00715 130.71207 130.71213
28.4251 28.3697 167.0 0.00599 130.65067 130.65074
28.4418 28.3864 138.0 0.00724 130.58926 130.58932
28.4586 28.4032 149.0 0.00671 130.52748 130.52754
28.4753 28.4199 159.0 0.00629 130.46609 130.46616
28.4920 28.4366 136.0 0.00736 130.40469 130.40475
28.5087 28.4533 166.0 0.00603 130.34328 130.34334
28.5254 28.4700 147.0 0.00681 130.28188 130.28194
28.5421 28.4867 151.0 0.00662 130.22047 130.22054
28.5589 28.5035 163.0 0.00613 130.15871 130.15875
28.5756 28.5202 140.0 0.00715 130.09731 130.09735
28.5923 28.5369 164.0 0.00609 130.03590 130.03595
28.6090 28.5536 171.0 0.00585 129.97449 129.97455
28.6257 28.5703 158.0 0.00633 129.91310 129.91315
28.6425 28.5871 141.0 0.00710 129.85132 129.85136
28.6592 28.6038 144.0 0.00694 129.78992 129.78996
28.6759 28.6205 144.0 0.00694 129.72852 129.72856
28.6926 28.6372 146.0 0.00685 129.66711 129.66716
28.7093 28.6539 147.0 0.00681 129.60571 129.60574
28.7261 28.6707 151.0 0.00662 129.54393 129.54398
28.7428 28.6874 163.0 0.00613 129.48254 129.48259
28.7595 28.7041 149.0 0.00671 129.42113 129.42116
28.7762 28.7208 161.0 0.00621 129.35973 129.35977
28.7929 28.7375 162.0 0.00617 129.29832 139.85437
28.8096 28.7542 125.0 0.00800 129.23692 139.92775
28.8264 28.7710 134.0 0.00746 129.17516 140.00420
28.8431 28.7877 174.0 0.00575 129.11375 140.08284
28.8598 28.8044 143.0 0.00699 129.05235 140.16423
28.8765 28.8211 155.0 0.00645 128.99094 140.24841
28.8932 28.8378 143.0 0.00699 128.92955 140.33548
28.9100 28.8546 163.0 0.00613 128.86777 140.42607
28.9267 28.8713 168.0 0.00595 128.80637 140.51915
28.9434 28.8880 147.0 0.00681 128.74496 140.61534
28.9601 28.9047 161.0 0.00621 128.68356 140.71474
28.9768 28.9214 144.0 0.00694 128.62216 140.81744
28.9936 28.9382 145.0 0.00690 128.56039 140.92416
29.0103 28.9549 161.0 0.00621 128.49899 141.03371
29.0270 28.9716 162.0 0.00617 128.43759 141.14682
29.0437 28.9883 161.0 0.00621 128.37617 141.26364
29.0604 29.0050 146.0 0.00685 128.31477 141.38420
29.0771 29.0217 170.0 0.00588 128.25337 141.50867
29.0939 29.0385 159.0 0.00629 128.19160 141.63791
29.1106 29.0552 165.0 0.00606 128.13020 160.03769
29.1273 29.0719 156.0 0.00641 128.06880 160.44382
29.1440 29.0886 158.0 0.00633 128.00739 160.86037
29.1607 29.1053 181.0 0.00553 127.94600 161.28743
29.1775 29.1221 162.0 0.00617 127.88422 161.72827
29.1942 29.1388 166.0 0.00603 127.82281 162.17783
29.2109 29.1555 173.0 0.00578 127.76141 162.63898
29.2276 29.1722 177.0 0.00565 127.70002 163.11206
29.2443 29.1889 159.0 0.00629 127.63861 163.59773
29.2611 29.2057 144.0 0.00694 127.57684 164.09904
29.2778 29.2224 166.0 0.00603 127.51544 164.61052
29.2945 29.2391 151.0 0.00662 127.45403 165.13577
29.3112 29.2558 173.0 0.00578 127.39262 165.67491
29.3279 29.2725 147.0 0.00681 127.33123 166.22852
29.3446 29.2892 157.0 0.00637 127.26983 166.79704
29.3614 29.3060 163.0 0.00613 127.20805 167.38463
29.3781 29.3227 166.0 0.00603 127.14664 167.98460
29.3948 29.3394 164.0 0.00609 127.08525 168.60106
29.4115 29.3561 138.0 0.00724 127.02384 169.23459
29.4282 29.3728 177.0 0.00565 126.96245 169.88551
29.4450 29.3896 177.0 0.00565 126.90067 170.55890
29.4617 29.4063 167.0 0.00599 126.83926 171.24713
29.4784 29.4230 167.0 0.00599 126.77786 171.95471
29.4951 29.4397 173.0 0.00578 126.71647 172.68233
29.5118 29.4564 184.0 0.00544 126.65505 173.43114
29.5286 29.4732 170.0 0.00588 126.59328 174.20598
29.5453 29.4899 175.0 0.00571 126.53189 174.99864
29.5620 29.5066 183.0 0.00546 126.47050 175.81436
29.5787 29.5233 192.0 0.00521 126.40907 176.65445
29.5954 29.5400 165.0 0.00606 126.34768 177.51921
29.6121 29.5567 161.0 0.00621 126.28628 178.40981
29.6289 29.5735 163.0 0.00613 126.22450 179.33292
29.6456 29.5902 147.0 0.00681 126.16309 180.27827
29.6623 29.6069 145.0 0.00690 126.10170 181.25253
29.6790 29.6236 183.0 0.00546 126.04029 182.25694
29.6957 29.6403 180.0 0.00555 125.97890 183.29222
29.7125 29.6571 195.0 0.00513 125.91712 184.36668
29.7292 29.6738 175.0 0.00571 125.85571 185.46854
29.7459 29.6905 192.0 0.00521 125.79431 186.60530
29.7626 29.7072 154.0 0.00649 125.73292 187.77834
29.7793 29.7239 183.0 0.00546 125.67150 188.98984
29.7960 29.7406 206.0 0.00486 125.61010 190.24052
29.8128 29.7574 192.0 0.00521 125.54835 191.54008
29.8295 29.7741 180.0 0.00555 125.48692 192.87552
29.8462 29.7908 167.0 0.00599 125.42553 194.25534
29.8629 29.8075 171.0 0.00585 125.36413 195.68184
29.8796 29.8242 173.0 0.00578 125.30272 197.15709
29.8964 29.8410 193.0 0.00518 125.24095 198.69275
29.9131 29.8577 184.0 0.00544 125.17954 200.27232
29.9298 29.8744 190.0 0.00527 125.11815 201.90750
29.9465 29.8911 194.0 0.00515 125.05674 203.60101
29.9632 29.9078 195.0 0.00513 124.99535 205.35478
29.9800 29.9246 185.0 0.00541 124.93357 207.18379
29.9967 29.9413 175.0 0.00571 124.87216 209.06876
30.0134 29.9580 194.0 0.00515 124.81076 211.02327
30.0301 29.9747 194.0 0.00515 124.74937 213.05066
30.0468 29.9914 198.0 0.00505 124.68795 215.15578
30.0635 30.0081 211.0 0.00474 124.62655 217.34085
30.0803 30.0249 200.0 0.00500 124.56479 219.62444
30.0970 30.0416 236.0 0.00424 124.50340 221.98326
30.1137 30.0583 231.0 0.00433 124.44198 224.43671
30.1304 30.0750 206.0 0.00486 124.38058 226.98784
30.1471 30.0917 198.0 0.00505 124.31917 229.64256
30.1639 30.1085 226.0 0.00443 124.25739 232.42378
30.1806 30.1252 193.0 0.00518 124.19599 235.30347
30.1973 30.1419 217.0 0.00461 124.13460 238.30458
30.2140 30.1586 219.0 0.00457 124.07319 241.43436
30.2307 30.1753 254.0 0.00394 124.01180 244.69865
30.2475 30.1921 241.0 0.00415 123.95002 248.12801
30.2642 30.2088 242.0 0.00413 123.88861 251.68898
30.2809 30.2255 236.0 0.00424 123.82721 255.41003
30.2976 30.2422 236.0 0.00424 123.76582 259.30063
30.3143 30.2589 246.0 0.00407 123.70440 263.37347
30.3310 30.2756 255.0 0.00392 123.64300 267.63681
30.3478 30.2924 259.0 0.00386 123.58125 272.13055
30.3645 30.3091 273.0 0.00366 123.51982 276.81683
30.3812 30.3258 260.0 0.00385 123.45843 281.73251
30.3979 30.3425 265.0 0.00377 123.39703 286.89404
30.4146 30.3592 290.0 0.003448 123.33562 292.31790
30.4314 30.3760 280.0 0.00357 123.27384 298.05783
30.4481 30.3927 274.0 0.00365 123.21245 304.06320
30.4648 30.4094 273.0 0.00366 123.15105 310.38925
30.4815 30.4261 299.0 0.003345 123.08964 317.06000
30.4982 30.4428 316.0 0.003163 123.02825 324.09735
30.5150 30.4596 339.0 0.002950 122.96647 331.57867
30.5317 30.4763 336.0 0.002976 122.90506 339.44293
30.5484 30.4930 298.0 0.003357 122.84366 347.76501
30.5651 30.5097 310.0 0.003225 122.78226 356.58078
30.5818 30.5264 317.0 0.003156 122.72085 365.93524
30.5985 30.5431 352.0 0.002841 122.65945 375.86536
30.6153 30.5599 356.0 0.002808 122.59768 386.48718
30.6320 30.5766 412.0 0.002427 122.53629 397.72614
30.6487 30.5933 351.0 0.002851 122.47488 409.70956
30.6654 30.6100 389.0 0.002571 122.41348 422.49445
30.6821 30.6267 433.0 0.002309 122.35207 436.15735
30.6989 30.6435 402.0 0.002488 122.29029 450.87268
30.7156 30.6602 397.0 0.002520 122.22890 466.55249
30.7323 30.6769 483.0 0.002070 122.16750 483.38589
30.7490 30.6936 468.0 0.002137 122.10609 501.49051
30.7657 30.7103 496.0 0.002016 122.04470 520.98773
30.7825 30.7271 513.0 0.001949 121.98292 542.16656
30.7992 30.7438 524.0 0.001909 121.92151 564.93610
30.8159 30.7605 568.0 0.001761 121.86011 589.60309
30.8326 30.7772 568.0 0.001761 121.79872 616.38214
30.8493 30.7939 538.0 0.001860 121.73730 645.53687
30.8660 30.8106 605.0 0.001652 121.67590 677.33008
30.8828 30.8274 635.0 0.001575 121.61414 712.30994
30.8995 30.8441 690.0 0.001449 121.55273 750.46210
30.9162 30.8608 700.0 0.001428 121.49133 792.39960
30.9329 30.8775 777.0 0.001287 121.42992 838.64819
30.9496 30.8942 827.0 0.001209 121.36852 889.81238
30.9664 30.9110 866.0 0.001155 121.30674 946.97296
30.9831 30.9277 885.0 0.001130 121.24535 1010.28284
30.9998 30.9444 981.0 0.001019 121.18394 1081.08276
31.0165 30.9611 1095.0 0.000913 121.12254 1160.59937
31.0332 30.9778 1114.0 0.000897 121.06115 1250.26978
31.0500 30.9946 1258.0 0.000795 120.99937 1352.61487
31.0667 31.0113 1401.0 0.000714 120.93796 1468.70483
31.0834 31.0280 1559.0 0.000642 120.87656 1602.13464
31.1001 31.0447 1753.0 0.000570 120.81517 1757.17517
31.1168 31.0614 1860.0 0.000538 120.75375 1940.42480
31.1335 31.0781 2230.0 0.000448 120.69235 2162.34473
31.1503 31.0949 2599.0 0.000385 120.63058 2442.92944
31.1670 31.1116 2905.0 0.0003442 120.56918 2810.08423
31.1837 31.1283 3685.0 0.0002714 120.50777 3318.17798
31.2004 31.1450 4504.0 0.0002220 120.44637 4051.64331
31.2171 31.1617 5700.0 0.0001754 120.38497 5138.59180
31.2339 31.1785 7395.0 0.0001352 120.32319 6769.22656
31.2506 31.1952 9470.0 0.0001056 120.26180 9149.24707
31.2673 31.2119 12679.0 0.0000789 120.20039 12534.77148
31.2840 31.2286 16758.0 0.0000596 120.13898 17152.01563
31.3007 31.2453 22195.0 0.0000450 120.07760 23134.08984
31.3175 31.2621 28787.0 0.0000347 120.01582 30498.35156
31.3342 31.2788 36970.0 0.0000270 119.95441 38873.52344
31.3509 31.2955 45541.0 0.0000220 119.89301 47705.48828
31.3676 31.3122 54485.0 0.0000184 119.83162 56052.00000
31.3843 31.3289 62303.0 0.0000161 119.77020 62680.98828
31.4010 31.3456 67542.0 0.0000148 119.70880 66343.84375
31.4178 31.3624 68981.0 0.0000145 119.64704 66279.89844
31.4345 31.3791 65648.0 0.0000152 119.58562 62563.64063
31.4512 31.3958 59168.0 0.0000169 119.52422 56013.69531
31.4679 31.4125 50559.0 0.0000198 119.46281 47812.60547
31.4846 31.4292 40504.0 0.0000247 119.40142 39140.50391
31.5014 31.4460 31177.0 0.0000321 119.33965 30867.35547
31.5181 31.4627 23242.0 0.0000430 119.27824 23669.23242
31.5348 31.4794 17432.0 0.0000574 119.21684 17753.54492
31.5515 31.4961 12836.0 0.0000779 119.15543 13143.98828
31.5682 31.5128 10060.0 0.0000994 119.09404 9713.22070
31.5850 31.5296 7445.0 0.0001343 119.03227 7239.51807
31.6017 31.5463 5940.0 0.0001684 118.97086 5525.75586
31.6184 31.5630 4723.0 0.0002118 118.90946 4347.84473
31.6351 31.5797 3921.0 0.0002550 118.84807 3537.85620
31.6518 31.5964 3296.0 0.0003034 118.78664 2970.95288
31.6685 31.6131 2851.0 0.000351 118.72525 2561.59375
31.6853 31.6299 2393.0 0.000418 118.66348 2251.88599
31.7020 31.6466 2179.0 0.000459 118.60209 2010.40674
31.7187 31.6633 1824.0 0.000548 118.54067 1813.69434
31.7354 31.6800 1715.0 0.000583 118.47927 1649.04236
31.7521 31.6967 1468.0 0.000681 118.41787 1508.43420
31.7689 31.7135 1392.0 0.000718 118.35609 1386.02368
31.7856 31.7302 1278.0 0.000782 118.29469 1279.74500
31.8023 31.7469 1100.0 0.000909 118.23329 1186.20752
31.8190 31.7636 1098.0 0.000911 118.17188 1103.40552
31.8357 31.7803 1026.0 0.000975 118.11048 1029.77356
31.8524 31.7970 892.0 0.001121 118.04909 964.00226
31.8692 31.8138 845.0 0.001183 117.98730 904.67633
31.8859 31.8305 814.0 0.001229 117.92591 851.61987
31.9026 31.8472 779.0 0.001284 117.86452 803.70496
31.9193 31.8639 684.0 0.001462 117.80309 760.26825
31.9360 31.8806 698.0 0.001433 117.74170 720.80054
31.9528 31.8974 664.0 0.001506 117.67994 684.62402
31.9695 31.9141 597.0 0.001676 117.61852 651.75055
31.9862 31.9308 621.0 0.001610 117.55712 621.63617
32.0029 31.9475 585.0 0.001709 117.49573 593.97382
32.0196 31.9642 545.0 0.001834 117.43432 568.50543
32.0364 31.9810 464.0 0.002155 117.37255 544.86713
32.0531 31.9977 490.0 0.002040 117.31114 523.14917
32.0698 32.0144 436.0 0.002294 117.24973 503.02841
32.0865 32.0311 435.0 0.002298 117.18833 484.34961
32.1032 32.0478 438.0 0.002283 117.12694 466.98349
32.1199 32.0645 401.0 0.002495 117.06554 450.80753
32.1367 32.0813 401.0 0.002495 117.00375 435.62601
32.1534 32.0980 362.0 0.002761 116.94236 421.52902
32.1701 32.1147 384.0 0.002603 116.88097 408.33807
32.1868 32.1314 353.0 0.002832 116.81955 395.96997
32.2035 32.1481 346.0 0.002891 116.75814 384.36597
32.2203 32.1649 304.0 0.003288 116.69638 373.39771
32.2370 32.1816 294.0 0.003400 116.63499 363.14203
32.2537 32.1983 318.0 0.003146 116.57357 353.47589
32.2704 32.2150 308.0 0.003247 116.51217 344.36139
32.2871 32.2317 297.0 0.003368 116.45078 335.75473
32.3039 32.2485 291.0 0.003436 116.38899 327.57010
32.3206 32.2652 289.0 0.003460 116.32758 319.87338
32.3373 32.2819 285.0 0.00351 116.26620 312.58249
32.3540 32.2986 265.0 0.00377 116.20479 305.66809
32.3707 32.3153 256.0 0.00391 116.14338 299.10654
32.3874 32.3320 221.0 0.00452 116.08198 292.87311
32.4042 32.3488 241.0 0.00415 116.02020 286.91071
32.4209 32.3655 239.0 0.00418 115.95880 281.27200
32.4376 32.3822 227.0 0.00440 115.89741 275.90219
32.4543 32.3989 225.0 0.00444 115.83601 270.78137
32.4710 32.4156 236.0 0.00424 115.77460 265.89774
32.4878 32.4324 236.0 0.00424 115.71284 261.20874
32.5045 32.4491 231.0 0.00433 115.65142 256.75421
32.5212 32.4658 235.0 0.00426 115.59001 252.49661
32.5379 32.4825 216.0 0.00463 115.52863 248.42314
32.5546 32.4992 201.0 0.00497 115.46722 244.52318
32.5714 32.5160 207.0 0.00483 115.40545 240.76448
32.5881 32.5327 204.0 0.00490 115.34404 237.18369
32.6048 32.5494 202.0 0.00495 115.28264 233.74879
32.6215 32.5661 191.0 0.00524 115.22123 230.45146
32.6382 32.5828 194.0 0.00515 115.15984 227.28519
32.6549 32.5995 223.0 0.00449 115.09843 224.24257
32.6717 32.6163 187.0 0.00535 115.03665 221.29951
32.6884 32.6330 188.0 0.00532 114.97526 218.48590
32.7051 32.6497 196.0 0.00510 114.91386 215.77806
32.7218 32.6664 182.0 0.00550 114.85245 213.16920
32.7385 32.6831 174.0 0.00575 114.79104 210.65627
32.7553 32.6999 203.0 0.00492 114.72929 208.21953
32.7720 32.7166 161.0 0.00621 114.66789 205.88394
32.7887 32.7333 184.0 0.00544 114.60647 203.62929
32.8054 32.7500 190.0 0.00527 114.54507 201.45332
32.8221 32.7667 160.0 0.00625 114.48367 199.35176
32.8389 32.7835 181.0 0.00553 114.42189 197.30885
32.8556 32.8002 173.0 0.00578 114.36048 195.34630
32.8723 32.8169 177.0 0.00565 114.29910 193.44836
32.8890 32.8336 181.0 0.00553 114.23769 191.61186
32.9057 32.8503 176.0 0.00568 114.17628 189.83463
32.9224 32.8670 159.0 0.00629 114.11488 188.11377
32.9392 32.8838 178.0 0.00562 114.05311 186.43680
32.9559 32.9005 143.0 0.00699 113.99170 184.82185
32.9726 32.9172 159.0 0.00629 113.93031 183.25659
32.9893 32.9339 129.0 0.00775 113.86889 181.73802
33.0060 32.9506 153.0 0.00654 113.80750 180.26530
33.0228 32.9674 167.0 0.00599 113.74574 178.82788
33.0395 32.9841 162.0 0.00617 113.68432 177.44029
33.0562 33.0008 136.0 0.00736 113.62292 176.09319
33.0729 33.0175 132.0 0.00757 113.56152 174.78456
33.0896 33.0342 172.0 0.00582 113.50011 173.51286
33.1064 33.0510 145.0 0.00690 113.43835 172.26923
33.1231 33.0677 144.0 0.00694 113.37694 171.06741
33.1398 33.0844 131.0 0.00763 113.31554 169.89839
33.1565 33.1011 135.0 0.00741 113.29003 168.79669
33.1732 33.1178 148.0 0.00675 113.28841 167.74944
33.1899 33.1345 130.0 0.00769 113.28679 166.73141
33.2067 33.1513 159.0 0.00629 113.28516 165.73560
33.2234 33.1680 141.0 0.00710 113.28354 164.77306
33.2401 33.1847 137.0 0.00731 113.28192 163.83681
33.2568 33.2014 158.0 0.00633 113.28030 162.92537
33.2735 33.2181 145.0 0.00690 113.27869 162.03851
33.2903 33.2349 146.0 0.00685 113.27705 161.17000
33.3070 33.2516 143.0 0.00699 113.27544 160.32948
33.3237 33.2683 161.0 0.00621 113.27382 159.51047
33.3404 33.2850 149.0 0.00671 113.27219 158.71275
33.3571 33.3017 150.0 0.00666 113.27058 157.93542
33.3739 33.3185 134.0 0.00746 113.26894 157.17320
33.3906 33.3352 159.0 0.00629 113.26733 156.43469
33.4073 33.3519 169.0 0.00592 113.26571 155.71458
33.4240 33.3686 157.0 0.00637 113.26409 155.01215
33.4407 33.3853 138.0 0.00724 113.26247 154.32703
33.4574 33.4020 149.0 0.00671 113.26085 153.65852
33.4742 33.4188 145.0 0.00690 113.25922 153.00218
33.4909 33.4355 128.0 0.00782 113.25760 152.36549
33.5076 33.4522 168.0 0.00595 113.25598 151.74399
33.5243 33.4689 161.0 0.00621 113.25436 151.13681
33.5410 33.4856 160.0 0.00625 113.25275 150.54399
33.5578 33.5024 151.0 0.00662 113.25111 149.96156
33.5745 33.5191 142.0 0.00704 113.24950 149.39569
33.5912 33.5358 149.0 0.00671 113.24788 148.84286
33.6079 33.5525 151.0 0.00662 113.24625 148.30257
33.6246 33.5692 133.0 0.00752 113.24464 147.77440
33.6414 33.5860 150.0 0.00666 113.24301 147.25487
33.6581 33.6027 150.0 0.00666 113.24139 146.74995
33.6748 33.6194 146.0 0.00685 113.23977 146.25612
33.6915 33.6361 144.0 0.00694 113.23815 145.77299
33.7082 33.6528 126.0 0.00794 113.23653 145.30037
33.7249 33.6695 151.0 0.00662 113.23491 144.83791
33.7417 33.6863 141.0 0.00710 113.23328 144.38257
33.7584 33.7030 147.0 0.00681 113.23167 143.93961
33.7751 33.7197 144.0 0.00694 113.23004 143.50601
33.7918 33.7364 123.0 0.00813 113.22842 143.08128
33.8085 33.7531 137.0 0.00731 113.22681 142.66548
33.8253 33.7699 138.0 0.00724 113.22517 142.25583
33.8420 33.7866 138.0 0.00724 113.22356 141.85701
33.8587 33.8033 143.0 0.00699 113.22194 141.46613
33.8754 33.8200 127.0 0.00787 113.22032 141.08324
33.8921 33.8367 136.0 0.00736 113.21870 140.70795
33.9088 33.8534 132.0 0.00757 113.21708 140.34023
33.9256 33.8702 141.0 0.00710 113.21545 139.97752
33.9423 33.8869 147.0 0.00681 113.21383 139.62415
33.9590 33.9036 142.0 0.00704 113.21221 139.27759
33.9757 33.9203 167.0 0.00599 113.21059 138.93781
33.9924 33.9370 140.0 0.00715 113.20898 138.60454
34.0092 33.9538 135.0 0.00741 113.20734 138.27568
34.0259 33.9705 141.0 0.00710 113.20573 137.95503
34.0426 33.9872 117.0 0.00854 113.20411 137.64050
34.0593 34.0039 122.0 0.00819 113.20248 113.20222
34.0760 34.0206 113.0 0.00885 113.20087 113.20059
34.0928 34.0374 119.0 0.00840 113.19924 113.19897
34.1095 34.0541 134.0 0.00746 113.19762 113.19735
34.1262 34.0708 117.0 0.00854 113.19600 113.19572
34.1429 34.0875 133.0 0.00752 113.19438 113.19411
34.1596 34.1042 128.0 0.00782 113.19276 113.19249
34.1763 34.1209 119.0 0.00840 113.19114 113.19087
34.1931 34.1377 114.0 0.00877 113.18951 113.18924
34.2098 34.1544 126.0 0.00794 113.18789 113.18762
34.2265 34.1711 123.0 0.00813 113.18627 113.18600
34.2432 34.1878 116.0 0.00862 113.18465 113.18438
34.2599 34.2045 124.0 0.00806 113.18304 113.18276
34.2767 34.2213 124.0 0.00806 113.18140 113.18114
34.2934 34.2380 127.0 0.00787 113.17979 113.17952
34.3101 34.2547 124.0 0.00806 113.17817 113.17789
34.3268 34.2714 126.0 0.00794 113.17654 113.17628
34.3435 34.2881 130.0 0.00769 113.17493 113.17466
34.3603 34.3049 126.0 0.00794 113.17330 113.17303
34.3770 34.3216 127.0 0.00787 113.17168 113.17141
34.3937 34.3383 114.0 0.00877 113.17006 113.21432
34.4104 34.3550 115.0 0.00870 113.16844 113.21328
34.4271 34.3717 130.0 0.00769 113.16682 113.21223
34.4438 34.3884 130.0 0.00769 113.16520 113.21121
34.4606 34.4052 105.0 0.00952 113.16357 113.21019
34.4773 34.4219 133.0 0.00752 113.16196 113.20918
34.4940 34.4386 126.0 0.00794 113.16033 113.20819
34.5107 34.4553 101.0 0.00990 113.15871 113.20721
34.5274 34.4720 114.0 0.00877 113.15710 113.20625
34.5442 34.4888 121.0 0.00826 113.15546 113.20529
34.5609 34.5055 129.0 0.00775 113.15385 113.20435
34.5776 34.5222 129.0 0.00775 113.15223 113.20343
34.5943 34.5389 111.0 0.00900 113.15061 113.20252
34.6110 34.5556 139.0 0.00719 113.14899 113.20162
34.6278 34.5724 111.0 0.00900 113.14736 113.20074
34.6445 34.5891 105.0 0.00952 113.14574 113.19987
34.6612 34.6058 135.0 0.00741 113.14412 113.19902
34.6779 34.6225 108.0 0.00926 113.14250 113.19819
34.6946 34.6392 133.0 0.00752 113.14088 113.19737
34.7113 34.6559 124.0 0.00806 113.13927 113.19658
34.7281 34.6727 122.0 0.00819 113.13763 113.19579
34.7448 34.6894 106.0 0.00943 113.13602 113.19502
34.7615 34.7061 114.0 0.00877 113.13439 113.19428
34.7782 34.7228 110.0 0.00909 113.13277 113.19357
34.7949 34.7395 114.0 0.00877 113.13116 113.19286
34.8117 34.7563 102.0 0.00980 113.12952 113.19217
34.8284 34.7730 111.0 0.00900 113.12791 113.19151
34.8451 34.7897 117.0 0.00854 113.12629 113.19086
34.8618 34.8064 115.0 0.00870 113.12467 113.19025
34.8785 34.8231 108.0 0.00926 113.12305 113.18966
34.8953 34.8399 125.0 0.00800 113.12142 113.18909
34.9120 34.8566 108.0 0.00926 113.11980 113.18855
34.9287 34.8733 111.0 0.00900 113.11818 113.18803
34.9454 34.8900 128.0 0.00782 113.11656 113.18754
34.9621 34.9067 112.0 0.00893 113.11494 113.18707
34.9788 34.9234 132.0 0.00757 113.11333 113.18663
34.9956 34.9402 111.0 0.00900 113.11169 113.18623
35.0123 34.9569 116.0 0.00862 113.11008 113.18585
35.0290 34.9736 113.0 0.00885 113.10846 113.18550
35.0457 34.9903 115.0 0.00870 113.10683 113.18520
35.0624 35.0070 117.0 0.00854 113.10522 113.18491
35.0792 35.0238 121.0 0.00826 113.10359 113.18467
35.0959 35.0405 130.0 0.00769 113.10197 113.18446
35.1126 35.0572 103.0 0.00971 113.10035 113.18429
35.1293 35.0739 118.0 0.00848 113.09873 113.18416
35.1460 35.0906 119.0 0.00840 113.09711 113.18406
35.1628 35.1074 127.0 0.00787 113.09548 113.18401
35.1795 35.1241 119.0 0.00840 113.09386 113.18401
35.1962 35.1408 120.0 0.00834 113.09225 113.18404
35.2129 35.1575 132.0 0.00757 113.09062 113.18411
35.2296 35.1742 115.0 0.00870 113.08900 113.18424
35.2463 35.1909 112.0 0.00893 113.08739 113.18442
35.2631 35.2077 119.0 0.00840 113.08575 113.18465
35.2798 35.2244 109.0 0.00917 113.08414 113.18493
35.2965 35.2411 119.0 0.00840 113.08252 113.18527
35.3132 35.2578 116.0 0.00862 113.08090 113.18566
35.3299 35.2745 99.0 0.01010 113.07928 113.18611
35.3467 35.2913 124.0 0.00806 113.07765 113.18664
35.3634 35.3080 119.0 0.00840 113.07603 113.18722
35.3801 35.3247 115.0 0.00870 113.07441 113.18787
35.3968 35.3414 119.0 0.00840 113.07279 113.18858
35.4135 35.3581 137.0 0.00731 113.07117 113.18937
35.4303 35.3749 115.0 0.00870 113.06954 113.19024
35.4470 35.3916 107.0 0.00935 113.06792 113.19118
35.4637 35.4083 141.0 0.00710 113.06631 113.19221
35.4804 35.4250 124.0 0.00806 113.06468 113.19332
35.4971 35.4417 101.0 0.00990 113.06306 113.19453
35.5138 35.4584 111.0 0.00900 113.06145 113.19582
35.5306 35.4752 123.0 0.00813 113.05981 113.19723
35.5473 35.4919 117.0 0.00854 113.05820 113.19872
35.5640 35.5086 114.0 0.00877 113.05658 113.20032
35.5807 35.5253 133.0 0.00752 113.05496 113.20203
35.5974 35.5420 126.0 0.00794 113.05334 113.20387
35.6142 35.5588 121.0 0.00826 113.05171 113.20583
35.6309 35.5755 133.0 0.00752 113.05009 113.20792
35.6476 35.5922 146.0 0.00685 113.04847 113.21014
35.6643 35.6089 127.0 0.00787 113.04685 113.21250
35.6810 35.6256 132.0 0.00757 113.04523 113.21501
35.6978 35.6424 143.0 0.00699 113.04360 113.21769
35.7145 35.6591 123.0 0.00813 113.04198 113.22052
35.7312 35.6758 155.0 0.00645 113.04037 113.22352
35.7479 35.6925 139.0 0.00719 113.03875 113.22670
35.7646 35.7092 148.0 0.00675 113.03712 113.23007
35.7813 35.7259 147.0 0.00681 113.03551 113.23365
35.7981 35.7427 141.0 0.00710 113.03388 113.23745
35.8148 35.7594 147.0 0.00681 113.03226 113.24146
35.8315 35.7761 174.0 0.00575 113.03064 113.24571
35.8482 35.7928 166.0 0.00603 113.02902 113.25021
35.8649 35.8095 198.0 0.00505 113.02740 113.25497
35.8817 35.8263 185.0 0.00541 113.02577 113.26004
35.8984 35.8430 184.0 0.00544 113.02415 113.26537
35.9151 35.8597 191.0 0.00524 113.02254 113.27103
35.9318 35.8764 192.0 0.00521 113.02091 113.27700
35.9485 35.8931 219.0 0.00457 113.01929 113.28334
35.9652 35.9098 217.0 0.00461 113.01768 113.29005
35.9820 35.9266 224.0 0.00446 113.01604 113.29720
35.9987 35.9433 188.0 0.00532 113.01443 113.30474
36.0154 35.9600 235.0 0.00426 113.01281 113.31273
36.0321 35.9767 244.0 0.00410 113.01119 113.32121
36.0488 35.9934 232.0 0.00431 113.00957 113.33019
36.0656 36.0102 258.0 0.00388 113.00794 113.33980
36.0823 36.0269 263.0 0.00380 113.00632 113.54948
36.0990 36.0436 272.0 0.00368 113.00470 113.56278
36.1157 36.0603 250.0 0.00400 113.00308 113.57684
36.1324 36.0770 248.0 0.00403 113.00146 113.59167
36.1492 36.0938 243.0 0.00411 112.99983 113.60744
36.1659 36.1105 276.0 0.00362 112.99821 113.62401
36.1826 36.1272 251.0 0.00399 112.99660 113.64156
36.1993 36.1439 279.0 0.00359 112.99497 113.66014
36.2160 36.1606 229.0 0.00437 112.99335 113.67985
36.2327 36.1773 273.0 0.00366 112.99174 113.70076
36.2495 36.1941 250.0 0.00400 112.99010 113.72314
36.2662 36.2108 214.0 0.00467 112.98849 113.74683
36.2829 36.2275 238.0 0.00420 112.98687 113.77203
36.2996 36.2442 187.0 0.00535 112.98525 113.79894
36.3163 36.2609 234.0 0.00427 112.98363 113.82768
36.3331 36.2777 230.0 0.00435 112.98200 113.85863
36.3498 36.2944 220.0 0.00455 112.98038 113.89160
36.3665 36.3111 206.0 0.00486 112.97876 113.92698
36.3832 36.3278 213.0 0.00470 112.97714 113.96501
36.3999 36.3445 204.0 0.00490 112.97552 114.00597
36.4167 36.3613 187.0 0.00535 112.97389 114.05045
36.4334 36.3780 208.0 0.00481 112.97227 114.09826
36.4501 36.3947 185.0 0.00541 112.97066 114.15004
36.4668 36.4114 159.0 0.00629 112.96904 114.20629
36.4835 36.4281 190.0 0.00527 112.96741 114.26751
36.5002 36.4448 179.0 0.00559 112.96580 114.33430
36.5170 36.4616 173.0 0.00578 112.96417 114.40780
36.5337 36.4783 165.0 0.00606 112.96255 114.48803
36.5504 36.4950 153.0 0.00654 112.96093 114.57628
36.5671 36.5117 157.0 0.00637 112.95931 114.67369
36.5838 36.5284 158.0 0.00633 112.95770 114.78156
36.6006 36.5452 133.0 0.00752 112.95606 114.90223
36.6173 36.5619 149.0 0.00671 112.95444 115.03613
36.6340 36.5786 139.0 0.00719 112.95283 115.18613
36.6507 36.5953 140.0 0.00715 112.95120 115.35498
36.6674 36.6120 152.0 0.00658 112.94958 115.54606
36.6842 36.6288 153.0 0.00654 112.94796 115.76513
36.7009 36.6455 185.0 0.00541 112.94633 116.01537
36.7176 36.6622 161.0 0.00621 112.94472 116.30630
36.7343 36.6789 175.0 0.00571 112.94310 116.65084
36.7510 36.6956 170.0 0.00588 112.94148 117.06913
36.7677 36.7123 160.0 0.00625 112.93986 117.59488
36.7845 36.7291 182.0 0.00550 112.93823 118.28841
36.8012 36.7458 171.0 0.00585 112.93661 119.23067
36.8179 36.7625 164.0 0.00609 112.93499 120.56171
36.8346 36.7792 198.0 0.00505 112.93337 122.47802
36.8513 36.7959 195.0 0.00513 112.93176 125.23985
36.8681 36.8127 180.0 0.00555 112.93012 129.19235
36.8848 36.8294 169.0 0.00592 112.92850 134.62572
36.9015 36.8461 164.0 0.00609 112.92689 141.85265
36.9182 36.8628 142.0 0.00704 112.92526 151.03903
36.9349 36.8795 155.0 0.00645 112.92365 162.12187
36.9517 36.8963 144.0 0.00694 112.92202 174.79105
36.9684 36.9130 167.0 0.00599 112.92039 188.07381
36.9851 36.9297 175.0 0.00571 112.91878 200.71915
37.0018 36.9464 176.0 0.00568 112.91716 210.90108
37.0185 36.9631 172.0 0.00582 112.91554 216.58173
37.0352 36.9798 165.0 0.00606 112.91392 216.35641
37.0520 36.9966 168.0 0.00595 112.91229 210.23730
37.0687 37.0133 175.0 0.00571 112.91068 199.79242
37.0854 37.0300 170.0 0.00588 112.90905 187.04671
37.1021 37.0467 142.0 0.00704 112.90743 173.79190
37.1188 37.0634 156.0 0.00641 112.90582 161.31259
37.1356 37.0802 127.0 0.00787 112.90418 150.31903
37.1523 37.0969 130.0 0.00769 112.90257 141.30946
37.1690 37.1136 133.0 0.00752 112.90095 134.25465
37.1857 37.1303 114.0 0.00877 112.89933 128.97374
37.2024 37.1470 115.0 0.00870 112.89771 125.16629
37.2192 37.1638 127.0 0.00787 112.89608 122.48230
37.2359 37.1805 149.0 0.00671 112.89446 120.64059
37.2526 37.1972 104.0 0.00961 112.89284 119.36583
37.2693 37.2139 127.0 0.00787 112.89122 118.46648
37.2860 37.2306 112.0 0.00893 112.88960 117.81133
37.3027 37.2473 137.0 0.00731 112.88799 117.31422
37.3195 37.2641 131.0 0.00763 112.88635 116.91965
37.3362 37.2808 114.0 0.00877 112.88474 116.60001
37.3529 37.2975 107.0 0.00935 112.88312 116.33303
37.3696 37.3142 122.0 0.00819 112.88149 116.10648
37.3863 37.3309 119.0 0.00840 112.87988 115.91241
37.4031 37.3477 117.0 0.00854 112.87825 115.74416
37.4198 37.3644 109.0 0.00917 112.87663 115.59956
37.4365 37.3811 112.0 0.00893 112.87501 115.47426
37.4532 37.3978 98.0 0.01021 112.87339 115.36563
37.4699 37.4145 94.0 0.01064 112.87177 115.27152
37.4867 37.4313 98.0 0.01021 112.87014 115.18967
37.5034 37.4480 97.0 0.01031 112.86852 115.11963
37.5201 37.4647 104.0 0.00961 112.86691 115.05959
37.5368 37.4814 128.0 0.00782 112.86528 115.00851
37.5535 37.4981 115.0 0.00870 112.86366 114.96554
37.5702 37.5148 105.0 0.00952 112.86205 114.92995
37.5870 37.5316 83.0 0.01205 112.86041 114.90097
37.6037 37.5483 96.0 0.01042 112.85880 114.87840
37.6204 37.5650 105.0 0.00952 112.85718 114.86166
37.6371 37.5817 126.0 0.00794 112.85555 114.85036
37.6538 37.5984 102.0 0.00980 112.85394 114.84422
37.6706 37.6152 136.0 0.00736 112.85231 114.84299
37.6873 37.6319 108.0 0.00926 112.85069 114.84652
37.7040 37.6486 99.0 0.01010 112.84907 114.85464
37.7207 37.6653 99.0 0.01010 112.84745 114.86724
37.7374 37.6820 126.0 0.00794 112.84583 114.88426
37.7542 37.6988 106.0 0.00943 112.84420 114.90582
37.7709 37.7155 106.0 0.00943 112.84258 114.93167
37.7876 37.7322 102.0 0.00980 112.84097 114.96195
37.8043 37.7489 115.0 0.00870 112.83934 114.99677
37.8210 37.7656 102.0 0.00980 112.83772 115.03620
37.8377 37.7823 110.0 0.00909 112.83611 115.08038
37.8545 37.7991 99.0 0.01010 112.83447 115.12981
37.8712 37.8158 102.0 0.00980 112.83286 115.18411
37.8879 37.8325 95.0 0.01053 112.83124 115.24380
37.9046 37.8492 113.0 0.00885 112.82962 115.30917
37.9213 37.8659 117.0 0.00854 112.82800 115.38053
37.9381 37.8827 92.0 0.01087 112.82637 115.45880
37.9548 37.8994 108.0 0.00926 112.82475 115.54344
37.9715 37.9161 108.0 0.00926 112.82313 115.63539
37.9882 37.9328 89.0 0.01124 112.82151 115.73521
38.0049 37.9495 98.0 0.01021 112.81989 115.84358
38.0216 37.9662 101.0 0.00990 112.81828 115.96114
38.0384 37.9830 94.0 0.01064 112.81664 116.08952
38.0551 37.9997 102.0 0.00980 112.81503 116.22811
38.0718 38.0164 107.0 0.00935 112.81341 116.37875
38.0885 38.0331 111.0 0.00900 112.81178 116.54251
38.1052 38.0498 99.0 0.01010 112.81017 116.72079
38.1220 38.0666 100.0 0.01000 112.80854 116.91632
38.1387 38.0833 110.0 0.00909 112.80692 117.12863
38.1554 38.1000 107.0 0.00935 112.80530 117.36072
38.1721 38.1167 103.0 0.00971 112.80368 117.61501
38.1888 38.1334 101.0 0.00990 112.80206 117.89404
38.2056 38.1502 85.0 0.01176 112.80043 118.20303
38.2223 38.1669 115.0 0.00870 112.79881 118.54184
38.2390 38.1836 100.0 0.01000 112.79719 118.91642
38.2557 38.2003 100.0 0.01000 112.79557 119.33170
38.2724 38.2170 113.0 0.00885 112.79395 119.79377
38.2891 38.2337 111.0 0.00900 112.79234 120.30929
38.3059 38.2505 126.0 0.00794 112.79070 120.89030
38.3226 38.2672 102.0 0.00980 112.78909 121.53981
38.3393 38.2839 85.0 0.01176 112.78747 122.27361
38.3560 38.3006 111.0 0.00900 112.78584 123.10618
38.3727 38.3173 113.0 0.00885 112.78423 124.05676
38.3895 38.3341 116.0 0.00862 112.78260 125.15794
38.4062 38.3508 126.0 0.00794 112.78098 126.43232
38.4229 38.3675 109.0 0.00917 112.77936 127.94069
38.4396 38.3842 136.0 0.00736 112.77774 129.77139
38.4563 38.4009 126.0 0.00794 112.77612 132.07101
38.4731 38.4177 135.0 0.00741 112.77449 135.11041
38.4898 38.4344 134.0 0.00746 112.77287 139.26495
38.5065 38.4511 126.0 0.00794 112.77126 145.19629
38.5232 38.4678 152.0 0.00658 112.76963 153.86153
38.5399 38.4845 157.0 0.00637 112.76801 166.58110
38.5566 38.5012 160.0 0.00625 112.76640 184.98341
38.5734 38.5180 224.0 0.00446 112.76476 211.05258
38.5901 38.5347 241.0 0.00415 112.76315 246.12404
38.6068 38.5514 267.0 0.00375 112.76153 291.37256
38.6235 38.5681 274.0 0.00365 112.75991 346.61084
38.6402 38.5848 329.0 0.003039 112.75829 409.97211
38.6570 38.6016 389.0 0.002571 112.75666 477.76144
38.6737 38.6183 414.0 0.002415 112.75504 542.46509
38.6904 38.6350 490.0 0.002040 112.75342 595.08789
38.7071 38.6517 502.0 0.001991 112.75180 625.18524
38.7238 38.6684 520.0 0.001924 112.75018 625.25970
38.7406 38.6852 463.0 0.002159 112.74855 595.03235
38.7573 38.7019 442.0 0.002263 112.74693 542.37537
38.7740 38.7186 386.0 0.002590 112.74532 477.67560
38.7907 38.7353 322.0 0.003107 112.74370 410.27704
38.8074 38.7520 259.0 0.00386 112.74207 346.85764
38.8241 38.7687 213.0 0.00470 112.74046 291.56650
38.8409 38.7855 193.0 0.00518 112.73883 246.03201
38.8576 38.8022 162.0 0.00617 112.73721 210.96155
38.8743 38.8189 148.0 0.00675 112.73559 185.01674
38.8910 38.8356 124.0 0.00806 112.73397 166.57498
38.9077 38.8523 144.0 0.00694 112.73235 153.82741
38.9245 38.8691 123.0 0.00813 112.73072 145.09245
38.9412 38.8858 127.0 0.00787 112.72910 139.15576
38.9579 38.9025 96.0 0.01042 112.72749 134.99538
38.9746 38.9192 102.0 0.00980 112.72586 131.96445
38.9913 38.9359 122.0 0.00819 112.72424 129.65379
39.0081 38.9527 120.0 0.00834 112.72261 127.80299
39.0248 38.9694 121.0 0.00826 112.72099 126.28632
39.0415 38.9861 112.0 0.00893 112.71938 125.00369
39.0582 39.0028 106.0 0.00943 112.71776 123.90051
39.0749 39.0195 126.0 0.00794 112.71613 122.94028
39.0916 39.0362 97.0 0.01031 112.71452 122.09835
39.1084 39.0530 98.0 0.01021 112.71289 121.35113
39.1251 39.0697 101.0 0.00990 112.71127 120.69254
39.1418 39.0864 97.0 0.01031 112.70965 120.10537
39.1585 39.1031 88.0 0.01136 112.70803 119.58009
39.1752 39.1198 119.0 0.00840 112.70641 119.10822
39.1920 39.1366 91.0 0.01099 112.70478 118.68044
39.2087 39.1533 115.0 0.00870 112.70316 118.29571
39.2254 39.1700 102.0 0.00980 112.70155 117.94666
39.2421 39.1867 100.0 0.01000 112.69992 117.62891
39.2588 39.2034 101.0 0.00990 112.69830 117.33894
39.2756 39.2202 95.0 0.01053 112.69668 117.07193
39.2923 39.2369 95.0 0.01053 112.69505 116.82846
39.3090 39.2536 105.0 0.00952 112.69344 116.60454
39.3257 39.2703 89.0 0.01124 112.69182 116.39813
39.3424 39.2870 92.0 0.01087 112.69020 116.20734
39.3591 39.3037 106.0 0.00943 112.68858 116.03075
39.3759 39.3205 101.0 0.00990 112.68695 115.86600
39.3926 39.3372 100.0 0.01000 112.68533 115.71383
39.4093 39.3539 105.0 0.00952 112.68371 115.57209
39.4260 39.3706 113.0 0.00885 112.68209 115.43993
39.4427 39.3873 108.0 0.00926 112.68047 115.31646
39.4595 39.4041 106.0 0.00943 112.67884 115.20023
39.4762 39.4208 104.0 0.00961 112.67722 115.09201
39.4929 39.4375 105.0 0.00952 112.67561 114.99045
39.5096 39.4542 84.0 0.01191 112.67399 114.89499
39.5263 39.4709 95.0 0.01053 112.67236 114.80516
39.5431 39.4877 102.0 0.00980 112.67074 114.72002
39.5598 39.5044 90.0 0.01111 112.66912 114.64018
39.5765 39.5211 124.0 0.00806 112.66750 114.56477
39.5932 39.5378 115.0 0.00870 112.66588 114.49348
39.6099 39.5545 82.0 0.01220 112.66426 114.42595
39.6266 39.5712 97.0 0.01031 112.66264 114.36196
39.6434 39.5880 107.0 0.00935 112.66101 114.30090
39.6601 39.6047 115.0 0.00870 112.65939 114.19879
39.6768 39.6214 98.0 0.01021 112.65777 114.14455
39.6935 39.6381 88.0 0.01136 112.65615 114.09296
39.7102 39.6548 106.0 0.00943 112.65453 114.04385
39.7270 39.6716 113.0 0.00885 112.65291 113.99678
39.7437 39.6883 101.0 0.00990 112.65128 113.95214
39.7604 39.7050 91.0 0.01099 112.64967 113.90953
39.7771 39.7217 83.0 0.01205 112.64805 113.86884
39.7938 39.7384 101.0 0.00990 112.64642 113.82993
39.8106 39.7552 104.0 0.00961 112.64480 113.79248
39.8273 39.7719 94.0 0.01064 112.64318 113.75683
39.8440 39.7886 86.0 0.01163 112.64156 113.72267
39.8607 39.8053 109.0 0.00917 112.63994 113.68993
39.8774 39.8220 82.0 0.01220 112.63832 113.65849
39.8941 39.8387 92.0 0.01087 112.63670 113.62830
39.9109 39.8555 95.0 0.01053 112.63507 113.59914
39.9276 39.8722 105.0 0.00952 112.63345 113.57127
39.9443 39.8889 93.0 0.01075 112.63184 113.54444
39.9610 39.9056 100.0 0.01000 112.63021 113.51862
39.9777 39.9223 107.0 0.00935 112.62859 113.49375
39.9945 39.9391 91.0 0.01099 112.62697 113.46964
40.0112 39.9558 94.0 0.01064 112.62534 113.44653
40.0279 39.9725 90.0 0.01111 112.62373 113.42422
40.0446 39.9892 102.0 0.00980 112.62211 113.40269
40.0613 40.0059 98.0 0.01021 112.62049 113.38190
40.0781 40.0227 105.0 0.00952 112.61886 113.36167
40.0948 40.0394 95.0 0.01053 112.61724 113.34224
40.1115 40.0561 100.0 0.01000 112.61562 113.32344
40.1282 40.0728 92.0 0.01087 112.61400 113.30524
40.1449 40.0895 100.0 0.01000 112.61238 113.28761
40.1616 40.1062 99.0 0.01010 112.61076 113.27054
40.1784 40.1230 85.0 0.01176 112.60913 113.25388
40.1951 40.1397 94.0 0.01064 112.60751 113.23784
40.2118 40.1564 100.0 0.01000 112.60590 113.22227
40.2285 40.1731 84.0 0.01191 112.60428 113.20716
40.2452 40.1898 108.0 0.00926 112.60265 113.19248
40.2620 40.2066 88.0 0.01136 112.60103 113.17815
40.2787 40.2233 105.0 0.00952 112.59941 113.16429
40.2954 40.2400 93.0 0.01075 112.59779 113.15083
40.3121 40.2567 92.0 0.01087 112.59617 113.13772
40.3288 40.2734 117.0 0.00854 112.59455 113.12498
40.3455 40.2901 94.0 0.01064 112.59293 113.11257
40.3623 40.3069 112.0 0.00893 112.59130 113.10042
40.3790 40.3236 112.0 0.00893 112.58968 113.08865
40.3957 40.3403 104.0 0.00961 112.58807 113.07719
40.4124 40.3570 93.0 0.01075 112.58644 113.06601
40.4291 40.3737 112.0 0.00893 112.58482 113.05510
40.4459 40.3905 109.0 0.00917 112.58319 113.04440
40.4626 40.4072 99.0 0.01010 112.58157 113.03403
40.4793 40.4239 103.0 0.00971 112.57996 113.02390
40.4960 40.4406 119.0 0.00840 112.57834 113.01400
40.5127 40.4573 98.0 0.01021 112.57671 113.00434
40.5295 40.4741 101.0 0.00990 112.57509 112.99484
40.5462 40.4908 105.0 0.00952 112.57347 112.98561
40.5629 40.5075 100.0 0.01000 112.57185 112.97659
40.5796 40.5242 114.0 0.00877 112.57023 112.96777
40.5963 40.5409 106.0 0.00943 112.56861 112.95913
40.6130 40.5576 89.0 0.01124 112.56699 112.95067
40.6298 40.5744 99.0 0.01010 112.56536 112.94235
40.6465 40.5911 94.0 0.01064 112.56374 112.93425
40.6632 40.6078 109.0 0.00917 112.56213 112.92631
40.6799 40.6245 85.0 0.01176 112.56050 112.91853
40.6966 40.6412 123.0 0.00813 112.55888 112.91091
40.7134 40.6580 117.0 0.00854 112.55726 112.90339
40.7301 40.6747 87.0 0.01150 112.55563 112.89606
40.7468 40.6914 99.0 0.01010 112.55402 112.88888
40.7635 40.7081 101.0 0.00990 112.55240 112.88183
40.7802 40.7248 105.0 0.00952 112.55078 112.87491
40.7970 40.7416 109.0 0.00917 112.54915 112.86807
40.8137 40.7583 124.0 0.00806 112.54753 112.86140
40.8304 40.7750 100.0 0.01000 112.54591 112.85485
40.8471 40.7917 98.0 0.01021 112.54429 112.84841
40.8638 40.8084 105.0 0.00952 112.54267 112.84209
40.8805 40.8251 90.0 0.01111 112.54105 112.83588
40.8973 40.8419 110.0 0.00909 112.53942 112.82972
40.9140 40.8586 101.0 0.00990 112.53780 112.82372
40.9307 40.8753 101.0 0.00990 112.53619 112.81781
40.9474 40.8920 109.0 0.00917 112.53457 112.81200
40.9641 40.9087 106.0 0.00943 112.53294 112.80627
40.9809 40.9255 115.0 0.00870 112.53132 112.80061
40.9976 40.9422 120.0 0.00834 112.52969 112.79507
41.0143 40.9589 99.0 0.01010 112.52808 112.78960
41.0310 40.9756 99.0 0.01010 112.52646 112.78423
41.0477 40.9923 110.0 0.00909 112.52484 112.77893
41.0645 41.0091 109.0 0.00917 112.52321 112.77369
41.0812 41.0258 113.0 0.00885 112.52159 112.76854
41.0979 41.0425 94.0 0.01064 112.51997 112.76347
41.1146 41.0592 98.0 0.01021 112.51835 112.75848
41.1313 41.0759 104.0 0.00961 112.51673 112.75356
41.1480 41.0926 90.0 0.01111 112.51511 112.74869
41.1648 41.1094 112.0 0.00893 112.51348 112.74387
41.1815 41.1261 104.0 0.00961 112.51186 112.73915
41.1982 41.1428 111.0 0.00900 112.51025 112.73447
41.2149 41.1595 118.0 0.00848 112.50863 112.72987
41.2316 41.1762 124.0 0.00806 112.50700 112.72533
41.2484 41.1930 101.0 0.00990 112.50538 112.72082
41.2651 41.2097 92.0 0.01087 112.50376 112.71638
41.2818 41.2264 115.0 0.00870 112.50214 112.71201
41.2985 41.2431 99.0 0.01010 112.50052 112.70769
41.3152 41.2598 121.0 0.00826 112.49890 112.70341
41.3320 41.2766 115.0 0.00870 112.49727 112.69917
41.3487 41.2933 128.0 0.00782 112.49565 112.49546
41.3654 41.3100 106.0 0.00943 112.49403 112.49384
41.3821 41.3267 110.0 0.00909 112.49242 112.49222
41.3988 41.3434 120.0 0.00834 112.49079 112.49060
41.4155 41.3601 129.0 0.00775 112.48917 112.48898
41.4323 41.3769 113.0 0.00885 112.48755 112.48736
41.4490 41.3936 119.0 0.00840 112.48592 112.48573
41.4657 41.4103 138.0 0.00724 112.48431 112.48412
41.4824 41.4270 119.0 0.00840 112.48269 112.48250
41.4991 41.4437 131.0 0.00763 112.48107 112.48088
41.5159 41.4605 132.0 0.00757 112.47944 112.47925
41.5326 41.4772 128.0 0.00782 112.47782 112.47763
41.5493 41.4939 137.0 0.00731 112.47620 112.47601
41.5660 41.5106 128.0 0.00782 112.47458 112.47439
41.5827 41.5273 137.0 0.00731 112.47296 112.47277
41.5995 41.5441 160.0 0.00625 112.47134 112.47115
41.6162 41.5608 160.0 0.00625 112.46971 112.46952
41.6329 41.5775 148.0 0.00675 112.46809 112.46790
41.6496 41.5942 165.0 0.00606 112.46648 112.46629
41.6663 41.6109 150.0 0.00666 112.46486 112.46467
41.6830 41.6276 168.0 0.00595 112.46323 112.46305
41.6998 41.6444 146.0 0.00685 112.46161 112.46142
41.7165 41.6611 170.0 0.00588 112.45999 112.45980
41.7332 41.6778 180.0 0.00555 112.45837 112.45818
41.7499 41.6945 176.0 0.00568 112.45675 112.45656
41.7666 41.7112 199.0 0.00502 112.45513 112.45494
41.7834 41.7280 154.0 0.00649 112.45350 112.45332
41.8001 41.7447 184.0 0.00544 112.45188 112.45169
41.8168 41.7614 178.0 0.00562 112.45026 112.45007
41.8335 41.7781 210.0 0.00476 112.44865 112.44846
41.8502 41.7948 213.0 0.00470 112.44702 112.44684
41.8670 41.8116 191.0 0.00524 112.44540 112.44521
41.8837 41.8283 190.0 0.00527 112.44377 112.44359
41.9004 41.8450 218.0 0.00459 112.44215 112.44197
41.9171 41.8617 221.0 0.00452 112.44054 112.44035
41.9338 41.8784 238.0 0.00420 112.43892 114.55832
41.9505 41.8951 246.0 0.00407 112.43729 114.58045
41.9673 41.9119 201.0 0.00497 112.43567 114.60311
41.9840 41.9286 221.0 0.00452 112.43405 114.62604
42.0007 41.9453 246.0 0.00407 112.43243 114.64941
42.0174 41.9620 222.0 0.00450 112.43081 114.67319
42.0341 41.9787 232.0 0.00431 112.42919 120.11758
42.0509 41.9955 217.0 0.00461 112.42756 120.20354
42.0676 42.0122 210.0 0.00476 112.42594 120.29047
42.0843 42.0289 212.0 0.00472 112.42432 120.37894
42.1010 42.0456 206.0 0.00486 112.42271 120.46894
42.1177 42.0623 230.0 0.00435 112.42108 120.56052
42.1345 42.0791 196.0 0.00510 112.41946 120.65436
42.1512 42.0958 205.0 0.00488 112.41784 120.74928
42.1679 42.1125 220.0 0.00455 112.41621 120.84589
42.1846 42.1292 184.0 0.00544 112.41460 120.94425
42.2013 42.1459 196.0 0.00510 112.41298 121.04440
42.2180 42.1626 207.0 0.00483 112.39597 121.13103
42.2348 42.1794 209.0 0.00478 112.35541 121.19658
42.2515 42.1961 220.0 0.00455 112.31509 121.26363
42.2682 42.2128 197.0 0.00507 112.27473 121.33274
42.2849 42.2295 215.0 0.00465 112.23441 121.40382
42.3016 42.2462 197.0 0.00507 112.19408 121.47697
42.3184 42.2630 205.0 0.00488 112.15350 121.55270
42.3351 42.2797 198.0 0.00505 112.11318 121.63015
42.3518 42.2964 206.0 0.00486 112.07285 121.70982
42.3685 42.3131 183.0 0.00546 112.03253 121.79179
42.3852 42.3298 191.0 0.00524 111.99220 121.87609
42.4019 42.3465 203.0 0.00492 111.95190 121.96278
42.4187 42.3633 177.0 0.00565 111.91131 122.05252
42.4354 42.3800 194.0 0.00515 111.87098 122.14423
42.4521 42.3967 184.0 0.00544 111.83066 122.23855
42.4688 42.4134 212.0 0.00472 111.79032 122.33552
42.4855 42.4301 236.0 0.00424 111.74998 122.43526
42.5023 42.4469 220.0 0.00455 111.70943 122.53838
42.5190 42.4636 240.0 0.00417 111.66911 122.64377
42.5357 42.4803 174.0 0.00575 111.62877 122.75220
42.5524 42.4970 203.0 0.00492 111.58843 122.86362
42.5691 42.5137 212.0 0.00472 111.54810 122.97818
42.5859 42.5305 181.0 0.00553 111.50754 123.09666
42.6026 42.5472 174.0 0.00575 111.46721 123.21774
42.6193 42.5639 170.0 0.00588 111.42689 123.34223
42.6360 42.5806 147.0 0.00681 111.38656 123.47019
42.6527 42.5973 148.0 0.00675 111.34624 123.60175
42.6694 42.6140 153.0 0.00654 111.30592 123.73695
42.6862 42.6308 158.0 0.00633 111.26533 123.87690
42.7029 42.6475 144.0 0.00694 111.22501 124.01990
42.7196 42.6642 153.0 0.00654 111.18468 124.16690
42.7363 42.6809 153.0 0.00654 111.14434 124.31810
42.7530 42.6976 154.0 0.00649 111.10402 124.47353
42.7698 42.7144 136.0 0.00736 111.06345 124.63428
42.7865 42.7311 117.0 0.00854 111.02313 124.79860
42.8032 42.7478 117.0 0.00854 110.98279 124.96774
42.8199 42.7645 131.0 0.00763 110.94247 125.14159
42.8366 42.7812 132.0 0.00757 110.90214 125.32038
42.8534 42.7980 133.0 0.00752 110.86156 125.50544
42.8701 42.8147 116.0 0.00862 110.82124 125.69465
42.8868 42.8314 135.0 0.00741 110.78091 125.88931
42.9035 42.8481 125.0 0.00800 110.74059 126.08956
42.9202 42.8648 122.0 0.00819 110.70026 126.29562
42.9369 42.8815 119.0 0.00840 110.65994 126.50759
42.9537 42.8983 130.0 0.00769 110.61935 126.72723
42.9704 42.9150 130.0 0.00769 110.57903 126.95184
42.9871 42.9317 121.0 0.00826 110.53870 127.18307
43.0038 42.9484 130.0 0.00769 110.49837 127.42116
43.0205 42.9651 111.0 0.00900 110.45804 127.66622
43.0373 42.9819 121.0 0.00826 110.41748 127.92006
43.0540 42.9986 144.0 0.00694 110.37717 128.17992
43.0707 43.0153 129.0 0.00775 110.33681 128.44777
43.0874 43.0320 135.0 0.00741 110.29649 128.72354
43.1041 43.0487 138.0 0.00724 110.25616 129.00766
43.1209 43.0655 127.0 0.00787 110.21559 129.30225
43.1376 43.0822 134.0 0.00746 110.17526 129.60400
43.1543 43.0989 148.0 0.00675 110.13494 129.91507
43.1710 43.1156 124.0 0.00806 110.09460 130.23573
43.1877 43.1323 128.0 0.00782 110.05429 130.56636
43.2044 43.1490 114.0 0.00877 110.01397 130.90723
43.2212 43.1658 133.0 0.00752 109.97338 131.26122
43.2379 43.1825 122.0 0.00819 109.93306 131.62413
43.2546 43.1992 143.0 0.00699 109.89273 131.99858
43.2713 43.2159 145.0 0.00690 109.85239 132.38518
43.2880 43.2326 129.0 0.00775 109.81207 132.78413
43.3048 43.2494 142.0 0.00704 109.77151 133.19852
43.3215 43.2661 133.0 0.00752 109.73119 133.62386
43.3382 43.2828 127.0 0.00787 109.69084 134.06364
43.3549 43.2995 118.0 0.00848 109.65051 134.51775
43.3716 43.3162 132.0 0.00757 109.61019 134.98706
43.3884 43.3330 134.0 0.00746 109.56961 135.47522
43.4051 43.3497 120.0 0.00834 109.52929 135.97694
43.4218 43.3664 123.0 0.00813 109.48896 136.49585
43.4385 43.3831 93.0 0.01075 109.44864 137.03267
43.4552 43.3998 127.0 0.00787 109.40831 137.58818
43.4719 43.4165 138.0 0.00724 109.36800 138.16306
43.4887 43.4333 127.0 0.00787 109.32741 138.76233
43.5054 43.4500 111.0 0.00900 109.28708 139.37914
43.5221 43.4667 138.0 0.00724 109.24676 140.01819
43.5388 43.4834 129.0 0.00775 109.20642 140.68069
43.5555 43.5001 131.0 0.00763 109.16609 141.36734
43.5723 43.5169 106.0 0.00943 109.12553 142.08371
43.5890 43.5336 134.0 0.00746 109.08522 142.82243
43.6057 43.5503 127.0 0.00787 109.04487 143.58978
43.6224 43.5670 111.0 0.00900 109.00454 144.38602
43.6391 43.5837 118.0 0.00848 108.96421 145.21297
43.6559 43.6005 115.0 0.00870 108.92364 146.07759
43.6726 43.6172 140.0 0.00715 108.88331 146.97092
43.6893 43.6339 126.0 0.00794 108.84299 147.89987
43.7060 43.6506 130.0 0.00769 108.80266 148.86629
43.7227 43.6673 126.0 0.00794 108.76233 149.87210
43.7394 43.6840 127.0 0.00787 108.72202 150.91910
43.7562 43.7008 151.0 0.00662 108.68143 152.01727
43.7729 43.7175 142.0 0.00704 108.64111 153.15468
43.7896 43.7342 133.0 0.00752 108.60078 154.34073
43.8063 43.7509 127.0 0.00787 108.56044 155.57849
43.8230 43.7676 129.0 0.00775 108.52012 156.87016
43.8398 43.7844 161.0 0.00621 108.47956 158.22728
43.8565 43.8011 159.0 0.00629 108.43924 159.63698
43.8732 43.8178 146.0 0.00685 108.39889 161.11229
43.8899 43.8345 148.0 0.00675 108.35856 162.65494
43.9066 43.8512 145.0 0.00690 108.31824 164.26994
43.9234 43.8680 138.0 0.00724 108.27766 165.97237
43.9401 43.8847 147.0 0.00681 108.23734 167.74631
43.9568 43.9014 147.0 0.00681 108.19701 169.60712
43.9735 43.9181 154.0 0.00649 108.15669 171.56042
43.9902 43.9348 140.0 0.00715 108.11636 173.61232
44.0069 43.9515 156.0 0.00641 108.07605 175.76877
44.0237 43.9683 153.0 0.00654 108.03546 178.05316
44.0404 43.9850 166.0 0.00603 107.99513 180.44351
44.0571 44.0017 153.0 0.00654 107.95481 182.96257
44.0738 44.0184 160.0 0.00625 107.91447 185.62030
44.0905 44.0351 150.0 0.00666 107.87415 188.42526
44.1073 44.0519 142.0 0.00704 107.83358 191.40707
44.1240 44.0686 186.0 0.00537 107.79327 194.54219
44.1407 44.0853 163.0 0.00613 107.75292 197.86455
44.1574 44.1020 160.0 0.00625 107.71259 201.38391
44.1741 44.1187 174.0 0.00575 107.67226 205.11816
44.1909 44.1355 175.0 0.00571 107.63169 209.11002
44.2076 44.1522 174.0 0.00575 107.59136 213.33034
44.2243 44.1689 205.0 0.00488 107.55104 217.82431
44.2410 44.1856 200.0 0.00500 107.51071 222.61583
44.2577 44.2023 194.0 0.00515 107.47038 227.73146
44.2744 44.2190 198.0 0.00505 107.43007 233.19916
44.2912 44.2358 195.0 0.00513 107.38948 239.09415
44.3079 44.2525 208.0 0.00481 107.34916 245.37671
44.3246 44.2692 199.0 0.00502 107.30883 252.12479
44.3413 44.2859 211.0 0.00474 107.26849 259.38733
44.3580 44.3026 253.0 0.00395 107.22817 267.21277
44.3748 44.3194 217.0 0.00461 107.18761 275.71429
44.3915 44.3361 236.0 0.00424 107.14729 284.85831
44.4082 44.3528 248.0 0.00403 107.10694 294.78091
44.4249 44.3695 274.0 0.00365 107.06661 305.55618
44.4416 44.3862 265.0 0.00377 107.02629 317.29089
44.4583 44.4029 273.0 0.00366 106.98596 330.10141
44.4751 44.4197 315.0 0.003174 106.94540 344.21259
44.4918 44.4364 334.0 0.002993 106.90506 359.60931
44.5085 44.4531 332.0 0.003012 106.86475 376.55637
44.5252 44.4698 368.0 0.002718 106.82441 395.26837
44.5419 44.4865 384.0 0.002603 106.78410 415.99323
44.5587 44.5033 425.0 0.002352 106.74352 439.20499
44.5754 44.5200 435.0 0.002298 106.70319 464.97723
44.5921 44.5367 492.0 0.002033 106.66286 493.92166
44.6088 44.5534 557.0 0.001795 106.62252 526.66339
44.6255 44.5701 577.0 0.001733 106.58219 564.02124
44.6423 44.5869 671.0 0.001491 106.54163 607.46674
44.6590 44.6036 722.0 0.001385 106.50132 658.23407
44.6757 44.6203 791.0 0.001265 106.46097 719.23151
44.6924 44.6370 904.0 0.001106 106.42065 794.25275
44.7091 44.6537 1075.0 0.000930 106.38032 888.99298
44.7258 44.6704 1147.0 0.000872 106.34000 1011.46698
44.7426 44.6872 1386.0 0.000721 106.29942 1173.68762
44.7593 44.7039 1641.0 0.000609 106.25909 1387.78931
44.7760 44.7206 1898.0 0.000527 106.21877 1671.72742
44.7927 44.7373 2343.0 0.000427 106.17844 2044.95276
44.8094 44.7540 2751.0 0.000364 106.13812 2527.74170
44.8262 44.7708 3438.0 0.0002909 106.09753 3144.08887
44.8429 44.7875 4078.0 0.0002452 106.05721 3901.38647
44.8596 44.8042 5116.0 0.0001954 106.01688 4810.48242
44.8763 44.8209 6089.0 0.0001642 105.97655 5865.57617
44.8930 44.8376 7268.0 0.0001376 105.93623 7039.37598
44.9098 44.8544 8455.0 0.0001183 105.89565 8286.67188
44.9265 44.8711 9808.0 0.0001019 105.85535 9517.65625
44.9432 44.8878 11421.0 0.0000875 105.81499 10666.07324
44.9599 44.9045 12730.0 0.0000786 105.77467 11680.59082
44.9766 44.9212 13897.0 0.0000719 105.73434 12535.17480
44.9933 44.9379 14821.0 0.0000675 105.69402 13190.81934
45.0101 44.9547 15336.0 0.0000652 105.65344 13566.25684
45.0268 44.9714 15292.0 0.0000654 105.61311 13543.24121
45.0435 44.9881 14475.0 0.0000691 105.57278 13044.93652
45.0602 45.0048 13154.0 0.0000760 105.53246 12091.05664
45.0769 45.0215 11690.0 0.0000856 105.49216 10805.35059
45.0937 45.0383 9830.0 0.0001017 105.45157 9344.45117
45.1104 45.0550 8115.0 0.0001232 105.41123 7876.76416
45.1271 45.0717 6731.0 0.0001486 105.37092 6497.79297
45.1438 45.0884 5647.0 0.0001771 105.33057 5269.32715
45.1605 45.1051 4493.0 0.0002226 105.29025 4221.57422
45.1773 45.1219 3644.0 0.0002744 105.24969 3355.52808
45.1940 45.1386 3033.0 0.0003297 105.20937 2670.81665
45.2107 45.1553 2443.0 0.000409 105.16901 2140.26196
45.2274 45.1720 2000.0 0.000500 105.12869 1738.68237
45.2441 45.1887 1700.0 0.000588 105.08836 1438.90063
45.2608 45.2054 1439.0 0.000695 105.04804 1216.30481
45.2776 45.2222 1249.0 0.000801 105.00747 1049.31433
45.2943 45.2389 1078.0 0.000928 104.96715 923.67395
45.3110 45.2556 1000.0 0.001000 104.92682 826.23761
45.3277 45.2723 837.0 0.001195 104.88649 748.56659
45.3444 45.2890 744.0 0.001344 104.84618 684.94006
45.3612 45.3058 674.0 0.001484 104.80559 631.18982
45.3779 45.3225 615.0 0.001626 104.76527 585.49182
45.3946 45.3392 524.0 0.001909 104.72494 545.79034
45.4113 45.3559 504.0 0.001984 104.68460 510.91632
45.4280 45.3726 517.0 0.001934 104.64428 480.05658
45.4448 45.3894 430.0 0.002325 104.60371 452.42221
45.4615 45.4061 396.0 0.002525 104.56339 427.84943
45.4782 45.4228 350.0 0.002857 104.52305 405.74670
45.4949 45.4395 347.0 0.002881 104.48272 385.82138
45.5116 45.4562 317.0 0.003156 104.44240 367.78708
45.5283 45.4729 305.0 0.003280 104.40207 351.41290
45.5451 45.4897 260.0 0.00385 104.36150 336.41483
45.5618 45.5064 276.0 0.00362 104.32117 322.80661
45.5785 45.5231 270.0 0.00370 104.28084 310.34744
45.5952 45.5398 262.0 0.00382 104.24052 298.91193
45.6119 45.5565 250.0 0.00400 104.20020 288.39426
45.6287 45.5733 244.0 0.00410 104.15961 278.63345
45.6454 45.5900 243.0 0.00411 104.11929 269.67422
45.6621 45.6067 227.0 0.00440 104.07896 261.37891
45.6788 45.6234 198.0 0.00505 104.03863 253.68132
45.6955 45.6401 208.0 0.00481 103.99830 246.52945
45.7123 45.6569 199.0 0.00502 103.95774 239.83337
45.7290 45.6736 206.0 0.00486 103.91743 233.62808
45.7457 45.6903 177.0 0.00565 103.87707 227.82677
45.7624 45.7070 185.0 0.00541 103.83675 222.40283
45.7791 45.7237 174.0 0.00575 103.79642 217.32117
45.7958 45.7404 180.0 0.00555 103.75610 212.55345
45.8126 45.7572 158.0 0.00633 103.71552 208.04759
45.8293 45.7739 190.0 0.00527 103.67520 203.83549
45.8460 45.7906 171.0 0.00585 103.63486 199.86810
45.8627 45.8073 160.0 0.00625 103.59454 196.12671
45.8794 45.8240 170.0 0.00588 103.55423 192.59534
45.8962 45.8408 175.0 0.00571 103.51364 189.23564
45.9129 45.8575 171.0 0.00585 103.47332 186.07753
45.9296 45.8742 154.0 0.00649 103.43299 183.08615
45.9463 45.8909 148.0 0.00675 103.39265 180.24904
45.9630 45.9076 122.0 0.00819 103.35233 177.55721
45.9798 45.9244 156.0 0.00641 103.31176 174.98543
45.9965 45.9411 139.0 0.00719 103.27145 172.55534
46.0132 45.9578 163.0 0.00613 103.23110 170.24068
46.0299 45.9745 130.0 0.00769 103.19077 168.03726
46.0466 45.9912 136.0 0.00736 103.15045 165.93677
46.0633 46.0079 151.0 0.00662 103.11012 163.93280
46.0801 46.0247 145.0 0.00690 103.06955 162.00790
46.0968 46.0414 160.0 0.00625 103.02922 160.18010
46.1135 46.0581 159.0 0.00629 102.98889 158.43230
46.1302 46.0748 137.0 0.00731 102.94857 156.75981
46.1469 46.0915 131.0 0.00763 102.90825 155.15871
46.1637 46.1083 131.0 0.00763 102.86767 153.61436
46.1804 46.1250 152.0 0.00658 102.82734 152.14322
46.1971 46.1417 151.0 0.00662 102.78702 150.73169
46.2138 46.1584 109.0 0.00917 102.74668 149.37611
46.2305 46.1751 125.0 0.00800 102.70635 148.07423
46.2473 46.1919 145.0 0.00690 102.66579 146.81566
46.2640 46.2086 127.0 0.00787 102.62548 145.62418
46.2807 46.2253 125.0 0.00800 102.58512 144.46561
46.2974 46.2420 134.0 0.00746 102.54480 143.35074
46.3141 46.2587 108.0 0.00926 102.50447 142.27666
46.3308 46.2754 132.0 0.00757 102.46415 141.24139
46.3476 46.2922 118.0 0.00848 102.42357 140.23697
46.3643 46.3089 122.0 0.00819 102.38324 139.27382
46.3810 46.3256 122.0 0.00819 102.34292 138.34409
46.3977 46.3423 126.0 0.00794 102.30259 137.44609
46.4144 46.3590 131.0 0.00763 102.26228 136.57866
46.4312 46.3758 106.0 0.00943 102.22169 135.73454
46.4479 46.3925 107.0 0.00935 102.18137 134.92345
46.4646 46.4092 131.0 0.00763 102.14104 134.13866
46.4813 46.4259 104.0 0.00961 102.10070 133.37874
46.4980 46.4426 120.0 0.00834 102.06038 132.64307
46.5147 46.4593 106.0 0.00943 102.02005 131.93031
46.5315 46.4761 144.0 0.00694 101.97950 131.23575
46.5482 46.4928 104.0 0.00961 101.93915 130.56567
46.5649 46.5095 100.0 0.01000 101.89882 129.91612
46.5816 46.5262 97.0 0.01031 101.85850 129.28581
46.5983 46.5429 97.0 0.01031 101.81817 128.67397
46.6151 46.5597 100.0 0.01000 101.77760 128.07620
46.6318 46.5764 129.0 0.00775 101.73727 127.49912
46.6485 46.5931 109.0 0.00917 101.69695 126.93832
46.6652 46.6098 105.0 0.00952 101.65662 126.39315
46.6819 46.6265 116.0 0.00862 101.61630 125.86314
46.6987 46.6433 106.0 0.00943 101.57572 125.34413
46.7154 46.6600 104.0 0.00961 101.53539 124.84235
46.7321 46.6767 109.0 0.00917 101.49506 124.35390
46.7488 46.6934 105.0 0.00952 101.45473 123.87811
46.7655 46.7101 121.0 0.00826 101.41440 123.41483
46.7822 46.7268 106.0 0.00943 101.37407 122.96339
46.7990 46.7436 115.0 0.00870 101.33352 122.52100
46.8157 46.7603 118.0 0.00848 101.29317 122.09185
46.8324 46.7770 119.0 0.00840 101.25285 121.67356
46.8491 46.7937 106.0 0.00943 101.21252 121.26551
46.8658 46.8104 105.0 0.00952 101.17220 120.86732
46.8826 46.8272 102.0 0.00980 101.13162 120.47630
46.8993 46.8439 119.0 0.00840 101.09129 120.09685
46.9160 46.8606 120.0 0.00834 101.05097 119.72629
46.9327 46.8773 119.0 0.00840 101.01064 119.36427
46.9494 46.8940 101.0 0.00990 100.97033 119.01064
46.9662 46.9108 116.0 0.00862 100.92974 118.66267
46.9829 46.9275 100.0 0.01000 100.88942 118.32468
46.9996 46.9442 99.0 0.01010 100.84909 117.99413
47.0163 46.9609 122.0 0.00819 100.80875 117.67072
47.0330 46.9776 87.0 0.01150 100.76842 117.35438
47.0497 46.9943 95.0 0.01053 100.72810 117.04478
47.0665 47.0111 111.0 0.00900 100.68755 116.74005
47.0832 47.0278 116.0 0.00862 100.64720 116.44318
47.0999 47.0445 97.0 0.01031 100.60687 116.15260
47.1166 47.0612 100.0 0.01000 100.56655 115.86796
47.1333 47.0779 118.0 0.00848 100.52622 115.58905
47.1501 47.0947 112.0 0.00893 100.48566 115.31406
47.1668 47.1114 93.0 0.01075 100.44532 115.04614
47.1835 47.1281 109.0 0.00917 100.40499 114.78346
47.2002 47.1448 123.0 0.00813 100.36467 114.52587
47.2169 47.1615 97.0 0.01031 100.32435 114.27326
47.2337 47.1783 118.0 0.00848 100.28378 114.02378
47.2504 47.1950 102.0 0.00980 100.24345 113.78054
47.2671 47.2117 92.0 0.01087 100.20312 113.54179
47.2838 47.2284 124.0 0.00806 100.16278 114.06820
47.3005 47.2451 108.0 0.00926 100.12245 113.84554
47.3172 47.2618 121.0 0.00826 100.08212 113.62713
47.3340 47.2786 129.0 0.00775 100.04157 113.41164
47.3507 47.2953 96.0 0.01042 100.00123 113.20125
47.3674 47.3120 99.0 0.01010 99.96091 112.99489
47.3841 47.3287 120.0 0.00834 99.92057 112.79230
47.4008 47.3454 102.0 0.00980 99.88024 112.59342
47.4176 47.3622 110.0 0.00909 99.83968 112.39696
47.4343 47.3789 94.0 0.01064 99.79935 112.20522
47.4510 47.3956 108.0 0.00926 99.75903 112.01688
47.4677 47.4123 99.0 0.01010 99.71870 111.83189
47.4844 47.4290 94.0 0.01064 99.67838 111.65021
47.5012 47.4458 97.0 0.01031 99.63779 111.47050
47.5179 47.4625 111.0 0.00900 99.59747 111.29507
47.5346 47.4792 114.0 0.00877 99.55714 111.12263
47.5513 47.4959 103.0 0.00971 99.51681 110.95310
47.5680 47.5126 98.0 0.01021 99.47648 110.78652
47.5847 47.5293 126.0 0.00794 99.43616 110.62274
47.6015 47.5461 119.0 0.00840 99.39561 111.02757
47.6182 47.5628 110.0 0.00909 99.35526 110.87550
47.6349 47.5795 99.0 0.01010 99.31493 110.72626
47.6516 47.5962 110.0 0.00909 99.27460 110.57973
47.6683 47.6129 108.0 0.00926 99.23428 111.26250
47.6851 47.6297 108.0 0.00926 99.19370 111.12962
47.7018 47.6464 104.0 0.00961 99.15337 111.00024
47.7185 47.6631 109.0 0.00917 99.11304 110.87352
47.7352 47.6798 102.0 0.00980 99.07272 110.74940
47.7519 47.6965 120.0 0.00834 99.03240 110.62787
47.7687 47.7133 102.0 0.00980 98.99183 110.50812
47.7854 47.7300 103.0 0.00971 98.95149 110.39160
47.8021 47.7467 114.0 0.00877 98.91116 110.27754
47.8188 47.7634 107.0 0.00935 98.87083 110.16590
47.8355 47.7801 109.0 0.00917 98.83051 110.05666
47.8522 47.7968 118.0 0.00848 98.79018 109.94982
47.8690 47.8136 95.0 0.01053 98.74963 109.84475
47.8857 47.8303 111.0 0.00900 98.70927 109.74252
47.9024 47.8470 123.0 0.00813 98.66895 109.64268
47.9191 47.8637 108.0 0.00926 98.62862 109.54509
47.9358 47.8804 127.0 0.00787 98.58829 109.44977
47.9526 47.8972 108.0 0.00926 98.54773 107.25268
47.9693 47.9139 101.0 0.00990 98.50740 107.18493
47.9860 47.9306 100.0 0.01000 98.46708 107.11900
48.0027 47.9473 84.0 0.01191 98.42674 107.05489
48.0194 47.9640 99.0 0.01010 98.38644 106.99265
48.0362 47.9808 107.0 0.00935 98.34585 106.93182
48.0529 47.9975 94.0 0.01064 98.30552 101.51258
48.0696 48.0142 91.0 0.01099 98.26520 101.51457
48.0863 48.0309 99.0 0.01010 98.22485 101.51743
48.1030 48.0476 119.0 0.00840 98.18452 101.52117
48.1197 48.0643 114.0 0.00877 98.14420 101.52584
48.1365 48.0811 104.0 0.00961 98.10365 101.53149
48.1532 48.0978 109.0 0.00917 98.06331 101.53806
48.1699 48.1145 107.0 0.00935 98.02298 101.54565
48.1866 48.1312 123.0 0.00813 97.98266 101.55428
48.2033 48.1479 111.0 0.00900 97.94233 101.56396
48.2201 48.1647 97.0 0.01031 97.90175 101.57480
48.2368 48.1814 105.0 0.00952 97.86143 101.58672
48.2535 48.1981 116.0 0.00862 97.82110 101.59982
48.2702 48.2148 117.0 0.00854 97.78078 101.61411
48.2869 48.2315 84.0 0.01191 97.74046 101.62964
48.3037 48.2483 99.0 0.01010 97.69987 101.64660
48.3204 48.2650 95.0 0.01053 97.65955 101.66476
48.3371 48.2817 89.0 0.01124 97.61922 101.68431
48.3538 48.2984 107.0 0.00935 97.57888 101.70531
48.3705 48.3151 94.0 0.01064 97.53856 101.72776
48.3872 48.3318 99.0 0.01010 97.49823 101.75175
48.4040 48.3486 116.0 0.00862 97.45768 101.77748
48.4207 48.3653 112.0 0.00893 97.41733 101.80473
48.4374 48.3820 101.0 0.00990 97.37701 101.83369
48.4541 48.3987 82.0 0.01220 97.33668 101.86443
48.4708 48.4154 113.0 0.00885 97.29635 101.89700
48.4876 48.4322 99.0 0.01010 97.25578 101.93175
48.5043 48.4489 102.0 0.00980 97.21545 101.96828
48.5210 48.4656 113.0 0.00885 97.17513 102.00692
48.5377 48.4823 113.0 0.00885 97.13480 102.04773
48.5544 48.4990 102.0 0.00980 97.09449 102.09083
48.5711 48.5157 109.0 0.00917 97.05414 102.13637
48.5879 48.5325 99.0 0.01010 97.01357 102.18467
48.6046 48.5492 100.0 0.01000 96.97325 102.23534
48.6213 48.5659 111.0 0.00900 96.93291 102.28880
48.6380 48.5826 113.0 0.00885 96.89258 102.34515
48.6547 48.5993 119.0 0.00840 96.85226 102.40459
48.6715 48.6161 115.0 0.00870 96.81171 102.46764
48.6882 48.6328 107.0 0.00935 96.77136 102.53383
48.7049 48.6495 115.0 0.00870 96.73103 102.60365
48.7216 48.6662 112.0 0.00893 96.69070 102.67735
48.7383 48.6829 119.0 0.00840 96.65038 102.75523
48.7551 48.6997 123.0 0.00813 96.60980 102.83806
48.7718 48.7164 107.0 0.00935 96.56948 102.92521
48.7885 48.7331 122.0 0.00819 96.52915 103.01749
48.8052 48.7498 97.0 0.01031 96.48883 103.11535
48.8219 48.7665 102.0 0.00980 96.44851 103.21924
48.8386 48.7832 112.0 0.00893 96.40816 103.32984
48.8554 48.8000 114.0 0.00877 96.36760 103.44836
48.8721 48.8167 94.0 0.01064 96.32727 103.57423
48.8888 48.8334 104.0 0.00961 96.28693 103.70907
48.9055 48.8501 126.0 0.00794 96.24661 103.85390
48.9222 48.8668 121.0 0.00826 96.20628 104.01014
48.9390 48.8836 105.0 0.00952 96.16573 104.18063
48.9557 48.9003 92.0 0.01087 96.12538 104.36617
48.9724 48.9170 123.0 0.00813 96.08506 104.57125
48.9891 48.9337 122.0 0.00819 96.04473 104.80183
49.0058 48.9504 138.0 0.00724 96.00440 105.06709
49.0226 48.9672 121.0 0.00826 95.96383 105.38358
49.0393 48.9839 122.0 0.00819 95.92350 105.76951
49.0560 49.0006 121.0 0.00826 95.88318 106.25888
49.0727 49.0173 122.0 0.00819 95.84285 106.89655
49.0894 49.0340 151.0 0.00662 95.80254 107.74047
49.1061 49.0507 152.0 0.00658 95.76219 108.86151
49.1229 49.0675 125.0 0.00800 95.72162 110.34283
49.1396 49.0842 141.0 0.00710 95.68130 112.23695
49.1563 49.1009 165.0 0.00606 95.64096 114.59917
49.1730 49.1176 143.0 0.00699 95.60063 117.43460
49.1897 49.1343 131.0 0.00763 95.56032 120.68909
49.2065 49.1511 131.0 0.00763 95.51973 124.25407
49.2232 49.1678 125.0 0.00800 95.47941 127.84714
49.2399 49.1845 124.0 0.00806 95.43908 131.13823
49.2566 49.2012 127.0 0.00787 95.39875 133.67355
49.2733 49.2179 101.0 0.00990 95.35843 134.99976
49.2901 49.2347 125.0 0.00800 95.31786 134.85411
49.3068 49.2514 159.0 0.00629 95.27753 133.32890
49.3235 49.2681 130.0 0.00769 95.23720 130.80974
49.3402 49.2848 116.0 0.00862 95.19688 127.77106
49.3569 49.3015 129.0 0.00775 95.15656 124.62411
49.3736 49.3182 115.0 0.00870 95.11621 121.65936
49.3904 49.3350 123.0 0.00813 95.07565 119.05091
49.4071 49.3517 118.0 0.00848 95.03532 116.92061
49.4238 49.3684 122.0 0.00819 94.99498 115.27414
49.4405 49.3851 125.0 0.00800 94.95466 114.08453
49.4572 49.4018 121.0 0.00826 94.91433 113.29225
49.4740 49.4186 105.0 0.00952 94.87378 112.82309
49.4907 49.4353 112.0 0.00893 94.83344 112.60963
49.5074 49.4520 125.0 0.00800 94.79311 112.58540
49.5241 49.4687 112.0 0.00893 94.75278 112.69988
49.5408 49.4854 125.0 0.00800 94.71246 112.91604
49.5576 49.5022 122.0 0.00819 94.67188 113.21043
49.5743 49.5189 116.0 0.00862 94.63155 113.56303
49.5910 49.5356 130.0 0.00769 94.59123 113.96545
49.6077 49.5523 114.0 0.00877 94.55090 114.41208
49.6244 49.5690 102.0 0.00980 94.51059 114.89990
49.6411 49.5857 132.0 0.00757 94.47025 115.42834
49.6579 49.6025 134.0 0.00746 94.42967 116.00002
49.6746 49.6192 129.0 0.00775 94.38935 116.60928
49.6913 49.6359 112.0 0.00893 94.34901 117.26070
49.7080 49.6526 122.0 0.00819 94.30869 117.95556
49.7247 49.6693 118.0 0.00848 94.26837 118.69582
49.7415 49.6861 123.0 0.00813 94.22778 119.48950
49.7582 49.7028 109.0 0.00917 94.18746 120.32903
49.7749 49.7195 128.0 0.00782 94.14713 121.22245
49.7916 49.7362 115.0 0.00870 94.10680 122.17325
49.8083 49.7529 131.0 0.00763 94.06648 123.18539
49.8251 49.7697 122.0 0.00819 94.02590 124.27008
49.8418 49.7864 108.0 0.00926 93.98558 125.41904
49.8585 49.8031 117.0 0.00854 93.94525 126.64412
49.8752 49.8198 125.0 0.00800 93.90493 127.95140
49.8919 49.8365 126.0 0.00794 93.86461 129.34720
49.9086 49.8532 143.0 0.00699 93.82426 130.84079
49.9254 49.8700 126.0 0.00794 93.78371 132.44807
49.9421 49.8867 151.0 0.00662 93.74337 134.16064
49.9588 49.9034 148.0 0.00675 93.70303 135.99858
49.9755 49.9201 137.0 0.00731 93.66271 137.97256
49.9922 49.9368 129.0 0.00775 93.62238 140.09631
50.0090 49.9536 138.0 0.00724 93.58183 142.39792
50.0257 49.9703 163.0 0.00613 93.54148 144.87035
50.0424 49.9870 148.0 0.00675 93.50115 147.54193
50.0591 50.0037 146.0 0.00685 93.46083 150.43564
50.0758 50.0204 148.0 0.00675 93.42050 153.57608
50.0926 50.0372 139.0 0.00719 93.37994 157.01320
50.1093 50.0539 141.0 0.00710 93.33961 160.73738
50.1260 50.0706 142.0 0.00704 93.29929 164.80573
50.1427 50.0873 153.0 0.00654 93.25896 169.26105
50.1594 50.1040 177.0 0.00565 93.21864 174.15141
50.1761 50.1207 167.0 0.00599 93.17829 179.54082
50.1929 50.1375 186.0 0.00537 93.13773 185.52603
50.2096 50.1542 206.0 0.00486 93.09740 192.12123
50.2263 50.1709 213.0 0.00470 93.05707 199.45801
50.2430 50.1876 205.0 0.00488 93.01674 207.64972
50.2597 50.2043 256.0 0.00391 92.97643 216.84285
50.2765 50.2211 220.0 0.00455 92.93584 227.30521
50.2932 50.2378 255.0 0.00392 92.89552 239.16086
50.3099 50.2545 242.0 0.00413 92.85519 252.83826
50.3266 50.2712 265.0 0.00377 92.81486 268.87070
50.3433 50.2879 303.0 0.003299 92.77454 288.05103
50.3601 50.3047 295.0 0.003388 92.73396 311.72174
50.3768 50.3214 342.0 0.002925 92.69363 341.34222
50.3935 50.3381 452.0 0.002212 92.65331 379.53503
50.4102 50.3548 457.0 0.002188 92.61298 429.73837
50.4269 50.3715 541.0 0.001848 92.57266 496.45837
50.4436 50.3882 632.0 0.001582 92.53232 585.44055
50.4604 50.4050 774.0 0.001292 92.49175 703.96075
50.4771 50.4217 813.0 0.001230 92.45142 857.86536
50.4938 50.4384 1094.0 0.000914 92.41109 1054.76624
50.5105 50.4551 1324.0 0.000755 92.37077 1300.23792
50.5272 50.4718 1512.0 0.000662 92.33044 1597.33032
50.5440 50.4886 1848.0 0.000541 92.28989 1946.58679
50.5607 50.5053 2229.0 0.000449 92.24953 2336.13525
50.5774 50.5220 2661.0 0.000376 92.20921 2750.49731
50.5941 50.5387 3062.0 0.0003265 92.16888 3164.61841
50.6108 50.5554 3470.0 0.0002882 92.12856 3548.77051
50.6275 50.5721 3938.0 0.0002540 92.08823 3874.82104
50.6443 50.5889 4096.0 0.0002441 92.04765 4119.30713
50.6610 50.6056 4304.0 0.0002324 92.00734 4254.55957
50.6777 50.6223 4293.0 0.0002329 91.96700 4258.45557
50.6944 50.6390 4090.0 0.0002445 91.92670 4118.39160
50.7111 50.6557 3744.0 0.0002671 91.88634 3844.43872
50.7279 50.6725 3240.0 0.0003087 91.84578 3468.23267
50.7446 50.6892 2740.0 0.000365 91.80546 3039.41187
50.7613 50.7059 2297.0 0.000435 91.76511 2598.55615
50.7780 50.7226 1988.0 0.000503 91.72478 2178.08447
50.7947 50.7393 1620.0 0.000617 91.68448 1798.25952
50.8115 50.7561 1334.0 0.000750 91.64389 1467.27112
50.8282 50.7728 1107.0 0.000903 91.60357 1192.49207
50.8449 50.7895 910.0 0.001099 91.56324 969.59119
50.8616 50.8062 781.0 0.001280 91.52291 793.35059
50.8783 50.8229 625.0 0.001600 91.48259 656.88293
50.8950 50.8396 591.0 0.001692 91.44226 552.80896
50.9118 50.8564 468.0 0.002137 91.40169 473.68552
50.9285 50.8731 429.0 0.002332 91.36136 414.29993
50.9452 50.8898 393.0 0.002546 91.32103 369.06479
50.9619 50.9065 323.0 0.003097 91.28072 334.08420
50.9786 50.9232 300.0 0.003334 91.24037 306.42862
50.9954 50.9400 283.0 0.00353 91.19981 283.95364
51.0121 50.9567 258.0 0.00388 91.15948 265.45822
51.0288 50.9734 266.0 0.00376 91.11914 249.81165
51.0455 50.9901 245.0 0.00408 91.07882 236.35352
51.0622 51.0068 218.0 0.00459 91.03849 224.61774
51.0790 51.0236 205.0 0.00488 90.99794 214.22508
51.0957 51.0403 182.0 0.00550 90.95759 205.04741
51.1124 51.0570 196.0 0.00510 90.91726 196.85509
51.1291 51.0737 201.0 0.00497 90.87694 189.50217
51.1458 51.0904 179.0 0.00559 90.83661 182.87535
51.1625 51.1071 190.0 0.00527 90.79629 176.88124
51.1793 51.1239 201.0 0.00497 90.75571 171.40970
51.1960 51.1406 193.0 0.00518 90.71539 166.46088
51.2127 51.1573 171.0 0.00585 90.67506 161.94318
51.2294 51.1740 155.0 0.00645 90.63475 157.80910
51.2461 51.1907 156.0 0.00641 90.59439 154.01208
51.2629 51.2075 118.0 0.00848 90.55383 150.50183
51.2796 51.2242 161.0 0.00621 90.53127 147.30273
51.2963 51.2409 136.0 0.00736 90.57948 144.41800
51.3130 51.2576 126.0 0.00794 90.62769 141.75426
51.3297 51.2743 155.0 0.00645 90.67587 139.28996
51.3465 51.2911 144.0 0.00694 90.72439 136.99069
51.3632 51.3078 146.0 0.00685 90.77260 134.86981
51.3799 51.3245 150.0 0.00666 90.82079 132.89726
51.3966 51.3412 148.0 0.00675 90.86900 131.05991
51.4133 51.3579 156.0 0.00641 90.91719 129.34599
51.4300 51.3746 129.0 0.00775 90.96540 127.74503
51.4468 51.3914 136.0 0.00736 91.01389 126.23871
51.4635 51.4081 133.0 0.00752 91.06210 124.83694
51.4802 51.4248 125.0 0.00800 91.11031 123.52258
51.4969 51.4415 140.0 0.00715 91.15849 122.28912
51.5136 51.4582 113.0 0.00885 91.20671 121.12898
51.5304 51.4750 108.0 0.00926 91.25520 120.03210
51.5471 51.4917 120.0 0.00834 91.30340 119.00539
51.5638 51.5084 144.0 0.00694 91.35162 118.03737
51.5805 51.5251 126.0 0.00794 91.39981 117.12437
51.5972 51.5418 142.0 0.00704 91.44802 116.26226
51.6140 51.5586 135.0 0.00741 91.49649 115.44313
51.6307 51.5753 126.0 0.00794 91.54472 114.67233
51.6474 51.5920 130.0 0.00769 91.59293 113.94318
51.6641 51.6087 131.0 0.00763 91.64112 113.25247
51.6808 51.6254 128.0 0.00782 91.68932 112.59774
51.6975 51.6421 103.0 0.00971 91.73752 111.97670
51.7143 51.6589 125.0 0.00800 91.78603 111.38371
51.7310 51.6756 142.0 0.00704 91.83423 110.82404
51.7477 51.6923 103.0 0.00971 91.88242 110.29215
51.7644 51.7090 138.0 0.00724 91.93061 109.78655
51.7811 51.7257 115.0 0.00870 91.97884 109.30515
51.7979 51.7425 129.0 0.00775 92.02733 108.84454
51.8146 51.7592 115.0 0.00870 92.07552 108.40851
51.8313 51.7759 117.0 0.00854 92.12374 107.99297
51.8480 51.7926 114.0 0.00877 92.17194 107.59697
51.8647 51.8093 121.0 0.00826 92.22013 107.21946
51.8815 51.8261 110.0 0.00909 92.26865 106.85693
51.8982 51.8428 135.0 0.00741 92.31685 106.51323
51.9149 51.8595 119.0 0.00840 92.36504 106.18507
51.9316 51.8762 111.0 0.00900 92.41325 105.87169
51.9483 51.8929 113.0 0.00885 92.46145 105.57227
51.9650 51.9096 138.0 0.00724 92.50965 105.28616
51.9818 51.9264 108.0 0.00926 92.55814 105.01102
51.9985 51.9431 103.0 0.00971 92.60635 104.74957
52.0152 51.9598 115.0 0.00870 92.65456 104.49953
52.0319 51.9765 135.0 0.00741 92.70274 104.26039
52.0486 51.9932 122.0 0.00819 92.75097 104.03138
52.0654 52.0100 130.0 0.00769 92.79945 103.81109
52.0821 52.0267 105.0 0.00952 92.84766 103.60149
52.0988 52.0434 113.0 0.00885 92.89587 103.40077
52.1155 52.0601 106.0 0.00943 92.94407 103.20863
52.1322 52.0768 112.0 0.00893 92.99227 103.02466
52.1490 52.0936 111.0 0.00900 93.04074 102.84752
52.1657 52.1103 103.0 0.00971 93.08897 102.67870
52.1824 52.1270 131.0 0.00763 93.13718 102.51711
52.1991 52.1437 124.0 0.00806 93.18537 102.36231
52.2158 52.1604 121.0 0.00826 93.23358 102.21404
52.2325 52.1771 92.0 0.01087 93.28178 102.07199
52.2493 52.1939 106.0 0.00943 93.33028 101.93513
52.2660 52.2106 120.0 0.00834 93.37848 101.80484
52.2827 52.2273 120.0 0.00834 93.42667 101.66847
52.2994 52.2440 126.0 0.00794 93.47486 101.54911
52.3161 52.2607 123.0 0.00813 93.52310 101.43471
52.3329 52.2775 120.0 0.00834 93.57158 101.32459
52.3496 52.2942 117.0 0.00854 93.61977 101.21980
52.3663 52.3109 108.0 0.00926 93.66799 101.11945
52.3830 52.3276 111.0 0.00900 93.71620 101.02345
52.3997 52.3443 114.0 0.00877 93.76438 100.93161
52.4165 52.3611 127.0 0.00787 93.81290 100.84319
52.4332 52.3778 131.0 0.00763 93.86111 100.75917
52.4499 52.3945 135.0 0.00741 93.90930 100.67884
52.4666 52.4112 112.0 0.00893 93.95750 100.60209
52.4833 52.4279 93.0 0.01075 94.00570 100.52873
52.5000 52.4446 127.0 0.00787 94.05390 107.08331
52.5168 52.4614 110.0 0.00909 94.10239 107.08168
52.5335 52.4781 118.0 0.00848 94.15060 107.08413
52.5502 52.4948 122.0 0.00819 94.19881 107.09052
52.5669 52.5115 124.0 0.00806 94.24699 107.10078
52.5836 52.5282 106.0 0.00943 94.29522 107.11482
52.6004 52.5450 121.0 0.00826 94.34370 107.13269
52.6171 52.5617 122.0 0.00819 94.39191 107.15413
52.6338 52.5784 114.0 0.00877 94.44012 107.17914
52.6505 52.5951 130.0 0.00769 94.48832 107.20763
52.6672 52.6118 116.0 0.00862 94.53653 107.23962
52.6839 52.6285 107.0 0.00935 94.58471 107.27499
52.7007 52.6453 133.0 0.00752 94.63322 107.31400
52.7174 52.6620 122.0 0.00819 94.68143 107.35608
52.7341 52.6787 134.0 0.00746 94.72962 107.40141
52.7508 52.6954 140.0 0.00715 94.77783 107.45000
52.7675 52.7121 137.0 0.00731 94.82603 107.50177
52.7843 52.7289 124.0 0.00806 94.87453 107.55704
52.8010 52.7456 107.0 0.00935 94.92274 107.61513
52.8177 52.7623 137.0 0.00731 94.97093 107.67632
52.8344 52.7790 122.0 0.00819 95.01913 107.74058
52.8511 52.7957 129.0 0.00775 95.06735 110.75816
52.8679 52.8125 114.0 0.00877 95.11584 110.86223
52.8846 52.8292 123.0 0.00813 95.16403 110.96930
52.9013 52.8459 98.0 0.01021 95.21225 111.08000
52.9180 52.8626 127.0 0.00787 95.26045 111.19427
52.9347 52.8793 115.0 0.00870 95.30866 111.31213
52.9514 52.8960 143.0 0.00699 95.35684 111.43356
52.9682 52.9128 122.0 0.00819 95.40536 111.55948
52.9849 52.9295 131.0 0.00763 95.45355 111.68822
53.0016 52.9462 112.0 0.00893 95.50175 111.82063
53.0183 52.9629 115.0 0.00870 95.54995 111.95670
53.0350 52.9796 127.0 0.00787 95.59816 112.09647
53.0518 52.9964 131.0 0.00763 95.64666 112.24087
53.0685 53.0131 129.0 0.00775 95.69485 112.38813
53.0852 53.0298 108.0 0.00926 95.74306 112.53921
53.1019 53.0465 123.0 0.00813 95.79124 112.69402
53.1186 53.0632 120.0 0.00834 95.83948 112.85285
53.1354 53.0800 145.0 0.00690 95.88795 113.01645
53.1521 53.0967 112.0 0.00893 95.93616 113.18305
53.1688 53.1134 122.0 0.00819 95.98438 113.35371
53.1855 53.1301 132.0 0.00757 96.03258 113.52834
53.2022 53.1468 114.0 0.00877 96.08078 113.70708
53.2189 53.1635 125.0 0.00800 96.12897 113.88991
53.2357 53.1803 120.0 0.00834 96.17747 114.07822
53.2524 53.1970 115.0 0.00870 96.22569 114.26962
53.2691 53.2137 130.0 0.00769 96.27388 114.46535
53.2858 53.2304 116.0 0.00862 96.32208 114.66549
53.3025 53.2471 114.0 0.00877 96.37029 114.87012
53.3193 53.2639 123.0 0.00813 96.41879 115.08062
53.3360 53.2806 111.0 0.00900 96.46699 115.29449
53.3527 53.2973 151.0 0.00662 96.51518 115.51308
53.3694 53.3140 121.0 0.00826 96.56338 115.73641
53.3861 53.3307 128.0 0.00782 96.61161 115.96488
53.4029 53.3475 117.0 0.00854 96.66009 116.19958
53.4196 53.3642 107.0 0.00935 96.70830 116.43806
53.4363 53.3809 130.0 0.00769 96.75650 116.68181
53.4530 53.3976 128.0 0.00782 96.80470 116.93082
53.4697 53.4143 116.0 0.00862 96.85291 117.18527
53.4864 53.4310 127.0 0.00787 96.90109 117.44521
53.5032 53.4478 125.0 0.00800 96.94961 117.71264
53.5199 53.4645 117.0 0.00854 96.99780 117.98418
53.5366 53.4812 132.0 0.00757 97.04601 118.26170
53.5533 53.4979 124.0 0.00806 97.09421 118.54529
53.5700 53.5146 132.0 0.00757 97.14241 118.83514
53.5868 53.5314 124.0 0.00806 97.19092 119.13322
53.6035 53.5481 112.0 0.00893 97.23911 119.43606
53.6202 53.5648 112.0 0.00893 97.28732 119.74564
53.6369 53.5815 126.0 0.00794 97.33550 120.06200
53.6536 53.5982 131.0 0.00763 97.38373 120.38573
53.6704 53.6150 128.0 0.00782 97.43221 120.71851
53.6871 53.6317 126.0 0.00794 97.48042 121.05684
53.7038 53.6484 131.0 0.00763 97.52863 121.40295
53.7205 53.6651 107.0 0.00935 97.57684 121.75683
53.7372 53.6818 132.0 0.00757 97.62503 122.11881
53.7539 53.6985 130.0 0.00769 97.67322 122.48901
53.7707 53.7153 108.0 0.00926 97.72173 122.87038
53.7874 53.7320 142.0 0.00704 97.76994 123.25818
53.8041 53.7487 132.0 0.00757 97.81813 123.65503
53.8208 53.7654 120.0 0.00834 97.86634 124.06127
53.8375 53.7821 132.0 0.00757 97.91454 124.47716
53.8543 53.7989 122.0 0.00819 97.96304 124.90561
53.8710 53.8156 110.0 0.00909 98.01125 125.34176
53.8877 53.8323 121.0 0.00826 98.05944 125.78847
53.9044 53.8490 128.0 0.00782 98.10764 126.24596
53.9211 53.8657 134.0 0.00746 98.15586 126.71512
53.9379 53.8825 115.0 0.00870 98.20434 127.19849
53.9546 53.8992 130.0 0.00769 98.25255 127.69109
53.9713 53.9159 135.0 0.00741 98.30075 128.19626
53.9880 53.9326 118.0 0.00848 98.34896 128.71411
54.0047 53.9493 142.0 0.00704 98.39716 129.24524
54.0214 53.9660 145.0 0.00690 98.44535 129.78990
54.0382 53.9828 156.0 0.00641 98.49387 130.35258
54.0549 53.9995 140.0 0.00715 98.54206 130.92642
54.0716 54.0162 159.0 0.00629 98.59026 131.51547
54.0883 54.0329 121.0 0.00826 98.63847 132.12033
54.1050 54.0496 141.0 0.00710 98.68667 130.92088
54.1218 54.0664 116.0 0.00862 98.73517 131.58064
54.1385 54.0831 138.0 0.00724 98.78336 132.25375
54.1552 54.0998 141.0 0.00710 98.83157 132.94487
54.1719 54.1165 138.0 0.00724 98.87975 133.65445
54.1886 54.1332 146.0 0.00685 98.92798 134.38408
54.2054 54.1500 122.0 0.00819 98.97646 135.13791
54.2221 54.1667 136.0 0.00736 99.02467 135.90845
54.2388 54.1834 143.0 0.00699 99.07288 136.70102
54.2555 54.2001 158.0 0.00633 99.12109 137.51611
54.2722 54.2168 157.0 0.00637 99.16929 138.35486
54.2889 54.2335 140.0 0.00715 99.21747 139.21800
54.3057 54.2503 139.0 0.00719 99.26598 140.11288
54.3224 54.2670 144.0 0.00694 99.31419 141.02888
54.3391 54.2837 145.0 0.00690 99.36239 141.97281
54.3558 54.3004 143.0 0.00699 99.41059 142.94588
54.3725 54.3171 131.0 0.00763 99.45880 143.94936
54.3893 54.3339 161.0 0.00621 99.50729 144.99103
54.4060 54.3506 149.0 0.00671 99.55550 146.05965
54.4227 54.3673 160.0 0.00625 99.60369 147.16292
54.4394 54.3840 149.0 0.00671 99.65189 148.30217
54.4561 54.4007 147.0 0.00681 99.70011 149.48038
54.4729 54.4175 140.0 0.00715 99.74860 150.70488
54.4896 54.4342 155.0 0.00645 99.79680 151.96402
54.5063 54.4509 168.0 0.00595 99.84501 153.26714
54.5230 54.4676 158.0 0.00633 99.89321 154.61566
54.5397 54.4843 151.0 0.00662 99.94142 156.01216
54.5564 54.5010 154.0 0.00649 99.98960 157.45860
54.5732 54.5178 159.0 0.00629 100.03812 158.96823
54.5899 54.5345 164.0 0.00609 100.08631 160.52399
54.6066 54.5512 167.0 0.00599 100.13452 162.13824
54.6233 54.5679 169.0 0.00592 100.18272 163.81409
54.6400 54.5846 139.0 0.00719 100.23092 165.55476
54.6568 54.6014 144.0 0.00694 100.27942 167.37509
54.6735 54.6181 151.0 0.00662 100.32761 169.25656
54.6902 54.6348 182.0 0.00550 100.37582 171.21408
54.7069 54.6515 196.0 0.00510 100.42400 173.25128
54.7236 54.6682 162.0 0.00617 100.47224 175.37518
54.7403 54.6849 159.0 0.00629 100.52044 177.58763
54.7571 54.7017 181.0 0.00553 100.56892 179.90883
54.7738 54.7184 178.0 0.00562 100.61714 182.31819
54.7905 54.7351 187.0 0.00535 100.66534 184.83353
54.8072 54.7518 184.0 0.00544 100.71354 187.46210
54.8239 54.7685 176.0 0.00568 100.76173 190.21008
54.8407 54.7853 189.0 0.00529 100.81024 193.10556
54.8574 54.8020 182.0 0.00550 100.85844 196.11900
54.8741 54.8187 177.0 0.00565 100.90664 199.27730
54.8908 54.8354 165.0 0.00606 100.95485 202.59003
54.9075 54.8521 235.0 0.00426 101.00305 206.06754
54.9243 54.8689 197.0 0.00507 101.05154 209.74411
54.9410 54.8856 207.0 0.00483 101.09975 213.58716
54.9577 54.9023 200.0 0.00500 101.14794 217.63185
54.9744 54.9190 233.0 0.00429 101.19614 221.89143
54.9911 54.9357 208.0 0.00481 101.24437 226.38689
55.0078 54.9524 192.0 0.00521 101.29256 231.12906
55.0246 54.9692 216.0 0.00463 101.34106 236.16959
55.0413 54.9859 213.0 0.00470 101.38927 241.47227
55.0580 55.0026 260.0 0.00385 101.43747 247.08536
55.0747 55.0193 251.0 0.00399 101.48567 253.03543
55.0914 55.0360 234.0 0.00427 101.53386 259.34824
55.1082 55.0528 237.0 0.00422 101.58237 266.10254
55.1249 55.0695 234.0 0.00427 101.63057 273.24411
55.1416 55.0862 255.0 0.00392 101.67877 280.85239
55.1583 55.1029 248.0 0.00403 101.72697 288.96893
55.1750 55.1196 285.0 0.00351 101.77517 297.64017
55.1918 55.1364 293.0 0.003412 101.82368 306.97681
55.2085 55.1531 268.0 0.00373 101.87187 316.92303
55.2252 55.1698 322.0 0.003107 101.92007 327.59894
55.2419 55.1865 297.0 0.003368 101.96826 339.07401
55.2586 55.2032 314.0 0.003185 102.01649 351.44492
55.2753 55.2199 355.0 0.002817 102.06470 364.78699
55.2921 55.2367 354.0 0.002826 102.11317 379.30072
55.3088 55.2534 353.0 0.002832 102.16139 394.94275
55.3255 55.2701 354.0 0.002826 102.20960 411.92227
55.3422 55.2868 403.0 0.002483 102.25780 430.40079
55.3589 55.3035 403.0 0.002483 102.30599 450.55273
55.3757 55.3203 475.0 0.002106 102.35449 472.74658
55.3924 55.3370 464.0 0.002155 102.40269 496.93582
55.4091 55.3537 500.0 0.002000 102.45090 523.53754
55.4258 55.3704 534.0 0.001872 102.49910 552.88190
55.4425 55.3871 541.0 0.001848 102.54730 585.35956
55.4593 55.4039 635.0 0.001575 102.59579 621.67261
55.4760 55.4206 642.0 0.001557 102.64400 661.95343
55.4927 55.4373 727.0 0.001376 102.69220 707.13177
55.5094 55.4540 744.0 0.001344 102.74039 758.12805
55.5261 55.4707 825.0 0.001212 102.78862 816.27820
55.5428 55.4874 914.0 0.001094 102.83681 883.29419
55.5596 55.5042 987.0 0.001013 102.88531 962.32489
55.5763 55.5209 1113.0 0.000899 102.93353 1056.39465
55.5930 55.5376 1328.0 0.000753 102.98172 1171.67957
55.6097 55.5543 1445.0 0.000692 103.02992 1316.74451
55.6264 55.5710 1664.0 0.000601 103.07811 1503.76550
55.6432 55.5878 2033.0 0.000492 103.12663 1751.58533
55.6599 55.6045 2372.0 0.000422 103.17482 2079.48438
55.6766 55.6212 2761.0 0.000362 103.22302 2516.87427
55.6933 55.6379 3433.0 0.0002913 103.27123 3096.68408
55.7100 55.6546 4128.0 0.0002422 103.31943 3854.65991
55.7268 55.6714 5176.0 0.0001932 103.36793 4832.39990
55.7435 55.6881 6190.0 0.0001615 103.41612 6046.87256
55.7602 55.7048 7868.0 0.0001271 103.46433 7519.05322
55.7769 55.7215 9321.0 0.0001073 103.51251 9242.72949
55.7936 55.7382 11420.0 0.0000875 103.56075 11183.45801
55.8103 55.7549 13473.0 0.0000742 103.60895 13261.25293
55.8271 55.7717 15887.0 0.0000630 103.65743 15366.53125
55.8438 55.7884 17901.0 0.0000559 103.70565 17314.76172
55.8605 55.8051 19948.0 0.0000502 103.75385 18944.24414
55.8772 55.8218 21127.0 0.0000473 103.80205 20094.06445
55.8939 55.8385 21785.0 0.0000459 103.85024 20624.58594
55.9107 55.8553 21294.0 0.0000470 103.89874 20432.57031
55.9274 55.8720 19926.0 0.0000502 103.94695 19506.66211
55.9441 55.8887 18157.0 0.0000551 103.99516 17957.91992
55.9608 55.9054 15798.0 0.0000633 104.04335 15992.56445
55.9775 55.9221 13661.0 0.0000732 104.09156 13839.95703
55.9943 55.9389 11495.0 0.0000870 104.14005 11679.62598
56.0110 55.9556 9438.0 0.0001060 104.18826 9672.44727
56.0277 55.9723 7645.0 0.0001308 104.23645 7884.60010
56.0444 55.9890 6385.0 0.0001566 104.28465 6353.86523
56.0611 56.0057 5204.0 0.0001922 104.33288 5085.24951
56.0778 56.0224 4474.0 0.0002235 104.38108 4065.91846
56.0946 56.0392 3662.0 0.0002731 104.42957 3262.74683
56.1113 56.0559 3096.0 0.0003230 104.47778 2649.83569
56.1280 56.0726 2607.0 0.000384 104.52597 2186.02222
56.1447 56.0893 2281.0 0.000438 104.57418 1837.37195
56.1614 56.1060 1933.0 0.000517 104.62236 1574.96777
56.1782 56.1228 1707.0 0.000586 104.67088 1374.19434
56.1949 56.1395 1448.0 0.000691 104.71907 1219.81311
56.2116 56.1562 1325.0 0.000755 104.76728 1097.39771
56.2283 56.1729 1155.0 0.000866 104.81548 997.83380
56.2450 56.1896 1044.0 0.000958 104.86368 914.87866
56.2618 56.2064 922.0 0.001085 104.91219 843.91510
56.2785 56.2231 838.0 0.001193 104.96038 782.94965
56.2952 56.2398 737.0 0.001357 105.00858 729.56451
56.3119 56.2565 658.0 0.001520 105.05677 682.39429
56.3286 56.2732 619.0 0.001615 105.10500 640.37549
56.3453 56.2899 607.0 0.001647 105.15320 602.79736
56.3621 56.3067 561.0 0.001782 105.20168 568.83295
56.3788 56.3234 514.0 0.001946 105.24990 538.36664
56.3955 56.3401 537.0 0.001863 105.29810 510.79303
56.4122 56.3568 461.0 0.002169 105.34630 485.75256
56.4289 56.3735 394.0 0.002538 105.39449 462.95377
56.4457 56.3903 425.0 0.002352 105.44300 441.99976
56.4624 56.4070 391.0 0.002559 105.49120 422.94424
56.4791 56.4237 339.0 0.002950 105.53941 405.45670
56.4958 56.4404 336.0 0.002976 105.58761 389.37143
56.5125 56.4571 323.0 0.003097 105.63581 374.54410
56.5293 56.4739 294.0 0.003400 105.68430 360.76740
56.5460 56.4906 300.0 0.003334 105.73251 348.09781
56.5627 56.5073 298.0 0.003357 105.78071 336.35013
56.5794 56.5240 312.0 0.003206 105.82890 325.44104
56.5961 56.5407 272.0 0.00368 105.87713 315.28183
56.6128 56.5574 264.0 0.00379 105.92533 305.81955
56.6296 56.5742 272.0 0.00368 105.97382 296.93747
56.6463 56.5909 264.0 0.00379 106.02203 288.68219
56.6630 56.6076 259.0 0.00386 106.07023 280.95660
56.6797 56.6243 241.0 0.00415 106.11843 273.71463
56.6964 56.6410 210.0 0.00476 106.16662 266.91919
56.7132 56.6578 224.0 0.00446 106.21513 260.49115
56.7299 56.6745 224.0 0.00446 106.26334 254.48273
56.7466 56.6912 261.0 0.00383 106.31153 248.82274
56.7633 56.7079 215.0 0.00465 106.35974 243.48508
56.7800 56.7246 214.0 0.00467 106.40794 238.44600
56.7967 56.7413 208.0 0.00481 106.45615 233.68256
56.8135 56.7581 220.0 0.00455 106.50463 229.15224
56.8302 56.7748 184.0 0.00544 106.55284 224.88823
56.8469 56.7915 210.0 0.00476 106.60102 220.84822
56.8636 56.8082 181.0 0.00553 106.64925 217.01256
56.8803 56.8249 207.0 0.00483 106.69746 213.37318
56.8971 56.8417 180.0 0.00555 106.74593 209.89539
56.9138 56.8584 177.0 0.00565 106.79415 206.60698
56.9305 56.8751 176.0 0.00568 106.84236 203.47838
56.9472 56.8918 180.0 0.00555 106.89056 200.49870
56.9639 56.9085 169.0 0.00592 106.93875 197.65965
56.9807 56.9253 179.0 0.00559 106.98725 194.93405
56.9974 56.9420 169.0 0.00592 107.03546 192.34976
57.0141 56.9587 170.0 0.00588 107.08366 189.88168
57.0308 56.9754 164.0 0.00609 107.13186 187.52309
57.0475 56.9921 200.0 0.00500 107.18007 185.26776
57.0642 57.0088 157.0 0.00637 107.22828 183.10924
57.0810 57.0256 142.0 0.00704 107.27676 181.03156
57.0977 57.0423 184.0 0.00544 107.32497 179.05319
57.1144 57.0590 150.0 0.00666 107.37315 177.15764
57.1311 57.0757 138.0 0.00724 107.42138 175.33832
57.1478 57.0924 151.0 0.00662 107.46959 173.59390
57.1646 57.1092 155.0 0.00645 107.51807 171.90985
57.1813 57.1259 141.0 0.00710 107.56628 170.30165
57.1980 57.1426 146.0 0.00685 107.61448 168.75693
57.2147 57.1593 141.0 0.00710 107.66269 167.27205
57.2314 57.1760 165.0 0.00606 107.71087 165.84444
57.2482 57.1928 169.0 0.00592 107.75938 164.46185
57.2649 57.2095 144.0 0.00694 107.80759 163.13979
57.2816 57.2262 141.0 0.00710 107.85579 161.86670
57.2983 57.2429 149.0 0.00671 107.90399 160.64040
57.3150 57.2596 139.0 0.00719 107.95219 159.45860
57.3317 57.2763 155.0 0.00645 108.00040 158.31900
57.3485 57.2931 130.0 0.00769 108.04888 157.21400
57.3652 57.3098 145.0 0.00690 108.09709 156.15425
57.3819 57.3265 144.0 0.00694 108.14527 155.13182
57.3986 57.3432 136.0 0.00736 108.19351 154.14394
57.4153 57.3599 156.0 0.00641 108.24171 153.19043
57.4321 57.3767 135.0 0.00741 108.29019 152.26405
57.4488 57.3934 134.0 0.00746 108.33841 151.37389
57.4655 57.4101 136.0 0.00736 108.38661 150.51370
57.4822 57.4268 153.0 0.00654 108.43481 149.68193
57.4989 57.4435 141.0 0.00710 108.48300 148.87773
57.5157 57.4603 105.0 0.00952 108.53151 148.09448
57.5324 57.4770 141.0 0.00710 108.57971 147.34146
57.5491 57.4937 127.0 0.00787 108.62791 146.61253
57.5658 57.5104 133.0 0.00752 108.67612 145.90674
57.5825 57.5271 129.0 0.00775 108.72432 145.22318
57.5992 57.5438 152.0 0.00658 108.77254 144.56081
57.6160 57.5606 111.0 0.00900 108.82101 143.91550
57.6327 57.5773 142.0 0.00704 108.86922 143.29376
57.6494 57.5940 132.0 0.00757 108.91740 142.69119
57.6661 57.6107 141.0 0.00710 108.96564 142.10641
57.6828 57.6274 119.0 0.00840 109.01384 141.53963
57.6996 57.6442 109.0 0.00917 109.06232 140.98663
57.7163 57.6609 127.0 0.00787 109.11054 140.45313
57.7330 57.6776 144.0 0.00694 109.15874 139.93553
57.7497 57.6943 131.0 0.00763 109.20694 139.43314
57.7664 57.7110 121.0 0.00826 109.25513 138.94556
57.7832 57.7278 131.0 0.00763 109.30364 138.46898
57.7999 57.7445 140.0 0.00715 109.35184 138.00916
57.8166 57.7612 131.0 0.00763 109.40004 137.56248
57.8333 57.7779 127.0 0.00787 109.44824 137.12857
57.8500 57.7946 131.0 0.00763 109.49644 136.70695
57.8667 57.8113 113.0 0.00885 109.54465 136.29713
57.8835 57.8281 125.0 0.00800 109.59314 135.89659
57.9002 57.8448 131.0 0.00763 109.64134 135.50955
57.9169 57.8615 125.0 0.00800 109.68953 135.13336
57.9336 57.8782 118.0 0.00848 109.73777 134.76726
57.9503 57.8949 133.0 0.00752 109.78596 134.41142
57.9671 57.9117 127.0 0.00787 109.83444 134.06331
57.9838 57.9284 137.0 0.00731 109.88266 133.72661
58.0005 57.9451 113.0 0.00885 109.93087 133.39914
58.0172 57.9618 108.0 0.00926 109.97906 133.08051
58.0339 57.9785 138.0 0.00724 110.02726 132.77055
58.0507 57.9953 115.0 0.00870 110.07577 132.46690
58.0674 58.0120 110.0 0.00909 110.12396 132.17325
58.0841 58.0287 127.0 0.00787 110.17217 131.88744
58.1008 58.0454 134.0 0.00746 110.22037 131.60919
58.1175 58.0621 123.0 0.00813 110.26857 131.33832
58.1342 58.0788 141.0 0.00710 110.31679 131.07451
58.1510 58.0956 121.0 0.00826 110.36527 130.81621
58.1677 58.1123 143.0 0.00699 110.41348 130.56616
58.1844 58.1290 107.0 0.00935 110.46166 130.32271
58.2011 58.1457 119.0 0.00840 110.50989 130.08540
58.2178 58.1624 134.0 0.00746 110.55810 129.85442
58.2346 58.1792 127.0 0.00787 110.60658 129.62811
58.2513 58.1959 118.0 0.00848 110.65479 129.40889
58.2680 58.2126 132.0 0.00757 110.70299 129.19542
58.2847 58.2293 127.0 0.00787 110.75119 128.98744
58.3014 58.2460 140.0 0.00715 110.79938 128.78488
58.3182 58.2628 119.0 0.00840 110.84789 128.58623
58.3349 58.2795 121.0 0.00826 110.89610 128.39394
58.3516 58.2962 130.0 0.00769 110.94429 128.20657
58.3683 58.3129 128.0 0.00782 110.99250 128.02403
58.3850 58.3296 120.0 0.00834 111.04070 127.84616
58.4017 58.3463 130.0 0.00769 111.08891 127.67281
58.4185 58.3631 119.0 0.00840 111.13741 127.50298
58.4352 58.3798 135.0 0.00741 111.18560 127.33848
58.4519 58.3965 122.0 0.00819 111.23378 127.17825
58.4686 58.4132 127.0 0.00787 111.28202 127.02201
58.4853 58.4299 122.0 0.00819 111.33022 126.86986
58.5021 58.4467 116.0 0.00862 111.37870 126.72079
58.5188 58.4634 126.0 0.00794 111.42691 126.57635
58.5355 58.4801 147.0 0.00681 111.47512 126.43571
58.5522 58.4968 121.0 0.00826 111.52332 126.29871
58.5689 58.5135 117.0 0.00854 111.57151 126.16531
58.5857 58.5303 103.0 0.00971 111.62003 126.03452
58.6024 58.5470 135.0 0.00741 111.66822 125.90797
58.6191 58.5637 119.0 0.00840 111.71642 125.78474
58.6358 58.5804 135.0 0.00741 111.76462 125.66476
58.6525 58.5971 110.0 0.00909 111.81283 125.54798
58.6692 58.6138 114.0 0.00877 111.86105 125.43427
58.6860 58.6306 132.0 0.00757 111.90952 125.32299
58.7027 58.6473 115.0 0.00870 111.95773 125.21537
58.7194 58.6640 136.0 0.00736 112.00591 125.11069
58.7361 58.6807 133.0 0.00752 112.05415 125.00880
58.7528 58.6974 131.0 0.00763 112.10235 124.90978
58.7696 58.7142 125.0 0.00800 112.15083 124.81298
58.7863 58.7309 121.0 0.00826 112.19904 124.71944
58.8030 58.7476 120.0 0.00834 112.24724 124.62859
58.8197 58.7643 134.0 0.00746 112.29545 124.54038
58.8364 58.7810 126.0 0.00794 112.34363 124.45479
58.8532 58.7978 116.0 0.00862 112.39214 124.37120
58.8699 58.8145 128.0 0.00782 112.44035 124.29067
58.8866 58.8312 115.0 0.00870 112.48855 124.21265
58.9033 58.8479 109.0 0.00917 112.53675 124.13708
58.9200 58.8646 139.0 0.00719 112.58495 124.06397
58.9367 58.8813 121.0 0.00826 112.63316 123.99327
58.9535 58.8981 119.0 0.00840 112.68166 123.92463
58.9702 58.9148 117.0 0.00854 112.72985 123.85879
58.9869 58.9315 108.0 0.00926 112.77804 123.79538
59.0036 58.9482 119.0 0.00840 112.82627 123.73435
59.0203 58.9649 129.0 0.00775 112.87447 123.67577
59.0371 58.9817 126.0 0.00794 112.92295 123.61931
59.0538 58.9984 107.0 0.00935 112.97117 123.56567
59.0705 59.0151 131.0 0.00763 113.01937 123.51454
59.0872 59.0318 116.0 0.00862 113.06758 123.46599
59.1039 59.0485 103.0 0.00971 113.11578 123.42005
59.1206 59.0652 125.0 0.00800 113.16396 123.37684
59.1374 59.0820 103.0 0.00971 113.21247 123.33617
59.1541 59.0987 115.0 0.00870 113.26068 123.29871
59.1708 59.1154 102.0 0.00980 113.30888 123.26431
59.1875 59.1321 134.0 0.00746 113.35708 123.23316
59.2042 59.1488 116.0 0.00862 113.40530 123.20549
59.2210 59.1656 122.0 0.00819 113.45378 123.18142
59.2377 59.1823 121.0 0.00826 113.50198 123.16164
59.2544 59.1990 129.0 0.00775 113.55017 123.14639
59.2711 59.2157 111.0 0.00900 113.59840 123.13632
59.2878 59.2324 135.0 0.00741 113.64660 123.13231
59.3046 59.2492 112.0 0.00893 113.69508 123.13559
59.3213 59.2659 110.0 0.00909 113.74330 114.29359
59.3380 59.2826 103.0 0.00971 113.79150 114.40316
59.3547 59.2993 120.0 0.00834 113.83970 114.52664
59.3714 59.3160 110.0 0.00909 113.88791 114.66906
59.3881 59.3327 122.0 0.00819 113.93609 114.83714
59.4049 59.3495 106.0 0.00943 113.98460 115.04126
59.4216 59.3662 128.0 0.00782 114.03280 115.28983
59.4383 59.3829 115.0 0.00870 114.08101 115.59704
59.4550 59.3996 129.0 0.00775 114.12921 115.97726
59.4717 59.4163 124.0 0.00806 114.17742 116.44530
59.4885 59.4331 119.0 0.00840 114.22591 117.01777
59.5052 59.4498 123.0 0.00813 114.27411 117.69781
59.5219 59.4665 108.0 0.00926 114.32230 118.49181
59.5386 59.4832 131.0 0.00763 114.37053 119.39535
59.5553 59.4999 114.0 0.00877 114.41872 120.38945
59.5721 59.5167 102.0 0.00980 114.46720 121.44674
59.5888 59.5334 121.0 0.00826 114.51542 122.49939
59.6055 59.5501 123.0 0.00813 114.56363 123.47169
59.6222 59.5668 126.0 0.00794 114.61183 124.25996
59.6389 59.5835 134.0 0.00746 114.66003 124.75512
59.6556 59.6002 132.0 0.00757 114.70821 124.87801
59.6724 59.6170 130.0 0.00769 114.75673 124.61152
59.6891 59.6337 120.0 0.00834 114.80493 124.01715
59.7058 59.6504 119.0 0.00840 114.85313 123.19699
59.7225 59.6671 118.0 0.00848 114.90134 122.26008
59.7392 59.6838 114.0 0.00877 114.94955 121.29671
59.7560 59.7006 132.0 0.00757 114.99803 120.36711
59.7727 59.7173 117.0 0.00854 115.04623 119.52359
59.7894 59.7340 141.0 0.00710 115.09442 118.78406
59.8061 59.7507 128.0 0.00782 115.14265 118.15733
59.8228 59.7674 114.0 0.00877 115.19086 117.64381
59.8396 59.7842 104.0 0.00961 115.23933 117.23332
59.8563 59.8009 111.0 0.00900 115.28755 116.91831
59.8730 59.8176 115.0 0.00870 115.33575 116.68194
59.8897 59.8343 105.0 0.00952 115.38396 116.50947
59.9064 59.8510 132.0 0.00757 115.43216 116.38728
59.9231 59.8677 131.0 0.00763 115.48035 116.30360
59.9399 59.8845 113.0 0.00885 115.52886 116.24844
59.9566 59.9012 135.0 0.00741 115.57706 116.21495
59.9733 59.9179 110.0 0.00909 115.62526 116.19708
59.9900 59.9346 131.0 0.00763 115.67346 116.19071
60.0067 59.9513 131.0 0.00763 115.72167 116.19292
60.0235 59.9681 110.0 0.00909 115.77016 116.20177
60.0402 59.9848 114.0 0.00877 115.81836 116.21569
60.0569 60.0015 124.0 0.00806 115.86655 116.23373
60.0736 60.0182 124.0 0.00806 115.91478 116.25517
60.0903 60.0349 135.0 0.00741 115.96297 116.27943
60.1071 60.0517 119.0 0.00840 116.01147 116.30630
60.1238 60.0684 125.0 0.00800 116.05968 116.33511
60.1405 60.0851 139.0 0.00719 116.10788 116.36577
60.1572 60.1018 121.0 0.00826 116.15609 116.39803
60.1739 60.1185 114.0 0.00877 116.20428 116.43169
60.1906 60.1352 115.0 0.00870 116.25248 116.46661
60.2074 60.1520 125.0 0.00800 116.30098 116.50287
60.2241 60.1687 131.0 0.00763 116.34918 116.53991
60.2408 60.1854 124.0 0.00806 116.39738 116.57784
60.2575 60.2021 117.0 0.00854 116.44559 116.61658
60.2742 60.2188 126.0 0.00794 116.49380 116.65604
60.2910 60.2356 113.0 0.00885 116.54228 116.69637
60.3077 60.2523 135.0 0.00741 116.59049 116.73706
60.3244 60.2690 135.0 0.00741 116.63867 116.77827
60.3411 60.2857 129.0 0.00775 116.68690 116.82000
60.3578 60.3024 107.0 0.00935 116.60102 116.72806
60.3746 60.3192 154.0 0.00649 116.51439 116.63574
60.3913 60.3359 141.0 0.00710 116.42822 116.54429
60.4080 60.3526 143.0 0.00699 116.34208 116.45319
60.4247 60.3693 135.0 0.00741 116.25596 116.36243
60.4414 60.3860 131.0 0.00763 116.16982 116.27193
60.4581 60.4027 135.0 0.00741 116.08371 116.18173
60.4749 60.4195 121.0 0.00826 115.99702 116.09116
60.4916 60.4362 141.0 0.00710 115.91090 116.00140
60.5083 60.4529 136.0 0.00736 115.82475 115.91183
60.5250 60.4696 141.0 0.00710 115.73861 115.82246
60.5417 60.4863 125.0 0.00800 115.65247 115.73325
60.5585 60.5031 130.0 0.00769 115.56581 115.64368
60.5752 60.5198 159.0 0.00629 115.47969 115.55482
60.5919 60.5365 151.0 0.00662 115.39357 115.46610
60.6086 60.5532 145.0 0.00690 115.30739 115.37745
60.6253 60.5699 145.0 0.00690 115.22126 115.28898
60.6421 60.5867 158.0 0.00633 115.13461 115.20008
60.6588 60.6034 174.0 0.00575 115.04847 115.11182
60.6755 60.6201 161.0 0.00621 114.96233 115.02366
60.6922 60.6368 154.0 0.00649 114.87618 114.93559
60.7089 60.6535 167.0 0.00599 114.79005 114.84763
60.7256 60.6702 157.0 0.00637 114.70393 114.75976
60.7424 60.6870 143.0 0.00699 114.61726 114.67140
60.7591 60.7037 144.0 0.00694 114.53112 114.58366
60.7758 60.7204 169.0 0.00592 114.44498 114.49599
60.7925 60.7371 157.0 0.00637 114.35886 114.40839
60.8092 60.7538 160.0 0.00625 114.27269 114.32084
60.8260 60.7706 172.0 0.00582 114.18606 114.23286
60.8427 60.7873 163.0 0.00613 114.09991 114.14542
60.8594 60.8040 155.0 0.00645 114.01381 114.05808
60.8761 60.8207 154.0 0.00649 113.92763 113.97072
60.8928 60.8374 183.0 0.00546 113.84148 113.88344
60.9096 60.8542 172.0 0.00582 113.75485 113.79570
60.9263 60.8709 168.0 0.00595 113.66869 113.70849
60.9430 60.8876 173.0 0.00578 113.58254 113.62133
60.9597 60.9043 137.0 0.00731 113.49642 113.53424
60.9764 60.9210 168.0 0.00595 113.41028 113.44716
60.9931 60.9377 140.0 0.00715 113.32418 113.36015
61.0099 60.9545 163.0 0.00613 113.23748 113.27258
61.0266 60.9712 161.0 0.00621 113.15136 113.18562
61.0433 60.9879 164.0 0.00609 113.06522 113.09867
61.0600 61.0046 145.0 0.00690 112.97907 113.01175
61.0767 61.0213 156.0 0.00641 112.89291 112.92484
61.0935 61.0381 174.0 0.00575 112.80627 112.83746
61.1102 61.0548 152.0 0.00658 112.72015 112.75064
61.1269 61.0715 147.0 0.00681 112.63403 112.66384
61.1436 61.0882 162.0 0.00617 112.54785 112.57700
61.1603 61.1049 160.0 0.00625 112.46173 112.49024
61.1770 61.1216 140.0 0.00715 112.37559 112.40349
61.1938 61.1384 154.0 0.00649 112.28893 112.31623
61.2105 61.1551 141.0 0.00710 112.20279 112.22952
61.2272 61.1718 131.0 0.00763 112.11665 112.14282
61.2439 61.1885 154.0 0.00649 112.03053 112.05615
61.2606 61.2052 165.0 0.00606 111.94440 111.96951
61.2774 61.2220 144.0 0.00694 111.85773 113.37302
61.2941 61.2387 126.0 0.00794 111.77158 113.29807
61.3108 61.2554 137.0 0.00731 111.68544 113.22324
61.3275 61.2721 137.0 0.00731 111.59932 113.14860
61.3442 61.2888 136.0 0.00736 111.51315 113.07407
61.3610 61.3056 114.0 0.00877 111.42652 112.99931
61.3777 61.3223 127.0 0.00787 111.34038 112.92512
61.3944 61.3390 148.0 0.00675 111.25427 112.85113
61.4111 61.3557 136.0 0.00736 111.16809 112.77723
61.4278 61.3724 119.0 0.00840 111.08195 112.70353
61.4445 61.3891 134.0 0.00746 110.99580 112.62999
61.4613 61.4059 125.0 0.00800 110.90915 112.55619
61.4780 61.4226 137.0 0.00731 110.82301 112.48299
61.4947 61.4393 135.0 0.00741 110.73689 112.41000
61.5114 61.4560 123.0 0.00813 110.65074 112.33716
61.5281 61.4727 128.0 0.00782 110.56464 112.26453
61.5449 61.4895 109.0 0.00917 110.47795 112.19159
61.5616 61.5062 131.0 0.00763 110.39182 112.11931
61.5783 61.5229 134.0 0.00746 110.30568 112.04720
61.5950 61.5396 136.0 0.00736 110.21954 111.97527
61.6117 61.5563 128.0 0.00782 110.13338 111.90353
61.6285 61.5731 128.0 0.00782 110.04675 111.83157
61.6452 61.5898 142.0 0.00704 109.96062 111.76025
61.6619 61.6065 143.0 0.00699 109.87450 113.86229
61.6786 61.6232 134.0 0.00746 109.78831 113.81041
61.6953 61.6399 130.0 0.00769 109.70219 113.75900
61.7120 61.6566 142.0 0.00704 109.61605 113.70806
61.7288 61.6734 125.0 0.00800 109.52937 113.65729
61.7455 61.6901 128.0 0.00782 109.44325 113.60732
61.7622 61.7068 122.0 0.00819 109.35711 113.55783
61.7789 61.7235 127.0 0.00787 109.27099 113.50885
61.7956 61.7402 122.0 0.00819 109.18486 113.46037
61.8124 61.7570 118.0 0.00848 109.09819 113.41212
61.8291 61.7737 120.0 0.00834 109.01205 113.36469
61.8458 61.7904 119.0 0.00840 108.92590 113.31778
61.8625 61.8071 102.0 0.00980 108.83978 113.27143
61.8792 61.8238 113.0 0.00885 108.75362 113.22562
61.8960 61.8406 112.0 0.00893 108.66698 113.18012
61.9127 61.8573 111.0 0.00900 108.58084 113.13547
61.9294 61.8740 123.0 0.00813 108.49474 113.09142
61.9461 61.8907 122.0 0.00819 108.40855 113.04792
61.9628 61.9074 112.0 0.00893 108.32241 113.00505
61.9795 61.9241 116.0 0.00862 108.23627 112.96278
61.9963 61.9409 109.0 0.00917 108.14962 112.92093
62.0130 61.9576 115.0 0.00870 108.06348 112.87994
62.0297 61.9743 127.0 0.00787 107.97735 112.83965
62.0464 61.9910 109.0 0.00917 107.89121 112.79999
62.0631 62.0077 119.0 0.00840 107.80511 112.76104
62.0799 62.0245 112.0 0.00893 107.71841 112.72251
62.0966 62.0412 124.0 0.00806 107.63227 112.68492
62.1133 62.0579 141.0 0.00710 107.54614 112.64809
62.1300 62.0746 123.0 0.00813 107.46001 112.61196
62.1467 62.0913 126.0 0.00794 107.37384 112.57659
62.1635 62.1081 132.0 0.00757 107.28721 112.54178
62.1802 62.1248 123.0 0.00813 107.20108 112.50797
62.1969 62.1415 120.0 0.00834 107.11496 112.47493
62.2136 62.1582 153.0 0.00654 107.02878 112.44269
62.2303 62.1749 115.0 0.00870 106.94266 112.41131
62.2470 62.1916 147.0 0.00681 106.85651 112.38074
62.2638 62.2084 109.0 0.00917 106.76984 112.35085
62.2805 62.2251 130.0 0.00769 106.68372 112.32204
62.2972 62.2418 132.0 0.00757 106.59757 112.29413
62.3139 62.2585 108.0 0.00926 106.51145 112.26713
62.3306 62.2752 151.0 0.00662 106.42533 112.24105
62.3474 62.2920 134.0 0.00746 106.33865 112.21578
62.3641 62.3087 111.0 0.00900 106.25251 112.19164
62.3808 62.3254 118.0 0.00848 106.16637 112.16848
62.3975 62.3421 122.0 0.00819 106.08025 112.14635
62.4142 62.3588 116.0 0.00862 105.99408 112.12524
62.4310 62.3756 101.0 0.00990 105.90745 112.10509
62.4477 62.3923 133.0 0.00752 105.82133 112.08613
62.4644 62.4090 122.0 0.00819 105.73515 112.06828
62.4811 62.4257 134.0 0.00746 105.64902 112.05156
62.4978 62.4424 100.0 0.01000 105.56288 112.03599
62.5145 62.4591 94.0 0.01064 105.47674 112.02159
62.5313 62.4759 117.0 0.00854 105.39008 112.00834
62.5480 62.4926 120.0 0.00834 105.30394 111.99638
62.5647 62.5093 104.0 0.00961 105.21782 111.98571
62.5814 62.5260 92.0 0.01087 105.13168 111.97630
62.5981 62.5427 106.0 0.00943 105.04557 111.96823
62.6149 62.5595 127.0 0.00787 104.95888 111.96146
62.6316 62.5762 103.0 0.00971 104.87273 111.95612
62.6483 62.5929 119.0 0.00840 104.78661 111.95220
62.6650 62.6096 105.0 0.00952 104.70047 111.94971
62.6817 62.6263 118.0 0.00848 104.61430 111.94869
62.6985 62.6431 105.0 0.00952 104.52767 111.94922
62.7152 62.6598 117.0 0.00854 104.44157 111.95129
62.7319 62.6765 106.0 0.00943 104.35538 111.95494
62.7486 62.6932 118.0 0.00848 104.26924 111.96021
62.7653 62.7099 130.0 0.00769 104.18310 111.96716
62.7820 62.7266 113.0 0.00885 104.09698 111.97580
62.7988 62.7434 103.0 0.00971 104.01031 111.98626
62.8155 62.7601 104.0 0.00961 103.92418 111.99846
62.8322 62.7768 109.0 0.00917 103.83804 112.01247
62.8489 62.7935 115.0 0.00870 103.75191 112.02839
62.8656 62.8102 120.0 0.00834 103.66579 112.04621
62.8824 62.8270 101.0 0.00990 103.57912 112.06617
62.8991 62.8437 101.0 0.00990 103.49297 112.08801
62.9158 62.8604 121.0 0.00826 103.40683 112.11194
62.9325 62.8771 106.0 0.00943 103.32071 112.13800
62.9492 62.8938 113.0 0.00885 103.23455 112.16625
62.9660 62.9106 117.0 0.00854 103.14791 112.19692
62.9827 62.9273 119.0 0.00840 103.06179 112.22971
62.9994 62.9440 103.0 0.00971 102.97561 112.26489
63.0161 62.9607 112.0 0.00893 102.88949 112.30251
63.0328 62.9774 117.0 0.00854 102.80334 112.34258
63.0495 62.9941 102.0 0.00980 102.71720 112.38523
63.0663 63.0109 120.0 0.00834 102.63055 112.43080
63.0830 63.0276 125.0 0.00800 102.54440 112.47878
63.0997 63.0443 122.0 0.00819 102.45828 112.52957
63.1164 63.0610 114.0 0.00877 102.37214 112.58319
63.1331 63.0777 115.0 0.00870 102.28603 112.63973
63.1499 63.0945 97.0 0.01031 102.19934 112.69970
63.1666 63.1112 92.0 0.01087 102.11320 112.76237
63.1833 63.1279 115.0 0.00870 102.02708 112.82826
63.2000 63.1446 107.0 0.00935 101.94093 112.89742
63.2167 63.1613 109.0 0.00917 101.85477 112.96998
63.2334 63.1780 120.0 0.00834 101.76865 113.04600
63.2502 63.1948 102.0 0.00980 101.68203 113.12604
63.2669 63.2115 115.0 0.00870 101.59585 113.20938
63.2836 63.2282 93.0 0.01075 101.50970 113.29646
63.3003 63.2449 108.0 0.00926 101.42356 113.38744
63.3170 63.2616 99.0 0.01010 101.33744 113.48248
63.3338 63.2784 100.0 0.01000 101.25077 113.58226
63.3505 63.2951 105.0 0.00952 101.16464 113.68573
63.3672 63.3118 102.0 0.00980 101.07850 113.79360
63.3839 63.3285 105.0 0.00952 100.99238 113.90603
63.4006 63.3452 93.0 0.01075 100.90626 114.02310
63.4174 63.3620 104.0 0.00961 100.81956 114.14584
63.4341 63.3787 115.0 0.00870 100.73344 114.27282
63.4508 63.3954 100.0 0.01000 100.64730 114.40493
63.4675 63.4121 102.0 0.00980 100.56117 114.54239
63.4842 63.4288 104.0 0.00961 100.47501 114.68095
63.5009 63.4455 108.0 0.00926 100.38887 114.82959
63.5177 63.4623 116.0 0.00862 100.30225 114.98499
63.5344 63.4790 97.0 0.01031 100.21607 115.14569
63.5511 63.4957 96.0 0.01042 100.12995 115.31260
63.5678 63.5124 114.0 0.00877 100.04381 115.48595
63.5845 63.5291 120.0 0.00834 99.95766 115.66602
63.6013 63.5459 113.0 0.00885 99.87101 115.85421
63.6180 63.5626 95.0 0.01053 99.78487 116.04844
63.6347 63.5793 109.0 0.00917 99.69875 116.25012
63.6514 63.5960 90.0 0.01111 99.61260 116.45949
63.6681 63.6127 106.0 0.00943 99.52650 116.67678
63.6849 63.6295 134.0 0.00746 99.43980 116.90388
63.7016 63.6462 120.0 0.00834 99.35366 117.13811
63.7183 63.6629 105.0 0.00952 99.26754 117.38126
63.7350 63.6796 102.0 0.00980 99.18140 117.63360
63.7517 63.6963 100.0 0.01000 99.09524 117.89558
63.7684 63.7130 116.0 0.00862 99.00911 118.16746
63.7852 63.7298 114.0 0.00877 98.92249 118.45121
63.8019 63.7465 108.0 0.00926 98.83631 118.74433
63.8186 63.7632 93.0 0.01075 98.75017 119.04840
63.8353 63.7799 111.0 0.00900 98.66403 119.36404
63.8520 63.7966 109.0 0.00917 98.57790 119.69175
63.8688 63.8134 122.0 0.00819 98.49123 120.03408
63.8855 63.8301 110.0 0.00909 98.40511 120.38741
63.9022 63.8468 102.0 0.00980 98.31897 120.75429
63.9189 63.8635 114.0 0.00877 98.23284 121.13532
63.9356 63.8802 104.0 0.00961 98.14672 121.53094
63.9524 63.8970 111.0 0.00900 98.06003 121.94473
63.9691 63.9137 112.0 0.00893 97.97391 122.37194
63.9858 63.9304 102.0 0.00980 97.88776 122.81585
64.0025 63.9471 124.0 0.00806 97.80162 123.27719
64.0192 63.9638 98.0 0.01021 97.71548 123.75692
64.0359 63.9805 113.0 0.00885 97.62933 124.25551
64.0527 63.9973 118.0 0.00848 97.54272 124.77692
64.0694 64.0140 105.0 0.00952 97.45654 125.31665
64.0861 64.0307 99.0 0.01010 97.37039 125.87783
64.1028 64.0474 108.0 0.00926 97.28425 126.46179
64.1195 64.0641 109.0 0.00917 97.19815 127.06967
64.1363 64.0809 125.0 0.00800 97.11146 127.70647
64.1530 64.0976 137.0 0.00731 97.02535 128.36575
64.1697 64.1143 120.0 0.00834 96.93921 129.05254
64.1864 64.1310 130.0 0.00769 96.85307 129.76820
64.2031 64.1477 117.0 0.00854 96.76696 130.51402
64.2199 64.1645 126.0 0.00794 96.68027 131.29706
64.2366 64.1812 94.0 0.01064 96.59412 132.10875
64.2533 64.1979 125.0 0.00800 96.50798 132.95576
64.2700 64.2146 120.0 0.00834 96.42188 133.84000
64.2867 64.2313 108.0 0.00926 96.33570 134.76366
64.3034 64.2480 132.0 0.00757 96.24956 135.72839
64.3202 64.2648 118.0 0.00848 96.16294 136.74248
64.3369 64.2815 124.0 0.00806 96.07676 137.79776
64.3536 64.2982 112.0 0.00893 95.99062 138.90112
64.3703 64.3149 141.0 0.00710 95.90451 140.05602
64.3870 64.3316 129.0 0.00775 95.81837 141.26534
64.4038 64.3484 133.0 0.00752 95.73171 142.54036
64.4205 64.3651 111.0 0.00900 95.64558 143.86899
64.4372 64.3818 127.0 0.00787 95.55943 145.26256
64.4539 64.3985 120.0 0.00834 95.47329 146.72510
64.4706 64.4152 138.0 0.00724 95.38718 148.26051
64.4874 64.4320 139.0 0.00719 95.30049 149.88501
64.5041 64.4487 151.0 0.00662 95.21435 151.58246
64.5208 64.4654 133.0 0.00752 95.12824 153.36853
64.5375 64.4821 159.0 0.00629 95.04210 155.24910
64.5542 64.4988 147.0 0.00681 94.95592 157.23123
64.5709 64.5155 127.0 0.00787 94.86982 159.32086
64.5877 64.5323 143.0 0.00699 94.78320 161.53865
64.6044 64.5490 134.0 0.00746 94.69702 163.86989
64.6211 64.5657 154.0 0.00649 94.61088 166.33286
64.6378 64.5824 148.0 0.00675 94.52473 168.93875
64.6545 64.5991 141.0 0.00710 94.43859 171.69844
64.6713 64.6159 170.0 0.00588 94.35194 174.64235
64.6880 64.6326 152.0 0.00658 94.26579 177.75887
64.7047 64.6493 151.0 0.00662 94.17965 181.05739
64.7214 64.6660 153.0 0.00654 94.09351 184.56496
64.7381 64.6827 152.0 0.00658 94.00741 188.29787
64.7549 64.6995 161.0 0.00621 93.92072 192.30409
64.7716 64.7162 179.0 0.00559 93.83461 196.55296
64.7883 64.7329 166.0 0.00603 93.74847 201.09294
64.8050 64.7496 166.0 0.00603 93.66232 205.95061
64.8217 64.7663 152.0 0.00658 93.57618 211.15710
64.8384 64.7830 190.0 0.00527 93.49004 216.74242
64.8552 64.7998 181.0 0.00553 93.40343 222.77965
64.8719 64.8165 200.0 0.00500 93.31725 229.24788
64.8886 64.8332 212.0 0.00472 93.23110 236.21858
64.9053 64.8499 208.0 0.00481 93.14496 243.74849
64.9220 64.8666 225.0 0.00444 93.05882 251.89769
64.9388 64.8834 194.0 0.00515 92.97216 260.79102
64.9555 64.9001 239.0 0.00418 92.88602 270.39822
64.9722 64.9168 246.0 0.00407 92.79991 280.86087
64.9889 64.9335 242.0 0.00413 92.71378 292.28159
65.0056 64.9502 255.0 0.00392 92.62767 304.77585
65.0224 64.9670 272.0 0.00368 92.54098 318.58499
65.0391 64.9837 266.0 0.00376 92.45483 333.69022
65.0558 65.0004 305.0 0.003280 92.36869 350.37665
65.0725 65.0171 301.0 0.003322 92.28255 368.88916
65.0892 65.0338 338.0 0.002960 92.19640 389.54422
65.1059 65.0505 354.0 0.002826 92.11026 412.73773
65.1227 65.0673 379.0 0.002638 92.02364 439.17386
65.1394 65.0840 442.0 0.002263 91.93746 469.34326
65.1561 65.1007 458.0 0.002184 91.85133 504.41592
65.1728 65.1174 498.0 0.002007 91.76518 545.91968
65.1895 65.1341 507.0 0.001972 91.67908 595.98102
65.2063 65.1509 641.0 0.001560 91.59238 657.96631
65.2230 65.1676 739.0 0.001354 91.50628 735.12299
65.2397 65.1843 801.0 0.001249 91.42014 833.00629
65.2564 65.2010 928.0 0.001078 91.33399 958.17908
65.2731 65.2177 1113.0 0.000899 91.24785 1118.52380
65.2898 65.2344 1229.0 0.000814 91.16175 1322.93542
65.3066 65.2512 1546.0 0.000647 91.07506 1582.91272
65.3233 65.2679 1841.0 0.000543 90.98891 1904.39868
65.3400 65.2846 2242.0 0.000446 90.90281 2296.84473
65.3567 65.3013 2635.0 0.000380 90.81663 2765.40674
65.3734 65.3180 3207.0 0.0003118 90.73048 3310.75317
65.3902 65.3348 3845.0 0.0002601 90.64387 3931.40601
65.4069 65.3515 4414.0 0.0002265 90.55769 4607.43945
65.4236 65.3682 5207.0 0.0001920 90.47154 5317.18555
65.4403 65.3849 6058.0 0.0001651 90.38544 6023.89844
65.4570 65.4016 6836.0 0.0001463 90.29930 6677.13818
65.4738 65.4184 7297.0 0.0001371 90.21265 7221.27588
65.4905 65.4351 7522.0 0.0001329 90.12650 7595.85449
65.5072 65.4518 7837.0 0.0001276 90.04036 7771.84814
65.5239 65.4685 7919.0 0.0001263 89.95422 7744.61816
65.5406 65.4852 7755.0 0.0001290 89.86807 7531.33398
65.5573 65.5019 7032.0 0.0001422 89.78197 7159.38574
65.5741 65.5187 6394.0 0.0001564 89.69527 6656.22656
65.5908 65.5354 5693.0 0.0001757 89.60918 6063.99268
65.6075 65.5521 5014.0 0.0001994 89.52303 5419.39697
65.6242 65.5688 4422.0 0.0002261 89.43685 4761.81299
65.6409 65.5855 3793.0 0.0002636 89.35075 4125.47949
65.6577 65.6023 3177.0 0.0003148 89.26413 3531.59326
65.6744 65.6190 2699.0 0.000371 89.17791 3000.95337
65.6911 65.6357 2334.0 0.000428 89.09180 2537.05713
65.7078 65.6524 2040.0 0.000490 89.00566 2139.80273
65.7245 65.6691 1708.0 0.000585 88.91952 1805.49231
65.7413 65.6859 1458.0 0.000686 88.83287 1526.60400
65.7580 65.7026 1303.0 0.000767 88.74673 1299.43396
65.7747 65.7193 1106.0 0.000904 88.66058 1114.77258
65.7914 65.7360 988.0 0.001012 88.57444 965.79315
65.8081 65.7527 872.0 0.001147 88.48833 845.56152
65.8248 65.7694 793.0 0.001261 88.40219 748.66412
65.8416 65.7862 709.0 0.001410 88.31554 669.76752
65.8583 65.8029 634.0 0.001577 88.22939 605.90778
65.8750 65.8196 542.0 0.001845 88.14326 553.32159
65.8917 65.8363 507.0 0.001972 88.05711 509.47513
65.9084 65.8530 489.0 0.002046 87.97097 472.44556
65.9252 65.8698 432.0 0.002316 87.88435 440.57480
65.9419 65.8865 406.0 0.002463 87.79817 413.08255
65.9586 65.9032 355.0 0.002817 87.71203 388.97977
65.9753 65.9199 334.0 0.002993 87.62589 367.62778
65.9920 65.9366 301.0 0.003322 87.53974 348.55814
66.0088 65.9534 300.0 0.003334 87.45309 331.31323
66.0255 65.9701 285.0 0.00351 87.36694 315.82422
66.0422 65.9868 278.0 0.00360 87.28081 301.75986
66.0589 66.0035 265.0 0.00377 87.19470 288.94119
66.0756 66.0202 212.0 0.00472 87.10856 277.22043
66.0923 66.0369 230.0 0.00435 87.02245 266.47598
66.1091 66.0537 245.0 0.00408 86.93576 256.53470
66.1258 66.0704 184.0 0.00544 86.84962 247.43504
66.1425 66.0871 209.0 0.00478 86.76347 239.03145
66.1592 66.1038 206.0 0.00486 86.67733 231.25244
66.1759 66.1205 205.0 0.00488 86.59119 224.04163
66.1927 66.1373 185.0 0.00541 86.50458 217.70062
66.2094 66.1540 177.0 0.00565 86.41840 211.46899
66.2261 66.1707 183.0 0.00546 86.33225 205.66344
66.2428 66.1874 169.0 0.00592 86.24611 200.24266
66.2595 66.2041 167.0 0.00599 86.16000 195.17325
66.2763 66.2209 167.0 0.00599 86.07331 190.39700
66.2930 66.2376 169.0 0.00592 85.98721 185.94540
66.3097 66.2543 159.0 0.00629 85.90106 181.76411
66.3264 66.2710 158.0 0.00633 85.81493 177.83157
66.3431 66.2877 136.0 0.00736 85.72878 174.12813
66.3598 66.3044 131.0 0.00763 85.64268 170.63708
66.3766 66.3212 162.0 0.00617 85.55598 167.31985
66.3933 66.3379 128.0 0.00782 85.46984 164.20522
66.4100 66.3546 169.0 0.00592 85.38370 161.25815
66.4267 66.3713 123.0 0.00813 85.29755 158.46590
66.4434 66.3880 123.0 0.00813 85.21141 155.81906
66.4602 66.4048 127.0 0.00787 85.12480 153.29312
66.4769 66.4215 114.0 0.00877 85.03861 150.90559
66.4936 66.4382 105.0 0.00952 84.95248 148.63635
66.5103 66.4549 126.0 0.00794 84.86637 146.47636
66.5270 66.4716 121.0 0.00826 84.78023 144.41850
66.5438 66.4884 141.0 0.00710 84.69357 142.44450
66.5605 66.5051 98.0 0.01021 84.60743 140.57236
66.5772 66.5218 125.0 0.00800 84.52129 138.78427
66.5939 66.5385 114.0 0.00877 84.43514 137.07509
66.6106 66.5552 106.0 0.00943 84.34900 135.44006
66.6273 66.5719 104.0 0.00961 84.26290 133.87532
66.6441 66.5887 139.0 0.00719 84.17621 132.36636
66.6608 66.6054 123.0 0.00813 84.09010 130.92920
66.6775 66.6221 128.0 0.00782 84.00396 129.55038
66.6942 66.6388 116.0 0.00862 83.91778 128.22638
66.7109 66.6555 116.0 0.00862 83.83163 126.95490
66.7277 66.6723 116.0 0.00862 83.74506 125.72606
66.7444 66.6890 127.0 0.00787 83.65884 124.55010
66.7611 66.7057 99.0 0.01010 83.57274 123.41905
66.7778 66.7224 104.0 0.00961 83.48660 122.32985
66.7945 66.7391 132.0 0.00757 83.40045 121.28038
66.8113 66.7559 116.0 0.00862 83.31380 120.26252
66.8280 66.7726 98.0 0.01021 83.22765 119.28680
66.8447 66.7893 101.0 0.00990 83.14151 118.34512
66.8614 66.8060 136.0 0.00736 83.05537 117.43581
66.8781 66.8227 97.0 0.01031 82.96926 116.55739
66.8948 66.8394 112.0 0.00893 82.88313 115.70850
66.9116 66.8562 100.0 0.01000 82.79647 114.88223
66.9283 66.8729 119.0 0.00840 82.71033 114.08796
66.9450 66.8896 101.0 0.00990 82.62418 113.31915
66.9617 66.9063 102.0 0.00980 82.53804 112.57445
66.9784 66.9230 102.0 0.00980 82.45190 111.85319
66.9952 66.9398 97.0 0.01031 82.36528 111.15029
67.0119 66.9565 116.0 0.00862 82.27910 110.47220
67.0286 66.9732 110.0 0.00909 82.19296 109.81481
67.0453 66.9899 113.0 0.00885 82.10681 109.17686
67.0620 67.0066 102.0 0.00980 82.02068 108.55757
67.0788 67.0234 120.0 0.00834 81.93402 107.95252
67.0955 67.0401 99.0 0.01010 81.84788 107.36832
67.1122 67.0568 102.0 0.00980 81.76173 106.80059
67.1289 67.0735 104.0 0.00961 81.67563 106.24866
67.1456 67.0902 100.0 0.01000 81.58949 105.71186
67.1623 67.1069 88.0 0.01136 81.50338 105.18979
67.1791 67.1237 111.0 0.00900 81.41669 104.67834
67.1958 67.1404 112.0 0.00893 81.33054 104.18369
67.2125 67.1571 107.0 0.00935 81.24441 103.70200
67.2292 67.1738 107.0 0.00935 81.15826 103.23270
67.2459 67.1905 92.0 0.01087 81.07212 102.77557
67.2627 67.2073 89.0 0.01124 80.98550 102.32761
67.2794 67.2240 93.0 0.01075 80.89932 101.89308
67.2961 67.2407 96.0 0.01042 80.81318 101.46960
67.3128 67.2574 103.0 0.00971 80.72704 101.05654
67.3295 67.2741 103.0 0.00971 80.64093 100.65363
67.3462 67.2908 114.0 0.00877 80.55479 100.26038
67.3630 67.3076 111.0 0.00900 80.46809 99.87420
67.3797 67.3243 104.0 0.00961 80.38200 99.49957
67.3964 67.3410 111.0 0.00900 80.29585 99.13372
67.4131 67.3577 94.0 0.01064 80.20971 98.77641
67.4298 67.3744 110.0 0.00909 80.12360 98.42748
67.4466 67.3912 98.0 0.01021 80.03691 98.08430
67.4633 67.4079 75.0 0.01333 79.95077 97.75108
67.4800 67.4246 112.0 0.00893 79.86462 97.42543
67.4967 67.4413 107.0 0.00935 79.77848 97.10704
67.5134 67.4580 102.0 0.00980 79.69234 96.79586
67.5302 67.4748 108.0 0.00926 79.60573 96.48994
67.5469 67.4915 95.0 0.01053 79.51955 96.19228
67.5636 67.5082 96.0 0.01042 79.43340 95.90135
67.5803 67.5249 102.0 0.00980 79.34730 95.61687
67.5970 67.5416 96.0 0.01042 79.26115 95.33857
67.6137 67.5583 90.0 0.01111 79.17501 95.06632
67.6305 67.5751 91.0 0.01099 79.08836 94.79843
67.6472 67.5918 100.0 0.01000 79.00222 94.53796
67.6639 67.6085 113.0 0.00885 78.91608 94.28315
67.6806 67.6252 106.0 0.00943 78.82993 94.03387
67.6973 67.6419 93.0 0.01075 78.74383 93.79014
67.7141 67.6587 102.0 0.00980 78.65714 93.55007
67.7308 67.6754 93.0 0.01075 78.57099 93.31677
67.7475 67.6921 77.0 0.01299 78.48489 93.08864
67.7642 67.7088 69.0 0.01449 78.39870 92.86539
67.7809 67.7255 108.0 0.00926 78.31256 92.64716
67.7977 67.7423 95.0 0.01053 78.22595 92.43263
67.8144 67.7590 110.0 0.00909 78.13977 92.22395
67.8311 67.7757 84.0 0.01191 78.05367 92.02017
67.8478 67.7924 105.0 0.00952 77.96752 91.82100
67.8645 67.8091 88.0 0.01136 77.88138 91.62643
67.8812 67.8258 98.0 0.01021 77.79523 91.43642
67.8980 67.8426 98.0 0.01021 77.70858 91.24979
67.9147 67.8593 85.0 0.01176 77.62244 91.06879
67.9314 67.8760 89.0 0.01124 77.53629 90.89223
67.9481 67.8927 102.0 0.00980 77.45020 90.72012
67.9648 67.9094 109.0 0.00917 77.36405 90.55241
67.9816 67.9262 94.0 0.01064 77.27740 90.38805
67.9983 67.9429 98.0 0.01021 77.19125 90.22909
68.0150 67.9596 115.0 0.00870 77.10511 90.07455
68.0317 67.9763 82.0 0.01220 77.01893 89.92429
68.0484 67.9930 89.0 0.01124 76.93282 89.77859
68.0652 68.0098 102.0 0.00980 76.84621 89.63647
68.0819 68.0265 88.0 0.01136 76.76003 89.49956
68.0986 68.0432 89.0 0.01124 76.67389 89.36720
68.1153 68.0599 79.0 0.01266 76.58775 89.23940
68.1320 68.0766 92.0 0.01087 76.50160 89.11622
68.1487 68.0933 102.0 0.00980 76.41546 88.99771
68.1655 68.1101 104.0 0.00961 76.32880 88.88331
68.1822 68.1268 92.0 0.01087 76.24266 88.77446
68.1989 68.1435 93.0 0.01075 76.15656 88.67060
68.2156 68.1602 99.0 0.01010 76.07041 88.57182
68.2323 68.1769 95.0 0.01053 75.98431 88.47829
68.2491 68.1937 91.0 0.01099 75.89762 88.38957
68.2658 68.2104 92.0 0.01087 75.81148 88.30701
68.2825 68.2271 104.0 0.00961 75.72533 88.23020
68.2992 68.2438 81.0 0.01235 75.63919 88.15942
68.3159 68.2605 90.0 0.01111 75.55305 88.09487
68.3327 68.2773 94.0 0.01064 75.46643 88.03659
68.3494 68.2940 75.0 0.01333 75.38025 87.98550
68.3661 68.3107 90.0 0.01111 75.29411 87.94167
68.3828 68.3274 101.0 0.00990 75.20796 87.90552
68.3995 68.3441 78.0 0.01282 75.12183 87.87753
68.4162 68.3608 94.0 0.01064 75.03572 87.85828
68.4330 68.3776 102.0 0.00980 74.94903 87.84829
68.4497 68.3943 92.0 0.01087 74.86292 87.84859
68.4664 68.4110 117.0 0.00854 74.77678 87.85989
68.4831 68.4277 96.0 0.01042 74.69064 87.88340
68.4998 68.4444 83.0 0.01205 74.60453 87.92055
68.5166 68.4612 89.0 0.01124 74.51784 87.97358
68.5333 68.4779 88.0 0.01136 74.43169 88.04430
68.5500 68.4946 95.0 0.01053 74.34556 88.13632
68.5667 68.5113 101.0 0.00990 74.25941 88.25416
68.5834 68.5280 97.0 0.01031 74.17327 88.40371
68.6002 68.5448 95.0 0.01053 74.08665 88.59423
68.6169 68.5615 96.0 0.01042 74.00047 88.83426
68.6336 68.5782 107.0 0.00935 73.91433 89.13782
68.6503 68.5949 92.0 0.01087 73.82822 89.52177
68.6670 68.6116 94.0 0.01064 73.74208 90.00613
68.6837 68.6283 98.0 0.01021 73.65594 90.61427
68.7005 68.6451 105.0 0.00952 73.56929 91.37739
68.7172 68.6618 98.0 0.01021 73.48315 92.31386
68.7339 68.6785 79.0 0.01266 73.39700 93.45514
68.7506 68.6952 89.0 0.01124 73.31086 94.82581
68.7673 68.7119 102.0 0.00980 73.22475 96.44374
68.7841 68.7287 86.0 0.01163 73.13806 98.33051
68.8008 68.7454 82.0 0.01220 73.05192 100.45335
68.8175 68.7621 124.0 0.00806 72.96582 102.79427
68.8342 68.7788 101.0 0.00990 72.87963 105.30072
68.8509 68.7955 96.0 0.01042 72.79350 107.89701
68.8677 68.8123 106.0 0.00943 72.70688 110.51087
68.8844 68.8290 95.0 0.01053 72.62070 113.02081
68.9011 68.8457 80.0 0.01250 72.53459 115.33472
68.9178 68.8624 112.0 0.00893 72.44845 117.32780
68.9345 68.8791 126.0 0.00794 72.36230 118.84631
68.9512 68.8958 112.0 0.00893 72.27616 119.72778
68.9680 68.9126 119.0 0.00840 72.18951 119.84340
68.9847 68.9293 87.0 0.01150 72.10337 119.15101
69.0014 68.9460 117.0 0.00854 72.01723 117.72702
69.0181 68.9627 85.0 0.01176 71.93112 115.74170
69.0348 68.9794 122.0 0.00819 71.84498 113.41233
69.0516 68.9962 125.0 0.00800 71.75829 110.93150
69.0683 69.0129 119.0 0.00840 71.67218 108.50286
69.0850 69.0296 92.0 0.01087 71.58604 106.23267
69.1017 69.0463 103.0 0.00971 71.49986 104.19888
69.1184 69.0630 119.0 0.00840 71.41376 102.44711
69.1352 69.0798 106.0 0.00943 71.32714 100.98826
69.1519 69.0965 97.0 0.01031 71.24096 99.83827
69.1686 69.1132 108.0 0.00926 71.15482 98.97692
69.1853 69.1299 115.0 0.00870 71.06867 98.38245
69.2020 69.1466 99.0 0.01010 70.98253 98.02914
69.2187 69.1633 94.0 0.01064 70.89639 97.88986
69.2355 69.1801 120.0 0.00834 70.80973 97.93915
69.2522 69.1968 87.0 0.01150 70.72359 98.15262
69.2689 69.2135 112.0 0.00893 70.63749 98.51017
69.2856 69.2302 120.0 0.00834 70.55135 98.99607
69.3023 69.2469 117.0 0.00854 70.46524 99.59878
69.3191 69.2637 118.0 0.00848 70.37855 100.31617
69.3358 69.2804 95.0 0.01053 70.29240 101.13515
69.3525 69.2971 113.0 0.00885 70.20626 102.05939
69.3692 69.3138 111.0 0.00900 70.12012 103.09142
69.3859 69.3305 114.0 0.00877 70.03397 104.23514
69.4026 69.3472 116.0 0.00862 69.94788 105.49722
69.4194 69.3640 105.0 0.00952 69.95464 106.99002
69.4361 69.3807 129.0 0.00775 69.98513 108.63589
69.4528 69.3974 115.0 0.00870 70.01563 110.43322
69.4695 69.4141 112.0 0.00893 70.04613 112.39747
69.4862 69.4308 114.0 0.00877 70.07661 114.54691
69.5030 69.4476 107.0 0.00935 70.10731 116.91845
69.5197 69.4643 123.0 0.00813 70.13779 119.50929
69.5364 69.4810 114.0 0.00877 70.16829 122.36491
69.5531 69.4977 134.0 0.00746 70.19879 125.52411
69.5698 69.5144 134.0 0.00746 70.22928 129.03423
69.5866 69.5312 137.0 0.00731 70.25997 132.98540
69.6033 69.5479 166.0 0.00603 70.29047 137.40529
69.6200 69.5646 156.0 0.00641 70.32097 142.42015
69.6367 69.5813 153.0 0.00654 70.35146 148.16599
69.6534 69.5980 170.0 0.00588 70.38197 154.81657
69.6701 69.6147 187.0 0.00535 70.41245 162.60529
69.6869 69.6315 177.0 0.00565 70.44314 171.91116
69.7036 69.6482 200.0 0.00500 70.47364 183.02292
69.7203 69.6649 215.0 0.00465 70.50414 196.52634
69.7370 69.6816 215.0 0.00465 70.53462 214.06281
69.7537 69.6983 245.0 0.00408 70.56512 235.75099
69.7705 69.7151 291.0 0.003436 70.59580 261.43607
69.7872 69.7318 319.0 0.003135 70.62630 293.22278
69.8039 69.7485 327.0 0.003059 70.65680 332.66974
69.8206 69.7652 407.0 0.002458 70.68729 381.29913
69.8373 69.7819 472.0 0.002118 70.71778 440.60229
69.8541 69.7987 479.0 0.002087 70.74847 509.27756
69.8708 69.8154 557.0 0.001795 70.77898 593.67200
69.8875 69.8321 648.0 0.001543 70.80946 691.29266
69.9042 69.8488 742.0 0.001348 70.83997 801.58417
69.9209 69.8655 884.0 0.001131 70.87047 922.87042
69.9376 69.8822 1008.0 0.000992 70.90096 1052.39014
69.9544 69.8990 1144.0 0.000874 70.93165 1186.99683
69.9711 69.9157 1300.0 0.000769 70.96213 1319.13196
69.9878 69.9324 1491.0 0.000671 70.99263 1441.89478
70.0045 69.9491 1580.0 0.000633 71.02313 1545.86914
70.0212 69.9658 1570.0 0.000637 71.05363 1621.41101
70.0380 69.9826 1624.0 0.000616 71.08430 1661.01892
70.0547 69.9993 1734.0 0.000577 71.11481 1661.38794
70.0714 70.0160 1514.0 0.000661 71.14530 1621.38525
70.0881 70.0327 1477.0 0.000677 71.17580 1546.00122
70.1048 70.0494 1367.0 0.000732 71.20628 1442.04602
70.1216 70.0662 1179.0 0.000848 71.23698 1317.24866
70.1383 70.0829 956.0 0.001046 71.26746 1182.53320
70.1550 70.0996 951.0 0.001051 71.29797 1045.66785
70.1717 70.1163 795.0 0.001257 71.32848 913.42926
70.1884 70.1330 696.0 0.001437 71.35896 790.67200
70.2051 70.1497 628.0 0.001592 71.38946 680.25830
70.2219 70.1665 483.0 0.002070 71.42014 582.86511
70.2386 70.1832 481.0 0.002079 71.45064 499.93109
70.2553 70.1999 400.0 0.002500 71.48113 430.14130
70.2720 70.2166 398.0 0.002513 71.51163 372.33664
70.2887 70.2333 316.0 0.003163 71.54213 325.07916
70.3055 70.2501 307.0 0.003258 71.57281 286.62009
70.3222 70.2668 269.0 0.00372 71.60331 255.91176
70.3389 70.2835 255.0 0.00392 71.63380 231.30075
70.3556 70.3002 233.0 0.00429 71.66429 211.56116
70.3723 70.3169 218.0 0.00459 71.69478 195.65912
70.3891 70.3337 207.0 0.00483 71.72547 182.66010
70.4058 70.3504 199.0 0.00502 71.75597 172.05472
70.4225 70.3671 158.0 0.00633 71.78647 163.22501
70.4392 70.3838 157.0 0.00637 71.81697 155.76750
70.4559 70.4005 167.0 0.00599 71.84747 149.38458
70.4726 70.4172 133.0 0.00752 71.87795 143.85045
70.4894 70.4340 126.0 0.00794 71.90865 138.96544
70.5061 70.4507 134.0 0.00746 71.93914 134.66866
70.5228 70.4674 140.0 0.00715 71.96964 130.83336
70.5395 70.4841 140.0 0.00715 72.00014 127.38806
70.5562 70.5008 128.0 0.00782 72.03062 124.27717
70.5730 70.5176 129.0 0.00775 72.06132 121.43993
70.5897 70.5343 109.0 0.00917 72.09180 118.87479
70.6064 70.5510 130.0 0.00769 72.12230 116.53393
70.6231 70.5677 119.0 0.00840 72.15280 114.39220
70.6398 70.5844 120.0 0.00834 72.18329 112.42881
70.6566 70.6012 119.0 0.00840 72.21398 110.61303
70.6733 70.6179 119.0 0.00840 72.24448 108.95256
70.6900 70.6346 107.0 0.00935 72.27498 107.42123
70.7067 70.6513 109.0 0.00917 72.30547 106.00636
70.7234 70.6680 113.0 0.00885 72.33598 104.69785
70.7401 70.6847 101.0 0.00990 72.36646 103.48600
70.7569 70.7015 105.0 0.00952 72.39715 102.35452
70.7736 70.7182 113.0 0.00885 72.42765 101.31061
70.7903 70.7349 100.0 0.01000 72.45815 100.33991
70.8070 70.7516 97.0 0.01031 72.48863 99.43636
70.8237 70.7683 110.0 0.00909 72.51913 98.59443
70.8405 70.7851 101.0 0.00990 72.54981 97.80457
70.8572 70.8018 93.0 0.01075 72.58031 97.07196
70.8739 70.8185 85.0 0.01176 72.61081 96.38761
70.8906 70.8352 112.0 0.00893 72.64130 95.74786
70.9073 70.8519 95.0 0.01053 72.67179 95.14964
70.9241 70.8687 90.0 0.01111 72.70248 94.58608
70.9408 70.8854 94.0 0.01064 72.73299 94.06190
70.9575 70.9021 114.0 0.00877 72.76347 93.57085
70.9742 70.9188 93.0 0.01075 72.79398 93.11059
70.9909 70.9355 108.0 0.00926 72.82448 92.67930
71.0076 70.9522 111.0 0.00900 72.85497 92.27509
71.0244 70.9690 99.0 0.01010 72.88566 91.89363
71.0411 70.9857 103.0 0.00971 72.91615 91.53831
71.0578 71.0024 89.0 0.01124 72.94664 91.20518
71.0745 71.0191 91.0 0.01099 72.97714 90.89290
71.0912 71.0358 111.0 0.00900 73.00764 90.60020
71.1080 71.0526 94.0 0.01064 73.03831 90.32437
71.1247 71.0693 89.0 0.01124 73.06882 90.06770
71.1414 71.0860 87.0 0.01150 73.09931 89.82746
71.1581 71.1027 103.0 0.00971 73.12981 89.60278
71.1748 71.1194 83.0 0.01205 73.16029 89.39288
71.1916 71.1362 108.0 0.00926 73.19099 89.19565
71.2083 71.1529 84.0 0.01191 73.22147 89.01295
71.2250 71.1696 98.0 0.01021 73.25198 88.84283
71.2417 71.1863 96.0 0.01042 73.28249 88.68465
71.2584 71.2030 93.0 0.01075 73.31297 88.53786
71.2751 71.2197 106.0 0.00943 73.34347 88.40201
71.2919 71.2365 81.0 0.01235 73.37415 88.27570
71.3086 71.2532 102.0 0.00980 73.40465 88.16012
71.3253 71.2699 71.0 0.01409 73.43514 88.05401
71.3420 71.2866 96.0 0.01042 73.46564 87.95699
71.3587 71.3033 105.0 0.00952 73.49614 87.86865
71.3755 71.3201 101.0 0.00990 73.52682 87.78822
71.3922 71.3368 79.0 0.01266 73.55732 87.71633
71.4089 71.3535 96.0 0.01042 73.58782 87.65218
71.4256 71.3702 84.0 0.01191 73.61830 87.59546
71.4423 71.3869 109.0 0.00917 73.64880 87.54594
71.4590 71.4036 107.0 0.00935 73.67929 87.50336
71.4758 71.4204 80.0 0.01250 73.70998 87.46729
71.4925 71.4371 98.0 0.01021 73.74048 87.43796
71.5092 71.4538 121.0 0.00826 73.77098 87.41492
71.5259 71.4705 93.0 0.01075 73.80148 87.39803
71.5426 71.4872 95.0 0.01053 73.83196 87.38706
71.5594 71.5040 85.0 0.01176 73.86266 87.38188
71.5761 71.5207 80.0 0.01250 73.89315 87.38239
71.5928 71.5374 108.0 0.00926 73.92365 87.38841
71.6095 71.5541 118.0 0.00848 73.95415 87.39981
71.6262 71.5708 101.0 0.00990 73.98463 87.41644
71.6430 71.5876 98.0 0.01021 74.01533 87.43841
71.6597 71.6043 100.0 0.01000 74.04581 87.46528
71.6764 71.6210 87.0 0.01150 74.07631 87.49712
71.6931 71.6377 89.0 0.01124 74.10681 87.53387
71.7098 71.6544 109.0 0.00917 74.13730 87.57539
71.7265 71.6711 96.0 0.01042 74.16781 87.62169
71.7433 71.6879 105.0 0.00952 74.19849 87.67294
71.7600 71.7046 91.0 0.01099 74.22899 87.72856
71.7767 71.7213 99.0 0.01010 74.25948 87.78875
71.7934 71.7380 82.0 0.01220 74.28999 87.85346
71.8101 71.7547 97.0 0.01031 74.32047 87.92266
71.8269 71.7715 79.0 0.01266 74.35116 87.99683
71.8436 71.7882 89.0 0.01124 74.38166 88.07498
71.8603 71.8049 86.0 0.01163 74.41216 88.15757
71.8770 71.8216 94.0 0.01064 74.44264 88.24456
71.8937 71.8383 104.0 0.00961 74.47314 88.33599
71.9105 71.8551 105.0 0.00952 74.50382 88.43242
71.9272 71.8718 102.0 0.00980 74.53432 88.53268
71.9439 71.8885 96.0 0.01042 74.56482 88.63736
71.9606 71.9052 108.0 0.00926 74.59531 88.74649
71.9773 71.9219 101.0 0.00990 74.62582 88.86004
71.9940 71.9386 101.0 0.00990 74.65630 88.97806
72.0108 71.9554 89.0 0.01124 74.68700 89.10139
72.0275 71.9721 88.0 0.01136 74.71748 89.22851
72.0442 71.9888 95.0 0.01053 74.74799 89.36024
72.0609 72.0055 96.0 0.01042 74.77849 89.49654
72.0776 72.0222 103.0 0.00971 74.80898 89.63747
72.0944 72.0390 105.0 0.00952 74.83967 89.78412
72.1111 72.0557 96.0 0.01042 74.87016 89.93464
72.1278 72.0724 93.0 0.01075 74.90065 90.08996
72.1445 72.0891 82.0 0.01220 74.93115 90.25023
72.1612 72.1058 105.0 0.00952 74.96165 90.41546
72.1780 72.1226 104.0 0.00961 74.99232 90.58685
72.1947 72.1393 108.0 0.00926 75.02283 90.76232
72.2114 72.1560 117.0 0.00854 75.05332 90.94306
72.2281 72.1727 111.0 0.00900 75.08382 91.12915
72.2448 72.1894 99.0 0.01010 75.11430 91.32060
72.2615 72.2061 115.0 0.00870 75.14482 91.51779
72.2783 72.2229 100.0 0.01000 75.17548 91.72172
72.2950 72.2396 105.0 0.00952 75.20599 91.93029
72.3117 72.2563 95.0 0.01053 75.23650 92.14482
72.3284 72.2730 108.0 0.00926 75.26698 92.36534
72.3451 72.2897 106.0 0.00943 75.29748 92.59203
72.3619 72.3065 106.0 0.00943 75.32817 92.82661
72.3786 72.3232 104.0 0.00961 75.35866 93.06623
72.3953 72.3399 114.0 0.00877 75.38916 93.31252
72.4120 72.3566 107.0 0.00935 75.41965 93.56566
72.4287 72.3733 98.0 0.01021 75.45016 93.82584
72.4455 72.3901 113.0 0.00885 75.48083 94.09487
72.4622 72.4068 110.0 0.00909 75.51133 94.36974
72.4789 72.4235 105.0 0.00952 75.54183 94.65224
72.4956 72.4402 113.0 0.00885 75.57231 94.94258
72.5123 72.4569 112.0 0.00893 75.60281 95.24102
72.5290 72.4736 111.0 0.00900 75.63330 95.54773
72.5458 72.4904 101.0 0.00990 75.66399 95.86519
72.5625 72.5071 104.0 0.00961 75.69449 96.18948
72.5792 72.5238 116.0 0.00862 75.72499 96.52303
72.5959 72.5405 120.0 0.00834 75.75549 96.86595
72.6126 72.5572 119.0 0.00840 75.78597 97.21850
72.6294 72.5740 106.0 0.00943 75.81667 97.58362
72.6461 72.5907 107.0 0.00935 75.84716 97.95688
72.6628 72.6074 113.0 0.00885 75.87766 98.34090
72.6795 72.6241 123.0 0.00813 75.90816 98.73610
72.6962 72.6408 127.0 0.00787 75.93864 99.14286
72.7130 72.6576 156.0 0.00641 75.96934 99.56422
72.7297 72.6743 101.0 0.00990 75.99984 99.99546
72.7464 72.6910 119.0 0.00840 76.03032 100.43961
72.7631 72.7077 99.0 0.01010 76.06082 100.89708
72.7798 72.7244 129.0 0.00775 76.09131 101.36831
72.7965 72.7411 126.0 0.00794 76.12182 101.85438
72.8133 72.7579 102.0 0.00980 76.15250 102.35812
72.8300 72.7746 136.0 0.00736 76.18300 102.87453
72.8467 72.7913 128.0 0.00782 76.21349 103.40730
72.8634 72.8080 131.0 0.00763 76.24400 103.95678
72.8801 72.8247 127.0 0.00787 76.27448 104.52364
72.8969 72.8415 121.0 0.00826 76.30517 105.11278
72.9136 72.8582 117.0 0.00854 76.33567 105.71728
72.9303 72.8749 139.0 0.00719 76.36617 106.34165
72.9470 72.8916 120.0 0.00834 76.39665 106.98676
72.9637 72.9083 136.0 0.00736 76.42715 107.65354
72.9805 72.9251 137.0 0.00731 76.45783 108.34725
72.9972 72.9418 120.0 0.00834 76.48833 109.06044
73.0139 72.9585 155.0 0.00645 76.51883 109.79837
73.0306 72.9752 118.0 0.00848 76.54932 110.56218
73.0473 72.9919 130.0 0.00769 76.57983 111.35307
73.0640 73.0086 120.0 0.00834 76.61031 112.17210
73.0808 73.0254 115.0 0.00870 76.64101 113.02667
73.0975 73.0421 120.0 0.00834 76.67150 113.90709
73.1142 73.0588 116.0 0.00862 76.70200 114.82051
73.1309 73.0755 150.0 0.00666 76.73250 115.76810
73.1476 73.0922 133.0 0.00752 76.76299 116.75151
73.1644 73.1090 134.0 0.00746 76.79368 117.77993
73.1811 73.1257 122.0 0.00819 76.82417 118.84191
73.1978 73.1424 138.0 0.00724 76.85466 119.94599
73.2145 73.1591 133.0 0.00752 76.88516 121.09450
73.2312 73.1758 117.0 0.00854 76.91566 122.28981
73.2480 73.1926 138.0 0.00724 76.94633 123.54233
73.2647 73.2093 141.0 0.00710 76.97684 124.82465
73.2814 73.2260 125.0 0.00800 77.00733 126.17715
73.2981 73.2427 145.0 0.00690 77.03783 127.58797
73.3148 73.2594 125.0 0.00800 77.06832 129.06012
73.3315 73.2761 149.0 0.00671 77.09883 130.59906
73.3483 73.2929 157.0 0.00637 77.12949 132.21613
73.3650 73.3096 139.0 0.00719 77.16000 133.89772
73.3817 73.3263 141.0 0.00710 77.19051 135.65811
73.3984 73.3430 157.0 0.00637 77.22101 137.50127
73.4151 73.3597 160.0 0.00625 77.25149 139.43877
73.4319 73.3765 144.0 0.00694 77.28218 141.47835
73.4486 73.3932 135.0 0.00741 77.31267 143.60597
73.4653 73.4099 163.0 0.00613 77.34317 145.84122
73.4820 73.4266 167.0 0.00599 77.37366 148.19145
73.4987 73.4433 134.0 0.00746 77.40417 150.66476
73.5155 73.4601 130.0 0.00769 77.43484 153.28641
73.5322 73.4768 150.0 0.00666 77.46534 156.03398
73.5489 73.4935 149.0 0.00671 77.49584 158.93359
73.5656 73.5102 179.0 0.00559 77.52632 161.99664
73.5823 73.5269 146.0 0.00685 77.55682 165.23582
73.5990 73.5436 141.0 0.00710 77.58731 168.66386
73.6158 73.5604 190.0 0.00527 77.61800 172.32202
73.6325 73.5771 168.0 0.00595 77.64850 176.17943
73.6492 73.5938 170.0 0.00588 77.67900 180.27849
73.6659 73.6105 201.0 0.00497 77.70950 184.63733
73.6826 73.6272 158.0 0.00633 77.73998 189.27837
73.6994 73.6440 189.0 0.00529 77.77068 194.26244
73.7161 73.6607 194.0 0.00515 77.80118 199.55276
73.7328 73.6774 190.0 0.00527 77.83167 205.21150
73.7495 73.6941 228.0 0.00439 77.86217 211.27383
73.7662 73.7108 187.0 0.00535 77.89267 217.77910
73.7829 73.7275 231.0 0.00433 77.92316 224.77179
73.7997 73.7443 239.0 0.00418 77.95385 232.35027
73.8164 73.7610 259.0 0.00386 77.98433 240.47969
73.8331 73.7777 237.0 0.00422 78.01483 249.27069
73.8498 73.7944 241.0 0.00415 78.04532 258.79694
73.8665 73.8111 310.0 0.003225 78.07583 269.16058
73.8833 73.8279 256.0 0.00391 78.10651 280.52414
73.9000 73.8446 327.0 0.003059 78.13701 292.89413
73.9167 73.8613 303.0 0.003299 78.16750 306.50305
73.9334 73.8780 308.0 0.003247 78.19801 321.55362
73.9501 73.8947 343.0 0.002916 78.22849 338.31735
73.9669 73.9115 387.0 0.002585 78.25918 357.29147
73.9836 73.9282 390.0 0.002564 78.28968 378.70569
74.0003 73.9449 464.0 0.002155 78.32018 403.30072
74.0170 73.9616 482.0 0.002076 78.35066 431.89786
74.0337 73.9783 501.0 0.001997 78.38116 465.65640
74.0504 73.9950 595.0 0.001681 78.41166 505.73019
74.0672 74.0118 664.0 0.001506 78.44234 554.21234
74.0839 74.0285 713.0 0.001403 78.47284 612.54138
74.1006 74.0452 841.0 0.001189 78.50333 683.35272
74.1173 74.0619 914.0 0.001094 78.53384 769.32428
74.1340 74.0786 971.0 0.001030 78.56432 873.33942
74.1508 74.0954 1111.0 0.000900 78.59502 999.37885
74.1675 74.1121 1249.0 0.000801 78.62551 1148.82776
74.1842 74.1288 1441.0 0.000694 78.65601 1325.25000
74.2009 74.1455 1704.0 0.000587 78.68651 1530.83899
74.2176 74.1622 1846.0 0.000542 78.71700 1767.07495
74.2344 74.1790 2048.0 0.000488 78.74769 2036.22192
74.2511 74.1957 2378.0 0.000421 78.77818 2333.32080
74.2678 74.2124 2641.0 0.000379 78.80867 2656.09570
74.2845 74.2291 2873.0 0.0003481 78.83917 2997.52417
74.3012 74.2458 3203.0 0.0003122 78.86967 3347.22437
74.3179 74.2625 3635.0 0.0002751 78.90017 3692.38354
74.3347 74.2793 3892.0 0.0002569 78.93085 4022.27246
74.3514 74.2960 4314.0 0.0002318 78.96134 4323.87598
74.3681 74.3127 4586.0 0.0002181 78.99184 4596.51465
74.3848 74.3294 4951.0 0.0002020 79.02233 4842.54102
74.4015 74.3461 5202.0 0.0001923 79.05284 5066.01514
74.4183 74.3629 5314.0 0.0001882 79.08352 5267.65332
74.4350 74.3796 5639.0 0.0001774 79.11401 5437.71973
74.4517 74.3963 5622.0 0.0001779 79.14452 5561.75879
74.4684 74.4130 5927.0 0.0001687 79.17502 5618.45605
74.4851 74.4297 5750.0 0.0001739 79.20550 5587.09326
74.5019 74.4465 5613.0 0.0001782 79.23619 5453.57861
74.5186 74.4632 5174.0 0.0001933 79.26668 5220.11670
74.5353 74.4799 4787.0 0.0002089 79.29718 4900.57910
74.5520 74.4966 4486.0 0.0002229 79.32767 4518.76416
74.5687 74.5133 3909.0 0.0002558 79.35818 4101.42236
74.5854 74.5300 3517.0 0.0002844 79.38867 3672.95483
74.6022 74.5468 3107.0 0.0003219 79.41935 3250.16406
74.6189 74.5635 2827.0 0.000354 79.44985 2852.01587
74.6356 74.5802 2457.0 0.000407 79.48034 2484.71240
74.6523 74.5969 2181.0 0.000459 79.51083 2153.21973
74.6690 74.6136 1930.0 0.000518 79.54132 1859.67810
74.6858 74.6304 1722.0 0.000581 79.57201 1602.30579
74.7025 74.6471 1465.0 0.000682 79.60251 1382.83923
74.7192 74.6638 1315.0 0.000761 79.63303 1196.75256
74.7359 74.6805 1180.0 0.000848 79.66351 1040.77197
74.7526 74.6972 1019.0 0.000981 79.69399 911.15576
74.7694 74.7140 937.0 0.001067 79.72469 803.42651
74.7861 74.7307 857.0 0.001167 79.75519 715.35858
74.8028 74.7474 709.0 0.001410 79.78568 642.87347
74.8195 74.7641 684.0 0.001462 79.81618 583.04108
74.8362 74.7808 633.0 0.001580 79.84668 533.36182
74.8529 74.7975 552.0 0.001812 79.87717 491.20670
74.8697 74.8143 500.0 0.002000 79.90786 455.81705
74.8864 74.8310 452.0 0.002212 79.93834 425.73105
74.9031 74.8477 477.0 0.002096 79.96884 399.68222
74.9198 74.8644 401.0 0.002495 79.99933 376.88232
74.9365 74.8811 400.0 0.002500 80.02984 356.70001
74.9533 74.8979 381.0 0.002624 80.06052 338.60297
74.9700 74.9146 356.0 0.002808 80.09102 322.43301
74.9867 74.9313 303.0 0.003299 80.12151 307.80081
75.0034 74.9480 289.0 0.003460 80.15202 294.50009
75.0201 74.9647 288.0 0.003472 80.18250 282.35822
75.0369 74.9815 231.0 0.00433 80.21319 271.16006
75.0536 74.9982 251.0 0.00399 80.24369 260.93634
75.0703 75.0149 224.0 0.00446 80.27419 251.51534
75.0870 75.0316 223.0 0.00449 80.30469 242.81389
75.1037 75.0483 229.0 0.00437 80.33517 234.76028
75.1204 75.0650 194.0 0.00515 80.36567 227.29199
75.1372 75.0818 215.0 0.00465 80.39635 220.31288
75.1539 75.0985 194.0 0.00515 80.42685 213.85947
75.1706 75.1152 198.0 0.00505 80.45734 207.84436
75.1873 75.1319 177.0 0.00565 80.48785 202.22934
75.2040 75.1486 181.0 0.00553 80.51833 196.98154
75.2208 75.1654 165.0 0.00606 80.54903 192.03668
75.2375 75.1821 172.0 0.00582 80.57952 187.43187
75.2542 75.1988 162.0 0.00617 80.61002 183.10835
75.2709 75.2155 149.0 0.00671 80.64052 179.04639
75.2876 75.2322 152.0 0.00658 80.67101 175.22552
75.3044 75.2490 144.0 0.00694 80.70170 171.60277
75.3211 75.2657 143.0 0.00699 80.73219 168.20892
75.3378 75.2824 130.0 0.00769 80.76268 165.00502
75.3545 75.2991 157.0 0.00637 80.79318 161.97745
75.3712 75.3158 165.0 0.00606 80.82368 159.11360
75.3879 75.3325 137.0 0.00731 80.85418 156.40207
75.4047 75.3493 137.0 0.00731 80.88486 153.81714
75.4214 75.3660 128.0 0.00782 80.91535 151.38063
75.4381 75.3827 133.0 0.00752 80.94584 149.06827
75.4548 75.3994 122.0 0.00819 80.97635 146.86943
75.4715 75.4161 123.0 0.00813 81.00685 144.77989
75.4883 75.4329 130.0 0.00769 81.03753 142.78020
75.5050 75.4496 143.0 0.00699 81.06802 140.88727
75.5217 75.4663 148.0 0.00675 81.09853 139.08284
75.5384 75.4830 117.0 0.00854 81.12903 137.36264
75.5551 75.4997 149.0 0.00671 81.15951 135.72151
75.5719 75.5165 131.0 0.00763 81.19020 134.14415
75.5886 75.5332 109.0 0.00917 81.22069 132.64679
75.6053 75.5499 129.0 0.00775 81.25119 131.21526
75.6220 75.5666 115.0 0.00870 81.28168 129.84576
75.6387 75.5833 121.0 0.00826 81.31219 128.53491
75.6554 75.6000 138.0 0.00724 81.34268 127.27946
75.6722 75.6168 135.0 0.00741 81.37336 126.06924
75.6889 75.6335 143.0 0.00699 81.40386 124.91618
75.7056 75.6502 122.0 0.00819 81.43435 123.81047
75.7223 75.6669 121.0 0.00826 81.46486 122.74840
75.7390 75.6836 108.0 0.00926 81.49533 121.72983
75.7558 75.7004 115.0 0.00870 81.52602 120.74467
75.7725 75.7171 94.0 0.01064 81.55652 119.80408
75.7892 75.7338 117.0 0.00854 81.58704 118.89950
75.8059 75.7505 90.0 0.01111 81.61752 118.02969
75.8226 75.7672 105.0 0.00952 81.64802 117.19273
75.8393 75.7839 105.0 0.00952 81.67850 116.38728
75.8561 75.8007 102.0 0.00980 81.70920 115.60652
75.8728 75.8174 104.0 0.00961 81.73969 114.85928
75.8895 75.8341 101.0 0.00990 81.77020 114.13916
75.9062 75.8508 95.0 0.01053 81.80069 113.44495
75.9229 75.8675 113.0 0.00885 81.83118 112.77544
75.9397 75.8843 120.0 0.00834 81.86187 112.12572
75.9564 75.9010 117.0 0.00854 81.89236 111.50262
75.9731 75.9177 94.0 0.01064 81.92285 110.90134
75.9898 75.9344 102.0 0.00980 81.95336 110.32024
76.0065 75.9511 104.0 0.00961 81.98385 109.75931
76.0233 75.9679 87.0 0.01150 82.01453 109.21427
76.0400 75.9846 108.0 0.00926 82.04503 108.69067
76.0567 76.0013 94.0 0.01064 82.07552 108.18439
76.0734 76.0180 103.0 0.00971 82.10603 107.69499
76.0901 76.0347 109.0 0.00917 82.13652 107.22173
76.1068 76.0514 83.0 0.01205 82.16701 106.76401
76.1236 76.0682 121.0 0.00826 82.19770 106.31822
76.1403 76.0849 106.0 0.00943 82.22820 105.88960
76.1570 76.1016 103.0 0.00971 82.25870 105.47468
76.1737 76.1183 103.0 0.00971 82.28918 105.07298
76.1904 76.1350 111.0 0.00900 82.31968 104.68399
76.2072 76.1518 115.0 0.00870 82.35036 104.30495
76.2239 76.1685 124.0 0.00806 82.38086 103.94006
76.2406 76.1852 93.0 0.01075 82.41135 103.58664
76.2573 76.2019 112.0 0.00893 82.44186 103.24386
76.2740 76.2186 96.0 0.01042 82.47234 102.91205
76.2908 76.2354 107.0 0.00935 82.50304 102.58820
76.3075 76.2521 110.0 0.00909 82.53353 102.27628
76.3242 76.2688 90.0 0.01111 82.56403 101.97379
76.3409 76.2855 87.0 0.01150 82.59453 101.68056
76.3576 76.3022 93.0 0.01075 82.62503 101.39621
76.3743 76.3189 123.0 0.00813 82.65551 101.12052
76.3911 76.3357 91.0 0.01099 82.68620 100.85138
76.4078 76.3524 89.0 0.01124 82.71671 100.59200
76.4245 76.3691 109.0 0.00917 82.74719 100.34036
76.4412 76.3858 134.0 0.00746 82.77769 100.09629
76.4579 76.4025 109.0 0.00917 82.80819 99.85951
76.4747 76.4193 86.0 0.01163 82.83887 99.62843
76.4914 76.4360 93.0 0.01075 82.86936 99.40565
76.5081 76.4527 104.0 0.00961 82.89985 99.18956
76.5248 76.4694 94.0 0.01064 82.93036 98.97977
76.5415 76.4861 103.0 0.00971 82.96086 98.77637
76.5583 76.5029 102.0 0.00980 82.99154 98.57795
76.5750 76.5196 115.0 0.00870 83.02203 98.38661
76.5917 76.5363 85.0 0.01176 83.05254 98.20100
76.6084 76.5530 99.0 0.01010 83.08304 98.02104
76.6251 76.5697 124.0 0.00806 83.11352 97.84656
76.6418 76.5864 116.0 0.00862 83.14402 97.67745
76.6586 76.6032 103.0 0.00971 83.17470 97.51243
76.6753 76.6199 88.0 0.01136 83.20520 97.35355
76.6920 76.6366 102.0 0.00980 83.23569 97.19962
76.7087 76.6533 98.0 0.01021 83.26620 97.05052
76.7254 76.6700 110.0 0.00909 83.29669 96.90614
76.7422 76.6868 112.0 0.00893 83.32737 96.76553
76.7589 76.7035 108.0 0.00926 83.35787 96.63032
76.7756 76.7202 102.0 0.00980 83.38836 96.49957
76.7923 76.7369 108.0 0.00926 83.41887 96.37304
76.8090 76.7536 119.0 0.00840 83.44934 96.25095
76.8258 76.7704 105.0 0.00952 83.48003 96.13220
76.8425 76.7871 103.0 0.00971 83.51053 96.01838
76.8592 76.8038 108.0 0.00926 83.54105 95.90859
76.8759 76.8205 106.0 0.00943 83.57153 95.80283
76.8926 76.8372 87.0 0.01150 83.60203 95.70104
76.9093 76.8539 98.0 0.01021 83.63251 95.60318
76.9261 76.8707 96.0 0.01042 83.66321 95.50859
76.9428 76.8874 94.0 0.01064 83.69370 95.41847
76.9595 76.9041 92.0 0.01087 83.72421 95.33219
76.9762 76.9208 80.0 0.01250 83.75470 95.24972
76.9929 76.9375 91.0 0.01099 83.78519 95.17105
77.0097 76.9543 99.0 0.01010 83.81588 95.09577
77.0264 76.9710 112.0 0.00893 83.84637 95.02477
77.0431 76.9877 84.0 0.01191 83.87686 94.95766
77.0598 77.0044 103.0 0.00971 83.90737 94.89438
77.0765 77.0211 93.0 0.01075 83.93787 94.83504
77.0933 77.0379 86.0 0.01163 83.96854 94.77942
77.1100 77.0546 94.0 0.01064 83.99904 94.72820
77.1267 77.0713 91.0 0.01099 84.02953 94.68114
77.1434 77.0880 88.0 0.01136 84.06004 94.63839
77.1601 77.1047 104.0 0.00961 84.09053 94.60009
77.1768 77.1214 93.0 0.01075 84.12102 94.56639
77.1936 77.1382 106.0 0.00943 84.15171 94.53736
77.2103 77.1549 82.0 0.01220 84.18221 94.51365
77.2270 77.1716 98.0 0.01021 84.21271 94.49538
77.2437 77.1883 112.0 0.00893 84.24319 94.48297
77.2604 77.2050 88.0 0.01136 84.27369 94.47703
77.2772 77.2218 102.0 0.00980 84.30437 94.47834
77.2939 77.2385 95.0 0.01053 84.33487 94.48791
77.3106 77.2552 78.0 0.01282 84.36536 94.50708
77.3273 77.2719 110.0 0.00909 84.39587 94.53775
77.3440 77.2886 90.0 0.01111 84.42635 94.58234
77.3608 77.3054 91.0 0.01099 84.45705 94.64468
77.3775 77.3221 90.0 0.01111 84.48754 94.72824
77.3942 77.3388 87.0 0.01150 84.51804 94.83887
77.4109 77.3555 94.0 0.01064 84.54854 94.98318
77.4276 77.3722 91.0 0.01099 84.57904 95.16927
77.4443 77.3889 108.0 0.00926 84.60952 95.40627
77.4611 77.4057 81.0 0.01235 84.64022 95.70670
77.4778 77.4224 83.0 0.01205 84.67072 96.07735
77.4945 77.4391 111.0 0.00900 84.70120 96.53034
77.5112 77.4558 87.0 0.01150 84.73170 97.07494
77.5279 77.4725 107.0 0.00935 84.76220 97.71803
77.5447 77.4893 103.0 0.00971 84.79288 98.46789
77.5614 77.5060 85.0 0.01176 84.82337 99.31361
77.5781 77.5227 84.0 0.01191 84.85386 100.25089
77.5948 77.5394 122.0 0.00819 84.88437 101.26413
77.6115 77.5561 118.0 0.00848 84.91487 102.32433
77.6283 77.5729 116.0 0.00862 84.94555 103.39737
77.6450 77.5896 101.0 0.00990 84.97604 104.41405
77.6617 77.6063 102.0 0.00980 85.00655 105.30940
77.6784 77.6230 97.0 0.01031 85.03705 106.00259
77.6951 77.6397 114.0 0.00877 85.06753 106.41953
77.7118 77.6564 78.0 0.01282 85.09803 106.51185
77.7286 77.6732 100.0 0.01000 85.12872 106.27103
77.7453 77.6899 95.0 0.01053 85.15921 105.73899
77.7620 77.7066 89.0 0.01124 85.18970 104.98526
77.7787 77.7233 118.0 0.00848 85.22021 104.09073
77.7954 77.7400 96.0 0.01042 85.25070 103.13059
77.8122 77.7568 95.0 0.01053 85.28138 102.16016
77.8289 77.7735 109.0 0.00917 85.31188 101.23679
77.8456 77.7902 93.0 0.01075 85.34237 100.38611
77.8623 77.8069 92.0 0.01087 85.37288 99.62704
77.8790 77.8236 85.0 0.01176 85.40337 98.97208
77.8957 77.8403 100.0 0.01000 85.43388 98.42353
77.9125 77.8571 77.0 0.01299 85.46454 97.97869
77.9292 77.8738 91.0 0.01099 85.49506 97.63695
77.9459 77.8905 103.0 0.00971 85.52554 97.38758
77.9626 77.9072 99.0 0.01010 85.55604 97.22115
77.9793 77.9239 110.0 0.00909 85.58652 97.12791
77.9961 77.9407 109.0 0.00917 85.61722 97.09844
78.0128 77.9574 101.0 0.00990 85.64771 97.12470
78.0295 77.9741 103.0 0.00971 85.67822 97.19917
78.0462 77.9908 94.0 0.01064 85.70871 97.31615
78.0629 78.0075 103.0 0.00971 85.73920 97.47137
78.0797 78.0243 92.0 0.01087 85.76989 97.66331
78.0964 78.0410 126.0 0.00794 85.80038 97.88792
78.1131 78.0577 110.0 0.00909 85.83087 98.14571
78.1298 78.0744 89.0 0.01124 85.86138 98.43746
78.1465 78.0911 108.0 0.00926 85.89188 98.76414
78.1632 78.1078 114.0 0.00877 85.92237 99.12805
78.1800 78.1246 111.0 0.00900 85.95305 99.53485
78.1967 78.1413 97.0 0.01031 85.98354 99.98402
78.2134 78.1580 98.0 0.01021 86.01405 100.48291
78.2301 78.1747 98.0 0.01021 86.04454 101.03853
78.2468 78.1914 99.0 0.01010 86.07503 102.64813
78.2636 78.2082 101.0 0.00990 86.10572 103.35890
78.2803 78.2249 115.0 0.00870 86.13622 104.15881
78.2970 78.2416 111.0 0.00900 86.16672 105.07283
78.3137 78.2583 96.0 0.01042 86.19720 106.12824
78.3304 78.2750 107.0 0.00935 86.22770 107.36057
78.3472 78.2918 123.0 0.00813 86.25838 108.82510
78.3639 78.3085 97.0 0.01031 86.28888 110.56190
78.3806 78.3252 105.0 0.00952 86.31937 112.64956
78.3973 78.3419 118.0 0.00848 86.34989 115.17645
78.4140 78.3586 119.0 0.00840 86.38036 118.23720
78.4307 78.3753 123.0 0.00813 86.41087 121.95248
78.4475 78.3921 132.0 0.00757 86.44155 126.46940
78.4642 78.4088 135.0 0.00741 86.47205 131.87057
78.4809 78.4255 136.0 0.00736 86.47769 138.28336
78.4976 78.4422 149.0 0.00671 86.46666 145.84171
78.5143 78.4589 163.0 0.00613 86.45563 154.66682
78.5311 78.4757 185.0 0.00541 86.44453 164.91171
78.5478 78.4924 192.0 0.00521 86.43349 176.47510
78.5645 78.5091 186.0 0.00537 86.42245 189.38284
78.5812 78.5258 202.0 0.00495 86.41142 203.50671
78.5979 78.5425 217.0 0.00461 86.40038 218.60033
78.6147 78.5593 250.0 0.00400 86.38928 234.38496
78.6314 78.5760 240.0 0.00417 86.37825 250.18529
78.6481 78.5927 292.0 0.003424 86.36722 265.58487
78.6648 78.6094 298.0 0.003357 86.35618 280.17883
78.6815 78.6261 323.0 0.003097 86.34515 293.68793
78.6982 78.6428 315.0 0.003174 86.33411 306.00821
78.7150 78.6596 320.0 0.003124 86.32301 317.10321
78.7317 78.6763 335.0 0.002986 86.31197 326.59613
78.7484 78.6930 366.0 0.002733 86.30093 334.03537
78.7651 78.7097 361.0 0.002770 86.28990 338.65585
78.7818 78.7264 327.0 0.003059 86.27887 339.59683
78.7986 78.7432 328.0 0.003049 86.26777 336.14368
78.8153 78.7599 311.0 0.003214 86.25674 328.12210
78.8320 78.7766 296.0 0.003380 86.24570 315.90045
78.8487 78.7933 288.0 0.003472 86.23466 300.35440
78.8654 78.8100 262.0 0.00382 86.22363 282.61319
78.8822 78.8268 256.0 0.00391 86.21253 263.68546
78.8989 78.8435 257.0 0.00389 86.20149 244.75981
78.9156 78.8602 200.0 0.00500 86.19046 226.44733
78.9323 78.8769 235.0 0.00426 86.17942 209.22395
78.9490 78.8936 190.0 0.00527 86.16840 193.43642
78.9657 78.9103 188.0 0.00532 86.15735 179.21758
78.9825 78.9271 161.0 0.00621 86.14626 166.58691
78.9992 78.9438 151.0 0.00662 86.13522 155.66011
79.0159 78.9605 150.0 0.00666 86.12418 146.28641
79.0326 78.9772 125.0 0.00800 86.11315 138.34187
79.0493 78.9939 136.0 0.00736 86.10212 131.68158
79.0661 79.0107 137.0 0.00731 86.09101 126.10972
79.0828 79.0274 109.0 0.00917 86.07998 121.53735
79.0995 79.0441 106.0 0.00943 86.06895 117.77085
79.1162 79.0608 133.0 0.00752 86.05791 114.66870
79.1329 79.0775 117.0 0.00854 86.04688 112.10594
79.1497 79.0943 114.0 0.00877 86.03577 109.96402
79.1664 79.1110 97.0 0.01031 86.02473 108.18016
79.1831 79.1277 95.0 0.01053 86.01371 106.66897
79.1998 79.1444 93.0 0.01075 86.00266 105.37218
79.2165 79.1611 115.0 0.00870 85.99163 104.24765
79.2332 79.1778 88.0 0.01136 85.98060 103.26064
79.2500 79.1946 89.0 0.01124 85.96950 101.42748
79.2667 79.2113 93.0 0.01075 85.95847 98.74599
79.2834 79.2280 85.0 0.01176 85.94743 98.05959
79.3001 79.2447 92.0 0.01087 85.93639 97.43824
79.3168 79.2614 96.0 0.01042 85.92536 96.87308
79.3336 79.2782 85.0 0.01176 85.91426 96.35340
79.3503 79.2949 91.0 0.01099 85.90322 95.88016
79.3670 79.3116 90.0 0.01111 85.89219 95.44507
79.3837 79.3283 97.0 0.01031 85.88116 95.04411
79.4004 79.3450 93.0 0.01075 85.87012 94.67379
79.4172 79.3618 101.0 0.00990 85.85902 94.32910
79.4339 79.3785 101.0 0.00990 85.84798 94.01163
79.4506 79.3952 87.0 0.01150 85.83695 93.71699
79.4673 79.4119 84.0 0.01191 85.82591 93.44279
79.4840 79.4286 88.0 0.01136 85.81488 93.18784
79.5007 79.4453 93.0 0.01075 85.80384 92.94989
79.5175 79.4621 114.0 0.00877 85.79274 92.72668
79.5342 79.4788 83.0 0.01205 85.78171 92.51934
79.5509 79.4955 101.0 0.00990 85.77067 92.32545
79.5676 79.5122 102.0 0.00980 85.75964 92.14393
79.5843 79.5289 94.0 0.01064 85.74860 91.97387
79.6011 79.5457 85.0 0.01176 85.73750 91.81335
79.6178 79.5624 101.0 0.00990 85.72646 91.66367
79.6345 79.5791 90.0 0.01111 85.71543 91.52309
79.6512 79.5958 71.0 0.01409 85.70440 91.39099
79.6679 79.6125 74.0 0.01351 85.69337 91.26675
79.6847 79.6293 83.0 0.01205 85.68227 91.14919
79.7014 79.6460 91.0 0.01099 85.67123 91.03923
79.7181 79.6627 113.0 0.00885 85.66019 90.93572
79.7348 79.6794 99.0 0.01010 85.64915 90.83817
79.7515 79.6961 86.0 0.01163 85.63812 90.74634
79.7682 79.7128 96.0 0.01042 85.62708 90.65982
79.7850 79.7296 93.0 0.01075 85.61598 90.57786
79.8017 79.7463 102.0 0.00980 85.60495 90.50109
79.8184 79.7630 80.0 0.01250 85.59392 90.42882
79.8351 79.7797 85.0 0.01176 85.58288 90.36073
79.8518 79.7964 81.0 0.01235 85.57185 90.29668
79.8686 79.8132 77.0 0.01299 85.56075 90.23602
79.8853 79.8299 98.0 0.01021 85.54971 90.17937
79.9020 79.8466 102.0 0.00980 85.53868 90.12614
79.9187 79.8633 89.0 0.01124 85.52764 90.07615
79.9354 79.8800 73.0 0.01370 85.51661 90.02928
79.9521 79.8967 81.0 0.01235 85.50557 89.98536
79.9689 79.9135 96.0 0.01042 85.49447 89.94407
79.9856 79.9302 87.0 0.01150 85.48344 89.90575
80.0023 79.9469 73.0 0.01370 85.47240 89.87001
80.0190 79.9636 91.0 0.01099 85.46137 89.83681
80.0357 79.9803 94.0 0.01064 85.45033 89.80599
80.0525 79.9971 85.0 0.01176 85.43923 89.77736
80.0692 80.0138 81.0 0.01235 85.42819 89.75113
80.0859 80.0305 91.0 0.01099 85.41716 89.72707
80.1026 80.0472 85.0 0.01176 85.40613 89.70511
80.1193 80.0639 102.0 0.00980 85.39510 89.68519
80.1361 80.0807 88.0 0.01136 85.38399 89.66710
80.1528 80.0974 106.0 0.00943 85.37296 89.65108
80.1695 80.1141 106.0 0.00943 85.36192 89.63692
80.1862 80.1308 83.0 0.01205 85.35088 89.62457
80.2029 80.1475 85.0 0.01176 85.33985 89.61398
80.2196 80.1642 86.0 0.01163 85.32881 89.60516
80.2364 80.1810 82.0 0.01220 85.31771 89.59798
80.2531 80.1977 79.0 0.01266 85.30669 89.59253
80.2698 80.2144 80.0 0.01250 85.29564 89.58871
80.2865 80.2311 71.0 0.01409 85.28461 89.58651
80.3032 80.2478 92.0 0.01087 85.27357 89.58590
80.3200 80.2646 100.0 0.01000 85.26247 89.58686
80.3367 80.2813 86.0 0.01163 85.25144 89.58937
80.3534 80.2980 98.0 0.01021 85.24040 89.59341
80.3701 80.3147 95.0 0.01053 85.22937 89.59898
80.3868 80.3314 97.0 0.01031 85.21834 89.60604
80.4036 80.3482 103.0 0.00971 85.20724 89.61468
80.4203 80.3649 86.0 0.01163 85.19620 89.62474
80.4370 80.3816 68.0 0.01471 85.18517 89.63895
80.4537 80.3983 81.0 0.01235 85.17413 89.65200
80.4704 80.4150 92.0 0.01087 85.16310 89.66653
80.4871 80.4317 98.0 0.01021 85.15205 89.68255
80.5039 80.4485 95.0 0.01053 85.14096 89.70016
80.5206 80.4652 80.0 0.01250 85.12993 89.71915
80.5373 80.4819 87.0 0.01150 85.11889 89.73965
80.5540 80.4986 78.0 0.01282 85.10786 89.76164
80.5707 80.5153 80.0 0.01250 85.09682 89.78516
80.5875 80.5321 89.0 0.01124 85.08572 89.81035
80.6042 80.5488 91.0 0.01099 85.07468 89.83693
80.6209 80.5655 86.0 0.01163 85.06365 89.86507
80.6376 80.5822 88.0 0.01136 85.05261 89.89478
80.6543 80.5989 85.0 0.01176 85.04158 89.92606
80.6711 80.6157 80.0 0.01250 85.03048 89.95917
80.6878 80.6324 84.0 0.01191 85.01944 89.99371
80.7045 80.6491 103.0 0.00971 85.00842 90.02991
80.7212 80.6658 84.0 0.01191 84.99738 90.06778
80.7379 80.6825 70.0 0.01428 84.98634 90.10737
80.7546 80.6992 96.0 0.01042 84.97530 90.14871
80.7714 80.7160 89.0 0.01124 84.96420 90.19207
80.7881 80.7327 109.0 0.00917 84.95317 90.23698
80.8048 80.7494 76.0 0.01316 84.94213 90.28375
80.8215 80.7661 86.0 0.01163 84.93110 90.33239
80.8382 80.7828 81.0 0.01235 84.92007 90.38294
80.8550 80.7996 92.0 0.01087 84.90897 90.43578
80.8717 80.8163 81.0 0.01235 84.89793 90.49032
80.8884 80.8330 99.0 0.01010 84.88689 90.54691
80.9051 80.8497 94.0 0.01064 84.87585 90.60559
80.9218 80.8664 93.0 0.01075 84.86482 90.66644
80.9386 80.8832 92.0 0.01087 84.85372 90.81248
80.9553 80.8999 94.0 0.01064 84.84269 90.87827
80.9720 80.9166 89.0 0.01124 84.83166 90.94640
80.9887 80.9333 78.0 0.01282 84.82062 91.01691
81.0054 80.9500 82.0 0.01220 84.80959 91.08989
81.0221 80.9667 97.0 0.01031 84.79855 91.16545
81.0389 80.9835 100.0 0.01000 84.78745 91.24404
81.0556 81.0002 80.0 0.01250 84.77642 91.32484
81.0723 81.0169 80.0 0.01250 84.76537 91.40850
81.0890 81.0336 69.0 0.01449 84.75435 91.49492
81.1057 81.0503 86.0 0.01163 84.74331 91.58437
81.1225 81.0671 98.0 0.01021 84.73221 91.67738
81.1392 81.0838 88.0 0.01136 84.72117 91.77299
81.1559 81.1005 85.0 0.01176 84.71014 91.87183
81.1726 81.1172 93.0 0.01075 84.69910 91.97403
81.1893 81.1339 80.0 0.01250 84.68807 92.07964
81.2061 81.1507 99.0 0.01010 84.67697 92.18958
81.2228 81.1674 96.0 0.01042 84.66593 92.30254
81.2395 81.1841 94.0 0.01064 84.65490 92.41933
81.2562 81.2008 95.0 0.01053 84.64386 92.54011
81.2729 81.2175 99.0 0.01010 84.63283 92.66499
81.2896 81.2342 84.0 0.01191 84.62179 92.79418
81.3064 81.2510 89.0 0.01124 84.61069 92.92857
81.3231 81.2677 98.0 0.01021 84.59966 93.06674
81.3398 81.2844 103.0 0.00971 84.58862 93.20983
81.3565 81.3011 95.0 0.01053 84.57758 93.35855
81.3732 81.3178 112.0 0.00893 84.56655 93.51167
81.3900 81.3346 86.0 0.01163 84.55545 93.67110
81.4067 81.3513 100.0 0.01000 84.54441 93.83523
81.4234 81.3680 94.0 0.01064 84.53339 94.00513
81.4401 81.3847 112.0 0.00893 84.52235 94.18108
81.4568 81.4014 112.0 0.00893 84.51131 94.36328
81.4736 81.4182 86.0 0.01163 84.50021 94.55335
81.4903 81.4349 109.0 0.00917 84.48917 94.74904
81.5070 81.4516 81.0 0.01235 84.47814 94.95191
81.5237 81.4683 101.0 0.00990 84.46710 95.16224
81.5404 81.4850 89.0 0.01124 84.45608 95.38039
81.5571 81.5017 93.0 0.01075 84.44504 95.60673
81.5739 81.5185 91.0 0.01099 84.43394 95.84294
81.5906 81.5352 102.0 0.00980 84.42290 96.08666
81.6073 81.5519 105.0 0.00952 84.41187 96.33993
81.6240 81.5686 89.0 0.01124 84.40084 96.60270
81.6407 81.5853 93.0 0.01075 84.38979 96.87603
81.6575 81.6021 86.0 0.01163 84.37869 97.16164
81.6742 81.6188 96.0 0.01042 84.36766 97.45702
81.6909 81.6355 107.0 0.00935 84.35663 97.76416
81.7076 81.6522 104.0 0.00961 84.34559 98.08377
81.7243 81.6689 86.0 0.01163 84.33456 98.41639
81.7411 81.6857 112.0 0.00893 84.32346 98.76515
81.7578 81.7024 85.0 0.01176 84.31242 99.12624
81.7745 81.7191 105.0 0.00952 84.30138 99.50263
81.7912 81.7358 85.0 0.01176 84.29035 99.89513
81.8079 81.7525 97.0 0.01031 84.27932 100.30464
81.8246 81.7692 112.0 0.00893 84.26828 100.73224
81.8414 81.7860 94.0 0.01064 84.25718 101.18136
81.8581 81.8027 107.0 0.00935 84.24615 101.73129
81.8748 81.8194 92.0 0.01087 84.23511 102.21996
81.8915 81.8361 101.0 0.00990 84.22408 102.73090
81.9082 81.8528 104.0 0.00961 84.21304 103.26566
81.9250 81.8696 95.0 0.01053 84.20194 103.82909
81.9417 81.8863 90.0 0.01111 84.19091 104.48914
81.9584 81.9030 88.0 0.01136 84.17987 105.10527
81.9751 81.9197 106.0 0.00943 84.16884 105.75182
81.9918 81.9364 100.0 0.01000 84.15780 106.42480
82.0085 81.9531 104.0 0.00961 84.14676 107.13827
82.0253 81.9699 115.0 0.00870 84.13567 107.89303
82.0420 81.9866 97.0 0.01031 84.12463 108.68284
82.0587 82.0033 121.0 0.00826 84.11359 109.51470
82.0754 82.0200 127.0 0.00787 84.10256 110.39156
82.0921 82.0367 128.0 0.00782 84.09154 111.31609
82.1089 82.0535 110.0 0.00909 84.08042 112.29993
82.1256 82.0702 98.0 0.01021 84.06939 113.33271
82.1423 82.0869 138.0 0.00724 84.05836 114.42528
82.1590 82.1036 114.0 0.00877 84.04732 115.58227
82.1757 82.1203 122.0 0.00819 84.03629 116.80871
82.1925 82.1371 114.0 0.00877 84.02518 118.11797
82.2092 82.1538 125.0 0.00800 84.01415 119.50101
82.2259 82.1705 114.0 0.00877 84.00312 120.97191
82.2426 82.1871 101.0 0.00990 83.99208 122.53812
82.2593 82.2039 121.0 0.00826 83.98104 124.20892
82.2760 82.2206 143.0 0.00699 83.97001 125.99146
82.2928 82.2374 121.0 0.00826 83.95891 127.90839
82.3095 82.2541 99.0 0.01010 83.94788 129.94878
82.3262 82.2708 137.0 0.00731 83.93684 132.13602
82.3429 82.2875 125.0 0.00800 83.92580 134.48433
82.3596 82.3042 132.0 0.00757 83.91478 137.00801
82.3764 82.3210 144.0 0.00694 83.90367 139.74785
82.3931 82.3377 138.0 0.00724 83.89263 142.68468
82.4098 82.3544 118.0 0.00848 83.88160 145.86011
82.4265 82.3711 131.0 0.00763 83.87056 149.30106
82.4432 82.3878 152.0 0.00658 83.85953 153.03876
82.4600 82.4046 146.0 0.00685 83.84843 157.13503
82.4767 82.4213 143.0 0.00699 83.83739 161.58716
82.4934 82.4380 155.0 0.00645 83.82636 166.47276
82.5101 82.4547 183.0 0.00546 83.81532 171.86081
82.5268 82.4714 169.0 0.00592 83.80428 177.84343
82.5435 82.4881 175.0 0.00571 83.79325 184.52899
82.5603 82.5049 186.0 0.00537 83.78215 192.12036
82.5770 82.5216 204.0 0.00490 83.77112 200.73326
82.5937 82.5383 193.0 0.00518 83.76008 210.67970
82.6104 82.5550 247.0 0.00405 83.74905 222.31810
82.6271 82.5717 227.0 0.00440 83.73802 236.10909
82.6439 82.5885 219.0 0.00457 83.72691 252.80185
82.6606 82.6052 262.0 0.00382 83.71587 272.92725
82.6773 82.6219 303.0 0.003299 83.70484 297.53839
82.6940 82.6386 328.0 0.003049 83.69381 327.77261
82.7107 82.6553 376.0 0.002660 83.68278 364.95349
82.7275 82.6721 375.0 0.002668 83.67168 410.85974
82.7442 82.6888 508.0 0.001968 83.66064 466.55927
82.7609 82.7055 509.0 0.001965 83.64960 533.91528
82.7776 82.7222 570.0 0.001755 83.63857 614.46753
82.7943 82.7389 695.0 0.001439 83.62753 709.59412
82.8110 82.7556 797.0 0.001255 83.61649 820.11798
82.8278 82.7724 951.0 0.001051 83.60539 947.24353
82.8445 82.7891 1024.0 0.000977 83.59436 1089.09448
82.8612 82.8058 1145.0 0.000873 83.58333 1244.98486
82.8779 82.8225 1335.0 0.000749 83.57230 1412.30530
82.8946 82.8392 1554.0 0.000644 83.56126 1586.81250
82.9114 82.8560 1779.0 0.000562 83.55016 1763.92310
82.9281 82.8727 2022.0 0.000494 83.53912 1932.83435
82.9448 82.8894 2172.0 0.000460 83.52809 2084.40381
82.9615 82.9061 2299.0 0.000435 83.51705 2206.71265
82.9782 82.9228 2276.0 0.000439 83.50602 2287.97363
82.9950 82.9396 2398.0 0.000417 83.49492 2319.13940
83.0117 82.9563 2141.0 0.000467 83.48389 2296.08569
83.0284 82.9730 2173.0 0.000460 83.47285 2221.94702
83.0451 82.9897 1917.0 0.000522 83.46181 2105.13501
83.0618 83.0064 1803.0 0.000555 83.45078 1957.11279
83.0785 83.0231 1594.0 0.000628 83.43974 1790.09338
83.0953 83.0399 1433.0 0.000698 83.42864 1613.64197
83.1120 83.0566 1274.0 0.000785 83.41761 1438.38159
83.1287 83.0733 1137.0 0.000879 83.40657 1269.62646
83.1454 83.0900 1069.0 0.000935 83.39554 1111.77856
83.1621 83.1067 895.0 0.001117 83.38451 967.73962
83.1789 83.1235 779.0 0.001284 83.37340 838.04065
83.1956 83.1402 708.0 0.001412 83.36237 725.11145
83.2123 83.1569 637.0 0.001570 83.35133 627.72723
83.2290 83.1736 587.0 0.001703 83.34029 545.02869
83.2457 83.1903 518.0 0.001930 83.32926 475.74469
83.2625 83.2071 495.0 0.002020 83.31816 418.05600
83.2792 83.2238 435.0 0.002298 83.30713 371.00754
83.2959 83.2405 380.0 0.002633 83.29610 332.62668
83.3126 83.2572 380.0 0.002633 83.28506 301.40875
83.3293 83.2739 307.0 0.003258 83.27402 275.99011
83.3460 83.2906 306.0 0.003269 83.26299 255.23354
83.3628 83.3074 276.0 0.00362 83.25188 238.05611
83.3795 83.3241 288.0 0.003472 83.24085 223.86104
83.3962 83.3408 252.0 0.00397 83.22981 211.91010
83.4129 83.3575 224.0 0.00446 83.21878 201.71465
83.4296 83.3742 203.0 0.00492 83.20776 192.90593
83.4464 83.3910 199.0 0.00502 83.19665 185.14037
83.4631 83.4077 186.0 0.00537 83.18561 178.31831
83.4798 83.4244 169.0 0.00592 83.17458 172.22307
83.4965 83.4411 190.0 0.00527 83.16354 166.73424
83.5132 83.4578 153.0 0.00654 83.15250 161.75995
83.5300 83.4746 149.0 0.00671 83.14141 157.20332
83.5467 83.4913 141.0 0.00710 83.13037 153.06035
83.5634 83.5079 188.0 0.00532 83.11934 149.13095
83.5801 83.5247 151.0 0.00662 83.10830 145.63084
83.5968 83.5414 166.0 0.00603 83.09726 142.39893
83.6135 83.5581 144.0 0.00694 83.08623 139.41141
83.6303 83.5749 139.0 0.00719 83.07513 136.62703
83.6470 83.5916 140.0 0.00715 83.06409 134.05733
83.6637 83.6083 137.0 0.00731 83.05306 131.66714
83.6804 83.6250 137.0 0.00731 83.04203 129.44038
83.6971 83.6417 134.0 0.00746 83.03100 127.36371
83.7139 83.6585 111.0 0.00900 83.01989 125.40871
83.7306 83.6752 120.0 0.00834 83.00885 123.59234
83.7473 83.6919 126.0 0.00794 82.99782 121.89017
83.7640 83.7086 134.0 0.00746 82.98678 120.29292
83.7807 83.7253 90.0 0.01111 82.97575 118.79222
83.7975 83.7421 100.0 0.01000 82.96465 117.37255
83.8142 83.7588 116.0 0.00862 82.95361 116.04348
83.8309 83.7755 123.0 0.00813 82.94258 114.79036
83.8476 83.7922 116.0 0.00862 82.93155 113.60754
83.8643 83.8089 119.0 0.00840 82.92051 112.48927
83.8810 83.8256 119.0 0.00840 82.90948 111.43221
83.8978 83.8424 104.0 0.00961 82.89838 110.42570
83.9145 83.8591 106.0 0.00943 82.88734 109.47755
83.9312 83.8758 112.0 0.00893 82.87630 108.57824
83.9479 83.8925 104.0 0.00961 82.86527 107.72443
83.9646 83.9092 101.0 0.00990 82.85424 106.91364
83.9814 83.9260 105.0 0.00952 82.84313 106.13686
83.9981 83.9427 99.0 0.01010 82.83209 105.40286
84.0148 83.9594 106.0 0.00943 82.82107 104.70376
84.0315 83.9761 105.0 0.00952 82.81003 104.03741
84.0482 83.9928 97.0 0.01031 82.79900 103.40180
84.0649 84.0095 105.0 0.00952 82.78796 102.79511
84.0817 84.0263 103.0 0.00971 82.77686 102.21231
84.0984 84.0430 116.0 0.00862 82.76583 101.65859
84.1151 84.0597 71.0 0.01409 82.75479 101.12903
84.1318 84.0764 102.0 0.00980 82.74375 100.62194
84.1485 84.0931 99.0 0.01010 82.73272 100.13668
84.1653 84.1099 108.0 0.00926 82.72162 99.66910
84.1820 84.1266 90.0 0.01111 82.71059 99.22352
84.1987 84.1433 95.0 0.01053 82.69955 98.79614
84.2154 84.1600 102.0 0.00980 82.68851 98.38602
84.2321 84.1767 91.0 0.01099 82.67749 97.99249
84.2489 84.1935 104.0 0.00961 82.66637 97.61163
84.2656 84.2102 94.0 0.01064 82.65534 97.24821
84.2823 84.2269 101.0 0.00990 82.64431 96.89880
84.2990 84.2436 87.0 0.01150 82.63327 96.56270
84.3157 84.2603 91.0 0.01099 82.62224 96.23927
84.3324 84.2770 113.0 0.00885 82.61120 95.92792
84.3492 84.2938 96.0 0.01042 82.60011 95.62634
84.3659 84.3105 108.0 0.00926 82.58907 95.33749
84.3826 84.3272 97.0 0.01031 82.57803 95.05914
84.3993 84.3439 98.0 0.01021 82.56699 94.79060
84.4160 84.3606 108.0 0.00926 82.55596 94.53177
84.4328 84.3774 115.0 0.00870 82.54486 94.28064
84.4495 84.3941 106.0 0.00943 82.53383 94.03971
84.4662 84.4108 108.0 0.00926 82.52280 93.80715
84.4829 84.4275 103.0 0.00971 82.51176 93.58260
84.4996 84.4442 105.0 0.00952 82.50073 93.36583
84.5164 84.4610 91.0 0.01099 82.48962 93.15488
84.5331 84.4777 107.0 0.00935 82.47858 92.95245
84.5498 84.4944 88.0 0.01136 82.46755 92.75683
84.5665 84.5111 81.0 0.01235 82.45651 92.56771
84.5832 84.5278 78.0 0.01282 82.44548 92.38486
84.5999 84.5445 96.0 0.01042 82.43445 92.20805
84.6167 84.5613 95.0 0.01053 82.42335 92.03607
84.6334 84.5780 85.0 0.01176 82.41232 91.87067
84.6501 84.5947 105.0 0.00952 82.40128 91.71068
84.6668 84.6114 98.0 0.01021 82.39024 91.55580
84.6835 84.6281 112.0 0.00893 82.37921 91.40603
84.7003 84.6449 90.0 0.01111 82.36810 91.26028
84.7170 84.6616 86.0 0.01163 82.35707 91.12006
84.7337 84.6783 98.0 0.01021 82.34604 90.98438
84.7504 84.6950 97.0 0.01031 82.33501 90.85311
84.7671 84.7117 91.0 0.01099 82.32397 90.72614
84.7839 84.7285 95.0 0.01053 82.31287 90.60236
84.8006 84.7452 100.0 0.01000 82.30183 90.48344
84.8173 84.7619 99.0 0.01010 82.29079 90.36841
84.8340 84.7786 93.0 0.01075 82.27976 90.25714
84.8507 84.7953 93.0 0.01075 82.26873 90.14954
84.8674 84.8120 84.0 0.01191 82.25769 90.04549
84.8842 84.8288 85.0 0.01176 82.24659 89.94431
84.9009 84.8455 89.0 0.01124 82.23556 89.84712
84.9176 84.8622 106.0 0.00943 82.22453 89.75322
84.9343 84.8789 97.0 0.01031 82.21349 89.66249
84.9510 84.8956 107.0 0.00935 82.20245 89.57495
84.9678 84.9124 88.0 0.01136 82.19135 89.49000
84.9845 84.9291 118.0 0.00848 82.18031 89.40856
85.0012 84.9458 87.0 0.01150 82.16928 89.33005
85.0179 84.9625 101.0 0.00990 82.15825 89.25443
85.0346 84.9792 101.0 0.00990 82.14722 89.18169
85.0514 84.9960 93.0 0.01075 82.13611 89.11122
85.0681 85.0127 100.0 0.01000 82.12507 89.04399
85.0848 85.0294 88.0 0.01136 82.11404 88.97945
85.1015 85.0461 110.0 0.00909 82.10300 88.91758
85.1182 85.0628 89.0 0.01124 82.09197 88.85835
85.1349 85.0795 76.0 0.01316 82.08093 88.80170
85.1517 85.0963 105.0 0.00952 82.06983 88.74731
85.1684 85.1130 87.0 0.01150 82.05881 88.69582
85.1851 85.1297 93.0 0.01075 82.04777 88.64683
85.2018 85.1464 112.0 0.00893 82.03673 88.60033
85.2185 85.1631 95.0 0.01053 82.02570 88.55638
85.2353 85.1799 84.0 0.01191 82.01460 88.51467
85.2520 85.1966 100.0 0.01000 82.00356 88.47570
85.2687 85.2133 99.0 0.01010 81.99253 88.43922
85.2854 85.2300 111.0 0.00900 81.98149 88.40523
85.3021 85.2467 92.0 0.01087 81.97046 88.37375
85.3189 85.2635 90.0 0.01111 81.95935 88.34456
85.3356 85.2802 120.0 0.00834 81.94832 88.31811
85.3523 85.2969 118.0 0.00848 81.93729 88.29420
85.3690 85.3136 104.0 0.00961 81.92625 88.27287
85.3857 85.3303 96.0 0.01042 81.91521 88.25412
85.4024 85.3470 87.0 0.01150 81.90418 88.23801
85.4192 85.3638 104.0 0.00961 81.89308 88.22452
85.4359 85.3805 96.0 0.01042 81.88205 88.21382
85.4526 85.3972 99.0 0.01010 81.87101 88.20590
85.4693 85.4139 104.0 0.00961 81.85997 88.20083
85.4860 85.4306 105.0 0.00952 81.84894 88.19866
85.5028 85.4474 97.0 0.01031 81.83784 88.19949
85.5195 85.4641 111.0 0.00900 81.82681 88.20338
85.5362 85.4808 85.0 0.01176 81.81577 88.21045
85.5529 85.4975 95.0 0.01053 81.80473 88.22078
85.5696 85.5142 99.0 0.01010 81.79371 88.23451
85.5864 85.5310 80.0 0.01250 81.78260 88.25195
85.6031 85.5477 87.0 0.01150 81.77156 88.27298
85.6198 85.5644 100.0 0.01000 81.76053 88.29787
85.6365 85.5811 91.0 0.01099 81.74949 88.32693
85.6532 85.5978 95.0 0.01053 81.73846 88.36035
85.6699 85.6145 90.0 0.01111 81.72742 89.63580
85.6867 85.6313 116.0 0.00862 81.71632 89.68653
85.7034 85.6480 94.0 0.01064 81.70529 89.74263
85.7201 85.6647 97.0 0.01031 81.69425 89.80505
85.7368 85.6814 95.0 0.01053 81.68321 89.87447
85.7535 85.6981 86.0 0.01163 81.67218 89.95184
85.7703 85.7149 97.0 0.01031 81.66109 90.03889
85.7870 85.7316 97.0 0.01031 81.65005 90.13602
85.8037 85.7483 84.0 0.01191 81.63902 90.24543
85.8204 85.7650 93.0 0.01075 81.62798 90.36913
85.8371 85.7817 93.0 0.01075 81.61695 90.50942
85.8539 85.7985 88.0 0.01136 81.60584 90.67038
85.8706 85.8152 103.0 0.00971 81.59480 90.85268
85.8873 85.8319 92.0 0.01087 81.58377 91.06061
85.9040 85.8486 100.0 0.01000 81.57274 91.29756
85.9207 85.8653 102.0 0.00980 81.56171 91.56695
85.9374 85.8820 98.0 0.01021 81.55067 91.87198
85.9542 85.8988 96.0 0.01042 81.53957 92.21767
85.9709 85.9155 108.0 0.00926 81.52853 92.60222
85.9876 85.9322 90.0 0.01111 81.51749 93.02913
86.0043 85.9489 100.0 0.01000 81.50646 93.49789
86.0210 85.9656 101.0 0.00990 81.49543 94.00706
86.0378 85.9824 91.0 0.01099 81.48433 94.55614
86.0545 85.9991 114.0 0.00877 81.47329 96.13670
86.0712 86.0158 97.0 0.01031 81.46226 96.74032
86.0879 86.0325 116.0 0.00862 81.45123 97.35338
86.1046 86.0492 89.0 0.01124 81.44019 97.96230
86.1213 86.0659 96.0 0.01042 81.42916 98.55226
86.1381 86.0827 100.0 0.01000 81.41805 99.11298
86.1548 86.0994 93.0 0.01075 81.40701 100.74037
86.1715 86.1161 97.0 0.01031 81.39598 101.19241
86.1882 86.1328 93.0 0.01075 81.38495 101.56570
86.2049 86.1495 105.0 0.00952 81.37392 101.84683
86.2217 86.1663 95.0 0.01053 81.36281 102.02824
86.2384 86.1830 127.0 0.00787 81.35178 102.10818
86.2551 86.1997 102.0 0.00980 81.34074 102.09836
86.2718 86.2164 93.0 0.01075 81.32970 102.01802
86.2885 86.2331 108.0 0.00926 81.31867 101.89162
86.3053 86.2499 122.0 0.00819 81.30757 101.74376
86.3220 86.2666 115.0 0.00870 81.29654 101.59962
86.3387 86.2833 111.0 0.00900 81.28551 101.47780
86.3554 86.3000 100.0 0.01000 81.27447 101.39348
86.3721 86.3167 121.0 0.00826 81.26344 101.35786
86.3888 86.3334 117.0 0.00854 81.25241 101.37900
86.4056 86.3502 122.0 0.00819 81.24129 101.46324
86.4223 86.3669 101.0 0.00990 81.23026 101.61322
86.4390 86.3836 87.0 0.01150 81.21922 101.83165
86.4557 86.4003 101.0 0.00990 81.20819 102.12005
86.4724 86.4170 106.0 0.00943 81.19716 102.47934
86.4892 86.4338 92.0 0.01087 81.18606 102.91307
86.5059 86.4505 100.0 0.01000 81.17503 103.41694
86.5226 86.4672 128.0 0.00782 81.16399 103.99477
86.5393 86.4839 112.0 0.00893 81.15295 104.64758
86.5560 86.5006 97.0 0.01031 81.14191 105.37830
86.5728 86.5174 107.0 0.00935 81.13082 106.19559
86.5895 86.5341 108.0 0.00926 81.11978 107.09513
86.6062 86.5508 117.0 0.00854 81.10875 108.08843
86.6229 86.5675 104.0 0.00961 81.09771 109.18487
86.6396 86.5842 112.0 0.00893 81.08668 110.39676
86.6563 86.6009 116.0 0.00862 81.07565 111.73946
86.6731 86.6177 107.0 0.00935 81.06454 113.24676
86.6898 86.6344 114.0 0.00877 81.05350 114.92448
86.7065 86.6511 129.0 0.00775 81.04247 116.81805
86.7232 86.6678 140.0 0.00715 81.03143 118.97303
86.7399 86.6845 106.0 0.00943 81.02040 121.44720
86.7567 86.7013 127.0 0.00787 81.00930 124.33127
86.7734 86.7180 137.0 0.00731 80.99827 127.68202
86.7901 86.7347 128.0 0.00782 80.98723 131.62698
86.8068 86.7514 140.0 0.00715 80.97619 136.29224
86.8235 86.7681 172.0 0.00582 80.96516 141.83255
86.8403 86.7849 165.0 0.00606 80.95406 148.46390
86.8570 86.8016 145.0 0.00690 80.94302 156.30348
86.8737 86.8183 172.0 0.00582 80.93199 165.59474
86.8904 86.8350 184.0 0.00544 80.92095 176.55399
86.9071 86.8517 193.0 0.00518 80.90993 189.39655
86.9238 86.8684 207.0 0.00483 80.89890 204.31557
86.9406 86.8852 232.0 0.00431 80.88779 221.63283
86.9573 86.9019 231.0 0.00433 80.87675 241.23056
86.9740 86.9186 264.0 0.00379 80.86572 263.28726
86.9907 86.9353 276.0 0.00362 80.85468 287.77917
87.0074 86.9520 278.0 0.00360 80.84364 314.56369
87.0242 86.9688 330.0 0.003029 80.83254 343.51855
87.0409 86.9855 363.0 0.002756 80.82151 373.82068
87.0576 87.0022 361.0 0.002770 80.81047 404.95291
87.0743 87.0189 404.0 0.002475 80.79944 435.96887
87.0910 87.0356 482.0 0.002076 80.78841 465.81842
87.1078 87.0524 523.0 0.001912 80.77731 493.53790
87.1245 87.0691 512.0 0.001953 80.76627 517.78192
87.1412 87.0858 529.0 0.001890 80.75523 537.91785
87.1579 87.1025 548.0 0.001825 80.74420 553.39471
87.1746 87.1192 583.0 0.001715 80.73317 563.85931
87.1913 87.1359 565.0 0.001770 80.72214 569.07672
87.2081 87.1527 567.0 0.001764 80.71103 568.88397
87.2248 87.1694 582.0 0.001719 80.69999 563.23865
87.2415 87.1861 597.0 0.001676 80.68896 552.27686
87.2582 87.2028 541.0 0.001848 80.67793 536.31152
87.2749 87.2195 529.0 0.001890 80.66689 515.86304
87.2917 87.2363 479.0 0.002087 80.65579 491.50238
87.3084 87.2530 437.0 0.002289 80.64476 464.41010
87.3251 87.2697 390.0 0.002564 80.63372 435.43756
87.3418 87.2864 383.0 0.002611 80.62268 405.63318
87.3585 87.3031 350.0 0.002857 80.61165 375.91290
87.3753 87.3199 292.0 0.003424 80.60055 346.89075
87.3920 87.3366 295.0 0.003388 80.58952 319.49832
87.4087 87.3533 299.0 0.003345 80.57848 293.96765
87.4254 87.3700 243.0 0.00411 80.56744 270.53821
87.4421 87.3867 277.0 0.00361 80.55641 249.31651
87.4588 87.4034 212.0 0.00472 80.54539 230.31848
87.4756 87.4202 225.0 0.00444 80.53427 213.34348
87.4923 87.4369 228.0 0.00439 80.52324 198.52156
87.5090 87.4536 177.0 0.00565 80.51221 185.57727
87.5257 87.4703 175.0 0.00571 80.50117 174.34271
87.5424 87.4870 182.0 0.00550 80.49758 164.64964
87.5592 87.5038 180.0 0.00555 80.50541 156.28169
87.5759 87.5205 181.0 0.00553 80.51319 149.15451
87.5926 87.5372 140.0 0.00715 80.52098 143.05328
87.6093 87.5539 163.0 0.00613 80.52877 137.83887
87.6260 87.5706 142.0 0.00704 80.53655 133.37567
87.6428 87.5874 141.0 0.00710 80.54438 129.52649
87.6595 87.6041 132.0 0.00757 80.55216 126.23405
87.6762 87.6208 122.0 0.00819 80.55995 123.38725
87.6929 87.6375 111.0 0.00900 80.56773 120.91237
87.7096 87.6542 127.0 0.00787 80.57552 118.74774
87.7263 87.6709 122.0 0.00819 80.58330 116.84326
87.7431 87.6877 120.0 0.00834 80.59114 115.14363
87.7598 87.7044 121.0 0.00826 80.59892 112.65667
87.7765 87.7211 110.0 0.00909 80.60670 111.31400
87.7932 87.7378 112.0 0.00893 80.61449 110.10360
87.8099 87.7545 140.0 0.00715 80.62228 109.00718
87.8267 87.7713 99.0 0.01010 80.63010 108.00430
87.8434 87.7880 104.0 0.00961 80.63789 107.09443
87.8601 87.8047 107.0 0.00935 80.64568 106.26093
87.8768 87.8214 125.0 0.00800 80.65347 105.49644
87.8935 87.8381 114.0 0.00877 80.66125 104.79343
87.9103 87.8549 96.0 0.01042 80.66908 104.14233
87.9270 87.8716 101.0 0.00990 80.67686 103.54557
87.9437 87.8883 104.0 0.00961 80.68465 102.99472
87.9604 87.9050 94.0 0.01064 80.69244 102.48593
87.9771 87.9217 114.0 0.00877 80.70022 102.01573
87.9938 87.9384 105.0 0.00952 80.70800 101.58135
88.0106 87.9552 117.0 0.00854 80.71584 101.17683
88.0273 87.9719 104.0 0.00961 80.72363 100.80560
88.0440 87.9886 112.0 0.00893 80.73141 100.46251
88.0607 88.0053 111.0 0.00900 80.73919 100.14560
88.0774 88.0220 96.0 0.01042 80.74697 99.85306
88.0942 88.0388 85.0 0.01176 80.75481 99.58170
88.1109 88.0555 99.0 0.01010 80.76259 99.33324
88.1276 88.0722 102.0 0.00980 80.77038 99.10449
88.1443 88.0889 105.0 0.00952 80.77817 98.89453
88.1610 88.1056 112.0 0.00893 80.78595 98.70206
88.1777 88.1223 108.0 0.00926 80.79373 98.52605
88.1945 88.1391 112.0 0.00893 80.80157 98.36466
88.2112 88.1558 91.0 0.01099 80.80935 98.21890
88.2279 88.1725 111.0 0.00900 80.81713 98.08698
88.2446 88.1892 97.0 0.01031 80.82491 97.96818
88.2613 88.2059 99.0 0.01010 80.83270 97.86189
88.2781 88.2227 123.0 0.00813 80.84054 97.76672
88.2948 88.2394 121.0 0.00826 80.84832 97.68391
88.3115 88.2561 98.0 0.01021 80.85610 97.61145
88.3282 88.2728 110.0 0.00909 80.86389 97.54925
88.3449 88.2895 108.0 0.00926 80.87167 97.49683
88.3617 88.3063 123.0 0.00813 80.87950 97.45361
88.3784 88.3230 104.0 0.00961 80.88728 97.41969
88.3951 88.3397 89.0 0.01124 80.89508 97.39443
88.4118 88.3564 105.0 0.00952 80.90286 97.37756
88.4285 88.3731 106.0 0.00943 80.91064 97.36875
88.4452 88.3898 101.0 0.00990 80.91843 97.36774
88.4620 88.4066 108.0 0.00926 80.92626 97.37435
88.4787 88.4233 103.0 0.00971 80.93404 97.38824
88.4954 88.4400 107.0 0.00935 80.94183 97.40929
88.5121 88.4567 108.0 0.00926 80.94962 97.43724
88.5288 88.4734 114.0 0.00877 80.95739 97.47194
88.5456 88.4902 106.0 0.00943 80.96523 97.51357
88.5623 88.5069 102.0 0.00980 80.97301 97.56134
88.5790 88.5236 119.0 0.00840 80.98080 97.61548
88.5957 88.5403 103.0 0.00971 80.98859 97.67579
88.6124 88.5570 93.0 0.01075 80.99637 97.74221
88.6292 88.5738 103.0 0.00971 81.00420 97.81561
88.6459 88.5905 87.0 0.01150 81.01199 97.89400
88.6626 88.6072 92.0 0.01087 81.01978 97.97829
88.6793 88.6239 83.0 0.01205 81.02756 98.06835
88.6960 88.6406 102.0 0.00980 81.03535 98.16412
88.7127 88.6573 112.0 0.00893 81.04313 98.26561
88.7295 88.6741 97.0 0.01031 81.05096 98.37543
88.7462 88.6908 97.0 0.01031 81.05875 98.48824
88.7629 88.7075 103.0 0.00971 81.06653 98.60668
88.7796 88.7242 122.0 0.00819 81.07431 98.73074
88.7963 88.7409 93.0 0.01075 81.08209 98.86234
88.8131 88.7577 97.0 0.01031 81.08993 98.99860
88.8298 88.7744 105.0 0.00952 81.09772 99.13953
88.8465 88.7911 89.0 0.01124 81.10550 99.28609
88.8632 88.8078 79.0 0.01266 81.11329 99.43837
88.8799 88.8245 103.0 0.00971 81.12107 99.59631
88.8967 88.8413 106.0 0.00943 81.12890 99.76097
88.9134 88.8580 112.0 0.00893 81.13668 99.93052
88.9301 88.8747 98.0 0.01021 81.14447 100.10596
88.9468 88.8914 110.0 0.00909 81.15226 100.28727
88.9635 88.9081 85.0 0.01176 81.16004 100.47453
88.9802 88.9248 103.0 0.00971 81.16782 100.66782
88.9970 88.9416 111.0 0.00900 81.17566 100.86844
89.0137 88.9583 115.0 0.00870 81.18344 101.07414
89.0304 88.9750 116.0 0.00862 81.19123 101.28613
89.0471 88.9917 102.0 0.00980 81.19901 101.50455
89.0638 89.0084 94.0 0.01064 81.20679 101.72935
89.0806 89.0252 105.0 0.00952 81.21463 101.96259
89.0973 89.0419 98.0 0.01021 81.22241 102.20097
89.1140 89.0586 108.0 0.00926 81.23020 102.44625
89.1307 89.0753 103.0 0.00971 81.23798 102.69855
89.1474 89.0920 98.0 0.01021 81.24577 102.95806
89.1642 89.1088 126.0 0.00794 81.25360 103.22647
89.1809 89.1255 103.0 0.00971 81.26138 103.50084
89.1976 89.1422 109.0 0.00917 81.26917 103.78304
89.2143 89.1589 129.0 0.00775 81.27695 104.07294
89.2310 89.1756 101.0 0.00990 81.28474 104.37086
89.2477 89.1923 106.0 0.00943 81.29253 104.67705
89.2645 89.2091 102.0 0.00980 81.30035 104.99353
89.2812 89.2258 111.0 0.00900 81.30814 105.31686
89.2979 89.2425 93.0 0.01075 81.31593 105.64910
89.3146 89.2592 101.0 0.00990 81.32371 105.99047
89.3313 89.2759 127.0 0.00787 81.33149 106.34103
89.3481 89.2927 102.0 0.00980 81.33932 106.70399
89.3648 89.3094 102.0 0.00980 81.34711 107.07439
89.3815 89.3261 107.0 0.00935 81.35490 107.45501
89.3982 89.3428 114.0 0.00877 81.36268 107.84614
89.4149 89.3595 111.0 0.00900 81.37047 108.24814
89.4317 89.3763 109.0 0.00917 81.37830 108.66372
89.4484 89.3930 107.0 0.00935 81.38608 109.08845
89.4651 89.4097 112.0 0.00893 81.39387 109.52532
89.4818 89.4264 105.0 0.00952 81.40165 109.97420
89.4985 89.4431 111.0 0.00900 81.40944 110.43574
89.5152 89.4598 112.0 0.00893 81.41722 110.91035
89.5320 89.4766 109.0 0.00917 81.42506 111.40137
89.5487 89.4933 115.0 0.00870 81.43284 111.90353
89.5654 89.5100 109.0 0.00917 81.44062 112.42016
89.5821 89.5267 120.0 0.00834 81.44841 112.95171
89.5988 89.5434 101.0 0.00990 81.45618 113.49843
89.6156 89.5602 113.0 0.00885 81.46403 114.06551
89.6323 89.5769 118.0 0.00848 81.47181 114.64529
89.6490 89.5936 118.0 0.00848 81.47959 115.24226
89.6657 89.6103 114.0 0.00877 81.48738 115.85710
89.6824 89.6270 100.0 0.01000 81.49516 116.49046
89.6992 89.6438 131.0 0.00763 81.50299 117.14688
89.7159 89.6605 106.0 0.00943 81.51078 117.81953
89.7326 89.6772 122.0 0.00819 81.51857 118.51330
89.7493 89.6939 97.0 0.01031 81.52635 119.22821
89.7660 89.7106 115.0 0.00870 81.53413 119.96554
89.7827 89.7273 115.0 0.00870 81.54192 120.72614
89.7995 89.7441 119.0 0.00840 81.54975 121.51565
89.8162 89.7608 112.0 0.00893 81.55753 122.32591
89.8329 89.7775 143.0 0.00699 81.56532 123.16243
89.8496 89.7942 120.0 0.00834 81.57310 124.02637
89.8663 89.8109 130.0 0.00769 81.58089 124.91836
89.8831 89.8277 111.0 0.00900 81.58872 125.84721
89.8998 89.8444 119.0 0.00840 81.59650 126.80083
89.9165 89.8611 105.0 0.00952 81.60429 127.78692
89.9332 89.8778 117.0 0.00854 81.61208 128.80693
89.9499 89.8945 122.0 0.00819 81.61987 129.86244
89.9667 89.9113 119.0 0.00840 81.62769 130.96155
89.9834 89.9280 106.0 0.00943 81.63548 132.09319
90.0001 89.9447 115.0 0.00870 81.64326 133.26614
90.0168 89.9614 126.0 0.00794 81.65105 134.48105
90.0335 89.9781 133.0 0.00752 81.65884 135.74054
90.0502 89.9948 132.0 0.00757 81.66662 137.04680
90.0670 90.0116 137.0 0.00731 81.67445 138.41029
90.0837 90.0283 137.0 0.00731 81.68224 139.81754
90.1004 90.0450 124.0 0.00806 81.69002 141.27899
90.1171 90.0617 134.0 0.00746 81.69780 142.79739
90.1338 90.0784 144.0 0.00694 81.70558 144.37476
90.1506 90.0952 142.0 0.00704 81.71342 146.02786
90.1673 90.1119 121.0 0.00826 81.72121 147.73613
90.1840 90.1286 122.0 0.00819 81.72899 149.51443
90.2007 90.1453 134.0 0.00746 81.73678 151.36667
90.2174 90.1620 153.0 0.00654 81.74456 153.29686
90.2342 90.1788 152.0 0.00658 81.75239 155.32150
90.2509 90.1954 132.0 0.00757 81.76018 157.42172
90.2676 90.2122 141.0 0.00710 81.76797 159.61548
90.2843 90.2289 171.0 0.00585 81.77575 161.90555
90.3010 90.2456 168.0 0.00595 81.78353 164.29912
90.3177 90.2623 135.0 0.00741 81.79131 166.80238
90.3345 90.2791 138.0 0.00724 81.79915 169.43779
90.3512 90.2958 158.0 0.00633 81.80693 172.18205
90.3679 90.3125 144.0 0.00694 81.81471 175.05792
90.3846 90.3292 164.0 0.00609 81.82250 178.07397
90.4013 90.3459 180.0 0.00555 81.83028 181.23738
90.4181 90.3627 186.0 0.00537 81.83812 184.58583
90.4348 90.3794 172.0 0.00582 81.84591 188.08156
90.4515 90.3961 170.0 0.00588 81.85369 191.75912
90.4682 90.4128 167.0 0.00599 81.86147 195.63121
90.4849 90.4295 179.0 0.00559 81.86926 199.71169
90.5016 90.4462 180.0 0.00555 81.87704 204.01561
90.5184 90.4630 191.0 0.00524 81.88487 208.58678
90.5351 90.4797 182.0 0.00550 81.89266 213.39302
90.5518 90.4964 233.0 0.00429 81.90044 218.47435
90.5685 90.5131 194.0 0.00515 81.90823 223.85513
90.5852 90.5298 218.0 0.00459 81.91602 229.55911
90.6020 90.5466 204.0 0.00490 81.92385 235.64897
90.6187 90.5633 227.0 0.00440 81.93163 242.08304
90.6354 90.5800 223.0 0.00449 81.93941 248.92760
90.6521 90.5967 239.0 0.00418 81.94720 256.21829
90.6688 90.6134 240.0 0.00417 81.95498 263.99008
90.6856 90.6302 251.0 0.00399 81.96282 272.35690
90.7023 90.6469 283.0 0.00353 81.97060 281.24829
90.7190 90.6636 276.0 0.00362 81.97839 290.77805
90.7357 90.6803 302.0 0.003311 81.98618 301.01221
90.7524 90.6970 276.0 0.00362 81.99396 312.02762
90.7691 90.7137 311.0 0.003214 82.00174 323.91534
90.7859 90.7305 328.0 0.003049 82.00957 336.86267
90.8026 90.7472 331.0 0.003022 82.01736 350.86108
90.8193 90.7639 362.0 0.002761 82.02515 366.13083
90.8360 90.7806 360.0 0.002779 82.03293 382.88461
90.8527 90.7973 362.0 0.002761 82.04072 401.38107
90.8695 90.8141 434.0 0.002305 82.04855 422.07465
90.8862 90.8308 482.0 0.002076 82.05633 445.14255
90.9029 90.8475 491.0 0.002036 82.06411 471.22556
90.9196 90.8642 554.0 0.001805 82.07190 500.98627
90.9363 90.8809 569.0 0.001758 82.07967 535.22968
90.9531 90.8977 622.0 0.001608 82.08752 575.31543
90.9698 90.9144 609.0 0.001642 82.09530 621.91089
90.9865 90.9311 658.0 0.001520 82.10309 676.75385
91.0032 90.9478 831.0 0.001203 82.11087 741.57727
91.0199 90.9645 903.0 0.001107 82.11866 818.36945
91.0366 90.9812 931.0 0.001074 82.12643 909.35742
91.0534 90.9980 1083.0 0.000923 82.13427 1017.65479
91.0701 91.0147 1218.0 0.000821 82.14206 1144.66736
91.0868 91.0314 1347.0 0.000742 82.14984 1293.45313
91.1035 91.0481 1441.0 0.000694 82.15763 1466.64514
91.1202 91.0648 1635.0 0.000611 82.16541 1666.60352
91.1370 91.0816 1847.0 0.000541 82.17324 1896.73438
91.1537 91.0983 2057.0 0.000486 82.18103 2155.76563
91.1704 91.1150 2422.0 0.000413 82.18881 2445.52051
91.1871 91.1317 2739.0 0.000365 82.19659 2765.46777
91.2038 91.1484 3069.0 0.0003258 82.20438 3113.43506
91.2206 91.1652 3403.0 0.0002938 82.21221 3488.77051
91.2373 91.1819 3864.0 0.0002588 82.22000 3880.11499
91.2540 91.1986 4157.0 0.0002406 82.22778 4281.72803
91.2707 91.2153 4655.0 0.0002148 82.23557 4683.02002
91.2874 91.2320 5022.0 0.0001991 82.24335 5071.61475
91.3041 91.2487 5432.0 0.0001841 82.25114 5434.38428
91.3209 91.2655 5817.0 0.0001719 82.25897 5760.49756
91.3376 91.2822 6164.0 0.0001622 82.26675 6035.24023
91.3543 91.2989 6352.0 0.0001574 82.27454 6251.22656
91.3710 91.3156 6312.0 0.0001584 82.28233 6401.20361
91.3877 91.3323 6382.0 0.0001567 82.29011 6479.05566
91.4045 91.3491 6457.0 0.0001549 82.29794 6479.94189
91.4212 91.3658 6228.0 0.0001606 82.30573 6401.56592
91.4379 91.3825 6142.0 0.0001628 82.31351 6245.28906
91.4546 91.3992 5779.0 0.0001730 82.32130 6016.37842
91.4713 91.4159 5542.0 0.0001805 82.32907 5724.44336
91.4881 91.4327 5007.0 0.0001997 82.33691 5379.40771
91.5048 91.4494 4781.0 0.0002092 82.34470 5001.14502
91.5215 91.4661 4264.0 0.0002345 82.35249 4602.59082
91.5382 91.4828 3781.0 0.0002645 82.36027 4197.79443
91.5549 91.4995 3344.0 0.0002990 82.36805 3798.66772
91.5716 91.5162 3153.0 0.0003172 82.37584 3414.54346
91.5884 91.5330 2816.0 0.000355 82.38367 3050.13013
91.6051 91.5497 2546.0 0.000393 82.39146 2713.95215
91.6218 91.5664 2304.0 0.000434 82.39924 2406.75366
91.6385 91.5831 2012.0 0.000497 82.40702 2129.35474
91.6552 91.5998 1830.0 0.000546 82.41481 1881.61902
91.6720 91.6166 1664.0 0.000601 82.42264 1661.34717
91.6887 91.6333 1557.0 0.000642 82.43042 1469.47229
91.7054 91.6500 1410.0 0.000709 82.43821 1302.59460
91.7221 91.6667 1261.0 0.000793 82.44599 1158.42749
91.7388 91.6834 1191.0 0.000840 82.45377 1034.63794
91.7556 91.7002 1075.0 0.000930 82.46161 927.99133
91.7723 91.7169 978.0 0.001023 82.46940 837.71478
91.7890 91.7336 885.0 0.001130 82.47718 760.82428
91.8057 91.7503 789.0 0.001267 82.48496 695.32416
91.8224 91.7670 696.0 0.001437 82.49275 639.42792
91.8391 91.7837 686.0 0.001458 82.50053 591.56793
91.8559 91.8005 607.0 0.001647 82.50836 550.16925
91.8726 91.8172 595.0 0.001681 82.51615 514.54236
91.8893 91.8339 565.0 0.001770 82.52393 483.51175
91.9060 91.8506 541.0 0.001848 82.53172 456.26392
91.9227 91.8673 496.0 0.002016 82.53951 432.15234
91.9395 91.8841 449.0 0.002227 82.54733 410.53412
91.9562 91.9008 411.0 0.002434 82.55512 391.23645
91.9729 91.9175 404.0 0.002475 82.56290 373.78772
91.9896 91.9342 381.0 0.002624 82.57069 357.91608
92.0063 91.9509 333.0 0.003002 82.57847 343.40826
92.0231 91.9677 331.0 0.003022 82.58631 329.98608
92.0398 91.9844 302.0 0.003311 82.59409 317.69788
92.0565 92.0011 300.0 0.003334 82.60188 306.32758
92.0732 92.0178 293.0 0.003412 82.60966 295.77658
92.0899 92.0345 275.0 0.00364 82.61745 285.96164
92.1066 92.0512 290.0 0.003448 82.62523 276.81177
92.1234 92.0680 252.0 0.00397 82.63306 268.21741
92.1401 92.0847 271.0 0.00369 82.64085 260.22037
92.1568 92.1014 238.0 0.00420 82.64864 252.73131
92.1735 92.1181 225.0 0.00444 82.65642 245.70366
92.1902 92.1348 258.0 0.00388 82.66421 239.10034
92.2070 92.1516 194.0 0.00515 82.67204 232.85266
92.2237 92.1683 221.0 0.00452 82.67982 227.00308
92.2404 92.1850 204.0 0.00490 82.68761 221.48701
92.2571 92.2017 182.0 0.00550 82.69539 216.27979
92.2738 92.2184 198.0 0.00505 82.70317 211.36176
92.2906 92.2352 204.0 0.00490 82.71101 206.67506
92.3073 92.2519 175.0 0.00571 82.71880 202.26915
92.3240 92.2686 160.0 0.00625 82.72658 198.09346
92.3407 92.2853 153.0 0.00654 82.73436 194.13240
92.3574 92.3020 173.0 0.00578 82.74214 190.37163
92.3741 92.3187 139.0 0.00719 82.74993 186.79797
92.3909 92.3355 174.0 0.00575 82.75776 183.37999
92.4076 92.3522 164.0 0.00609 82.76555 180.37398
92.4243 92.3689 145.0 0.00690 82.77334 177.29485
92.4410 92.3856 132.0 0.00757 82.78112 174.35985
92.4577 92.4023 152.0 0.00658 82.78890 171.56012
92.4745 92.4191 146.0 0.00685 82.79673 168.87233
92.4912 92.4358 150.0 0.00666 82.80452 166.32016
92.5079 92.4525 139.0 0.00719 82.81230 163.88068
92.5246 92.4692 133.0 0.00752 82.82008 161.54738
92.5413 92.4859 132.0 0.00757 82.82787 159.31424
92.5580 92.5026 127.0 0.00787 82.83566 157.17688
92.5748 92.5194 140.0 0.00715 82.84349 155.11357
92.5915 92.5361 135.0 0.00741 82.85127 153.14938
92.6082 92.5528 137.0 0.00731 82.85905 151.26509
92.6249 92.5695 130.0 0.00769 82.86684 149.45654
92.6416 92.5862 119.0 0.00840 82.87463 147.71971
92.6584 92.6030 119.0 0.00840 82.88246 146.04132
92.6751 92.6197 137.0 0.00731 82.89025 144.43649
92.6918 92.6364 158.0 0.00633 82.89803 142.89394
92.7085 92.6531 122.0 0.00819 82.90582 141.40956
92.7252 92.6698 117.0 0.00854 82.91360 140.08846
92.7420 92.6866 124.0 0.00806 82.92143 138.70476
92.7587 92.7033 113.0 0.00885 82.92921 137.37944
92.7754 92.7200 106.0 0.00943 82.93700 136.10187
92.7921 92.7367 117.0 0.00854 82.94479 134.86981
92.8088 92.7534 130.0 0.00769 82.95257 133.68114
92.8255 92.7701 119.0 0.00840 82.96035 132.53461
92.8423 92.7869 116.0 0.00862 82.96819 131.41925
92.8590 92.8036 134.0 0.00746 82.97598 130.34962
92.8757 92.8203 115.0 0.00870 82.98376 129.31604
92.8924 92.8370 123.0 0.00813 82.99154 128.31702
92.9091 92.8537 109.0 0.00917 82.99933 127.35097
92.9259 92.8705 98.0 0.01021 83.00716 126.41116
92.9426 92.8872 110.0 0.00909 83.01495 125.50666
92.9593 92.9039 106.0 0.00943 83.02273 124.63167
92.9760 92.9206 118.0 0.00848 83.03052 123.78446
92.9927 92.9373 119.0 0.00840 83.03830 122.96391
93.0095 92.9541 113.0 0.00885 83.04613 122.16432
93.0262 92.9708 99.0 0.01010 83.05392 121.39400
93.0429 92.9875 126.0 0.00794 83.06170 120.64721
93.0596 93.0042 101.0 0.00990 83.06948 119.92306
93.0763 93.0209 116.0 0.00862 83.07727 119.22065
93.0930 93.0376 107.0 0.00935 83.08504 118.53951
93.1098 93.0544 119.0 0.00840 83.09289 117.87352
93.1265 93.0711 132.0 0.00757 83.10067 117.23158
93.1432 93.0878 91.0 0.01099 83.10846 116.60827
93.1599 93.1045 116.0 0.00862 83.11624 116.00285
93.1766 93.1212 111.0 0.00900 83.12402 115.41473
93.1934 93.1380 109.0 0.00917 83.13185 114.83993
93.2101 93.1547 108.0 0.00926 83.13964 114.28426
93.2268 93.1714 117.0 0.00854 83.14743 113.74437
93.2435 93.1881 101.0 0.00990 83.15521 113.21941
93.2602 93.2048 109.0 0.00917 83.16300 112.70889
93.2770 93.2216 100.0 0.01000 83.17083 112.20936
93.2937 93.2383 113.0 0.00885 83.17861 111.72620
93.3104 93.2550 99.0 0.01010 83.18639 111.25604
93.3271 93.2717 109.0 0.00917 83.19418 110.79844
93.3438 93.2884 120.0 0.00834 83.20197 110.35294
93.3605 93.3051 109.0 0.00917 83.20975 109.91943
93.3773 93.3219 111.0 0.00900 83.21758 109.49410
93.3940 93.3386 114.0 0.00877 83.22537 109.08276
93.4107 93.3553 120.0 0.00834 83.23315 108.68206
93.4274 93.3720 101.0 0.00990 83.24094 108.29166
93.4441 93.3887 105.0 0.00952 83.24873 107.91129
93.4609 93.4055 97.0 0.01031 83.25655 107.53843
93.4776 93.4222 105.0 0.00952 83.26434 107.17699
93.4943 93.4389 90.0 0.01111 83.27213 106.82487
93.5110 93.4556 92.0 0.01087 83.27991 106.48160
93.5277 93.4723 118.0 0.00848 83.28770 106.14693
93.5445 93.4891 124.0 0.00806 83.29552 105.81875
93.5612 93.5058 92.0 0.01087 83.30331 105.50066
93.5779 93.5225 103.0 0.00971 83.31110 105.19044
93.5946 93.5392 106.0 0.00943 83.31888 104.88795
93.6113 93.5559 87.0 0.01150 83.32666 104.40578
93.6280 93.5726 119.0 0.00840 83.33444 104.11922
93.6448 93.5894 101.0 0.00990 83.34229 103.83772
93.6615 93.6061 102.0 0.00980 83.35007 103.56515
93.6782 93.6228 95.0 0.01053 83.35785 103.29937
93.6949 93.6395 96.0 0.01042 83.36564 103.04025
93.7116 93.6562 94.0 0.01064 83.37342 102.78764
93.7284 93.6730 106.0 0.00943 83.38126 102.54000
93.7451 93.6897 120.0 0.00834 83.38904 102.29993
93.7618 93.7064 95.0 0.01053 83.39683 102.06618
93.7785 93.7231 99.0 0.01010 83.40461 101.83848
93.7952 93.7398 107.0 0.00935 83.41239 101.61676
93.8120 93.7566 115.0 0.00870 83.42023 101.39968
93.8287 93.7733 81.0 0.01235 83.42801 101.18977
93.8454 93.7900 119.0 0.00840 83.43579 100.98561
93.8621 93.8067 81.0 0.01235 83.44358 100.78726
93.8788 93.8234 87.0 0.01150 83.45136 100.59472
93.8955 93.8400 112.0 0.00893 83.45914 100.40809
93.9123 93.8569 110.0 0.00909 83.46698 100.22601
93.9290 93.8736 107.0 0.00935 83.47476 100.05119
93.9457 93.8903 95.0 0.01053 83.48255 99.88255
93.9624 93.9070 85.0 0.01176 83.49033 99.72032
93.9791 93.9237 90.0 0.01111 83.49812 99.56478
93.9959 93.9405 102.0 0.00980 83.50595 99.41554
94.0126 93.9572 83.0 0.01205 83.51374 99.27477
94.0293 93.9739 95.0 0.01053 83.52152 99.14243
94.0460 93.9906 84.0 0.01191 83.52930 99.01933
94.0627 94.0073 104.0 0.00961 83.53709 98.90654
94.0795 94.0241 102.0 0.00980 83.54492 98.80479
94.0962 94.0408 119.0 0.00840 83.55270 98.71689
94.1129 94.0575 103.0 0.00971 83.56049 98.64405
94.1296 94.0742 98.0 0.01021 83.56828 98.58847
94.1463 94.0909 92.0 0.01087 83.57607 98.55264
94.1630 94.1076 106.0 0.00943 83.58384 98.53935
94.1798 94.1244 91.0 0.01099 83.59167 98.55181
94.1965 94.1411 93.0 0.01075 83.59946 98.59319
94.2132 94.1578 118.0 0.00848 83.60725 98.66679
94.2299 94.1745 88.0 0.01136 83.61504 98.77603
94.2466 94.1912 94.0 0.01064 83.62282 98.92406
94.2634 94.2080 120.0 0.00834 83.63065 99.11494
94.2801 94.2247 98.0 0.01021 83.63844 99.34871
94.2968 94.2414 102.0 0.00980 83.64622 99.62725
94.3135 94.2581 97.0 0.01031 83.65401 99.95053
94.3302 94.2748 105.0 0.00952 83.66179 100.31685
94.3470 94.2916 105.0 0.00952 83.66962 100.72493
94.3637 94.3083 110.0 0.00909 83.67741 101.16418
94.3804 94.3250 110.0 0.00909 83.68519 101.62891
94.3971 94.3417 113.0 0.00885 83.69298 102.10901
94.4138 94.3584 108.0 0.00926 83.70076 102.59250
94.4305 94.3751 104.0 0.00961 83.70854 103.06514
94.4473 94.3919 89.0 0.01124 83.71638 103.51454
94.4640 94.4086 111.0 0.00900 83.72416 103.91592
94.4807 94.4253 90.0 0.01111 83.73195 104.25276
94.4974 94.4420 99.0 0.01010 83.73973 104.50490
94.5141 94.4587 103.0 0.00971 83.74751 104.65413
94.5309 94.4755 114.0 0.00877 83.75535 104.68632
94.5476 94.4922 102.0 0.00980 83.76314 104.59306
94.5643 94.5089 105.0 0.00952 83.77092 104.37397
94.5810 94.5256 108.0 0.00926 83.77870 104.03477
94.5977 94.5423 102.0 0.00980 83.78648 103.58700
94.6144 94.5590 91.0 0.01099 83.79427 103.04726
94.6312 94.5758 100.0 0.01000 83.80210 102.43181
94.6479 94.5925 100.0 0.01000 83.80989 101.76961
94.6646 94.6092 123.0 0.00813 83.81767 101.07883
94.6813 94.6259 98.0 0.01021 83.82545 100.37920
94.6980 94.6426 104.0 0.00961 83.83324 99.68806
94.7148 94.6594 117.0 0.00854 83.84108 99.01343
94.7315 94.6761 109.0 0.00917 83.84886 98.37527
94.7482 94.6928 80.0 0.01250 83.85664 97.77573
94.7649 94.7095 100.0 0.01000 83.86443 97.21903
94.7816 94.7262 100.0 0.01000 83.87222 96.70728
94.7984 94.7430 84.0 0.01191 83.88004 96.23814
94.8151 94.7597 92.0 0.01087 83.88783 95.81582
94.8318 94.7764 94.0 0.01064 83.89562 95.43591
94.8485 94.7931 88.0 0.01136 83.90340 95.09541
94.8652 94.8098 87.0 0.01150 83.91119 94.79116
94.8819 94.8265 90.0 0.01111 83.91897 94.51978
94.8987 94.8433 109.0 0.00917 83.92680 94.27643
94.9154 94.8600 97.0 0.01031 83.93459 94.06052
94.9321 94.8767 117.0 0.00854 83.94237 93.86729
94.9488 94.8934 86.0 0.01163 83.95016 93.69376
94.9655 94.9100 104.0 0.00961 83.95793 93.53722
94.9823 94.9269 90.0 0.01111 83.96577 93.39413
94.9990 94.9436 108.0 0.00926 83.97356 93.26440
95.0157 94.9603 91.0 0.01099 83.98134 93.14517
95.0324 94.9770 100.0 0.01000 83.98913 93.03485
95.0491 94.9937 100.0 0.01000 83.99691 92.93211
95.0659 95.0105 94.0 0.01064 84.00474 92.83530
95.0826 95.0272 97.0 0.01031 84.01254 92.74459
95.0993 95.0439 96.0 0.01042 84.02032 92.65875
95.1160 95.0606 89.0 0.01124 84.02810 92.57710
95.1327 95.0773 103.0 0.00971 84.03589 92.49917
95.1494 95.0940 81.0 0.01235 84.04367 92.42453
95.1662 95.1108 107.0 0.00935 84.05150 92.35242
95.1829 95.1275 99.0 0.01010 84.05928 92.28344
95.1996 95.1442 87.0 0.01150 84.06707 92.21692
95.2163 95.1609 104.0 0.00961 84.07485 92.15265
95.2330 95.1776 104.0 0.00961 84.08263 92.09052
95.2498 95.1944 104.0 0.00961 84.09047 92.02991
95.2665 95.2111 90.0 0.01111 84.09826 91.97157
95.2832 95.2278 87.0 0.01150 84.10604 91.91496
95.2999 95.2445 81.0 0.01235 84.11382 91.86000
95.3166 95.2612 86.0 0.01163 84.12161 91.80662
95.3334 95.2780 82.0 0.01220 84.12944 91.75443
95.3501 95.2947 111.0 0.00900 84.13723 91.70390
95.3668 95.3114 92.0 0.01087 84.14501 91.65482
95.3835 95.3281 87.0 0.01150 84.15280 91.60703
95.4002 95.3448 99.0 0.01010 84.16058 91.56047
95.4169 95.3615 97.0 0.01031 84.16837 91.51514
95.4337 95.3783 76.0 0.01316 84.17620 91.47072
95.4504 95.3950 105.0 0.00952 84.18398 91.42768
95.4671 95.4117 101.0 0.00990 84.19176 91.38573
95.4838 95.4284 91.0 0.01099 84.19955 91.34483
95.5005 95.4451 90.0 0.01111 84.20733 91.30499
95.5173 95.4619 84.0 0.01191 84.21517 91.26582
95.5340 95.4786 98.0 0.01021 84.22295 91.22791
95.5507 95.4953 84.0 0.01191 84.23074 91.19093
95.5674 95.5120 91.0 0.01099 84.23853 91.15486
95.5841 95.5287 86.0 0.01163 84.24631 91.11967
95.6009 95.5455 91.0 0.01099 84.25414 91.08516
95.6176 95.5622 114.0 0.00877 84.26192 91.05167
95.6343 95.5789 93.0 0.01075 84.26971 91.01904
95.6510 95.5956 84.0 0.01191 84.27750 90.98720
95.6677 95.6123 90.0 0.01111 84.28528 90.95614
95.6844 95.6290 92.0 0.01087 84.29307 90.92587
95.7012 95.6458 115.0 0.00870 84.30090 90.89617
95.7179 95.6625 94.0 0.01064 84.30869 90.86742
95.7346 95.6792 109.0 0.00917 84.31646 90.83938
95.7513 95.6959 102.0 0.00980 84.32425 90.81205
95.7680 95.7126 83.0 0.01205 84.33203 90.78543
95.7848 95.7294 84.0 0.01191 84.33987 90.75933
95.8015 95.7461 84.0 0.01191 84.34766 90.73409
95.8182 95.7628 95.0 0.01053 84.35544 90.70949
95.8349 95.7795 115.0 0.00870 84.36322 90.68559
95.8516 95.7962 97.0 0.01031 84.37101 90.66230
95.8684 95.8130 72.0 0.01389 84.37884 90.63956
95.8851 95.8297 89.0 0.01124 84.38663 90.61754
95.9018 95.8464 81.0 0.01235 84.39441 90.59616
95.9185 95.8631 85.0 0.01176 84.40219 90.57540
95.9352 95.8798 84.0 0.01191 84.40998 90.55525
95.9519 95.8965 105.0 0.00952 84.41776 90.53569
95.9687 95.9133 96.0 0.01042 84.42560 90.51662
95.9854 95.9300 88.0 0.01136 84.43338 90.49826
96.0021 95.9467 98.0 0.01021 84.44116 90.48046
96.0188 95.9634 97.0 0.01031 84.44894 90.46325
96.0355 95.9801 105.0 0.00952 84.45673 90.44662
96.0523 95.9969 84.0 0.01191 84.46457 90.43044
96.0690 96.0136 76.0 0.01316 84.47235 90.46488
96.0857 96.0303 92.0 0.01087 84.48013 90.45011
96.1024 96.0470 82.0 0.01220 84.48792 90.43591
96.1191 96.0637 94.0 0.01064 84.49570 90.42226
96.1359 96.0805 101.0 0.00990 84.50353 90.40907
96.1526 96.0972 91.0 0.01099 84.51132 90.39648
96.1693 96.1139 92.0 0.01087 84.51910 90.38472
96.1860 96.1306 97.0 0.01031 84.52689 90.37322
96.2027 96.1473 87.0 0.01150 84.53468 90.36225
96.2194 96.1640 80.0 0.01250 84.54247 90.35180
96.2362 96.1808 98.0 0.01021 84.55029 90.34181
96.2529 96.1975 86.0 0.01163 84.55807 90.33243
96.2696 96.2142 102.0 0.00980 84.56586 90.32355
96.2863 96.2309 116.0 0.00862 84.57365 90.31522
96.3030 96.2476 113.0 0.00885 84.58142 90.30738
96.3198 96.2644 96.0 0.01042 84.58926 90.30000
96.3365 96.2811 82.0 0.01220 84.59705 90.29320
96.3532 96.2978 89.0 0.01124 84.60484 90.28692
96.3699 96.3145 87.0 0.01150 84.61262 90.28114
96.3866 96.3312 90.0 0.01111 84.62041 90.27587
96.4034 96.3480 115.0 0.00870 84.62823 90.27109
96.4201 96.3647 89.0 0.01124 84.63602 90.26685
96.4368 96.3814 100.0 0.01000 84.64381 90.26312
96.4535 96.3981 98.0 0.01021 84.65159 90.25993
96.4702 96.4148 104.0 0.00961 84.65938 90.25721
96.4869 96.4315 95.0 0.01053 84.66716 90.25502
96.5037 96.4483 104.0 0.00961 84.67499 90.25335
96.5204 96.4650 88.0 0.01136 84.68278 90.25218
96.5371 96.4817 99.0 0.01010 84.69056 90.25155
96.5538 96.4984 81.0 0.01235 84.69835 90.25142
96.5705 96.5151 112.0 0.00893 84.70612 90.25182
96.5873 96.5319 85.0 0.01176 84.71396 90.25275
96.6040 96.5486 109.0 0.00917 84.72158 90.25402
96.6207 96.5653 82.0 0.01220 84.72850 90.25515
96.6374 96.5820 103.0 0.00971 84.73543 90.25678
96.6541 96.5987 88.0 0.01136 84.74236 90.25894
96.6708 96.6154 99.0 0.01010 84.74928 90.30884
96.6876 96.6322 108.0 0.00926 84.75626 90.31232
96.7043 96.6489 97.0 0.01031 84.76318 90.31631
96.7210 96.6656 95.0 0.01053 84.77010 90.32086
96.7377 96.6823 89.0 0.01124 84.77703 90.32595
96.7544 96.6990 80.0 0.01250 84.78396 90.33161
96.7712 96.7158 118.0 0.00848 84.79092 90.33784
96.7879 96.7325 97.0 0.01031 84.79785 90.34464
96.8046 96.7492 96.0 0.01042 84.80478 90.35196
96.8213 96.7659 83.0 0.01205 84.81170 90.35987
96.8380 96.7826 95.0 0.01053 84.81863 90.36836
96.8548 96.7994 95.0 0.01053 84.82560 90.37750
96.8715 96.8161 96.0 0.01042 84.83253 90.38717
96.8882 96.8328 84.0 0.01191 84.83945 90.39743
96.9049 96.8495 96.0 0.01042 84.84637 90.40830
96.9216 96.8662 115.0 0.00870 84.85330 90.41979
96.9383 96.8829 83.0 0.01205 84.86023 90.43187
96.9551 96.8997 106.0 0.00943 84.86720 90.44467
96.9718 96.9164 87.0 0.01150 84.87413 90.45804
96.9885 96.9331 100.0 0.01000 84.88105 90.47204
97.0052 96.9498 113.0 0.00885 84.88798 90.52777
97.0219 96.9665 90.0 0.01111 84.89491 90.54327
97.0387 96.9833 82.0 0.01220 84.90188 90.55953
97.0554 97.0000 94.0 0.01064 84.90880 90.57639
97.0721 97.0167 93.0 0.01075 84.91573 90.59395
97.0888 97.0334 83.0 0.01205 84.92265 90.61217
97.1055 97.0501 91.0 0.01099 84.92957 90.63114
97.1223 97.0669 70.0 0.01428 84.93655 90.65096
97.1390 97.0836 94.0 0.01064 84.94348 90.67136
97.1557 97.1003 101.0 0.00990 84.95040 90.69253
97.1724 97.1170 84.0 0.01191 84.95733 90.71445
97.1891 97.1337 101.0 0.00990 84.96426 90.73714
97.2058 97.1504 85.0 0.01176 84.97118 90.76062
97.2226 97.1672 84.0 0.01191 84.97816 90.87803
97.2393 97.1839 83.0 0.01205 84.98508 87.96761
97.2560 97.2006 94.0 0.01064 84.99200 88.01070
97.2727 97.2173 73.0 0.01370 84.99893 88.05451
97.2894 97.2340 96.0 0.01042 85.00586 88.09904
97.3062 97.2508 90.0 0.01111 85.01283 88.14457
97.3229 97.2675 94.0 0.01064 85.01975 88.19064
97.3396 97.2842 96.0 0.01042 85.02668 88.23746
97.3563 97.3009 90.0 0.01111 85.03360 88.28511
97.3730 97.3176 93.0 0.01075 85.04053 88.33354
97.3898 97.3344 88.0 0.01136 85.04750 88.38322
97.4065 97.3511 86.0 0.01163 85.05443 88.43342
97.4232 97.3678 84.0 0.01191 85.06136 88.48450
97.4399 97.3845 86.0 0.01163 85.06828 88.53652
97.4566 97.4012 88.0 0.01136 85.07520 88.58949
97.4733 97.4179 95.0 0.01053 85.08213 88.64342
97.4901 97.4347 98.0 0.01021 85.08910 88.69872
97.5068 97.4514 92.0 0.01087 85.09603 88.75471
97.5235 97.4681 83.0 0.01205 85.10295 88.81174
97.5402 97.4848 101.0 0.00990 85.10988 88.86987
97.5569 97.5015 89.0 0.01124 85.11681 88.92912
97.5737 97.5183 116.0 0.00862 85.12377 88.98990
97.5904 97.5350 107.0 0.00935 85.13070 89.05153
97.6071 97.5517 88.0 0.01136 85.13763 89.11434
97.6238 97.5684 97.0 0.01031 85.14455 89.17845
97.6405 97.5851 98.0 0.01021 85.15147 89.24383
97.6573 97.6019 102.0 0.00980 85.15845 89.31104
97.6740 97.6186 97.0 0.01031 85.16537 89.37918
97.6907 97.6353 92.0 0.01087 85.17230 89.44875
97.7074 97.6520 92.0 0.01087 85.17923 89.57282
97.7241 97.6687 95.0 0.01053 85.18616 89.64567
97.7408 97.6854 75.0 0.01333 85.19308 89.72008
97.7576 97.7022 77.0 0.01299 85.20005 89.79660
97.7743 97.7189 105.0 0.00952 85.20698 89.87432
97.7910 97.7356 109.0 0.00917 85.21391 89.95377
97.8077 97.7523 91.0 0.01099 85.22083 90.03500
97.8244 97.7690 100.0 0.01000 85.22775 90.11808
97.8412 97.7858 93.0 0.01075 85.23473 90.20358
97.8579 97.8025 93.0 0.01075 85.24165 90.29057
97.8746 97.8192 121.0 0.00826 85.24858 90.37956
97.8913 97.8359 105.0 0.00952 85.25550 90.47067
97.9080 97.8526 92.0 0.01087 85.26243 90.56394
97.9248 97.8694 105.0 0.00952 85.26940 90.66019
97.9415 97.8861 94.0 0.01064 85.27633 90.75813
97.9582 97.9028 65.0 0.01539 85.28326 90.85848
97.9749 97.9195 99.0 0.01010 85.29018 90.96134
97.9916 97.9362 82.0 0.01220 85.29710 91.06681
98.0083 97.9529 86.0 0.01163 85.30403 91.17499
98.0251 97.9697 98.0 0.01021 85.31100 91.28670
98.0418 97.9864 98.0 0.01021 85.31793 91.40059
98.0585 98.0031 91.0 0.01099 85.32485 91.51755
98.0752 98.0198 77.0 0.01299 85.33178 91.63760
98.0919 98.0365 113.0 0.00885 85.33871 91.76093
98.1087 98.0533 101.0 0.00990 85.34567 91.88838
98.1254 98.0700 90.0 0.01111 85.35260 92.01863
98.1421 98.0867 91.0 0.01099 85.35953 92.15253
98.1588 98.1034 88.0 0.01136 85.36646 92.29026
98.1755 98.1201 79.0 0.01266 85.37337 92.43183
98.1923 98.1369 87.0 0.01150 85.38035 92.57867
98.2090 98.1536 92.0 0.01087 85.38728 92.72880
98.2257 98.1703 85.0 0.01176 85.39420 92.88342
98.2424 98.1870 81.0 0.01235 85.40113 93.04268
98.2591 98.2037 89.0 0.01124 85.40806 93.20683
98.2758 98.2204 80.0 0.01250 85.41498 93.37605
98.2926 98.2372 87.0 0.01150 85.42195 93.55173
98.3093 98.2539 82.0 0.01220 85.42888 93.73183
98.3260 98.2706 84.0 0.01191 85.43581 93.91774
98.3427 98.2873 110.0 0.00909 85.44273 94.10967
98.3594 98.3040 112.0 0.00893 85.44965 94.30800
98.3762 98.3208 87.0 0.01150 85.45662 94.51412
98.3929 98.3375 89.0 0.01124 85.46355 94.72605
98.4096 98.3542 96.0 0.01042 85.47047 94.94523
98.4263 98.3709 103.0 0.00971 85.47740 95.17204
98.4430 98.3876 99.0 0.01010 85.48432 95.40672
98.4598 98.4044 83.0 0.01205 85.49130 95.65168
98.4765 98.4211 94.0 0.01064 85.49822 95.90376
98.4932 98.4378 75.0 0.01333 85.50515 96.16514
98.5099 98.4545 108.0 0.00926 85.51208 96.43622
98.5266 98.4712 111.0 0.00900 85.51900 96.71757
98.5433 98.4879 109.0 0.00917 85.52593 97.00974
98.5601 98.5047 113.0 0.00885 85.53290 97.31525
98.5768 98.5214 109.0 0.00917 85.53983 97.63087
98.5935 98.5381 105.0 0.00952 85.54675 97.95913
98.6102 98.5548 91.0 0.01099 85.55368 98.30076
98.6269 98.5715 115.0 0.00870 85.56061 98.65652
98.6437 98.5883 113.0 0.00885 85.56757 99.02940
98.6604 98.6050 91.0 0.01099 85.57450 99.41602
98.6771 98.6217 106.0 0.00943 85.58143 99.81936
98.6938 98.6384 98.0 0.01021 85.58836 100.24069
98.7105 98.6551 95.0 0.01053 85.59528 100.68065
98.7272 98.6718 104.0 0.00961 85.60220 101.14060
98.7440 98.6886 106.0 0.00943 85.60918 101.62471
98.7607 98.7053 105.0 0.00952 85.61610 102.12872
98.7774 98.7220 87.0 0.01150 85.62303 102.65686
98.7941 98.7387 98.0 0.01021 85.62995 103.21073
98.8108 98.7554 94.0 0.01064 85.63688 103.79209
98.8276 98.7722 97.0 0.01031 85.64385 104.40685
98.8443 98.7889 119.0 0.00840 85.65078 105.04931
98.8610 98.8056 122.0 0.00819 85.65771 105.72558
98.8777 98.8223 111.0 0.00900 85.66463 106.43819
98.8944 98.8390 105.0 0.00952 85.67155 107.19000
98.9112 98.8558 102.0 0.00980 85.67852 107.98898
98.9279 98.8725 96.0 0.01042 85.68545 108.82941
98.9446 98.8892 114.0 0.00877 85.69238 109.71989
98.9613 98.9059 113.0 0.00885 85.69930 110.66512
98.9780 98.9226 110.0 0.00909 85.70623 111.67112
98.9947 98.9393 114.0 0.00877 85.71316 112.74304
99.0115 98.9561 131.0 0.00763 85.72012 113.89581
99.0282 98.9728 119.0 0.00840 85.72705 115.12489
99.0449 98.9895 121.0 0.00826 85.73398 116.44714
99.0616 99.0062 127.0 0.00787 85.74091 117.87508
99.0783 99.0229 126.0 0.00794 85.74783 119.42358
99.0951 99.0397 106.0 0.00943 85.75480 121.12173
99.1118 99.0564 127.0 0.00787 85.76173 122.96899
99.1285 99.0731 123.0 0.00813 85.76865 125.00069
99.1452 99.0898 139.0 0.00719 85.77558 127.24625
99.1619 99.1065 135.0 0.00741 85.78251 129.73996
99.1787 99.1233 138.0 0.00724 85.78947 132.53851
99.1954 99.1400 144.0 0.00694 85.79640 135.65504
99.2121 99.1567 146.0 0.00685 85.80332 139.15620
99.2288 99.1734 150.0 0.00666 85.81026 143.10168
99.2455 99.1901 162.0 0.00617 85.81718 147.54997
99.2622 99.2068 156.0 0.00641 85.82411 152.57150
99.2790 99.2236 162.0 0.00617 85.83108 158.27423
99.2957 99.2403 184.0 0.00544 85.83800 164.66855
99.3124 99.2570 205.0 0.00488 85.84492 171.86392
99.3291 99.2737 199.0 0.00502 85.85185 179.93892
99.3458 99.2904 191.0 0.00524 85.85878 188.97038
99.3626 99.3072 229.0 0.00437 85.86575 199.09949
99.3793 99.3239 228.0 0.00439 85.87267 210.26344
99.3960 99.3406 240.0 0.00417 85.87960 222.58055
99.4127 99.3573 294.0 0.003400 85.88653 236.09470
99.4294 99.3740 249.0 0.00402 85.89346 250.83308
99.4462 99.3908 301.0 0.003322 85.90042 266.89758
99.4629 99.4075 304.0 0.003288 85.90735 284.07770
99.4796 99.4242 334.0 0.002993 85.91428 302.40292
99.4963 99.4409 339.0 0.002950 85.92120 321.76645
99.5130 99.4576 323.0 0.003097 85.92813 342.01709
99.5297 99.4743 373.0 0.002682 85.93506 362.90262
99.5465 99.4911 406.0 0.002463 85.94202 384.26208
99.5632 99.5078 425.0 0.002352 85.94895 405.48727
99.5799 99.5245 451.0 0.002217 85.95588 426.30624
99.5966 99.5412 435.0 0.002298 85.96281 446.32919
99.6133 99.5579 455.0 0.002198 85.96973 465.22906
99.6301 99.5747 451.0 0.002217 85.97670 482.91022
99.6468 99.5914 510.0 0.001961 85.98363 499.11014
99.6635 99.6081 495.0 0.002020 85.99055 514.08911
99.6802 99.6248 475.0 0.002106 85.99748 528.14093
99.6969 99.6415 532.0 0.001879 86.00441 541.65094
99.7137 99.6583 508.0 0.001968 86.01138 555.09802
99.7304 99.6750 536.0 0.001866 86.01830 568.66943
99.7471 99.6917 587.0 0.001703 86.02522 582.66644
99.7638 99.7084 537.0 0.001863 86.03216 597.15802
99.7805 99.7251 638.0 0.001567 86.03909 611.99811
99.7972 99.7418 620.0 0.001613 86.04601 627.04352
99.8140 99.7586 684.0 0.001462 86.05297 641.46753
99.8307 99.7753 648.0 0.001543 86.05990 654.54779
99.8474 99.7920 671.0 0.001491 86.06683 665.48676
99.8641 99.8087 721.0 0.001387 86.07375 673.32568
99.8808 99.8254 697.0 0.001435 86.08068 677.13818
99.8976 99.8422 668.0 0.001497 86.08765 676.13428
99.9143 99.8589 645.0 0.001550 86.09457 669.83960
99.9310 99.8756 651.0 0.001537 86.10150 658.14484
99.9477 99.8923 679.0 0.001472 86.10843 641.31512
99.9644 99.9090 628.0 0.001592 86.11536 619.95050
99.9812 99.9258 588.0 0.001700 86.12232 594.72943
99.9979 99.9425 528.0 0.001894 86.12925 566.87976
100.0150 99.9596 507.0 0.001972 86.13634 536.54077
100.0310 99.9756 492.0 0.002033 86.14298 507.24838
100.0480 99.9926 443.0 0.002257 86.15002 475.99161
100.0650 100.0096 455.0 0.002198 86.15708 445.12756
100.0820 100.0266 405.0 0.002470 86.16413 415.22653
100.0980 100.0426 399.0 0.002508 86.17076 388.30560
100.1150 100.0596 377.0 0.002652 86.17782 361.17963
100.1320 100.0766 313.0 0.003196 86.18487 335.80826
100.1480 100.0926 325.0 0.003076 86.19150 313.63162
100.1650 100.1096 286.0 0.003497 86.19855 291.86359
100.1820 100.1266 284.0 0.00352 86.20560 272.00455
100.1990 100.1436 283.0 0.00353 86.21266 253.97073
100.2150 100.1596 231.0 0.00433 86.21929 238.63980
100.2320 100.1766 245.0 0.00408 86.22634 223.99457
100.2490 100.1936 197.0 0.00507 86.23340 210.91992
100.2650 100.2096 203.0 0.00492 86.24003 199.96863
100.2820 100.2266 229.0 0.00437 86.24708 189.64174
100.2990 100.2436 193.0 0.00518 86.25414 180.52570
100.3150 100.2596 178.0 0.00562 86.26077 172.95648
100.3320 100.2766 184.0 0.00544 86.26782 165.86365
100.3490 100.2936 179.0 0.00559 86.27487 159.62642
100.3660 100.3106 159.0 0.00629 86.28193 154.14795
100.3820 100.3266 170.0 0.00588 86.28855 149.59671
100.3990 100.3436 161.0 0.00621 86.29561 145.30696
100.4160 100.3606 139.0 0.00719 86.30267 142.17374
100.4330 100.3776 143.0 0.00699 86.30972 138.80338
100.4490 100.3936 128.0 0.00782 86.31635 135.96339
100.4660 100.4106 152.0 0.00658 86.32340 133.24689
100.4830 100.4276 137.0 0.00731 86.33045 130.79791
100.4990 100.4436 128.0 0.00782 86.33709 128.70427
100.5160 100.4606 149.0 0.00671 86.34414 126.67236
100.5330 100.4776 133.0 0.00752 86.35119 124.81554
100.5500 100.4946 142.0 0.00704 86.35824 123.10632
100.5660 100.5106 160.0 0.00625 86.36488 121.61925
100.5830 100.5275 133.0 0.00752 86.37193 120.15488
100.6000 100.5446 131.0 0.00763 86.37897 118.79233
100.6170 100.5616 110.0 0.00909 86.38603 117.52381
100.6330 100.5776 121.0 0.00826 86.39266 116.40768
100.6500 100.5946 128.0 0.00782 86.39972 115.29397
100.6670 100.6116 118.0 0.00848 86.40677 114.25034
100.6830 100.6276 118.0 0.00848 86.41340 113.32700
100.7000 100.6446 131.0 0.00763 86.42046 112.40112
100.7170 100.6616 110.0 0.00909 86.42751 111.53017
100.7340 100.6786 98.0 0.01021 86.43456 110.70798
100.7500 100.6946 113.0 0.00885 86.44119 109.97704
100.7670 100.7116 124.0 0.00806 86.44824 109.24215
100.7840 100.7286 107.0 0.00935 86.45530 108.54637
100.8000 100.7446 118.0 0.00848 86.46194 107.92615
100.8170 100.7616 104.0 0.00961 86.46898 107.30110
100.8340 100.7786 106.0 0.00943 86.47604 106.70789
100.8500 100.7946 101.0 0.00990 86.48267 106.17799
100.8670 100.8116 100.0 0.01000 86.48972 105.64282
100.8840 100.8286 107.0 0.00935 86.49677 105.13399
100.9010 100.8456 103.0 0.00971 86.50383 104.92811
100.9170 100.8616 120.0 0.00834 86.51046 104.49650
100.9340 100.8786 96.0 0.01042 86.51751 104.05894
100.9510 100.8956 105.0 0.00952 86.52457 103.63857
100.9680 100.9126 85.0 0.01176 86.53162 103.24229
100.9840 100.9286 111.0 0.00900 86.53825 102.88660
101.0010 100.9456 103.0 0.00971 86.54530 102.52580
101.0180 100.9626 85.0 0.01176 86.55235 102.18178
101.0340 100.9786 89.0 0.01124 86.55899 101.87267
101.0510 100.9956 88.0 0.01136 86.56604 101.55874
101.0680 101.0126 103.0 0.00971 86.57308 101.25948
101.0850 101.0296 122.0 0.00819 86.58014 100.97329
101.1010 101.0456 101.0 0.00990 86.58678 100.71579
101.1180 101.0626 89.0 0.01124 86.59383 100.45449
101.1350 101.0796 93.0 0.01075 86.60088 100.20442
101.1520 101.0966 104.0 0.00961 86.60793 99.96561
101.1680 101.1126 111.0 0.00900 86.61456 99.75072
101.1850 101.1296 95.0 0.01053 86.62161 99.53185
101.2020 101.1466 107.0 0.00935 86.62867 99.32275
101.2180 101.1626 120.0 0.00834 86.63530 99.13457
101.2350 101.1796 110.0 0.00909 86.64236 98.94283
101.2520 101.1966 83.0 0.01205 86.64940 98.75977
101.2690 101.2136 112.0 0.00893 86.65646 98.58457
101.2850 101.2296 88.0 0.01136 86.66309 98.42688
101.3020 101.2466 109.0 0.00917 86.67014 98.26656
101.3190 101.2636 109.0 0.00917 86.67719 98.11315
101.3350 101.2796 101.0 0.00990 86.68383 97.97515
101.3520 101.2966 94.0 0.01064 86.69088 97.83494
101.3690 101.3136 100.0 0.01000 86.69794 97.99489
101.3850 101.3296 112.0 0.00893 86.70457 97.87572
101.4020 101.3466 91.0 0.01099 86.71162 97.75484
101.4190 101.3636 74.0 0.01351 86.71867 97.63947
101.4360 101.3806 90.0 0.01111 86.72572 97.52962
101.4520 101.3966 97.0 0.01031 86.73236 97.43114
101.4690 101.4136 112.0 0.00893 86.73941 97.33126
101.4860 101.4306 90.0 0.01111 86.74647 97.23638
101.5030 101.4476 120.0 0.00834 86.75352 97.14625
101.5190 101.4636 98.0 0.01021 86.76015 97.06567
101.5360 101.4806 104.0 0.00961 86.76720 96.98435
101.5530 101.4976 112.0 0.00893 86.77425 96.90736
101.5690 101.5136 79.0 0.01266 86.78088 96.83879
101.5860 101.5306 93.0 0.01075 86.78794 96.76989
101.6030 101.5476 86.0 0.01163 86.79498 96.70500
101.6200 101.5646 76.0 0.01316 86.80204 96.64392
101.6360 101.5806 90.0 0.01111 86.80868 96.58989
101.6530 101.5975 100.0 0.01000 86.81572 96.53613
101.6700 101.6146 93.0 0.01075 86.82278 96.48587
101.6870 101.6316 107.0 0.00935 86.82983 96.43914
101.7030 101.6476 96.0 0.01042 86.83646 96.39835
101.7200 101.6646 108.0 0.00926 86.84351 96.35824
101.7370 101.6816 89.0 0.01124 86.85057 96.32143
101.7530 101.6976 97.0 0.01031 86.85720 96.28978
101.7700 101.7146 75.0 0.01333 86.86425 96.25917
101.7870 101.7316 106.0 0.00943 86.87130 96.23174
101.8040 101.7486 107.0 0.00935 86.87836 96.20734
101.8200 101.7646 88.0 0.01136 86.88499 96.18717
101.8370 101.7816 79.0 0.01266 86.89204 96.16866
101.8540 101.7986 106.0 0.00943 86.89909 96.15307
101.8700 101.8146 110.0 0.00909 86.90573 96.14108
101.8870 101.8316 86.0 0.01163 86.91278 96.13113
101.9040 101.8486 95.0 0.01053 86.91984 96.12404
101.9210 101.8656 113.0 0.00885 86.92689 96.11979
101.9370 101.8816 112.0 0.00893 86.93352 96.11835
101.9540 101.8986 130.0 0.00769 86.94057 96.11955
101.9710 101.9156 97.0 0.01031 86.94762 96.12357
101.9870 101.9316 96.0 0.01042 86.95425 96.12983
102.0040 101.9486 122.0 0.00819 86.96131 96.13921
102.0210 101.9656 112.0 0.00893 86.96836 96.15136
102.0380 101.9826 64.0 0.01563 86.97542 96.16627
102.0540 101.9986 117.0 0.00854 86.98205 96.18282
102.0710 102.0156 101.0 0.00990 86.98911 96.20313
102.0880 102.0326 81.0 0.01235 86.99615 96.22621
102.1040 102.0486 100.0 0.01000 87.00278 96.25051
102.1210 102.0656 93.0 0.01075 87.00984 96.27903
102.1380 102.0826 82.0 0.01220 87.01688 96.31037
102.1550 102.0996 100.0 0.01000 87.02394 96.34465
102.1710 102.1156 97.0 0.01031 87.03058 96.37952
102.1880 102.1326 99.0 0.01010 87.03762 96.41937
102.2050 102.1496 90.0 0.01111 87.04468 96.46225
102.2220 102.1666 105.0 0.00952 87.05173 96.50808
102.2380 102.1826 108.0 0.00926 87.05836 96.55396
102.2550 102.1996 97.0 0.01031 87.06541 96.60578
102.2720 102.2166 102.0 0.00980 87.07247 96.66071
102.2880 102.2326 77.0 0.01299 87.07909 96.71526
102.3050 102.2496 103.0 0.00971 87.08615 96.77651
102.3220 102.2666 84.0 0.01191 87.09320 96.84099
102.3390 102.2836 92.0 0.01087 87.10026 96.90894
102.3550 102.2996 102.0 0.00980 87.10690 96.97600
102.3720 102.3166 104.0 0.00961 87.11394 97.05068
102.3890 102.3336 97.0 0.01031 87.12099 97.12910
102.4050 102.3496 109.0 0.00917 87.12763 97.20626
102.4220 102.3666 87.0 0.01150 87.13467 97.29198
102.4390 102.3836 116.0 0.00862 87.14173 97.38171
102.4550 102.3996 100.0 0.01000 87.14837 97.46984
102.4720 102.4166 111.0 0.00900 87.15542 97.56753
102.4890 102.4336 102.0 0.00980 87.16248 97.66969
102.5060 102.4506 99.0 0.01010 87.16953 97.77630
102.5220 102.4666 89.0 0.01124 87.17616 97.88081
102.5390 102.4836 116.0 0.00862 87.18321 97.99677
102.5560 102.5006 96.0 0.01042 87.19026 98.11771
102.5730 102.5176 126.0 0.00794 87.19731 98.24394
102.5890 102.5336 119.0 0.00840 87.20395 98.36777
102.6060 102.5506 111.0 0.00900 87.21100 98.50498
102.6230 102.5676 123.0 0.00813 87.21806 98.64831
102.6390 102.5836 95.0 0.01053 87.22469 98.78897
102.6560 102.6006 96.0 0.01042 87.23174 98.94499
102.6730 102.6176 94.0 0.01064 87.23878 99.10789
102.6900 102.6346 108.0 0.00926 87.24584 99.27859
102.7060 102.6506 122.0 0.00819 87.25248 99.44639
102.7230 102.6676 101.0 0.00990 87.25952 99.63248
102.7400 102.6846 117.0 0.00854 87.26658 99.82765
102.7570 102.7016 113.0 0.00885 87.27363 100.03194
102.7730 102.7176 110.0 0.00909 87.28026 100.23290
102.7900 102.7346 99.0 0.01010 87.28732 100.45663
102.8070 102.7516 117.0 0.00854 87.29436 100.69090
102.8230 102.7676 100.0 0.01000 87.30100 100.92131
102.8400 102.7846 104.0 0.00961 87.30805 101.17776
102.8570 102.8016 110.0 0.00909 87.31510 101.44593
102.8740 102.8186 92.0 0.01087 87.32216 101.72684
102.8900 102.8346 108.0 0.00926 87.32879 102.00267
102.9070 102.8516 103.0 0.00971 87.33584 102.30840
102.9240 102.8686 100.0 0.01000 87.34290 102.62782
102.9400 102.8846 105.0 0.00952 87.34953 102.94054
102.9570 102.9016 108.0 0.00926 87.35658 103.28589
102.9740 102.9186 96.0 0.01042 87.36363 103.64517
102.9900 102.9346 102.0 0.00980 87.37027 103.99523
103.0070 102.9516 100.0 0.01000 87.37731 104.37981
103.0240 102.9686 101.0 0.00990 87.38437 104.77771
103.0410 102.9856 105.0 0.00952 87.39143 105.18799
103.0570 103.0016 88.0 0.01136 87.39806 105.58529
103.0740 103.0186 97.0 0.01031 87.40511 106.02070
103.0910 103.0356 110.0 0.00909 87.41216 106.46972
103.1080 103.0526 99.0 0.01010 87.41921 106.93410
103.1240 103.0686 119.0 0.00840 87.42585 107.38691
103.1410 103.0856 105.0 0.00952 87.43290 107.89043
103.1580 103.1026 96.0 0.01042 87.43995 108.41411
103.1740 103.1186 107.0 0.00935 87.44659 108.93071
103.1910 103.1356 111.0 0.00900 87.45364 109.50861
103.2080 103.1525 113.0 0.00885 87.46068 110.11900
103.2250 103.1696 100.0 0.01000 87.46774 110.76753
103.2410 103.1856 118.0 0.00848 87.47438 111.41521
103.2580 103.2026 120.0 0.00834 87.48142 112.14628
103.2750 103.2196 98.0 0.01021 87.48848 112.92852
103.2920 103.2366 137.0 0.00731 87.49553 113.76550
103.3080 103.2526 113.0 0.00885 87.50216 114.60817
103.3250 103.2696 98.0 0.01021 87.50922 115.57066
103.3420 103.2866 122.0 0.00819 87.51627 116.60823
103.3580 103.3026 111.0 0.00900 87.52290 117.66101
103.3750 103.3196 111.0 0.00900 87.52995 118.87381
103.3920 103.3366 125.0 0.00800 87.53700 120.19291
103.4090 103.3536 127.0 0.00787 87.54406 121.63639
103.4250 103.3696 137.0 0.00731 87.55069 123.12154
103.4420 103.3866 140.0 0.00715 87.55774 124.85453
103.4590 103.4036 132.0 0.00757 87.56480 126.77345
103.4750 103.4196 136.0 0.00736 87.57143 128.77057
103.4920 103.4366 150.0 0.00666 87.57848 131.12743
103.5090 103.4536 154.0 0.00649 87.58553 133.76608
103.5250 103.4696 140.0 0.00715 87.59217 136.53966
103.5420 103.4866 149.0 0.00671 87.59921 139.84177
103.5590 103.5036 149.0 0.00671 87.60627 143.56738
103.5760 103.5206 150.0 0.00666 87.61332 147.77016
103.5920 103.5366 171.0 0.00585 87.61996 152.21802
103.6090 103.5536 173.0 0.00578 87.62701 157.54793
103.6260 103.5706 174.0 0.00575 87.63406 163.56624
103.6430 103.5876 171.0 0.00585 87.64111 170.35939
103.6590 103.6036 188.0 0.00532 87.64775 177.53709
103.6760 103.6206 196.0 0.00510 87.65480 186.08899
103.6930 103.6376 196.0 0.00510 87.66185 195.68297
103.7090 103.6536 203.0 0.00492 87.66849 205.74286
103.7260 103.6706 240.0 0.00417 87.67554 217.61691
103.7430 103.6876 220.0 0.00455 87.68258 230.76936
103.7600 103.7046 231.0 0.00433 87.68964 245.30327
103.7760 103.7206 270.0 0.00370 87.69628 260.25830
103.7930 103.7376 270.0 0.00370 87.70332 277.49783
103.8100 103.7546 298.0 0.003357 87.71037 296.16431
103.8270 103.7716 313.0 0.003196 87.71743 316.15677
103.8430 103.7876 315.0 0.003174 87.72406 336.08063
103.8600 103.8046 335.0 0.002986 87.73112 358.34018
103.8770 103.8216 373.0 0.002682 87.73817 381.49561
103.8930 103.8376 391.0 0.002559 87.74480 403.90814
103.9100 103.8546 394.0 0.002538 87.75185 428.22391
103.9270 103.8716 469.0 0.002131 87.75890 452.76056
103.9440 103.8886 470.0 0.002128 87.76595 477.32968
103.9600 103.9046 485.0 0.002062 87.77259 500.19894
103.9770 103.9216 487.0 0.002053 87.77964 523.95984
103.9940 103.9386 554.0 0.001805 87.78670 546.85541
104.0100 103.9546 592.0 0.001689 87.79333 567.20630
104.0270 103.9716 609.0 0.001642 87.80038 587.13995
104.0440 103.9886 569.0 0.001758 87.80743 604.87549
104.0610 104.0056 676.0 0.001479 87.81448 619.87170
104.0770 104.0216 635.0 0.001575 87.82111 631.03430
104.0940 104.0386 637.0 0.001570 87.82817 639.33582
104.1110 104.0556 662.0 0.001510 87.83523 643.54413
104.1270 104.0716 638.0 0.001567 87.84185 643.49133
104.1440 104.0886 604.0 0.001655 87.84891 638.99902
104.1610 104.1056 605.0 0.001652 87.85596 629.93542
104.1780 104.1226 607.0 0.001647 87.86301 616.48529
104.1940 104.1386 594.0 0.001684 87.86964 600.15710
104.2110 104.1556 555.0 0.001802 87.87670 579.39874
104.2280 104.1726 504.0 0.001984 87.88375 555.76398
104.2440 104.1886 532.0 0.001879 87.89039 531.53424
104.2610 104.2056 518.0 0.001930 87.89744 504.37030
104.2780 104.2225 484.0 0.002066 87.90448 476.41830
104.2950 104.2396 431.0 0.002320 87.91154 448.24362
104.3110 104.2556 421.0 0.002375 87.91817 422.05362
104.3280 104.2726 378.0 0.002646 87.92522 395.02142
104.3450 104.2896 370.0 0.002701 87.93227 369.05750
104.3620 104.3066 342.0 0.002925 87.93932 344.47473
104.3780 104.3226 320.0 0.003124 87.94596 322.76016
104.3950 104.3396 314.0 0.003185 87.95301 301.24173
104.4120 104.3566 288.0 0.003472 87.96007 281.41998
104.4280 104.3726 277.0 0.00361 87.96670 264.32144
104.4450 104.3896 256.0 0.00391 87.97375 247.73416
104.4620 104.4066 257.0 0.00389 87.98080 232.76244
104.4790 104.4236 254.0 0.00394 87.98785 219.29181
104.4950 104.4396 240.0 0.00417 87.99449 207.92650
104.5120 104.4566 221.0 0.00452 88.00154 197.13586
104.5290 104.4736 225.0 0.00444 88.00860 187.54936
104.5450 104.4896 212.0 0.00472 88.01523 179.54643
104.5620 104.5066 212.0 0.00472 88.02228 172.01474
104.5790 104.5236 174.0 0.00575 88.02934 165.37117
104.5950 104.5396 200.0 0.00500 88.03596 159.85266
104.6120 104.5566 185.0 0.00541 88.04301 154.67445
104.6290 104.5736 166.0 0.00603 88.05007 150.11087
104.6460 104.5906 170.0 0.00588 88.05712 146.09146
104.6620 104.6066 139.0 0.00719 88.06375 142.74225
104.6790 104.6236 161.0 0.00621 88.07081 139.57600
104.6960 104.6406 154.0 0.00649 88.07786 136.76653
104.7130 104.6576 154.0 0.00649 88.08492 134.26314
104.7290 104.6736 141.0 0.00710 88.09155 132.14944
104.7460 104.6906 145.0 0.00690 88.09859 130.12486
104.7630 104.7076 150.0 0.00666 88.10565 128.29857
104.7790 104.7236 127.0 0.00787 88.11229 126.73740
104.7960 104.7406 137.0 0.00731 88.11934 125.22346
104.8130 104.7576 134.0 0.00746 88.12638 123.84217
104.8300 104.7746 116.0 0.00862 88.13344 122.57338
104.8460 104.7906 139.0 0.00719 88.14008 121.47234
104.8630 104.8076 105.0 0.00952 88.14712 120.39142
104.8800 104.8246 124.0 0.00806 88.15417 119.38910
104.8960 104.8406 104.0 0.00961 88.16081 118.51215
104.9130 104.8576 124.0 0.00806 88.16785 117.64488
104.9300 104.8746 121.0 0.00826 88.17491 116.83546
104.9470 104.8916 119.0 0.00840 88.18196 116.08045
104.9630 104.9076 119.0 0.00840 88.18860 115.41570
104.9800 104.9246 110.0 0.00909 88.19566 114.75249
104.9970 104.9416 107.0 0.00935 88.20271 114.13171
105.0130 104.9576 106.0 0.00943 88.20934 113.58360
105.0300 104.9746 115.0 0.00870 88.21639 113.03546
105.0470 104.9916 107.0 0.00935 88.22343 112.52171
105.0640 105.0086 99.0 0.01010 88.23049 112.03887
105.0800 105.0246 91.0 0.01099 88.23713 111.61174
105.0970 105.0416 108.0 0.00926 88.24418 111.18479
105.1140 105.0586 113.0 0.00885 88.25124 110.78334
105.1300 105.0746 91.0 0.01099 88.25787 110.42812
105.1470 105.0916 118.0 0.00848 88.26492 110.07310
105.1640 105.1086 115.0 0.00870 88.27197 109.73937
105.1810 105.1256 106.0 0.00943 88.27902 109.42634
105.1970 105.1416 119.0 0.00840 88.28565 109.14967
105.2140 105.1586 118.0 0.00848 88.29271 108.87305
105.2310 105.1756 100.0 0.01000 88.29976 108.61403
105.2480 105.1926 129.0 0.00775 88.30682 108.37150
105.2640 105.2086 102.0 0.00980 88.31345 108.15765
105.2810 105.2256 98.0 0.01021 88.32050 107.94483
105.2980 105.2426 103.0 0.00971 88.32755 107.74630
105.3140 105.2586 99.0 0.01010 88.33418 107.57185
105.3310 105.2756 113.0 0.00885 88.34124 107.39906
105.3480 105.2926 113.0 0.00885 88.34828 107.23889
105.3650 105.3096 96.0 0.01042 88.35534 107.09029
105.3810 105.3256 107.0 0.00935 88.36198 106.99493
105.3980 105.3426 101.0 0.00990 88.36902 106.86838
105.4150 105.3596 120.0 0.00834 88.37608 106.75214
105.4310 105.3756 107.0 0.00935 88.38271 106.65199
105.4480 105.3926 91.0 0.01099 88.38976 106.55519
105.4650 105.4096 119.0 0.00840 88.39681 106.46763
105.4820 105.4266 107.0 0.00935 88.40386 106.38918
105.4980 105.4426 106.0 0.00943 88.41049 106.32342
105.5150 105.4596 114.0 0.00877 88.41755 106.26170
105.5320 105.4766 94.0 0.01064 88.42460 106.20828
105.5490 105.4936 112.0 0.00893 88.43166 106.16280
105.5650 105.5096 88.0 0.01136 88.43829 106.12715
105.5820 105.5266 124.0 0.00806 88.44534 106.09662
105.5990 105.5436 105.0 0.00952 88.45239 106.07341
105.6150 105.5596 114.0 0.00877 88.45903 106.05815
105.6320 105.5766 102.0 0.00980 88.46607 106.04877
105.6490 105.5936 111.0 0.00900 88.47313 106.04630
105.6650 105.6096 109.0 0.00917 88.47977 106.05012
105.6820 105.6266 109.0 0.00917 88.47280 106.04658
105.6990 105.6436 115.0 0.00870 88.46534 106.04906
105.7160 105.6606 113.0 0.00885 88.45788 106.05791
105.7320 105.6766 104.0 0.00961 88.45087 106.07201
105.7490 105.6936 119.0 0.00840 88.44341 106.09306
105.7660 105.7106 103.0 0.00971 88.43595 106.12019
105.7830 105.7276 111.0 0.00900 88.42849 106.15344
105.7990 105.7436 100.0 0.01000 88.42147 106.19017
105.8160 105.7606 108.0 0.00926 88.41402 106.23504
105.8330 105.7775 125.0 0.00800 88.40656 106.28580
105.8490 105.7936 98.0 0.01021 88.39954 106.33893
105.8660 105.8106 90.0 0.01111 88.39208 106.40108
105.8830 105.8276 104.0 0.00961 88.38464 106.46901
105.9000 105.8446 105.0 0.00952 88.37717 106.54284
105.9160 105.8606 118.0 0.00848 88.37016 106.61764
105.9330 105.8776 101.0 0.00990 88.36270 106.70264
105.9500 105.8946 115.0 0.00870 88.35524 106.79361
105.9660 105.9106 95.0 0.01053 88.34822 106.88456
105.9830 105.9276 102.0 0.00980 88.34077 106.98671
106.0000 105.9446 104.0 0.00961 88.33331 107.09496
106.0170 105.9616 95.0 0.01053 88.32585 107.20903
106.0330 105.9776 97.0 0.01031 88.31884 107.32175
106.0500 105.9946 102.0 0.00980 88.31138 107.44755
106.0670 106.0116 121.0 0.00826 88.30392 107.57924
106.0840 106.0286 122.0 0.00819 88.29646 107.71723
106.1000 106.0446 95.0 0.01053 88.28944 107.85265
106.1170 106.0616 105.0 0.00952 88.28200 108.00258
106.1340 106.0786 107.0 0.00935 88.27453 108.15903
106.1500 106.0946 112.0 0.00893 88.26752 108.31201
106.1670 106.1116 100.0 0.01000 88.26006 108.48084
106.1840 106.1286 103.0 0.00971 88.25260 108.65652
106.2010 106.1456 127.0 0.00787 88.24514 108.83882
106.2170 106.1616 115.0 0.00870 88.23813 109.01652
106.2340 106.1786 101.0 0.00990 88.23067 109.21236
106.2510 106.1956 108.0 0.00926 88.22321 109.41522
106.2670 106.2116 99.0 0.01010 88.21619 109.61259
106.2840 106.2286 112.0 0.00893 88.20873 109.82980
106.3010 106.2456 111.0 0.00900 88.20128 110.05443
106.3180 106.2626 113.0 0.00885 88.19382 110.28677
106.3340 106.2786 108.0 0.00926 88.18680 110.51260
106.3510 106.2956 121.0 0.00826 88.17934 110.76044
106.3680 106.3126 115.0 0.00870 88.17188 111.01656
106.3840 106.3286 104.0 0.00961 88.16487 111.26527
106.4010 106.3456 102.0 0.00980 88.15741 111.53801
106.4180 106.3626 104.0 0.00961 88.14996 111.81936
106.4350 106.3796 126.0 0.00794 88.14250 112.11031
106.4510 106.3956 128.0 0.00782 88.13548 112.39266
106.4680 106.4126 97.0 0.01031 88.12804 112.70157
106.4850 106.4296 112.0 0.00893 88.12057 113.02093
106.5010 106.4456 118.0 0.00848 88.11355 113.33070
106.5180 106.4626 136.0 0.00736 88.10610 113.66956
106.5350 106.4796 133.0 0.00752 88.09864 114.01982
106.5520 106.4966 125.0 0.00800 88.09118 114.38101
106.5680 106.5126 107.0 0.00935 88.08417 114.73109
106.5850 106.5296 128.0 0.00782 88.07671 115.11513
106.6020 106.5466 119.0 0.00840 88.06925 115.51093
106.6190 106.5636 126.0 0.00794 88.06179 115.91978
106.6350 106.5796 103.0 0.00971 88.05477 116.31615
106.6520 106.5966 133.0 0.00752 88.04732 116.75022
106.6690 106.6136 117.0 0.00854 88.03986 117.19873
106.6850 106.6296 112.0 0.00893 88.03284 117.63359
106.7020 106.6466 99.0 0.01010 88.02539 118.10997
106.7190 106.6636 106.0 0.00943 88.01793 118.60231
106.7350 106.6796 123.0 0.00813 88.01091 119.07986
106.7520 106.6966 129.0 0.00775 88.00346 119.60317
106.7690 106.7136 129.0 0.00775 87.99599 120.14424
106.7860 106.7306 108.0 0.00926 87.98854 120.70280
106.8020 106.7466 105.0 0.00952 87.98152 121.24488
106.8190 106.7636 129.0 0.00775 87.97407 121.84033
106.8360 106.7806 129.0 0.00775 87.96661 122.45535
106.8530 106.7976 111.0 0.00900 87.95915 123.09110
106.8690 106.8136 131.0 0.00763 87.95213 123.70889
106.8860 106.8306 119.0 0.00840 87.94467 124.38729
106.9030 106.8475 94.0 0.01064 87.93722 125.08900
106.9190 106.8636 108.0 0.00926 87.93020 125.77139
106.9360 106.8806 108.0 0.00926 87.92274 126.52123
106.9530 106.8976 117.0 0.00854 87.91529 127.29652
106.9700 106.9146 131.0 0.00763 87.90783 128.10066
106.9860 106.9306 136.0 0.00736 87.90081 128.88351
107.0030 106.9476 125.0 0.00800 87.89336 129.74319
107.0200 106.9646 133.0 0.00752 87.88590 130.63568
107.0360 106.9806 126.0 0.00794 87.87888 131.50528
107.0530 106.9976 137.0 0.00731 87.87143 132.46112
107.0700 107.0146 141.0 0.00710 87.86397 133.45439
107.0870 107.0316 132.0 0.00757 87.85651 134.48462
107.1030 107.0476 121.0 0.00826 87.84949 135.48917
107.1200 107.0646 132.0 0.00757 87.84203 136.59813
107.1370 107.0816 133.0 0.00752 87.83458 137.74963
107.1530 107.0975 111.0 0.00900 87.82757 138.87372
107.1700 107.1146 127.0 0.00787 87.82011 140.11607
107.1870 107.1316 134.0 0.00746 87.81265 141.40695
107.2040 107.1486 161.0 0.00621 87.80519 142.75198
107.2200 107.1646 141.0 0.00710 87.79817 144.06723
107.2370 107.1816 98.0 0.01021 87.79072 145.52090
107.2540 107.1986 135.0 0.00741 87.78326 147.03766
107.2700 107.2146 143.0 0.00699 87.77624 148.52298
107.2870 107.2316 154.0 0.00649 87.76878 150.16696
107.3040 107.2486 123.0 0.00813 87.76132 151.88501
107.3210 107.2656 146.0 0.00685 87.75387 153.67830
107.3370 107.2816 150.0 0.00666 87.74686 155.43813
107.3540 107.2986 120.0 0.00834 87.73940 157.39366
107.3710 107.3156 137.0 0.00731 87.73193 159.43852
107.3880 107.3326 129.0 0.00775 87.72448 161.57950
107.4040 107.3486 151.0 0.00662 87.71746 163.68686
107.4210 107.3656 139.0 0.00719 87.71000 165.71817
107.4380 107.3826 175.0 0.00571 87.70255 168.17999
107.4540 107.3986 158.0 0.00633 87.69553 170.60846
107.4710 107.4156 152.0 0.00658 87.68807 173.31699
107.4880 107.4326 177.0 0.00565 87.68062 176.16260
107.5050 107.4496 167.0 0.00599 87.67316 179.16394
107.5210 107.4656 176.0 0.00568 87.66614 182.13596
107.5380 107.4826 182.0 0.00550 87.65869 185.82057
107.5550 107.4996 188.0 0.00532 87.65123 189.33907
107.5710 107.5156 216.0 0.00463 87.64420 192.83698
107.5880 107.5326 204.0 0.00490 87.63676 196.76494
107.6050 107.5496 181.0 0.00553 87.62930 200.94464
107.6220 107.5666 183.0 0.00546 87.62184 205.39217
107.6380 107.5826 209.0 0.00478 87.61483 209.84682
107.6550 107.5996 208.0 0.00481 87.60736 214.91032
107.6720 107.6166 191.0 0.00524 87.59991 220.34038
107.6890 107.6336 223.0 0.00449 87.59245 226.19736
107.7050 107.6496 243.0 0.00411 87.58543 232.13904
107.7220 107.6666 263.0 0.00380 87.57798 238.97495
107.7390 107.6836 250.0 0.00400 87.57052 246.43614
107.7550 107.6996 260.0 0.00385 87.56350 254.09697
107.7720 107.7166 287.0 0.003485 87.55605 263.02057
107.7890 107.7336 285.0 0.00351 87.54858 272.88596
107.8050 107.7496 292.0 0.003424 87.54156 283.13913
107.8220 107.7666 303.0 0.003299 87.53412 295.22144
107.8390 107.7836 361.0 0.002770 87.52665 308.72592
107.8560 107.8006 337.0 0.002967 87.51920 323.83655
107.8720 107.8166 351.0 0.002851 87.51218 339.72104
107.8890 107.8336 374.0 0.002674 87.50472 358.64908
107.9060 107.8506 428.0 0.002336 87.49726 379.92166
107.9230 107.8676 456.0 0.002194 87.48981 403.84500
107.9390 107.8836 476.0 0.002100 87.48279 429.05484
107.9560 107.9006 488.0 0.002049 87.47533 459.03568
107.9730 107.9176 545.0 0.001834 87.46787 492.63373
107.9890 107.9336 590.0 0.001695 87.46085 527.85681
108.0060 107.9506 618.0 0.001618 87.45340 569.46320
108.0230 107.9676 625.0 0.001600 87.44595 615.63818
108.0400 107.9846 711.0 0.001407 87.43848 666.83502
108.0560 108.0006 719.0 0.001391 87.43147 719.77710
108.0730 108.0176 824.0 0.001213 87.42402 781.23627
108.0900 108.0346 882.0 0.001134 87.41656 848.43427
108.1060 108.0506 947.0 0.001056 87.40954 916.89362
108.1230 108.0676 1024.0 0.000977 87.40208 995.07227
108.1400 108.0846 1117.0 0.000895 87.39462 1078.97217
108.1570 108.1016 1107.0 0.000903 87.38717 1168.11584
108.1730 108.1176 1266.0 0.000790 87.38016 1256.33618
108.1900 108.1346 1272.0 0.000786 87.37269 1354.26440
108.2070 108.1516 1460.0 0.000685 87.36524 1455.40588
108.2240 108.1686 1517.0 0.000659 87.35777 1558.96667
108.2400 108.1846 1599.0 0.000625 87.35076 1657.42664
108.2570 108.2016 1679.0 0.000595 87.34331 1762.04626
108.2740 108.2186 1759.0 0.000569 87.33585 1865.69983
108.2900 108.2346 1857.0 0.000539 87.32883 1961.24963
108.3070 108.2516 2003.0 0.000499 87.32137 2059.86108
108.3240 108.2686 2038.0 0.000491 87.31391 2154.83862
108.3410 108.2856 2161.0 0.000463 87.30646 2245.29883
108.3570 108.3016 2349.0 0.000426 87.29945 2325.64673
108.3740 108.3186 2451.0 0.000408 87.29198 2405.41138
108.3910 108.3356 2594.0 0.000386 87.28452 2478.40942
108.4070 108.3516 2597.0 0.000385 87.27751 2540.12524
108.4240 108.3686 2579.0 0.000388 87.27005 2597.53540
108.4410 108.3856 2694.0 0.000371 87.26259 2645.41602
108.4580 108.4025 2820.0 0.000355 87.25513 2682.71216
108.4740 108.4186 2705.0 0.000370 87.24812 2707.06006
108.4910 108.4356 2740.0 0.000365 87.24066 2720.27661
108.5080 108.4526 2755.0 0.000363 87.23320 2719.13086
108.5240 108.4686 2721.0 0.000368 87.22619 2703.84766
108.5410 108.4856 2729.0 0.000366 87.21873 2671.65015
108.5580 108.5026 2533.0 0.000395 87.21128 2622.73364
108.5750 108.5196 2492.0 0.000401 87.20382 2557.29565
108.5910 108.5356 2426.0 0.000412 87.19680 2481.70947
108.6080 108.5526 2243.0 0.000446 87.18935 2388.68726
108.6250 108.5696 2183.0 0.000458 87.18188 2283.97900
108.6410 108.5856 2013.0 0.000497 87.17487 2177.60229
108.6580 108.6026 1886.0 0.000530 87.16741 2059.02734
108.6750 108.6196 1773.0 0.000564 87.15995 1936.94885
108.6920 108.6366 1716.0 0.000583 87.15250 1814.02722
108.7080 108.6525 1554.0 0.000644 87.14548 1699.44556
108.7250 108.6696 1543.0 0.000648 87.13802 1580.17542
108.7420 108.6866 1383.0 0.000723 87.13057 1465.07922
108.7590 108.7036 1256.0 0.000796 87.12311 1354.89380
108.7750 108.7196 1201.0 0.000832 87.11609 1256.53394
108.7920 108.7366 1079.0 0.000927 87.10863 1158.07751
108.8090 108.7536 1044.0 0.000958 87.10117 1066.00793
108.8250 108.7696 996.0 0.001004 87.09416 985.47913
108.8420 108.7866 868.0 0.001152 87.08670 906.69141
108.8590 108.8036 840.0 0.001191 87.07925 833.97162
108.8760 108.8206 838.0 0.001193 87.07178 767.59741
108.8920 108.8366 782.0 0.001279 87.06477 710.70038
108.9090 108.8536 720.0 0.001389 87.05731 655.72229
108.9260 108.8706 671.0 0.001491 87.04985 606.16791
108.9420 108.8866 597.0 0.001676 87.04284 564.15601
108.9590 108.9036 605.0 0.001652 87.03538 523.95758
108.9760 108.9206 549.0 0.001822 87.02792 488.04114
108.9930 108.9376 548.0 0.001825 87.02046 455.99377
109.0090 108.9536 495.0 0.002020 87.01345 429.03629
109.0260 108.9706 465.0 0.002151 87.00599 403.43381
109.0430 108.9876 477.0 0.002096 86.99853 380.63885
109.0590 109.0036 453.0 0.002208 86.99152 361.47018
109.0760 109.0206 387.0 0.002585 86.98405 343.23682
109.0930 109.0376 349.0 0.002866 86.97661 326.96448
109.1100 109.0546 385.0 0.002598 86.96915 312.36578
109.1260 109.0706 367.0 0.002724 86.96213 299.99173
109.1430 109.0876 330.0 0.003029 86.95467 288.12375
109.1600 109.1046 306.0 0.003269 86.94721 277.37207
109.1760 109.1206 304.0 0.003288 86.94019 268.16272
109.1930 109.1376 277.0 0.00361 86.93275 259.23129
109.2100 109.1546 281.0 0.00356 86.92529 251.04308
109.2270 109.1716 259.0 0.00386 86.91782 243.52351
109.2430 109.1876 257.0 0.00389 86.91081 236.98599
109.2600 109.2046 237.0 0.00422 86.90335 230.53047
109.2770 109.2216 233.0 0.00429 86.89589 224.53706
109.2930 109.2376 253.0 0.00395 86.88888 219.27448
109.3100 109.2546 212.0 0.00472 86.88142 214.03020
109.3270 109.2716 219.0 0.00457 86.87396 209.12189
109.3440 109.2886 193.0 0.00518 86.86650 204.50642
109.3600 109.3046 209.0 0.00478 86.85949 200.41460
109.3770 109.3216 192.0 0.00521 86.85204 196.30858
109.3940 109.3386 192.0 0.00521 86.84457 192.42581
109.4100 109.3546 200.0 0.00500 86.83755 188.96667
109.4270 109.3716 188.0 0.00532 86.83010 185.48042
109.4440 109.3886 173.0 0.00578 86.82264 182.17041
109.4610 109.4056 158.0 0.00633 86.81518 179.02965
109.4770 109.4216 143.0 0.00699 86.80817 176.21873
109.4940 109.4386 159.0 0.00629 86.80070 173.36906
109.5110 109.4556 188.0 0.00532 86.79325 170.65752
109.5280 109.4725 154.0 0.00649 86.78579 168.07365
109.5440 109.4886 149.0 0.00671 86.77877 165.75218
109.5610 109.5056 150.0 0.00666 86.77132 163.39412
109.5780 109.5226 174.0 0.00575 86.76385 161.14223
109.5940 109.5386 160.0 0.00625 86.75684 159.11485
109.6110 109.5556 148.0 0.00675 86.74938 157.05153
109.6280 109.5726 144.0 0.00694 86.74194 155.07947
109.6450 109.5896 151.0 0.00662 86.73447 153.18808
109.6610 109.6056 141.0 0.00710 86.72746 151.48122
109.6780 109.6226 142.0 0.00704 86.72001 149.74310
109.6950 109.6396 137.0 0.00731 86.71254 148.07324
109.7110 109.6556 127.0 0.00787 86.70552 146.56380
109.7280 109.6726 146.0 0.00685 86.69807 145.02437
109.7450 109.6896 122.0 0.00819 86.69061 143.54311
109.7620 109.7066 131.0 0.00763 86.68315 142.12041
109.7780 109.7225 116.0 0.00862 86.67614 140.83269
109.7950 109.7396 132.0 0.00757 86.66868 139.51297
109.8120 109.7566 138.0 0.00724 86.66122 138.24432
109.8290 109.7736 155.0 0.00645 86.65376 137.02142
109.8450 109.7896 96.0 0.01042 86.64674 135.91263
109.8620 109.8066 133.0 0.00752 86.63929 134.77628
109.8790 109.8236 114.0 0.00877 86.63183 133.67957
109.8950 109.8396 117.0 0.00854 86.62482 132.68393
109.9120 109.8566 138.0 0.00724 86.61736 131.66240
109.9290 109.8736 130.0 0.00769 86.60990 130.67529
109.9450 109.8896 124.0 0.00806 86.60288 129.77820
109.9620 109.9066 117.0 0.00854 86.59543 128.85675
109.9790 109.9236 140.0 0.00715 86.58797 127.96538
109.9960 109.9406 105.0 0.00952 86.58051 127.10427
110.0120 109.9566 120.0 0.00834 86.57349 126.32060
110.0290 109.9736 105.0 0.00952 86.56603 125.51321
110.0460 109.9906 128.0 0.00782 86.55858 124.73247
110.0630 110.0076 99.0 0.01010 86.55112 123.97681
110.0790 110.0236 132.0 0.00757 86.54411 123.28784
110.0960 110.0406 120.0 0.00834 86.53664 122.57798
110.1130 110.0576 105.0 0.00952 86.52919 121.89034
110.1290 110.0736 120.0 0.00834 86.52217 121.26285
110.1460 110.0906 104.0 0.00961 86.51472 120.61577
110.1630 110.1076 101.0 0.00990 86.50726 119.98915
110.1800 110.1246 95.0 0.01053 86.49980 119.38038
110.1960 110.1406 103.0 0.00971 86.49278 118.82432
110.2130 110.1576 107.0 0.00935 86.48533 118.25132
110.2300 110.1746 112.0 0.00893 86.47787 117.69427
110.2460 110.1906 119.0 0.00840 86.47085 117.18507
110.2630 110.2076 117.0 0.00854 86.46340 116.66003
110.2800 110.2246 114.0 0.00877 86.45594 116.14925
110.2970 110.2416 106.0 0.00943 86.44848 115.65339
110.3130 110.2576 93.0 0.01075 86.44147 115.20001
110.3300 110.2746 95.0 0.01053 86.43401 114.73080
110.3470 110.2916 113.0 0.00885 86.42655 114.27526
110.3640 110.3086 95.0 0.01053 86.41909 113.83193
110.3800 110.3246 119.0 0.00840 86.41208 113.42628
110.3970 110.3416 111.0 0.00900 86.40462 113.00688
110.4140 110.3586 103.0 0.00971 86.39716 112.59850
110.4300 110.3746 116.0 0.00862 86.39014 112.22467
110.4470 110.3916 100.0 0.01000 86.38269 111.83801
110.4640 110.4086 120.0 0.00834 86.37523 111.46135
110.4810 110.4256 113.0 0.00885 86.36777 111.09501
110.4970 110.4416 94.0 0.01064 86.36076 110.75949
110.5140 110.4586 115.0 0.00870 86.35329 110.41165
110.5310 110.4756 87.0 0.01150 86.34584 110.07327
110.5470 110.4916 117.0 0.00854 86.33883 109.76326
110.5640 110.5086 115.0 0.00870 86.33137 109.44179
110.5810 110.5256 94.0 0.01064 86.32391 109.12897
110.5980 110.5426 100.0 0.01000 86.31645 108.82430
110.6140 110.5586 102.0 0.00980 86.30943 108.54499
110.6310 110.5756 126.0 0.00794 86.30198 108.25562
110.6480 110.5926 104.0 0.00961 86.29452 107.97379
110.6640 110.6086 102.0 0.00980 86.28750 107.71539
110.6810 110.6256 129.0 0.00775 86.28004 107.44762
110.6980 110.6426 103.0 0.00971 86.27259 107.18719
110.7150 110.6596 108.0 0.00926 86.26514 106.93311
110.7310 110.6756 108.0 0.00926 86.25811 106.70014
110.7480 110.6926 97.0 0.01031 86.25066 106.45923
110.7650 110.7096 122.0 0.00819 86.24320 106.22424
110.7810 110.7256 115.0 0.00870 86.23618 106.00883
110.7980 110.7426 99.0 0.01010 86.22873 105.78615
110.8150 110.7596 97.0 0.01031 86.22127 105.56904
110.8320 110.7766 116.0 0.00862 86.21381 105.35788
110.8480 110.7926 110.0 0.00909 86.20679 105.16454
110.8650 110.8096 86.0 0.01163 86.19933 104.96424
110.8820 110.8266 107.0 0.00935 86.19189 104.76966
110.8990 110.8436 97.0 0.01031 86.18442 104.58033
110.9150 110.8596 104.0 0.00961 86.17741 104.40712
110.9320 110.8766 101.0 0.00990 86.16995 104.22829
110.9490 110.8936 114.0 0.00877 86.16249 104.05443
110.9650 110.9096 88.0 0.01136 86.15547 103.89565
110.9820 110.9266 107.0 0.00935 86.14802 103.73193
110.9990 110.9436 101.0 0.00990 86.14056 103.57307
111.0160 110.9606 111.0 0.00900 86.13310 103.41933
111.0320 110.9766 104.0 0.00961 86.12609 103.27940
111.0490 110.9936 109.0 0.00917 86.11862 103.13534
111.0660 111.0106 120.0 0.00834 86.11117 102.99642
111.0820 111.0266 109.0 0.00917 86.10416 102.87049
111.0990 111.0436 109.0 0.00917 86.09669 102.74143
111.1160 111.0606 101.0 0.00990 86.08923 102.61773
111.1330 111.0776 114.0 0.00877 86.08178 102.49938
111.1490 111.0936 101.0 0.00990 86.07476 102.39373
111.1660 111.1106 101.0 0.00990 86.06730 102.28628
111.1830 111.1276 98.0 0.01021 86.05984 102.18478
111.1990 111.1436 116.0 0.00862 86.05283 102.09500
111.2160 111.1606 99.0 0.01010 86.04537 102.00595
111.2330 111.1776 84.0 0.01191 86.03793 101.92392
111.2500 111.1946 118.0 0.00848 86.03046 101.84924
111.2660 111.2106 96.0 0.01042 86.02344 101.78622
111.2830 111.2276 100.0 0.01000 86.01599 101.72772
111.3000 111.2446 94.0 0.01064 86.00853 101.67834
111.3160 111.2606 108.0 0.00926 86.00150 101.64103
111.3330 111.2775 108.0 0.00926 85.99406 101.61196
111.3500 111.2946 107.0 0.00935 85.98660 101.59456
111.3670 111.3116 110.0 0.00909 85.97914 101.58990
111.3830 111.3276 97.0 0.01031 85.97213 101.59804
111.4000 111.3446 97.0 0.01031 85.96466 101.62108
111.4170 111.3616 106.0 0.00943 85.95721 101.65997
111.4340 111.3786 106.0 0.00943 85.94975 101.71590
111.4500 111.3946 108.0 0.00926 85.94273 101.78502
111.4670 111.4116 93.0 0.01075 85.93528 101.87694
111.4840 111.4286 86.0 0.01163 85.92782 101.98905
111.5000 111.4446 104.0 0.00961 85.92080 102.11349
111.5170 111.4616 87.0 0.01150 85.91335 102.26659
111.5340 111.4786 111.0 0.00900 85.90588 102.44184
111.5500 111.4946 100.0 0.01000 85.89886 102.62690
111.5670 111.5116 94.0 0.01064 85.89142 102.84489
111.5840 111.5286 127.0 0.00787 85.88395 103.08469
111.6010 111.5456 102.0 0.00980 85.87650 103.34504
111.6170 111.5616 98.0 0.01021 85.86948 103.60738
111.6340 111.5786 102.0 0.00980 85.86202 103.90343
111.6510 111.5956 93.0 0.01075 85.85456 104.21430
111.6680 111.6126 111.0 0.00900 85.84711 104.53719
111.6840 111.6286 110.0 0.00909 85.84009 104.84875
111.7010 111.6456 97.0 0.01031 85.83263 105.18433
111.7180 111.6626 97.0 0.01031 85.82517 105.51994
111.7340 111.6786 100.0 0.01000 85.81816 105.83119
111.7510 111.6956 102.0 0.00980 85.81070 106.15193
111.7680 111.7126 109.0 0.00917 85.80325 106.45608
111.7850 111.7296 108.0 0.00926 85.79578 106.73834
111.8010 111.7456 107.0 0.00935 85.78877 106.97780
111.8180 111.7626 97.0 0.01031 85.78132 107.20078
111.8350 111.7796 94.0 0.01064 85.77386 107.38160
111.8510 111.7956 99.0 0.01010 85.76684 107.51054
111.8680 111.8126 109.0 0.00917 85.75938 107.59962
111.8850 111.8296 107.0 0.00935 85.75192 107.63677
111.9020 111.8466 90.0 0.01111 85.74447 107.62028
111.9180 111.8626 111.0 0.00900 85.73746 107.55617
111.9350 111.8796 125.0 0.00800 85.73000 107.43843
111.9520 111.8966 93.0 0.01075 85.72254 107.27400
111.9690 111.9136 89.0 0.01124 85.71508 107.06866
111.9850 111.9296 107.0 0.00935 85.70806 106.84509
112.0020 111.9466 105.0 0.00952 85.70061 106.58327
112.0190 111.9636 102.0 0.00980 85.69315 106.30460
112.0350 111.9796 102.0 0.00980 85.68613 106.03508
112.0520 111.9966 109.0 0.00917 85.67867 105.74854
112.0690 112.0136 101.0 0.00990 85.67122 105.46857
112.0850 112.0296 114.0 0.00877 85.66420 105.21732
112.1020 112.0466 99.0 0.01010 85.65675 104.96837
112.1190 112.0636 120.0 0.00834 85.64928 104.74228
112.1360 112.0806 91.0 0.01099 85.64182 104.54347
112.1520 112.0966 103.0 0.00971 85.63481 104.38427
112.1690 112.1136 115.0 0.00870 85.62735 104.24732
112.1860 112.1306 107.0 0.00935 85.61990 104.14651
112.2030 112.1476 118.0 0.00848 85.61243 104.08440
112.2190 112.1636 105.0 0.00952 85.60542 104.06358
112.2360 112.1806 108.0 0.00926 85.59796 104.08413
112.2530 112.1976 114.0 0.00877 85.59051 104.15170
112.2690 112.2136 103.0 0.00971 85.58349 104.26130
112.2860 112.2306 115.0 0.00870 85.57603 104.43156
112.3030 112.2476 122.0 0.00819 85.56858 104.65968
112.3200 112.2646 104.0 0.00961 85.56112 104.95296
112.3360 112.2806 96.0 0.01042 85.55410 105.07959
112.3530 112.2976 100.0 0.01000 85.54665 105.51860
112.3700 112.3146 116.0 0.00862 85.53918 106.12238
112.3860 112.3306 101.0 0.00990 85.53217 106.70757
112.4030 112.3475 108.0 0.00926 85.52472 107.43371
112.4200 112.3646 112.0 0.00893 85.51726 108.28169
112.4370 112.3816 112.0 0.00893 85.50980 109.26382
112.4530 112.3976 132.0 0.00757 85.50278 110.32342
112.4700 112.4146 111.0 0.00900 85.49532 111.61099
112.4870 112.4316 123.0 0.00813 85.48787 113.07796
112.5040 112.4486 115.0 0.00870 85.48041 114.74468
112.5200 112.4646 112.0 0.00893 85.47339 116.50788
112.5370 112.4816 118.0 0.00848 85.46593 118.60453
112.5540 112.4986 125.0 0.00800 85.45847 120.94968
112.5700 112.5146 136.0 0.00736 85.45146 123.39197
112.5870 112.5316 149.0 0.00671 85.44401 126.24937
112.6040 112.5486 141.0 0.00710 85.43655 129.39038
112.6210 112.5656 147.0 0.00681 85.42908 132.81525
112.6370 112.5816 140.0 0.00715 85.42207 136.29689
112.6540 112.5986 146.0 0.00685 85.41461 140.27621
112.6710 112.6156 154.0 0.00649 85.40715 144.52568
112.6870 112.6316 153.0 0.00654 85.40014 148.75389
112.7040 112.6486 158.0 0.00633 85.39268 153.47610
112.7210 112.6656 174.0 0.00575 85.38522 158.38988
112.7380 112.6826 173.0 0.00578 85.37776 163.45061
112.7540 112.6986 193.0 0.00518 85.37074 168.29254
112.7710 112.7156 205.0 0.00488 85.36329 173.45467
112.7880 112.7326 172.0 0.00582 85.35583 178.54762
112.8040 112.7486 186.0 0.00537 85.34882 183.18681
112.8210 112.7656 189.0 0.00529 85.34135 187.85178
112.8380 112.7826 204.0 0.00490 85.33391 192.12633
112.8550 112.7996 205.0 0.00488 85.32645 195.91153
112.8710 112.8156 204.0 0.00490 85.31943 198.92958
112.8880 112.8326 228.0 0.00439 85.31198 201.47943
112.9050 112.8496 208.0 0.00481 85.30451 203.30652
112.9210 112.8656 227.0 0.00440 85.29749 204.33647
112.9380 112.8826 237.0 0.00422 85.29005 204.69766
112.9550 112.8996 235.0 0.00426 85.28259 204.32419
112.9720 112.9166 198.0 0.00505 85.27512 203.25063
112.9880 112.9326 195.0 0.00513 85.26811 201.64201
113.0050 112.9496 209.0 0.00478 85.26065 199.41820
113.0220 112.9666 223.0 0.00449 85.25320 196.56239
113.0390 112.9836 207.0 0.00483 85.24574 193.20392
113.0550 112.9996 196.0 0.00510 85.23872 189.64656
113.0720 113.0166 205.0 0.00488 85.23126 185.50966
113.0890 113.0336 173.0 0.00578 85.22380 181.07251
113.1050 113.0496 156.0 0.00641 85.21678 176.70158
113.1220 113.0666 176.0 0.00568 85.20934 171.92395
113.1390 113.0836 162.0 0.00617 85.20187 167.07832
113.1560 113.1006 204.0 0.00490 85.19441 162.24510
113.1720 113.1166 153.0 0.00654 85.18740 157.76628
113.1890 113.1336 162.0 0.00617 85.17994 153.12155
113.2060 113.1506 146.0 0.00685 85.17248 148.64738
113.2220 113.1666 146.0 0.00685 85.16547 144.62381
113.2390 113.1836 140.0 0.00715 85.15800 140.56061
113.2560 113.2006 124.0 0.00806 85.15055 136.74074
113.2730 113.2176 146.0 0.00685 85.14309 133.17105
113.2890 113.2336 154.0 0.00649 85.13608 130.04390
113.3060 113.2506 139.0 0.00719 85.12862 126.96462
113.3230 113.2676 132.0 0.00757 85.12116 124.13210
113.3390 113.2836 144.0 0.00694 85.11414 121.68510
113.3560 113.3006 109.0 0.00917 85.10669 119.30595
113.3730 113.3176 137.0 0.00731 85.09924 117.14578
113.3900 113.3346 125.0 0.00800 85.09177 115.18542
113.4060 113.3506 116.0 0.00862 85.08475 113.51455
113.4230 113.3676 105.0 0.00952 85.07730 111.91233
113.4400 113.3846 103.0 0.00971 85.06984 110.53603
113.4560 113.4006 91.0 0.01099 85.06282 109.31464
113.4730 113.4176 97.0 0.01031 85.05537 108.14992
113.4900 113.4346 122.0 0.00819 85.04791 107.10596
113.5070 113.4516 125.0 0.00800 85.04045 106.17318
113.5230 113.4676 105.0 0.00952 85.03344 105.38669
113.5400 113.4846 110.0 0.00909 85.02598 104.63609
113.5570 113.5016 104.0 0.00961 85.01852 103.96564
113.5740 113.5186 101.0 0.00990 85.01106 103.36486
113.5900 113.5346 95.0 0.01053 85.00405 102.85696
113.6070 113.5516 112.0 0.00893 84.99659 102.37109
113.6240 113.5686 118.0 0.00848 84.98914 101.93356
113.6400 113.5846 116.0 0.00862 84.98212 101.56165
113.6570 113.6016 97.0 0.01031 84.97466 101.20358
113.6740 113.6186 109.0 0.00917 84.96720 100.87885
113.6900 113.6346 89.0 0.01124 84.96018 100.60081
113.7070 113.6516 114.0 0.00877 84.95273 100.33108
113.7240 113.6686 112.0 0.00893 84.94527 100.08462
113.7410 113.6856 94.0 0.01064 84.93781 99.85921
113.7570 113.7016 104.0 0.00961 84.93080 99.66438
113.7740 113.7186 114.0 0.00877 84.92334 99.47334
113.7910 113.7356 97.0 0.01031 84.91588 99.29764
113.8080 113.7526 106.0 0.00943 84.90842 99.13567
113.8240 113.7686 98.0 0.01021 84.90141 98.99470
113.8410 113.7856 115.0 0.00870 84.89395 98.85599
113.8580 113.8026 123.0 0.00813 84.88649 98.72782
113.8740 113.8186 114.0 0.00877 84.87947 98.61613
113.8910 113.8356 91.0 0.01099 84.87202 98.50621
113.9080 113.8526 117.0 0.00854 84.86456 98.40472
113.9240 113.8686 109.0 0.00917 84.85754 98.31642
113.9410 113.8856 109.0 0.00917 84.85008 98.22977
113.9580 113.9025 84.0 0.01191 84.84264 98.15022
113.9750 113.9196 93.0 0.01075 84.83517 98.07709
113.9910 113.9356 103.0 0.00971 84.82815 98.01401
114.0080 113.9526 101.0 0.00990 84.82070 97.95282
114.0250 113.9696 112.0 0.00893 84.81324 97.89719
114.0420 113.9866 116.0 0.00862 84.80579 97.84698
114.0580 114.0026 103.0 0.00971 84.79877 97.80449
114.0750 114.0196 108.0 0.00926 84.79131 97.76406
114.0920 114.0366 97.0 0.01031 84.78385 97.72842
114.1090 114.0536 103.0 0.00971 84.77639 97.69732
114.1250 114.0696 131.0 0.00763 84.76938 97.67207
114.1420 114.0866 83.0 0.01205 84.76192 97.64935
114.1590 114.1036 95.0 0.01053 84.75446 97.63072
114.1750 114.1196 127.0 0.00787 84.74744 97.61685
114.1920 114.1366 118.0 0.00848 84.73999 97.60583
114.2090 114.1536 87.0 0.01150 84.73253 97.59853
114.2250 114.1696 94.0 0.01064 84.72551 97.59500
114.2420 114.1866 99.0 0.01010 84.71806 97.59469
114.2590 114.2036 108.0 0.00926 84.71059 97.59783
114.2760 114.2206 88.0 0.01136 84.70314 97.60435
114.2920 114.2366 90.0 0.01111 84.69613 97.61349
114.3090 114.2536 101.0 0.00990 84.68867 97.62634
114.3260 114.2706 99.0 0.01010 84.68121 97.64238
114.3430 114.2876 107.0 0.00935 84.67375 97.66154
114.3590 114.3036 95.0 0.01053 84.66673 97.68237
114.3760 114.3206 111.0 0.00900 84.65927 97.70743
114.3930 114.3376 105.0 0.00952 84.65182 97.73551
114.4090 114.3536 93.0 0.01075 84.64480 97.76457
114.4260 114.3706 107.0 0.00935 84.63734 97.79831
114.4430 114.3876 109.0 0.00917 84.62990 97.83492
114.4600 114.4046 103.0 0.00971 84.62243 97.87447
114.4760 114.4206 99.0 0.01010 84.61541 97.91428
114.4930 114.4376 107.0 0.00935 84.60796 97.95923
114.5100 114.4546 110.0 0.00909 84.60050 98.00711
114.5260 114.4706 102.0 0.00980 84.59348 98.05472
114.5430 114.4876 97.0 0.01031 84.58603 98.10793
114.5600 114.5046 100.0 0.01000 84.57857 98.16405
114.5770 114.5216 108.0 0.00926 84.57111 98.22295
114.5930 114.5376 106.0 0.00943 84.56410 98.28088
114.6100 114.5546 104.0 0.00961 84.55663 98.34526
114.6270 114.5716 118.0 0.00848 84.54919 98.41239
114.6440 114.5886 108.0 0.00926 84.54172 98.48239
114.6600 114.6046 107.0 0.00935 84.53471 98.55083
114.6770 114.6216 94.0 0.01064 84.52725 98.62630
114.6940 114.6386 98.0 0.01021 84.51979 98.70476
114.7100 114.6546 103.0 0.00971 84.51277 98.78116
114.7270 114.6716 97.0 0.01031 84.50532 98.86517
114.7440 114.6886 107.0 0.00935 84.53843 98.99278
114.7600 114.7046 98.0 0.01021 84.57933 99.12528
114.7770 114.7216 110.0 0.00909 84.62276 99.26894
114.7940 114.7386 126.0 0.00794 84.66626 99.41581
114.8110 114.7556 113.0 0.00885 84.70972 99.56567
114.8270 114.7716 99.0 0.01010 84.75060 99.70947
114.8440 114.7886 100.0 0.01000 84.79408 99.86553
114.8610 114.8056 93.0 0.01075 84.83755 100.02473
114.8780 114.8226 107.0 0.00935 84.88100 100.18716
114.8940 114.8386 93.0 0.01075 84.92191 100.34304
114.9110 114.8556 116.0 0.00862 84.96536 100.51195
114.9280 114.8726 94.0 0.01064 85.00883 100.68432
114.9440 114.8886 116.0 0.00862 85.04972 100.84962
114.9610 114.9056 101.0 0.00990 85.09319 101.02880
114.9780 114.9226 107.0 0.00935 85.13661 101.21135
114.9950 114.9396 108.0 0.00926 85.18011 101.39790
115.0110 114.9556 105.0 0.00952 85.22102 101.57683
115.0280 114.9725 97.0 0.01031 85.26442 101.77037
115.0450 114.9896 119.0 0.00840 85.30791 101.96815
115.0610 115.0056 104.0 0.00961 85.34884 102.15787
115.0780 115.0226 102.0 0.00980 85.39225 102.36307
115.0950 115.0396 98.0 0.01021 85.43575 102.57280
115.1120 115.0566 98.0 0.01021 85.47920 102.78664
115.1280 115.0726 98.0 0.01021 85.52009 102.99165
115.1450 115.0896 111.0 0.00900 85.56356 103.21411
115.1620 115.1066 116.0 0.00862 85.60702 103.44086
115.1790 115.1236 97.0 0.01031 85.65049 103.67249
115.1950 115.1396 111.0 0.00900 85.69139 103.89465
115.2120 115.1566 111.0 0.00900 85.73483 104.13535
115.2290 115.1736 101.0 0.00990 85.77832 104.38134
115.2450 115.1896 113.0 0.00885 85.81922 104.61731
115.2620 115.2066 94.0 0.01064 85.86266 104.87303
115.2790 115.2236 107.0 0.00935 85.90616 105.13445
115.2960 115.2406 101.0 0.00990 85.94961 105.40121
115.3120 115.2566 91.0 0.01099 85.99047 105.65723
115.3290 115.2736 121.0 0.00826 86.03397 105.93532
115.3460 115.2906 99.0 0.01010 86.07745 106.21921
115.3620 115.3066 105.0 0.00952 86.11830 106.49178
115.3790 115.3236 108.0 0.00926 86.16180 106.78792
115.3960 115.3406 107.0 0.00935 86.20525 107.09039
115.4130 115.3576 127.0 0.00787 86.24873 107.39955
115.4290 115.3736 125.0 0.00800 86.28961 107.69667
115.4460 115.3906 109.0 0.00917 86.33308 108.01935
115.4630 115.4076 90.0 0.01111 86.37654 108.34930
115.4790 115.4236 109.0 0.00917 86.41744 108.66659
115.4960 115.4406 113.0 0.00885 86.46090 109.01133
115.5130 115.4576 110.0 0.00909 86.50432 109.38986
115.5300 115.4746 127.0 0.00787 86.54781 109.75096
115.5460 115.4906 116.0 0.00862 86.58873 110.09844
115.5630 115.5076 104.0 0.00961 86.63215 110.47559
115.5800 115.5246 105.0 0.00952 86.67564 110.86238
115.5960 115.5406 113.0 0.00885 86.71656 111.23483
115.6130 115.5576 95.0 0.01053 86.75998 111.63929
115.6300 115.5746 110.0 0.00909 86.80345 112.05431
115.6470 115.5916 96.0 0.01042 86.84693 112.47937
115.6630 115.6076 103.0 0.00971 86.88779 112.88871
115.6800 115.6246 117.0 0.00854 86.93129 113.33494
115.6970 115.6416 100.0 0.01000 86.97474 113.79217
115.7130 115.6576 112.0 0.00893 87.01563 114.23283
115.7300 115.6746 106.0 0.00943 87.05912 114.71351
115.7470 115.6916 98.0 0.01021 87.10255 115.20618
115.7640 115.7086 114.0 0.00877 87.14605 115.71239
115.7800 115.7246 113.0 0.00885 87.18693 116.20068
115.7970 115.7416 110.0 0.00909 87.23037 116.73291
115.8140 115.7586 115.0 0.00870 87.27386 117.28025
115.8300 115.7746 106.0 0.00943 87.31477 117.80861
115.8470 115.7916 119.0 0.00840 87.35820 118.38494
115.8640 115.8086 125.0 0.00800 87.40170 118.97813
115.8810 115.8256 112.0 0.00893 87.44515 119.58772
115.8970 115.8416 128.0 0.00782 87.48603 120.17684
115.9140 115.8586 111.0 0.00900 87.52950 120.82131
115.9310 115.8756 115.0 0.00870 87.57298 121.48428
115.9480 115.8926 113.0 0.00885 87.61644 122.16680
115.9640 115.9086 122.0 0.00819 87.65734 122.82755
115.9810 115.9256 129.0 0.00775 87.70079 123.55045
115.9980 115.9426 118.0 0.00848 87.74427 124.29544
116.0140 115.9586 124.0 0.00806 87.78517 125.01737
116.0310 115.9756 135.0 0.00741 87.82863 125.80791
116.0480 115.9926 125.0 0.00800 87.87208 126.62352
116.0640 116.0086 121.0 0.00826 87.91298 127.41464
116.0810 116.0256 122.0 0.00819 87.95646 128.28192
116.0980 116.0426 110.0 0.00909 87.99988 129.17653
116.1150 116.0596 109.0 0.00917 88.04335 130.10240
116.1310 116.0756 122.0 0.00819 88.08427 131.00189
116.1480 116.0926 143.0 0.00699 88.12769 131.98764
116.1650 116.1096 148.0 0.00675 88.17118 133.00911
116.1820 116.1266 135.0 0.00741 88.21464 134.06552
116.1980 116.1426 130.0 0.00769 88.25552 135.09279
116.2150 116.1596 120.0 0.00834 88.29900 136.22380
116.2320 116.1766 151.0 0.00662 88.34247 137.39507
116.2480 116.1926 123.0 0.00813 88.38333 138.53554
116.2650 116.2096 142.0 0.00704 88.42683 139.79283
116.2820 116.2266 129.0 0.00775 88.47026 141.09596
116.2990 116.2436 146.0 0.00685 88.51376 142.45042
116.3150 116.2596 134.0 0.00746 88.55466 143.77187
116.3320 116.2766 137.0 0.00731 88.59809 145.22896
116.3490 116.2936 130.0 0.00769 88.64159 146.74588
116.3650 116.3096 125.0 0.00800 88.68247 148.22821
116.3820 116.3266 146.0 0.00685 88.72591 149.86560
116.3990 116.3436 141.0 0.00710 88.76940 151.57327
116.4160 116.3606 137.0 0.00731 88.81287 153.35251
116.4320 116.3766 158.0 0.00633 88.85374 155.09558
116.4490 116.3936 153.0 0.00654 88.89723 157.02975
116.4660 116.4106 146.0 0.00685 88.94069 159.04970
116.4830 116.4276 161.0 0.00621 88.98416 161.16252
116.4990 116.4436 169.0 0.00592 89.02505 163.24086
116.5160 116.4606 200.0 0.00500 89.06852 165.55324
116.5330 116.4776 155.0 0.00645 89.11198 167.98006
116.5490 116.4936 156.0 0.00641 89.15288 170.37602
116.5660 116.5106 167.0 0.00599 89.19635 173.05251
116.5830 116.5275 156.0 0.00641 89.23975 175.87096
116.6000 116.5446 176.0 0.00568 89.28324 178.85344
116.6160 116.5606 189.0 0.00529 89.32417 181.81885
116.6330 116.5776 198.0 0.00505 89.36758 185.15109
116.6500 116.5946 185.0 0.00541 89.41108 188.70114
116.6660 116.6106 196.0 0.00510 89.45200 192.25632
116.6830 116.6276 187.0 0.00535 89.49541 196.28218
116.7000 116.6446 204.0 0.00490 89.53889 200.86392
116.7170 116.6616 219.0 0.00457 89.58237 205.51642
116.7330 116.6776 210.0 0.00476 89.62322 210.22742
116.7500 116.6946 195.0 0.00513 89.66672 215.64343
116.7670 116.7116 228.0 0.00439 89.71017 221.52348
116.7830 116.7276 255.0 0.00392 89.75106 227.53201
116.8000 116.7446 261.0 0.00383 89.79455 234.50095
116.8170 116.7616 260.0 0.00385 89.83799 242.12762
116.8340 116.7786 246.0 0.00407 89.88148 250.51352
116.8500 116.7946 265.0 0.00377 89.92236 259.16653
116.8670 116.8116 299.0 0.003345 89.96580 269.26971
116.8840 116.8286 286.0 0.003497 90.00929 280.43289
116.9000 116.8446 319.0 0.003135 90.05019 291.99252
116.9170 116.8616 325.0 0.003076 90.09364 305.52045
116.9340 116.8786 330.0 0.003029 90.13712 320.48358
116.9510 116.8956 327.0 0.003059 90.18058 336.99762
116.9670 116.9116 360.0 0.002779 90.22147 354.07709
116.9840 116.9286 403.0 0.002483 90.26494 374.04556
117.0010 116.9456 412.0 0.002427 90.30841 395.99811
117.0180 116.9626 443.0 0.002257 90.35187 420.09540
117.0340 116.9786 471.0 0.002124 90.39277 444.85730
117.0510 116.9956 457.0 0.002188 90.43623 473.53232
117.0680 117.0126 501.0 0.001997 90.47971 504.76538
117.0840 117.0286 526.0 0.001902 90.52060 536.59393
117.1010 117.0456 534.0 0.001872 90.56406 573.11957
117.1180 117.0626 645.0 0.001550 90.60748 612.45758
117.1350 117.0796 629.0 0.001590 90.65097 654.77985
117.1510 117.0956 669.0 0.001494 90.69189 697.28583
117.1680 117.1126 729.0 0.001372 90.73531 745.21692
117.1850 117.1296 808.0 0.001237 90.77879 796.09021
117.2010 117.1456 831.0 0.001203 90.81970 846.45947
117.2180 117.1626 878.0 0.001139 90.86312 902.37659
117.2350 117.1796 920.0 0.001087 90.90662 960.68396
117.2520 117.1966 1043.0 0.000959 90.95007 1020.90057
117.2680 117.2126 1042.0 0.000960 90.99095 1078.89819
117.2850 117.2296 1123.0 0.000891 91.03445 1141.58093
117.3020 117.2466 1136.0 0.000881 91.07790 1204.63000
117.3180 117.2626 1178.0 0.000849 91.11877 1264.16504
117.3350 117.2796 1230.0 0.000813 91.16226 1326.13354
117.3520 117.2966 1289.0 0.000776 91.20570 1386.47534
117.3690 117.3136 1387.0 0.000721 91.24919 1443.62476
117.3850 117.3296 1384.0 0.000723 91.29009 1496.01135
117.4020 117.3466 1483.0 0.000674 91.33353 1548.77893
117.4190 117.3636 1500.0 0.000667 91.37702 1598.42834
117.4360 117.3806 1552.0 0.000644 91.42048 1644.78369
117.4520 117.3966 1618.0 0.000618 91.46136 1685.38696
117.4690 117.4136 1665.0 0.000601 91.50484 1725.43750
117.4860 117.4306 1701.0 0.000588 91.54831 1762.19629
117.5020 117.4466 1795.0 0.000557 91.58917 1793.68164
117.5190 117.4636 1888.0 0.000530 91.63267 1823.68286
117.5360 117.4806 1917.0 0.000522 91.67612 1849.67517
117.5530 117.4976 1909.0 0.000524 91.71960 1871.14209
117.5690 117.5136 2033.0 0.000492 91.76048 1886.62463
117.5860 117.5306 1924.0 0.000520 91.80396 1897.38928
117.6030 117.5476 1960.0 0.000510 91.84741 1901.58789
117.6190 117.5636 1896.0 0.000528 91.88831 1898.96582
117.6360 117.5806 1839.0 0.000544 91.93179 1888.71277
117.6530 117.5975 1951.0 0.000513 91.97518 1870.48755
117.6700 117.6146 1903.0 0.000526 92.01868 1844.15308
117.6860 117.6306 1768.0 0.000566 92.05959 1812.14893
117.7030 117.6476 1782.0 0.000561 92.10301 1770.92566
117.7200 117.6646 1697.0 0.000589 92.14651 1722.75232
117.7360 117.6806 1628.0 0.000614 92.18743 1671.86804
117.7530 117.6976 1579.0 0.000633 92.23084 1612.88135
117.7700 117.7146 1520.0 0.000658 92.27432 1549.63574
117.7870 117.7316 1388.0 0.000720 92.31779 1483.31677
117.8030 117.7476 1383.0 0.000723 92.35866 1419.04309
117.8200 117.7646 1287.0 0.000777 92.40215 1349.53052
117.8370 117.7816 1243.0 0.000804 92.44563 1279.77478
117.8530 117.7976 1143.0 0.000875 92.48649 1214.62805
117.8700 117.8146 1030.0 0.000971 92.52998 1146.41199
117.8870 117.8316 994.0 0.001006 92.57342 1079.96509
117.9040 117.8486 957.0 0.001045 92.61691 1015.58746
117.9200 117.8646 937.0 0.001067 92.65780 957.32947
117.9370 117.8816 835.0 0.001197 92.70123 898.11353
117.9540 117.8986 858.0 0.001166 92.74473 841.77014
117.9700 117.9146 786.0 0.001272 92.78563 791.58496
117.9870 117.9316 767.0 0.001304 92.82906 741.30414
118.0040 117.9486 690.0 0.001449 92.87256 694.10968
118.0210 117.9656 690.0 0.001449 92.91602 650.06311
118.0370 117.9816 599.0 0.001670 92.95689 611.44409
118.0540 117.9986 580.0 0.001725 93.00037 573.24536
118.0710 118.0156 526.0 0.001902 93.04385 537.95081
118.0880 118.0326 558.0 0.001792 93.08730 505.41531
118.1040 118.0486 507.0 0.001972 93.12820 477.20285
118.1210 118.0656 456.0 0.002194 93.17166 449.62787
118.1380 118.0826 434.0 0.002305 93.21513 424.39014
118.1540 118.0986 443.0 0.002257 93.25603 402.64175
118.1710 118.1156 415.0 0.002410 93.29949 381.50046
118.1880 118.1326 374.0 0.002674 93.34296 362.24387
118.2040 118.1486 375.0 0.002668 93.38385 345.71292
118.2210 118.1656 339.0 0.002950 93.42732 329.69049
118.2380 118.1826 358.0 0.002794 93.47074 315.14264
118.2550 118.1996 337.0 0.002967 93.51421 301.89639
118.2710 118.2156 348.0 0.002875 93.55514 290.53415
118.2880 118.2326 330.0 0.003029 93.59855 279.53473
118.3050 118.2496 311.0 0.003214 93.64204 269.50052
118.3220 118.2666 274.0 0.00365 93.68550 260.35638
118.3380 118.2826 274.0 0.00365 93.72639 252.48326
118.3550 118.2996 297.0 0.003368 93.76988 244.79738
118.3720 118.3166 284.0 0.00352 93.81333 237.75513
118.3880 118.3326 265.0 0.00377 93.85419 231.65573
118.4050 118.3496 256.0 0.00391 93.89769 225.66272
118.4220 118.3666 220.0 0.00455 93.94112 220.13539
118.4390 118.3836 221.0 0.00452 93.98462 215.01254
118.4550 118.3996 204.0 0.00490 94.02552 210.53192
118.4720 118.4166 191.0 0.00524 94.06896 206.09315
118.4890 118.4336 226.0 0.00443 94.11246 201.94746
118.5050 118.4496 191.0 0.00524 94.15334 198.29488
118.5220 118.4666 222.0 0.00450 94.19679 194.65077
118.5390 118.4836 197.0 0.00507 94.24026 191.22328
118.5560 118.5006 177.0 0.00565 94.28374 187.99994
118.5720 118.5166 174.0 0.00575 94.32460 185.13466
118.5890 118.5336 193.0 0.00518 94.36810 182.24850
118.6060 118.5506 193.0 0.00518 94.41155 179.51819
118.6230 118.5676 179.0 0.00559 94.45503 176.92978
118.6390 118.5836 163.0 0.00613 94.49593 174.61427
118.6560 118.6006 172.0 0.00582 94.53938 172.27127
118.6730 118.6176 141.0 0.00710 94.58284 170.04160
118.6890 118.6336 155.0 0.00645 94.62374 168.04019
118.7060 118.6506 152.0 0.00658 94.66722 166.00890
118.7230 118.6676 152.0 0.00658 94.71063 164.07239
118.7400 118.6846 157.0 0.00637 94.75411 162.21939
118.7560 118.7006 136.0 0.00736 94.79503 160.55066
118.7730 118.7176 160.0 0.00625 94.83845 158.85480
118.7900 118.7346 139.0 0.00719 94.88194 157.22876
118.8060 118.7506 132.0 0.00757 94.92286 155.76181
118.8230 118.7676 161.0 0.00621 94.96628 154.26840
118.8400 118.7846 142.0 0.00704 95.00975 152.83412
118.8570 118.8016 147.0 0.00681 95.05323 151.45921
118.8730 118.8176 142.0 0.00704 95.09409 150.21706
118.8900 118.8346 149.0 0.00671 95.13759 148.94649
118.9070 118.8516 135.0 0.00741 95.18106 147.72693
118.9230 118.8676 141.0 0.00710 95.22192 146.62379
118.9400 118.8846 130.0 0.00769 95.26542 145.49416
118.9570 118.9016 127.0 0.00787 95.30885 144.40916
118.9740 118.9186 132.0 0.00757 95.35235 143.36440
118.9900 118.9346 128.0 0.00782 95.39323 142.41808
119.0070 118.9516 141.0 0.00710 95.43667 141.44936
119.0240 118.9686 140.0 0.00715 95.48016 140.51569
119.0400 118.9846 155.0 0.00645 95.52106 139.66920
119.0570 119.0016 131.0 0.00763 95.56450 138.80202
119.0740 119.0186 117.0 0.00854 95.60799 137.96541
119.0910 119.0356 141.0 0.00710 95.65145 137.15950
119.1070 119.0516 125.0 0.00800 95.69233 136.42818
119.1240 119.0686 162.0 0.00617 95.73580 135.67691
119.1410 119.0856 126.0 0.00794 95.77928 134.95264
119.1580 119.1026 128.0 0.00782 95.82274 134.25389
119.1740 119.1186 116.0 0.00862 95.86364 133.61890
119.1910 119.1356 104.0 0.00961 95.90711 132.96678
119.2080 119.1525 131.0 0.00763 95.95057 132.33731
119.2240 119.1686 113.0 0.00885 95.99147 131.76492
119.2410 119.1856 110.0 0.00909 96.03493 131.17682
119.2580 119.2026 120.0 0.00834 96.07834 130.60947
119.2750 119.2196 132.0 0.00757 96.12183 130.06052
119.2910 119.2356 100.0 0.01000 96.16276 129.56107
119.3080 119.2526 124.0 0.00806 96.20617 129.04909
119.3250 119.2696 148.0 0.00675 96.24965 128.55296
119.3410 119.2856 127.0 0.00787 96.29057 128.10150
119.3580 119.3026 112.0 0.00893 96.33398 127.63806
119.3750 119.3196 125.0 0.00800 96.37748 127.18939
119.3920 119.3366 122.0 0.00819 96.42094 126.75596
119.4080 119.3526 115.0 0.00870 96.46181 126.36166
119.4250 119.3696 126.0 0.00794 96.50531 125.95567
119.4420 119.3866 117.0 0.00854 96.54877 125.56342
119.4580 119.4025 116.0 0.00862 96.58963 125.20658
119.4750 119.4196 116.0 0.00862 96.63313 124.83916
119.4920 119.4366 131.0 0.00763 96.67656 124.48441
119.5090 119.4536 125.0 0.00800 96.72005 124.14114
119.5250 119.4696 118.0 0.00848 96.76096 123.82890
119.5420 119.4866 137.0 0.00731 96.80439 123.50801
119.5590 119.5036 120.0 0.00834 96.84789 123.19756
119.5760 119.5206 132.0 0.00757 96.89134 122.89778
119.5920 119.5366 112.0 0.00893 96.93222 122.62522
119.6090 119.5536 113.0 0.00885 96.97570 122.34475
119.6260 119.5706 113.0 0.00885 97.01917 122.07406
119.6420 119.5866 114.0 0.00877 97.06004 121.82807
119.6590 119.6036 105.0 0.00952 97.10353 121.57530
119.6760 119.6206 102.0 0.00980 97.14699 121.33135
119.6930 119.6376 131.0 0.00763 97.19046 121.09595
119.7090 119.6536 115.0 0.00870 97.23136 120.88216
119.7260 119.6706 130.0 0.00769 97.27482 120.66283
119.7430 119.6876 149.0 0.00671 97.31829 120.45145
119.7590 119.7036 102.0 0.00980 97.35918 120.25968
119.7760 119.7206 116.0 0.00862 97.40265 120.06318
119.7930 119.7376 108.0 0.00926 97.44607 119.87429
119.8100 119.7546 130.0 0.00769 97.48954 119.69228
119.8260 119.7706 107.0 0.00935 97.53046 119.52751
119.8430 119.7876 116.0 0.00862 97.57388 119.35937
119.8600 119.8046 113.0 0.00885 97.61737 119.19772
119.8760 119.8206 119.0 0.00840 97.65829 119.05166
119.8930 119.8376 111.0 0.00900 97.70171 118.90298
119.9100 119.8546 123.0 0.00813 97.74521 118.76042
119.9270 119.8716 108.0 0.00926 97.78866 118.62421
119.9430 119.8876 102.0 0.00980 97.82952 118.50172
119.9600 119.9046 127.0 0.00787 97.87302 118.37723
119.9770 119.9216 123.0 0.00813 97.91650 118.25874
119.9930 119.9376 121.0 0.00826 97.95735 118.15263
120.0100 119.9546 104.0 0.00961 98.00085 118.04531
120.0270 119.9716 104.0 0.00961 98.04429 117.94380
120.0440 119.9886 102.0 0.00980 98.08778 117.84776
120.0600 120.0046 114.0 0.00877 98.12866 117.76247
120.0770 120.0216 115.0 0.00870 98.17212 117.67721
120.0940 120.0386 118.0 0.00848 98.21559 117.59726
120.1100 120.0546 115.0 0.00870 98.25649 117.52696
120.1270 120.0716 127.0 0.00787 98.29993 117.45745
120.1440 120.0886 111.0 0.00900 98.34342 117.39314
120.1610 120.1056 129.0 0.00775 98.38688 117.33410
120.1770 120.1216 129.0 0.00775 98.42776 117.28337
120.1940 120.1386 113.0 0.00885 98.47124 117.23442
120.2110 120.1556 101.0 0.00990 98.51471 117.19077
120.2280 120.1726 123.0 0.00813 98.55817 117.15226
120.2440 120.1886 99.0 0.01010 98.59907 117.12084
120.2610 120.2056 136.0 0.00736 98.64255 117.09252
120.2780 120.2225 113.0 0.00885 98.68600 117.06949
120.2940 120.2386 127.0 0.00787 98.72690 117.05271
120.3110 120.2556 128.0 0.00782 98.77036 117.04009
120.3280 120.2726 109.0 0.00917 98.81384 117.03298
120.3440 120.2886 112.0 0.00893 98.85471 117.03140
120.3610 120.3056 97.0 0.01031 98.89819 117.03527
120.3780 120.3226 106.0 0.00943 98.94160 117.04497
120.3950 120.3396 99.0 0.01010 98.98508 117.06071
120.4110 120.3556 114.0 0.00877 99.02600 117.08124
120.4280 120.3726 125.0 0.00800 99.06942 117.10926
120.4450 120.3896 93.0 0.01075 99.11292 117.14407
120.4620 120.4066 103.0 0.00971 99.15639 117.18588
120.4780 120.4226 114.0 0.00877 99.19725 117.23190
120.4950 120.4396 101.0 0.00990 99.24075 117.28837
120.5120 120.4566 109.0 0.00917 99.28420 117.35299
120.5280 120.4725 104.0 0.00961 99.32506 117.42154
120.5450 120.4896 113.0 0.00885 99.36855 117.50336
120.5620 120.5066 119.0 0.00840 99.41199 117.59470
120.5790 120.5236 108.0 0.00926 99.45549 117.69645
120.5950 120.5396 108.0 0.00926 99.49639 117.80197
120.6120 120.5566 125.0 0.00800 99.53983 117.92525
120.6290 120.5736 99.0 0.01010 99.58332 118.06089
120.6450 120.5896 130.0 0.00769 99.62420 118.20022
120.6620 120.6066 114.0 0.00877 99.66766 118.36144
120.6790 120.6236 127.0 0.00787 99.71113 118.53724
120.6960 120.6406 105.0 0.00952 99.75461 118.72816
120.7120 120.6566 133.0 0.00752 99.79547 118.91911
120.7290 120.6736 115.0 0.00870 99.83897 119.14164
120.7460 120.6906 133.0 0.00752 99.88242 119.38135
120.7630 120.7076 120.0 0.00834 99.92590 119.63901
120.7790 120.7236 117.0 0.00854 99.96680 119.89830
120.7960 120.7406 109.0 0.00917 100.01025 120.19227
120.8130 120.7576 127.0 0.00787 100.05373 120.50559
120.8290 120.7736 120.0 0.00834 100.09460 120.81818
120.8460 120.7906 120.0 0.00834 100.13808 121.16952
120.8630 120.8076 110.0 0.00909 100.18154 121.54033
120.8790 120.8236 127.0 0.00787 100.22244 121.90672
120.8960 120.8406 123.0 0.00813 100.26589 122.31423
120.9130 120.8576 120.0 0.00834 100.30931 122.73898
120.9300 120.8746 109.0 0.00917 100.35281 123.18108
120.9460 120.8906 134.0 0.00746 100.39373 123.61086
120.9630 120.9076 127.0 0.00787 100.43714 124.07985
120.9800 120.9246 124.0 0.00806 100.48064 124.56101
120.9970 120.9416 137.0 0.00731 100.52409 125.05085
121.0130 120.9576 120.0 0.00834 100.56496 125.51749
121.0300 120.9746 120.0 0.00834 100.60845 126.01798
121.0470 120.9916 112.0 0.00893 100.65192 126.51979
121.0630 121.0076 114.0 0.00877 100.69279 126.99087
121.0800 121.0246 113.0 0.00885 100.73628 127.48923
121.0970 121.0416 146.0 0.00685 100.77972 127.98188
121.1140 121.0586 121.0 0.00826 100.82321 128.46802
121.1300 121.0746 160.0 0.00625 100.86410 128.91695
121.1470 121.0916 122.0 0.00819 100.90755 129.38338
121.1640 121.1086 138.0 0.00724 100.95103 129.83759
121.1800 121.1246 130.0 0.00769 100.99193 130.25124
121.1970 121.1416 132.0 0.00757 101.03536 130.67462
121.2140 121.1586 106.0 0.00943 101.07886 131.08011
121.2310 121.1756 135.0 0.00741 101.12231 131.46573
121.2470 121.1916 142.0 0.00704 101.16319 131.80960
121.2640 121.2086 127.0 0.00787 101.20669 132.15585
121.2810 121.2256 113.0 0.00885 101.25014 132.48274
121.2980 121.2426 133.0 0.00752 101.29360 132.79292
121.3140 121.2586 138.0 0.00724 101.33450 133.07265
121.3310 121.2756 133.0 0.00752 101.37798 133.36182
121.3480 121.2926 137.0 0.00731 101.42143 133.64806
121.3640 121.3086 135.0 0.00741 101.46233 133.92065
121.3810 121.3256 145.0 0.00690 101.50579 134.22067
121.3980 121.3426 135.0 0.00741 101.54921 134.53835
121.4150 121.3596 153.0 0.00654 101.59270 134.88237
121.4310 121.3756 132.0 0.00757 101.63362 135.23677
121.4480 121.3926 171.0 0.00585 101.67704 135.65295
121.4650 121.4096 148.0 0.00675 101.72051 136.11935
121.4810 121.4256 149.0 0.00671 101.76144 136.61090
121.4980 121.4426 168.0 0.00595 101.80485 137.19653
121.5150 121.4596 141.0 0.00710 101.84834 137.85814
121.5320 121.4766 143.0 0.00699 101.89182 138.60382
121.5480 121.4926 130.0 0.00769 101.93269 139.39108
121.5650 121.5096 143.0 0.00699 101.97617 140.33099
121.5820 121.5266 178.0 0.00562 102.01963 141.38719
121.5980 121.5426 163.0 0.00613 102.06052 142.49840
121.6150 121.5596 135.0 0.00741 102.10399 143.81990
121.6320 121.5766 154.0 0.00649 102.14742 145.29791
121.6490 121.5936 163.0 0.00613 102.19092 146.95239
121.6650 121.6096 173.0 0.00578 102.23182 148.68361
121.6820 121.6266 165.0 0.00606 102.27526 150.72725
121.6990 121.6436 188.0 0.00532 102.31875 153.00447
121.7160 121.6606 155.0 0.00645 102.36221 155.53331
121.7320 121.6766 162.0 0.00617 102.40309 158.16235
121.7490 121.6936 170.0 0.00588 102.44656 161.25032
121.7660 121.7106 192.0 0.00521 102.49004 164.66000
121.7820 121.7266 181.0 0.00553 102.53090 168.18385
121.7990 121.7436 169.0 0.00592 102.57439 172.29677
121.8160 121.7606 198.0 0.00505 102.61787 176.80685
121.8330 121.7775 210.0 0.00476 102.66133 181.69629
121.8490 121.7936 201.0 0.00497 102.70222 186.75053
121.8660 121.8106 217.0 0.00461 102.74568 192.58203
121.8830 121.8276 218.0 0.00459 102.78916 198.90906
121.8990 121.8436 225.0 0.00444 102.83004 205.33221
121.9160 121.8606 224.0 0.00446 102.87351 212.67604
121.9330 121.8776 253.0 0.00395 102.91693 220.55658
121.9500 121.8946 240.0 0.00417 102.96041 229.00659
121.9660 121.9106 242.0 0.00413 103.00133 237.46875
121.9830 121.9276 266.0 0.00376 103.04475 246.98778
122.0000 121.9446 291.0 0.003436 103.08824 257.07184
122.0160 121.9606 259.0 0.00386 103.12916 267.04456
122.0330 121.9776 271.0 0.00369 103.17258 278.11252
122.0500 121.9946 286.0 0.003497 103.21607 289.66290
122.0670 122.0116 337.0 0.002967 103.25953 301.61697
122.0830 122.0275 312.0 0.003206 103.30039 313.17169
122.1000 122.0446 352.0 0.002841 103.34389 325.72620
122.1170 122.0616 372.0 0.002687 103.38736 338.44855
122.1330 122.0776 390.0 0.002564 103.42822 350.47745
122.1500 122.0946 396.0 0.002525 103.47172 363.24274
122.1670 122.1116 382.0 0.002619 103.51515 375.84518
122.1840 122.1286 409.0 0.002446 103.55865 388.20255
122.2000 122.1446 428.0 0.002336 103.59953 399.49374
122.2170 122.1616 431.0 0.002320 103.64298 411.05612
122.2340 122.1786 404.0 0.002475 103.68646 422.11713
122.2510 122.1956 439.0 0.002278 103.72993 432.60553
122.2670 122.2116 448.0 0.002231 103.77080 441.91901
122.2840 122.2286 465.0 0.002151 103.81429 451.22198
122.3010 122.2456 509.0 0.001965 103.85775 459.87177
122.3170 122.2616 489.0 0.002046 103.89863 467.39011
122.3340 122.2786 529.0 0.001890 103.94212 474.69873
122.3510 122.2956 532.0 0.001879 103.98558 481.23407
122.3680 122.3126 558.0 0.001792 104.02905 486.92172
122.3840 122.3286 562.0 0.001779 104.06993 491.40936
122.4010 122.3456 497.0 0.002013 104.11341 495.15002
122.4180 122.3626 526.0 0.001902 104.15687 497.70517
122.4340 122.3786 587.0 0.001703 104.19777 498.91196
122.4510 122.3956 535.0 0.001869 104.24122 498.81003
122.4680 122.4126 490.0 0.002040 104.28470 497.18732
122.4840 122.4286 562.0 0.001779 104.32558 494.21454
122.5010 122.4456 571.0 0.001751 104.36906 489.49484
122.5180 122.4626 519.0 0.001927 104.41247 483.19565
122.5350 122.4796 530.0 0.001887 104.45596 475.36328
122.5510 122.4956 454.0 0.002202 104.49686 466.69986
122.5680 122.5126 444.0 0.002253 104.54028 456.27280
122.5850 122.5296 438.0 0.002283 104.58378 444.72098
122.6020 122.5466 408.0 0.002451 104.62725 432.25839
122.6180 122.5626 438.0 0.002283 104.66811 419.87973
122.6350 122.5796 407.0 0.002458 104.71161 406.19089
122.6520 122.5966 393.0 0.002546 104.75507 392.16235
122.6680 122.6126 378.0 0.002646 104.79594 378.81082
122.6850 122.6296 360.0 0.002779 104.83942 364.58112
122.7020 122.6466 352.0 0.002841 104.88288 350.48044
122.7190 122.6636 337.0 0.002967 104.92635 336.59467
122.7350 122.6796 363.0 0.002756 104.96725 323.83765
122.7520 122.6966 341.0 0.002931 105.01069 310.68137
122.7690 122.7136 327.0 0.003059 105.05418 297.98126
122.7850 122.7296 314.0 0.003185 105.09509 286.51437
122.8020 122.7466 281.0 0.00356 105.13852 274.87314
122.8190 122.7636 285.0 0.00351 105.18200 263.80072
122.8360 122.7806 301.0 0.003322 105.22547 253.33284
122.8520 122.7966 290.0 0.003448 105.26633 244.04239
122.8690 122.8136 231.0 0.00433 105.30983 234.74411
122.8860 122.8306 224.0 0.00446 105.35330 226.05112
122.9030 122.8475 228.0 0.00439 105.39676 217.94662
122.9190 122.8636 223.0 0.00449 105.43766 210.84505
122.9360 122.8806 241.0 0.00415 105.48112 203.83476
122.9530 122.8976 225.0 0.00444 105.52459 197.35709
122.9690 122.9136 211.0 0.00474 105.56548 191.72685
122.9860 122.9306 226.0 0.00443 105.60895 186.21106
123.0030 122.9476 211.0 0.00474 105.65240 181.15099
123.0190 122.9636 192.0 0.00521 105.69331 176.78123
123.0360 122.9806 191.0 0.00524 105.73676 172.52501
123.0530 122.9976 210.0 0.00476 105.78017 168.64531
123.0700 123.0146 161.0 0.00621 105.82367 165.10333
123.0860 123.0306 175.0 0.00571 105.86459 162.06104
123.1030 123.0476 190.0 0.00527 105.90801 159.11571
123.1200 123.0646 156.0 0.00641 105.95151 156.43230
123.1370 123.0816 157.0 0.00637 105.99496 153.99342
123.1530 123.0975 179.0 0.00559 106.03582 151.90176
123.1700 123.1146 178.0 0.00562 106.07932 149.87032
123.1870 123.1316 179.0 0.00559 106.12280 148.02113
123.2030 123.1476 165.0 0.00606 106.16365 146.43138
123.2200 123.1646 146.0 0.00685 106.20715 144.88251
123.2370 123.1816 152.0 0.00658 106.25059 143.46758
123.2540 123.1986 171.0 0.00585 106.29408 142.16969
123.2700 123.2146 143.0 0.00699 106.33496 141.04654
123.2870 123.2316 170.0 0.00588 106.37842 139.94611
123.3040 123.2486 167.0 0.00599 106.42189 138.93025
123.3200 123.2646 166.0 0.00603 106.46279 138.04549
123.3370 123.2816 135.0 0.00741 106.50623 137.17290
123.3540 123.2986 160.0 0.00625 106.54972 136.36188
123.3710 123.3156 138.0 0.00724 106.59318 135.60770
123.3870 123.3316 138.0 0.00724 106.63406 134.94511
123.4040 123.3486 153.0 0.00654 106.67756 134.28497
123.4210 123.3656 145.0 0.00690 106.72101 133.66731
123.4380 123.3826 149.0 0.00671 106.76449 133.08813
123.4540 123.3986 128.0 0.00782 106.80537 132.57526
123.4710 123.4156 152.0 0.00658 106.84885 132.06154
123.4880 123.4326 131.0 0.00763 106.89230 131.57768
123.5040 123.4486 126.0 0.00794 106.93320 131.14769
123.5210 123.4656 159.0 0.00629 106.97665 130.71542
123.5380 123.4826 119.0 0.00840 107.02007 130.30750
123.5550 123.4996 155.0 0.00645 107.06357 129.92116
123.5710 123.5156 159.0 0.00629 107.10448 129.57669
123.5880 123.5326 149.0 0.00671 107.14790 129.23018
123.6050 123.5496 142.0 0.00704 107.19140 128.90152
123.6210 123.5656 132.0 0.00757 107.23230 128.60815
123.6380 123.5826 138.0 0.00724 107.27572 128.31287
123.6550 123.5996 126.0 0.00794 107.31921 128.03265
123.6720 123.6166 119.0 0.00840 107.36269 127.76733
123.6880 123.6326 117.0 0.00854 107.40355 127.53066
123.7050 123.6496 135.0 0.00741 107.44704 127.29179
123.7220 123.6666 142.0 0.00704 107.49050 127.06573
123.7380 123.6826 132.0 0.00757 107.53138 126.86430
123.7550 123.6996 127.0 0.00787 107.57485 126.66115
123.7720 123.7166 162.0 0.00617 107.61831 126.46936
123.7890 123.7336 122.0 0.00819 107.66179 126.28791
123.8050 123.7496 129.0 0.00775 107.69280 126.11672
123.8220 123.7666 135.0 0.00741 107.71883 125.93740
123.8390 123.7836 114.0 0.00877 107.74491 125.76720
123.8560 123.8006 148.0 0.00675 107.77096 125.60608
123.8720 123.8166 115.0 0.00870 107.79547 125.46246
123.8890 123.8336 146.0 0.00685 107.82154 125.31769
123.9060 123.8506 121.0 0.00826 107.84759 125.18098
123.9220 123.8666 149.0 0.00671 107.87209 125.05945
123.9390 123.8836 138.0 0.00724 107.89816 124.93734
123.9560 123.9006 112.0 0.00893 107.92422 124.82247
123.9730 123.9176 140.0 0.00715 107.95027 124.71450
123.9890 123.9336 115.0 0.00870 107.97479 124.61906
124.0060 123.9506 145.0 0.00690 108.00084 124.52386
124.0230 123.9676 110.0 0.00909 108.02690 124.43493
124.0390 123.9836 111.0 0.00900 108.05141 124.35679
124.0560 124.0006 136.0 0.00736 108.07747 124.27947
124.0730 124.0176 132.0 0.00757 108.10349 124.20791
124.0900 124.0346 98.0 0.01021 108.12955 124.14179
124.1060 124.0506 133.0 0.00752 108.15409 124.09789
124.1230 124.0676 127.0 0.00787 108.18011 124.04219
124.1400 124.0846 121.0 0.00826 108.20618 123.99151
124.1560 124.1006 118.0 0.00848 108.23072 123.94836
124.1730 124.1176 113.0 0.00885 108.25674 123.90730
124.1900 124.1346 137.0 0.00731 108.28281 123.87088
124.2070 124.1516 118.0 0.00848 108.30887 123.83913
124.2230 124.1676 155.0 0.00645 108.33337 123.81338
124.2400 124.1846 126.0 0.00794 108.35944 123.79025
124.2570 124.2016 118.0 0.00848 108.38550 123.77150
124.2730 124.2176 135.0 0.00741 108.41000 123.75774
124.2900 124.2346 117.0 0.00854 108.43607 123.74713
124.3070 124.2516 125.0 0.00800 108.46210 123.74062
124.3240 124.2686 111.0 0.00900 108.48817 123.73814
124.3400 124.2846 125.0 0.00800 108.51269 123.73939
124.3570 124.3016 143.0 0.00699 108.53873 123.74452
124.3740 124.3186 111.0 0.00900 108.56480 123.75346
124.3910 124.3356 120.0 0.00834 108.59086 123.77518
124.4070 124.3516 126.0 0.00794 108.61535 123.79058
124.4240 124.3686 121.0 0.00826 108.64143 123.81052
124.4410 124.3856 116.0 0.00862 108.66749 123.83411
124.4570 124.4016 120.0 0.00834 108.69199 123.85957
124.4740 124.4186 131.0 0.00763 108.71806 123.89014
124.4910 124.4356 128.0 0.00782 108.74410 123.92426
124.5080 124.4526 123.0 0.00813 108.77016 123.96187
124.5240 124.4686 112.0 0.00893 108.79468 124.00046
124.5410 124.4856 113.0 0.00885 108.82073 124.04484
124.5580 124.5026 133.0 0.00752 108.84679 124.09267
124.5740 124.5186 121.0 0.00826 108.87131 124.14082
124.5910 124.5356 112.0 0.00893 108.89735 124.19532
124.6080 124.5526 114.0 0.00877 108.92342 124.25327
124.6240 124.5686 130.0 0.00769 108.94792 124.31086
124.6410 124.5856 119.0 0.00840 108.97398 124.37543
124.6580 124.6026 132.0 0.00757 109.00001 124.44331
124.6750 124.6196 104.0 0.00961 109.02608 124.51475
124.6910 124.6356 117.0 0.00854 109.05061 124.58508
124.7080 124.6525 107.0 0.00935 109.07663 124.66300
124.7250 124.6696 121.0 0.00826 109.10270 124.74453
124.7420 124.6866 138.0 0.00724 109.12876 124.82946
124.7580 124.7026 107.0 0.00935 109.15326 124.91249
124.7750 124.7196 103.0 0.00971 109.17933 125.00426
124.7920 124.7366 130.0 0.00769 109.20538 125.09946
124.8080 124.7526 119.0 0.00840 109.22989 125.19222
124.8250 124.7696 120.0 0.00834 109.25595 125.29438
124.8420 124.7866 118.0 0.00848 109.28200 125.40006
124.8590 124.8036 115.0 0.00870 109.30806 125.50945
124.8750 124.8196 134.0 0.00746 109.33258 125.61569
124.8920 124.8366 124.0 0.00806 109.35862 125.73213
124.9090 124.8536 121.0 0.00826 109.38469 125.85247
124.9250 124.8696 135.0 0.00741 109.40921 125.96909
124.9420 124.8866 112.0 0.00893 109.43525 126.09669
124.9590 124.9036 124.0 0.00806 109.46132 126.22836
124.9760 124.9206 136.0 0.00736 109.48737 126.36387
124.9920 124.9366 120.0 0.00834 109.51186 126.49496
125.0090 124.9536 121.0 0.00826 109.53794 126.63842
125.0260 124.9706 121.0 0.00826 109.56400 126.78593
125.0430 124.9876 124.0 0.00806 109.59005 126.93766
125.0590 125.0036 118.0 0.00848 109.61457 127.08429
125.0760 125.0206 120.0 0.00834 109.64062 127.24439
125.0930 125.0376 131.0 0.00763 109.66668 127.40890
125.1090 125.0536 143.0 0.00699 109.69119 128.14587
125.1260 125.0706 125.0 0.00800 109.71725 128.32063
125.1430 125.0876 132.0 0.00757 109.74330 128.50008
125.1590 125.1036 135.0 0.00741 109.76782 128.67326
125.1760 125.1206 132.0 0.00757 109.79387 128.86209
125.1930 125.1376 150.0 0.00666 109.81989 129.05571
125.2100 125.1546 124.0 0.00806 109.84597 129.25470
125.2260 125.1706 125.0 0.00800 109.87050 129.44676
125.2430 125.1876 144.0 0.00694 109.89652 129.65565
125.2600 125.2046 140.0 0.00715 109.92260 129.87039
125.2770 125.2216 123.0 0.00813 109.94865 130.09055
125.2930 125.2376 140.0 0.00715 109.97315 130.30281
125.3100 125.2546 122.0 0.00819 109.99921 130.53432
125.3270 125.2716 142.0 0.00704 110.02528 130.77174
125.3430 125.2876 127.0 0.00787 110.04977 131.00053
125.3600 125.3046 126.0 0.00794 110.07584 131.25018
125.3770 125.3216 127.0 0.00787 110.10188 131.50601
125.3940 125.3386 127.0 0.00787 110.12796 131.76877
125.4100 125.3546 107.0 0.00935 110.15248 132.02208
125.4270 125.3716 129.0 0.00775 110.17851 132.29794
125.4440 125.3886 128.0 0.00782 110.20457 132.58133
125.4600 125.4046 138.0 0.00724 110.22910 132.85457
125.4770 125.4216 114.0 0.00877 110.25513 133.15225
125.4940 125.4386 128.0 0.00782 110.28120 133.45808
125.5110 125.4556 143.0 0.00699 110.30727 133.77177
125.5270 125.4716 119.0 0.00840 110.33176 134.07436
125.5440 125.4886 153.0 0.00654 110.35783 134.40465
125.5610 125.5056 125.0 0.00800 110.38389 134.74356
125.5780 125.5226 101.0 0.00990 110.40995 135.09158
125.5940 125.5386 131.0 0.00763 110.43446 135.42754
125.6110 125.5556 136.0 0.00736 110.46052 136.04329
125.6280 125.5726 146.0 0.00685 110.48656 136.42039
125.6440 125.5886 131.0 0.00763 110.51109 136.78461
125.6610 125.6056 129.0 0.00775 110.53713 137.18205
125.6780 125.6226 154.0 0.00649 110.56316 137.59007
125.6950 125.6396 171.0 0.00585 110.58923 138.01010
125.7110 125.6556 143.0 0.00699 110.61376 138.41611
125.7280 125.6726 115.0 0.00870 110.63979 138.85858
125.7450 125.6896 126.0 0.00794 110.66586 139.31447
125.7610 125.7056 148.0 0.00675 110.69040 139.75529
125.7780 125.7225 151.0 0.00662 110.71641 140.23605
125.7950 125.7396 144.0 0.00694 110.74249 140.73157
125.8120 125.7566 140.0 0.00715 110.76855 141.24135
125.8280 125.7726 125.0 0.00800 110.79304 141.73431
125.8450 125.7896 133.0 0.00752 110.81911 142.27403
125.8620 125.8066 153.0 0.00654 110.84516 142.82957
125.8780 125.8226 132.0 0.00757 110.86967 143.36719
125.8950 125.8396 162.0 0.00617 110.89573 143.95618
125.9120 125.8566 123.0 0.00813 110.92178 144.56252
125.9290 125.8736 133.0 0.00752 110.94785 145.18834
125.9450 125.8896 124.0 0.00806 110.97236 145.79459
125.9620 125.9066 132.0 0.00757 110.99840 146.45830
125.9790 125.9236 132.0 0.00757 111.02448 147.14389
125.9950 125.9396 136.0 0.00736 111.04900 147.80858
126.0120 125.9566 108.0 0.00926 111.07503 148.53683
126.0290 125.9736 127.0 0.00787 111.10110 149.28976
126.0460 125.9906 152.0 0.00658 111.12715 150.06712
126.0620 126.0066 122.0 0.00819 111.15165 150.82162
126.0790 126.0236 143.0 0.00699 111.17772 151.65079
126.0960 126.0406 161.0 0.00621 111.20378 152.50764
126.1130 126.0576 136.0 0.00736 111.22984 153.39398
126.1290 126.0736 171.0 0.00585 111.25435 154.25600
126.1460 126.0906 121.0 0.00826 111.28040 155.20338
126.1630 126.1076 151.0 0.00662 111.30647 156.18449
126.1790 126.1236 141.0 0.00710 111.33097 157.13966
126.1960 126.1406 146.0 0.00685 111.35703 158.19072
126.2130 126.1576 154.0 0.00649 111.38306 159.27919
126.2300 126.1746 152.0 0.00658 111.40913 160.41020
126.2460 126.1906 163.0 0.00613 111.43365 161.51329
126.2630 126.2076 149.0 0.00671 111.45968 162.72713
126.2800 126.2246 155.0 0.00645 111.48575 163.99033
126.2960 126.2406 140.0 0.00715 111.51028 165.22426
126.3130 126.2576 161.0 0.00621 111.53631 166.58440
126.3300 126.2746 141.0 0.00710 111.56238 168.00237
126.3470 126.2916 152.0 0.00658 111.58843 169.47833
126.3630 126.3076 173.0 0.00578 111.61294 170.92313
126.3800 126.3246 167.0 0.00599 111.63900 172.52501
126.3970 126.3416 139.0 0.00719 111.66506 174.19681
126.4130 126.3576 152.0 0.00658 111.68955 175.83766
126.4300 126.3746 160.0 0.00625 111.71563 177.66251
126.4470 126.3916 169.0 0.00592 111.74167 179.57231
126.4640 126.4086 172.0 0.00582 111.76774 181.57854
126.4800 126.4246 185.0 0.00541 111.79226 183.55798
126.4970 126.4416 177.0 0.00565 111.81830 185.76793
126.5140 126.4586 181.0 0.00553 111.84437 188.10104
126.5300 126.4746 170.0 0.00588 111.86887 190.41521
126.5470 126.4916 175.0 0.00571 111.89491 193.01373
126.5640 126.5086 176.0 0.00568 111.92099 195.77460
126.5810 126.5256 186.0 0.00537 111.94705 198.71007
126.5970 126.5416 201.0 0.00497 111.97154 201.64822
126.6140 126.5586 192.0 0.00521 111.99762 204.98521
126.6310 126.5756 205.0 0.00488 112.02367 208.56140
126.6480 126.5926 194.0 0.00515 112.04973 212.45113
126.6640 126.6086 201.0 0.00497 112.07423 216.34361
126.6810 126.6256 196.0 0.00510 112.10030 220.80664
126.6980 126.6426 227.0 0.00440 112.12635 225.64484
126.7140 126.6586 212.0 0.00472 112.15086 230.57950
126.7310 126.6756 223.0 0.00449 112.17692 236.27888
126.7480 126.6926 250.0 0.00400 112.20294 242.49321
126.7650 126.7096 208.0 0.00481 112.22902 249.30188
126.7810 126.7256 249.0 0.00402 112.25355 256.30115
126.7980 126.7426 241.0 0.00415 112.27957 264.42542
126.8150 126.7596 242.0 0.00413 112.30565 273.36151
126.8310 126.7756 238.0 0.00420 112.33018 282.57422
126.8480 126.7926 273.0 0.00366 112.35620 293.28821
126.8650 126.8096 260.0 0.00385 112.38226 305.09039
126.8820 126.8266 328.0 0.003049 112.40833 318.04419
126.8980 126.8426 305.0 0.003280 112.43282 331.38019
126.9150 126.8596 319.0 0.003135 112.45889 346.90533
126.9320 126.8766 336.0 0.002976 112.48495 363.90451
126.9480 126.8926 307.0 0.003258 112.50945 381.34088
126.9650 126.9096 389.0 0.002571 112.53551 401.54837
126.9820 126.9266 378.0 0.002646 112.56156 423.54172
126.9990 126.9436 428.0 0.002336 112.58762 447.47797
127.0150 126.9596 410.0 0.002439 112.61214 471.82581
127.0320 126.9766 458.0 0.002184 112.63818 499.73218
127.0490 126.9936 483.0 0.002070 112.66425 529.85944
127.0650 127.0096 480.0 0.002083 112.68877 560.24933
127.0820 127.0266 545.0 0.001834 112.71481 594.77234
127.0990 127.0436 571.0 0.001751 112.74088 631.68457
127.1160 127.0606 591.0 0.001692 112.76694 670.94128
127.1320 127.0766 664.0 0.001506 112.79143 710.00439
127.1490 127.0936 689.0 0.001451 112.81750 753.83197
127.1660 127.1106 731.0 0.001368 112.84357 799.89874
127.1830 127.1276 732.0 0.001366 112.86961 848.13245
127.1990 127.1436 861.0 0.001162 112.89413 895.37036
127.2160 127.1606 890.0 0.001124 112.92018 947.38531
127.2330 127.1776 984.0 0.001016 112.94624 1001.04315
127.2490 127.1936 1048.0 0.000954 112.97075 1052.78198
127.2660 127.2106 1103.0 0.000907 112.99681 1108.79456
127.2830 127.2276 1143.0 0.000875 113.02287 1165.47412
127.2990 127.2436 1205.0 0.000830 113.04738 1219.00256
127.3160 127.2606 1313.0 0.000761 113.07344 1275.61304
127.3330 127.2775 1419.0 0.000705 113.09946 1331.28662
127.3500 127.2946 1454.0 0.000688 113.12553 1385.52478
127.3660 127.3106 1524.0 0.000656 113.15006 1434.51428
127.3830 127.3276 1590.0 0.000629 113.17609 1483.60571
127.4000 127.3446 1694.0 0.000590 113.20216 1529.03015
127.4170 127.3616 1707.0 0.000586 113.22821 1569.88965
127.4330 127.3776 1758.0 0.000569 113.25272 1603.49268
127.4500 127.3946 1808.0 0.000553 113.27878 1633.46594
127.4670 127.4116 1791.0 0.000558 113.30484 1656.87756
127.4830 127.4276 1840.0 0.000543 113.32934 1672.49878
127.5000 127.4446 1767.0 0.000566 113.35541 1682.00952
127.5170 127.4616 1814.0 0.000551 113.38145 1684.02673
127.5340 127.4786 1821.0 0.000549 113.40752 1678.55725
127.5500 127.4946 1815.0 0.000551 113.43204 1666.72229
127.5670 127.5116 1660.0 0.000603 113.45808 1647.34009
127.5840 127.5286 1646.0 0.000608 113.48415 1621.33594
127.6000 127.5446 1613.0 0.000620 113.50866 1591.34741
127.6170 127.5616 1540.0 0.000649 113.53470 1554.39453
127.6340 127.5786 1507.0 0.000664 113.56077 1512.42419
127.6510 127.5956 1499.0 0.000667 113.58683 1466.41248
127.6670 127.6116 1403.0 0.000713 113.61133 1420.09363
127.6840 127.6286 1254.0 0.000798 113.63740 1368.23804
127.7010 127.6456 1232.0 0.000812 113.66345 1314.45032
127.7180 127.6626 1237.0 0.000808 113.68951 1259.35742
127.7340 127.6786 1112.0 0.000899 113.71402 1206.87476
127.7510 127.6956 1087.0 0.000920 113.74008 1150.92493
127.7680 127.7126 984.0 0.001016 113.76613 1095.28210
127.7840 127.7286 1003.0 0.000997 113.79065 1043.59644
127.8010 127.7456 892.0 0.001121 113.81670 989.71899
127.8180 127.7626 894.0 0.001119 113.84273 937.29742
127.8350 127.7796 817.0 0.001224 113.86880 886.44104
127.8510 127.7956 810.0 0.001235 113.89333 840.29181
127.8680 127.8126 820.0 0.001219 113.91936 792.45825
127.8850 127.8296 732.0 0.001366 113.94543 747.51440
127.9010 127.8456 659.0 0.001518 113.96996 707.26245
127.9180 127.8626 673.0 0.001486 113.99599 666.76227
127.9350 127.8796 650.0 0.001538 114.02205 628.49573
127.9520 127.8966 626.0 0.001597 114.04811 592.55365
127.9680 127.9126 528.0 0.001894 114.07260 560.83765
127.9850 127.9296 529.0 0.001890 114.09868 529.26001
128.0020 127.9466 517.0 0.001934 114.12473 499.88187
128.0180 127.9626 511.0 0.001956 114.14923 474.18353
128.0350 127.9796 499.0 0.002004 114.17531 448.80682
128.0520 127.9966 474.0 0.002110 114.20133 425.39731
128.0690 128.0136 452.0 0.002212 114.22741 403.80304
128.0850 128.0296 405.0 0.002470 114.25194 385.08746
128.1020 128.0466 435.0 0.002298 114.27796 366.79370
128.1190 128.0636 408.0 0.002451 114.30404 350.01254
128.1350 128.0796 387.0 0.002585 114.32854 335.53766
128.1520 128.0966 366.0 0.002733 114.35459 321.44669
128.1690 128.1136 355.0 0.002817 114.38067 308.56555
128.1860 128.1306 342.0 0.002925 114.40672 296.81854
128.2020 128.1466 356.0 0.002808 114.43122 286.71649
128.2190 128.1636 344.0 0.002906 114.45730 276.88361
128.2360 128.1806 339.0 0.002950 114.48335 267.91818
128.2530 128.1976 337.0 0.002967 114.50940 259.73462
128.2690 128.2136 268.0 0.00373 114.53391 252.68242
128.2860 128.2306 255.0 0.00392 114.55997 245.80931
128.3030 128.2476 286.0 0.003497 114.58603 239.51543
128.3190 128.2636 257.0 0.00389 114.61053 234.07074
128.3360 128.2806 266.0 0.00376 114.63658 228.73993
128.3530 128.2975 264.0 0.00379 114.66266 223.83224
128.3690 128.3136 254.0 0.00394 114.68716 219.56203
128.3860 128.3306 250.0 0.00400 114.71321 215.35675
128.4030 128.3475 252.0 0.00397 114.73924 211.46140
128.4200 128.3645 241.0 0.00415 114.76531 207.83537
128.4360 128.3806 242.0 0.00413 114.78984 204.65082
128.4530 128.3976 231.0 0.00433 114.81587 201.48891
128.4700 128.4146 243.0 0.00411 114.84194 198.52388
128.4870 128.4316 205.0 0.00488 114.86800 195.74318
128.5030 128.4476 218.0 0.00459 114.89250 193.27977
128.5200 128.4646 197.0 0.00507 114.91857 190.80441
128.5370 128.4816 216.0 0.00463 114.94463 188.46791
128.5530 128.4976 201.0 0.00497 114.96913 186.38545
128.5700 128.5146 189.0 0.00529 114.99520 184.28122
128.5870 128.5316 186.0 0.00537 115.02123 182.28523
128.6040 128.5486 184.0 0.00544 115.04730 180.38458
128.6200 128.5646 182.0 0.00550 115.07181 178.67992
128.6370 128.5816 188.0 0.00532 115.09786 176.95044
128.6540 128.5986 185.0 0.00541 115.12393 175.29709
128.6700 128.6145 171.0 0.00585 115.14844 173.80902
128.6870 128.6316 182.0 0.00550 115.17449 172.29446
128.7040 128.6486 198.0 0.00505 115.20056 170.84222
128.7210 128.6656 165.0 0.00606 115.22662 169.62352
128.7370 128.6816 162.0 0.00617 115.25112 168.36739
128.7540 128.6986 160.0 0.00625 115.27717 167.08261
128.7710 128.7156 170.0 0.00588 115.30325 165.84926
128.7880 128.7326 167.0 0.00599 115.32929 164.66383
128.8040 128.7486 175.0 0.00571 115.35380 163.59000
128.8210 128.7656 160.0 0.00625 115.37985 162.49059
128.8380 128.7825 163.0 0.00613 115.40592 161.43230
128.8540 128.7986 175.0 0.00571 115.43043 160.47227
128.8710 128.8156 157.0 0.00637 115.45648 159.48805
128.8880 128.8326 148.0 0.00675 115.48251 158.54042
128.9050 128.8495 141.0 0.00710 115.50858 157.62515
128.9210 128.8656 134.0 0.00746 115.53311 156.79356
128.9380 128.8826 166.0 0.00603 115.55914 155.94122
128.9550 128.8996 164.0 0.00609 115.58521 155.11699
128.9710 128.9156 153.0 0.00654 115.60974 154.36743
128.9880 128.9326 177.0 0.00565 115.63577 153.59842
129.0050 128.9496 163.0 0.00613 115.66184 152.87628
129.0220 128.9666 154.0 0.00649 115.68789 152.15730
129.0380 128.9826 131.0 0.00763 115.71239 151.50311
129.0550 128.9996 143.0 0.00699 115.73845 150.82918
129.0720 129.0166 151.0 0.00662 115.76452 150.17757
129.0880 129.0325 133.0 0.00752 115.78900 149.58417
129.1050 129.0496 145.0 0.00690 115.81508 148.97247
129.1220 129.0666 158.0 0.00633 115.84113 148.38086
129.1390 129.0836 132.0 0.00757 115.86720 147.80737
129.1550 129.0995 139.0 0.00719 115.89171 147.28450
129.1720 129.1166 129.0 0.00775 115.91776 146.74593
129.1890 129.1336 127.0 0.00787 115.94383 146.22342
129.2050 129.1496 137.0 0.00731 115.96834 145.74670
129.2220 129.1665 131.0 0.00763 115.99436 145.28276
129.2390 129.1836 139.0 0.00719 116.02044 144.80580
129.2560 129.2006 154.0 0.00649 116.04651 144.34349
129.2720 129.2166 125.0 0.00800 116.07099 143.92139
129.2890 129.2336 133.0 0.00752 116.09707 143.48514
129.3060 129.2506 140.0 0.00715 116.12312 143.06201
129.3230 129.2675 124.0 0.00806 116.14919 142.65140
129.3390 129.2836 129.0 0.00775 116.17370 142.27596
129.3560 129.3006 146.0 0.00685 116.19975 141.88811
129.3730 129.3176 162.0 0.00617 116.22580 141.51140
129.3890 129.3336 137.0 0.00731 116.25033 141.16693
129.4060 129.3506 139.0 0.00719 116.27637 140.81087
129.4230 129.3676 159.0 0.00629 116.30241 140.46530
129.4400 129.3846 130.0 0.00769 116.32848 140.12891
129.4560 129.4006 127.0 0.00787 116.35300 139.82101
129.4730 129.4176 144.0 0.00694 116.37904 139.50316
129.4900 129.4346 132.0 0.00757 116.40511 139.19362
129.5060 129.4506 148.0 0.00675 116.42963 138.91020
129.5230 129.4676 133.0 0.00752 116.45567 138.61754
129.5400 129.4846 121.0 0.00826 116.48171 138.33237
129.5570 129.5016 160.0 0.00625 116.50779 138.05513
129.5730 129.5175 149.0 0.00671 116.53227 137.80136
129.5900 129.5346 132.0 0.00757 116.55834 137.53833
129.6070 129.5516 139.0 0.00719 116.58440 137.28256
129.6230 129.5676 140.0 0.00715 116.60890 137.04837
129.6400 129.5845 142.0 0.00704 116.63497 136.80562
129.6570 129.6016 142.0 0.00704 116.66103 136.56960
129.6740 129.6186 135.0 0.00741 116.68710 136.33958
129.6900 129.6346 141.0 0.00710 116.71160 136.12883
129.7070 129.6516 143.0 0.00699 116.73763 135.91069
129.7240 129.6686 155.0 0.00645 116.76370 135.69807
129.7400 129.6846 117.0 0.00854 116.78823 135.50331
129.7570 129.7016 138.0 0.00724 116.81426 135.30157
129.7740 129.7186 127.0 0.00787 116.84033 135.10489
129.7910 129.7356 156.0 0.00641 116.86639 134.91350
129.8070 129.7516 132.0 0.00757 116.89089 134.73808
129.8240 129.7686 157.0 0.00637 116.91696 134.55612
129.8410 129.7856 129.0 0.00775 116.94302 134.86671
129.8570 129.8016 161.0 0.00621 116.96752 134.70496
129.8740 129.8186 139.0 0.00719 116.99359 134.53723
129.8910 129.8356 142.0 0.00704 117.01965 134.37387
129.9080 129.8526 145.0 0.00690 117.04569 134.21478
129.9240 129.8686 139.0 0.00719 117.07022 134.06889
129.9410 129.8856 144.0 0.00694 117.09628 133.91776
129.9580 129.9026 124.0 0.00806 117.12230 133.77066
129.9750 129.9196 120.0 0.00834 117.14838 133.62718
129.9910 129.9356 136.0 0.00736 117.17290 133.49554
130.0080 129.9526 139.0 0.00719 117.19893 133.35945
130.0250 129.9696 121.0 0.00826 117.22498 133.22664
130.0410 129.9856 140.0 0.00715 117.24951 133.10490
130.0580 130.0025 127.0 0.00787 117.27554 132.97894
130.0750 130.0196 114.0 0.00877 117.30161 132.85609
130.0920 130.0366 133.0 0.00752 117.32766 132.73653
130.1080 130.0526 134.0 0.00746 117.35217 132.62698
130.1250 130.0695 140.0 0.00715 117.37824 132.51343
130.1420 130.0866 137.0 0.00731 117.40429 132.40294
130.1580 130.1026 140.0 0.00715 117.42879 132.30180
130.1750 130.1196 148.0 0.00675 117.45487 132.19687
130.1920 130.1366 150.0 0.00666 117.48090 132.09494
130.2090 130.1536 136.0 0.00736 117.50697 131.99565
130.2250 130.1696 124.0 0.00806 117.53150 131.90477
130.2420 130.1866 121.0 0.00826 117.55753 131.81075
130.2590 130.2036 133.0 0.00752 117.58360 131.71928
130.2750 130.2196 137.0 0.00731 117.60811 131.63556
130.2920 130.2366 133.0 0.00752 117.63416 131.54909
130.3090 130.2536 162.0 0.00617 117.66023 131.46498
130.3260 130.2706 133.0 0.00752 117.68628 131.38335
130.3420 130.2866 124.0 0.00806 117.71078 131.30875
130.3590 130.3036 137.0 0.00731 117.73686 131.23180
130.3760 130.3206 146.0 0.00685 117.76291 131.15700
130.3930 130.3376 140.0 0.00715 117.78896 131.08450
130.4090 130.3536 116.0 0.00862 117.81347 131.01839
130.4260 130.3706 142.0 0.00704 117.83954 130.95027
130.4430 130.3876 141.0 0.00710 117.86559 130.88434
130.4590 130.4036 128.0 0.00782 117.89010 130.82430
130.4760 130.4206 130.0 0.00769 117.91617 130.76257
130.4930 130.4375 121.0 0.00826 117.94218 130.70309
130.5100 130.4546 141.0 0.00710 117.96825 130.64560
130.5260 130.4706 151.0 0.00662 117.99277 130.59348
130.5430 130.4875 140.0 0.00715 118.01881 130.54024
130.5600 130.5046 144.0 0.00694 118.04488 130.48904
130.5760 130.5206 120.0 0.00834 118.06940 130.44279
130.5930 130.5376 128.0 0.00782 118.09544 130.39586
130.6100 130.5546 122.0 0.00819 118.12151 130.35089
130.6270 130.5716 120.0 0.00834 118.14756 130.30821
130.6430 130.5876 139.0 0.00719 118.17207 130.27007
130.6600 130.6046 121.0 0.00826 118.19814 130.23157
130.6770 130.6216 145.0 0.00690 118.22419 130.19540
130.6930 130.6376 141.0 0.00710 118.24870 130.16344
130.7100 130.6546 139.0 0.00719 118.27477 130.13165
130.7270 130.6716 153.0 0.00654 118.30080 130.10228
130.7440 130.6886 141.0 0.00710 118.32687 130.07526
130.7600 130.7046 120.0 0.00834 118.35137 130.05205
130.7770 130.7216 121.0 0.00826 118.37743 130.02994
130.7940 130.7386 131.0 0.00763 118.40350 130.01028
130.8100 130.7546 136.0 0.00736 118.42800 129.99434
130.8270 130.7716 125.0 0.00800 118.45406 129.97990
130.8440 130.7886 134.0 0.00746 118.48013 129.96823
130.8610 130.8056 128.0 0.00782 118.50618 129.95938
130.8770 130.8216 116.0 0.00862 118.53069 129.95377
130.8940 130.8386 118.0 0.00848 118.55673 129.95068
130.9110 130.8556 139.0 0.00719 118.58281 129.95078
130.9280 130.8726 120.0 0.00834 118.60886 129.95395
130.9440 130.8886 128.0 0.00782 118.63336 129.95998
130.9610 130.9056 128.0 0.00782 118.65942 129.96962
130.9780 130.9225 146.0 0.00685 118.68549 129.98276
130.9940 130.9386 110.0 0.00909 118.70999 129.99831
131.0110 130.9556 136.0 0.00736 118.73605 130.01837
131.0280 130.9725 143.0 0.00699 118.76207 130.04210
131.0450 130.9895 129.0 0.00775 118.78814 130.06963
131.0610 131.0056 131.0 0.00763 118.81268 130.09904
131.0780 131.0226 130.0 0.00769 118.83870 130.30821
131.0950 131.0396 131.0 0.00763 118.86478 130.34740
131.1110 131.0556 143.0 0.00699 118.88931 130.38786
131.1280 131.0726 107.0 0.00935 118.91533 130.43460
131.1450 131.0896 119.0 0.00840 118.94141 130.48538
131.1620 131.1066 131.0 0.00763 118.96745 130.53999
131.1780 131.1226 131.0 0.00763 118.99196 130.59486
131.1950 131.1396 151.0 0.00662 119.01804 130.65694
131.2120 131.1566 146.0 0.00685 119.04408 130.72263
131.2280 131.1725 118.0 0.00848 119.06857 130.78766
131.2450 131.1896 119.0 0.00840 119.09464 130.86040
131.2620 131.2066 132.0 0.00757 119.12069 130.93642
131.2790 131.2236 123.0 0.00813 119.14677 131.01595
131.2950 131.2395 136.0 0.00736 119.17127 131.09377
131.3120 131.2566 121.0 0.00826 119.19732 131.17961
131.3290 131.2736 145.0 0.00690 119.22340 131.26874
131.3450 131.2896 140.0 0.00715 119.24790 131.35541
131.3620 131.3066 138.0 0.00724 119.27395 131.45055
131.3790 131.3236 119.0 0.00840 119.30000 131.54878
131.3960 131.3406 124.0 0.00806 119.32607 131.64993
131.4120 131.3566 106.0 0.00943 119.35056 131.74759
131.4290 131.3736 115.0 0.00870 119.37663 131.85400
131.4460 131.3906 144.0 0.00694 119.40268 131.96265
131.4630 131.4075 118.0 0.00848 119.42876 132.07323
131.4790 131.4236 116.0 0.00862 119.45326 132.17520
131.4960 131.4406 124.0 0.00806 119.47931 132.28802
131.5130 131.4576 147.0 0.00681 119.50536 132.40103
131.5290 131.4736 136.0 0.00736 119.52989 132.50682
131.5460 131.4906 141.0 0.00710 119.55594 132.61769
131.5630 131.5076 134.0 0.00746 119.58199 132.72600
131.5790 131.5236 131.0 0.00763 119.60652 132.82442
131.5960 131.5406 123.0 0.00813 119.63257 132.92404
131.6130 131.5576 129.0 0.00775 119.65860 133.01720
131.6300 131.5746 159.0 0.00629 119.68467 133.10275
131.6460 131.5906 129.0 0.00775 119.70920 133.17482
131.6630 131.6076 111.0 0.00900 119.73523 133.24107
131.6800 131.6246 111.0 0.00900 119.76128 133.29567
131.6960 131.6406 145.0 0.00690 119.78580 133.73141
131.7130 131.6575 134.0 0.00746 119.81184 133.76073
131.7300 131.6746 124.0 0.00806 119.83791 133.77570
131.7470 131.6916 119.0 0.00840 119.86398 133.77583
131.7630 131.7076 140.0 0.00715 119.88847 133.76242
131.7800 131.7245 143.0 0.00699 119.91454 133.73390
131.7970 131.7416 111.0 0.00900 119.94059 133.69133
131.8140 131.7586 152.0 0.00658 119.96666 133.63536
131.8300 131.7746 138.0 0.00724 119.99117 133.57137
131.8470 131.7915 130.0 0.00769 120.01719 133.49260
131.8640 131.8086 140.0 0.00715 120.04327 133.40385
131.8800 131.8246 127.0 0.00787 120.06779 133.31264
131.8970 131.8416 150.0 0.00666 120.09383 133.20880
131.9140 131.8586 128.0 0.00782 120.11990 133.09908
131.9310 131.8756 137.0 0.00731 120.14594 132.98505
131.9470 131.8916 135.0 0.00741 120.17046 132.87500
131.9640 131.9086 129.0 0.00775 120.19653 132.75597
131.9810 131.9256 149.0 0.00671 120.22258 132.63625
131.9980 131.9426 131.0 0.00763 120.24863 132.51653
132.0140 131.9586 131.0 0.00763 120.27316 132.40485
132.0310 131.9756 124.0 0.00806 120.29921 132.28773
132.0480 131.9926 150.0 0.00666 120.32526 132.17303
132.0640 132.0086 128.0 0.00782 120.34978 132.06778
132.0810 132.0256 113.0 0.00885 120.37584 131.95918
132.0980 132.0426 132.0 0.00757 120.40189 131.85442
132.1140 132.0586 130.0 0.00769 120.42639 131.75961
132.1310 132.0756 131.0 0.00763 120.45247 131.66312
132.1480 132.0926 129.0 0.00775 120.47849 131.57129
132.1650 132.1096 124.0 0.00806 120.50454 131.48401
132.1810 132.1256 137.0 0.00731 120.52908 131.40637
132.1980 132.1425 134.0 0.00746 120.55510 131.32872
132.2150 132.1596 138.0 0.00724 120.58117 131.25594
132.2320 132.1766 119.0 0.00840 120.60722 131.18811
132.2480 132.1926 137.0 0.00731 120.63173 131.12881
132.2650 132.2095 128.0 0.00782 120.65781 131.07048
132.2820 132.2266 138.0 0.00724 120.68385 131.01686
132.2980 132.2426 116.0 0.00862 120.70836 130.97075
132.3150 132.2596 146.0 0.00685 120.73444 130.92610
132.3320 132.2766 133.0 0.00752 120.76046 130.88589
132.3490 132.2936 131.0 0.00763 120.78653 130.84995
132.3650 132.3096 128.0 0.00782 120.81107 130.81990
132.3820 132.3266 152.0 0.00658 120.83709 130.79176
132.3990 132.3436 137.0 0.00731 120.86316 130.76743
132.4150 132.3596 105.0 0.00952 120.88767 130.74785
132.4320 132.3766 128.0 0.00782 120.91372 130.73038
132.4490 132.3936 135.0 0.00741 120.93980 130.71620
132.4660 132.4106 130.0 0.00769 120.96584 131.06316
132.4820 132.4266 143.0 0.00699 120.99035 131.05592
132.4990 132.4436 147.0 0.00681 121.01643 131.05096
132.5160 132.4606 136.0 0.00736 121.04247 131.04858
132.5330 132.4776 135.0 0.00741 121.06852 131.04866
132.5490 132.4936 122.0 0.00819 121.09306 131.05092
132.5660 132.5106 150.0 0.00666 121.11910 131.05533
132.5830 132.5276 130.0 0.00769 121.14515 131.06178
132.5990 132.5436 131.0 0.00763 121.16966 131.06963
132.6160 132.5606 119.0 0.00840 121.19573 131.07968
132.6330 132.5776 128.0 0.00782 121.22179 131.09137
132.6490 132.5936 125.0 0.00800 121.24629 131.10384
132.6660 132.6106 131.0 0.00763 121.27234 131.11853
132.6830 132.6275 145.0 0.00690 121.29836 131.13454
132.7000 132.6446 151.0 0.00662 121.32444 130.96150
132.7160 132.6606 128.0 0.00782 121.34897 130.97951
132.7330 132.6776 124.0 0.00806 121.37499 130.99979
132.7500 132.6945 134.0 0.00746 121.40107 131.02112
132.7670 132.7116 140.0 0.00715 121.42712 131.04352
132.7830 132.7276 127.0 0.00787 121.45163 131.06538
132.8000 132.7446 133.0 0.00752 121.47770 131.08958
132.8170 132.7616 136.0 0.00736 121.50375 131.11461
132.8330 132.7776 142.0 0.00704 121.52826 131.13890
132.8500 132.7946 142.0 0.00704 121.55433 131.16553
132.8670 132.8116 136.0 0.00736 121.58038 131.19287
132.8840 132.8286 127.0 0.00787 121.60651 131.22105
132.9000 132.8446 133.0 0.00752 121.63107 131.24815
132.9170 132.8616 125.0 0.00800 121.65719 131.27769
132.9340 132.8786 139.0 0.00719 121.68332 131.30783
132.9500 132.8946 131.0 0.00763 121.70789 131.33676
132.9670 132.9116 132.0 0.00757 121.73399 131.36812
132.9840 132.9286 147.0 0.00681 121.76012 131.40009
133.0010 132.9456 132.0 0.00757 121.78624 131.43263
133.0170 132.9616 156.0 0.00641 121.81080 131.46373
133.0340 132.9786 156.0 0.00641 121.83691 131.49739
133.0510 132.9956 130.0 0.00769 121.86304 131.53163
133.0680 133.0126 150.0 0.00666 121.88915 131.56633
133.0840 133.0286 117.0 0.00854 121.91372 131.59949
133.1010 133.0456 130.0 0.00769 121.93985 131.63522
133.1180 133.0625 137.0 0.00731 121.96596 131.67155
133.1340 133.0786 134.0 0.00746 121.99052 131.70610
133.1510 133.0956 146.0 0.00685 122.01663 131.74336
133.1680 133.1125 137.0 0.00731 122.04272 131.78108
133.1850 133.1296 128.0 0.00782 122.06886 131.81934
133.2010 133.1456 137.0 0.00731 122.09344 131.85580
133.2180 133.1626 135.0 0.00741 122.11952 131.89493
133.2350 133.1796 141.0 0.00710 122.14566 131.93462
133.2510 133.1956 124.0 0.00806 122.17024 131.97241
133.2680 133.2126 154.0 0.00649 122.19633 132.01299
133.2850 133.2296 118.0 0.00848 122.22247 132.05405
133.3020 133.2466 116.0 0.00862 122.24857 132.09563
133.3180 133.2626 149.0 0.00671 122.27314 132.13509
133.3350 133.2796 145.0 0.00690 122.29927 132.17758
133.3520 133.2966 118.0 0.00848 122.32539 132.22047
133.3680 133.3125 137.0 0.00731 122.34992 132.26123
133.3850 133.3296 149.0 0.00671 122.37605 132.30505
133.4020 133.3466 131.0 0.00763 122.40217 132.34929
133.4190 133.3636 143.0 0.00699 122.42830 132.39407
133.4350 133.3796 134.0 0.00746 122.45287 132.43657
133.4520 133.3966 135.0 0.00741 122.47897 132.48216
133.4690 133.4136 126.0 0.00794 122.50510 132.52824
133.4850 133.4296 139.0 0.00719 122.52967 132.57205
133.5020 133.4466 138.0 0.00724 122.55578 132.61900
133.5190 133.4636 143.0 0.00699 122.58189 132.66640
133.5360 133.4806 130.0 0.00769 122.60802 132.71431
133.5520 133.4966 151.0 0.00662 122.63256 132.75980
133.5690 133.5136 142.0 0.00704 122.65869 132.80862
133.5860 133.5306 128.0 0.00782 122.68481 132.85782
133.6030 133.5475 156.0 0.00641 122.71094 132.90758
133.6190 133.5636 136.0 0.00736 122.73550 132.95477
133.6360 133.5806 136.0 0.00736 122.76161 133.00537
133.6530 133.5975 138.0 0.00724 122.78774 133.05644
133.6690 133.6136 120.0 0.00834 122.81231 133.10492
133.6860 133.6306 169.0 0.00592 122.83842 133.15691
133.7030 133.6476 141.0 0.00710 122.86450 133.20929
133.7200 133.6646 125.0 0.00800 122.89064 133.26228
133.7360 133.6806 131.0 0.00763 122.91522 133.31252
133.7530 133.6976 130.0 0.00769 122.94131 133.36633
133.7700 133.7146 134.0 0.00746 122.96745 133.42072
133.7860 133.7306 160.0 0.00625 122.99203 133.47232
133.8030 133.7476 124.0 0.00806 123.01812 133.52748
133.8200 133.7646 139.0 0.00719 123.04425 133.58333
133.8370 133.7816 131.0 0.00763 123.07036 133.63953
133.8530 133.7975 148.0 0.00675 123.09490 133.69290
133.8700 133.8146 135.0 0.00741 123.12103 133.75015
133.8870 133.8316 134.0 0.00746 123.14717 133.80786
133.9030 133.8475 121.0 0.00826 123.17171 133.86255
133.9200 133.8645 137.0 0.00731 123.19784 133.92131
133.9370 133.8816 142.0 0.00704 123.22395 133.98048
133.9540 133.8986 157.0 0.00637 123.25008 134.04022
133.9700 133.9146 131.0 0.00763 123.27465 134.09688
133.9870 133.9316 146.0 0.00685 123.30076 134.15755
134.0040 133.9486 152.0 0.00658 123.32687 134.21877
134.0200 133.9646 144.0 0.00694 123.35146 134.27690
134.0370 133.9816 145.0 0.00690 123.37754 134.33913
134.0540 133.9986 142.0 0.00704 123.40367 134.40196
134.0710 134.0156 140.0 0.00715 123.42979 134.46533
134.0870 134.0316 149.0 0.00671 123.45435 134.52541
134.1040 134.0486 164.0 0.00609 123.48048 134.58987
134.1210 134.0656 129.0 0.00775 123.50659 134.65482
134.1370 134.0816 147.0 0.00681 123.53115 134.71638
134.1540 134.0986 118.0 0.00848 123.55729 134.78250
134.1710 134.1156 143.0 0.00699 123.58340 134.84915
134.1880 134.1326 132.0 0.00757 123.60950 134.91634
134.2040 134.1486 129.0 0.00775 123.63409 134.98012
134.2210 134.1656 141.0 0.00710 123.66020 135.04843
134.2380 134.1826 129.0 0.00775 123.68629 135.11732
134.2550 134.1996 123.0 0.00813 123.71243 135.18686
134.2710 134.2156 128.0 0.00782 123.73701 135.25288
134.2880 134.2326 131.0 0.00763 123.76310 135.32352
134.3050 134.2496 137.0 0.00731 123.78921 135.39490
134.3210 134.2656 140.0 0.00715 123.81380 135.46259
134.3380 134.2825 126.0 0.00794 123.83988 135.53503
134.3550 134.2996 128.0 0.00782 123.86601 135.60826
134.3720 134.3166 118.0 0.00848 123.89214 135.68210
134.3880 134.3326 125.0 0.00800 123.91669 135.75208
134.4050 134.3495 134.0 0.00746 123.94282 135.82724
134.4220 134.3666 133.0 0.00752 123.96893 135.90297
134.4380 134.3826 144.0 0.00694 123.99349 135.97481
134.4550 134.3996 133.0 0.00752 124.01962 136.05197
134.4720 134.4165 142.0 0.00704 124.04574 136.12970
134.4880 134.4326 136.0 0.00736 124.07030 136.20348
134.5050 134.4496 149.0 0.00671 124.09644 136.28262
134.5220 134.4666 142.0 0.00704 124.12252 136.36243
134.5390 134.4836 132.0 0.00757 124.14865 136.44302
134.5550 134.4996 143.0 0.00699 124.17322 136.51942
134.5720 134.5166 150.0 0.00666 124.19933 136.60144
134.5890 134.5336 140.0 0.00715 124.22546 136.68414
134.6060 134.5506 122.0 0.00819 124.25157 136.76761
134.6220 134.5666 145.0 0.00690 124.27613 136.84688
134.6390 134.5836 141.0 0.00710 124.30227 136.93188
134.6560 134.6006 170.0 0.00588 124.32838 137.01767
134.6730 134.6176 121.0 0.00826 124.35448 137.10420
134.6890 134.6336 135.0 0.00741 124.37907 137.18642
134.7060 134.6506 114.0 0.00877 124.40518 137.27460
134.7230 134.6676 133.0 0.00752 124.43129 137.36353
134.7390 134.6836 153.0 0.00654 124.45586 137.44803
134.7560 134.7006 161.0 0.00621 124.48199 137.53865
134.7730 134.7176 145.0 0.00690 124.50807 137.63004
134.7900 134.7346 131.0 0.00763 124.53419 137.72240
134.8060 134.7506 141.0 0.00710 124.55877 137.81013
134.8230 134.7675 164.0 0.00609 124.58486 137.90414
134.8400 134.7846 159.0 0.00629 124.61099 137.99918
134.8560 134.8006 139.0 0.00719 124.63558 138.08948
134.8730 134.8176 145.0 0.00690 124.66167 138.18616
134.8900 134.8345 156.0 0.00641 124.68780 138.28403
134.9070 134.8516 129.0 0.00775 124.71391 138.38269
134.9230 134.8676 134.0 0.00746 124.73847 138.47638
134.9400 134.8846 135.0 0.00741 124.76460 138.57713
134.9570 134.9016 129.0 0.00775 124.79072 138.67874
134.9730 134.9176 146.0 0.00685 124.81528 138.77525
134.9900 134.9346 141.0 0.00710 124.84142 138.87897
135.0070 134.9516 140.0 0.00715 124.86750 138.98361
135.0240 134.9686 145.0 0.00690 124.89363 139.08940
135.0400 134.9846 144.0 0.00694 124.91820 139.18993
135.0570 135.0016 142.0 0.00704 124.94431 139.29771
135.0740 135.0186 135.0 0.00741 124.97044 139.40680
135.0900 135.0346 141.0 0.00710 124.99500 139.51036
135.1070 135.0516 143.0 0.00699 125.02111 139.62152
135.1240 135.0686 155.0 0.00645 125.04724 139.73396
135.1410 135.0856 132.0 0.00757 125.07336 139.84753
135.1570 135.1016 135.0 0.00741 125.09792 139.95547
135.1740 135.1186 126.0 0.00794 125.12405 140.07149
135.1910 135.1356 145.0 0.00690 125.15016 140.18866
135.2080 135.1526 135.0 0.00741 125.17627 140.30713
135.2240 135.1686 132.0 0.00757 125.20084 140.41971
135.2410 135.1856 149.0 0.00671 125.22697 140.54074
135.2580 135.2026 138.0 0.00724 125.25307 140.66299
135.2740 135.2186 177.0 0.00565 125.27764 140.77931
135.2910 135.2356 154.0 0.00649 125.30375 140.90430
135.3080 135.2525 161.0 0.00621 125.32983 141.03050
135.3250 135.2696 151.0 0.00662 125.35597 141.15831
135.3410 135.2856 151.0 0.00662 125.38055 141.27994
135.3580 135.3026 141.0 0.00710 125.40665 141.41037
135.3750 135.3195 129.0 0.00775 125.43278 141.54259
135.3910 135.3356 149.0 0.00671 125.45737 141.66830
135.4080 135.3526 121.0 0.00826 125.48345 141.80321
135.4250 135.3696 150.0 0.00666 125.50958 141.93993
135.4420 135.3866 147.0 0.00681 125.53570 142.07823
135.4580 135.4026 121.0 0.00826 125.56026 142.20970
135.4750 135.4196 162.0 0.00617 125.58639 142.35121
135.4920 135.4366 145.0 0.00690 125.61250 142.49431
135.5080 135.4526 151.0 0.00662 125.63706 142.63048
135.5250 135.4696 149.0 0.00671 125.66318 142.77702
135.5420 135.4866 142.0 0.00704 125.68929 142.92523
135.5590 135.5036 171.0 0.00585 125.71542 143.07536
135.5750 135.5196 156.0 0.00641 125.73998 143.21829
135.5920 135.5366 151.0 0.00662 125.76609 143.37189
135.6090 135.5536 129.0 0.00775 125.79222 143.52763
135.6250 135.5695 140.0 0.00715 125.81679 143.67583
135.6420 135.5866 148.0 0.00675 125.84290 143.83516
135.6590 135.6036 144.0 0.00694 125.86900 143.99666
135.6760 135.6206 142.0 0.00704 125.89514 144.16022
135.6920 135.6366 137.0 0.00731 125.91968 144.31590
135.7090 135.6536 155.0 0.00645 125.94582 144.48363
135.7260 135.6706 127.0 0.00787 125.97195 144.65349
135.7430 135.6875 150.0 0.00666 125.99805 144.82556
135.7590 135.7036 150.0 0.00666 126.02262 144.98946
135.7760 135.7206 147.0 0.00681 126.04873 145.16600
135.7930 135.7375 130.0 0.00769 126.07487 145.34483
135.8090 135.7536 135.0 0.00741 126.09943 145.51535
135.8260 135.7706 116.0 0.00862 126.12553 145.69893
135.8430 135.7876 126.0 0.00794 126.15165 145.88501
135.8590 135.8036 158.0 0.00633 126.17623 146.06242
135.8760 135.8206 142.0 0.00704 126.20235 146.25352
135.8930 135.8376 146.0 0.00685 126.22843 146.44705
135.9100 135.8546 156.0 0.00641 126.25456 146.64365
135.9260 135.8706 132.0 0.00757 126.27915 146.83113
135.9430 135.8876 137.0 0.00731 126.30524 147.03282
135.9600 135.9046 133.0 0.00752 126.33137 147.23773
135.9760 135.9206 163.0 0.00613 126.35596 147.43323
135.9930 135.9375 163.0 0.00613 126.38202 147.64354
136.0100 135.9546 145.0 0.00690 126.40815 147.85732
136.0270 135.9716 144.0 0.00694 126.43429 148.07413
136.0430 135.9875 142.0 0.00704 126.45882 148.28085
136.0600 136.0046 164.0 0.00609 126.48496 148.50406
136.0770 136.0216 166.0 0.00603 126.51107 148.73036
136.0940 136.0386 147.0 0.00681 126.53720 148.96036
136.1100 136.0546 146.0 0.00685 126.56177 149.17982
136.1270 136.0716 153.0 0.00654 126.58788 149.41638
136.1440 136.0886 160.0 0.00625 126.61398 149.65692
136.1600 136.1046 146.0 0.00685 126.63857 149.88647
136.1770 136.1216 155.0 0.00645 126.66466 150.13405
136.1940 136.1386 153.0 0.00654 126.69080 150.38580
136.2110 136.1556 130.0 0.00769 126.71690 150.64143
136.2270 136.1716 152.0 0.00658 126.74146 150.88547
136.2440 136.1886 170.0 0.00588 126.76760 151.14926
136.2610 136.2056 157.0 0.00637 126.79371 151.41716
136.2770 136.2216 184.0 0.00544 126.81828 151.67308
136.2940 136.2386 159.0 0.00629 126.84441 151.94972
136.3110 136.2556 165.0 0.00606 126.87051 152.23087
136.3280 136.2726 163.0 0.00613 126.89663 152.51665
136.3440 136.2886 137.0 0.00731 126.92121 152.78992
136.3610 136.3056 138.0 0.00724 126.94732 153.08522
136.3780 136.3226 138.0 0.00724 126.97343 153.38551
136.3940 136.3386 163.0 0.00613 126.99799 153.67276
136.4110 136.3556 145.0 0.00690 127.02413 153.98320
136.4280 136.3726 167.0 0.00599 127.05022 154.29875
136.4450 136.3896 135.0 0.00741 127.07635 154.62042
136.4610 136.4056 153.0 0.00654 127.10091 154.92821
136.4780 136.4225 156.0 0.00641 127.12700 155.26048
136.4950 136.4396 137.0 0.00731 127.15313 155.59929
136.5120 136.4566 157.0 0.00637 127.17927 155.94415
136.5280 136.4725 143.0 0.00699 127.20380 156.27412
136.5450 136.4895 156.0 0.00641 127.22993 156.63148
136.5620 136.5066 174.0 0.00575 127.25605 156.99536
136.5780 136.5226 138.0 0.00724 127.28061 157.34361
136.5950 136.5396 162.0 0.00617 127.30675 157.72115
136.6120 136.5566 153.0 0.00654 127.33286 158.10533
136.6290 136.5736 159.0 0.00629 127.35896 158.49728
136.6450 136.5896 164.0 0.00609 127.38355 158.87288
136.6620 136.6066 151.0 0.00662 127.40964 159.27924
136.6790 136.6236 153.0 0.00654 127.43577 159.69417
136.6950 136.6396 157.0 0.00637 127.46036 160.09181
136.7120 136.6566 144.0 0.00694 127.48644 160.52235
136.7290 136.6736 170.0 0.00588 127.51258 160.96210
136.7460 136.6906 141.0 0.00710 127.53869 161.41046
136.7620 136.7066 158.0 0.00633 127.56325 161.84044
136.7790 136.7236 144.0 0.00694 127.58939 162.30716
136.7960 136.7406 159.0 0.00629 127.61549 162.78323
136.8120 136.7566 155.0 0.00645 127.64006 163.24005
136.8290 136.7736 148.0 0.00675 127.66619 163.73611
136.8460 136.7906 162.0 0.00617 127.69230 164.24242
136.8630 136.8076 174.0 0.00575 127.71841 164.75964
136.8790 136.8236 146.0 0.00685 127.74297 165.25647
136.8960 136.8406 164.0 0.00609 127.76910 165.79573
136.9130 136.8576 167.0 0.00599 127.79522 166.34686
136.9290 136.8736 192.0 0.00521 127.81978 166.87660
136.9460 136.8906 161.0 0.00621 127.84589 167.45181
136.9630 136.9075 163.0 0.00613 127.87198 168.03938
136.9800 136.9246 174.0 0.00575 127.89811 168.64149
136.9960 136.9406 167.0 0.00599 127.92270 169.22052
137.0130 136.9576 172.0 0.00582 127.94878 169.84877
137.0300 136.9745 200.0 0.00500 127.97491 170.49280
137.0470 136.9916 176.0 0.00568 128.00102 171.15176
137.0630 137.0076 158.0 0.00633 128.02559 171.78557
137.0800 137.0246 179.0 0.00559 128.05173 172.47583
137.0970 137.0415 163.0 0.00613 128.07784 173.18248
137.1130 137.0576 172.0 0.00582 128.10240 173.86269
137.1300 137.0746 159.0 0.00629 128.12852 174.60385
137.1470 137.0916 159.0 0.00629 128.15462 175.36269
137.1640 137.1086 171.0 0.00585 128.18076 176.14151
137.1800 137.1246 169.0 0.00592 128.20531 176.89195
137.1970 137.1416 158.0 0.00633 128.23143 177.70908
137.2140 137.1586 159.0 0.00629 128.25755 178.54832
137.2300 137.1746 178.0 0.00562 128.28212 179.35764
137.2470 137.1916 179.0 0.00559 128.30823 180.23941
137.2640 137.2086 165.0 0.00606 128.33437 181.14594
137.2810 137.2256 159.0 0.00629 128.36047 182.07652
137.2970 137.2416 162.0 0.00617 128.38504 182.97487
137.3140 137.2586 163.0 0.00613 128.41116 183.95662
137.3310 137.2756 154.0 0.00649 128.43729 184.96541
137.3470 137.2915 165.0 0.00606 128.46182 185.94019
137.3640 137.3086 162.0 0.00617 128.48796 187.00661
137.3810 137.3256 163.0 0.00613 128.51408 188.10373
137.3980 137.3426 178.0 0.00562 128.54019 189.23347
137.4140 137.3586 179.0 0.00559 128.56476 190.32764
137.4310 137.3756 185.0 0.00541 128.59087 191.52533
137.4480 137.3925 191.0 0.00524 128.61700 192.76050
137.4640 137.4086 200.0 0.00500 128.64157 193.95856
137.4810 137.4256 202.0 0.00495 128.66768 195.27206
137.4980 137.4426 205.0 0.00488 128.69376 196.62764
137.5150 137.4595 196.0 0.00510 128.71989 198.03156
137.5310 137.4756 211.0 0.00474 128.74448 199.39690
137.5480 137.4926 190.0 0.00527 128.77057 200.89540
137.5650 137.5096 174.0 0.00575 128.79671 202.45110
137.5820 137.5266 177.0 0.00565 128.82281 204.06383
137.5980 137.5426 235.0 0.00426 128.84738 205.63660
137.6150 137.5596 220.0 0.00455 128.87350 207.37415
137.6320 137.5766 219.0 0.00457 128.89961 209.18097
137.6480 137.5926 183.0 0.00546 128.92418 210.94856
137.6650 137.6096 194.0 0.00515 128.95029 212.90779
137.6820 137.6266 215.0 0.00465 128.97641 214.95131
137.6990 137.6436 222.0 0.00450 129.00253 217.09048
137.7150 137.6596 212.0 0.00472 129.02710 219.19362
137.7320 137.6766 232.0 0.00431 129.05321 221.53275
137.7490 137.6936 209.0 0.00478 129.07935 223.99146
137.7650 137.7095 208.0 0.00481 129.10391 226.41878
137.7820 137.7266 209.0 0.00478 129.13002 229.12965
137.7990 137.7436 230.0 0.00435 129.15614 231.99158
137.8160 137.7606 219.0 0.00457 129.18227 235.01224
137.8320 137.7766 210.0 0.00476 129.20680 238.01077
137.8490 137.7936 217.0 0.00461 129.23293 241.38435
137.8660 137.8106 224.0 0.00446 129.25906 244.95984
137.8820 137.8266 233.0 0.00429 129.28360 248.52310
137.8990 137.8436 229.0 0.00437 129.30974 252.54683
137.9160 137.8606 272.0 0.00368 129.33585 256.82678
137.9330 137.8775 251.0 0.00399 129.36198 261.38672
137.9490 137.8936 285.0 0.00351 129.38655 265.95300
137.9660 137.9106 280.0 0.00357 129.41266 271.12314
137.9830 137.9276 273.0 0.00366 129.43874 276.63855
138.0000 137.9445 274.0 0.00365 129.46487 282.54294
138.0160 137.9606 282.0 0.00355 129.48946 288.47104
138.0330 137.9776 283.0 0.00353 129.51555 295.18488
138.0500 137.9946 276.0 0.00362 129.54169 302.37955
138.0660 138.0106 324.0 0.003086 129.56627 309.60779
138.0830 138.0276 336.0 0.002976 129.59236 317.79636
138.1000 138.0446 348.0 0.002875 129.61848 326.57040
138.1170 138.0616 335.0 0.002986 129.64459 335.94803
138.1330 138.0776 352.0 0.002841 129.66916 345.35437
138.1500 138.0946 362.0 0.002761 129.69527 356.02802
138.1670 138.1116 352.0 0.002841 129.72141 367.41846
138.1830 138.1275 384.0 0.002603 129.74594 378.82330
138.2000 138.1446 401.0 0.002495 129.77208 391.73764
138.2170 138.1616 405.0 0.002470 129.79819 405.48514
138.2330 138.1776 396.0 0.002525 129.82275 419.21332
138.2500 138.1945 422.0 0.002370 129.84889 434.71304
138.2670 138.2116 418.0 0.002391 129.87500 451.14911
138.2840 138.2286 416.0 0.002403 129.90111 468.59583
138.3000 138.2446 463.0 0.002159 129.92569 485.93747
138.3170 138.2616 502.0 0.001991 129.95178 505.38409
138.3340 138.2786 476.0 0.002100 129.97791 525.94025
138.3510 138.2956 540.0 0.001852 130.00404 547.59839
138.3670 138.3116 561.0 0.001782 130.02858 568.99902
138.3840 138.3286 517.0 0.001934 130.05472 592.89343
138.4010 138.3456 586.0 0.001706 130.08083 617.94287
138.4170 138.3616 620.0 0.001613 130.10539 642.56970
138.4340 138.3786 656.0 0.001525 130.13153 669.92114
138.4510 138.3956 645.0 0.001550 130.15764 698.43274
138.4680 138.4126 669.0 0.001494 130.18375 728.10779
138.4840 138.4286 725.0 0.001379 130.20833 757.07166
138.5010 138.4456 737.0 0.001357 130.23444 788.93848
138.5180 138.4626 744.0 0.001344 130.26053 821.84216
138.5350 138.4796 825.0 0.001212 130.28667 855.82806
138.5510 138.4956 774.0 0.001292 130.31125 888.68512
138.5680 138.5126 898.0 0.001113 130.33734 924.40869
138.5850 138.5296 907.0 0.001102 130.36346 960.99609
138.6010 138.5456 933.0 0.001071 130.38806 996.06110
138.6180 138.5625 1046.0 0.000956 130.41412 1033.83435
138.6350 138.5796 997.0 0.001003 130.44025 1072.13074
138.6520 138.5966 1010.0 0.000990 130.46638 1110.71887
138.6680 138.6125 1087.0 0.000920 130.49092 1147.14758
138.6850 138.6296 1127.0 0.000887 130.51706 1185.90735
138.7020 138.6466 1163.0 0.000860 130.54317 1224.46606
138.7180 138.6626 1221.0 0.000819 130.56773 1260.39404
138.7350 138.6796 1253.0 0.000798 130.59386 1298.10120
138.7520 138.6966 1298.0 0.000770 130.61998 1335.06396
138.7680 138.7126 1333.0 0.000750 130.64453 1368.99597
138.7850 138.7296 1376.0 0.000727 130.67067 1404.06274
138.8020 138.7466 1409.0 0.000710 130.69676 1437.85535
138.8190 138.7636 1444.0 0.000693 130.72289 1470.29700
138.8350 138.7796 1483.0 0.000674 130.74748 1499.40723
138.8520 138.7966 1597.0 0.000626 130.77356 1528.72729
138.8690 138.8136 1598.0 0.000626 130.79970 1556.31055
138.8860 138.8306 1624.0 0.000616 130.82581 1581.99841
138.9020 138.8466 1658.0 0.000603 130.85037 1604.34424
138.9190 138.8636 1710.0 0.000585 130.87651 1626.10181
138.9360 138.8806 1660.0 0.000603 130.90262 1645.66235
138.9520 138.8966 1711.0 0.000585 130.92717 1661.96619
138.9690 138.9136 1741.0 0.000574 130.95331 1676.98425
138.9860 138.9306 1738.0 0.000575 130.97942 1689.47412
139.0030 138.9476 1789.0 0.000559 131.00552 1699.32068
139.0190 138.9636 1885.0 0.000530 131.03009 1706.05725
139.0360 138.9806 1808.0 0.000553 131.05623 1710.41028
139.0530 138.9976 1791.0 0.000558 131.08231 1711.75562
139.0700 139.0146 1718.0 0.000582 131.10844 1709.98840
139.0860 139.0306 1804.0 0.000554 131.13301 1705.40454
139.1030 139.0475 1797.0 0.000557 131.15910 1697.38879
139.1200 139.0646 1733.0 0.000577 131.18523 1686.08154
139.1360 139.0806 1741.0 0.000574 131.20982 1672.45874
139.1530 139.0975 1711.0 0.000585 131.23590 1654.89258
139.1700 139.1145 1654.0 0.000605 131.26204 1634.17590
139.1870 139.1316 1654.0 0.000605 131.28815 1610.48804
139.2030 139.1476 1673.0 0.000598 131.31271 1585.65161
139.2200 139.1646 1495.0 0.000669 131.33884 1556.69067
139.2370 139.1816 1576.0 0.000634 131.36496 1525.37122
139.2530 139.1976 1512.0 0.000662 131.38951 1493.98608
139.2700 139.2146 1441.0 0.000694 131.41565 1458.78528
139.2870 139.2316 1396.0 0.000716 131.44174 1422.04285
139.3040 139.2486 1467.0 0.000682 131.46786 1383.95435
139.3200 139.2646 1363.0 0.000734 131.49246 1347.19629
139.3370 139.2816 1223.0 0.000818 131.51854 1307.39954
139.3540 139.2986 1226.0 0.000816 131.54468 1267.03064
139.3700 139.3146 1177.0 0.000849 131.56924 1228.80286
139.3870 139.3316 1164.0 0.000859 131.59535 1188.11560
139.4040 139.3486 1117.0 0.000895 131.62148 1147.49622
139.4210 139.3656 1060.0 0.000943 131.64760 1107.19336
139.4370 139.3816 1053.0 0.000950 131.67215 1069.70935
139.4540 139.3986 957.0 0.001045 131.69829 1030.39282
139.4710 139.4156 925.0 0.001081 131.72440 991.81018
139.4870 139.4316 915.0 0.001093 131.74896 956.27588
139.5040 139.4486 890.0 0.001124 131.77507 919.34186
139.5210 139.4656 838.0 0.001193 131.80121 883.41022
139.5380 139.4826 841.0 0.001189 131.82732 848.52368
139.5540 139.4986 776.0 0.001288 131.85188 816.70178
139.5710 139.5156 742.0 0.001348 131.87799 783.98132
139.5880 139.5325 750.0 0.001333 131.90407 752.46307
139.6050 139.5496 770.0 0.001299 131.93021 722.07886
139.6210 139.5656 696.0 0.001437 131.95479 694.58990
139.6380 139.5826 698.0 0.001433 131.98088 666.59412
139.6550 139.5995 673.0 0.001486 132.00702 639.75793
139.6710 139.6156 667.0 0.001499 132.03160 615.60687
139.6880 139.6326 641.0 0.001560 132.05769 591.13556
139.7050 139.6496 618.0 0.001618 132.08382 567.79614
139.7220 139.6665 607.0 0.001647 132.10992 545.62347
139.7380 139.6826 557.0 0.001795 132.13449 525.80536
139.7550 139.6996 566.0 0.001767 132.16063 505.78568
139.7720 139.7166 526.0 0.001902 132.18674 486.84979
139.7880 139.7326 509.0 0.001965 132.21130 469.99310
139.8050 139.7496 491.0 0.002036 132.23741 453.03104
139.8220 139.7666 517.0 0.001934 132.26352 437.05713
139.8390 139.7836 482.0 0.002076 132.28966 421.99661
139.8550 139.7996 480.0 0.002083 132.31422 408.65076
139.8720 139.8166 403.0 0.002483 132.34033 395.30197
139.8890 139.8336 445.0 0.002246 132.36646 382.75357
139.9050 139.8495 369.0 0.002710 132.39102 371.66309
139.9220 139.8666 407.0 0.002458 132.41713 360.59647
139.9390 139.8836 406.0 0.002463 132.44327 350.21609
139.9560 139.9006 418.0 0.002391 132.46938 340.50140
139.9720 139.9165 390.0 0.002564 132.49391 331.93491
139.9890 139.9336 383.0 0.002611 132.52005 323.38812
140.0060 139.9506 379.0 0.002638 132.54619 315.39737
140.0220 139.9666 357.0 0.002802 132.57072 308.35547
140.0390 139.9836 363.0 0.002756 132.59686 301.33182
140.0560 140.0006 384.0 0.002603 132.62297 294.76498
140.0730 140.0175 312.0 0.003206 132.64909 288.62015
140.0890 140.0336 329.0 0.003039 132.67366 283.19781
140.1060 140.0506 288.0 0.003472 132.69977 277.78989
140.1230 140.0676 305.0 0.003280 132.72586 272.72794
140.1400 140.0845 323.0 0.003097 132.75200 267.97308
140.1560 140.1006 310.0 0.003225 132.77658 263.76712
140.1730 140.1176 291.0 0.003436 132.80267 259.56763
140.1900 140.1346 299.0 0.003345 132.82880 255.61252
140.2060 140.1506 287.0 0.003485 132.85339 252.10416
140.2230 140.1676 268.0 0.00373 132.87947 248.59059
140.2400 140.1846 246.0 0.00407 132.90561 245.27043
140.2570 140.2016 285.0 0.00351 132.93172 242.13646
140.2730 140.2176 274.0 0.00365 132.95628 239.34520
140.2900 140.2346 265.0 0.00377 132.98239 236.52803
140.3070 140.2516 264.0 0.00379 133.00853 233.85852
140.3230 140.2675 251.0 0.00399 133.03307 231.47180
140.3400 140.2846 254.0 0.00394 133.05920 229.05371
140.3570 140.3016 278.0 0.00360 133.08531 226.75467
140.3740 140.3186 230.0 0.00435 133.11143 224.56091
140.3900 140.3345 280.0 0.00357 133.13600 222.58961
140.4070 140.3516 230.0 0.00435 133.16211 220.58604
140.4240 140.3686 236.0 0.00424 133.18825 218.66725
140.4400 140.3846 230.0 0.00435 133.21281 216.93713
140.4570 140.4016 235.0 0.00426 133.23889 215.17288
140.4740 140.4186 209.0 0.00478 133.26503 213.47766
140.4910 140.4356 222.0 0.00450 133.29117 211.85008
140.5070 140.4516 249.0 0.00402 133.31570 210.37671
140.5240 140.4686 199.0 0.00502 133.34184 208.86610
140.5410 140.4856 210.0 0.00476 133.36795 207.41182
140.5570 140.5016 226.0 0.00443 133.39252 206.09218
140.5740 140.5186 212.0 0.00472 133.41864 204.73616
140.5910 140.5356 211.0 0.00474 133.44475 203.42783
140.6080 140.5526 229.0 0.00437 133.47086 202.16403
140.6240 140.5686 195.0 0.00513 133.49545 201.01373
140.6410 140.5856 202.0 0.00495 133.52156 199.83018
140.6580 140.6026 213.0 0.00470 133.54767 198.68501
140.6740 140.6186 229.0 0.00437 133.57225 197.64114
140.6910 140.6356 193.0 0.00518 133.59837 196.56558
140.7080 140.6526 172.0 0.00582 133.62445 195.52478
140.7250 140.6696 219.0 0.00457 133.65059 194.51421
140.7410 140.6856 203.0 0.00492 133.67517 193.59160
140.7580 140.7026 190.0 0.00527 133.70126 192.64133
140.7750 140.7196 180.0 0.00555 133.72737 191.71779
140.7920 140.7366 200.0 0.00500 133.75351 190.82210
140.8080 140.7525 211.0 0.00474 133.77805 190.00380
140.8250 140.7696 185.0 0.00541 133.80417 189.15753
140.8420 140.7866 192.0 0.00521 133.83029 188.33609
140.8580 140.8026 189.0 0.00529 133.85484 187.58516
140.8750 140.8195 184.0 0.00544 133.88098 186.80809
140.8920 140.8366 170.0 0.00588 133.90709 186.05371
140.9090 140.8536 170.0 0.00588 133.93320 185.31960
140.9250 140.8696 182.0 0.00550 133.95779 184.64796
140.9420 140.8866 202.0 0.00495 133.98387 183.95358
140.9590 140.9036 200.0 0.00500 134.01001 183.27745
140.9750 140.9196 184.0 0.00544 134.03459 182.65855
140.9920 140.9366 177.0 0.00565 134.06068 182.01839
141.0090 140.9536 168.0 0.00595 134.08682 181.39478
141.0260 140.9706 175.0 0.00571 134.11293 180.78818
141.0420 140.9866 179.0 0.00559 134.13748 180.23265
141.0590 141.0036 182.0 0.00550 134.16362 179.65675
141.0760 141.0206 177.0 0.00565 134.18973 179.09631
141.0920 141.0366 188.0 0.00532 134.21429 178.58284
141.1090 141.0536 168.0 0.00595 134.24043 178.05035
141.1260 141.0706 189.0 0.00529 134.26654 177.53200
141.1430 141.0876 167.0 0.00599 134.29265 177.02708
141.1590 141.1036 157.0 0.00637 134.31721 176.56400
141.1760 141.1206 164.0 0.00609 134.34334 176.08405
141.1930 141.1376 168.0 0.00595 134.36946 175.61646
141.2090 141.1536 161.0 0.00621 134.39401 175.18741
141.2260 141.1706 175.0 0.00571 134.42015 174.74266
141.2430 141.1875 177.0 0.00565 134.44621 174.30966
141.2600 141.2046 147.0 0.00681 134.47235 173.88699
141.2760 141.2206 141.0 0.00710 134.49693 173.49892
141.2930 141.2375 163.0 0.00613 134.52303 173.09732
141.3100 141.2546 158.0 0.00633 134.54915 172.70514
141.3270 141.2716 179.0 0.00559 134.57527 172.32294
141.3430 141.2876 163.0 0.00613 134.59982 171.97224
141.3600 141.3046 177.0 0.00565 134.62596 171.60812
141.3770 141.3216 156.0 0.00641 134.65207 171.25320
141.3930 141.3376 178.0 0.00562 134.67664 170.92757
141.4100 141.3546 169.0 0.00592 134.70277 170.58937
141.4270 141.3716 135.0 0.00741 134.72885 170.25990
141.4440 141.3886 165.0 0.00606 134.75499 169.93822
141.4600 141.4046 173.0 0.00578 134.77957 169.64293
141.4770 141.4216 159.0 0.00629 134.80566 169.33676
141.4940 141.4386 160.0 0.00625 134.83179 169.03780
141.5100 141.4546 168.0 0.00595 134.85635 168.76337
141.5270 141.4716 150.0 0.00666 134.88246 168.47887
141.5440 141.4886 144.0 0.00694 134.90860 168.20100
141.5610 141.5056 169.0 0.00592 134.93471 167.93008
141.5770 141.5216 155.0 0.00645 134.95927 167.68146
141.5940 141.5386 147.0 0.00681 134.98541 167.42317
141.6110 141.5556 181.0 0.00553 135.01152 167.17139
141.6270 141.5716 174.0 0.00575 135.03609 166.94035
141.6440 141.5886 144.0 0.00694 135.06219 166.70030
141.6610 141.6056 163.0 0.00613 135.08832 166.46634
141.6780 141.6226 185.0 0.00541 135.11444 166.23813
141.6940 141.6386 141.0 0.00710 135.13899 166.02861
141.7110 141.6556 179.0 0.00559 135.16510 165.81126
141.7280 141.6725 164.0 0.00609 135.19124 165.59937
141.7440 141.6886 154.0 0.00649 135.21581 165.40477
141.7610 141.7056 171.0 0.00585 135.24191 165.20296
141.7780 141.7225 164.0 0.00609 135.26801 165.00645
141.7950 141.7395 161.0 0.00621 135.29413 164.81451
141.8110 141.7556 168.0 0.00595 135.31873 164.63840
141.8280 141.7726 132.0 0.00757 135.34480 164.45612
141.8450 141.7896 152.0 0.00658 135.37094 164.27815
141.8620 141.8066 174.0 0.00575 135.39705 164.10489
141.8780 141.8226 166.0 0.00603 135.42162 163.94601
141.8950 141.8396 147.0 0.00681 135.44775 163.78119
141.9120 141.8566 155.0 0.00645 135.47386 163.62073
141.9280 141.8726 175.0 0.00571 135.49248 163.46777
141.9450 141.8896 153.0 0.00654 135.48344 163.28012
141.9620 141.9066 124.0 0.00806 135.47443 163.09674
141.9790 141.9236 165.0 0.00606 135.46539 162.91714
141.9950 141.9396 152.0 0.00658 135.45691 162.75179
142.0120 141.9566 151.0 0.00662 135.44789 162.57985
142.0290 141.9736 155.0 0.00645 135.43886 162.41144
142.0450 141.9895 158.0 0.00633 135.43036 162.25647
142.0620 142.0066 163.0 0.00613 135.42134 162.09535
142.0790 142.0236 136.0 0.00736 135.41231 161.93761
142.0960 142.0406 168.0 0.00595 135.40329 161.78343
142.1120 142.0566 138.0 0.00724 135.39481 161.64165
142.1290 142.0736 183.0 0.00546 135.38577 161.49402
142.1460 142.0906 152.0 0.00658 135.37674 161.34985
142.1620 142.1066 162.0 0.00617 135.36827 161.21724
142.1790 142.1236 144.0 0.00694 135.35924 161.07919
142.1960 142.1406 180.0 0.00555 135.35020 160.94446
142.2130 142.1575 173.0 0.00578 135.34117 160.81290
142.2290 142.1736 175.0 0.00571 135.33269 160.69185
142.2460 142.1906 149.0 0.00671 135.32367 160.56618
142.2630 142.2076 150.0 0.00666 135.31465 160.44356
142.2800 142.2245 165.0 0.00606 135.30562 160.32376
142.2960 142.2406 137.0 0.00731 135.29712 160.21367
142.3130 142.2576 163.0 0.00613 135.28810 160.09972
142.3300 142.2746 150.0 0.00666 135.27907 159.98830
142.3460 142.2906 155.0 0.00645 135.27058 159.88609
142.3630 142.3076 171.0 0.00585 135.26157 159.78032
142.3800 142.3246 143.0 0.00699 135.25253 159.67712
142.3970 142.3416 155.0 0.00645 135.24352 159.57664
142.4130 142.3576 144.0 0.00694 135.23502 159.48466
142.4300 142.3746 152.0 0.00658 135.22600 159.38934
142.4470 142.3916 166.0 0.00603 135.21696 159.29669
142.4630 142.4075 153.0 0.00654 135.20848 159.21199
142.4800 142.4246 191.0 0.00524 135.19945 159.12430
142.4970 142.4416 165.0 0.00606 135.19041 159.03929
142.5130 142.4576 159.0 0.00629 135.18195 158.96167
142.5300 142.4745 169.0 0.00592 135.17291 158.88147
142.5470 142.4916 177.0 0.00565 135.16388 158.80392
142.5640 142.5086 139.0 0.00719 135.15486 158.72884
142.5800 142.5246 160.0 0.00625 135.14636 158.66048
142.5970 142.5415 159.0 0.00629 135.13734 158.59024
142.6140 142.5586 150.0 0.00666 135.12833 158.52249
142.6310 142.5756 147.0 0.00681 135.11929 158.45714
142.6470 142.5916 157.0 0.00637 135.11081 158.39804
142.6640 142.6086 137.0 0.00731 135.10178 158.33757
142.6810 142.6256 145.0 0.00690 135.09276 158.27957
142.6970 142.6416 166.0 0.00603 135.08426 158.22726
142.7140 142.6586 156.0 0.00641 135.07523 158.17413
142.7310 142.6756 175.0 0.00571 135.06621 158.12347
142.7480 142.6926 153.0 0.00654 135.05719 158.07542
142.7640 142.7086 168.0 0.00595 135.04869 158.03246
142.7810 142.7256 156.0 0.00641 135.03966 157.98933
142.7980 142.7426 157.0 0.00637 135.03065 157.94888
142.8150 142.7596 148.0 0.00675 135.02162 157.91096
142.8310 142.7756 145.0 0.00690 135.01312 157.87775
142.8480 142.7926 164.0 0.00609 135.00410 157.84512
142.8650 142.8096 165.0 0.00606 134.99507 157.81517
142.8810 142.8256 164.0 0.00609 134.98657 157.78951
142.8980 142.8426 155.0 0.00645 134.97757 157.76512
142.9150 142.8596 168.0 0.00595 134.96854 157.74356
142.9320 142.8766 145.0 0.00690 134.95950 157.72495
142.9480 142.8925 172.0 0.00582 134.95102 157.71028
142.9650 142.9096 163.0 0.00613 134.94200 157.69762
142.9820 142.9266 174.0 0.00575 134.93297 157.68816
142.9980 142.9426 139.0 0.00719 134.92448 157.68227
143.0150 142.9595 151.0 0.00662 134.91545 157.67923
143.0320 142.9766 161.0 0.00621 134.90643 157.67961
143.0480 142.9926 148.0 0.00675 134.89793 157.68326
143.0650 143.0096 164.0 0.00609 134.88890 157.69061
143.0820 143.0266 148.0 0.00675 134.87990 157.70171
143.0990 143.0436 139.0 0.00719 134.87086 157.71667
143.1150 143.0596 134.0 0.00746 134.86237 157.73438
143.1320 143.0766 148.0 0.00675 134.85335 157.75716
143.1490 143.0936 156.0 0.00641 134.84431 157.78416
143.1660 143.1106 174.0 0.00575 134.83530 157.81546
143.1820 143.1266 147.0 0.00681 134.82681 157.84900
143.1990 143.1436 141.0 0.00710 134.81778 157.88918
143.2160 143.1606 151.0 0.00662 134.80875 157.93408
143.2320 143.1766 156.0 0.00641 134.80026 157.98065
143.2490 143.1936 140.0 0.00715 134.79123 158.03520
143.2660 143.2106 158.0 0.00633 134.78221 158.09485
143.2830 143.2276 136.0 0.00736 134.77318 158.15976
143.2990 143.2436 150.0 0.00666 134.76469 158.22586
143.3160 143.2606 140.0 0.00715 134.75566 158.30142
143.3330 143.2776 150.0 0.00666 134.74664 158.38261
143.3500 143.2946 168.0 0.00595 134.73761 158.46979
143.3660 143.3106 160.0 0.00625 134.72913 158.55727
143.3830 143.3276 149.0 0.00671 134.72011 158.65587
143.4000 143.3446 146.0 0.00685 134.71107 158.76089
143.4160 143.3606 162.0 0.00617 134.70259 158.86543
143.4330 143.3775 148.0 0.00675 134.69357 158.98257
143.4500 143.3946 164.0 0.00609 134.68454 159.10638
143.4670 143.4116 135.0 0.00741 134.67552 159.23651
143.4830 143.4276 171.0 0.00585 134.66702 159.36497
143.5000 143.4445 160.0 0.00625 134.65799 159.50813
143.5170 143.4616 137.0 0.00731 134.64897 159.65784
143.5330 143.4776 148.0 0.00675 134.64049 159.80469
143.5500 143.4946 166.0 0.00603 134.63145 159.96741
143.5670 143.5116 175.0 0.00571 134.62242 160.13669
143.5830 143.5276 151.0 0.00662 134.61394 160.30188
143.6000 143.5446 152.0 0.00658 134.60490 160.48399
143.6170 143.5616 178.0 0.00562 134.59589 160.67235
143.6340 143.5786 169.0 0.00592 134.58687 160.86713
143.6500 143.5946 161.0 0.00621 134.57837 161.05597
143.6670 143.6116 131.0 0.00763 134.56935 161.26231
143.6840 143.6286 151.0 0.00662 134.56032 161.47464
143.7010 143.6456 151.0 0.00662 134.55130 161.69231
143.7170 143.6616 126.0 0.00794 134.54280 161.90169
143.7340 143.6786 184.0 0.00544 134.53377 162.12926
143.7510 143.6956 138.0 0.00724 134.52475 162.36124
143.7670 143.7116 145.0 0.00690 134.51627 162.58307
143.7840 143.7286 149.0 0.00671 134.50723 162.82281
143.8010 143.7456 154.0 0.00649 134.49820 163.06560
143.8180 143.7626 185.0 0.00541 134.48918 163.31108
143.8340 143.7786 169.0 0.00592 134.48070 163.54408
143.8510 143.7956 170.0 0.00588 134.47166 163.79329
143.8680 143.8125 156.0 0.00641 134.46266 164.04318
143.8850 143.8296 169.0 0.00592 134.45363 164.29393
143.9010 143.8456 162.0 0.00617 134.44513 164.52959
143.9180 143.8625 148.0 0.00675 134.43611 164.77881
143.9350 143.8796 173.0 0.00578 134.42708 165.02689
143.9510 143.8956 173.0 0.00578 134.41858 165.25835
143.9680 143.9126 154.0 0.00649 134.40956 165.50113
143.9850 143.9296 160.0 0.00625 134.40054 165.74092
144.0020 143.9466 192.0 0.00521 134.39151 165.97655
144.0180 143.9626 159.0 0.00629 134.38303 166.19388
144.0350 143.9796 159.0 0.00629 134.37399 166.42020
144.0520 143.9966 155.0 0.00645 134.36497 166.64085
144.0680 144.0126 180.0 0.00555 134.35648 166.84293
144.0850 144.0296 181.0 0.00553 134.34744 167.05199
144.1020 144.0466 148.0 0.00675 134.33844 167.25435
144.1190 144.0636 169.0 0.00592 134.32941 167.45047
144.1350 144.0796 158.0 0.00633 134.32091 167.62904
144.1520 144.0966 172.0 0.00582 134.31189 167.81262
144.1690 144.1136 172.0 0.00582 134.30286 167.99036
144.1850 144.1296 176.0 0.00568 134.29437 168.15242
144.2020 144.1466 158.0 0.00633 134.28535 168.31970
144.2190 144.1636 181.0 0.00553 134.27632 168.48282
144.2360 144.1806 185.0 0.00541 134.26729 168.64238
144.2520 144.1966 154.0 0.00649 134.25880 168.79012
144.2690 144.2136 182.0 0.00550 134.24979 168.94589
144.2860 144.2306 166.0 0.00603 134.24075 169.10138
144.3020 144.2466 177.0 0.00565 134.23227 169.24855
144.3190 144.2636 186.0 0.00537 134.22324 169.40750
144.3360 144.2806 167.0 0.00599 134.21422 169.57040
144.3530 144.2975 174.0 0.00575 134.20518 169.73880
144.3690 144.3136 149.0 0.00671 134.19670 169.90378
144.3860 144.3306 185.0 0.00541 134.18767 170.08775
144.4030 144.3475 169.0 0.00592 134.17865 170.28200
144.4200 144.3645 170.0 0.00588 134.16962 170.48892
144.4360 144.3806 158.0 0.00633 134.16113 170.69647
144.4530 144.3976 179.0 0.00559 134.15211 170.93210
144.4700 144.4146 168.0 0.00595 134.14308 171.18573
144.4860 144.4306 193.0 0.00518 134.13458 171.44226
144.5030 144.4476 182.0 0.00550 134.12556 171.73508
144.5200 144.4646 178.0 0.00562 134.11653 172.05153
144.5370 144.4816 168.0 0.00595 134.10751 172.39285
144.5530 144.4976 182.0 0.00550 134.09903 172.73834
144.5700 144.5146 186.0 0.00537 134.09000 173.13382
144.5870 144.5316 171.0 0.00585 134.08096 173.55971
144.6030 144.5475 180.0 0.00555 134.07249 173.98985
144.6200 144.5646 166.0 0.00603 134.06346 174.48093
144.6370 144.5816 197.0 0.00507 134.05443 175.00771
144.6540 144.5986 173.0 0.00578 134.04541 175.57343
144.6700 144.6145 176.0 0.00568 134.03691 176.14203
144.6870 144.6316 175.0 0.00571 134.02789 176.78691
144.7040 144.6486 178.0 0.00562 134.01886 177.47668
144.7200 144.6646 168.0 0.00595 134.01038 178.16737
144.7370 144.6816 183.0 0.00546 134.00134 178.94766
144.7540 144.6986 180.0 0.00555 133.99232 179.77893
144.7700 144.7146 181.0 0.00553 133.98383 180.60811
144.7870 144.7316 183.0 0.00546 133.97481 181.54137
144.8040 144.7486 180.0 0.00555 133.96577 182.53169
144.8210 144.7656 153.0 0.00654 133.95676 183.57957
144.8370 144.7816 191.0 0.00524 133.94827 184.61954
144.8540 144.7986 179.0 0.00559 133.93924 185.78630
144.8710 144.8156 171.0 0.00585 133.93021 187.01616
144.8880 144.8326 195.0 0.00513 133.92119 188.31172
144.9040 144.8486 187.0 0.00535 133.91269 189.59216
144.9210 144.8656 196.0 0.00510 133.90367 191.02008
144.9380 144.8826 177.0 0.00565 133.89465 192.51877
144.9540 144.8986 215.0 0.00465 133.88615 193.99466
144.9710 144.9156 219.0 0.00457 133.87712 195.63487
144.9880 144.9326 192.0 0.00521 133.86810 197.34787
145.0050 144.9496 190.0 0.00527 133.85909 199.13992
145.0210 144.9656 212.0 0.00472 133.85059 200.89630
145.0380 144.9826 174.0 0.00575 133.84157 202.83522
145.0550 144.9996 212.0 0.00472 133.83255 204.85570
145.0710 145.0156 197.0 0.00507 133.82405 206.82866
145.0880 145.0325 181.0 0.00553 133.81503 208.99837
145.1050 145.0496 196.0 0.00510 133.80600 211.25044
145.1220 145.0666 244.0 0.00410 133.79697 213.57944
145.1380 145.0826 226.0 0.00443 133.78848 215.84003
145.1550 145.0995 185.0 0.00541 133.77945 218.31996
145.1720 145.1166 195.0 0.00513 133.77043 220.87224
145.1890 145.1336 204.0 0.00490 133.76140 223.50093
145.2050 145.1496 234.0 0.00427 133.75291 226.03812
145.2220 145.1665 255.0 0.00392 133.74390 228.80040
145.2390 145.1836 274.0 0.00365 133.73486 231.63251
145.2550 145.1996 227.0 0.00440 133.72636 234.35362
145.2720 145.2166 239.0 0.00418 133.71736 237.30251
145.2890 145.2336 229.0 0.00437 133.70833 240.31122
145.3050 145.2496 235.0 0.00426 133.69983 243.18819
145.3220 145.2666 250.0 0.00400 133.69081 246.29070
145.3390 145.2836 253.0 0.00395 133.68178 249.43983
145.3560 145.3006 263.0 0.00380 133.67276 252.62500
145.3720 145.3166 255.0 0.00392 133.66426 255.64923
145.3890 145.3336 266.0 0.00376 133.65524 258.89285
145.4060 145.3506 252.0 0.00397 133.64621 262.15457
145.4230 145.3676 239.0 0.00418 133.63719 265.42938
145.4390 145.3836 273.0 0.00366 133.62869 268.51584
145.4560 145.4006 293.0 0.003412 133.61967 271.79489
145.4730 145.4176 304.0 0.003288 133.61064 275.06448
145.4890 145.4336 301.0 0.003322 133.60216 278.12454
145.5060 145.4506 289.0 0.003460 133.59312 281.35172
145.5230 145.4676 353.0 0.002832 133.58411 284.54013
145.5400 145.4846 322.0 0.003107 133.57509 287.68991
145.5560 145.5006 312.0 0.003206 133.56659 290.60440
145.5730 145.5175 300.0 0.003334 133.55757 293.63577
145.5900 145.5346 290.0 0.003448 133.54854 296.60007
145.6070 145.5516 298.0 0.003357 133.53952 299.48080
145.6230 145.5676 316.0 0.003163 133.53104 302.10648
145.6400 145.5845 337.0 0.002967 133.52200 304.80322
145.6570 145.6016 329.0 0.003039 133.51297 307.38971
145.6730 145.6176 363.0 0.002756 133.50449 309.71475
145.6900 145.6346 322.0 0.003107 133.49545 312.06747
145.7070 145.6516 370.0 0.002701 133.48643 314.28500
145.7240 145.6686 340.0 0.002941 133.47740 316.36520
145.7400 145.6846 318.0 0.003146 133.46892 318.18771
145.7570 145.7016 365.0 0.002741 133.45990 319.97620
145.7740 145.7186 360.0 0.002779 133.45087 321.60904
145.7900 145.7346 371.0 0.002696 133.44238 322.99615
145.8070 145.7516 351.0 0.002851 133.43335 324.30795
145.8240 145.7686 356.0 0.002808 133.42432 325.45084
145.8400 145.7846 360.0 0.002779 133.41583 326.36679
145.8570 145.8016 336.0 0.002976 133.40681 327.16891
145.8740 145.8186 310.0 0.003225 133.39778 327.79346
145.8910 145.8356 354.0 0.002826 133.38875 328.23752
145.9070 145.8516 349.0 0.002866 133.38026 328.48984
145.9240 145.8686 353.0 0.002832 133.37123 328.58188
145.9410 145.8856 350.0 0.002857 133.36221 328.49197
145.9580 145.9026 346.0 0.002891 133.35320 328.22046
145.9740 145.9186 397.0 0.002520 133.34470 327.79993
145.9910 145.9356 357.0 0.002802 133.33566 327.17859
146.0080 145.9526 357.0 0.002802 133.32664 326.37894
146.0240 145.9686 370.0 0.002701 133.31816 325.46585
146.0410 145.9856 397.0 0.002520 133.30913 324.32648
146.0580 146.0025 352.0 0.002841 133.30011 323.01761
146.0750 146.0196 345.0 0.002900 133.29109 321.53842
146.0910 146.0356 353.0 0.002832 133.28259 319.99664
146.1080 146.0526 383.0 0.002611 133.27357 318.20581
146.1250 146.0695 335.0 0.002986 133.26454 316.25681
146.1420 146.0866 342.0 0.002925 133.25552 314.15924
146.1580 146.1026 310.0 0.003225 133.24702 312.05634
146.1750 146.1196 351.0 0.002851 133.23799 309.68591
146.1920 146.1366 330.0 0.003029 133.22897 307.18774
146.2080 146.1526 301.0 0.003322 133.22049 304.72858
146.2250 146.1696 318.0 0.003146 133.21146 302.00259
146.2420 146.1866 297.0 0.003368 133.20244 299.17697
146.2590 146.2036 297.0 0.003368 133.19341 296.25510
146.2750 146.2196 340.0 0.002941 133.18492 293.43207
146.2920 146.2366 306.0 0.003269 133.17590 290.36301
146.3090 146.2536 310.0 0.003225 133.16687 287.22864
146.3250 146.2696 286.0 0.003497 133.15837 284.23465
146.3420 146.2866 303.0 0.003299 133.14935 281.01489
146.3590 146.3036 308.0 0.003247 133.14032 277.76120
146.3750 146.3195 298.0 0.003357 133.13184 274.68335
146.3920 146.3366 291.0 0.003436 133.12280 271.40390
146.4090 146.3536 298.0 0.003357 133.11378 268.11975
146.4260 146.3706 309.0 0.003236 133.10475 264.84552
146.4420 146.3866 291.0 0.003436 133.09627 261.78186
146.4590 146.4036 272.0 0.00368 133.08723 258.54514
146.4760 146.4206 252.0 0.00397 133.07822 255.34149
146.4930 146.4375 242.0 0.00413 133.06918 252.17575
146.5090 146.4536 243.0 0.00411 133.06070 249.23734
146.5260 146.4706 246.0 0.00407 133.05168 246.16187
146.5430 146.4875 255.0 0.00392 133.04266 243.14369
146.5600 146.5046 245.0 0.00408 133.03363 240.17845
146.5760 146.5206 256.0 0.00391 133.02513 237.44492
146.5930 146.5376 261.0 0.00383 133.01611 234.60741
146.6100 146.5546 262.0 0.00382 133.00708 231.83258
146.6260 146.5706 239.0 0.00418 132.99858 229.28537
146.6430 146.5876 246.0 0.00407 132.98958 226.65193
146.6600 146.6046 235.0 0.00426 132.98055 224.08670
146.6770 146.6216 208.0 0.00481 132.97151 221.59674
146.6930 146.6376 221.0 0.00452 132.96303 219.32333
146.7100 146.6546 231.0 0.00433 132.95399 216.97684
146.7270 146.6716 200.0 0.00500 132.94498 214.70674
146.7430 146.6875 229.0 0.00437 132.93649 212.64043
146.7600 146.7046 228.0 0.00439 132.92746 210.51390
146.7770 146.7216 203.0 0.00492 132.91843 208.46254
146.7930 146.7375 216.0 0.00463 132.90994 206.60049
146.8100 146.7546 213.0 0.00470 132.90092 204.68930
146.8270 146.7716 209.0 0.00478 132.89189 202.85158
146.8440 146.7886 238.0 0.00420 132.88286 201.08183
146.8600 146.8046 195.0 0.00513 132.87437 199.48071
146.8770 146.8216 215.0 0.00465 132.86536 197.84540
146.8940 146.8386 205.0 0.00488 132.85632 196.27434
146.9110 146.8556 203.0 0.00492 132.84729 194.76880
146.9270 146.8716 233.0 0.00429 132.83882 193.41071
146.9440 146.8886 229.0 0.00437 132.82979 192.02512
146.9610 146.9056 199.0 0.00502 132.82076 190.70020
146.9770 146.9216 162.0 0.00617 132.81227 189.50745
146.9940 146.9386 203.0 0.00492 132.80324 188.29297
147.0110 146.9556 174.0 0.00575 132.79422 187.13387
147.0280 146.9725 180.0 0.00555 132.78519 186.02779
147.0440 146.9886 191.0 0.00524 132.77670 185.03394
147.0610 147.0056 173.0 0.00578 132.76767 184.02562
147.0780 147.0226 199.0 0.00502 132.75865 183.06516
147.0940 147.0386 182.0 0.00550 132.75015 182.20354
147.1110 147.0556 193.0 0.00518 132.74113 181.33086
147.1280 147.0726 215.0 0.00465 132.73212 180.50197
147.1450 147.0896 198.0 0.00505 132.72308 179.71265
147.1610 147.1056 180.0 0.00555 132.71458 179.00615
147.1780 147.1226 201.0 0.00497 132.70557 178.29330
147.1950 147.1396 198.0 0.00505 132.69653 177.61557
147.2120 147.1566 186.0 0.00537 132.68752 176.97308
147.2280 147.1725 186.0 0.00537 132.67903 176.39938
147.2450 147.1896 189.0 0.00529 132.67000 175.81984
147.2620 147.2066 194.0 0.00515 132.66098 175.27115
147.2780 147.2225 172.0 0.00582 132.65250 174.78194
147.2950 147.2395 185.0 0.00541 132.64346 174.28836
147.3120 147.2566 164.0 0.00609 132.63445 173.82159
147.3280 147.2726 186.0 0.00537 132.62595 173.40593
147.3450 147.2896 174.0 0.00575 132.61691 172.98705
147.3620 147.3066 169.0 0.00592 132.60789 172.59171
147.3790 147.3236 175.0 0.00571 132.59888 172.21786
147.3950 147.3396 172.0 0.00582 132.59038 171.88541
147.4120 147.3566 181.0 0.00553 132.58136 171.55154
147.4290 147.3736 166.0 0.00603 132.57233 171.23622
147.4460 147.3906 185.0 0.00541 132.56331 170.93910
147.4620 147.4066 176.0 0.00568 132.55481 170.67531
147.4790 147.4236 167.0 0.00599 132.54578 170.41040
147.4960 147.4406 166.0 0.00603 132.53676 170.16113
147.5120 147.4566 165.0 0.00606 132.52827 169.94022
147.5290 147.4736 164.0 0.00609 132.51924 169.71872
147.5460 147.4906 183.0 0.00546 132.51022 169.51065
147.5630 147.5076 176.0 0.00568 132.50119 169.31525
147.5790 147.5236 181.0 0.00553 132.49269 169.14241
147.5960 147.5406 173.0 0.00578 132.48367 168.96982
147.6130 147.5576 162.0 0.00617 132.47466 168.80818
147.6290 147.5736 165.0 0.00606 132.46616 168.66562
147.6460 147.5906 184.0 0.00544 132.45712 168.52364
147.6630 147.6076 198.0 0.00505 132.44812 168.39130
147.6800 147.6246 196.0 0.00510 132.43909 168.26773
147.6960 147.6406 184.0 0.00544 132.43059 168.15939
147.7130 147.6575 186.0 0.00537 132.42159 168.05232
147.7300 147.6746 179.0 0.00559 132.41255 167.95299
147.7470 147.6916 179.0 0.00559 132.40352 167.86127
147.7630 147.7076 173.0 0.00578 132.39503 167.78157
147.7800 147.7245 159.0 0.00629 132.38600 167.70341
147.7970 147.7416 164.0 0.00609 132.37698 167.63200
147.8130 147.7576 187.0 0.00535 132.36848 167.57065
147.8300 147.7746 176.0 0.00568 132.35947 167.51132
147.8470 147.7915 189.0 0.00529 132.35043 167.45790
147.8630 147.8076 171.0 0.00585 132.34195 167.41284
147.8800 147.8246 151.0 0.00662 132.33292 167.37018
147.8970 147.8416 181.0 0.00553 132.32390 167.33293
147.9140 147.8586 178.0 0.00562 132.31487 167.30070
147.9300 147.8746 185.0 0.00541 132.30638 167.27498
147.9470 147.8916 162.0 0.00617 132.29736 167.25220
147.9640 147.9086 152.0 0.00658 132.28833 167.23410
147.9810 147.9256 165.0 0.00606 132.27930 167.22052
147.9970 147.9416 186.0 0.00537 132.27081 167.21179
148.0140 147.9586 134.0 0.00746 132.26178 167.20662
148.0310 147.9756 160.0 0.00625 132.25276 167.20554
148.0470 147.9916 167.0 0.00599 132.24428 167.20824
148.0640 148.0086 164.0 0.00609 132.23524 167.21503
148.0810 148.0256 185.0 0.00541 132.22621 167.22566
148.0980 148.0426 175.0 0.00571 132.21719 167.24005
148.1140 148.0586 183.0 0.00546 132.20871 167.25697
148.1310 148.0756 175.0 0.00571 132.19968 167.27843
148.1480 148.0926 157.0 0.00637 132.19064 167.30348
148.1640 148.1086 161.0 0.00621 132.18216 167.33025
148.1810 148.1256 183.0 0.00546 132.17314 167.36203
148.1980 148.1425 171.0 0.00585 132.16412 167.39714
148.2150 148.1596 174.0 0.00575 132.15509 167.43559
148.2310 148.1756 181.0 0.00553 132.14659 167.47473
148.2480 148.1926 184.0 0.00544 132.13757 167.51938
148.2650 148.2095 166.0 0.00603 132.12854 167.56729
148.2820 148.2266 169.0 0.00592 132.11952 167.61835
148.2980 148.2426 170.0 0.00588 132.11104 167.66910
148.3150 148.2596 202.0 0.00495 132.10201 167.72609
148.3320 148.2766 186.0 0.00537 132.09299 167.78609
148.3480 148.2926 165.0 0.00606 132.08449 167.84517
148.3650 148.3096 183.0 0.00546 132.07545 167.91089
148.3820 148.3266 188.0 0.00532 132.06644 167.97949
148.3990 148.3436 184.0 0.00544 132.05742 168.05112
148.4150 148.3596 153.0 0.00654 132.04892 168.12099
148.4320 148.3766 185.0 0.00541 132.03990 168.19801
148.4490 148.3936 163.0 0.00613 132.03087 168.27794
148.4650 148.4096 157.0 0.00637 132.02238 168.35565
148.4820 148.4266 186.0 0.00537 132.01335 168.44089
148.4990 148.4436 175.0 0.00571 132.00432 168.52901
148.5160 148.4606 147.0 0.00681 131.99530 168.61984
148.5320 148.4766 190.0 0.00527 131.98682 168.70772
148.5490 148.4936 164.0 0.00609 131.97778 168.80383
148.5660 148.5106 169.0 0.00592 131.96877 168.90265
148.5820 148.5266 160.0 0.00625 131.96028 168.99806
148.5990 148.5436 143.0 0.00699 131.95125 169.10211
148.6160 148.5606 167.0 0.00599 131.94221 169.20880
148.6330 148.5776 174.0 0.00575 131.93320 169.31822
148.6490 148.5936 177.0 0.00565 131.92470 169.42351
148.6660 148.6106 162.0 0.00617 131.91568 169.53809
148.6830 148.6275 179.0 0.00559 131.90665 169.65526
148.6990 148.6436 195.0 0.00513 131.89816 169.76788
148.7160 148.6606 155.0 0.00645 131.88913 169.89017
148.7330 148.6776 159.0 0.00629 131.88013 170.01498
148.7500 148.6945 170.0 0.00588 131.87109 170.14264
148.7660 148.7106 181.0 0.00553 131.86259 170.26526
148.7830 148.7276 178.0 0.00562 131.85358 170.39781
148.8000 148.7446 164.0 0.00609 131.84454 170.53323
148.8170 148.7616 198.0 0.00505 131.83553 170.67119
148.8330 148.7776 164.0 0.00609 131.82703 170.80334
148.8500 148.7946 160.0 0.00625 131.81801 170.94662
148.8670 148.8116 196.0 0.00510 131.80898 171.09245
148.8830 148.8276 179.0 0.00559 131.80049 171.23193
148.9000 148.8446 187.0 0.00535 131.79147 171.38300
148.9170 148.8616 144.0 0.00694 131.78244 171.53658
148.9340 148.8786 192.0 0.00521 131.77341 171.69302
148.9500 148.8946 162.0 0.00617 131.76492 171.84262
148.9670 148.9116 177.0 0.00565 131.75591 172.00409
148.9840 148.9286 177.0 0.00565 131.74687 172.16849
149.0000 148.9445 178.0 0.00562 131.73837 172.32555
149.0170 148.9616 172.0 0.00582 131.72935 172.49507
149.0340 148.9786 163.0 0.00613 131.72034 172.66754
149.0500 148.9946 196.0 0.00510 131.71184 172.83217
149.0670 149.0116 180.0 0.00555 131.70282 173.00987
149.0840 149.0286 188.0 0.00532 131.69379 173.19048
149.1010 149.0456 191.0 0.00524 131.68475 173.37378
149.1170 149.0616 156.0 0.00641 131.67627 173.54878
149.1340 149.0786 175.0 0.00571 131.66725 173.73770
149.1510 149.0956 158.0 0.00633 131.65822 173.92944
149.1680 149.1125 196.0 0.00510 131.64919 174.12399
149.1840 149.1286 180.0 0.00555 131.64070 174.30977
149.2010 149.1456 159.0 0.00629 131.63168 174.50996
149.2180 149.1626 157.0 0.00637 131.62265 174.71309
149.2340 149.1786 167.0 0.00599 131.61415 174.90694
149.2510 149.1956 191.0 0.00524 131.60513 175.11586
149.2680 149.2126 163.0 0.00613 131.59612 175.32758
149.2850 149.2296 174.0 0.00575 131.58708 175.54266
149.3010 149.2456 182.0 0.00550 131.57860 175.74785
149.3180 149.2626 187.0 0.00535 131.56958 175.96846
149.3350 149.2796 155.0 0.00645 131.56055 176.19261
149.3510 149.2956 175.0 0.00571 131.55205 176.40639
149.3680 149.3125 160.0 0.00625 131.54305 176.63623
149.3850 149.3296 187.0 0.00535 131.53401 176.86978
149.4020 149.3466 160.0 0.00625 131.52498 177.10629
149.4180 149.3625 155.0 0.00645 131.51649 177.33167
149.4350 149.3796 193.0 0.00518 131.50746 177.57466
149.4520 149.3966 195.0 0.00513 131.49844 177.82068
149.4690 149.4136 164.0 0.00609 131.48941 178.07034
149.4850 149.4296 175.0 0.00571 131.48093 178.30821
149.5020 149.4466 181.0 0.00553 131.47189 178.56425
149.5190 149.4636 184.0 0.00544 131.46288 178.82391
149.5350 149.4796 166.0 0.00603 131.45438 179.07124
149.5520 149.4966 181.0 0.00553 131.44536 179.33749
149.5690 149.5136 165.0 0.00606 131.43633 179.60760
149.5850 149.5296 162.0 0.00617 131.42784 179.86478
149.6020 149.5466 171.0 0.00585 131.41882 180.14159
149.6190 149.5636 177.0 0.00565 131.40979 180.42232
149.6360 149.5806 179.0 0.00559 131.40077 180.70665
149.6520 149.5966 174.0 0.00575 131.39227 180.97742
149.6690 149.6136 182.0 0.00550 131.38324 181.26920
149.6860 149.6306 189.0 0.00529 131.37422 181.56470
149.7030 149.6476 183.0 0.00546 131.36520 181.86406
149.7190 149.6636 170.0 0.00588 131.35670 182.14932
149.7360 149.6806 203.0 0.00492 131.34767 182.45638
149.7530 149.6976 174.0 0.00575 131.33865 182.76753
149.7690 149.7136 187.0 0.00535 131.33017 183.06390
149.7860 149.7306 187.0 0.00535 131.32114 183.38301
149.8030 149.7476 194.0 0.00515 131.31212 183.70584
149.8200 149.7646 196.0 0.00510 131.30309 184.03355
149.8360 149.7806 200.0 0.00500 131.29460 184.34575
149.8530 149.7975 179.0 0.00559 131.28558 184.68115
149.8700 149.8146 178.0 0.00562 131.27655 185.02161
149.8870 149.8316 202.0 0.00495 131.26752 185.36632
149.9030 149.8475 182.0 0.00550 131.25903 185.69453
149.9200 149.8645 191.0 0.00524 131.25002 186.04829
149.9370 149.8816 168.0 0.00595 131.24098 186.40639
149.9530 149.8976 177.0 0.00565 131.23250 186.74748
149.9700 149.9146 198.0 0.00505 131.22346 187.11499
149.9870 149.9316 192.0 0.00521 131.21445 187.48691
150.0040 149.9486 185.0 0.00541 131.20541 187.86417
150.0200 149.9646 187.0 0.00535 131.19691 188.22340
150.0370 149.9816 163.0 0.00613 131.18791 188.60992
150.0540 149.9986 182.0 0.00550 131.17888 189.00195
150.0700 150.0146 177.0 0.00565 131.17038 189.37534
150.0870 150.0316 194.0 0.00515 131.16136 189.77701
150.1040 150.0486 179.0 0.00559 131.15233 190.18452
150.1200 150.0646 210.0 0.00476 131.14384 190.57254
150.1370 150.0816 185.0 0.00541 131.13481 190.99014
150.1540 150.0986 185.0 0.00541 131.12579 191.41367
150.1710 150.1156 197.0 0.00507 131.11676 191.84262
150.1870 150.1316 200.0 0.00500 131.10828 192.25117
150.2040 150.1486 180.0 0.00555 131.09924 192.69156
150.2210 150.1656 216.0 0.00463 131.09023 193.13754
150.2380 150.1826 182.0 0.00550 131.08119 193.58954
150.2540 150.1986 200.0 0.00500 131.07271 194.02039
150.2710 150.2156 203.0 0.00492 131.06367 194.48422
150.2880 150.2326 163.0 0.00613 131.05466 194.95433
150.3040 150.2486 169.0 0.00592 131.04616 195.40237
150.3210 150.2656 185.0 0.00541 131.03714 195.88489
150.3380 150.2825 199.0 0.00502 131.02812 196.37343
150.3550 150.2996 167.0 0.00599 131.01909 196.86940
150.3710 150.3156 209.0 0.00478 131.01060 197.34225
150.3880 150.3326 202.0 0.00495 131.00159 197.85052
150.4050 150.3495 179.0 0.00559 130.99255 198.36671
150.4220 150.3666 172.0 0.00582 130.98352 198.88969
150.4380 150.3826 180.0 0.00555 130.97504 199.38803
150.4550 150.3996 196.0 0.00510 130.96600 199.92537
150.4720 150.4165 199.0 0.00502 130.95699 200.46982
150.4880 150.4326 180.0 0.00555 130.94850 200.98869
150.5050 150.4496 192.0 0.00521 130.93947 201.54828
150.5220 150.4666 156.0 0.00641 130.93045 202.11501
150.5390 150.4836 226.0 0.00443 130.92142 202.69035
150.5550 150.4996 190.0 0.00527 130.91293 203.23868
150.5720 150.5166 168.0 0.00595 130.90390 203.82910
150.5890 150.5336 199.0 0.00502 130.89487 204.42862
150.6050 150.5496 194.0 0.00515 130.88638 205.00005
150.6220 150.5666 184.0 0.00544 130.87737 205.61545
150.6390 150.5836 203.0 0.00492 130.86833 206.24028
150.6550 150.5995 196.0 0.00510 130.85985 206.83601
150.6720 150.6166 210.0 0.00476 130.85081 207.47763
150.6890 150.6336 194.0 0.00515 130.84178 208.12923
150.7060 150.6506 190.0 0.00527 130.83276 208.78987
150.7220 150.6665 220.0 0.00455 130.82428 209.41982
150.7390 150.6836 180.0 0.00555 130.81525 210.09959
150.7560 150.7006 188.0 0.00532 130.80621 210.78893
150.7730 150.7176 200.0 0.00500 130.79720 211.48830
150.7890 150.7336 191.0 0.00524 130.78871 212.15579
150.8060 150.7506 184.0 0.00544 130.77968 212.87531
150.8230 150.7675 191.0 0.00524 130.77066 213.60548
150.8390 150.7836 226.0 0.00443 130.76216 214.30246
150.8560 150.8006 203.0 0.00492 130.75314 215.05400
150.8730 150.8176 196.0 0.00510 130.74413 215.81584
150.8900 150.8345 203.0 0.00492 130.73509 216.59048
150.9060 150.8506 191.0 0.00524 130.72659 217.33006
150.9230 150.8676 195.0 0.00513 130.71758 218.12627
150.9400 150.8846 206.0 0.00486 130.70856 218.93604
150.9570 150.9016 200.0 0.00500 130.69952 219.75778
150.9730 150.9176 218.0 0.00459 130.69104 220.54189
150.9900 150.9346 206.0 0.00486 130.68201 221.38889
151.0070 150.9516 206.0 . . .
151.0230 150.9676 203.0 . . .
151.0400 150.9846 216.0 . . .
151.0570 151.0016 205.0 . . .
151.0740 151.0186 202.0 . . .
151.0900 151.0346 208.0 . . .
151.1070 151.0516 238.0 . . .
151.1240 151.0686 229.0 . . .
151.1400 151.0845 213.0 . . .
151.1570 151.1016 187.0 . . .
151.1740 151.1186 206.0 . . .
151.1900 151.1346 191.0 . . .
151.2070 151.1516 210.0 . . .
151.2240 151.1686 230.0 . . .
151.2410 151.1856 214.0 . . .
151.2570 151.2016 232.0 . . .
151.2740 151.2186 183.0 . . .
151.2910 151.2356 203.0 . . .
151.3080 151.2525 225.0 . . .
151.3240 151.2686 219.0 . . .
151.3410 151.2856 223.0 . . .
151.3580 151.3026 224.0 . . .
151.3740 151.3186 236.0 . . .
151.3910 151.3356 208.0 . . .
151.4080 151.3526 221.0 . . .
151.4250 151.3696 236.0 . . .
151.4410 151.3856 230.0 . . .
151.4580 151.4026 218.0 . . .
151.4750 151.4196 262.0 . . .
151.4920 151.4366 237.0 . . .
151.5080 151.4526 244.0 . . .
151.5250 151.4696 221.0 . . .
151.5420 151.4866 247.0 . . .
loop_
_refln_index_h
_refln_index_k
_refln_index_l
_refln_observed_status
_refln_F_squared_meas
_refln_F_squared_calc
_refln_phase_calc
_refln_d_spacing
_gsas_i100_meas
1 1 0 o 15277.588 16424.361 0.00 4.02658 17.04
0 0 2 o 21232.943 22218.596 0.00 4.03489 10.32
2 0 0 o 79956.16 79311.20 0.00 2.84722 64.16
1 1 2 o 87936.69 87747.21 0.00 2.85015 100.00
2 1 1 o 539.646 120.670 0.00 2.42857 1.16
2 0 2 o 2262.595 2875.346 0.00 2.32634 0.70
0 0 4 o 114576.72 106650.62 0.00 2.01744 14.44
2 2 0 o 112220.02 104762.89 0.00 2.01329 34.30
2 1 3 o 96.009 75.779 0.00 1.84932 0.10
3 1 0 o 11745.903 11787.543 0.00 1.80074 5.10
1 1 4 o 11337.460 11298.207 0.00 1.80371 3.60
2 2 2 o 13512.080 13556.302 0.00 1.80148 4.96
3 1 2 o 64414.74 62985.80 0.00 1.64441 48.92
2 0 4 o 59009.71 57481.89 0.00 1.64610 18.81
3 2 1 o 622.876 43.991 0.00 1.54995 0.48
4 0 0 o 69117.05 71644.52 0.00 1.42361 11.66
2 2 4 o 70454.65 72698.91 0.00 1.42508 16.76
4 1 1 o 131.450 138.414 180.00 1.36131 0.09
2 1 5 o 34.564 37.541 0.00 1.36324 0.02
3 2 3 o 29.311 31.951 0.00 1.36195 0.02
3 3 0 o 7967.952 8044.870 0.00 1.34219 0.72
0 0 6 o 10464.835 10381.581 0.00 1.34496 0.42
4 0 2 o 9575.329 9693.240 0.00 1.34250 2.04
3 1 4 o 8886.164 8947.901 0.00 1.34342 3.04
3 3 2 o 47209.93 46279.71 0.00 1.27358 9.46
4 2 0 o 46943.32 45948.33 0.00 1.27332 10.42
1 1 6 o 48862.34 47663.17 0.00 1.27568 8.42
4 1 3 o 92.150 105.490 180.00 1.22862 0.04
4 2 2 o 3585.656 3597.368 0.00 1.21429 0.88
2 0 6 o 3329.157 3272.688 0.00 1.21611 0.33
4 0 4 o 53838.45 54431.39 0.00 1.16317 9.35
4 3 1 o 89.300 71.140 0.00 1.12771 0.04
5 1 0 o 6773.027 6639.918 0.00 1.11677 1.06
3 2 5 o 24.649 19.276 0.00 1.12881 0.01
2 2 6 o 7936.502 7814.435 0.00 1.11837 0.91
3 3 4 o 6534.269 6436.279 0.00 1.11748 0.77
5 1 2 o 37129.47 37762.74 0.00 1.07631 13.18
3 1 6 o 38332.25 38752.51 0.00 1.07757 10.47
4 2 4 o 36497.24 37082.13 0.00 1.07678 10.83
5 2 1 o 12.054 11.100 180.00 1.04847 0.01
2 1 7 o 20.260 18.481 0.00 1.05023 0.01
4 1 5 o 72.978 68.227 180.00 1.04935 0.03
4 3 3 o 62.558 58.119 0.00 1.04876 0.02
4 4 0 o 43757.91 42594.29 0.00 1.00664 3.40
0 0 8 o 46205.46 44474.79 0.00 1.00872 1.48
5 3 0 o 6341.919 6199.495 0.00 0.97659 0.80
5 2 3 o 9.498 9.301 180.00 0.98412 0.00
4 4 2 o 5968.642 5858.084 0.00 0.97671 0.70
1 1 8 o 5677.066 5607.234 0.00 0.97848 0.55
5 1 4 o 5513.930 5446.894 0.00 0.97706 1.30
4 0 6 o 6203.011 6150.579 0.00 0.97765 0.67
6 0 0 o 31229.029 31352.453 0.00 0.94907 3.03
5 3 2 o 32728.924 32903.039 0.00 0.94918 10.36
3 3 6 o 30760.381 30878.195 0.00 0.95005 4.18
2 0 8 o 30049.270 30051.568 0.00 0.95081 3.83
6 1 1 o 91.536 96.000 0.00 0.92992 0.04
3 2 7 o 10.409 11.272 0.00 0.93115 0.00
6 0 2 o 3154.470 2977.479 0.00 0.92386 0.40
4 3 5 o 38.307 41.636 0.00 0.93054 0.01
4 2 6 o 2944.107 2775.638 0.00 0.92466 0.56
6 2 0 o 34497.363 34705.504 0.00 0.90037 6.79
2 2 8 o 35696.61 36149.70 0.00 0.90186 5.14
4 4 4 o 34817.629 35090.07 0.00 0.90074 5.64
5 4 1 o 27.621 25.551 0.00 0.88397 0.01
6 1 3 o 88.933 83.486 0.00 0.88415 0.04
4 1 7 o 42.160 42.479 180.00 0.88502 0.02
6 2 2 o 5081.989 4773.568 0.00 0.87876 1.59
5 2 5 o 7.141 6.916 180.00 0.88450 0.00
5 3 4 o 5501.042 5176.030 0.00 0.87902 1.53
3 1 8 o 5129.897 4831.865 0.00 0.88005 1.22
6 0 4 o 26647.395 26356.775 0.00 0.85879 5.55
5 1 6 o 26378.512 26248.910 0.00 0.85919 9.59
6 3 1 o 61.110 62.722 180.00 0.84422 0.04
5 4 3 o 21.580 22.523 0.00 0.84437 0.01
2 1 9 o 9.414 10.131 0.00 0.84575 0.00
6 2 4 o 29500.873 29144.787 0.00 0.82220 15.55
4 0 8 o 29808.344 29992.547 0.00 0.82305 6.57
7 1 0 o 4473.605 4202.775 0.00 0.80532 1.31
5 5 0 o 3705.444 3492.378 0.00 0.80532 0.42
0 0 10 o 4759.209 4609.328 0.00 0.80698 0.23
6 3 3 o 55.341 55.903 180.00 0.80952 0.04
4 3 7 o 26.754 28.431 0.00 0.81020 0.02
6 1 5 o 63.928 65.584 0.00 0.80979 0.05
3 3 8 o 4015.654 3826.675 0.00 0.80638 0.78
4 4 6 o 4449.445 4194.014 0.00 0.80591 0.95
