#------------------------------------------------------------------------------
#$Date: 2016-03-25 23:14:46 +0200 (Fri, 25 Mar 2016) $
#$Revision: 180031 $
#$URL: svn://www.crystallography.net/cod/cif/7/03/25/7032562.cif $
#------------------------------------------------------------------------------
#
# This file is available in the Crystallography Open Database (COD),
# http://www.crystallography.net/
#
# All data on this site have been placed in the public domain by the
# contributors.
#
data_7032562
loop_
_publ_author_name
'Kim, Jung-Mi'
'Kim, Young-Il'
'Park, Chee-Sung'
'Park, Cheol-Hee'
_publ_section_title
;
 Transformation of a layered perovskite to a defect perovskite via
 cooperative Li-insertion and O/N substitution.
;
_journal_issue                   44
_journal_name_full
'Dalton transactions (Cambridge, England : 2003)'
_journal_page_first              16830
_journal_page_last               16837
_journal_paper_doi               10.1039/c4dt02335h
_journal_volume                  43
_journal_year                    2014
_chemical_formula_sum            'Li0.32 N3.56 O7.64 Sr3.68 Ta3.68'
_chemical_formula_weight         1162.65
_chemical_name_systematic        ' ?'
_space_group_IT_number           140
_symmetry_cell_setting           tetragonal
_symmetry_space_group_name_Hall  '-I 4 2c'
_symmetry_space_group_name_H-M   'I 4/m c m'
_audit_creation_date             2014-07-31T15:01
_audit_creation_method           'from EXP file using GSAS2CIF'
_audit_update_record
' 2014-07-31T15:01  Initial CIF as created by GSAS2CIF'
_cell_angle_alpha                90.0
_cell_angle_beta                 90.0
_cell_angle_gamma                90.0
_cell_formula_units_Z            1
_cell_length_a                   5.69719(4)
_cell_length_b                   5.69719
_cell_length_c                   8.07118(12)
_cell_volume                     261.974(4)
_computing_structure_refinement  GSAS
_diffrn_radiation_polarisn_ratio 0.573
_diffrn_radiation_probe          x-ray
_diffrn_radiation_wavelength     1.5406
_exptl_absorpt_correction_T_max  1.00000
_exptl_absorpt_correction_T_min  1.00000
_exptl_absorpt_process_details
;   GSAS Absorption/surface roughness correction: function number 0
 No correction is applied.
;
_pd_block_id                     2014-07-31T15:01|LI01CIF|Young-Il_Kim|BrukerD8
_pd_calc_method                  'Rietveld Refinement'
_pd_instr_location               ' ?'
_pd_meas_number_of_points        8168
_pd_phase_name                   I4/mcm
_pd_proc_info_datetime           2014-07-31T15:01:12
_pd_proc_info_excluded_regions   ' ?'
_pd_proc_ls_background_function
;   GSAS Background function number 7 with 16 terms.
 Linear interpolation
      1:    105.215     2:    117.461     3:    102.092     4:    93.9398    
      5:    80.2658     6:    103.655     7:    67.8579     8:    77.2109    
      9:    79.1455    10:    78.8191    11:    84.7801    12:    79.4221    
     13:    95.0330    14:    114.851    15:    124.708    16:    131.579    
;
_pd_proc_ls_peak_cutoff          0.00050
_pd_proc_ls_pref_orient_corr
;   March-Dollase
 AXIS  1 Ratio=     0.859 Frac     0.500  h= 0.000  k= 0.000  l= 1.000
 AXIS  2 Ratio=     0.736 Frac     0.500  h= 1.000  k= 0.000  l= 0.000
 Prefered orientation correction range: Min=   0.92355, Max=   1.18233
;
_pd_proc_ls_profile_function
;
 CW Profile function number 3 with  19 terms
 Pseudovoigt profile coefficients as parameterized in
 P. Thompson, D.E. Cox & J.B. Hastings (1987). J. Appl. Cryst.,20,79-83.
 Asymmetry correction of L.W. Finger, D.E. Cox & A. P. Jephcoat (1994).
 J. Appl. Cryst.,27,892-900.
 Peak tails are ignored  where the intensity is below 0.0005 times the peak
   Aniso. broadening axis   0.0   0.0   1.0
;
_pd_proc_ls_prof_R_factor        0.0585
_pd_proc_ls_prof_wR_expected     0.0457
_pd_proc_ls_prof_wR_factor       0.0834
_pd_proc_number_of_points        8168
_pd_spec_mounting                ' ?'
_refine_ls_goodness_of_fit_all   1.83
_refine_ls_matrix_type           full
_refine_ls_number_parameters     30
_refine_ls_number_restraints     0
_refine_ls_R_Fsqd_factor         0.02025
_refine_ls_shift/su_max          0.02
_refine_ls_shift/su_mean         0.00
_reflns_d_resolution_high        0.806
_reflns_d_resolution_low         4.036
_reflns_limit_h_max              7
_reflns_limit_h_min              0
_reflns_limit_k_max              5
_reflns_limit_k_min              0
_reflns_limit_l_max              10
_reflns_limit_l_min              0
_reflns_number_total             85
_cod_data_source_file            c4dt02335h1.cif
_cod_data_source_block           LI01CIF_publ
_cod_depositor_comments
;
The following automatic conversions were performed:

'_geom_bond_publ_flag' value 'N' changed to 'n' according to
/usr/data/users/saulius/crontab/automatic-downloads/rss-feeds/RSC/lib/dictionaries/cif_core.dic
dictionary named 'cif_core.dic' version 2.4.2 from 2011-04-26 (118
times).

'_geom_angle_publ_flag' value 'N' changed to 'n' according
to
/usr/data/users/saulius/crontab/automatic-downloads/rss-feeds/RSC/lib/dictionaries/cif_core.dic
dictionary named 'cif_core.dic' version 2.4.2 from 2011-04-26 (792
times).

Automatic conversion script
Id: cif_fix_values 2281 2013-09-26 08:29:07Z andrius 

 Adding full bibliography for 7032562--7032565.cif.
;
_cod_original_cell_volume        261.9740(30)
_cod_database_code               7032562
#BEGIN Tags that were not found in dictionaries:
_gsas_exptl_extinct_corr_t_min   1.00000
_gsas_exptl_extinct_corr_t_max   1.00000
#END Tags that were not found in dictionaries
loop_
_symmetry_equiv_pos_site_id
_symmetry_equiv_pos_as_xyz
1 +x,+y,+z
2 -y,+x,+z
3 -x,-y,+z
4 +y,-x,+z
5 -x,+y,+z+1/2
6 -y,-x,+z+1/2
7 +x,-y,+z+1/2
8 +y,+x,+z+1/2
-1 -x,-y,-z
-2 +y,-x,-z
-3 +x,+y,-z
-4 -y,+x,-z
-5 +x,-y,-z+1/2
-6 +y,+x,-z+1/2
-7 -x,+y,-z+1/2
-8 -y,-x,-z+1/2
101 +x+1/2,+y+1/2,+z+1/2
102 -y+1/2,+x+1/2,+z+1/2
103 -x+1/2,-y+1/2,+z+1/2
104 +y+1/2,-x+1/2,+z+1/2
105 -x+1/2,+y+1/2,+z
106 -y+1/2,-x+1/2,+z
107 +x+1/2,-y+1/2,+z
108 +y+1/2,+x+1/2,+z
-101 -x+1/2,-y+1/2,-z+1/2
-102 +y+1/2,-x+1/2,-z+1/2
-103 +x+1/2,+y+1/2,-z+1/2
-104 -y+1/2,+x+1/2,-z+1/2
-105 +x+1/2,-y+1/2,-z
-106 +y+1/2,+x+1/2,-z
-107 -x+1/2,+y+1/2,-z
-108 -y+1/2,-x+1/2,-z
loop_
_atom_site_type_symbol
_atom_site_label
_atom_site_fract_x
_atom_site_fract_y
_atom_site_fract_z
_atom_site_occupancy
_atom_site_thermal_displace_type
_atom_site_U_iso_or_equiv
_atom_site_symmetry_multiplicity
Sr Sr 0.0 0.5 0.25 0.92 Uiso 0.00713(13) 4
Ta Ta 0.0 0.0 0.0 0.92 Uiso 0.00526(9) 4
Li Li 0.0 0.0 0.0 0.08 Uiso 0.00526(9) 4
O O1 0.0 0.0 0.25 0.55 Uiso 0.0093(8) 4
N N1 0.0 0.0 0.25 0.25 Uiso 0.0093(8) 4
O O2 0.7717(7) 0.2717(7) 0.0 0.68 Uiso 0.0093(8) 8
N N2 0.7717(7) 0.2717(7) 0.0 0.32 Uiso 0.0093(8) 8
loop_
_atom_type_symbol
_atom_type_number_in_cell
_atom_type_scat_dispersion_real
_atom_type_scat_dispersion_imag
_atom_type_scat_Cromer_Mann_a1
_atom_type_scat_Cromer_Mann_a2
_atom_type_scat_Cromer_Mann_a3
_atom_type_scat_Cromer_Mann_a4
_atom_type_scat_Cromer_Mann_b1
_atom_type_scat_Cromer_Mann_b2
_atom_type_scat_Cromer_Mann_b3
_atom_type_scat_Cromer_Mann_b4
_atom_type_scat_Cromer_Mann_c
_atom_type_scat_source
Sr 3.68 0.000 0.000 17.5663 1.55640 9.81840 14.0988 5.42200 0.16640 2.66940
132.376 2.50640 International_Tables_Vol_C
Ta 3.68 0.000 0.000 29.2024 1.77333 15.2293 9.37046 14.5135 0.29598 4.76492
63.3644 9.24354 International_Tables_Vol_C
Li 0.32 0.000 0.000 1.12820 3.95460 0.75080 1.05240 0.61750 85.3905 0.46530
168.261 0.03770 International_Tables_Vol_C
O 7.64 0.000 0.000 3.04850 13.2771 2.28680 5.70110 1.54630 0.32390 0.86700
32.9089 0.25080 International_Tables_Vol_C
N 3.56 0.000 0.000 12.2126 0.00570 3.13220 9.89330 2.01250 28.9975 1.16630
0.58260 -11.529 International_Tables_Vol_C
loop_
_geom_angle_atom_site_label_1
_geom_angle_atom_site_label_2
_geom_angle_atom_site_label_3
_geom_angle
_geom_angle_site_symmetry_1
_geom_angle_site_symmetry_3
_geom_angle_publ_flag
Sr Sr Sr 90.0 2_555 2_565 n
Sr Sr Sr 90.0 2_555 2_655 n
Sr Sr Sr 180.0 2_555 2_665 n
Sr Sr Sr 90.0 2_555 5_554 n
Sr Sr Sr 90.0 2_555 5_555 n
Sr Sr Ta 54.75930(20) 2_555 1_555 n
Sr Sr Ta 125.24070(20) 2_555 1_565 n
Sr Sr Ta 54.75930(20) 2_555 5_555 n
Sr Sr Ta 125.24070(20) 2_555 5_565 n
Sr Sr Ta 54.75930(20) 2_555 101_455 n
Sr Sr Ta 125.24070(20) 2_555 101_555 n
Sr Sr Ta 54.75930(20) 2_555 105_453 n
Sr Sr Ta 125.24070(20) 2_555 105_553 n
Sr Sr Li 54.75930(20) 2_555 1_555 n
Sr Sr Li 125.24070(20) 2_555 1_565 n
Sr Sr Li 54.75930(20) 2_555 5_555 n
Sr Sr Li 125.24070(20) 2_555 5_565 n
Sr Sr Li 54.75930(20) 2_555 101_455 n
Sr Sr Li 125.24070(20) 2_555 101_555 n
Sr Sr Li 54.75930(20) 2_555 105_453 n
Sr Sr Li 125.24070(20) 2_555 105_553 n
Sr Sr O1 45.0 2_555 1_555 n
Sr Sr O1 135.0 2_555 1_565 n
Sr Sr O1 45.0 2_555 105_453 n
Sr Sr Sr 180.0 2_565 2_655 n
Sr Sr Sr 90.0 2_565 2_665 n
Sr Sr Sr 90.0 2_565 5_554 n
Sr Sr Sr 90.0 2_565 5_555 n
Sr Sr Ta 125.24070(20) 2_565 1_555 n
Sr Sr Ta 54.75930(20) 2_565 1_565 n
Sr Sr Ta 125.24070(20) 2_565 5_555 n
Sr Sr Ta 54.75930(20) 2_565 5_565 n
Sr Sr Ta 54.75930(20) 2_565 101_455 n
Sr Sr Ta 125.24070(20) 2_565 101_555 n
Sr Sr Ta 54.75930(20) 2_565 105_453 n
Sr Sr Ta 125.24070(20) 2_565 105_553 n
Sr Sr Li 125.24070(20) 2_565 1_555 n
Sr Sr Li 54.75930(20) 2_565 1_565 n
Sr Sr Li 125.24070(20) 2_565 5_555 n
Sr Sr Li 54.75930(20) 2_565 5_565 n
Sr Sr Li 54.75930(20) 2_565 101_455 n
Sr Sr Li 125.24070(20) 2_565 101_555 n
Sr Sr Li 54.75930(20) 2_565 105_453 n
Sr Sr Li 125.24070(20) 2_565 105_553 n
Sr Sr O1 135.0 2_565 1_555 n
Sr Sr O1 45.0 2_565 1_565 n
Sr Sr O1 45.0 2_565 105_453 n
Sr Sr Sr 90.0 2_655 2_665 n
Sr Sr Sr 90.0 2_655 5_554 n
Sr Sr Sr 90.0 2_655 5_555 n
Sr Sr Ta 54.75930(20) 2_655 1_555 n
Sr Sr Ta 125.24070(20) 2_655 1_565 n
Sr Sr Ta 54.75930(20) 2_655 5_555 n
Sr Sr Ta 125.24070(20) 2_655 5_565 n
Sr Sr Ta 125.24070(20) 2_655 101_455 n
Sr Sr Ta 54.75930(20) 2_655 101_555 n
Sr Sr Ta 125.24070(20) 2_655 105_453 n
Sr Sr Ta 54.75930(20) 2_655 105_553 n
Sr Sr Li 54.75930(20) 2_655 1_555 n
Sr Sr Li 125.24070(20) 2_655 1_565 n
Sr Sr Li 54.75930(20) 2_655 5_555 n
Sr Sr Li 125.24070(20) 2_655 5_565 n
Sr Sr Li 125.24070(20) 2_655 101_455 n
Sr Sr Li 54.75930(20) 2_655 101_555 n
Sr Sr Li 125.24070(20) 2_655 105_453 n
Sr Sr Li 54.75930(20) 2_655 105_553 n
Sr Sr O1 45.0 2_655 1_555 n
Sr Sr O1 135.0 2_655 1_565 n
Sr Sr O1 135.0 2_655 105_453 n
Sr Sr Sr 90.0 2_665 5_554 n
Sr Sr Sr 90.0 2_665 5_555 n
Sr Sr Ta 125.24070(20) 2_665 1_555 n
Sr Sr Ta 54.75930(20) 2_665 1_565 n
Sr Sr Ta 125.24070(20) 2_665 5_555 n
Sr Sr Ta 54.75930(20) 2_665 5_565 n
Sr Sr Ta 125.24070(20) 2_665 101_455 n
Sr Sr Ta 54.75930(20) 2_665 101_555 n
Sr Sr Ta 125.24070(20) 2_665 105_453 n
Sr Sr Ta 54.75930(20) 2_665 105_553 n
Sr Sr Li 125.24070(20) 2_665 1_555 n
Sr Sr Li 54.75930(20) 2_665 1_565 n
Sr Sr Li 125.24070(20) 2_665 5_555 n
Sr Sr Li 54.75930(20) 2_665 5_565 n
Sr Sr Li 125.24070(20) 2_665 101_455 n
Sr Sr Li 54.75930(20) 2_665 101_555 n
Sr Sr Li 125.24070(20) 2_665 105_453 n
Sr Sr Li 54.75930(20) 2_665 105_553 n
Sr Sr O1 135.0 2_665 1_555 n
Sr Sr O1 45.0 2_665 1_565 n
Sr Sr O1 135.0 2_665 105_453 n
Sr Sr Sr 180.0 5_554 5_555 n
Sr Sr Ta 54.6882(4) 5_554 1_555 n
Sr Sr Ta 54.6882(4) 5_554 1_565 n
Sr Sr Ta 125.3118(4) 5_554 5_555 n
Sr Sr Ta 125.3118(4) 5_554 5_565 n
Sr Sr Ta 125.3118(4) 5_554 101_455 n
Sr Sr Ta 125.3118(4) 5_554 101_555 n
Sr Sr Ta 54.6882(4) 5_554 105_453 n
Sr Sr Ta 54.6882(4) 5_554 105_553 n
Sr Sr Li 54.6882(4) 5_554 1_555 n
Sr Sr Li 54.6882(4) 5_554 1_565 n
Sr Sr Li 125.3118(4) 5_554 5_555 n
Sr Sr Li 125.3118(4) 5_554 5_565 n
Sr Sr Li 125.3118(4) 5_554 101_455 n
Sr Sr Li 125.3118(4) 5_554 101_555 n
Sr Sr Li 54.6882(4) 5_554 105_453 n
Sr Sr Li 54.6882(4) 5_554 105_553 n
Sr Sr O1 90.0 5_554 1_555 n
Sr Sr O1 90.0 5_554 1_565 n
Sr Sr O1 90.0 5_554 105_453 n
Sr Sr Ta 125.3118(4) 5_555 1_555 n
Sr Sr Ta 125.3118(4) 5_555 1_565 n
Sr Sr Ta 54.6882(4) 5_555 5_555 n
Sr Sr Ta 54.6882(4) 5_555 5_565 n
Sr Sr Ta 54.6882(4) 5_555 101_455 n
Sr Sr Ta 54.6882(4) 5_555 101_555 n
Sr Sr Ta 125.3118(4) 5_555 105_453 n
Sr Sr Ta 125.3118(4) 5_555 105_553 n
Sr Sr Li 125.3118(4) 5_555 1_555 n
Sr Sr Li 125.3118(4) 5_555 1_565 n
Sr Sr Li 54.6882(4) 5_555 5_555 n
Sr Sr Li 54.6882(4) 5_555 5_565 n
Sr Sr Li 54.6882(4) 5_555 101_455 n
Sr Sr Li 54.6882(4) 5_555 101_555 n
Sr Sr Li 125.3118(4) 5_555 105_453 n
Sr Sr Li 125.3118(4) 5_555 105_553 n
Sr Sr O1 90.0 5_555 1_555 n
Sr Sr O1 90.0 5_555 1_565 n
Sr Sr O1 90.0 5_555 105_453 n
Ta Sr Ta 109.3765(9) 1_555 1_565 n
Ta Sr Ta 70.6235(9) 1_555 5_555 n
Ta Sr Ta 180.0 1_555 5_565 n
Ta Sr Ta 109.5186(4) 1_555 101_455 n
Ta Sr Ta 109.5186(4) 1_555 101_555 n
Ta Sr Ta 70.4814(4) 1_555 105_453 n
Ta Sr Ta 70.4814(4) 1_555 105_553 n
Ta Sr Li 0.0 1_555 1_555 n
Ta Sr Li 109.3765(9) 1_555 1_565 n
Ta Sr Li 70.6235(9) 1_555 5_555 n
Ta Sr Li 180.0 1_555 5_565 n
Ta Sr Li 109.5186(4) 1_555 101_455 n
Ta Sr Li 109.5186(4) 1_555 101_555 n
Ta Sr Li 70.4814(4) 1_555 105_453 n
Ta Sr Li 70.4814(4) 1_555 105_553 n
Ta Sr O1 35.3118(4) 1_555 1_555 n
Ta Sr O1 144.6882(4) 1_555 1_565 n
Ta Sr O1 90.0 1_555 105_453 n
Ta Sr Ta 180.0 1_565 5_555 n
Ta Sr Ta 70.6235(9) 1_565 5_565 n
Ta Sr Ta 109.5186(4) 1_565 101_455 n
Ta Sr Ta 109.5186(4) 1_565 101_555 n
Ta Sr Ta 70.4814(4) 1_565 105_453 n
Ta Sr Ta 70.4814(4) 1_565 105_553 n
Ta Sr Li 109.3765(9) 1_565 1_555 n
Ta Sr Li 0.0 1_565 1_565 n
Ta Sr Li 180.0 1_565 5_555 n
Ta Sr Li 70.6235(9) 1_565 5_565 n
Ta Sr Li 109.5186(4) 1_565 101_455 n
Ta Sr Li 109.5186(4) 1_565 101_555 n
Ta Sr Li 70.4814(4) 1_565 105_453 n
Ta Sr Li 70.4814(4) 1_565 105_553 n
Ta Sr O1 144.6882(4) 1_565 1_555 n
Ta Sr O1 35.3118(4) 1_565 1_565 n
Ta Sr O1 90.0 1_565 105_453 n
Ta Sr Ta 109.3765(9) 5_555 5_565 n
Ta Sr Ta 70.4814(4) 5_555 101_455 n
Ta Sr Ta 70.4814(4) 5_555 101_555 n
Ta Sr Ta 109.5186(4) 5_555 105_453 n
Ta Sr Ta 109.5186(4) 5_555 105_553 n
Ta Sr Li 70.6235(9) 5_555 1_555 n
Ta Sr Li 180.0 5_555 1_565 n
Ta Sr Li 0.0 5_555 5_555 n
Ta Sr Li 109.3765(9) 5_555 5_565 n
Ta Sr Li 70.4814(4) 5_555 101_455 n
Ta Sr Li 70.4814(4) 5_555 101_555 n
Ta Sr Li 109.5186(4) 5_555 105_453 n
Ta Sr Li 109.5186(4) 5_555 105_553 n
Ta Sr O1 35.3118(4) 5_555 1_555 n
Ta Sr O1 144.6882(4) 5_555 1_565 n
Ta Sr O1 90.0 5_555 105_453 n
Ta Sr Ta 70.4814(4) 5_565 101_455 n
Ta Sr Ta 70.4814(4) 5_565 101_555 n
Ta Sr Ta 109.5186(4) 5_565 105_453 n
Ta Sr Ta 109.5186(4) 5_565 105_553 n
Ta Sr Li 180.0 5_565 1_555 n
Ta Sr Li 70.6235(9) 5_565 1_565 n
Ta Sr Li 109.3765(9) 5_565 5_555 n
Ta Sr Li 0.0 5_565 5_565 n
Ta Sr Li 70.4814(4) 5_565 101_455 n
Ta Sr Li 70.4814(4) 5_565 101_555 n
Ta Sr Li 109.5186(4) 5_565 105_453 n
Ta Sr Li 109.5186(4) 5_565 105_553 n
Ta Sr O1 144.6882(4) 5_565 1_555 n
Ta Sr O1 35.3118(4) 5_565 1_565 n
Ta Sr O1 90.0 5_565 105_453 n
Ta Sr Ta 109.3765(9) 101_455 101_555 n
Ta Sr Ta 70.6235(9) 101_455 105_453 n
Ta Sr Ta 180.0 101_455 105_553 n
Ta Sr Li 109.5186(4) 101_455 1_555 n
Ta Sr Li 109.5186(4) 101_455 1_565 n
Ta Sr Li 70.4814(4) 101_455 5_555 n
Ta Sr Li 70.4814(4) 101_455 5_565 n
Ta Sr Li 0.0 101_455 101_455 n
Ta Sr Li 109.3765(9) 101_455 101_555 n
Ta Sr Li 70.6235(9) 101_455 105_453 n
Ta Sr Li 180.0 101_455 105_553 n
Ta Sr O1 90.0 101_455 1_555 n
Ta Sr O1 90.0 101_455 1_565 n
Ta Sr O1 35.3118(4) 101_455 105_453 n
Ta Sr Ta 180.0 101_555 105_453 n
Ta Sr Ta 70.6235(9) 101_555 105_553 n
Ta Sr Li 109.5186(4) 101_555 1_555 n
Ta Sr Li 109.5186(4) 101_555 1_565 n
Ta Sr Li 70.4814(4) 101_555 5_555 n
Ta Sr Li 70.4814(4) 101_555 5_565 n
Ta Sr Li 109.3765(9) 101_555 101_455 n
Ta Sr Li 0.0 101_555 101_555 n
Ta Sr Li 180.0 101_555 105_453 n
Ta Sr Li 70.6235(9) 101_555 105_553 n
Ta Sr O1 90.0 101_555 1_555 n
Ta Sr O1 90.0 101_555 1_565 n
Ta Sr O1 144.6882(4) 101_555 105_453 n
Ta Sr Ta 109.3765(9) 105_453 105_553 n
Ta Sr Li 70.4814(4) 105_453 1_555 n
Ta Sr Li 70.4814(4) 105_453 1_565 n
Ta Sr Li 109.5186(4) 105_453 5_555 n
Ta Sr Li 109.5186(4) 105_453 5_565 n
Ta Sr Li 70.6235(9) 105_453 101_455 n
Ta Sr Li 180.0 105_453 101_555 n
Ta Sr Li 0.0 105_453 105_453 n
Ta Sr Li 109.3765(9) 105_453 105_553 n
Ta Sr O1 90.0 105_453 1_555 n
Ta Sr O1 90.0 105_453 1_565 n
Ta Sr O1 35.3118(4) 105_453 105_453 n
Ta Sr Li 70.4814(4) 105_553 1_555 n
Ta Sr Li 70.4814(4) 105_553 1_565 n
Ta Sr Li 109.5186(4) 105_553 5_555 n
Ta Sr Li 109.5186(4) 105_553 5_565 n
Ta Sr Li 180.0 105_553 101_455 n
Ta Sr Li 70.6235(9) 105_553 101_555 n
Ta Sr Li 109.3765(9) 105_553 105_453 n
Ta Sr Li 0.0 105_553 105_553 n
Ta Sr O1 90.0 105_553 1_555 n
Ta Sr O1 90.0 105_553 1_565 n
Ta Sr O1 144.6882(4) 105_553 105_453 n
Li Sr Li 109.3765(9) 1_555 1_565 n
Li Sr Li 70.6235(9) 1_555 5_555 n
Li Sr Li 180.0 1_555 5_565 n
Li Sr Li 109.5186(4) 1_555 101_455 n
Li Sr Li 109.5186(4) 1_555 101_555 n
Li Sr Li 70.4814(4) 1_555 105_453 n
Li Sr Li 70.4814(4) 1_555 105_553 n
Li Sr O1 35.3118(4) 1_555 1_555 n
Li Sr O1 144.6882(4) 1_555 1_565 n
Li Sr O1 90.0 1_555 105_453 n
Li Sr Li 180.0 1_565 5_555 n
Li Sr Li 70.6235(9) 1_565 5_565 n
Li Sr Li 109.5186(4) 1_565 101_455 n
Li Sr Li 109.5186(4) 1_565 101_555 n
Li Sr Li 70.4814(4) 1_565 105_453 n
Li Sr Li 70.4814(4) 1_565 105_553 n
Li Sr O1 144.6882(4) 1_565 1_555 n
Li Sr O1 35.3118(4) 1_565 1_565 n
Li Sr O1 90.0 1_565 105_453 n
Li Sr Li 109.3765(9) 5_555 5_565 n
Li Sr Li 70.4814(4) 5_555 101_455 n
Li Sr Li 70.4814(4) 5_555 101_555 n
Li Sr Li 109.5186(4) 5_555 105_453 n
Li Sr Li 109.5186(4) 5_555 105_553 n
Li Sr O1 35.3118(4) 5_555 1_555 n
Li Sr O1 144.6882(4) 5_555 1_565 n
Li Sr O1 90.0 5_555 105_453 n
Li Sr Li 70.4814(4) 5_565 101_455 n
Li Sr Li 70.4814(4) 5_565 101_555 n
Li Sr Li 109.5186(4) 5_565 105_453 n
Li Sr Li 109.5186(4) 5_565 105_553 n
Li Sr O1 144.6882(4) 5_565 1_555 n
Li Sr O1 35.3118(4) 5_565 1_565 n
Li Sr O1 90.0 5_565 105_453 n
Li Sr Li 109.3765(9) 101_455 101_555 n
Li Sr Li 70.6235(9) 101_455 105_453 n
Li Sr Li 180.0 101_455 105_553 n
Li Sr O1 90.0 101_455 1_555 n
Li Sr O1 90.0 101_455 1_565 n
Li Sr O1 35.3118(4) 101_455 105_453 n
Li Sr Li 180.0 101_555 105_453 n
Li Sr Li 70.6235(9) 101_555 105_553 n
Li Sr O1 90.0 101_555 1_555 n
Li Sr O1 90.0 101_555 1_565 n
Li Sr O1 144.6882(4) 101_555 105_453 n
Li Sr Li 109.3765(9) 105_453 105_553 n
Li Sr O1 90.0 105_453 1_555 n
Li Sr O1 90.0 105_453 1_565 n
Li Sr O1 35.3118(4) 105_453 105_453 n
Li Sr O1 90.0 105_553 1_555 n
Li Sr O1 90.0 105_553 1_565 n
Li Sr O1 144.6882(4) 105_553 105_453 n
O1 Sr O1 180.0 1_555 1_565 n
O1 Sr O1 90.0 1_555 105_453 n
O1 Sr O1 90.0 1_565 105_453 n
Sr Ta Sr 109.3765(9) 1_545 1_555 n
Sr Ta Sr 70.4814(4) 1_545 2_555 n
Sr Ta Sr 70.4814(4) 1_545 2_655 n
Sr Ta Sr 70.6235(9) 1_545 5_544 n
Sr Ta Sr 180.0 1_545 5_554 n
Sr Ta Sr 109.5186(4) 1_545 6_554 n
Sr Ta Sr 109.5186(4) 1_545 6_654 n
Sr Ta O1 54.6882(4) 1_545 1_555 n
Sr Ta O1 125.3118(4) 1_545 5_554 n
Sr Ta N1 54.6882(4) 1_545 1_555 n
Sr Ta N1 125.3118(4) 1_545 5_554 n
Sr Ta O2 128.66(11) 1_545 1_455 n
Sr Ta O2 58.33(12) 1_545 2_545 n
Sr Ta O2 51.34(11) 1_545 3_655 n
Sr Ta O2 121.67(12) 1_545 4_565 n
Sr Ta N2 128.66(11) 1_545 1_455 n
Sr Ta N2 58.33(12) 1_545 2_545 n
Sr Ta N2 51.34(11) 1_545 3_655 n
Sr Ta N2 121.67(12) 1_545 4_565 n
Sr Ta Sr 70.4814(4) 1_555 2_555 n
Sr Ta Sr 70.4814(4) 1_555 2_655 n
Sr Ta Sr 180.0 1_555 5_544 n
Sr Ta Sr 70.6235(9) 1_555 5_554 n
Sr Ta Sr 109.5186(4) 1_555 6_554 n
Sr Ta Sr 109.5186(4) 1_555 6_654 n
Sr Ta O1 54.6882(4) 1_555 1_555 n
Sr Ta O1 125.3118(4) 1_555 5_554 n
Sr Ta N1 54.6882(4) 1_555 1_555 n
Sr Ta N1 125.3118(4) 1_555 5_554 n
Sr Ta O2 51.34(11) 1_555 1_455 n
Sr Ta O2 121.67(12) 1_555 2_545 n
Sr Ta O2 128.66(11) 1_555 3_655 n
Sr Ta O2 58.33(12) 1_555 4_565 n
Sr Ta N2 51.34(11) 1_555 1_455 n
Sr Ta N2 121.67(12) 1_555 2_545 n
Sr Ta N2 128.66(11) 1_555 3_655 n
Sr Ta N2 58.33(12) 1_555 4_565 n
Sr Ta Sr 109.3765(9) 2_555 2_655 n
Sr Ta Sr 109.5186(4) 2_555 5_544 n
Sr Ta Sr 109.5186(4) 2_555 5_554 n
Sr Ta Sr 70.6235(9) 2_555 6_554 n
Sr Ta Sr 180.0 2_555 6_654 n
Sr Ta O1 54.6882(4) 2_555 1_555 n
Sr Ta O1 125.3118(4) 2_555 5_554 n
Sr Ta N1 54.6882(4) 2_555 1_555 n
Sr Ta N1 125.3118(4) 2_555 5_554 n
Sr Ta O2 58.33(12) 2_555 1_455 n
Sr Ta O2 51.34(11) 2_555 2_545 n
Sr Ta O2 121.67(12) 2_555 3_655 n
Sr Ta O2 128.66(11) 2_555 4_565 n
Sr Ta N2 58.33(12) 2_555 1_455 n
Sr Ta N2 51.34(11) 2_555 2_545 n
Sr Ta N2 121.67(12) 2_555 3_655 n
Sr Ta N2 128.66(11) 2_555 4_565 n
Sr Ta Sr 109.5186(4) 2_655 5_544 n
Sr Ta Sr 109.5186(4) 2_655 5_554 n
Sr Ta Sr 180.0 2_655 6_554 n
Sr Ta Sr 70.6235(9) 2_655 6_654 n
Sr Ta O1 54.6882(4) 2_655 1_555 n
Sr Ta O1 125.3118(4) 2_655 5_554 n
Sr Ta N1 54.6882(4) 2_655 1_555 n
Sr Ta N1 125.3118(4) 2_655 5_554 n
Sr Ta O2 121.67(12) 2_655 1_455 n
Sr Ta O2 128.66(11) 2_655 2_545 n
Sr Ta O2 58.33(12) 2_655 3_655 n
Sr Ta O2 51.34(11) 2_655 4_565 n
Sr Ta N2 121.67(12) 2_655 1_455 n
Sr Ta N2 128.66(11) 2_655 2_545 n
Sr Ta N2 58.33(12) 2_655 3_655 n
Sr Ta N2 51.34(11) 2_655 4_565 n
Sr Ta Sr 109.3765(9) 5_544 5_554 n
Sr Ta Sr 70.4814(4) 5_544 6_554 n
Sr Ta Sr 70.4814(4) 5_544 6_654 n
Sr Ta O1 125.3118(4) 5_544 1_555 n
Sr Ta O1 54.6882(4) 5_544 5_554 n
Sr Ta N1 125.3118(4) 5_544 1_555 n
Sr Ta N1 54.6882(4) 5_544 5_554 n
Sr Ta O2 128.66(11) 5_544 1_455 n
Sr Ta O2 58.33(12) 5_544 2_545 n
Sr Ta O2 51.34(11) 5_544 3_655 n
Sr Ta O2 121.67(12) 5_544 4_565 n
Sr Ta N2 128.66(11) 5_544 1_455 n
Sr Ta N2 58.33(12) 5_544 2_545 n
Sr Ta N2 51.34(11) 5_544 3_655 n
Sr Ta N2 121.67(12) 5_544 4_565 n
Sr Ta Sr 70.4814(4) 5_554 6_554 n
Sr Ta Sr 70.4814(4) 5_554 6_654 n
Sr Ta O1 125.3118(4) 5_554 1_555 n
Sr Ta O1 54.6882(4) 5_554 5_554 n
Sr Ta N1 125.3118(4) 5_554 1_555 n
Sr Ta N1 54.6882(4) 5_554 5_554 n
Sr Ta O2 51.34(11) 5_554 1_455 n
Sr Ta O2 121.67(12) 5_554 2_545 n
Sr Ta O2 128.66(11) 5_554 3_655 n
Sr Ta O2 58.33(12) 5_554 4_565 n
Sr Ta N2 51.34(11) 5_554 1_455 n
Sr Ta N2 121.67(12) 5_554 2_545 n
Sr Ta N2 128.66(11) 5_554 3_655 n
Sr Ta N2 58.33(12) 5_554 4_565 n
Sr Ta Sr 109.3765(9) 6_554 6_654 n
Sr Ta O1 125.3118(4) 6_554 1_555 n
Sr Ta O1 54.6882(4) 6_554 5_554 n
Sr Ta N1 125.3118(4) 6_554 1_555 n
Sr Ta N1 54.6882(4) 6_554 5_554 n
Sr Ta O2 58.33(12) 6_554 1_455 n
Sr Ta O2 51.34(11) 6_554 2_545 n
Sr Ta O2 121.67(12) 6_554 3_655 n
Sr Ta O2 128.66(11) 6_554 4_565 n
Sr Ta N2 58.33(12) 6_554 1_455 n
Sr Ta N2 51.34(11) 6_554 2_545 n
Sr Ta N2 121.67(12) 6_554 3_655 n
Sr Ta N2 128.66(11) 6_554 4_565 n
Sr Ta O1 125.3118(4) 6_654 1_555 n
Sr Ta O1 54.6882(4) 6_654 5_554 n
Sr Ta N1 125.3118(4) 6_654 1_555 n
Sr Ta N1 54.6882(4) 6_654 5_554 n
Sr Ta O2 121.67(12) 6_654 1_455 n
Sr Ta O2 128.66(11) 6_654 2_545 n
Sr Ta O2 58.33(12) 6_654 3_655 n
Sr Ta O2 51.34(11) 6_654 4_565 n
Sr Ta N2 121.67(12) 6_654 1_455 n
Sr Ta N2 128.66(11) 6_654 2_545 n
Sr Ta N2 58.33(12) 6_654 3_655 n
Sr Ta N2 51.34(11) 6_654 4_565 n
O1 Ta O1 180.0 1_555 5_554 n
O1 Ta N1 0.0 1_555 1_555 n
O1 Ta N1 180.0 1_555 5_554 n
O1 Ta O2 90.0 1_555 1_455 n
O1 Ta O2 90.0 1_555 2_545 n
O1 Ta O2 90.0 1_555 3_655 n
O1 Ta O2 90.0 1_555 4_565 n
O1 Ta N2 90.0 1_555 1_455 n
O1 Ta N2 90.0 1_555 2_545 n
O1 Ta N2 90.0 1_555 3_655 n
O1 Ta N2 90.0 1_555 4_565 n
O1 Ta N1 180.0 5_554 1_555 n
O1 Ta N1 0.0 5_554 5_554 n
O1 Ta O2 90.0 5_554 1_455 n
O1 Ta O2 90.0 5_554 2_545 n
O1 Ta O2 90.0 5_554 3_655 n
O1 Ta O2 90.0 5_554 4_565 n
O1 Ta N2 90.0 5_554 1_455 n
O1 Ta N2 90.0 5_554 2_545 n
O1 Ta N2 90.0 5_554 3_655 n
O1 Ta N2 90.0 5_554 4_565 n
N1 Ta N1 180.0 1_555 5_554 n
N1 Ta O2 90.0 1_555 1_455 n
N1 Ta O2 90.0 1_555 2_545 n
N1 Ta O2 90.0 1_555 3_655 n
N1 Ta O2 90.0 1_555 4_565 n
N1 Ta N2 90.0 1_555 1_455 n
N1 Ta N2 90.0 1_555 2_545 n
N1 Ta N2 90.0 1_555 3_655 n
N1 Ta N2 90.0 1_555 4_565 n
N1 Ta O2 90.0 5_554 1_455 n
N1 Ta O2 90.0 5_554 2_545 n
N1 Ta O2 90.0 5_554 3_655 n
N1 Ta O2 90.0 5_554 4_565 n
N1 Ta N2 90.0 5_554 1_455 n
N1 Ta N2 90.0 5_554 2_545 n
N1 Ta N2 90.0 5_554 3_655 n
N1 Ta N2 90.0 5_554 4_565 n
O2 Ta O2 90.0 1_455 2_545 n
O2 Ta O2 180.0 1_455 3_655 n
O2 Ta O2 90.0 1_455 4_565 n
O2 Ta N2 0.0 1_455 1_455 n
O2 Ta N2 90.0 1_455 2_545 n
O2 Ta N2 180.0 1_455 3_655 n
O2 Ta N2 90.0 1_455 4_565 n
O2 Ta O2 90.0 2_545 3_655 n
O2 Ta O2 180.0 2_545 4_565 n
O2 Ta N2 90.0 2_545 1_455 n
O2 Ta N2 0.0 2_545 2_545 n
O2 Ta N2 90.0 2_545 3_655 n
O2 Ta N2 180.0 2_545 4_565 n
O2 Ta O2 90.0 3_655 4_565 n
O2 Ta N2 180.0 3_655 1_455 n
O2 Ta N2 90.0 3_655 2_545 n
O2 Ta N2 0.0 3_655 3_655 n
O2 Ta N2 90.0 3_655 4_565 n
O2 Ta N2 90.0 4_565 1_455 n
O2 Ta N2 180.0 4_565 2_545 n
O2 Ta N2 90.0 4_565 3_655 n
O2 Ta N2 0.0 4_565 4_565 n
N2 Ta N2 90.0 1_455 2_545 n
N2 Ta N2 180.0 1_455 3_655 n
N2 Ta N2 90.0 1_455 4_565 n
N2 Ta N2 90.0 2_545 3_655 n
N2 Ta N2 180.0 2_545 4_565 n
N2 Ta N2 90.0 3_655 4_565 n
Sr Li Sr 109.3765(9) 1_545 1_555 n
Sr Li Sr 70.4814(4) 1_545 2_555 n
Sr Li Sr 70.4814(4) 1_545 2_655 n
Sr Li Sr 70.6235(9) 1_545 5_544 n
Sr Li Sr 180.0 1_545 5_554 n
Sr Li Sr 109.5186(4) 1_545 6_554 n
Sr Li Sr 109.5186(4) 1_545 6_654 n
Sr Li O1 54.6882(4) 1_545 1_555 n
Sr Li O1 125.3118(4) 1_545 5_554 n
Sr Li N1 54.6882(4) 1_545 1_555 n
Sr Li N1 125.3118(4) 1_545 5_554 n
Sr Li O2 128.66(11) 1_545 1_455 n
Sr Li O2 58.33(12) 1_545 2_545 n
Sr Li O2 51.34(11) 1_545 3_655 n
Sr Li O2 121.67(12) 1_545 4_565 n
Sr Li N2 128.66(11) 1_545 1_455 n
Sr Li N2 58.33(12) 1_545 2_545 n
Sr Li N2 51.34(11) 1_545 3_655 n
Sr Li N2 121.67(12) 1_545 4_565 n
Sr Li Sr 70.4814(4) 1_555 2_555 n
Sr Li Sr 70.4814(4) 1_555 2_655 n
Sr Li Sr 180.0 1_555 5_544 n
Sr Li Sr 70.6235(9) 1_555 5_554 n
Sr Li Sr 109.5186(4) 1_555 6_554 n
Sr Li Sr 109.5186(4) 1_555 6_654 n
Sr Li O1 54.6882(4) 1_555 1_555 n
Sr Li O1 125.3118(4) 1_555 5_554 n
Sr Li N1 54.6882(4) 1_555 1_555 n
Sr Li N1 125.3118(4) 1_555 5_554 n
Sr Li O2 51.34(11) 1_555 1_455 n
Sr Li O2 121.67(12) 1_555 2_545 n
Sr Li O2 128.66(11) 1_555 3_655 n
Sr Li O2 58.33(12) 1_555 4_565 n
Sr Li N2 51.34(11) 1_555 1_455 n
Sr Li N2 121.67(12) 1_555 2_545 n
Sr Li N2 128.66(11) 1_555 3_655 n
Sr Li N2 58.33(12) 1_555 4_565 n
Sr Li Sr 109.3765(9) 2_555 2_655 n
Sr Li Sr 109.5186(4) 2_555 5_544 n
Sr Li Sr 109.5186(4) 2_555 5_554 n
Sr Li Sr 70.6235(9) 2_555 6_554 n
Sr Li Sr 180.0 2_555 6_654 n
Sr Li O1 54.6882(4) 2_555 1_555 n
Sr Li O1 125.3118(4) 2_555 5_554 n
Sr Li N1 54.6882(4) 2_555 1_555 n
Sr Li N1 125.3118(4) 2_555 5_554 n
Sr Li O2 58.33(12) 2_555 1_455 n
Sr Li O2 51.34(11) 2_555 2_545 n
Sr Li O2 121.67(12) 2_555 3_655 n
Sr Li O2 128.66(11) 2_555 4_565 n
Sr Li N2 58.33(12) 2_555 1_455 n
Sr Li N2 51.34(11) 2_555 2_545 n
Sr Li N2 121.67(12) 2_555 3_655 n
Sr Li N2 128.66(11) 2_555 4_565 n
Sr Li Sr 109.5186(4) 2_655 5_544 n
Sr Li Sr 109.5186(4) 2_655 5_554 n
Sr Li Sr 180.0 2_655 6_554 n
Sr Li Sr 70.6235(9) 2_655 6_654 n
Sr Li O1 54.6882(4) 2_655 1_555 n
Sr Li O1 125.3118(4) 2_655 5_554 n
Sr Li N1 54.6882(4) 2_655 1_555 n
Sr Li N1 125.3118(4) 2_655 5_554 n
Sr Li O2 121.67(12) 2_655 1_455 n
Sr Li O2 128.66(11) 2_655 2_545 n
Sr Li O2 58.33(12) 2_655 3_655 n
Sr Li O2 51.34(11) 2_655 4_565 n
Sr Li N2 121.67(12) 2_655 1_455 n
Sr Li N2 128.66(11) 2_655 2_545 n
Sr Li N2 58.33(12) 2_655 3_655 n
Sr Li N2 51.34(11) 2_655 4_565 n
Sr Li Sr 109.3765(9) 5_544 5_554 n
Sr Li Sr 70.4814(4) 5_544 6_554 n
Sr Li Sr 70.4814(4) 5_544 6_654 n
Sr Li O1 125.3118(4) 5_544 1_555 n
Sr Li O1 54.6882(4) 5_544 5_554 n
Sr Li N1 125.3118(4) 5_544 1_555 n
Sr Li N1 54.6882(4) 5_544 5_554 n
Sr Li O2 128.66(11) 5_544 1_455 n
Sr Li O2 58.33(12) 5_544 2_545 n
Sr Li O2 51.34(11) 5_544 3_655 n
Sr Li O2 121.67(12) 5_544 4_565 n
Sr Li N2 128.66(11) 5_544 1_455 n
Sr Li N2 58.33(12) 5_544 2_545 n
Sr Li N2 51.34(11) 5_544 3_655 n
Sr Li N2 121.67(12) 5_544 4_565 n
Sr Li Sr 70.4814(4) 5_554 6_554 n
Sr Li Sr 70.4814(4) 5_554 6_654 n
Sr Li O1 125.3118(4) 5_554 1_555 n
Sr Li O1 54.6882(4) 5_554 5_554 n
Sr Li N1 125.3118(4) 5_554 1_555 n
Sr Li N1 54.6882(4) 5_554 5_554 n
Sr Li O2 51.34(11) 5_554 1_455 n
Sr Li O2 121.67(12) 5_554 2_545 n
Sr Li O2 128.66(11) 5_554 3_655 n
Sr Li O2 58.33(12) 5_554 4_565 n
Sr Li N2 51.34(11) 5_554 1_455 n
Sr Li N2 121.67(12) 5_554 2_545 n
Sr Li N2 128.66(11) 5_554 3_655 n
Sr Li N2 58.33(12) 5_554 4_565 n
Sr Li Sr 109.3765(9) 6_554 6_654 n
Sr Li O1 125.3118(4) 6_554 1_555 n
Sr Li O1 54.6882(4) 6_554 5_554 n
Sr Li N1 125.3118(4) 6_554 1_555 n
Sr Li N1 54.6882(4) 6_554 5_554 n
Sr Li O2 58.33(12) 6_554 1_455 n
Sr Li O2 51.34(11) 6_554 2_545 n
Sr Li O2 121.67(12) 6_554 3_655 n
Sr Li O2 128.66(11) 6_554 4_565 n
Sr Li N2 58.33(12) 6_554 1_455 n
Sr Li N2 51.34(11) 6_554 2_545 n
Sr Li N2 121.67(12) 6_554 3_655 n
Sr Li N2 128.66(11) 6_554 4_565 n
Sr Li O1 125.3118(4) 6_654 1_555 n
Sr Li O1 54.6882(4) 6_654 5_554 n
Sr Li N1 125.3118(4) 6_654 1_555 n
Sr Li N1 54.6882(4) 6_654 5_554 n
Sr Li O2 121.67(12) 6_654 1_455 n
Sr Li O2 128.66(11) 6_654 2_545 n
Sr Li O2 58.33(12) 6_654 3_655 n
Sr Li O2 51.34(11) 6_654 4_565 n
Sr Li N2 121.67(12) 6_654 1_455 n
Sr Li N2 128.66(11) 6_654 2_545 n
Sr Li N2 58.33(12) 6_654 3_655 n
Sr Li N2 51.34(11) 6_654 4_565 n
O1 Li O1 180.0 1_555 5_554 n
O1 Li N1 0.0 1_555 1_555 n
O1 Li N1 180.0 1_555 5_554 n
O1 Li O2 90.0 1_555 1_455 n
O1 Li O2 90.0 1_555 2_545 n
O1 Li O2 90.0 1_555 3_655 n
O1 Li O2 90.0 1_555 4_565 n
O1 Li N2 90.0 1_555 1_455 n
O1 Li N2 90.0 1_555 2_545 n
O1 Li N2 90.0 1_555 3_655 n
O1 Li N2 90.0 1_555 4_565 n
O1 Li N1 180.0 5_554 1_555 n
O1 Li N1 0.0 5_554 5_554 n
O1 Li O2 90.0 5_554 1_455 n
O1 Li O2 90.0 5_554 2_545 n
O1 Li O2 90.0 5_554 3_655 n
O1 Li O2 90.0 5_554 4_565 n
O1 Li N2 90.0 5_554 1_455 n
O1 Li N2 90.0 5_554 2_545 n
O1 Li N2 90.0 5_554 3_655 n
O1 Li N2 90.0 5_554 4_565 n
N1 Li N1 180.0 1_555 5_554 n
N1 Li O2 90.0 1_555 1_455 n
N1 Li O2 90.0 1_555 2_545 n
N1 Li O2 90.0 1_555 3_655 n
N1 Li O2 90.0 1_555 4_565 n
N1 Li N2 90.0 1_555 1_455 n
N1 Li N2 90.0 1_555 2_545 n
N1 Li N2 90.0 1_555 3_655 n
N1 Li N2 90.0 1_555 4_565 n
N1 Li O2 90.0 5_554 1_455 n
N1 Li O2 90.0 5_554 2_545 n
N1 Li O2 90.0 5_554 3_655 n
N1 Li O2 90.0 5_554 4_565 n
N1 Li N2 90.0 5_554 1_455 n
N1 Li N2 90.0 5_554 2_545 n
N1 Li N2 90.0 5_554 3_655 n
N1 Li N2 90.0 5_554 4_565 n
O2 Li O2 90.0 1_455 2_545 n
O2 Li O2 180.0 1_455 3_655 n
O2 Li O2 90.0 1_455 4_565 n
O2 Li N2 0.0 1_455 1_455 n
O2 Li N2 90.0 1_455 2_545 n
O2 Li N2 180.0 1_455 3_655 n
O2 Li N2 90.0 1_455 4_565 n
O2 Li O2 90.0 2_545 3_655 n
O2 Li O2 180.0 2_545 4_565 n
O2 Li N2 90.0 2_545 1_455 n
O2 Li N2 0.0 2_545 2_545 n
O2 Li N2 90.0 2_545 3_655 n
O2 Li N2 180.0 2_545 4_565 n
O2 Li O2 90.0 3_655 4_565 n
O2 Li N2 180.0 3_655 1_455 n
O2 Li N2 90.0 3_655 2_545 n
O2 Li N2 0.0 3_655 3_655 n
O2 Li N2 90.0 3_655 4_565 n
O2 Li N2 90.0 4_565 1_455 n
O2 Li N2 180.0 4_565 2_545 n
O2 Li N2 90.0 4_565 3_655 n
O2 Li N2 0.0 4_565 4_565 n
N2 Li N2 90.0 1_455 2_545 n
N2 Li N2 180.0 1_455 3_655 n
N2 Li N2 90.0 1_455 4_565 n
N2 Li N2 90.0 2_545 3_655 n
N2 Li N2 180.0 2_545 4_565 n
N2 Li N2 90.0 3_655 4_565 n
Sr O1 Sr 180.0 1_545 1_555 n
Sr O1 Sr 90.0 1_545 2_555 n
Sr O1 Sr 90.0 1_545 2_655 n
Sr O1 Ta 90.0 1_545 1_555 n
Sr O1 Ta 90.0 1_545 5_555 n
Sr O1 Li 90.0 1_545 1_555 n
Sr O1 Li 90.0 1_545 5_555 n
Sr O1 Sr 90.0 1_555 2_555 n
Sr O1 Sr 90.0 1_555 2_655 n
Sr O1 Ta 90.0 1_555 1_555 n
Sr O1 Ta 90.0 1_555 5_555 n
Sr O1 Li 90.0 1_555 1_555 n
Sr O1 Li 90.0 1_555 5_555 n
Sr O1 Sr 180.0 2_555 2_655 n
Sr O1 Ta 90.0 2_555 1_555 n
Sr O1 Ta 90.0 2_555 5_555 n
Sr O1 Li 90.0 2_555 1_555 n
Sr O1 Li 90.0 2_555 5_555 n
Sr O1 Ta 90.0 2_655 1_555 n
Sr O1 Ta 90.0 2_655 5_555 n
Sr O1 Li 90.0 2_655 1_555 n
Sr O1 Li 90.0 2_655 5_555 n
Ta O1 Ta 180.0 1_555 5_555 n
Ta O1 Li 0.0 1_555 1_555 n
Ta O1 Li 180.0 1_555 5_555 n
Ta O1 Li 180.0 5_555 1_555 n
Ta O1 Li 0.0 5_555 5_555 n
Li O1 Li 180.0 1_555 5_555 n
Sr N1 Sr 180.0 1_545 1_555 n
Sr N1 Sr 90.0 1_545 2_555 n
Sr N1 Sr 90.0 1_545 2_655 n
Sr N1 Ta 90.0 1_545 1_555 n
Sr N1 Ta 90.0 1_545 5_555 n
Sr N1 Li 90.0 1_545 1_555 n
Sr N1 Li 90.0 1_545 5_555 n
Sr N1 Sr 90.0 1_555 2_555 n
Sr N1 Sr 90.0 1_555 2_655 n
Sr N1 Ta 90.0 1_555 1_555 n
Sr N1 Ta 90.0 1_555 5_555 n
Sr N1 Li 90.0 1_555 1_555 n
Sr N1 Li 90.0 1_555 5_555 n
Sr N1 Sr 180.0 2_555 2_655 n
Sr N1 Ta 90.0 2_555 1_555 n
Sr N1 Ta 90.0 2_555 5_555 n
Sr N1 Li 90.0 2_555 1_555 n
Sr N1 Li 90.0 2_555 5_555 n
Sr N1 Ta 90.0 2_655 1_555 n
Sr N1 Ta 90.0 2_655 5_555 n
Sr N1 Li 90.0 2_655 1_555 n
Sr N1 Li 90.0 2_655 5_555 n
Ta N1 Ta 180.0 1_555 5_555 n
Ta N1 Li 0.0 1_555 1_555 n
Ta N1 Li 180.0 1_555 5_555 n
Ta N1 Li 180.0 5_555 1_555 n
Ta N1 Li 0.0 5_555 5_555 n
Li N1 Li 180.0 1_555 5_555 n
Sr O2 Sr 89.685(14) 1_655 2_655 n
Sr O2 Sr 95.29(18) 1_655 5_654 n
Sr O2 Sr 175.03(17) 1_655 6_654 n
Sr O2 Ta 93.33(10) 1_655 1_655 n
Sr O2 Ta 93.33(10) 1_655 105_553 n
Sr O2 Li 93.33(10) 1_655 1_655 n
Sr O2 Li 93.33(10) 1_655 105_553 n
Sr O2 Sr 175.03(17) 2_655 5_654 n
Sr O2 Sr 85.34(15) 2_655 6_654 n
Sr O2 Ta 86.36(13) 2_655 1_655 n
Sr O2 Ta 86.36(13) 2_655 105_553 n
Sr O2 Li 86.36(13) 2_655 1_655 n
Sr O2 Li 86.36(13) 2_655 105_553 n
Sr O2 Sr 89.685(14) 5_654 6_654 n
Sr O2 Ta 93.33(10) 5_654 1_655 n
Sr O2 Ta 93.33(10) 5_654 105_553 n
Sr O2 Li 93.33(10) 5_654 1_655 n
Sr O2 Li 93.33(10) 5_654 105_553 n
Sr O2 Ta 86.36(13) 6_654 1_655 n
Sr O2 Ta 86.36(13) 6_654 105_553 n
Sr O2 Li 86.36(13) 6_654 1_655 n
Sr O2 Li 86.36(13) 6_654 105_553 n
Ta O2 Ta 170.10(33) 1_655 105_553 n
Ta O2 Li 0.0 1_655 1_655 n
Ta O2 Li 170.10(33) 1_655 105_553 n
Ta O2 Li 170.10(33) 105_553 1_655 n
Ta O2 Li 0.0 105_553 105_553 n
Li O2 Li 170.10(33) 1_655 105_553 n
Sr N2 Sr 89.685(14) 1_655 2_655 n
Sr N2 Sr 95.29(18) 1_655 5_654 n
Sr N2 Sr 175.03(17) 1_655 6_654 n
Sr N2 Ta 93.33(10) 1_655 1_655 n
Sr N2 Ta 93.33(10) 1_655 105_553 n
Sr N2 Li 93.33(10) 1_655 1_655 n
Sr N2 Li 93.33(10) 1_655 105_553 n
Sr N2 Sr 175.03(17) 2_655 5_654 n
Sr N2 Sr 85.34(15) 2_655 6_654 n
Sr N2 Ta 86.36(13) 2_655 1_655 n
Sr N2 Ta 86.36(13) 2_655 105_553 n
Sr N2 Li 86.36(13) 2_655 1_655 n
Sr N2 Li 86.36(13) 2_655 105_553 n
Sr N2 Sr 89.685(14) 5_654 6_654 n
Sr N2 Ta 93.33(10) 5_654 1_655 n
Sr N2 Ta 93.33(10) 5_654 105_553 n
Sr N2 Li 93.33(10) 5_654 1_655 n
Sr N2 Li 93.33(10) 5_654 105_553 n
Sr N2 Ta 86.36(13) 6_654 1_655 n
Sr N2 Ta 86.36(13) 6_654 105_553 n
Sr N2 Li 86.36(13) 6_654 1_655 n
Sr N2 Li 86.36(13) 6_654 105_553 n
Ta N2 Ta 170.10(33) 1_655 105_553 n
Ta N2 Li 0.0 1_655 1_655 n
Ta N2 Li 170.10(33) 1_655 105_553 n
Ta N2 Li 170.10(33) 105_553 1_655 n
Ta N2 Li 0.0 105_553 105_553 n
Li N2 Li 170.10(33) 1_655 105_553 n
loop_
_geom_bond_atom_site_label_1
_geom_bond_atom_site_label_2
_geom_bond_distance
_geom_bond_site_symmetry_2
_geom_bond_publ_flag
Sr Sr 4.028520(30) 2_555 n
Sr Sr 4.028520(30) 2_565 n
Sr Sr 4.028520(30) 2_655 n
Sr Sr 4.028520(30) 2_665 n
Sr Sr 4.03559(6) 5_554 n
Sr Sr 4.03559(6) 5_555 n
Sr Ta 3.490840(20) 1_555 n
Sr Ta 3.490840(20) 1_565 n
Sr Ta 3.490840(20) 5_555 n
Sr Ta 3.490840(20) 5_565 n
Sr Ta 3.490840(20) 101_455 n
Sr Ta 3.490840(20) 101_555 n
Sr Ta 3.490840(20) 105_455 n
Sr Ta 3.490840(20) 105_555 n
Sr Li 3.490840(20) 1_555 n
Sr Li 3.490840(20) 1_565 n
Sr Li 3.490840(20) 5_555 n
Sr Li 3.490840(20) 5_565 n
Sr Li 3.490840(20) 101_455 n
Sr Li 3.490840(20) 101_555 n
Sr Li 3.490840(20) 105_455 n
Sr Li 3.490840(20) 105_555 n
Sr O1 2.848590(20) 1_555 n
Sr O1 2.848590(20) 1_565 n
Sr O1 2.848590(20) 105_455 n
Sr O1 2.848590(20) 105_555 n
Sr N1 2.848590(20) 1_555 n
Sr N1 2.848590(20) 1_565 n
Sr N1 2.848590(20) 105_455 n
Sr N1 2.848590(20) 105_555 n
Sr O2 2.731(4) 1_455 n
Sr O2 2.977(4) 2_555 n
Sr O2 2.731(4) 3_665 n
Sr O2 2.977(4) 4_565 n
Sr O2 2.731(4) 5_655 n
Sr O2 2.977(4) 6_565 n
Sr O2 2.731(4) 7_465 n
Sr O2 2.977(4) 8_555 n
Sr N2 2.731(4) 1_455 n
Sr N2 2.977(4) 2_555 n
Sr N2 2.731(4) 3_665 n
Sr N2 2.977(4) 4_565 n
Sr N2 2.731(4) 5_655 n
Sr N2 2.977(4) 6_565 n
Sr N2 2.731(4) 7_465 n
Sr N2 2.977(4) 8_555 n
Ta Sr 3.490840(20) 1_545 n
Ta Sr 3.490840(20) 1_555 n
Ta Sr 3.490840(20) 2_555 n
Ta Sr 3.490840(20) 2_655 n
Ta Sr 3.490840(20) 5_544 n
Ta Sr 3.490840(20) 5_554 n
Ta Sr 3.490840(20) 6_554 n
Ta Sr 3.490840(20) 6_654 n
Ta O1 2.017800(30) 1_555 n
Ta O1 2.017800(30) 5_554 n
Ta N1 2.017800(30) 1_555 n
Ta N1 2.017800(30) 5_554 n
Ta O2 2.0218(5) 1_455 n
Ta O2 2.0218(5) 2_545 n
Ta O2 2.0218(5) 3_655 n
Ta O2 2.0218(5) 4_565 n
Ta N2 2.0218(5) 1_455 n
Ta N2 2.0218(5) 2_545 n
Ta N2 2.0218(5) 3_655 n
Ta N2 2.0218(5) 4_565 n
Li Sr 3.490840(20) 1_545 n
Li Sr 3.490840(20) 1_555 n
Li Sr 3.490840(20) 2_555 n
Li Sr 3.490840(20) 2_655 n
Li Sr 3.490840(20) 5_544 n
Li Sr 3.490840(20) 5_554 n
Li Sr 3.490840(20) 6_554 n
Li Sr 3.490840(20) 6_654 n
Li O1 2.017800(30) 1_555 n
Li O1 2.017800(30) 5_554 n
Li N1 2.017800(30) 1_555 n
Li N1 2.017800(30) 5_554 n
Li O2 2.0218(5) 1_455 n
Li O2 2.0218(5) 2_545 n
Li O2 2.0218(5) 3_655 n
Li O2 2.0218(5) 4_565 n
Li N2 2.0218(5) 1_455 n
Li N2 2.0218(5) 2_545 n
Li N2 2.0218(5) 3_655 n
Li N2 2.0218(5) 4_565 n
O1 Sr 2.848590(20) 1_545 n
O1 Sr 2.848590(20) 1_555 n
O1 Sr 2.848590(20) 2_555 n
O1 Sr 2.848590(20) 2_655 n
O1 Ta 2.017800(30) 1_555 n
O1 Ta 2.017800(30) 5_555 n
O1 Li 2.017800(30) 1_555 n
O1 Li 2.017800(30) 5_555 n
N1 Sr 2.848590(20) 1_545 n
N1 Sr 2.848590(20) 1_555 n
N1 Sr 2.848590(20) 2_555 n
N1 Sr 2.848590(20) 2_655 n
N1 Ta 2.017800(30) 1_555 n
N1 Ta 2.017800(30) 5_555 n
N1 Li 2.017800(30) 1_555 n
N1 Li 2.017800(30) 5_555 n
O2 Sr 2.731(4) 1_655 n
O2 Sr 2.977(4) 2_655 n
O2 Sr 2.731(4) 5_654 n
O2 Sr 2.977(4) 6_654 n
O2 Ta 2.0218(5) 1_655 n
O2 Ta 2.0218(5) 105_555 n
O2 Li 2.0218(5) 1_655 n
O2 Li 2.0218(5) 105_555 n
N2 Sr 2.731(4) 1_655 n
N2 Sr 2.977(4) 2_655 n
N2 Sr 2.731(4) 5_654 n
N2 Sr 2.977(4) 6_654 n
N2 Ta 2.0218(5) 1_655 n
N2 Ta 2.0218(5) 105_555 n
N2 Li 2.0218(5) 1_655 n
N2 Li 2.0218(5) 105_555 n
loop_
_pd_meas_2theta_scan
_pd_proc_2theta_corrected
_pd_meas_counts_total
_pd_proc_ls_weight
_pd_proc_intensity_bkg_calc
_pd_calc_intensity_total
15.0000 14.9793 151.0 0.0 105.19193 .
15.0167 14.9960 135.0 0.00741 105.21500 105.21500
15.0334 15.0127 140.0 0.00715 105.23807 105.23807
15.0502 15.0295 139.0 0.00719 105.26127 105.26128
15.0669 15.0462 136.0 0.00736 105.28434 105.28435
15.0836 15.0629 110.0 0.00909 105.30740 105.30741
15.1003 15.0796 127.0 0.00787 105.33047 105.33048
15.1170 15.0963 129.0 0.00775 105.35355 105.35355
15.1337 15.1130 162.0 0.00617 105.37662 105.37663
15.1505 15.1298 129.0 0.00775 105.39982 105.39983
15.1672 15.1465 109.0 0.00917 105.42289 105.42290
15.1839 15.1632 111.0 0.00900 105.44595 105.44598
15.2006 15.1799 133.0 0.00752 105.46902 105.46905
15.2173 15.1966 133.0 0.00752 105.49210 105.49212
15.2341 15.2134 138.0 0.00724 105.51530 105.51532
15.2508 15.2301 107.0 0.00935 105.53837 105.53839
15.2675 15.2468 119.0 0.00840 105.56143 105.56146
15.2842 15.2635 150.0 0.00666 105.58450 105.58453
15.3009 15.2802 125.0 0.00800 105.60757 105.60760
15.3177 15.2970 122.0 0.00819 105.63078 105.63081
15.3344 15.3137 123.0 0.00813 105.65385 105.65388
15.3511 15.3304 125.0 0.00800 105.67691 105.67695
15.3678 15.3471 122.0 0.00819 105.69998 105.70002
15.3845 15.3638 135.0 0.00741 105.72305 105.72309
15.4012 15.3805 108.0 0.00926 105.74612 105.74616
15.4180 15.3973 113.0 0.00885 105.76933 105.76937
15.4347 15.4140 128.0 0.00782 105.79240 105.79244
15.4514 15.4307 125.0 0.00800 105.81546 105.81551
15.4681 15.4474 106.0 0.00943 105.83853 105.83858
15.4848 15.4641 116.0 0.00862 105.86160 105.86166
15.5016 15.4809 122.0 0.00819 105.88480 105.88486
15.5183 15.4976 115.0 0.00870 105.90788 105.90793
15.5350 15.5143 117.0 0.00854 105.93094 105.93100
15.5517 15.5310 128.0 0.00782 105.95401 105.95407
15.5684 15.5477 117.0 0.00854 105.97708 105.97714
15.5852 15.5645 114.0 0.00877 106.00028 106.00035
15.6019 15.5812 114.0 0.00877 106.02335 106.02341
15.6186 15.5979 121.0 0.00826 106.04642 106.04649
15.6353 15.6146 133.0 0.00752 106.06949 106.06956
15.6520 15.6313 99.0 0.01010 106.09256 106.09263
15.6687 15.6480 110.0 0.00909 106.11562 106.11570
15.6855 15.6648 125.0 0.00800 106.13883 106.13891
15.7022 15.6815 121.0 0.00826 106.16190 106.16198
15.7189 15.6982 127.0 0.00787 106.18497 106.18504
15.7356 15.7149 122.0 0.00819 106.20804 106.20812
15.7523 15.7316 121.0 0.00826 106.23111 106.23119
15.7691 15.7484 111.0 0.00900 106.25431 106.25439
15.7858 15.7651 124.0 0.00806 106.27738 106.27747
15.8025 15.7818 125.0 0.00800 106.30045 106.30054
15.8192 15.7985 129.0 0.00775 106.32352 106.32361
15.8359 15.8152 107.0 0.00935 106.34659 106.34668
15.8527 15.8320 114.0 0.00877 106.36979 106.36989
15.8694 15.8487 125.0 0.00800 106.39286 106.39295
15.8861 15.8654 128.0 0.00782 106.41593 106.41602
15.9028 15.8821 134.0 0.00746 106.43900 106.43909
15.9195 15.8988 101.0 0.00990 106.46207 106.46217
15.9362 15.9155 128.0 0.00782 106.48513 106.48524
15.9530 15.9323 128.0 0.00782 106.50834 106.50845
15.9697 15.9490 121.0 0.00826 106.53141 106.53152
15.9864 15.9657 122.0 0.00819 106.55447 106.55458
16.0031 15.9824 107.0 0.00935 106.57755 106.57766
16.0198 15.9991 109.0 0.00917 106.60061 106.60072
16.0366 16.0159 120.0 0.00834 106.62382 106.62393
16.0533 16.0326 98.0 0.01021 106.64689 106.64700
16.0700 16.0493 113.0 0.00885 106.66995 106.67007
16.0867 16.0660 97.0 0.01031 106.69302 106.69314
16.1034 16.0827 113.0 0.00885 106.71609 106.71622
16.1202 16.0995 130.0 0.00769 106.73930 106.73943
16.1369 16.1162 109.0 0.00917 106.76237 106.76249
16.1536 16.1329 117.0 0.00854 106.78544 106.78556
16.1703 16.1496 109.0 0.00917 106.80850 106.80863
16.1870 16.1663 116.0 0.00862 106.83157 106.83170
16.2037 16.1830 112.0 0.00893 106.85464 106.85477
16.2205 16.1998 106.0 0.00943 106.87785 106.87798
16.2372 16.2165 119.0 0.00840 106.90092 106.90105
16.2539 16.2332 127.0 0.00787 106.92398 106.92412
16.2706 16.2499 103.0 0.00971 106.94705 106.94719
16.2873 16.2666 90.0 0.01111 106.97012 106.97026
16.3041 16.2834 86.0 0.01163 106.99332 106.99347
16.3208 16.3001 110.0 0.00909 107.01640 107.01654
16.3375 16.3168 116.0 0.00862 107.03946 107.03961
16.3542 16.3335 95.0 0.01053 107.06253 107.06268
16.3709 16.3502 100.0 0.01000 107.08560 107.08575
16.3877 16.3670 104.0 0.00961 107.10880 107.10896
16.4044 16.3837 109.0 0.00917 107.13187 107.13203
16.4211 16.4004 111.0 0.00900 107.15494 107.15510
16.4378 16.4171 95.0 0.01053 107.17801 107.17817
16.4545 16.4338 98.0 0.01021 107.20108 107.20124
16.4712 16.4505 102.0 0.00980 107.22414 107.22431
16.4880 16.4673 104.0 0.00961 107.24735 107.24752
16.5047 16.4840 96.0 0.01042 107.27042 107.27059
16.5214 16.5007 120.0 0.00834 107.29349 107.29366
16.5381 16.5174 98.0 0.01021 107.31656 107.31673
16.5548 16.5341 107.0 0.00935 107.33963 107.33980
16.5716 16.5509 113.0 0.00885 107.36283 107.36301
16.5883 16.5676 94.0 0.01064 107.38590 107.38608
16.6050 16.5843 104.0 0.00961 107.40897 107.40915
16.6217 16.6010 110.0 0.00909 107.43203 107.43221
16.6384 16.6177 98.0 0.01021 107.45511 107.45529
16.6552 16.6345 120.0 0.00834 107.47831 107.47849
16.6719 16.6512 106.0 0.00943 107.50138 107.50156
16.6886 16.6679 109.0 0.00917 107.52444 107.52464
16.7053 16.6846 114.0 0.00877 107.54752 107.54771
16.7220 16.7013 129.0 0.00775 107.57059 107.57078
16.7387 16.7180 127.0 0.00787 107.59365 107.59385
16.7555 16.7348 112.0 0.00893 107.61686 107.61706
16.7722 16.7515 103.0 0.00971 107.63993 107.64013
16.7889 16.7682 85.0 0.01176 107.66299 107.66319
16.8056 16.7849 104.0 0.00961 107.68607 107.68626
16.8223 16.8016 112.0 0.00893 107.70914 107.70934
16.8391 16.8184 104.0 0.00961 107.73234 107.73254
16.8558 16.8351 108.0 0.00926 107.75541 107.75562
16.8725 16.8518 104.0 0.00961 107.77847 107.77868
16.8892 16.8685 92.0 0.01087 107.80154 107.80175
16.9059 16.8852 108.0 0.00926 107.82462 107.82482
16.9227 16.9020 103.0 0.00971 107.84782 107.84803
16.9394 16.9187 109.0 0.00917 107.87089 107.87110
16.9561 16.9354 129.0 0.00775 107.89395 107.89417
16.9728 16.9521 113.0 0.00885 107.91702 107.91724
16.9895 16.9688 108.0 0.00926 107.94009 107.94032
17.0062 16.9855 82.0 0.01220 107.96316 107.96339
17.0230 17.0023 124.0 0.00806 107.98637 107.98660
17.0397 17.0190 97.0 0.01031 108.00944 108.00967
17.0564 17.0357 105.0 0.00952 108.03250 108.03273
17.0731 17.0524 108.0 0.00926 108.05557 108.05580
17.0898 17.0691 85.0 0.01176 108.07864 108.07887
17.1066 17.0859 120.0 0.00834 108.10184 108.10208
17.1233 17.1026 132.0 0.00757 108.12492 108.12515
17.1400 17.1193 103.0 0.00971 108.14798 108.14822
17.1567 17.1360 107.0 0.00935 108.17105 108.17129
17.1734 17.1527 119.0 0.00840 108.19411 108.19436
17.1901 17.1694 111.0 0.00900 108.21719 108.21743
17.2069 17.1862 107.0 0.00935 108.24039 108.24064
17.2236 17.2029 115.0 0.00870 108.26346 108.26371
17.2403 17.2196 89.0 0.01124 108.28653 108.28678
17.2570 17.2363 101.0 0.00990 108.30959 108.30985
17.2737 17.2530 116.0 0.00862 108.33266 108.33292
17.2905 17.2698 85.0 0.01176 108.35587 108.35612
17.3072 17.2865 97.0 0.01031 108.37894 108.37920
17.3239 17.3032 107.0 0.00935 108.40201 108.40227
17.3406 17.3199 108.0 0.00926 108.42508 108.42534
17.3573 17.3366 120.0 0.00834 108.44814 108.44841
17.3741 17.3534 93.0 0.01075 108.47135 108.47162
17.3908 17.3701 103.0 0.00971 108.49442 108.49469
17.4075 17.3868 125.0 0.00800 108.51749 108.51775
17.4242 17.4035 114.0 0.00877 108.54056 108.54082
17.4409 17.4202 119.0 0.00840 108.56362 108.56390
17.4576 17.4369 104.0 0.00961 108.58669 108.58697
17.4744 17.4537 88.0 0.01136 108.60989 108.61018
17.4911 17.4704 103.0 0.00971 108.63297 108.63325
17.5078 17.4871 106.0 0.00943 108.65604 108.65632
17.5245 17.5038 109.0 0.00917 108.67910 108.67938
17.5412 17.5205 100.0 0.01000 108.70217 108.70245
17.5580 17.5373 95.0 0.01053 108.72538 108.72566
17.5747 17.5540 103.0 0.00971 108.74845 108.74873
17.5914 17.5707 106.0 0.00943 108.77151 108.77180
17.6081 17.5874 107.0 0.00935 108.79459 108.79488
17.6248 17.6041 111.0 0.00900 108.81765 108.81795
17.6416 17.6209 100.0 0.01000 108.84086 108.84116
17.6583 17.6376 93.0 0.01075 108.86392 108.86423
17.6750 17.6543 88.0 0.01136 108.88699 108.88729
17.6917 17.6710 101.0 0.00990 108.91006 108.91036
17.7084 17.6877 105.0 0.00952 108.93313 108.93343
17.7251 17.7044 100.0 0.01000 108.95620 108.95650
17.7419 17.7212 112.0 0.00893 108.97940 108.97971
17.7586 17.7379 114.0 0.00877 109.00247 109.00278
17.7753 17.7546 104.0 0.00961 109.02554 109.02586
17.7920 17.7713 105.0 0.00952 109.04861 109.04892
17.8087 17.7880 98.0 0.01021 109.07168 109.07199
17.8255 17.8048 104.0 0.00961 109.09489 109.09520
17.8422 17.8215 101.0 0.00990 109.11795 109.11827
17.8589 17.8382 113.0 0.00885 109.14102 109.14134
17.8756 17.8549 110.0 0.00909 109.16409 109.16441
17.8923 17.8716 108.0 0.00926 109.18716 109.18748
17.9091 17.8884 104.0 0.00961 109.21037 109.21069
17.9258 17.9051 106.0 0.00943 109.23343 109.23376
17.9425 17.9218 111.0 0.00900 109.25650 109.25683
17.9592 17.9385 101.0 0.00990 109.27957 109.27990
17.9759 17.9552 98.0 0.01021 109.30264 109.30297
17.9926 17.9719 109.0 0.00917 109.32571 109.32604
18.0094 17.9887 97.0 0.01031 109.34891 109.34925
18.0261 18.0054 106.0 0.00943 109.37198 109.37232
18.0428 18.0221 104.0 0.00961 109.39505 109.39539
18.0595 18.0388 104.0 0.00961 109.41812 109.41846
18.0762 18.0555 101.0 0.00990 109.44118 109.44153
18.0930 18.0723 108.0 0.00926 109.46439 109.46474
18.1097 18.0890 98.0 0.01021 109.48746 109.48781
18.1264 18.1057 92.0 0.01087 109.51052 109.51087
18.1431 18.1224 112.0 0.00893 109.53360 109.53395
18.1598 18.1391 113.0 0.00885 109.55666 109.55702
18.1766 18.1559 112.0 0.00893 109.57987 109.58022
18.1933 18.1726 107.0 0.00935 109.60294 109.60329
18.2100 18.1893 118.0 0.00848 109.62601 109.62637
18.2267 18.2060 107.0 0.00935 109.64908 109.64944
18.2434 18.2227 105.0 0.00952 109.67214 109.67251
18.2601 18.2394 109.0 0.00917 109.69521 109.69558
18.2769 18.2562 99.0 0.01010 109.71841 109.71879
18.2936 18.2729 98.0 0.01021 109.74149 109.74186
18.3103 18.2896 117.0 0.00854 109.76456 109.76492
18.3270 18.3063 94.0 0.01064 109.78763 109.78799
18.3437 18.3230 113.0 0.00885 109.81069 109.81107
18.3605 18.3398 97.0 0.01031 109.83390 109.83427
18.3772 18.3565 98.0 0.01021 109.85696 109.85735
18.3939 18.3732 97.0 0.01031 109.88003 109.88041
18.4106 18.3899 95.0 0.01053 109.90310 109.90349
18.4273 18.4066 110.0 0.00909 109.92617 109.92656
18.4441 18.4234 108.0 0.00926 109.94938 109.94976
18.4608 18.4401 93.0 0.01075 109.97244 109.97283
18.4775 18.4568 105.0 0.00952 109.99551 109.99590
18.4942 18.4735 95.0 0.01053 110.01858 110.01897
18.5109 18.4902 99.0 0.01010 110.04165 110.04205
18.5276 18.5069 95.0 0.01053 110.06472 110.06511
18.5444 18.5237 114.0 0.00877 110.08792 110.08832
18.5611 18.5404 97.0 0.01031 110.11099 110.11140
18.5778 18.5571 106.0 0.00943 110.13406 110.13446
18.5945 18.5738 115.0 0.00870 110.15713 110.15753
18.6112 18.5905 101.0 0.00990 110.18020 110.18060
18.6280 18.6073 115.0 0.00870 110.20341 110.20381
18.6447 18.6240 119.0 0.00840 110.22647 110.22688
18.6614 18.6407 99.0 0.01010 110.24954 110.24995
18.6781 18.6574 122.0 0.00819 110.27261 110.27303
18.6948 18.6741 132.0 0.00757 110.29568 110.29610
18.7116 18.6909 115.0 0.00870 110.31889 110.31930
18.7283 18.7076 114.0 0.00877 110.34195 110.34237
18.7450 18.7243 103.0 0.00971 110.36502 110.36544
18.7617 18.7410 89.0 0.01124 110.38808 110.38851
18.7784 18.7577 117.0 0.00854 110.41116 110.41158
18.7951 18.7744 100.0 0.01000 110.43423 110.43465
18.8119 18.7912 94.0 0.01064 110.45743 110.45786
18.8286 18.8079 103.0 0.00971 110.48050 110.48093
18.8453 18.8246 95.0 0.01053 110.50357 110.50400
18.8620 18.8413 118.0 0.00848 110.52663 110.52707
18.8787 18.8580 112.0 0.00893 110.54971 110.55014
18.8955 18.8748 108.0 0.00926 110.57291 110.57335
18.9122 18.8915 89.0 0.01124 110.59598 110.59642
18.9289 18.9082 111.0 0.00900 110.61905 110.61948
18.9456 18.9249 99.0 0.01010 110.64211 110.64256
18.9623 18.9416 92.0 0.01087 110.66518 110.66563
18.9791 18.9584 111.0 0.00900 110.68839 110.68884
18.9958 18.9751 105.0 0.00952 110.71146 110.71191
19.0125 18.9918 92.0 0.01087 110.73453 110.73498
19.0292 19.0085 95.0 0.01053 110.75759 110.75805
19.0459 19.0252 100.0 0.01000 110.78066 110.78112
19.0626 19.0419 114.0 0.00877 110.80373 110.80418
19.0794 19.0587 121.0 0.00826 110.82693 110.82739
19.0961 19.0754 88.0 0.01136 110.85001 110.85047
19.1128 19.0921 116.0 0.00862 110.87308 110.87354
19.1295 19.1088 113.0 0.00885 110.89614 110.89661
19.1462 19.1255 105.0 0.00952 110.91921 110.91968
19.1630 19.1423 98.0 0.01021 110.94241 110.94289
19.1797 19.1590 91.0 0.01099 110.96548 110.96596
19.1964 19.1757 82.0 0.01220 110.98856 110.98902
19.2131 19.1924 99.0 0.01010 111.01162 111.01209
19.2298 19.2091 122.0 0.00819 111.03469 111.03516
19.2465 19.2258 109.0 0.00917 111.05776 111.05824
19.2633 19.2426 103.0 0.00971 111.08096 111.08144
19.2800 19.2593 106.0 0.00943 111.10403 111.10452
19.2967 19.2760 99.0 0.01010 111.12710 111.12759
19.3134 19.2927 98.0 0.01021 111.15017 111.15066
19.3301 19.3094 111.0 0.00900 111.17324 111.17372
19.3469 19.3262 108.0 0.00926 111.19644 111.19693
19.3636 19.3429 134.0 0.00746 111.21951 111.22000
19.3803 19.3596 115.0 0.00870 111.24258 111.24307
19.3970 19.3763 98.0 0.01021 111.26565 111.26614
19.4137 19.3930 118.0 0.00848 111.28872 111.28922
19.4305 19.4098 106.0 0.00943 111.31192 111.31242
19.4472 19.4265 70.0 0.01428 111.33499 111.33549
19.4639 19.4432 90.0 0.01111 111.35806 111.35856
19.4806 19.4599 115.0 0.00870 111.38113 111.38163
19.4973 19.4766 115.0 0.00870 111.40420 111.40470
19.5140 19.4933 110.0 0.00909 111.42727 111.42777
19.5308 19.5101 119.0 0.00840 111.45047 111.45098
19.5475 19.5268 93.0 0.01075 111.47354 111.47405
19.5642 19.5435 126.0 0.00794 111.49660 111.49712
19.5809 19.5602 109.0 0.00917 111.51968 111.52019
19.5976 19.5769 100.0 0.01000 111.54275 111.54326
19.6144 19.5937 87.0 0.01150 111.56595 111.56647
19.6311 19.6104 112.0 0.00893 111.58902 111.58954
19.6478 19.6271 103.0 0.00971 111.61209 111.61261
19.6645 19.6438 115.0 0.00870 111.63515 111.63568
19.6812 19.6605 104.0 0.00961 111.65823 111.65875
19.6980 19.6773 120.0 0.00834 111.68143 111.68196
19.7147 19.6940 114.0 0.00877 111.70450 111.70503
19.7314 19.7107 116.0 0.00862 111.72756 111.72810
19.7481 19.7274 118.0 0.00848 111.75063 111.75117
19.7648 19.7441 104.0 0.00961 111.77370 111.77424
19.7815 19.7608 114.0 0.00877 111.79678 111.79731
19.7983 19.7776 113.0 0.00885 111.81998 111.82052
19.8150 19.7943 108.0 0.00926 111.84305 111.84359
19.8317 19.8110 112.0 0.00893 111.86611 111.86665
19.8484 19.8277 102.0 0.00980 111.88918 111.88972
19.8651 19.8444 101.0 0.00990 111.91225 111.91280
19.8819 19.8612 118.0 0.00848 111.93546 111.93600
19.8986 19.8779 93.0 0.01075 111.95853 111.95908
19.9153 19.8946 116.0 0.00862 111.98159 111.98215
19.9320 19.9113 124.0 0.00806 112.00466 112.00521
19.9487 19.9280 109.0 0.00917 112.02773 112.02829
19.9655 19.9448 127.0 0.00787 112.05093 112.05149
19.9822 19.9615 99.0 0.01010 112.07401 112.07456
19.9989 19.9782 117.0 0.00854 112.09707 112.09763
20.0156 19.9949 93.0 0.01075 112.12014 112.12070
20.0323 20.0116 103.0 0.00971 112.14321 112.14378
20.0490 20.0283 108.0 0.00926 112.16628 115.31120
20.0658 20.0451 114.0 0.00877 112.18948 115.38881
20.0825 20.0618 116.0 0.00862 112.21255 115.46738
20.0992 20.0785 117.0 0.00854 112.23562 119.32214
20.1159 20.0952 129.0 0.00775 112.25869 119.46899
20.1326 20.1119 92.0 0.01087 112.28176 119.61909
20.1494 20.1287 125.0 0.00800 112.30496 119.77350
20.1661 20.1454 104.0 0.00961 112.32803 119.93053
20.1828 20.1621 116.0 0.00862 112.35110 120.09118
20.1995 20.1788 110.0 0.00909 112.37417 120.25558
20.2162 20.1955 110.0 0.00909 112.39724 120.42393
20.2330 20.2123 104.0 0.00961 112.42044 120.59734
20.2497 20.2290 116.0 0.00862 112.44351 120.77396
20.2664 20.2457 123.0 0.00813 112.46658 120.95490
20.2831 20.2624 112.0 0.00893 112.48965 121.14043
20.2998 20.2791 102.0 0.00980 112.51272 121.33064
20.3165 20.2958 109.0 0.00917 112.53579 121.52574
20.3333 20.3126 97.0 0.01031 112.55899 121.72712
20.3500 20.3293 126.0 0.00794 112.58206 121.93259
20.3667 20.3460 119.0 0.00840 112.60513 122.14358
20.3834 20.3627 112.0 0.00893 112.62820 122.36031
20.4001 20.3794 117.0 0.00854 112.65127 122.58296
20.4169 20.3962 103.0 0.00971 112.67447 122.81321
20.4336 20.4129 125.0 0.00800 112.69754 123.04859
20.4503 20.4296 120.0 0.00834 112.72060 123.29067
20.4670 20.4463 128.0 0.00782 112.74368 123.53978
20.4837 20.4630 122.0 0.00819 112.76675 123.79625
20.5005 20.4798 111.0 0.00900 112.78995 124.06193
20.5172 20.4965 140.0 0.00715 112.81301 124.33400
20.5339 20.5132 119.0 0.00840 112.83609 124.61452
20.5506 20.5299 110.0 0.00909 112.85915 124.90369
20.5673 20.5466 124.0 0.00806 112.88222 125.20197
20.5840 20.5633 119.0 0.00840 112.90529 125.50979
20.6008 20.5801 133.0 0.00752 112.92850 125.82957
20.6175 20.5968 133.0 0.00752 112.95157 126.15788
20.6342 20.6135 127.0 0.00787 112.97463 126.49720
20.6509 20.6302 128.0 0.00782 112.99770 126.84795
20.6676 20.6469 129.0 0.00775 113.02077 127.21070
20.6844 20.6637 132.0 0.00757 113.04398 127.58851
20.7011 20.6804 116.0 0.00862 113.06705 127.97737
20.7178 20.6971 122.0 0.00819 113.09011 128.38014
20.7345 20.7138 132.0 0.00757 113.11317 128.79753
20.7512 20.7305 116.0 0.00862 113.13625 129.23056
20.7680 20.7473 106.0 0.00943 113.15945 129.68246
20.7847 20.7640 96.0 0.01042 113.18252 130.14877
20.8014 20.7807 130.0 0.00769 113.20560 130.63339
20.8181 20.7974 130.0 0.00769 113.22866 131.13692
20.8348 20.8141 132.0 0.00757 113.25173 131.66058
20.8515 20.8308 114.0 0.00877 113.27480 132.20549
20.8683 20.8476 97.0 0.01031 113.29800 132.77646
20.8850 20.8643 122.0 0.00819 113.32108 133.36778
20.9017 20.8810 131.0 0.00763 113.34414 133.98444
20.9184 20.8977 126.0 0.00794 113.36721 134.62772
20.9351 20.9144 113.0 0.00885 113.39027 135.29922
20.9519 20.9312 137.0 0.00731 113.41348 136.00536
20.9686 20.9479 143.0 0.00699 113.43655 136.73938
20.9853 20.9646 132.0 0.00757 113.45962 137.50731
21.0020 20.9813 147.0 0.00681 113.48268 138.31139
21.0187 20.9980 121.0 0.00826 113.50576 139.15445
21.0355 21.0148 143.0 0.00699 113.52896 140.04393
21.0522 21.0315 142.0 0.00704 113.55202 140.97212
21.0689 21.0482 144.0 0.00694 113.57510 141.94783
21.0856 21.0649 133.0 0.00752 113.59817 142.97368
21.1023 21.0816 127.0 0.00787 113.62124 144.05354
21.1190 21.0983 142.0 0.00704 113.64430 145.19138
21.1358 21.1151 135.0 0.00741 113.66751 146.39906
21.1525 21.1318 145.0 0.00690 113.69058 147.66658
21.1692 21.1485 146.0 0.00685 113.71365 149.00652
21.1859 21.1652 158.0 0.00633 113.73672 150.42413
21.2026 21.1819 141.0 0.00710 113.75978 151.92564
21.2194 21.1987 141.0 0.00710 113.78299 153.52849
21.2361 21.2154 162.0 0.00617 113.80606 155.22076
21.2528 21.2321 149.0 0.00671 113.82912 157.01990
21.2695 21.2488 162.0 0.00617 113.85219 158.93520
21.2862 21.2655 151.0 0.00662 113.87527 160.97818
21.3029 21.2822 154.0 0.00649 113.89833 163.15900
21.3197 21.2990 178.0 0.00562 113.92153 165.50517
21.3364 21.3157 158.0 0.00633 113.94460 168.00471
21.3531 21.3324 164.0 0.00609 113.96767 170.68556
21.3698 21.3491 173.0 0.00578 113.99075 173.56660
21.3865 21.3658 158.0 0.00633 114.01381 176.66843
21.4033 21.3826 183.0 0.00546 114.03702 180.03560
21.4200 21.3993 162.0 0.00617 114.06008 183.65356
21.4367 21.4160 179.0 0.00559 114.08315 187.57268
21.4534 21.4327 195.0 0.00513 114.10622 191.82616
21.4701 21.4494 188.0 0.00532 114.12929 196.45381
21.4869 21.4662 183.0 0.00546 114.15250 201.53331
21.5036 21.4829 179.0 0.00559 114.17557 207.05510
21.5203 21.4996 223.0 0.00449 114.19863 213.10950
21.5370 21.5163 232.0 0.00431 114.22169 219.76605
21.5537 21.5330 256.0 0.00391 114.24477 227.11151
21.5704 21.5497 215.0 0.00465 114.26784 235.23778
21.5872 21.5665 267.0 0.00375 114.29104 244.31732
21.6039 21.5832 246.0 0.00407 114.31411 254.38478
21.6206 21.5999 259.0 0.00386 114.33718 265.64764
21.6373 21.6166 263.0 0.00380 114.36025 278.30560
21.6540 21.6333 301.0 0.003322 114.38332 292.59854
21.6708 21.6501 322.0 0.003107 114.40652 308.93008
21.6875 21.6668 336.0 0.002976 114.42959 327.48181
21.7042 21.6835 387.0 0.002585 114.45266 348.85608
21.7209 21.7002 412.0 0.002427 114.47573 373.76642
21.7376 21.7169 450.0 0.002223 114.49879 403.32333
21.7544 21.7337 488.0 0.002049 114.52200 439.60468
21.7711 21.7504 543.0 0.001842 114.54507 485.35706
21.7878 21.7671 647.0 0.001545 114.56814 546.34277
21.8045 21.7838 808.0 0.001237 114.59120 632.11157
21.8212 21.8005 993.0 0.001007 114.61428 758.52527
21.8379 21.8172 1178.0 0.000849 114.63734 950.14740
21.8547 21.8340 1569.0 0.000637 114.66055 1244.93188
21.8714 21.8507 2020.0 0.000495 114.68362 1687.69543
21.8881 21.8674 2733.0 0.000366 114.70669 2336.99023
21.9048 21.8841 3486.0 0.0002869 114.72976 3252.35815
21.9215 21.9008 4741.0 0.0002110 114.75282 4481.55469
21.9383 21.9176 6013.0 0.0001663 114.77603 6051.65723
21.9550 21.9343 7786.0 0.0001284 114.79910 7905.50635
21.9717 21.9510 9578.0 0.0001044 114.82217 9939.27539
21.9884 21.9677 11510.0 0.0000869 114.84524 11956.78320
22.0051 21.9844 12892.0 0.0000776 114.86830 13695.70215
22.0219 22.0012 13912.0 0.0000719 114.89151 14880.52930
22.0386 22.0179 14343.0 0.0000697 114.91458 15276.59570
22.0553 22.0346 13748.0 0.0000727 114.93764 14805.72949
22.0720 22.0513 12473.0 0.0000801 114.96071 13542.50391
22.0887 22.0680 10819.0 0.0000925 114.98379 11711.23828
22.1054 22.0847 8864.0 0.0001128 115.00685 9615.46484
22.1222 22.1015 6792.0 0.0001472 115.03005 7522.14063
22.1389 22.1182 5054.0 0.0001979 115.05312 5655.05713
22.1556 22.1349 3805.0 0.0002629 115.07619 4111.72803
22.1723 22.1516 2723.0 0.000367 115.09926 2922.60938
22.1890 22.1683 1923.0 0.000520 115.12233 2062.14795
22.2058 22.1851 1400.0 0.000714 115.14554 1469.61133
22.2225 22.2018 1098.0 0.000911 115.16860 1083.78723
22.2392 22.2185 893.0 0.001120 115.19167 837.44000
22.2559 22.2352 738.0 0.001355 115.21474 680.90540
22.2726 22.2519 613.0 0.001631 115.23781 579.09253
22.2894 22.2687 525.0 0.001905 115.26102 509.17154
22.3061 22.2854 465.0 0.002151 115.28409 458.60840
22.3228 22.3021 428.0 0.002336 115.30715 419.44656
22.3395 22.3188 428.0 0.002336 115.33022 387.64352
22.3562 22.3355 379.0 0.002638 115.35329 360.96957
22.3729 22.3522 340.0 0.002941 115.37636 338.17007
22.3897 22.3690 301.0 0.003322 115.39956 318.32675
22.4064 22.3857 297.0 0.003368 115.42263 301.10779
22.4231 22.4024 305.0 0.003280 115.44570 285.98474
22.4398 22.4191 276.0 0.00362 115.46877 272.62674
22.4565 22.4358 274.0 0.00365 115.49184 260.77118
22.4733 22.4526 262.0 0.00382 115.51505 250.14146
22.4900 22.4693 224.0 0.00446 115.53811 240.68849
22.5067 22.4860 269.0 0.00372 115.56118 232.19405
22.5234 22.5027 244.0 0.00410 115.58425 224.53612
22.5401 22.5194 214.0 0.00467 115.60732 217.60829
22.5569 22.5362 190.0 0.00527 115.63052 211.28465
22.5736 22.5529 221.0 0.00452 115.65359 205.56598
22.5903 22.5696 220.0 0.00455 115.67666 200.34674
22.6070 22.5863 211.0 0.00474 115.69972 195.57156
22.6237 22.6030 208.0 0.00481 115.72279 191.18945
22.6404 22.6197 170.0 0.00588 115.74586 187.16164
22.6572 22.6365 162.0 0.00617 115.76907 183.42940
22.6739 22.6532 186.0 0.00537 115.79214 180.00299
22.6906 22.6699 185.0 0.00541 115.81521 176.83383
22.7073 22.6866 171.0 0.00585 115.83827 173.89615
22.7240 22.7033 183.0 0.00546 115.86134 171.16820
22.7408 22.7201 159.0 0.00629 115.88455 168.61565
22.7575 22.7368 170.0 0.00588 115.90762 166.25243
22.7742 22.7535 147.0 0.00681 115.93069 164.04688
22.7909 22.7702 177.0 0.00565 115.95376 161.98601
22.8076 22.7869 149.0 0.00671 115.97682 160.05731
22.8244 22.8037 151.0 0.00662 116.00003 158.23915
22.8411 22.8204 175.0 0.00571 116.02309 156.54382
22.8578 22.8371 178.0 0.00562 116.04617 154.95105
22.8745 22.8538 141.0 0.00710 116.06923 153.45305
22.8912 22.8705 155.0 0.00645 116.09230 152.04176
22.9079 22.8872 150.0 0.00666 116.11537 150.71169
22.9247 22.9040 126.0 0.00794 116.13857 149.44934
22.9414 22.9207 127.0 0.00787 116.16164 148.26361
22.9581 22.9374 139.0 0.00719 116.18472 147.14272
22.9748 22.9541 132.0 0.00757 116.20778 146.08180
22.9915 22.9708 153.0 0.00654 116.23085 145.07674
23.0083 22.9876 145.0 0.00690 116.25406 144.11807
23.0250 23.0043 123.0 0.00813 116.27712 143.21404
23.0417 23.0210 134.0 0.00746 116.30019 142.35535
23.0584 23.0377 138.0 0.00724 116.32327 141.53929
23.0751 23.0544 120.0 0.00834 116.34633 140.76308
23.0919 23.0712 142.0 0.00704 116.36954 140.01981
23.1086 23.0879 114.0 0.00877 116.39260 139.31624
23.1253 23.1046 140.0 0.00715 116.41567 138.64561
23.1420 23.1213 95.0 0.01053 116.43874 138.00606
23.1587 23.1380 140.0 0.00715 116.46181 137.39540
23.1754 23.1547 121.0 0.00826 116.48488 136.81239
23.1922 23.1715 156.0 0.00641 116.50808 136.25215
23.2089 23.1882 133.0 0.00752 116.53115 135.71951
23.2256 23.2049 142.0 0.00704 116.55422 135.21014
23.2423 23.2216 133.0 0.00752 116.57729 134.72261
23.2590 23.2383 123.0 0.00813 116.60036 134.25574
23.2758 23.2551 130.0 0.00769 116.62357 133.80574
23.2925 23.2718 125.0 0.00800 116.64663 133.37706
23.3092 23.2885 138.0 0.00724 116.66970 132.96591
23.3259 23.3052 128.0 0.00782 116.69277 132.57147
23.3426 23.3219 153.0 0.00654 116.71584 132.19293
23.3593 23.3386 99.0 0.01010 116.73891 131.82927
23.3761 23.3554 141.0 0.00710 116.76211 131.47795
23.3928 23.3721 88.0 0.01136 116.78518 131.14236
23.4095 23.3888 134.0 0.00746 116.80824 130.81978
23.4262 23.4055 123.0 0.00813 116.83131 130.50938
23.4429 23.4222 142.0 0.00704 116.85439 130.21083
23.4597 23.4390 123.0 0.00813 116.87759 129.92183
23.4764 23.4557 115.0 0.00870 116.90066 129.64516
23.4931 23.4724 102.0 0.00980 116.92373 129.37877
23.5098 23.4891 129.0 0.00775 116.94679 129.12212
23.5265 23.5058 139.0 0.00719 116.96986 128.87479
23.5433 23.5226 114.0 0.00877 116.99307 128.63492
23.5600 23.5393 120.0 0.00834 117.01614 128.40504
23.5767 23.5560 115.0 0.00870 117.03921 128.18332
23.5934 23.5727 126.0 0.00794 117.06227 127.96940
23.6101 23.5894 131.0 0.00763 117.08534 127.76300
23.6268 23.6061 111.0 0.00900 117.10841 127.56367
23.6436 23.6229 120.0 0.00834 117.13161 127.37014
23.6603 23.6396 110.0 0.00909 117.15469 127.18437
23.6770 23.6563 119.0 0.00840 117.17775 127.00495
23.6937 23.6730 119.0 0.00840 117.20082 126.83152
23.7104 23.6897 120.0 0.00834 117.22389 126.66398
23.7272 23.7065 124.0 0.00806 117.24709 126.50111
23.7439 23.7232 123.0 0.00813 117.27016 126.34453
23.7606 23.7399 105.0 0.00952 117.29324 126.19318
23.7773 23.7566 109.0 0.00917 117.31630 126.04680
23.7940 23.7733 112.0 0.00893 117.33937 125.90522
23.8108 23.7901 121.0 0.00826 117.36258 125.76743
23.8275 23.8068 123.0 0.00813 117.38564 125.63492
23.8442 23.8235 96.0 0.01042 117.40871 125.50668
23.8609 23.8402 127.0 0.00787 117.43178 125.38258
23.8776 23.8569 107.0 0.00935 117.45484 125.26247
23.8943 23.8736 123.0 0.00813 117.43977 125.10799
23.9111 23.8904 120.0 0.00834 117.41064 124.94240
23.9278 23.9071 108.0 0.00926 117.38169 124.78137
23.9445 23.9238 108.0 0.00926 117.35275 124.62382
23.9612 23.9405 124.0 0.00806 117.32378 124.46951
23.9779 23.9572 107.0 0.00935 117.29484 121.17732
23.9947 23.9740 100.0 0.01000 117.26572 121.08146
24.0114 23.9907 117.0 0.00854 117.23676 117.23774
24.0281 24.0074 137.0 0.00731 117.20781 117.20879
24.0448 24.0241 125.0 0.00800 117.17886 117.17984
24.0615 24.0408 94.0 0.01064 117.14991 117.15089
24.0783 24.0576 118.0 0.00848 117.12078 117.12176
24.0950 24.0743 92.0 0.01087 117.09184 117.09281
24.1117 24.0910 140.0 0.00715 117.06288 117.06385
24.1284 24.1077 105.0 0.00952 117.03393 117.03490
24.1451 24.1244 109.0 0.00917 117.00498 117.00595
24.1618 24.1411 133.0 0.00752 116.97602 116.97699
24.1786 24.1579 126.0 0.00794 116.94690 116.94787
24.1953 24.1746 114.0 0.00877 116.91795 116.91891
24.2120 24.1913 113.0 0.00885 116.88901 116.88997
24.2287 24.2080 113.0 0.00885 116.86005 116.86101
24.2454 24.2247 102.0 0.00980 116.83110 116.83206
24.2622 24.2415 115.0 0.00870 116.80198 116.80293
24.2789 24.2582 133.0 0.00752 116.77302 116.77397
24.2956 24.2749 128.0 0.00782 116.74407 116.74503
24.3123 24.2916 113.0 0.00885 116.71512 116.71607
24.3290 24.3083 121.0 0.00826 116.68617 116.68712
24.3458 24.3251 124.0 0.00806 116.65704 116.65799
24.3625 24.3418 130.0 0.00769 116.62810 116.62904
24.3792 24.3585 108.0 0.00926 116.59914 116.60008
24.3959 24.3752 93.0 0.01075 116.57019 116.57113
24.4126 24.3919 106.0 0.00943 116.54124 116.54218
24.4293 24.4086 116.0 0.00862 116.51228 116.51322
24.4461 24.4254 127.0 0.00787 116.48316 116.48410
24.4628 24.4421 103.0 0.00971 116.45421 116.45515
24.4795 24.4588 118.0 0.00848 116.42526 116.42620
24.4962 24.4755 121.0 0.00826 116.39631 116.39724
24.5129 24.4922 122.0 0.00819 116.36736 116.36829
24.5297 24.5090 118.0 0.00848 116.33824 116.33916
24.5464 24.5257 89.0 0.01124 116.30928 116.31020
24.5631 24.5424 110.0 0.00909 116.28033 116.28126
24.5798 24.5591 109.0 0.00917 116.25138 116.25230
24.5965 24.5758 110.0 0.00909 116.22243 116.22335
24.6133 24.5926 115.0 0.00870 116.19331 116.19422
24.6300 24.6093 106.0 0.00943 116.16436 116.16528
24.6467 24.6260 92.0 0.01087 116.13540 116.13631
24.6634 24.6427 113.0 0.00885 116.10645 116.10736
24.6801 24.6594 110.0 0.00909 116.07751 116.07841
24.6968 24.6761 123.0 0.00813 116.04855 116.04945
24.7136 24.6929 114.0 0.00877 116.01942 116.02033
24.7303 24.7096 118.0 0.00848 115.99047 115.99138
24.7470 24.7263 119.0 0.00840 115.96152 115.96243
24.7637 24.7430 111.0 0.00900 115.93257 115.93347
24.7804 24.7597 120.0 0.00834 115.90362 115.90452
24.7972 24.7765 128.0 0.00782 115.87450 115.87540
24.8139 24.7932 108.0 0.00926 115.84554 115.84644
24.8306 24.8099 130.0 0.00769 115.81660 115.81749
24.8473 24.8266 126.0 0.00794 115.78764 115.78854
24.8640 24.8433 122.0 0.00819 115.75870 115.75958
24.8808 24.8601 131.0 0.00763 115.72957 115.73045
24.8975 24.8768 121.0 0.00826 115.70061 115.70150
24.9142 24.8935 125.0 0.00800 115.67166 115.67255
24.9309 24.9102 123.0 0.00813 115.64272 115.64359
24.9476 24.9269 131.0 0.00763 115.61377 115.61465
24.9643 24.9436 127.0 0.00787 115.58481 115.58569
24.9811 24.9604 146.0 0.00685 115.55569 115.55656
24.9978 24.9771 132.0 0.00757 115.52674 115.52762
25.0145 24.9938 130.0 0.00769 115.49778 115.49866
25.0312 25.0105 128.0 0.00782 115.46883 115.46970
25.0479 25.0272 135.0 0.00741 115.43988 115.44075
25.0647 25.0440 134.0 0.00746 115.41077 115.41163
25.0814 25.0607 120.0 0.00834 115.38181 115.38267
25.0981 25.0774 151.0 0.00662 115.35285 115.35371
25.1148 25.0941 128.0 0.00782 115.32391 115.32477
25.1315 25.1108 139.0 0.00719 115.29496 115.29581
25.1483 25.1276 101.0 0.00990 115.26583 115.26669
25.1650 25.1443 118.0 0.00848 115.23688 115.23773
25.1817 25.1610 118.0 0.00848 115.20792 115.20878
25.1984 25.1777 125.0 0.00800 115.17898 115.17982
25.2151 25.1944 130.0 0.00769 115.15003 115.15088
25.2318 25.2111 156.0 0.00641 115.12107 115.12192
25.2486 25.2279 132.0 0.00757 115.09195 115.09279
25.2653 25.2446 144.0 0.00694 115.06300 115.06384
25.2820 25.2613 116.0 0.00862 115.03405 115.03489
25.2987 25.2780 148.0 0.00675 115.00510 115.00594
25.3154 25.2947 142.0 0.00704 114.97614 114.97698
25.3322 25.3115 124.0 0.00806 114.94702 114.94786
25.3489 25.3282 137.0 0.00731 114.91807 114.91890
25.3656 25.3449 139.0 0.00719 114.88911 114.88995
25.3823 25.3616 107.0 0.00935 114.86017 114.86100
25.3990 25.3783 144.0 0.00694 114.83121 114.83205
25.4158 25.3951 118.0 0.00848 114.80209 114.80292
25.4325 25.4118 120.0 0.00834 114.77314 114.77396
25.4492 25.4285 119.0 0.00840 114.74419 114.74501
25.4659 25.4452 127.0 0.00787 114.71523 114.71606
25.4826 25.4619 126.0 0.00794 114.68629 114.68711
25.4993 25.4786 114.0 0.00877 114.65733 114.65815
25.5161 25.4954 124.0 0.00806 114.62820 114.62902
25.5328 25.5121 129.0 0.00775 114.59926 114.60007
25.5495 25.5288 140.0 0.00715 114.57030 114.57111
25.5662 25.5455 132.0 0.00757 114.54136 114.54217
25.5829 25.5622 131.0 0.00763 114.51241 114.51321
25.5997 25.5790 125.0 0.00800 114.48328 114.48409
25.6164 25.5957 117.0 0.00854 114.45433 114.45513
25.6331 25.6124 109.0 0.00917 114.42538 114.42618
25.6498 25.6291 136.0 0.00736 114.39643 114.39723
25.6665 25.6458 123.0 0.00813 114.36747 114.36827
25.6832 25.6625 124.0 0.00806 114.33852 114.33932
25.7000 25.6793 135.0 0.00741 114.30940 114.31020
25.7167 25.6960 124.0 0.00806 114.28045 114.28124
25.7334 25.7127 109.0 0.00917 114.25150 114.25229
25.7501 25.7294 134.0 0.00746 114.22255 114.22334
25.7668 25.7461 117.0 0.00854 114.19360 114.19438
25.7836 25.7629 137.0 0.00731 114.16447 114.16525
25.8003 25.7796 116.0 0.00862 114.13552 114.13630
25.8170 25.7963 120.0 0.00834 114.10658 114.10735
25.8337 25.8130 122.0 0.00819 114.07761 114.07839
25.8504 25.8297 129.0 0.00775 114.04867 114.04945
25.8672 25.8465 135.0 0.00741 114.01955 114.02032
25.8839 25.8632 124.0 0.00806 113.99059 113.99136
25.9006 25.8799 111.0 0.00900 113.96164 113.96241
25.9173 25.8966 122.0 0.00819 113.93269 113.93346
25.9340 25.9133 138.0 0.00724 113.90373 113.90450
25.9507 25.9300 115.0 0.00870 113.87479 113.87556
25.9675 25.9468 123.0 0.00813 113.84566 113.84643
25.9842 25.9635 125.0 0.00800 113.81671 113.81747
26.0009 25.9802 112.0 0.00893 113.78776 113.78852
26.0176 25.9969 113.0 0.00885 113.75881 113.75957
26.0343 26.0136 117.0 0.00854 113.72985 113.73061
26.0511 26.0304 133.0 0.00752 113.70073 113.70148
26.0678 26.0471 129.0 0.00775 113.67178 113.67254
26.0845 26.0638 117.0 0.00854 113.64283 113.64358
26.1012 26.0805 103.0 0.00971 113.61388 113.61462
26.1179 26.0972 131.0 0.00763 113.58493 113.58568
26.1347 26.1140 133.0 0.00752 113.55581 113.55656
26.1514 26.1307 120.0 0.00834 113.52685 113.52760
26.1681 26.1474 132.0 0.00757 113.49790 113.49864
26.1848 26.1641 117.0 0.00854 113.46895 113.46969
26.2015 26.1808 117.0 0.00854 113.43999 113.44073
26.2182 26.1975 109.0 0.00917 113.41105 113.41179
26.2350 26.2143 118.0 0.00848 113.38192 113.38266
26.2517 26.2310 114.0 0.00877 113.35297 113.35370
26.2684 26.2477 110.0 0.00909 113.32402 113.32475
26.2851 26.2644 96.0 0.01042 113.29507 113.29581
26.3018 26.2811 111.0 0.00900 113.26611 113.26685
26.3186 26.2979 107.0 0.00935 113.23699 113.23772
26.3353 26.3146 118.0 0.00848 113.20805 113.20876
26.3520 26.3313 116.0 0.00862 113.17910 113.17982
26.3687 26.3480 109.0 0.00917 113.15014 113.15086
26.3854 26.3647 108.0 0.00926 113.12119 113.12190
26.4022 26.3815 128.0 0.00782 113.09207 113.09279
26.4189 26.3982 115.0 0.00870 113.06311 113.06383
26.4356 26.4149 88.0 0.01136 113.03416 113.03487
26.4523 26.4316 111.0 0.00900 113.00521 113.00592
26.4690 26.4483 113.0 0.00885 112.97626 112.97697
26.4857 26.4650 124.0 0.00806 112.94731 112.94802
26.5025 26.4818 89.0 0.01124 112.91818 112.91889
26.5192 26.4985 103.0 0.00971 112.88923 112.88993
26.5359 26.5152 104.0 0.00961 112.86028 112.86098
26.5526 26.5319 118.0 0.00848 112.83134 112.83203
26.5693 26.5486 135.0 0.00741 112.80238 112.80308
26.5861 26.5654 126.0 0.00794 112.77325 112.77395
26.6028 26.5821 119.0 0.00840 112.74431 112.74500
26.6195 26.5988 134.0 0.00746 112.71535 112.71604
26.6362 26.6155 103.0 0.00971 112.68640 112.68709
26.6529 26.6322 118.0 0.00848 112.65745 112.65813
26.6697 26.6490 125.0 0.00800 112.62833 112.62902
26.6864 26.6657 89.0 0.01124 112.59937 112.60006
26.7031 26.6824 123.0 0.00813 112.57043 112.57111
26.7198 26.6991 122.0 0.00819 112.54147 112.54215
26.7365 26.7158 115.0 0.00870 112.51252 112.51320
26.7532 26.7325 110.0 0.00909 112.48357 112.48425
26.7700 26.7493 107.0 0.00935 112.45444 112.45512
26.7867 26.7660 117.0 0.00854 112.42549 112.42616
26.8034 26.7827 131.0 0.00763 112.39655 112.39722
26.8201 26.7994 127.0 0.00787 112.36760 112.36826
26.8368 26.8161 93.0 0.01075 112.33864 112.33930
26.8536 26.8329 117.0 0.00854 112.30952 112.31018
26.8703 26.8496 117.0 0.00854 112.28056 112.28123
26.8870 26.8663 107.0 0.00935 112.25162 112.25228
26.9037 26.8830 130.0 0.00769 112.22266 112.22332
26.9204 26.8997 106.0 0.00943 112.19371 112.19437
26.9372 26.9165 138.0 0.00724 112.16460 112.16525
26.9539 26.9332 118.0 0.00848 112.13564 112.13629
26.9706 26.9499 107.0 0.00935 112.10668 112.10734
26.9873 26.9666 116.0 0.00862 112.07774 112.07838
27.0040 26.9833 120.0 0.00834 112.04878 112.04943
27.0207 27.0000 127.0 0.00787 112.01984 112.02048
27.0375 27.0168 119.0 0.00840 111.99071 111.99135
27.0542 27.0335 104.0 0.00961 111.96175 111.96239
27.0709 27.0502 111.0 0.00900 111.93281 111.93345
27.0876 27.0669 115.0 0.00870 111.90386 111.90450
27.1043 27.0836 124.0 0.00806 111.87490 111.87553
27.1211 27.1004 120.0 0.00834 111.84578 111.84641
27.1378 27.1171 142.0 0.00704 111.81683 111.81746
27.1545 27.1338 114.0 0.00877 111.78787 111.78851
27.1712 27.1505 114.0 0.00877 111.75892 111.75955
27.1879 27.1672 118.0 0.00848 111.72997 111.73060
27.2047 27.1840 121.0 0.00826 111.70086 111.70148
27.2214 27.2007 124.0 0.00806 111.67190 111.67252
27.2381 27.2174 124.0 0.00806 111.64294 111.64357
27.2548 27.2341 111.0 0.00900 111.61400 111.61462
27.2715 27.2508 117.0 0.00854 111.58504 111.58566
27.2882 27.2675 117.0 0.00854 111.55610 111.55671
27.3050 27.2843 116.0 0.00862 111.52697 111.52758
27.3217 27.3010 118.0 0.00848 111.49802 111.49863
27.3384 27.3177 131.0 0.00763 111.46906 111.46967
27.3551 27.3344 121.0 0.00826 111.44012 111.44073
27.3718 27.3511 117.0 0.00854 111.41116 111.41177
27.3886 27.3679 113.0 0.00885 111.38203 111.38264
27.4053 27.3846 125.0 0.00800 111.35309 111.35369
27.4220 27.4013 117.0 0.00854 111.32414 111.32475
27.4387 27.4180 101.0 0.00990 111.29518 111.29578
27.4554 27.4347 116.0 0.00862 111.26624 111.26683
27.4722 27.4515 135.0 0.00741 111.23711 111.23771
27.4889 27.4682 129.0 0.00775 111.20816 111.20875
27.5056 27.4849 127.0 0.00787 111.17921 111.17980
27.5223 27.5016 131.0 0.00763 111.15025 111.15085
27.5390 27.5183 140.0 0.00715 111.12131 111.12189
27.5557 27.5350 105.0 0.00952 111.09236 111.09294
27.5725 27.5518 148.0 0.00675 111.06323 111.06381
27.5892 27.5685 117.0 0.00854 111.03428 111.03486
27.6059 27.5852 124.0 0.00806 111.00533 111.00591
27.6226 27.6019 130.0 0.00769 110.97638 110.97696
27.6393 27.6186 120.0 0.00834 110.94743 110.94800
27.6561 27.6354 129.0 0.00775 110.91830 110.91888
27.6728 27.6521 140.0 0.00715 110.88935 110.88992
27.6895 27.6688 118.0 0.00848 110.86040 110.86096
27.7062 27.6855 141.0 0.00710 110.83144 110.83202
27.7229 27.7022 118.0 0.00848 110.80250 110.80306
27.7396 27.7189 114.0 0.00877 110.77354 110.77411
27.7564 27.7357 135.0 0.00741 110.74442 110.74498
27.7731 27.7524 136.0 0.00736 110.71547 110.71603
27.7898 27.7691 115.0 0.00870 110.68652 110.68707
27.8065 27.7858 118.0 0.00848 110.65756 110.65812
27.8232 27.8025 117.0 0.00854 110.62862 110.62917
27.8400 27.8193 111.0 0.00900 110.59949 110.60004
27.8567 27.8360 98.0 0.01021 110.57054 110.57109
27.8734 27.8527 134.0 0.00746 110.54159 110.54214
27.8901 27.8694 117.0 0.00854 110.51264 110.51319
27.9068 27.8861 145.0 0.00690 110.48369 110.48423
27.9236 27.9029 124.0 0.00806 110.45456 110.45511
27.9403 27.9196 132.0 0.00757 110.42561 110.42616
27.9570 27.9363 115.0 0.00870 110.39667 110.39721
27.9737 27.9530 135.0 0.00741 110.36771 110.36825
27.9904 27.9697 128.0 0.00782 110.33876 110.33929
28.0071 27.9864 107.0 0.00935 110.30981 110.31034
28.0239 28.0032 117.0 0.00854 110.28068 110.28121
28.0406 28.0199 133.0 0.00752 110.25173 110.25227
28.0573 28.0366 138.0 0.00724 110.22278 110.22330
28.0740 28.0533 111.0 0.00900 110.19382 110.19435
28.0907 28.0700 118.0 0.00848 110.16488 110.16541
28.1075 28.0868 111.0 0.00900 110.13575 110.13628
28.1242 28.1035 104.0 0.00961 110.10680 110.10732
28.1409 28.1202 126.0 0.00794 110.07785 110.07837
28.1576 28.1369 109.0 0.00917 110.04890 110.04942
28.1743 28.1536 137.0 0.00731 110.01995 110.02046
28.1911 28.1704 121.0 0.00826 109.99082 109.99133
28.2078 28.1871 125.0 0.00800 109.96188 109.96239
28.2245 28.2038 136.0 0.00736 109.93291 109.93343
28.2412 28.2205 119.0 0.00840 109.90397 109.90448
28.2579 28.2372 115.0 0.00870 109.87502 109.87553
28.2746 28.2539 111.0 0.00900 109.84607 109.84657
28.2914 28.2707 141.0 0.00710 109.81694 109.81744
28.3081 28.2874 118.0 0.00848 109.78799 109.78849
28.3248 28.3041 118.0 0.00848 109.75904 109.75954
28.3415 28.3208 127.0 0.00787 109.73009 109.73058
28.3582 28.3375 112.0 0.00893 109.70114 109.70164
28.3750 28.3543 141.0 0.00710 109.67201 109.67251
28.3917 28.3710 131.0 0.00763 109.64307 109.64355
28.4084 28.3877 122.0 0.00819 109.61411 109.61460
28.4251 28.4044 130.0 0.00769 109.58517 109.58566
28.4418 28.4211 108.0 0.00926 109.55621 109.55669
28.4586 28.4379 131.0 0.00763 109.52708 109.52757
28.4753 28.4546 157.0 0.00637 109.49814 109.49862
28.4920 28.4713 105.0 0.00952 109.46919 109.46967
28.5087 28.4880 143.0 0.00699 109.44023 109.44070
28.5254 28.5047 129.0 0.00775 109.41128 109.41176
28.5421 28.5214 117.0 0.00854 109.38233 109.38280
28.5589 28.5382 127.0 0.00787 109.35320 109.35368
28.5756 28.5549 132.0 0.00757 109.32426 109.32472
28.5923 28.5716 131.0 0.00763 109.29530 109.29577
28.6090 28.5883 121.0 0.00826 109.26635 109.26682
28.6257 28.6050 137.0 0.00731 109.23740 109.23787
28.6425 28.6218 121.0 0.00826 109.20827 109.20874
28.6592 28.6385 142.0 0.00704 109.17932 109.17978
28.6759 28.6552 122.0 0.00819 109.15038 109.15083
28.6926 28.6719 128.0 0.00782 109.12143 109.12188
28.7093 28.6886 121.0 0.00826 109.09247 109.09293
28.7261 28.7054 139.0 0.00719 109.06335 109.06380
28.7428 28.7221 145.0 0.00690 109.03440 120.02834
28.7595 28.7388 142.0 0.00704 109.00544 120.13980
28.7762 28.7555 143.0 0.00699 108.97649 120.25393
28.7929 28.7722 121.0 0.00826 108.94754 120.37085
28.8096 28.7889 119.0 0.00840 108.91859 120.49060
28.8264 28.8057 127.0 0.00787 108.88947 120.61404
28.8431 28.8224 139.0 0.00719 108.86051 120.73974
28.8598 28.8391 130.0 0.00769 108.83157 120.86851
28.8765 28.8558 139.0 0.00719 108.80261 121.00047
28.8932 28.8725 145.0 0.00690 108.77367 121.13564
28.9100 28.8893 166.0 0.00603 108.74454 121.27501
28.9267 28.9060 127.0 0.00787 108.71558 121.41698
28.9434 28.9227 156.0 0.00641 108.68663 121.56248
28.9601 28.9394 142.0 0.00704 108.65768 121.71155
28.9768 28.9561 122.0 0.00819 108.62873 121.86442
28.9936 28.9729 139.0 0.00719 108.59961 122.02200
29.0103 28.9896 142.0 0.00704 108.57066 122.18260
29.0270 29.0063 136.0 0.00736 108.54171 122.34721
29.0437 29.0230 136.0 0.00736 108.51276 122.51604
29.0604 29.0397 152.0 0.00658 108.48380 122.68913
29.0771 29.0564 126.0 0.00794 108.45486 122.86659
29.0939 29.0732 139.0 0.00719 108.42573 123.04973
29.1106 29.0899 140.0 0.00715 108.39677 123.23642
29.1273 29.1066 138.0 0.00724 108.36783 123.42792
29.1440 29.1233 132.0 0.00757 108.33887 123.62440
29.1607 29.1400 150.0 0.00666 108.30993 123.82591
29.1775 29.1568 152.0 0.00658 108.28080 124.03399
29.1942 29.1735 155.0 0.00645 108.25185 124.24625
29.2109 29.1902 148.0 0.00675 108.22289 124.46408
29.2276 29.2069 147.0 0.00681 108.19395 124.68761
29.2443 29.2236 129.0 0.00775 108.16499 124.91719
29.2611 29.2404 143.0 0.00699 108.13587 125.15424
29.2778 29.2571 133.0 0.00752 108.10693 125.39618
29.2945 29.2738 141.0 0.00710 108.07796 125.64474
29.3112 29.2905 147.0 0.00681 108.04901 125.89997
29.3279 29.3072 147.0 0.00681 108.02007 126.16215
29.3446 29.3239 145.0 0.00690 107.99112 126.43150
29.3614 29.3407 154.0 0.00649 107.96199 126.70998
29.3781 29.3574 143.0 0.00699 107.93304 126.99445
29.3948 29.3741 131.0 0.00763 107.90409 151.60385
29.4115 29.3908 114.0 0.00877 107.87514 152.32410
29.4282 29.4075 139.0 0.00719 107.84619 153.06355
29.4450 29.4243 153.0 0.00654 107.81706 153.82791
29.4617 29.4410 170.0 0.00588 107.78811 154.60861
29.4784 29.4577 151.0 0.00662 107.75916 155.41074
29.4951 29.4744 158.0 0.00633 107.73021 156.23506
29.5118 29.4911 170.0 0.00588 107.70125 157.08286
29.5286 29.5079 165.0 0.00606 107.67213 157.95967
29.5453 29.5246 169.0 0.00592 107.64318 158.85620
29.5620 29.5413 159.0 0.00629 107.61423 159.77834
29.5787 29.5580 165.0 0.00606 107.58527 160.72763
29.5954 29.5747 163.0 0.00613 107.55633 161.70439
29.6121 29.5914 170.0 0.00588 107.52737 162.70999
29.6289 29.6082 137.0 0.00731 107.49825 163.75192
29.6456 29.6249 159.0 0.00629 107.46930 164.81868
29.6623 29.6416 151.0 0.00662 107.44035 165.91774
29.6790 29.6583 183.0 0.00546 107.41140 167.05057
29.6957 29.6750 148.0 0.00675 107.38245 168.21799
29.7125 29.6918 147.0 0.00681 107.35332 169.42943
29.7292 29.7085 179.0 0.00559 107.32436 170.67162
29.7459 29.7252 165.0 0.00606 107.29542 171.95303
29.7626 29.7419 172.0 0.00582 107.26647 173.27530
29.7793 29.7586 168.0 0.00595 107.23751 174.64096
29.7960 29.7753 175.0 0.00571 107.20856 176.05081
29.8128 29.7921 157.0 0.00637 107.17944 177.51588
29.8295 29.8088 188.0 0.00532 107.15049 179.02158
29.8462 29.8255 173.0 0.00578 107.12154 180.57753
29.8629 29.8422 179.0 0.00559 107.09259 182.18646
29.8796 29.8589 178.0 0.00562 107.06364 183.85074
29.8964 29.8757 164.0 0.00609 107.03452 185.58365
29.9131 29.8924 160.0 0.00625 107.00556 187.36670
29.9298 29.9091 180.0 0.00555 106.97661 189.21313
29.9465 29.9258 191.0 0.00524 106.94765 191.12622
29.9632 29.9425 170.0 0.00588 106.91871 193.10823
29.9800 29.9593 186.0 0.00537 106.88959 195.17628
29.9967 29.9760 192.0 0.00521 106.86063 197.30870
30.0134 29.9927 195.0 0.00513 106.83168 199.52107
30.0301 30.0094 190.0 0.00527 106.80273 201.81735
30.0468 30.0261 183.0 0.00546 106.77377 204.20320
30.0635 30.0428 172.0 0.00582 106.74483 206.68144
30.0803 30.0596 202.0 0.00495 106.71571 209.27338
30.0970 30.0763 184.0 0.00544 106.68676 211.95287
30.1137 30.0930 202.0 0.00495 106.65780 214.74219
30.1304 30.1097 192.0 0.00521 106.62885 217.64522
30.1471 30.1264 193.0 0.00518 106.59990 220.66902
30.1639 30.1432 199.0 0.00502 106.57077 223.84009
30.1806 30.1599 245.0 0.00408 106.54182 227.12692
30.1973 30.1766 209.0 0.00478 106.51287 230.55621
30.2140 30.1933 220.0 0.00455 106.48392 234.13673
30.2307 30.2100 237.0 0.00422 106.45497 237.87576
30.2475 30.2268 232.0 0.00431 106.42584 241.80898
30.2642 30.2435 220.0 0.00455 106.39689 245.89876
30.2809 30.2602 241.0 0.00415 106.36794 250.17844
30.2976 30.2769 249.0 0.00402 106.33900 254.65984
30.3143 30.2936 238.0 0.00420 106.31004 259.35852
30.3310 30.3103 251.0 0.00399 106.28109 264.28500
30.3478 30.3271 233.0 0.00429 106.25197 269.48663
30.3645 30.3438 257.0 0.00389 106.22301 274.92090
30.3812 30.3605 272.0 0.00368 106.19406 280.63184
30.3979 30.3772 277.0 0.00361 106.16512 286.64011
30.4146 30.3939 297.0 0.003368 106.13616 292.96661
30.4314 30.4107 275.0 0.00364 106.10703 299.67615
30.4481 30.4274 298.0 0.003357 106.07808 306.71170
30.4648 30.4441 323.0 0.003097 106.04913 314.14017
30.4815 30.4608 317.0 0.003156 106.02018 321.99240
30.4982 30.4775 300.0 0.003334 105.99123 330.29730
30.5150 30.4943 307.0 0.003258 105.96210 339.14963
30.5317 30.5110 378.0 0.002646 105.93315 348.48093
30.5484 30.5277 372.0 0.002687 105.90421 358.38416
30.5651 30.5444 364.0 0.002747 105.87526 368.90668
30.5818 30.5611 362.0 0.002761 105.84630 380.10760
30.5985 30.5778 373.0 0.002682 105.81734 392.03726
30.6153 30.5946 347.0 0.002881 105.78822 404.84247
30.6320 30.6113 368.0 0.002718 105.75928 418.44107
30.6487 30.6280 403.0 0.002483 105.73032 432.99576
30.6654 30.6447 452.0 0.002212 105.70137 448.58606
30.6821 30.6614 439.0 0.002278 105.67242 465.31696
30.6989 30.6782 448.0 0.002231 105.64330 483.41626
30.7156 30.6949 473.0 0.002114 105.61434 502.79147
30.7323 30.7116 485.0 0.002062 105.58540 523.69336
30.7490 30.7283 544.0 0.001839 105.55644 546.28894
30.7657 30.7450 526.0 0.001902 105.52750 570.75397
30.7825 30.7618 549.0 0.001822 105.49837 597.48071
30.7992 30.7785 572.0 0.001748 105.46941 626.38818
30.8159 30.7952 605.0 0.001652 105.44046 657.90338
30.8326 30.8119 646.0 0.001548 105.41151 692.34686
30.8493 30.8286 670.0 0.001493 105.38256 730.11261
30.8660 30.8453 691.0 0.001447 105.35361 771.60699
30.8828 30.8621 759.0 0.001318 105.32449 817.62708
30.8995 30.8788 803.0 0.001245 105.29553 868.24976
30.9162 30.8955 857.0 0.001167 105.26659 924.40027
30.9329 30.9122 872.0 0.001147 105.23763 986.92261
30.9496 30.9289 1007.0 0.000993 105.20868 1056.80615
30.9664 30.9457 1022.0 0.000978 105.17956 1135.74878
30.9831 30.9624 1170.0 0.000854 105.15060 1224.23010
30.9998 30.9791 1221.0 0.000819 105.12166 1324.45825
31.0165 30.9958 1363.0 0.000734 105.09270 1438.62756
31.0332 31.0125 1452.0 0.000689 105.06376 1569.45752
31.0500 31.0293 1659.0 0.000603 105.03463 1721.70740
31.0667 31.0460 1855.0 0.000539 105.00568 1898.87549
31.0834 31.0627 2062.0 0.000485 104.97672 2110.12573
31.1001 31.0794 2448.0 0.000408 104.94778 2369.65161
31.1168 31.0961 2849.0 0.000351 104.91882 2703.02002
31.1335 31.1128 3399.0 0.0002942 104.88987 3155.64307
31.1503 31.1296 4284.0 0.0002334 104.86075 3811.97217
31.1670 31.1463 5202.0 0.0001923 104.83180 4796.16455
31.1837 31.1630 6896.0 0.0001450 104.80285 6313.14307
31.2004 31.1797 9011.0 0.0001110 104.77390 8640.32910
31.2171 31.1964 12085.0 0.0000828 104.74494 12119.66211
31.2339 31.2132 16747.0 0.0000597 104.71581 17142.12500
31.2506 31.2299 22576.0 0.0000443 104.68687 23925.37695
31.2673 31.2466 30283.0 0.0000330 104.65792 32573.41797
31.2840 31.2633 39847.0 0.0000251 104.62896 42841.16016
31.3007 31.2800 51145.0 0.0000195 104.60002 54049.08984
31.3175 31.2968 63151.0 0.0000158 104.57089 65102.32813
31.3342 31.3135 73371.0 0.0000136 104.54194 74236.96875
31.3509 31.3302 80043.0 0.0000125 104.51299 79740.68750
31.3676 31.3469 82172.0 0.0000122 104.48404 80361.64063
31.3843 31.3636 78857.0 0.0000127 104.45509 76011.70313
31.4010 31.3803 70564.0 0.0000142 104.42613 67760.32813
31.4178 31.3971 59318.0 0.0000169 104.39702 57208.18359
31.4345 31.4138 47383.0 0.0000211 104.36806 46135.81250
31.4512 31.4305 36137.0 0.0000277 104.33910 35753.28906
31.4679 31.4472 26904.0 0.0000372 104.31016 26816.05078
31.4846 31.4639 19309.0 0.0000518 104.28120 19635.02148
31.5014 31.4807 14283.0 0.0000700 104.25208 14161.01270
31.5181 31.4974 10234.0 0.0000976 104.22313 10235.71191
31.5348 31.5141 7625.0 0.0001312 104.19418 7508.27100
31.5515 31.5308 6032.0 0.0001658 104.16522 5662.39697
31.5682 31.5475 4888.0 0.0002046 104.13628 4427.57373
31.5850 31.5643 3926.0 0.0002547 104.10715 3591.17651
31.6017 31.5810 3272.0 0.0003056 104.07820 3016.98706
31.6184 31.5977 2787.0 0.000359 104.04925 2603.50000
31.6351 31.6144 2410.0 0.000415 104.02030 2291.28833
31.6518 31.6311 2111.0 0.000474 103.99134 2044.62537
31.6685 31.6478 1854.0 0.000539 103.96239 1842.73145
31.6853 31.6646 1688.0 0.000592 103.93327 1672.11169
31.7020 31.6813 1526.0 0.000655 103.90433 1527.08337
31.7187 31.6980 1411.0 0.000709 103.87537 1401.42419
31.7354 31.7147 1310.0 0.000764 103.84641 1291.68713
31.7521 31.7314 1152.0 0.000868 103.81747 1195.18970
31.7689 31.7482 1088.0 0.000919 103.78834 1109.37598
31.7856 31.7649 1011.0 0.000989 103.75939 1033.62939
31.8023 31.7816 950.0 0.001053 103.73044 966.03961
31.8190 31.7983 887.0 0.001128 103.70148 905.47742
31.8357 31.8150 788.0 0.001269 103.67254 851.02478
31.8524 31.8317 780.0 0.001282 103.64359 801.88629
31.8692 31.8485 719.0 0.001391 103.61446 757.13727
31.8859 31.8652 706.0 0.001417 103.58551 716.75671
31.9026 31.8819 683.0 0.001465 103.55656 679.98138
31.9193 31.8986 580.0 0.001725 103.52760 646.37823
31.9360 31.9153 558.0 0.001792 103.49866 615.61646
31.9528 31.9321 532.0 0.001879 103.46954 587.21973
31.9695 31.9488 528.0 0.001894 103.44057 561.24243
31.9862 31.9655 477.0 0.002096 103.41163 537.29456
32.0029 31.9822 458.0 0.002184 103.38268 515.16455
32.0196 31.9989 474.0 0.002110 103.35373 494.67355
32.0364 32.0157 454.0 0.002202 103.32460 475.55179
32.0531 32.0324 435.0 0.002298 103.29565 457.89282
32.0698 32.0491 438.0 0.002283 103.26670 441.45251
32.0865 32.0658 383.0 0.002611 103.23775 426.11929
32.1032 32.0825 395.0 0.002533 103.20880 411.80029
32.1199 32.0992 384.0 0.002603 103.17985 398.40616
32.1367 32.1160 385.0 0.002598 103.15072 385.78448
32.1534 32.1327 327.0 0.003059 103.12177 374.01913
32.1701 32.1494 347.0 0.002881 103.09283 362.96930
32.1868 32.1661 340.0 0.002941 103.06387 352.57224
32.2035 32.1828 330.0 0.003029 103.03491 342.78458
32.2203 32.1996 315.0 0.003174 103.00580 333.50320
32.2370 32.2163 334.0 0.002993 102.97685 324.79785
32.2537 32.2330 300.0 0.003334 102.94789 316.56863
32.2704 32.2497 304.0 0.003288 102.91894 308.78699
32.2871 32.2664 262.0 0.00382 102.88999 301.41891
32.3039 32.2832 270.0 0.00370 102.86086 294.39377
32.3206 32.2999 240.0 0.00417 102.83191 287.77087
32.3373 32.3166 260.0 0.00385 102.80296 281.48206
32.3540 32.3333 242.0 0.00413 102.77401 275.50424
32.3707 32.3500 232.0 0.00431 102.74506 269.81894
32.3874 32.3667 242.0 0.00413 102.71610 264.40643
32.4042 32.3835 238.0 0.00420 102.68698 259.21866
32.4209 32.4002 202.0 0.00495 102.65803 254.30290
32.4376 32.4169 244.0 0.00410 102.62908 249.61276
32.4543 32.4336 230.0 0.00435 102.60013 245.13202
32.4710 32.4503 216.0 0.00463 102.57117 240.85139
32.4878 32.4671 214.0 0.00467 102.54206 236.73451
32.5045 32.4838 206.0 0.00486 102.51310 232.81728
32.5212 32.5005 192.0 0.00521 102.48415 229.06741
32.5379 32.5172 184.0 0.00544 102.45520 225.47449
32.5546 32.5339 209.0 0.00478 102.42625 222.02977
32.5714 32.5507 198.0 0.00505 102.39713 218.70532
32.5881 32.5674 184.0 0.00544 102.36817 215.53409
32.6048 32.5841 188.0 0.00532 102.33922 212.48834
32.6215 32.6008 171.0 0.00585 102.31027 209.56107
32.6382 32.6175 209.0 0.00478 102.28133 206.74698
32.6549 32.6342 195.0 0.00513 102.25237 204.03986
32.6717 32.6510 152.0 0.00658 102.22324 201.41861
32.6884 32.6677 178.0 0.00562 102.19429 198.91013
32.7051 32.6844 173.0 0.00578 102.16534 196.49373
32.7218 32.7011 165.0 0.00606 102.13639 194.16354
32.7385 32.7178 186.0 0.00537 102.10744 191.91711
32.7553 32.7346 177.0 0.00565 102.08475 189.74347
32.7720 32.7513 164.0 0.00609 102.06939 187.66588
32.7887 32.7680 161.0 0.00621 102.05403 185.65930
32.8054 32.7847 162.0 0.00617 102.03867 183.72188
32.8221 32.8014 164.0 0.00609 102.02332 181.84996
32.8389 32.8182 141.0 0.00710 102.00787 180.02960
32.8556 32.8349 164.0 0.00609 101.99251 178.28030
32.8723 32.8516 139.0 0.00719 101.97716 176.58810
32.8890 32.8683 148.0 0.00675 101.96180 174.95033
32.9057 32.8850 161.0 0.00621 101.94644 173.36508
32.9224 32.9017 156.0 0.00641 101.93108 171.82990
32.9392 32.9185 133.0 0.00752 101.91563 170.33371
32.9559 32.9352 139.0 0.00719 101.90028 168.89273
32.9726 32.9519 152.0 0.00658 101.88493 167.49603
32.9893 32.9686 143.0 0.00699 101.86956 166.14099
33.0060 32.9853 139.0 0.00719 101.85421 164.82693
33.0228 33.0021 127.0 0.00787 101.83877 163.54446
33.0395 33.0188 154.0 0.00649 101.82340 162.30659
33.0562 33.0355 133.0 0.00752 101.80804 161.10503
33.0729 33.0522 140.0 0.00715 101.79269 159.93799
33.0896 33.0689 122.0 0.00819 101.77734 158.80417
33.1064 33.0857 144.0 0.00694 101.76189 157.69562
33.1231 33.1024 150.0 0.00666 101.74653 156.62465
33.1398 33.1191 114.0 0.00877 101.73117 155.58328
33.1565 33.1358 151.0 0.00662 101.71581 154.57025
33.1732 33.1525 121.0 0.00826 101.70045 153.58481
33.1899 33.1692 131.0 0.00763 101.68510 152.62582
33.2067 33.1860 120.0 0.00834 101.66965 151.68668
33.2234 33.2027 136.0 0.00736 101.65430 150.77792
33.2401 33.2194 106.0 0.00943 101.63895 149.89301
33.2568 33.2361 138.0 0.00724 101.62358 149.03059
33.2735 33.2528 108.0 0.00926 101.60822 148.19052
33.2903 33.2696 133.0 0.00752 101.59278 147.36693
33.3070 33.2863 129.0 0.00775 101.57743 146.56900
33.3237 33.3030 116.0 0.00862 101.56207 145.79063
33.3404 33.3197 117.0 0.00854 101.54671 145.03172
33.3571 33.3364 124.0 0.00806 101.53135 144.29138
33.3739 33.3532 125.0 0.00800 101.51591 143.56465
33.3906 33.3699 107.0 0.00935 101.50055 142.85979
33.4073 33.3866 127.0 0.00787 101.48519 142.17172
33.4240 33.4033 113.0 0.00885 101.46983 141.49985
33.4407 33.4200 121.0 0.00826 101.45448 140.84383
33.4574 33.4367 136.0 0.00736 101.43912 140.20305
33.4742 33.4535 119.0 0.00840 101.42368 139.57324
33.4909 33.4702 128.0 0.00782 101.40832 138.96164
33.5076 33.4869 121.0 0.00826 101.39296 138.36397
33.5243 33.5036 114.0 0.00877 101.37760 137.77950
33.5410 33.5203 127.0 0.00787 101.36224 137.20822
33.5578 33.5371 121.0 0.00826 101.34680 136.64635
33.5745 33.5538 122.0 0.00819 101.33144 136.09987
33.5912 33.5705 93.0 0.01075 101.31609 135.56544
33.6079 33.5872 121.0 0.00826 101.30073 135.04254
33.6246 33.6039 109.0 0.00917 101.28537 134.53084
33.6414 33.6207 108.0 0.00926 101.26992 134.02696
33.6581 33.6374 122.0 0.00819 101.25457 133.53674
33.6748 33.6541 97.0 0.01031 101.23921 133.05678
33.6915 33.6708 113.0 0.00885 101.22385 132.58670
33.7082 33.6875 137.0 0.00731 101.20850 132.12636
33.7249 33.7042 121.0 0.00826 101.19314 131.67542
33.7417 33.7210 107.0 0.00935 101.17769 131.23093
33.7584 33.7377 116.0 0.00862 101.16234 130.79807
33.7751 33.7544 125.0 0.00800 101.14698 130.37389
33.7918 33.7711 95.0 0.01053 101.13162 129.95795
33.8085 33.7878 130.0 0.00769 101.11626 129.55029
33.8253 33.8046 111.0 0.00900 101.10081 129.14821
33.8420 33.8213 119.0 0.00840 101.08546 128.75636
33.8587 33.8380 116.0 0.00862 101.07011 128.37186
33.8754 33.8547 99.0 0.01010 101.05475 127.99480
33.8921 33.8714 124.0 0.00806 101.03939 127.62482
33.9088 33.8881 122.0 0.00819 101.02403 127.26192
33.9256 33.9049 95.0 0.01053 101.00858 126.90356
33.9423 33.9216 127.0 0.00787 100.99323 126.55400
33.9590 33.9383 114.0 0.00877 100.97787 126.21082
33.9757 33.9550 116.0 0.00862 100.96252 125.87395
33.9924 33.9717 101.0 0.00990 100.94716 125.54320
34.0092 33.9885 112.0 0.00893 100.93171 100.93174
34.0259 34.0052 117.0 0.00854 100.91635 100.91638
34.0426 34.0219 104.0 0.00961 100.90100 100.90103
34.0593 34.0386 103.0 0.00971 100.88564 100.88567
34.0760 34.0553 109.0 0.00917 100.87029 100.87032
34.0928 34.0721 103.0 0.00971 100.85484 100.85487
34.1095 34.0888 101.0 0.00990 100.83948 100.83951
34.1262 34.1055 94.0 0.01064 100.82412 100.82415
34.1429 34.1222 121.0 0.00826 100.80877 100.80880
34.1596 34.1389 125.0 0.00800 100.79340 100.79344
34.1763 34.1556 109.0 0.00917 100.77805 100.77808
34.1931 34.1724 108.0 0.00926 100.76260 100.76263
34.2098 34.1891 109.0 0.00917 100.74725 100.74728
34.2265 34.2058 94.0 0.01064 100.73189 100.73193
34.2432 34.2225 91.0 0.01099 100.71653 100.71657
34.2599 34.2392 100.0 0.01000 100.70118 100.70121
34.2767 34.2560 119.0 0.00840 100.68572 100.68576
34.2934 34.2727 104.0 0.00961 100.67037 100.67041
34.3101 34.2894 121.0 0.00826 100.65501 100.65505
34.3268 34.3061 112.0 0.00893 100.63966 100.63969
34.3435 34.3228 116.0 0.00862 100.62430 100.62434
34.3603 34.3396 100.0 0.01000 100.60885 100.60889
34.3770 34.3563 111.0 0.00900 100.59350 100.59354
34.3937 34.3730 92.0 0.01087 100.57814 100.57818
34.4104 34.3897 108.0 0.00926 100.56278 100.56282
34.4271 34.4064 109.0 0.00917 100.54742 100.54746
34.4438 34.4231 92.0 0.01087 100.53207 100.53211
34.4606 34.4399 116.0 0.00862 100.51662 100.51666
34.4773 34.4566 116.0 0.00862 100.50126 100.50130
34.4940 34.4733 91.0 0.01099 100.48591 100.48595
34.5107 34.4900 114.0 0.00877 100.47055 100.47059
34.5274 34.5067 99.0 0.01010 100.45519 100.45524
34.5442 34.5235 96.0 0.01042 100.43974 100.43979
34.5609 34.5402 103.0 0.00971 100.42439 100.42443
34.5776 34.5569 101.0 0.00990 100.40903 100.40908
34.5943 34.5736 106.0 0.00943 100.39368 100.39371
34.6110 34.5903 106.0 0.00943 100.37832 100.37836
34.6278 34.6071 101.0 0.00990 100.36288 100.36292
34.6445 34.6238 108.0 0.00926 100.34751 100.34756
34.6612 34.6405 96.0 0.01042 100.33215 100.33220
34.6779 34.6572 106.0 0.00943 100.31680 100.31684
34.6946 34.6739 100.0 0.01000 100.30145 100.34336
34.7113 34.6906 87.0 0.01150 100.28609 100.32862
34.7281 34.7074 109.0 0.00917 100.27064 100.31381
34.7448 34.7241 101.0 0.00990 100.25528 100.29910
34.7615 34.7408 107.0 0.00935 100.23992 100.28442
34.7782 34.7575 121.0 0.00826 100.22457 100.26974
34.7949 34.7742 128.0 0.00782 100.20921 100.25507
34.8117 34.7910 99.0 0.01010 100.19376 100.24033
34.8284 34.8077 111.0 0.00900 100.17841 100.22571
34.8451 34.8244 103.0 0.00971 100.16306 100.21109
34.8618 34.8411 112.0 0.00893 100.14769 100.19650
34.8785 34.8578 94.0 0.01064 100.13234 100.18192
34.8953 34.8746 99.0 0.01010 100.11689 100.16727
34.9120 34.8913 112.0 0.00893 100.10153 100.15274
34.9287 34.9080 99.0 0.01010 100.08617 100.13821
34.9454 34.9247 97.0 0.01031 100.07082 100.12372
34.9621 34.9414 100.0 0.01000 100.05547 100.10924
34.9788 34.9581 109.0 0.00917 100.04011 100.09479
34.9956 34.9749 105.0 0.00952 100.02466 100.08027
35.0123 34.9916 106.0 0.00943 100.00930 100.06586
35.0290 35.0083 115.0 0.00870 99.99394 100.05148
35.0457 35.0250 116.0 0.00862 99.97858 100.03712
35.0624 35.0417 107.0 0.00935 99.96323 100.02279
35.0792 35.0585 116.0 0.00862 99.94778 100.00840
35.0959 35.0752 111.0 0.00900 99.93243 99.99412
35.1126 35.0919 101.0 0.00990 99.91707 99.97988
35.1293 35.1086 118.0 0.00848 99.90171 99.96565
35.1460 35.1253 118.0 0.00848 99.88635 99.95147
35.1628 35.1421 109.0 0.00917 99.87091 99.93723
35.1795 35.1588 110.0 0.00909 99.85555 99.92311
35.1962 35.1755 130.0 0.00769 99.84019 99.90903
35.2129 35.1922 111.0 0.00900 99.82484 99.89497
35.2296 35.2089 106.0 0.00943 99.80948 99.88097
35.2463 35.2256 94.0 0.01064 99.79413 99.86700
35.2631 35.2424 95.0 0.01053 99.77868 99.85298
35.2798 35.2591 107.0 0.00935 99.76332 99.83909
35.2965 35.2758 104.0 0.00961 99.74796 99.82525
35.3132 35.2925 105.0 0.00952 99.73260 99.81145
35.3299 35.3092 123.0 0.00813 99.71725 99.79770
35.3467 35.3260 109.0 0.00917 99.70180 99.78391
35.3634 35.3427 100.0 0.01000 99.68645 99.77026
35.3801 35.3594 98.0 0.01021 99.67109 99.75667
35.3968 35.3761 115.0 0.00870 99.65573 99.74313
35.4135 35.3928 84.0 0.01191 99.64037 99.72964
35.4303 35.4096 114.0 0.00877 99.62492 99.71614
35.4470 35.4263 101.0 0.00990 99.60957 99.70279
35.4637 35.4430 104.0 0.00961 99.59422 99.68950
35.4804 35.4597 134.0 0.00746 99.57886 99.67627
35.4971 35.4764 108.0 0.00926 99.56350 99.66312
35.5138 35.4931 115.0 0.00870 99.54814 99.65005
35.5306 35.5099 122.0 0.00819 99.53269 99.63698
35.5473 35.5266 119.0 0.00840 99.51733 99.62407
35.5640 35.5433 111.0 0.00900 99.50198 99.61124
35.5807 35.5600 126.0 0.00794 99.48663 99.59851
35.5974 35.5767 111.0 0.00900 99.47127 99.58588
35.6142 35.5935 113.0 0.00885 99.45582 99.57327
35.6309 35.6102 117.0 0.00854 99.44046 99.56084
35.6476 35.6269 118.0 0.00848 99.42511 99.54852
35.6643 35.6436 113.0 0.00885 99.40974 99.53632
35.6810 35.6603 108.0 0.00926 99.39439 99.52424
35.6978 35.6771 156.0 0.00641 99.37894 99.51221
35.7145 35.6938 111.0 0.00900 99.36359 99.50040
35.7312 35.7105 129.0 0.00775 99.34823 99.48872
35.7479 35.7272 142.0 0.00704 99.33287 99.47720
35.7646 35.7439 157.0 0.00637 99.31751 99.46584
35.7813 35.7606 170.0 0.00588 99.30216 99.45464
35.7981 35.7774 144.0 0.00694 99.28671 99.44356
35.8148 35.7941 150.0 0.00666 99.27135 99.43273
35.8315 35.8108 173.0 0.00578 99.25600 99.42210
35.8482 35.8275 173.0 0.00578 99.24064 99.41168
35.8649 35.8442 176.0 0.00568 99.22529 99.40148
35.8817 35.8610 188.0 0.00532 99.20984 99.39146
35.8984 35.8777 201.0 0.00497 99.19448 99.38176
35.9151 35.8944 221.0 0.00452 99.17913 99.37232
35.9318 35.9111 197.0 0.00507 99.16376 99.36316
35.9485 35.9278 210.0 0.00476 99.14841 99.35431
35.9652 35.9445 275.0 0.00364 99.13306 99.34578
35.9820 35.9613 249.0 0.00402 99.11761 99.33755
35.9987 35.9780 265.0 0.00377 99.10225 99.32973
36.0154 35.9947 279.0 0.00359 99.08689 99.32231
36.0321 36.0114 260.0 0.00385 99.07153 99.31531
36.0488 36.0281 275.0 0.00364 99.05618 99.30876
36.0656 36.0449 246.0 0.00407 99.04073 99.30267
36.0823 36.0616 259.0 0.00386 99.02538 99.29713
36.0990 36.0783 273.0 0.00366 99.01002 99.29214
36.1157 36.0950 270.0 0.00370 98.99466 99.28777
36.1324 36.1117 216.0 0.00463 98.97930 99.28406
36.1492 36.1285 275.0 0.00364 98.96385 99.28102
36.1659 36.1452 253.0 0.00395 98.94850 99.27877
36.1826 36.1619 228.0 0.00439 98.93314 99.27735
36.1993 36.1786 238.0 0.00420 98.91779 99.27682
36.2160 36.1953 217.0 0.00461 98.90243 99.27728
36.2327 36.2120 211.0 0.00474 98.88707 99.27879
36.2495 36.2288 227.0 0.00440 98.87162 99.28149
36.2662 36.2455 190.0 0.00527 98.85627 99.28543
36.2829 36.2622 207.0 0.00483 98.84091 99.29077
36.2996 36.2789 175.0 0.00571 98.82555 99.29765
36.3163 36.2956 201.0 0.00497 98.81020 99.30619
36.3331 36.3124 187.0 0.00535 98.79475 99.31667
36.3498 36.3291 167.0 0.00599 98.77939 99.32913
36.3665 36.3458 169.0 0.00592 98.76404 99.34387
36.3832 36.3625 145.0 0.00690 98.74868 99.64678
36.3999 36.3792 158.0 0.00633 98.73332 99.67107
36.4167 36.3960 155.0 0.00645 98.71787 99.69878
36.4334 36.4127 158.0 0.00633 98.70251 99.72996
36.4501 36.4294 157.0 0.00637 98.68716 99.76518
36.4668 36.4461 150.0 0.00666 98.67181 99.80501
36.4835 36.4628 149.0 0.00671 98.65645 99.84998
36.5002 36.4795 136.0 0.00736 98.64109 99.90084
36.5170 36.4963 143.0 0.00699 98.62564 99.95873
36.5337 36.5130 156.0 0.00641 98.61028 100.02398
36.5504 36.5297 114.0 0.00877 98.59493 100.09801
36.5671 36.5464 110.0 0.00909 98.57957 100.18223
36.5838 36.5631 125.0 0.00800 98.56422 100.27824
36.6006 36.5799 123.0 0.00813 98.54877 100.38879
36.6173 36.5966 118.0 0.00848 98.53341 100.51500
36.6340 36.6133 120.0 0.00834 98.51805 100.66054
36.6507 36.6300 110.0 0.00909 98.50270 100.82942
36.6674 36.6467 125.0 0.00800 98.48734 101.02712
36.6842 36.6635 106.0 0.00943 98.47189 101.26330
36.7009 36.6802 127.0 0.00787 98.45654 101.54802
36.7176 36.6969 101.0 0.00990 98.44118 101.90446
36.7343 36.7136 126.0 0.00794 98.42582 102.37095
36.7510 36.7303 107.0 0.00935 98.41047 103.01273
36.7677 36.7470 110.0 0.00909 98.39511 103.93850
36.7845 36.7638 110.0 0.00909 98.37966 105.32807
36.8012 36.7805 126.0 0.00794 98.36430 107.41057
36.8179 36.7972 122.0 0.00819 98.34895 110.51351
36.8346 36.8139 121.0 0.00826 98.33359 115.00799
36.8513 36.8306 131.0 0.00763 98.31824 121.24893
36.8681 36.8474 134.0 0.00746 98.30279 129.53993
36.8848 36.8641 132.0 0.00757 98.28742 139.78688
36.9015 36.8808 130.0 0.00769 98.27207 151.67322
36.9182 36.8975 147.0 0.00681 98.25671 164.37050
36.9349 36.9142 145.0 0.00690 98.24136 176.49423
36.9517 36.9310 157.0 0.00637 98.22591 186.16371
36.9684 36.9477 165.0 0.00606 98.21056 191.14098
36.9851 36.9644 147.0 0.00681 98.19520 190.13940
37.0018 36.9811 169.0 0.00592 98.17984 183.44363
37.0185 36.9978 161.0 0.00621 98.16448 172.78191
37.0352 37.0145 138.0 0.00724 98.14912 160.28008
37.0520 37.0313 138.0 0.00724 98.13368 147.63710
37.0687 37.0480 115.0 0.00870 98.11832 136.20302
37.0854 37.0647 109.0 0.00917 98.10297 126.57619
37.1021 37.0814 123.0 0.00813 98.08761 118.97945
37.1188 37.0981 122.0 0.00819 98.07226 113.31908
37.1356 37.1149 122.0 0.00819 98.05680 109.27888
37.1523 37.1316 106.0 0.00943 98.04144 106.53629
37.1690 37.1483 124.0 0.00806 98.02608 104.70360
37.1857 37.1650 97.0 0.01031 98.01073 103.48289
37.2024 37.1817 104.0 0.00961 97.99538 102.65448
37.2192 37.1985 99.0 0.01010 97.97993 102.06709
37.2359 37.2152 104.0 0.00961 97.96457 101.63455
37.2526 37.2319 91.0 0.01099 97.94922 101.29762
37.2693 37.2486 96.0 0.01042 97.93385 101.02436
37.2860 37.2653 67.0 0.01493 97.91850 100.79665
37.3027 37.2820 94.0 0.01064 97.90314 100.60338
37.3195 37.2988 77.0 0.01299 97.88770 100.43659
37.3362 37.3155 96.0 0.01042 97.87234 100.29343
37.3529 37.3322 103.0 0.00971 97.85698 100.16919
37.3696 37.3489 82.0 0.01220 97.84162 100.06106
37.3863 37.3656 105.0 0.00952 97.82627 99.96682
37.4031 37.3824 77.0 0.01299 97.81082 99.88415
37.4198 37.3991 84.0 0.01191 97.79546 99.81255
37.4365 37.4158 100.0 0.01000 97.78011 99.75028
37.4532 37.4325 97.0 0.01031 97.76475 99.69629
37.4699 37.4492 91.0 0.01099 97.74940 99.64973
37.4867 37.4660 81.0 0.01235 97.73395 99.60969
37.5034 37.4827 95.0 0.01053 97.71859 99.57603
37.5201 37.4994 70.0 0.01428 97.70324 99.54803
37.5368 37.5161 97.0 0.01031 97.68787 99.52526
37.5535 37.5328 97.0 0.01031 97.67252 99.50740
37.5702 37.5495 103.0 0.00971 97.65716 99.49417
37.5870 37.5663 88.0 0.01136 97.64172 99.48533
37.6037 37.5830 99.0 0.01010 97.62636 99.48080
37.6204 37.5997 98.0 0.01021 97.61100 99.48038
37.6371 37.6164 110.0 0.00909 97.59564 99.48400
37.6538 37.6331 88.0 0.01136 97.58029 99.49160
37.6706 37.6499 104.0 0.00961 97.56484 99.50325
37.6873 37.6666 91.0 0.01099 97.54948 99.51881
37.7040 37.6833 86.0 0.01163 97.53413 99.53838
37.7207 37.7000 96.0 0.01042 97.51877 99.56203
37.7374 37.7167 104.0 0.00961 97.50341 99.58988
37.7542 37.7335 92.0 0.01087 97.48797 99.62224
37.7709 37.7502 101.0 0.00990 97.47261 99.65889
37.7876 37.7669 91.0 0.01099 97.45725 99.70020
37.8043 37.7836 84.0 0.01191 97.44189 99.74641
37.8210 37.8003 83.0 0.01205 97.42654 99.79778
37.8377 37.8170 94.0 0.01064 97.41118 99.85458
37.8545 37.8338 69.0 0.01449 97.39573 99.91756
37.8712 37.8505 89.0 0.01124 97.38038 99.98635
37.8879 37.8672 80.0 0.01250 97.36502 100.06174
37.9046 37.8839 107.0 0.00935 97.34966 100.14425
37.9213 37.9006 84.0 0.01191 97.33430 100.23437
37.9381 37.9174 84.0 0.01191 97.31886 100.33340
37.9548 37.9341 98.0 0.01021 97.30350 100.44084
37.9715 37.9508 92.0 0.01087 97.28815 100.55802
37.9882 37.9675 84.0 0.01191 97.27279 100.68583
38.0049 37.9842 86.0 0.01163 97.25743 100.82535
38.0216 38.0009 99.0 0.01010 97.24207 100.97762
38.0384 38.0177 98.0 0.01021 97.22662 101.14500
38.0551 38.0344 83.0 0.01205 97.21127 101.32698
38.0718 38.0511 93.0 0.01075 97.19592 101.52627
38.0885 38.0678 85.0 0.01176 97.18056 101.74465
38.1052 38.0845 107.0 0.00935 97.16520 101.98437
38.1220 38.1013 107.0 0.00935 97.14975 102.24959
38.1387 38.1180 83.0 0.01205 97.13439 102.54025
38.1554 38.1347 101.0 0.00990 97.11904 102.86101
38.1721 38.1514 79.0 0.01266 97.10368 103.21597
38.1888 38.1681 81.0 0.01235 97.08833 103.60960
38.2056 38.1849 97.0 0.01031 97.07288 104.05029
38.2223 38.2016 87.0 0.01150 97.05752 104.53914
38.2390 38.2183 110.0 0.00909 97.04216 105.08613
38.2557 38.2350 83.0 0.01205 97.02681 105.70032
38.2724 38.2517 94.0 0.01064 97.01144 106.39301
38.2891 38.2684 112.0 0.00893 96.99609 107.17689
38.3059 38.2852 106.0 0.00943 96.98064 108.07403
38.3226 38.3019 93.0 0.01075 96.96529 109.09382
38.3393 38.3186 123.0 0.00813 96.94993 110.26788
38.3560 38.3353 94.0 0.01064 96.93457 111.63037
38.3727 38.3520 119.0 0.00840 96.91922 113.23238
38.3895 38.3688 93.0 0.01075 96.90376 115.16673
38.4062 38.3855 111.0 0.00900 96.88841 117.54532
38.4229 38.4022 101.0 0.00990 96.87305 120.61499
38.4396 38.4189 102.0 0.00980 96.85770 124.78909
38.4563 38.4356 127.0 0.00787 96.84235 130.76355
38.4731 38.4524 140.0 0.00715 96.82690 139.72375
38.4898 38.4691 142.0 0.00704 96.81153 153.22859
38.5065 38.4858 179.0 0.00559 96.79618 173.55881
38.5232 38.5025 178.0 0.00562 96.78083 203.39473
38.5399 38.5192 231.0 0.00433 96.76546 245.48506
38.5566 38.5359 266.0 0.00376 96.75011 301.87460
38.5734 38.5527 336.0 0.002976 96.73466 373.54950
38.5901 38.5694 415.0 0.002410 96.71931 457.60739
38.6068 38.5861 478.0 0.002093 96.70395 549.08862
38.6235 38.6028 552.0 0.001812 96.68859 638.53705
38.6402 38.6195 630.0 0.001587 96.67323 712.50775
38.6570 38.6363 645.0 0.001550 96.65779 755.60309
38.6737 38.6530 650.0 0.001538 96.64243 755.84485
38.6904 38.6697 590.0 0.001695 96.62708 713.51392
38.7071 38.6864 506.0 0.001977 96.61172 639.90454
38.7238 38.7031 388.0 0.002577 96.59636 550.57794
38.7406 38.7199 319.0 0.003135 96.58091 458.48419
38.7573 38.7366 249.0 0.00402 96.56555 374.24628
38.7740 38.7533 230.0 0.00435 96.55019 302.76004
38.7907 38.7700 222.0 0.00450 96.53484 246.08662
38.8074 38.7867 160.0 0.00625 96.51949 203.72798
38.8241 38.8034 145.0 0.00690 96.50413 173.66426
38.8409 38.8202 116.0 0.00862 96.48868 153.06001
38.8576 38.8369 137.0 0.00731 96.47333 139.46107
38.8743 38.8536 114.0 0.00877 96.45797 130.46671
38.8910 38.8703 104.0 0.00961 96.44261 124.41768
38.9077 38.8870 110.0 0.00909 96.42725 120.18587
38.9245 38.9038 95.0 0.01053 96.41180 117.05037
38.9412 38.9205 92.0 0.01087 96.39645 114.63138
38.9579 38.9372 93.0 0.01075 96.38109 112.66927
38.9746 38.9539 87.0 0.01150 96.36574 111.02797
38.9913 38.9706 88.0 0.01136 96.35038 109.62762
39.0081 38.9874 104.0 0.00961 96.33493 108.40954
39.0248 39.0041 97.0 0.01031 96.31957 107.35328
39.0415 39.0208 77.0 0.01299 96.30421 106.42518
39.0582 39.0375 88.0 0.01136 96.28886 105.60493
39.0749 39.0542 90.0 0.01111 96.27351 104.87592
39.0916 39.0709 90.0 0.01111 96.25815 104.22540
39.1084 39.0877 88.0 0.01136 96.24270 103.63891
39.1251 39.1044 93.0 0.01075 96.22734 103.11436
39.1418 39.1211 87.0 0.01150 96.21198 102.64017
39.1585 39.1378 92.0 0.01087 96.19663 102.21025
39.1752 39.1545 83.0 0.01205 96.18127 101.81902
39.1920 39.1713 95.0 0.01053 96.16582 101.45985
39.2087 39.1880 90.0 0.01111 96.15047 101.13284
39.2254 39.2047 98.0 0.01021 96.13511 100.83259
39.2421 39.2214 100.0 0.01000 96.11975 100.55601
39.2588 39.2381 96.0 0.01042 96.10440 100.25900
39.2756 39.2549 71.0 0.01409 96.08895 100.02179
39.2923 39.2716 87.0 0.01150 96.07359 99.80304
39.3090 39.2883 88.0 0.01136 96.05824 99.59962
39.3257 39.3050 86.0 0.01163 96.04288 99.41003
39.3424 39.3217 91.0 0.01099 96.02752 99.23286
39.3591 39.3384 92.0 0.01087 96.01217 99.06708
39.3759 39.3552 101.0 0.00990 95.99672 98.91070
39.3926 39.3719 88.0 0.01136 95.98136 98.76467
39.4093 39.3886 96.0 0.01042 95.96600 98.62716
39.4260 39.4053 90.0 0.01111 95.95065 98.49752
39.4427 39.4220 101.0 0.00990 95.93530 98.37507
39.4595 39.4388 83.0 0.01205 95.91984 98.25852
39.4762 39.4555 87.0 0.01150 95.90449 98.14876
39.4929 39.4722 85.0 0.01176 95.88913 98.04458
39.5096 39.4889 91.0 0.01099 95.87377 97.94556
39.5263 39.5056 77.0 0.01299 95.85841 97.85131
39.5431 39.5224 78.0 0.01282 95.84296 97.76093
39.5598 39.5391 89.0 0.01124 95.82761 97.67519
39.5765 39.5558 90.0 0.01111 95.81226 97.59325
39.5932 39.5725 81.0 0.01235 95.79690 97.51485
39.6099 39.5892 92.0 0.01087 95.78154 97.43970
39.6266 39.6059 74.0 0.01351 95.76618 97.36764
39.6434 39.6227 89.0 0.01124 95.75073 97.29801
39.6601 39.6394 100.0 0.01000 95.73538 97.23150
39.6768 39.6561 68.0 0.01471 95.72002 97.16743
39.6935 39.6728 92.0 0.01087 95.70467 97.10574
39.7102 39.6895 96.0 0.01042 95.68931 97.04621
39.7270 39.7063 84.0 0.01191 95.67387 96.98842
39.7437 39.7230 78.0 0.01282 95.65850 96.93288
39.7604 39.7397 88.0 0.01136 95.64315 96.87916
39.7771 39.7564 71.0 0.01409 95.62778 96.82714
39.7938 39.7731 89.0 0.01124 95.61243 96.77673
39.8106 39.7899 70.0 0.01428 95.59698 96.72755
39.8273 39.8066 76.0 0.01316 95.58163 96.68008
39.8440 39.8233 64.0 0.01563 95.56627 96.63396
39.8607 39.8400 94.0 0.01064 95.55092 96.58913
39.8774 39.8567 79.0 0.01266 95.53555 96.54548
39.8941 39.8734 97.0 0.01031 95.52020 96.50298
39.9109 39.8902 81.0 0.01235 95.50475 96.46131
39.9276 39.9069 98.0 0.01021 95.48940 96.42092
39.9443 39.9236 90.0 0.01111 95.47404 96.38148
39.9610 39.9403 91.0 0.01099 95.45868 96.34298
39.9777 39.9570 92.0 0.01087 95.44333 96.30536
39.9945 39.9738 102.0 0.00980 95.42788 96.26833
40.0112 39.9905 101.0 0.00990 95.41252 96.23232
40.0279 40.0072 85.0 0.01176 95.39716 96.19707
40.0446 40.0239 86.0 0.01163 95.38181 96.16253
40.0613 40.0406 63.0 0.01587 95.36646 96.12868
40.0781 40.0574 99.0 0.01010 95.35101 96.09526
40.0948 40.0741 86.0 0.01163 95.33565 96.06268
40.1115 40.0908 82.0 0.01220 95.32029 96.03069
40.1282 40.1075 88.0 0.01136 95.30494 95.99925
40.1449 40.1242 83.0 0.01205 95.28957 95.96835
40.1616 40.1409 93.0 0.01075 95.27422 95.93798
40.1784 40.1577 83.0 0.01205 95.25877 95.90791
40.1951 40.1744 95.0 0.01053 95.24342 95.87852
40.2118 40.1911 76.0 0.01316 95.22806 95.84954
40.2285 40.2078 113.0 0.00885 95.21270 95.82102
40.2452 40.2245 85.0 0.01176 95.19734 95.79291
40.2620 40.2413 86.0 0.01163 95.18190 95.76504
40.2787 40.2580 81.0 0.01235 95.16654 95.73770
40.2954 40.2747 89.0 0.01124 95.15118 95.71073
40.3121 40.2914 91.0 0.01099 95.13583 95.68411
40.3288 40.3081 93.0 0.01075 95.12047 95.65783
40.3455 40.3248 103.0 0.00971 95.10511 95.63187
40.3623 40.3416 98.0 0.01021 95.08967 95.60607
40.3790 40.3583 80.0 0.01250 95.07431 95.58073
40.3957 40.3750 90.0 0.01111 95.05895 95.55566
40.4124 40.3917 101.0 0.00990 95.04359 95.53088
40.4291 40.4084 98.0 0.01021 95.02824 95.50636
40.4459 40.4252 86.0 0.01163 95.01279 95.48196
40.4626 40.4419 74.0 0.01351 94.99744 95.45794
40.4793 40.4586 88.0 0.01136 94.98208 95.43416
40.4960 40.4753 106.0 0.00943 94.96672 95.41061
40.5127 40.4920 94.0 0.01064 94.95136 95.38729
40.5295 40.5088 88.0 0.01136 94.93591 95.36404
40.5462 40.5255 92.0 0.01087 94.92056 95.34113
40.5629 40.5422 95.0 0.01053 94.90520 95.31841
40.5796 40.5589 80.0 0.01250 94.88985 95.29590
40.5963 40.5756 96.0 0.01042 94.87449 95.27357
40.6130 40.5923 90.0 0.01111 94.85913 95.25141
40.6298 40.6091 86.0 0.01163 94.84368 95.22929
40.6465 40.6258 105.0 0.00952 94.82833 95.20748
40.6632 40.6425 103.0 0.00971 94.81297 95.18582
40.6799 40.6592 95.0 0.01053 94.79762 95.16432
40.6966 40.6759 88.0 0.01136 94.78226 95.14297
40.7134 40.6927 84.0 0.01191 94.76681 95.12164
40.7301 40.7094 78.0 0.01282 94.75145 95.10059
40.7468 40.7261 81.0 0.01235 94.73609 95.07965
40.7635 40.7428 98.0 0.01021 94.72074 95.05886
40.7802 40.7595 78.0 0.01282 94.70538 95.03820
40.7970 40.7763 84.0 0.01191 94.68993 95.01754
40.8137 40.7930 91.0 0.01099 94.67458 94.99712
40.8304 40.8097 94.0 0.01064 94.65923 94.97681
40.8471 40.8264 92.0 0.01087 94.64386 94.95662
40.8638 40.8431 77.0 0.01299 94.62851 94.93654
40.8805 40.8598 89.0 0.01124 94.61315 94.91657
40.8973 40.8766 71.0 0.01409 94.59770 94.89658
40.9140 40.8933 103.0 0.00971 94.58234 94.87681
40.9307 40.9100 85.0 0.01176 94.56699 94.85713
40.9474 40.9267 83.0 0.01205 94.55163 94.55182
40.9641 40.9434 89.0 0.01124 94.53628 94.53647
40.9809 40.9602 97.0 0.01031 94.52082 94.52101
40.9976 40.9769 94.0 0.01064 94.50547 94.50566
41.0143 40.9936 87.0 0.01150 94.49011 94.49030
41.0310 41.0103 94.0 0.01064 94.47475 94.47495
41.0477 41.0270 108.0 0.00926 94.45940 94.45959
41.0645 41.0438 107.0 0.00935 94.44395 94.44415
41.0812 41.0605 94.0 0.01064 94.42860 94.42879
41.0979 41.0772 97.0 0.01031 94.41324 94.41343
41.1146 41.0939 106.0 0.00943 94.39788 94.39808
41.1313 41.1106 101.0 0.00990 94.38253 94.38272
41.1480 41.1273 97.0 0.01031 94.36716 94.36736
41.1648 41.1441 96.0 0.01042 94.35172 94.35191
41.1815 41.1608 99.0 0.01010 94.33636 94.33656
41.1982 41.1775 97.0 0.01031 94.32101 94.32120
41.2149 41.1942 119.0 0.00840 94.30565 94.30585
41.2316 41.2109 77.0 0.01299 94.29029 94.29049
41.2484 41.2277 102.0 0.00980 94.27484 94.27504
41.2651 41.2444 111.0 0.00900 94.25948 94.25968
41.2818 41.2611 115.0 0.00870 94.24413 94.24433
41.2985 41.2778 114.0 0.00877 94.22878 94.22897
41.3152 41.2945 111.0 0.00900 94.21342 94.21362
41.3320 41.3113 116.0 0.00862 94.19797 94.19817
41.3487 41.3280 100.0 0.01000 94.18261 94.18282
41.3654 41.3447 117.0 0.00854 94.16725 94.16746
41.3821 41.3614 118.0 0.00848 94.15190 94.15210
41.3988 41.3781 104.0 0.00961 94.13654 94.13674
41.4155 41.3948 104.0 0.00961 94.12119 94.12138
41.4323 41.4116 121.0 0.00826 94.10574 94.10594
41.4490 41.4283 101.0 0.00990 94.09039 94.09059
41.4657 41.4450 120.0 0.00834 94.07502 94.07523
41.4824 41.4617 109.0 0.00917 94.05967 94.05987
41.4991 41.4784 132.0 0.00757 94.04431 94.04452
41.5159 41.4952 114.0 0.00877 94.02886 94.02906
41.5326 41.5119 122.0 0.00819 94.01350 94.01371
41.5493 41.5286 133.0 0.00752 93.99815 93.99835
41.5660 41.5453 117.0 0.00854 93.98280 93.98299
41.5827 41.5620 128.0 0.00782 93.96745 93.96764
41.5995 41.5788 136.0 0.00736 93.95199 93.95219
41.6162 41.5955 119.0 0.00840 93.93449 93.93469
41.6329 41.6122 138.0 0.00724 93.90873 93.90894
41.6496 41.6289 128.0 0.00782 93.88297 93.88318
41.6663 41.6456 149.0 0.00671 93.85722 93.85742
41.6830 41.6623 151.0 0.00662 93.83145 93.83166
41.6998 41.6791 182.0 0.00550 93.80554 93.80575
41.7165 41.6958 182.0 0.00550 93.77979 93.77999
41.7332 41.7125 170.0 0.00588 93.75402 93.75422
41.7499 41.7292 193.0 0.00518 93.72826 93.72847
41.7666 41.7459 208.0 0.00481 93.70251 93.70271
41.7834 41.7627 184.0 0.00544 93.67660 93.67680
41.8001 41.7794 187.0 0.00535 93.65083 93.65104
41.8168 41.7961 208.0 0.00481 93.62508 93.62527
41.8335 41.8128 188.0 0.00532 93.59932 93.59952
41.8502 41.8295 172.0 0.00582 93.57357 93.57377
41.8670 41.8463 182.0 0.00550 93.54765 93.54785
41.8837 41.8630 170.0 0.00588 93.52189 96.77945
41.9004 41.8797 191.0 0.00524 93.49613 96.79009
41.9171 41.8964 217.0 0.00461 93.47038 96.80135
41.9338 41.9131 191.0 0.00524 93.44462 96.81323
41.9505 41.9298 211.0 0.00474 93.41885 96.82577
41.9673 41.9466 179.0 0.00559 93.39295 96.83903
41.9840 41.9633 208.0 0.00481 93.36720 96.85288
42.0007 41.9800 216.0 0.00463 93.34143 96.86744
42.0174 41.9967 203.0 0.00492 93.31567 96.88268
42.0341 42.0134 199.0 0.00502 93.28991 96.89864
42.0509 42.0302 192.0 0.00521 93.26400 96.91546
42.0676 42.0469 189.0 0.00529 93.23824 96.93291
42.0843 42.0636 188.0 0.00532 93.21249 96.95116
42.1010 42.0803 200.0 0.00500 93.18673 96.97018
42.1177 42.0970 181.0 0.00553 93.16098 96.99001
42.1345 42.1138 184.0 0.00544 93.13506 97.01080
42.1512 42.1305 173.0 0.00578 93.10930 97.03232
42.1679 42.1472 172.0 0.00582 93.08354 97.05470
42.1846 42.1639 164.0 0.00609 93.05779 97.07798
42.2013 42.1806 164.0 0.00609 93.03203 97.10217
42.2180 42.1973 183.0 0.00546 93.00626 97.12730
42.2348 42.2141 150.0 0.00666 92.98035 97.15356
42.2515 42.2308 158.0 0.00633 92.95461 97.18062
42.2682 42.2475 152.0 0.00658 92.92883 97.20872
42.2849 42.2642 156.0 0.00641 92.90308 97.23785
42.3016 42.2809 130.0 0.00769 92.87732 97.26803
42.3184 42.2977 129.0 0.00775 92.85140 97.29949
42.3351 42.3144 128.0 0.00782 92.82565 97.33189
42.3518 42.3311 133.0 0.00752 92.79989 103.20473
42.3685 42.3478 125.0 0.00800 92.77413 103.31436
42.3852 42.3645 110.0 0.00909 92.74837 103.42664
42.4019 42.3812 121.0 0.00826 92.72263 103.54163
42.4187 42.3980 108.0 0.00926 92.69670 103.66022
42.4354 42.4147 117.0 0.00854 92.67094 103.78092
42.4521 42.4314 106.0 0.00943 92.64519 103.90460
42.4688 42.4481 113.0 0.00885 92.61943 104.03130
42.4855 42.4648 101.0 0.00990 92.59367 104.16116
42.5023 42.4816 114.0 0.00877 92.56776 104.29497
42.5190 42.4983 100.0 0.01000 92.54202 104.43127
42.5357 42.5150 107.0 0.00935 92.51624 104.57108
42.5524 42.5317 104.0 0.00961 92.49048 104.71427
42.5691 42.5484 107.0 0.00935 92.46472 104.86105
42.5859 42.5652 108.0 0.00926 92.43881 105.01244
42.6026 42.5819 107.0 0.00935 92.41305 105.16669
42.6193 42.5986 118.0 0.00848 92.38730 105.32485
42.6360 42.6153 108.0 0.00926 92.36153 105.48701
42.6527 42.6320 110.0 0.00909 92.33578 105.65330
42.6694 42.6487 111.0 0.00900 92.31003 105.82377
42.6862 42.6655 116.0 0.00862 92.28410 105.99981
42.7029 42.6822 90.0 0.01111 92.25835 106.17924
42.7196 42.6989 115.0 0.00870 92.23260 106.36330
42.7363 42.7156 90.0 0.01111 92.20683 106.55220
42.7530 42.7323 98.0 0.01021 92.18108 106.74599
42.7698 42.7491 95.0 0.01053 92.15517 106.94601
42.7865 42.7658 108.0 0.00926 92.12942 107.15005
42.8032 42.7825 100.0 0.01000 92.10365 107.35970
42.8199 42.7992 107.0 0.00935 92.07789 107.57480
42.8366 42.8159 98.0 0.01021 92.05213 107.79562
42.8534 42.8327 112.0 0.00893 92.02621 108.02380
42.8701 42.8494 88.0 0.01136 92.00046 108.25674
42.8868 42.8661 95.0 0.01053 91.97470 108.49598
42.9035 42.8828 90.0 0.01111 91.94894 108.74177
42.9202 42.8995 100.0 0.01000 91.92319 108.99430
42.9369 42.9162 114.0 0.00877 91.89744 109.25373
42.9537 42.9330 117.0 0.00854 91.87151 109.52218
42.9704 42.9497 96.0 0.01042 91.84576 109.79639
42.9871 42.9664 122.0 0.00819 91.82000 110.07832
43.0038 42.9831 97.0 0.01031 91.79424 110.36831
43.0205 42.9998 97.0 0.01031 91.76848 110.66647
43.0373 43.0166 124.0 0.00806 91.74257 110.97500
43.0540 43.0333 101.0 0.00990 91.71683 111.29050
43.0707 43.0500 121.0 0.00826 91.69106 111.61547
43.0874 43.0667 110.0 0.00909 91.66529 111.94975
43.1041 43.0834 108.0 0.00926 91.63953 112.29386
43.1209 43.1002 83.0 0.01205 91.61362 112.65041
43.1376 43.1169 92.0 0.01087 91.58786 113.01537
43.1543 43.1336 91.0 0.01099 91.56211 113.39134
43.1710 43.1503 91.0 0.01099 91.53635 113.77870
43.1877 43.1670 90.0 0.01111 91.51060 114.17790
43.2044 43.1837 115.0 0.00870 91.48484 114.58927
43.2212 43.2005 90.0 0.01111 91.45892 115.01630
43.2379 43.2172 88.0 0.01136 91.43317 115.45392
43.2546 43.2339 92.0 0.01087 91.40740 115.90533
43.2713 43.2506 88.0 0.01136 91.38164 116.37125
43.2880 43.2673 104.0 0.00961 91.35589 116.85197
43.3048 43.2841 104.0 0.00961 91.32998 117.35119
43.3215 43.3008 102.0 0.00980 91.30423 117.86359
43.3382 43.3175 115.0 0.00870 91.27846 118.39333
43.3549 43.3342 108.0 0.00926 91.25269 118.94034
43.3716 43.3509 95.0 0.01053 91.22694 119.50569
43.3884 43.3677 114.0 0.00877 91.20103 120.09382
43.4051 43.3844 121.0 0.00826 91.17527 120.69838
43.4218 43.4011 122.0 0.00819 91.14951 121.32378
43.4385 43.4178 110.0 0.00909 91.12376 121.97096
43.4552 43.4345 110.0 0.00909 91.09800 122.64089
43.4719 43.4512 94.0 0.01064 91.07225 123.33441
43.4887 43.4680 96.0 0.01042 91.04633 124.05772
43.5054 43.4847 122.0 0.00819 91.02057 124.80253
43.5221 43.5014 116.0 0.00862 90.99481 125.57465
43.5388 43.5181 103.0 0.00971 90.96905 126.37558
43.5555 43.5348 117.0 0.00854 90.94329 127.20626
43.5723 43.5516 102.0 0.00980 90.91738 128.07350
43.5890 43.5683 127.0 0.00787 90.89163 128.96855
43.6057 43.5850 124.0 0.00806 90.86587 129.89905
43.6224 43.6017 103.0 0.00971 90.84010 130.86543
43.6391 43.6184 121.0 0.00826 90.81435 131.87010
43.6559 43.6352 115.0 0.00870 90.78844 132.92160
43.6726 43.6519 113.0 0.00885 90.76267 134.00925
43.6893 43.6686 110.0 0.00909 90.73692 135.14157
43.7060 43.6853 132.0 0.00757 90.71116 136.32103
43.7227 43.7020 124.0 0.00806 90.68540 137.55017
43.7394 43.7187 94.0 0.01064 90.65965 138.83142
43.7562 43.7355 130.0 0.00769 90.63373 140.17725
43.7729 43.7522 122.0 0.00819 90.60798 141.57329
43.7896 43.7689 123.0 0.00813 90.58221 143.03137
43.8063 43.7856 119.0 0.00840 90.55645 144.55562
43.8230 43.8023 140.0 0.00715 90.53070 146.14906
43.8398 43.8191 123.0 0.00813 90.50479 147.82635
43.8565 43.8358 140.0 0.00715 90.47904 149.57205
43.8732 43.8525 138.0 0.00724 90.45327 151.40271
43.8899 43.8692 110.0 0.00909 90.42751 153.32100
43.9066 43.8859 119.0 0.00840 90.40176 155.33371
43.9234 43.9027 131.0 0.00763 90.37584 157.46034
43.9401 43.9194 152.0 0.00658 90.35008 159.68172
43.9568 43.9361 161.0 0.00621 90.32433 162.01776
43.9735 43.9528 162.0 0.00617 90.29857 164.47644
43.9902 43.9695 149.0 0.00671 90.27281 167.06638
44.0069 43.9862 152.0 0.00658 90.24706 169.79613
44.0237 44.0030 161.0 0.00621 90.22114 172.69661
44.0404 44.0197 157.0 0.00637 90.19538 175.74121
44.0571 44.0364 163.0 0.00613 90.16962 178.96025
44.0738 44.0531 159.0 0.00629 90.14386 182.36821
44.0905 44.0698 176.0 0.00568 90.11810 185.97784
44.1073 44.0866 159.0 0.00629 90.09219 189.82942
44.1240 44.1033 177.0 0.00565 90.06644 193.89496
44.1407 44.1200 168.0 0.00595 90.04067 198.22092
44.1574 44.1367 178.0 0.00562 90.01492 202.82298
44.1741 44.1534 179.0 0.00559 89.98916 207.72783
44.1909 44.1702 208.0 0.00481 89.96324 212.99565
44.2076 44.1869 198.0 0.00505 89.93748 218.59227
44.2243 44.2036 177.0 0.00565 89.91174 224.58235
44.2410 44.2203 183.0 0.00546 89.88597 231.00330
44.2577 44.2370 200.0 0.00500 89.86021 237.89719
44.2744 44.2537 203.0 0.00492 89.83447 245.30899
44.2912 44.2705 241.0 0.00415 89.80854 253.34972
44.3079 44.2872 204.0 0.00490 89.78279 261.97507
44.3246 44.3039 262.0 0.00382 89.75703 271.30298
44.3413 44.3206 233.0 0.00429 89.73126 281.41431
44.3580 44.3373 300.0 0.003334 89.70551 292.39212
44.3748 44.3541 269.0 0.00372 89.67960 304.41394
44.3915 44.3708 279.0 0.00359 89.65385 317.45374
44.4082 44.3875 273.0 0.00366 89.62808 331.73007
44.4249 44.4042 301.0 0.003322 89.60232 347.37943
44.4416 44.4209 304.0 0.003288 89.57657 364.59241
44.4583 44.4376 295.0 0.003388 89.55080 383.58261
44.4751 44.4544 342.0 0.002925 89.52489 404.73752
44.4918 44.4711 403.0 0.002483 89.49914 428.09888
44.5085 44.4878 428.0 0.002336 89.47338 454.14722
44.5252 44.5045 414.0 0.002415 89.44762 483.31842
44.5419 44.5212 474.0 0.002110 89.42188 516.14478
44.5587 44.5380 521.0 0.001919 89.39595 553.59729
44.5754 44.5547 539.0 0.001855 89.37019 596.12531
44.5921 44.5714 659.0 0.001518 89.34444 645.25421
44.6088 44.5881 711.0 0.001407 89.31867 702.88617
44.6255 44.6048 777.0 0.001287 89.29292 771.78430
44.6423 44.6216 934.0 0.001071 89.26701 856.69452
44.6590 44.6383 1024.0 0.000977 89.24126 962.82037
44.6757 44.6550 1167.0 0.000857 89.21548 1099.70850
44.6924 44.6717 1366.0 0.000732 89.18973 1279.64026
44.7091 44.6884 1653.0 0.000605 89.16397 1519.27637
44.7258 44.7051 1989.0 0.000503 89.13821 1839.60510
44.7426 44.7219 2438.0 0.000410 89.11230 2268.73291
44.7593 44.7386 3042.0 0.0003288 89.08654 2829.80884
44.7760 44.7553 3758.0 0.0002661 89.06078 3554.64307
44.7927 44.7720 4718.0 0.0002119 89.03503 4471.16406
44.8094 44.7887 5942.0 0.0001683 89.00928 5600.68115
44.8262 44.8055 7057.0 0.0001417 88.98335 6961.03223
44.8429 44.8222 8658.0 0.0001155 88.95760 8516.34473
44.8596 44.8389 10488.0 0.0000954 88.93184 10216.23340
44.8763 44.8556 12435.0 0.0000804 88.90607 11956.34180
44.8930 44.8723 14136.0 0.0000707 88.88033 13603.27441
44.9098 44.8891 16349.0 0.0000611 88.85441 15047.42383
44.9265 44.9058 17820.0 0.0000561 88.82866 16188.99805
44.9432 44.9225 18629.0 0.0000537 88.80289 16955.37305
44.9599 44.9392 18804.0 0.0000532 88.77713 17215.85938
44.9766 44.9559 18009.0 0.0000555 88.75138 16824.29688
44.9933 44.9726 16915.0 0.0000591 88.72562 15730.91406
45.0101 44.9894 14353.0 0.0000697 88.69971 14051.75879
45.0268 45.0061 11879.0 0.0000842 88.67395 12058.42871
45.0435 45.0228 9944.0 0.0001006 88.64819 9995.36621
45.0602 45.0395 7837.0 0.0001276 88.62244 8050.26563
45.0769 45.0562 6282.0 0.0001592 88.59669 6337.03418
45.0937 45.0730 4869.0 0.0002054 88.57076 4899.21436
45.1104 45.0897 3804.0 0.0002629 88.54501 3763.35156
45.1271 45.1064 3115.0 0.0003211 88.51925 2895.86304
45.1438 45.1231 2570.0 0.000389 88.49348 2255.26147
45.1605 45.1398 2060.0 0.000485 88.46773 1794.03357
45.1773 45.1566 1685.0 0.000593 88.44182 1464.42395
45.1940 45.1733 1496.0 0.000668 88.41607 1231.23376
45.2107 45.1900 1240.0 0.000807 88.39030 1062.02942
45.2274 45.2067 1060.0 0.000943 88.36454 935.69299
45.2441 45.2234 943.0 0.001060 88.33878 837.75433
45.2608 45.2401 890.0 0.001124 88.31303 759.00879
45.2776 45.2569 734.0 0.001363 88.28711 693.34393
45.2943 45.2736 662.0 0.001510 88.26135 637.97473
45.3110 45.2903 635.0 0.001575 88.23560 590.19604
45.3277 45.3070 550.0 0.001819 88.20984 548.49451
45.3444 45.3237 475.0 0.002106 88.18409 511.80936
45.3612 45.3405 491.0 0.002036 88.15816 479.11987
45.3779 45.3572 453.0 0.002208 88.13241 450.22375
45.3946 45.3739 412.0 0.002427 88.10665 424.39212
45.4113 45.3906 371.0 0.002696 88.08089 401.20105
45.4280 45.4073 330.0 0.003029 88.05513 380.31577
45.4448 45.4241 345.0 0.002900 88.02922 361.33145
45.4615 45.4408 300.0 0.003334 88.00347 344.22479
45.4782 45.4575 302.0 0.003311 87.97770 328.65039
45.4949 45.4742 267.0 0.00375 87.95194 314.45151
45.5116 45.4909 260.0 0.00385 87.92619 301.46378
45.5283 45.5076 260.0 0.00385 87.90043 289.55362
45.5451 45.5244 246.0 0.00407 87.87452 278.54083
45.5618 45.5411 228.0 0.00439 87.84875 268.45865
45.5785 45.5578 221.0 0.00452 87.82300 259.14923
45.5952 45.5745 230.0 0.00435 87.79725 250.53558
45.6119 45.5912 207.0 0.00483 87.77150 242.55237
45.6287 45.6080 215.0 0.00465 87.74557 235.08931
45.6454 45.6247 223.0 0.00449 87.71981 228.19121
45.6621 45.6414 206.0 0.00486 87.69406 221.76186
45.6788 45.6581 188.0 0.00532 87.66830 215.75798
45.6955 45.6748 200.0 0.00500 87.64253 210.14600
45.7123 45.6916 187.0 0.00535 87.61663 204.86121
45.7290 45.7083 171.0 0.00585 87.59088 199.93660
45.7457 45.7250 158.0 0.00633 87.56510 195.30824
45.7624 45.7417 155.0 0.00645 87.53935 190.95905
45.7791 45.7584 159.0 0.00629 87.51360 186.86455
45.7958 45.7751 161.0 0.00621 87.48784 183.00516
45.8126 45.7919 169.0 0.00592 87.46192 179.34138
45.8293 45.8086 163.0 0.00613 87.43616 175.90181
45.8460 45.8253 159.0 0.00629 87.41041 172.64876
45.8627 45.8420 155.0 0.00645 87.38465 169.56891
45.8794 45.8587 150.0 0.00666 87.35890 166.65094
45.8962 45.8755 128.0 0.00782 87.33298 163.86469
45.9129 45.8922 131.0 0.00763 87.30722 161.23642
45.9296 45.9089 148.0 0.00675 87.28146 158.73853
45.9463 45.9256 117.0 0.00854 87.25570 156.36177
45.9630 45.9423 134.0 0.00746 87.22994 154.09970
45.9798 45.9591 123.0 0.00813 87.20403 151.93204
45.9965 45.9758 140.0 0.00715 87.17828 149.87787
46.0132 45.9925 131.0 0.00763 87.15251 147.91582
46.0299 46.0092 127.0 0.00787 87.12675 146.04308
46.0466 46.0259 126.0 0.00794 87.10100 144.25322
46.0633 46.0426 145.0 0.00690 87.07524 142.54135
46.0801 46.0594 122.0 0.00819 87.04933 140.89311
46.0968 46.0761 112.0 0.00893 87.02357 139.32439
46.1135 46.0928 121.0 0.00826 86.99781 137.82100
46.1302 46.1095 115.0 0.00870 86.97205 136.37933
46.1469 46.1262 125.0 0.00800 86.94630 134.99635
46.1637 46.1430 109.0 0.00917 86.92039 133.65976
46.1804 46.1597 122.0 0.00819 86.89462 132.38408
46.1971 46.1764 115.0 0.00870 86.86887 131.15784
46.2138 46.1931 105.0 0.00952 86.84311 129.97813
46.2305 46.2098 108.0 0.00926 86.81734 128.84325
46.2473 46.2266 127.0 0.00787 86.79144 127.74429
46.2640 46.2433 129.0 0.00775 86.76569 126.69224
46.2807 46.2600 127.0 0.00787 86.73991 125.67738
46.2974 46.2767 105.0 0.00952 86.71416 124.69939
46.3141 46.2934 111.0 0.00900 86.68840 123.75586
46.3308 46.3101 101.0 0.00990 86.66265 122.84521
46.3476 46.3269 97.0 0.01031 86.63673 121.96052
46.3643 46.3436 120.0 0.00834 86.61097 121.11116
46.3810 46.3603 107.0 0.00935 86.58522 120.29027
46.3977 46.3770 95.0 0.01053 86.55946 119.49654
46.4144 46.3937 114.0 0.00877 86.53371 118.72897
46.4312 46.4105 96.0 0.01042 86.50779 117.98125
46.4479 46.4272 117.0 0.00854 86.48203 117.26208
46.4646 46.4439 125.0 0.00800 86.45628 116.56557
46.4813 46.4606 104.0 0.00961 86.43051 115.89053
46.4980 46.4773 97.0 0.01031 86.40475 115.23646
46.5147 46.4940 108.0 0.00926 86.37900 114.60226
46.5315 46.5108 93.0 0.01075 86.35310 113.98376
46.5482 46.5275 102.0 0.00980 86.32732 113.38663
46.5649 46.5442 101.0 0.00990 86.30157 112.80738
46.5816 46.5609 99.0 0.01010 86.27581 112.24493
46.5983 46.5776 98.0 0.01021 86.25005 111.71058
46.6151 46.5944 111.0 0.00900 86.22414 111.17670
46.6318 46.6111 99.0 0.01010 86.19838 110.66100
46.6485 46.6278 101.0 0.00990 86.17262 110.15960
46.6652 46.6445 124.0 0.00806 86.14687 109.67197
46.6819 46.6612 131.0 0.00763 86.12112 109.19768
46.6987 46.6780 91.0 0.01099 86.09520 108.73306
46.7154 46.6947 97.0 0.01031 86.06944 108.28370
46.7321 46.7114 109.0 0.00917 86.04368 107.84614
46.7488 46.7281 96.0 0.01042 86.01792 107.41982
46.7655 46.7448 106.0 0.00943 85.99216 107.00456
46.7822 46.7615 94.0 0.01064 85.96640 106.59987
46.7990 46.7783 92.0 0.01087 85.94050 106.20319
46.8157 46.7950 95.0 0.01053 85.91473 105.81831
46.8324 46.8117 92.0 0.01087 85.88898 105.44313
46.8491 46.8284 104.0 0.00961 85.86321 105.07710
46.8658 46.8451 98.0 0.01021 85.83746 104.71989
46.8826 46.8619 95.0 0.01053 85.81155 104.36908
46.8993 46.8786 92.0 0.01087 85.78578 104.02867
46.9160 46.8953 95.0 0.01053 85.76003 103.69623
46.9327 46.9120 76.0 0.01316 85.73427 103.37145
46.9494 46.9287 87.0 0.01150 85.70853 103.05424
46.9662 46.9455 128.0 0.00782 85.68260 102.74213
46.9829 46.9622 83.0 0.01205 85.65685 102.43900
46.9996 46.9789 86.0 0.01163 85.63109 102.14259
47.0163 46.9956 108.0 0.00926 85.60532 101.85262
47.0330 47.0123 97.0 0.01031 85.57956 101.56905
47.0497 47.0290 99.0 0.01010 85.55381 101.29159
47.0665 47.0458 111.0 0.00900 85.52791 101.01855
47.0832 47.0625 118.0 0.00848 85.50214 100.75263
47.0999 47.0792 101.0 0.00990 85.47638 100.49242
47.1166 47.0959 95.0 0.01053 85.45062 100.23759
47.1333 47.1126 91.0 0.01099 85.42487 99.98801
47.1501 47.1294 113.0 0.00885 85.39896 99.74200
47.1668 47.1461 96.0 0.01042 85.37319 99.50242
47.1835 47.1628 88.0 0.01136 85.34743 99.26762
47.2002 47.1795 114.0 0.00877 85.32168 99.03745
47.2169 47.1962 111.0 0.00900 85.29593 98.81185
47.2337 47.2130 97.0 0.01031 85.27001 99.34698
47.2504 47.2297 106.0 0.00943 85.24425 99.13744
47.2671 47.2464 106.0 0.00943 85.21849 98.93211
47.2838 47.2631 90.0 0.01111 85.19273 98.73085
47.3005 47.2798 99.0 0.01010 85.16697 98.53367
47.3172 47.2965 106.0 0.00943 85.14121 98.34038
47.3340 47.3133 102.0 0.00980 85.11531 98.14983
47.3507 47.3300 84.0 0.01191 85.08954 97.96396
47.3674 47.3467 93.0 0.01075 85.06379 97.78181
47.3841 47.3634 72.0 0.01389 85.03802 97.60316
47.4008 47.3801 95.0 0.01053 85.01227 97.42794
47.4176 47.3969 86.0 0.01163 84.98636 97.25500
47.4343 47.4136 116.0 0.00862 84.96059 97.08641
47.4510 47.4303 96.0 0.01042 84.93484 96.92099
47.4677 47.4470 86.0 0.01163 84.90908 96.75867
47.4844 47.4637 88.0 0.01136 84.88334 96.59943
47.5012 47.4805 98.0 0.01021 84.85741 96.44210
47.5179 47.4972 101.0 0.00990 84.83166 96.28867
47.5346 47.5139 116.0 0.00862 84.80590 96.13808
47.5513 47.5306 103.0 0.00971 84.78014 96.73024
47.5680 47.5473 91.0 0.01099 84.75437 96.59335
47.5847 47.5640 86.0 0.01163 84.72862 96.45927
47.6015 47.5808 96.0 0.01042 84.70272 96.32719
47.6182 47.5975 111.0 0.00900 84.67695 96.19843
47.6349 47.6142 106.0 0.00943 84.65119 96.07238
47.6516 47.6309 96.0 0.01042 84.62543 95.94890
47.6683 47.6476 100.0 0.01000 84.59968 95.82795
47.6851 47.6644 95.0 0.01053 84.57376 95.70877
47.7018 47.6811 75.0 0.01333 84.54800 95.59277
47.7185 47.6978 99.0 0.01010 84.52225 95.47916
47.7352 47.7145 93.0 0.01075 84.49649 95.36793
47.7519 47.7312 83.0 0.01205 84.47074 95.25906
47.7687 47.7480 88.0 0.01136 84.44482 95.15176
47.7854 47.7647 94.0 0.01064 84.41906 95.04742
47.8021 47.7814 109.0 0.00917 84.39330 94.94532
47.8188 47.7981 86.0 0.01163 84.36754 94.84537
47.8355 47.8148 91.0 0.01099 84.34178 94.74763
47.8522 47.8315 93.0 0.01075 84.31602 94.65204
47.8690 47.8483 91.0 0.01099 84.29012 94.55804
47.8857 47.8650 102.0 0.00980 84.26435 94.46661
47.9024 47.8817 76.0 0.01316 84.23860 86.40699
47.9191 47.8984 107.0 0.00935 84.21284 86.40888
47.9358 47.9151 86.0 0.01163 84.18708 86.41132
47.9526 47.9319 94.0 0.01064 84.16116 86.41434
47.9693 47.9486 81.0 0.01235 84.13541 86.41792
47.9860 47.9653 98.0 0.01021 84.10966 87.24572
48.0027 47.9820 93.0 0.01075 84.08389 87.26105
48.0194 47.9987 78.0 0.01282 84.05814 87.27718
48.0362 48.0155 91.0 0.01099 84.03223 87.29430
48.0529 48.0322 73.0 0.01370 84.00646 87.31216
48.0696 48.0489 99.0 0.01010 83.98071 87.33095
48.0863 48.0656 94.0 0.01064 83.95495 87.35067
48.1030 48.0823 104.0 0.00961 83.92918 87.37133
48.1197 48.0990 89.0 0.01124 83.90343 87.39297
48.1365 48.1158 94.0 0.01064 83.87753 87.41578
48.1532 48.1325 97.0 0.01031 83.85176 87.43950
48.1699 48.1492 81.0 0.01235 83.82600 87.46429
48.1866 48.1659 106.0 0.00943 83.80025 87.49019
48.2033 48.1826 89.0 0.01124 83.77449 87.51723
48.2201 48.1994 91.0 0.01099 83.74857 87.54565
48.2368 48.2161 124.0 0.00806 83.72282 87.57510
48.2535 48.2328 97.0 0.01031 83.69706 87.60582
48.2702 48.2495 99.0 0.01010 83.67130 87.63784
48.2869 48.2662 79.0 0.01266 83.64555 87.67119
48.3037 48.2830 92.0 0.01087 83.61963 87.70618
48.3204 48.2997 79.0 0.01266 83.59387 87.74239
48.3371 48.3164 94.0 0.01064 83.56812 87.78008
48.3538 48.3331 108.0 0.00926 83.54235 87.81934
48.3705 48.3498 102.0 0.00980 83.51659 87.86021
48.3872 48.3665 88.0 0.01136 83.49084 87.90269
48.4040 48.3833 89.0 0.01124 83.46494 87.94717
48.4207 48.4000 95.0 0.01053 83.43916 87.99324
48.4374 48.4167 96.0 0.01042 83.41341 88.04115
48.4541 48.4334 95.0 0.01053 83.38765 88.09097
48.4708 48.4501 81.0 0.01235 83.36189 88.14284
48.4876 48.4669 74.0 0.01351 83.33598 88.19714
48.5043 48.4836 86.0 0.01163 83.31022 88.25330
48.5210 48.5003 110.0 0.00909 83.28447 88.31177
48.5377 48.5170 108.0 0.00926 83.25871 88.37263
48.5544 48.5337 100.0 0.01000 83.23296 88.43600
48.5711 48.5504 101.0 0.00990 83.20719 88.50204
48.5879 48.5672 107.0 0.00935 83.18127 88.57124
48.6046 48.5839 89.0 0.01124 83.15553 88.64294
48.6213 48.6006 106.0 0.00943 83.12975 88.71774
48.6380 48.6173 110.0 0.00909 83.10400 88.79576
48.6547 48.6340 86.0 0.01163 83.07825 88.87724
48.6715 48.6508 81.0 0.01235 83.05235 88.96281
48.6882 48.6675 105.0 0.00952 83.02657 89.05186
48.7049 48.6842 92.0 0.01087 83.00082 89.14501
48.7216 48.7009 108.0 0.00926 82.97505 89.24256
48.7383 48.7176 98.0 0.01021 82.94930 89.34487
48.7551 48.7344 114.0 0.00877 82.92338 89.45298
48.7718 48.7511 90.0 0.01111 82.89763 89.56600
48.7885 48.7678 95.0 0.01053 82.87187 89.68503
48.8052 48.7845 97.0 0.01031 82.84612 89.81066
48.8219 48.8012 102.0 0.00980 82.82036 89.94349
48.8386 48.8179 73.0 0.01370 82.79459 90.08446
48.8554 48.8347 106.0 0.00943 82.76868 90.23516
48.8721 48.8514 77.0 0.01299 82.74293 90.39507
48.8888 48.8681 96.0 0.01042 82.71716 90.56646
48.9055 48.8848 81.0 0.01235 82.69141 90.75109
48.9222 48.9015 87.0 0.01150 82.66565 90.95159
48.9390 48.9183 106.0 0.00943 82.63975 91.17310
48.9557 48.9350 93.0 0.01075 82.61398 91.41956
48.9724 48.9517 98.0 0.01021 82.58822 91.70204
48.9891 48.9684 87.0 0.01150 82.56246 92.03745
49.0058 48.9851 91.0 0.01099 82.53671 92.45271
49.0226 49.0019 90.0 0.01111 82.51079 92.99285
49.0393 49.0186 109.0 0.00917 82.48503 93.71075
49.0560 49.0353 120.0 0.00834 82.45927 94.68762
49.0727 49.0520 106.0 0.00943 82.43352 96.01685
49.0894 49.0687 115.0 0.00870 82.40777 97.79492
49.1061 49.0854 113.0 0.00885 82.38200 100.10505
49.1229 49.1022 117.0 0.00854 82.35609 102.99995
49.1396 49.1189 113.0 0.00885 82.33033 106.41070
49.1563 49.1356 105.0 0.00952 82.30457 110.21380
49.1730 49.1523 123.0 0.00813 82.27881 114.13553
49.1897 49.1690 123.0 0.00813 82.25306 117.74947
49.2065 49.1858 122.0 0.00819 82.22713 120.50629
49.2232 49.2025 112.0 0.00893 82.20139 121.80225
49.2399 49.2192 112.0 0.00893 82.17562 121.37390
49.2566 49.2359 105.0 0.00952 82.14986 119.40582
49.2733 49.2526 103.0 0.00971 82.12411 116.42559
49.2901 49.2694 120.0 0.00834 82.09819 112.99686
49.3068 49.2861 121.0 0.00826 82.07244 109.62794
49.3235 49.3028 112.0 0.00893 82.04668 106.60510
49.3402 49.3195 104.0 0.00961 82.02093 104.09692
49.3569 49.3362 118.0 0.00848 81.99517 102.16254
49.3736 49.3529 112.0 0.00893 81.96940 100.77845
49.3904 49.3697 122.0 0.00819 81.94350 99.87079
49.4071 49.3864 104.0 0.00961 81.91774 99.35448
49.4238 49.4031 124.0 0.00806 81.89197 99.12849
49.4405 49.4198 107.0 0.00935 81.86622 99.11178
49.4572 49.4365 97.0 0.01031 81.84046 99.24180
49.4740 49.4533 98.0 0.01021 81.81456 99.47627
49.4907 49.4700 108.0 0.00926 81.78879 99.78415
49.5074 49.4867 113.0 0.00885 81.76303 100.14887
49.5241 49.5034 93.0 0.01075 81.73727 100.56068
49.5408 49.5201 115.0 0.00870 81.71152 101.01434
49.5576 49.5369 109.0 0.00917 81.68560 101.51046
49.5743 49.5536 89.0 0.01124 81.65984 102.04207
49.5910 49.5703 102.0 0.00980 81.63409 102.61214
49.6077 49.5870 102.0 0.00980 81.60833 103.22137
49.6244 49.6037 106.0 0.00943 81.58258 103.87076
49.6411 49.6204 105.0 0.00952 81.55681 104.56268
49.6579 49.6372 115.0 0.00870 81.53090 105.30249
49.6746 49.6539 109.0 0.00917 81.50514 106.08433
49.6913 49.6706 113.0 0.00885 81.47938 106.91522
49.7080 49.6873 111.0 0.00900 81.45362 107.79770
49.7247 49.7040 110.0 0.00909 81.42787 108.73512
49.7415 49.7208 128.0 0.00782 81.40195 109.73840
49.7582 49.7375 135.0 0.00741 81.37620 110.79874
49.7749 49.7542 131.0 0.00763 81.35043 111.92704
49.7916 49.7709 118.0 0.00848 81.32468 113.12854
49.8083 49.7876 127.0 0.00787 81.29892 114.40908
49.8251 49.8044 118.0 0.00848 81.27300 115.78380
49.8418 49.8211 122.0 0.00819 81.24725 117.24318
49.8585 49.8378 138.0 0.00724 81.22149 118.80336
49.8752 49.8545 123.0 0.00813 81.19574 120.47334
49.8919 49.8712 148.0 0.00675 81.16998 122.26260
49.9086 49.8879 151.0 0.00662 81.14421 124.18460
49.9254 49.9047 134.0 0.00746 81.11831 126.26172
49.9421 49.9214 119.0 0.00840 81.09254 128.48515
49.9588 49.9381 127.0 0.00787 81.06678 130.88332
49.9755 49.9548 120.0 0.00834 81.04103 133.47293
49.9922 49.9715 119.0 0.00840 81.01527 136.27521
50.0090 49.9883 159.0 0.00629 80.98937 139.33113
50.0257 50.0050 145.0 0.00690 80.96360 142.63580
50.0424 50.0217 163.0 0.00613 80.93784 146.23215
50.0591 50.0384 133.0 0.00752 80.91209 150.15720
50.0758 50.0551 150.0 0.00666 80.88633 154.45152
50.0926 50.0719 153.0 0.00654 80.86041 159.19247
50.1093 50.0886 185.0 0.00541 80.83466 164.37711
50.1260 50.1053 181.0 0.00553 80.80890 170.09706
50.1427 50.1220 166.0 0.00603 80.78314 176.42746
50.1594 50.1387 180.0 0.00555 80.75739 183.45502
50.1761 50.1554 189.0 0.00529 80.73162 191.29460
50.1929 50.1722 197.0 0.00507 80.70571 200.11728
50.2096 50.1889 213.0 0.00470 80.67995 209.98262
50.2263 50.2056 211.0 0.00474 80.65419 221.14047
50.2430 50.2223 236.0 0.00424 80.62843 233.84343
50.2597 50.2390 237.0 0.00422 80.60268 248.44460
50.2765 50.2558 243.0 0.00411 80.57676 265.58032
50.2932 50.2725 318.0 0.003146 80.55101 285.79410
50.3099 50.2892 339.0 0.002950 80.52525 310.35541
50.3266 50.3059 385.0 0.002598 80.49949 341.05896
50.3433 50.3226 397.0 0.002520 80.47373 380.62048
50.3601 50.3394 434.0 0.002305 80.44781 433.39853
50.3768 50.3561 556.0 0.001799 80.42207 504.39276
50.3935 50.3728 623.0 0.001605 80.39630 601.38348
50.4102 50.3895 852.0 0.001174 80.37054 733.78241
50.4269 50.4062 992.0 0.001008 80.34480 912.48718
50.4436 50.4229 1296.0 0.000772 80.31902 1149.35486
50.4604 50.4397 1509.0 0.000663 80.29312 1456.73694
50.4771 50.4564 1833.0 0.000546 80.26736 1838.58020
50.4938 50.4731 2363.0 0.000423 80.30721 2297.48730
50.5105 50.4898 2844.0 0.000352 80.35126 2823.24365
50.5272 50.5065 3416.0 0.0002927 80.39532 3391.01270
50.5440 50.5233 4016.0 0.0002490 80.43962 3962.11133
50.5607 50.5400 4686.0 0.0002134 80.48370 4477.39600
50.5774 50.5567 4973.0 0.0002011 80.52776 4887.95703
50.5941 50.5734 5290.0 0.0001890 80.57182 5151.55664
50.6108 50.5901 5368.0 0.0001863 80.61588 5232.25391
50.6275 50.6068 5302.0 0.0001886 80.65993 5105.29297
50.6443 50.6236 4729.0 0.0002114 80.70425 4773.17188
50.6610 50.6403 4336.0 0.0002306 80.74831 4284.83301
50.6777 50.6570 3488.0 0.0002867 80.79237 3708.00317
50.6944 50.6737 2891.0 0.0003459 80.83641 3111.48340
50.7111 50.6904 2354.0 0.000425 80.88050 2546.68384
50.7279 50.7072 1835.0 0.000545 80.92481 2043.59241
50.7446 50.7239 1447.0 0.000691 80.96886 1622.32532
50.7613 50.7406 1171.0 0.000854 81.01294 1281.62402
50.7780 50.7573 975.0 0.001026 81.05700 1015.52368
50.7947 50.7740 789.0 0.001267 81.10104 813.34430
50.8115 50.7908 666.0 0.001501 81.14538 661.90900
50.8282 50.8075 602.0 0.001661 81.18943 551.29956
50.8449 50.8242 489.0 0.002046 81.23349 470.08127
50.8616 50.8409 441.0 0.002268 81.27756 409.96268
50.8783 50.8576 418.0 0.002391 81.32160 364.67972
50.8950 50.8743 360.0 0.002779 81.36567 329.72906
50.9118 50.8911 292.0 0.003424 81.40999 301.84317
50.9285 50.9078 281.0 0.00356 81.45405 279.25754
50.9452 50.9245 248.0 0.00403 81.49811 260.39545
50.9619 50.9412 237.0 0.00422 81.54215 244.34131
50.9786 50.9579 229.0 0.00437 81.58624 230.45876
50.9954 50.9747 199.0 0.00502 81.63055 218.27298
51.0121 50.9914 193.0 0.00518 81.67461 207.60600
51.0288 51.0081 182.0 0.00550 81.71868 198.14746
51.0455 51.0248 182.0 0.00550 81.76273 189.72188
51.0622 51.0415 178.0 0.00562 81.80679 182.18103
51.0790 51.0583 188.0 0.00532 81.85109 175.37009
51.0957 51.0750 140.0 0.00715 81.89517 169.26125
51.1124 51.0917 162.0 0.00617 81.93923 163.73856
51.1291 51.1084 174.0 0.00575 81.98328 158.72749
51.1458 51.1251 147.0 0.00681 82.02734 154.16769
51.1625 51.1418 145.0 0.00690 82.07140 150.00739
51.1793 51.1586 154.0 0.00649 82.11573 146.17964
51.1960 51.1753 137.0 0.00731 82.15978 142.69235
51.2127 51.1920 135.0 0.00741 82.20384 139.48764
51.2294 51.2087 141.0 0.00710 82.24789 136.53714
51.2461 51.2254 133.0 0.00752 82.29198 133.81204
51.2629 51.2422 140.0 0.00715 82.33629 131.27988
51.2796 51.2589 117.0 0.00854 82.38034 128.94856
51.2963 51.2756 137.0 0.00731 82.42441 126.78477
51.3130 51.2923 120.0 0.00834 82.46847 124.77432
51.3297 51.3090 119.0 0.00840 82.51251 122.90340
51.3465 51.3258 121.0 0.00826 82.55685 121.14785
51.3632 51.3425 117.0 0.00854 82.60091 119.51972
51.3799 51.3592 114.0 0.00877 82.64497 117.99762
51.3966 51.3759 121.0 0.00826 82.68903 116.57284
51.4133 51.3926 127.0 0.00787 82.73308 115.23746
51.4300 51.4093 131.0 0.00763 82.77714 113.98444
51.4468 51.4261 114.0 0.00877 82.82146 112.80031
51.4635 51.4428 106.0 0.00943 82.86552 111.69375
51.4802 51.4595 111.0 0.00900 82.90958 110.65202
51.4969 51.4762 115.0 0.00870 82.95363 109.67064
51.5136 51.4929 101.0 0.00990 82.99771 108.74417
51.5304 51.5097 111.0 0.00900 83.04202 107.86508
51.5471 51.5264 122.0 0.00819 83.08608 107.03938
51.5638 51.5431 129.0 0.00775 83.13015 106.25832
51.5805 51.5598 93.0 0.01075 83.17420 105.51928
51.5972 51.5765 105.0 0.00952 83.21826 104.81928
51.6140 51.5933 117.0 0.00854 83.26257 104.15220
51.6307 51.6100 98.0 0.01021 83.30665 103.52268
51.6474 51.6267 103.0 0.00971 83.35071 102.92551
51.6641 51.6434 118.0 0.00848 83.39476 102.35834
51.6808 51.6601 104.0 0.00961 83.43882 101.81931
51.6975 51.6768 96.0 0.01042 83.48287 101.30672
51.7143 51.6936 118.0 0.00848 83.52721 100.81611
51.7310 51.7103 109.0 0.00917 83.57127 100.35196
51.7477 51.7270 88.0 0.01136 83.61532 99.90987
51.7644 51.7437 117.0 0.00854 83.65936 99.48869
51.7811 51.7604 100.0 0.01000 83.70345 99.08678
51.7979 51.7772 133.0 0.00752 83.74776 98.70149
51.8146 51.7939 109.0 0.00917 83.79182 98.33602
51.8313 51.8106 121.0 0.00826 83.83588 97.98701
51.8480 51.8273 112.0 0.00893 83.87994 97.65382
51.8647 51.8440 104.0 0.00961 83.92399 97.32371
51.8815 51.8608 115.0 0.00870 83.96833 97.01772
51.8982 51.8775 99.0 0.01010 84.01239 96.72710
51.9149 51.8942 116.0 0.00862 84.05644 96.44917
51.9316 51.9109 111.0 0.00900 84.10050 96.18333
51.9483 51.9276 101.0 0.00990 84.14455 95.92893
51.9650 51.9443 114.0 0.00877 84.18861 95.68547
51.9818 51.9611 111.0 0.00900 84.23294 95.45098
51.9985 51.9778 110.0 0.00909 84.27700 95.22785
52.0152 51.9945 124.0 0.00806 84.32106 95.01414
52.0319 52.0112 96.0 0.01042 84.36510 94.80948
52.0486 52.0279 111.0 0.00900 84.40918 94.61321
52.0654 52.0447 121.0 0.00826 84.45349 94.42417
52.0821 52.0614 118.0 0.00848 84.49756 94.24407
52.0988 52.0781 99.0 0.01010 84.54163 94.07139
52.1155 52.0948 87.0 0.01150 84.58568 93.90590
52.1322 52.1115 122.0 0.00819 84.62974 93.74725
52.1490 52.1283 105.0 0.00952 84.67404 93.59429
52.1657 52.1450 103.0 0.00971 84.71812 93.44839
52.1824 52.1617 91.0 0.01099 84.76218 93.30856
52.1991 52.1784 114.0 0.00877 84.80624 93.17447
52.2158 52.1951 106.0 0.00943 84.85030 93.04591
52.2325 52.2118 92.0 0.01087 84.89435 92.92261
52.2493 52.2286 103.0 0.00971 84.93868 92.80369
52.2660 52.2453 91.0 0.01099 84.98274 92.69036
52.2827 52.2620 106.0 0.00943 85.02679 92.58171
52.2994 52.2787 124.0 0.00806 85.07083 92.47758
52.3161 52.2954 105.0 0.00952 85.11492 92.37769
52.3329 52.3122 108.0 0.00926 85.15923 92.28145
52.3496 52.3289 95.0 0.01053 85.20329 92.18977
52.3663 52.3456 106.0 0.00943 85.24736 92.10191
52.3830 52.3623 106.0 0.00943 85.29142 92.01778
52.3997 52.3790 123.0 0.00813 85.33546 91.93723
52.4165 52.3958 118.0 0.00848 85.37981 91.85960
52.4332 52.4125 105.0 0.00952 85.42387 91.78578
52.4499 52.4292 95.0 0.01053 85.46792 91.71515
52.4666 52.4459 118.0 0.00848 85.51198 91.64759
52.4833 52.4626 114.0 0.00877 85.55603 91.58298
52.5000 52.4793 106.0 0.00943 85.60009 91.52125
52.5168 52.4961 92.0 0.01087 85.64441 91.46191
52.5335 52.5128 105.0 0.00952 85.68848 91.40562
52.5502 52.5295 111.0 0.00900 85.73254 91.35190
52.5669 52.5462 89.0 0.01124 85.77657 91.30067
52.5836 52.5629 108.0 0.00926 85.82066 91.25180
52.6004 52.5797 115.0 0.00870 85.86497 91.20502
52.6171 52.5964 123.0 0.00813 85.90903 91.16078
52.6338 52.6131 115.0 0.00870 85.95310 91.11868
52.6505 52.6298 110.0 0.00909 85.99715 91.07870
52.6672 52.6465 94.0 0.01064 86.04121 91.04076
52.6839 52.6632 108.0 0.00926 86.08525 91.00478
52.7007 52.6800 107.0 0.00935 86.12960 90.97050
52.7174 52.6967 84.0 0.01191 86.17366 90.93829
52.7341 52.7134 100.0 0.01000 86.21771 90.90785
52.7508 52.7301 108.0 0.00926 86.26177 90.87917
52.7675 52.7468 132.0 0.00757 86.30583 90.85215
52.7843 52.7636 110.0 0.00909 86.35015 94.32301
52.8010 52.7803 104.0 0.00961 86.39422 94.33823
52.8177 52.7970 112.0 0.00893 86.43826 94.35563
52.8344 52.8137 123.0 0.00813 86.48232 94.37519
52.8511 52.8304 112.0 0.00893 86.52640 102.20618
52.8679 52.8472 109.0 0.00917 86.57071 102.31815
52.8846 52.8639 111.0 0.00900 86.61476 102.43305
52.9013 52.8806 124.0 0.00806 86.65884 102.55156
52.9180 52.8973 114.0 0.00877 86.70290 102.67361
52.9347 52.9140 98.0 0.01021 86.74696 102.79926
52.9514 52.9307 95.0 0.01053 86.79099 102.92849
52.9682 52.9475 113.0 0.00885 86.83534 103.06224
52.9849 52.9642 115.0 0.00870 86.87939 103.19884
53.0016 52.9809 91.0 0.01099 86.92345 103.33912
53.0183 52.9976 111.0 0.00900 86.96750 103.48312
53.0350 53.0143 134.0 0.00746 87.01157 103.63087
53.0518 53.0311 106.0 0.00943 87.05589 103.78337
53.0685 53.0478 118.0 0.00848 87.09995 103.93876
53.0852 53.0645 111.0 0.00900 87.14400 104.09804
53.1019 53.0812 115.0 0.00870 87.18805 104.26120
53.1186 53.0979 106.0 0.00943 87.23213 104.42845
53.1354 53.1147 110.0 0.00909 87.27644 104.60064
53.1521 53.1314 94.0 0.01064 87.32050 104.77592
53.1688 53.1481 121.0 0.00826 87.36458 104.95540
53.1855 53.1648 110.0 0.00909 87.40863 105.13898
53.2022 53.1815 130.0 0.00769 87.45269 105.32687
53.2189 53.1982 111.0 0.00900 87.49673 105.51900
53.2357 53.2150 109.0 0.00917 87.54107 105.71686
53.2524 53.2317 101.0 0.00990 87.58513 105.91795
53.2691 53.2484 100.0 0.01000 87.62918 106.12357
53.2858 53.2651 104.0 0.00961 87.67325 106.33385
53.3025 53.2818 118.0 0.00848 87.71731 106.54886
53.3193 53.2986 126.0 0.00794 87.76163 106.77001
53.3360 53.3153 108.0 0.00926 87.80569 106.99474
53.3527 53.3320 118.0 0.00848 87.84974 107.22448
53.3694 53.3487 114.0 0.00877 87.89379 107.45926
53.3861 53.3654 120.0 0.00834 87.93787 107.69945
53.4029 53.3822 121.0 0.00826 87.98219 107.94628
53.4196 53.3989 132.0 0.00757 88.02625 108.19714
53.4363 53.4156 108.0 0.00926 88.07030 108.45364
53.4530 53.4323 108.0 0.00926 88.11437 108.71575
53.4697 53.4490 106.0 0.00943 88.15843 108.98369
53.4864 53.4657 119.0 0.00840 88.20247 109.25751
53.5032 53.4825 111.0 0.00900 88.24681 109.53934
53.5199 53.4992 116.0 0.00862 88.29086 109.82564
53.5366 53.5159 121.0 0.00826 88.33492 110.11835
53.5533 53.5326 109.0 0.00917 88.37897 110.41763
53.5700 53.5493 123.0 0.00813 88.42303 110.72367
53.5868 53.5661 120.0 0.00834 88.46737 111.03857
53.6035 53.5828 131.0 0.00763 88.51142 111.35867
53.6202 53.5995 99.0 0.01010 88.55548 111.68605
53.6369 53.6162 117.0 0.00854 88.59953 112.02084
53.6536 53.6329 114.0 0.00877 88.64361 112.36363
53.6704 53.6497 119.0 0.00840 88.68792 112.71621
53.6871 53.6664 127.0 0.00787 88.73198 113.07491
53.7038 53.6831 111.0 0.00900 88.77605 113.44209
53.7205 53.6998 100.0 0.01000 88.82011 113.81780
53.7372 53.7165 112.0 0.00893 88.86416 114.20236
53.7539 53.7332 123.0 0.00813 88.90820 114.59595
53.7707 53.7500 134.0 0.00746 88.95255 115.00170
53.7874 53.7667 128.0 0.00782 88.99660 115.41460
53.8041 53.7834 123.0 0.00813 89.04066 115.83749
53.8208 53.8001 131.0 0.00763 89.08472 116.27071
53.8375 53.8168 111.0 0.00900 89.12878 116.71459
53.8543 53.8336 107.0 0.00935 89.17310 117.17227
53.8710 53.8503 107.0 0.00935 89.21716 117.63853
53.8877 53.8670 120.0 0.00834 89.26122 118.11652
53.9044 53.8837 133.0 0.00752 89.30527 118.60648
53.9211 53.9004 112.0 0.00893 89.34935 119.10939
53.9379 53.9172 107.0 0.00935 89.39366 119.62800
53.9546 53.9339 118.0 0.00848 89.43772 120.15701
53.9713 53.9506 98.0 0.01021 89.48178 120.70001
53.9880 53.9673 122.0 0.00819 89.52584 121.25721
54.0047 53.9840 130.0 0.00769 89.56990 121.82927
54.0214 54.0007 119.0 0.00840 89.61395 122.41650
54.0382 54.0175 131.0 0.00763 89.65829 123.02377
54.0549 54.0342 114.0 0.00877 89.70234 121.85834
54.0716 54.0509 127.0 0.00787 89.74640 122.51259
54.0883 54.0676 127.0 0.00787 89.79046 123.18438
54.1050 54.0843 114.0 0.00877 89.83451 123.87434
54.1218 54.1011 104.0 0.00961 89.87885 124.58765
54.1385 54.1178 127.0 0.00787 89.92290 125.31631
54.1552 54.1345 127.0 0.00787 89.96696 126.06542
54.1719 54.1512 136.0 0.00736 90.01100 126.83556
54.1886 54.1679 116.0 0.00862 90.05508 127.62852
54.2054 54.1847 108.0 0.00926 90.09940 128.44888
54.2221 54.2014 128.0 0.00782 90.14346 129.28854
54.2388 54.2181 111.0 0.00900 90.18752 130.15347
54.2555 54.2348 152.0 0.00658 90.23158 131.04419
54.2722 54.2515 106.0 0.00943 90.27563 131.96208
54.2889 54.2682 150.0 0.00666 90.31968 132.90802
54.3057 54.2850 139.0 0.00719 90.36402 133.89020
54.3224 54.3017 118.0 0.00848 90.40808 134.89709
54.3391 54.3184 135.0 0.00741 90.45213 135.93625
54.3558 54.3351 129.0 0.00775 90.49619 137.00914
54.3725 54.3518 129.0 0.00775 90.54025 138.11729
54.3893 54.3686 120.0 0.00834 90.58458 139.26950
54.4060 54.3853 120.0 0.00834 90.62864 140.45343
54.4227 54.4020 153.0 0.00654 90.67269 141.67783
54.4394 54.4187 127.0 0.00787 90.71674 142.94423
54.4561 54.4354 142.0 0.00704 90.76082 144.25623
54.4729 54.4522 134.0 0.00746 90.80514 145.62218
54.4896 54.4689 154.0 0.00649 90.84920 147.02930
54.5063 54.4856 154.0 0.00649 90.89326 148.48825
54.5230 54.5023 153.0 0.00654 90.93732 150.00082
54.5397 54.5190 157.0 0.00637 90.98138 151.57021
54.5564 54.5357 134.0 0.00746 91.02542 153.19888
54.5732 54.5525 152.0 0.00658 91.06976 154.90207
54.5899 54.5692 152.0 0.00658 91.11382 156.66089
54.6066 54.5859 154.0 0.00649 91.15788 158.48965
54.6233 54.6026 154.0 0.00649 91.20193 160.39223
54.6400 54.6193 148.0 0.00675 91.24599 162.37268
54.6568 54.6361 157.0 0.00637 91.29032 164.44838
54.6735 54.6528 177.0 0.00565 91.33437 166.59872
54.6902 54.6695 161.0 0.00621 91.37843 168.84123
54.7069 54.6862 153.0 0.00654 91.42247 171.18059
54.7236 54.7029 148.0 0.00675 91.46655 173.62550
54.7403 54.7196 154.0 0.00649 91.51061 176.17877
54.7571 54.7364 180.0 0.00555 91.55492 178.86452
54.7738 54.7531 151.0 0.00662 91.59900 181.65968
54.7905 54.7698 207.0 0.00483 91.64306 184.58582
54.8072 54.7865 150.0 0.00666 91.68711 187.65225
54.8239 54.8032 175.0 0.00571 91.73116 190.86725
54.8407 54.8200 207.0 0.00483 91.77550 194.26497
54.8574 54.8367 188.0 0.00532 91.81956 197.81195
54.8741 54.8534 160.0 0.00625 91.86361 201.54120
54.8908 54.8701 194.0 0.00515 91.90767 205.46556
54.9075 54.8868 179.0 0.00559 91.95173 209.59901
54.9243 54.9036 193.0 0.00518 91.99605 213.98427
54.9410 54.9203 206.0 0.00486 92.04012 218.58461
54.9577 54.9370 187.0 0.00535 92.08416 223.44429
54.9744 54.9537 217.0 0.00461 92.12821 228.58183
54.9911 54.9704 219.0 0.00457 92.17229 234.02542
55.0078 54.9871 217.0 0.00461 92.21635 239.79141
55.0246 55.0039 244.0 0.00410 92.26067 245.94641
55.0413 55.0206 217.0 0.00461 92.30474 252.45033
55.0580 55.0373 245.0 0.00408 92.34879 259.36664
55.0747 55.0540 246.0 0.00407 92.39285 266.73328
55.0914 55.0707 256.0 0.00391 92.43689 274.58786
55.1082 55.0875 257.0 0.00389 92.48124 283.03540
55.1249 55.1042 254.0 0.00394 92.52528 292.01572
55.1416 55.1209 281.0 0.00356 92.56935 301.63675
55.1583 55.1376 295.0 0.003388 92.61341 311.96088
55.1750 55.1543 299.0 0.003345 92.65746 323.05826
55.1918 55.1711 286.0 0.003497 92.70179 335.08423
55.2085 55.1878 299.0 0.003345 92.74584 347.98184
55.2252 55.2045 314.0 0.003185 92.78990 361.92334
55.2419 55.2212 360.0 0.002779 92.83395 377.01944
55.2586 55.2379 339.0 0.002950 92.87803 393.42065
55.2753 55.2546 339.0 0.002950 92.92209 411.25433
55.2921 55.2714 363.0 0.002756 92.96640 430.82181
55.3088 55.2881 415.0 0.002410 93.01048 452.10294
55.3255 55.3048 427.0 0.002343 93.05453 475.42575
55.3422 55.3215 438.0 0.002283 93.09859 501.06564
55.3589 55.3382 470.0 0.002128 93.14263 529.32861
55.3757 55.3550 487.0 0.002053 93.18697 560.81244
55.3924 55.3717 562.0 0.001779 93.23103 595.54626
55.4091 55.3884 593.0 0.001687 93.27509 634.24176
55.4258 55.4051 627.0 0.001595 93.31914 677.52606
55.4425 55.4218 753.0 0.001328 93.36320 726.16711
55.4593 55.4386 780.0 0.001282 93.40752 781.48846
55.4760 55.4553 782.0 0.001279 93.45158 844.07703
55.4927 55.4720 903.0 0.001107 93.49564 915.96161
55.5094 55.4887 1013.0 0.000987 93.53969 999.56604
55.5261 55.5054 1202.0 0.000832 93.58377 1098.66296
55.5428 55.5221 1387.0 0.000721 93.62782 1218.74255
55.5596 55.5389 1506.0 0.000664 93.67214 1369.55273
55.5763 55.5556 1785.0 0.000560 93.71622 1562.80066
55.5930 55.5723 2109.0 0.000474 93.76027 1818.97791
55.6097 55.5890 2510.0 0.000398 93.80433 2166.34937
55.6264 55.6057 3107.0 0.0003219 93.84837 2642.81250
55.6432 55.6225 3888.0 0.0002572 93.89271 3301.63257
55.6599 55.6392 4758.0 0.0002102 93.93676 4190.73193
55.6766 55.6559 6062.0 0.0001650 93.98082 5372.84229
55.6933 55.6726 7526.0 0.0001329 94.02489 6901.45410
55.7100 55.6893 9433.0 0.0001060 94.06893 8812.15137
55.7268 55.7061 11686.0 0.0000856 94.11327 11122.16602
55.7435 55.7228 14423.0 0.0000693 94.15732 13752.58594
55.7602 55.7395 17267.0 0.0000579 94.20138 16593.38672
55.7769 55.7562 20594.0 0.0000486 94.24542 19436.07227
55.7936 55.7729 23422.0 0.0000427 94.28951 22005.35547
55.8103 55.7896 25823.0 0.0000387 94.33356 23998.38672
55.8271 55.8064 26653.0 0.0000375 94.37788 25157.19531
55.8438 55.8231 26423.0 0.0000378 94.42194 25273.68750
55.8605 55.8398 24750.0 0.0000404 94.46601 24286.95898
55.8772 55.8565 22646.0 0.0000441 94.51006 22323.31055
55.8939 55.8732 19219.0 0.0000521 94.55411 19693.44531
55.9107 55.8900 16026.0 0.0000624 94.59844 16748.13867
55.9274 55.9067 12940.0 0.0000772 94.64250 13841.22168
55.9441 55.9234 10491.0 0.0000954 94.68656 11166.11816
55.9608 55.9401 8458.0 0.0001182 94.73061 8840.58203
55.9775 55.9568 6596.0 0.0001516 94.77467 6910.61230
55.9943 55.9736 5545.0 0.0001804 94.81900 5363.09229
56.0110 55.9903 4515.0 0.0002215 94.86306 4178.83008
56.0277 56.0070 3708.0 0.0002697 94.90711 3291.49805
56.0444 56.0237 2986.0 0.0003349 94.95116 2640.13086
56.0611 56.0404 2539.0 0.000394 94.99525 2166.42285
56.0778 56.0571 2117.0 0.000472 95.03931 1822.02527
56.0946 56.0739 1918.0 0.000521 95.08362 1566.80115
56.1113 56.0906 1617.0 0.000618 95.12769 1375.25232
56.1280 56.1073 1397.0 0.000716 95.17174 1226.11877
56.1447 56.1240 1222.0 0.000818 95.21580 1106.22498
56.1614 56.1407 1068.0 0.000936 95.25984 1007.08398
56.1782 56.1575 981.0 0.001019 95.30418 922.66669
56.1949 56.1742 874.0 0.001144 95.34824 850.49744
56.2116 56.1909 799.0 0.001251 95.39230 787.60822
56.2283 56.2076 714.0 0.001401 95.43636 732.31873
56.2450 56.2243 657.0 0.001522 95.48041 683.38599
56.2618 56.2411 593.0 0.001687 95.52474 639.59595
56.2785 56.2578 584.0 0.001712 95.56879 600.70978
56.2952 56.2745 538.0 0.001860 95.61285 565.81519
56.3119 56.2912 471.0 0.002124 95.65689 534.39697
56.3286 56.3079 484.0 0.002066 95.70097 505.98074
56.3453 56.3246 458.0 0.002184 95.74503 480.23651
56.3621 56.3414 420.0 0.002382 95.78935 456.69879
56.3788 56.3581 377.0 0.002652 95.83342 435.36230
56.3955 56.3748 386.0 0.002590 95.87748 415.86252
56.4122 56.3915 374.0 0.002674 95.92153 397.99133
56.4289 56.4082 352.0 0.002841 95.96558 381.57861
56.4457 56.4250 355.0 0.002817 96.00992 366.36920
56.4624 56.4417 339.0 0.002950 96.05398 352.42905
56.4791 56.4584 307.0 0.003258 96.09804 339.54059
56.4958 56.4751 304.0 0.003288 96.14209 327.60147
56.5125 56.4918 344.0 0.002906 96.18615 316.52155
56.5293 56.5086 267.0 0.00375 96.23048 306.15994
56.5460 56.5253 252.0 0.00397 96.27454 296.57205
56.5627 56.5420 281.0 0.00356 96.31859 287.62936
56.5794 56.5587 243.0 0.00411 96.36264 279.27811
56.5961 56.5754 236.0 0.00424 96.40672 271.45883
56.6128 56.5921 257.0 0.00389 96.45078 264.13821
56.6296 56.6089 215.0 0.00465 96.49509 257.23224
56.6463 56.6256 254.0 0.00394 96.53916 250.78285
56.6630 56.6423 233.0 0.00429 96.58321 244.71957
56.6797 56.6590 219.0 0.00457 96.62727 239.01089
56.6964 56.6757 199.0 0.00502 96.67132 233.63145
56.7132 56.6925 206.0 0.00486 96.71566 228.52203
56.7299 56.7092 210.0 0.00476 96.75972 223.72731
56.7466 56.7259 188.0 0.00532 96.80377 219.19356
56.7633 56.7426 202.0 0.00495 96.84783 214.90234
56.7800 56.7593 225.0 0.00444 96.89188 210.83691
56.7967 56.7760 164.0 0.00609 96.93595 206.98079
56.8135 56.7928 165.0 0.00606 96.98027 203.30130
56.8302 56.8095 169.0 0.00592 97.02433 199.82706
56.8469 56.8262 178.0 0.00562 97.06837 196.52519
56.8636 56.8429 173.0 0.00578 97.11245 193.38103
56.8803 56.8596 162.0 0.00617 97.15651 190.38916
56.8971 56.8764 171.0 0.00585 97.20082 187.52214
56.9138 56.8931 154.0 0.00649 97.24490 184.80389
56.9305 56.9098 168.0 0.00595 97.28896 182.21100
56.9472 56.9265 145.0 0.00690 97.33301 179.73521
56.9639 56.9432 174.0 0.00575 97.37706 177.37047
56.9807 56.9600 156.0 0.00641 97.42139 175.09479
56.9974 56.9767 139.0 0.00719 97.46545 172.93204
57.0141 56.9934 141.0 0.00710 97.50951 170.86191
57.0308 57.0101 140.0 0.00715 97.55357 168.87923
57.0475 57.0268 133.0 0.00752 97.59763 166.97932
57.0642 57.0435 158.0 0.00633 97.64169 165.15720
57.0810 57.0603 137.0 0.00731 97.68601 163.39975
57.0977 57.0770 129.0 0.00775 97.73007 161.72302
57.1144 57.0937 164.0 0.00609 97.77411 160.11337
57.1311 57.1104 135.0 0.00741 97.81819 158.56561
57.1478 57.1271 124.0 0.00806 97.86225 157.07887
57.1646 57.1439 130.0 0.00769 97.90656 155.64101
57.1813 57.1606 138.0 0.00724 97.95064 154.26553
57.1980 57.1773 155.0 0.00645 97.99469 152.94211
57.2147 57.1940 130.0 0.00769 98.03875 151.66786
57.2314 57.2107 150.0 0.00666 98.08279 150.44080
57.2482 57.2275 147.0 0.00681 98.12714 149.25058
57.2649 57.2442 114.0 0.00877 98.17120 148.11067
57.2816 57.2609 139.0 0.00719 98.21525 147.01138
57.2983 57.2776 141.0 0.00710 98.25931 145.95090
57.3150 57.2943 121.0 0.00826 98.30336 144.92747
57.3317 57.3110 129.0 0.00775 98.34743 143.93921
57.3485 57.3278 122.0 0.00819 98.39174 142.97960
57.3652 57.3445 109.0 0.00917 98.43580 142.05811
57.3819 57.3612 110.0 0.00909 98.47984 141.16786
57.3986 57.3779 119.0 0.00840 98.52393 140.30658
57.4153 57.3946 116.0 0.00862 98.56799 139.47426
57.4321 57.4114 129.0 0.00775 98.61230 138.66458
57.4488 57.4281 109.0 0.00917 98.65637 137.88564
57.4655 57.4448 127.0 0.00787 98.70043 137.13200
57.4822 57.4615 133.0 0.00752 98.74448 136.40245
57.4989 57.4782 115.0 0.00870 98.78854 135.69624
57.5157 57.4950 122.0 0.00819 98.83286 135.00771
57.5324 57.5117 120.0 0.00834 98.87693 134.34497
57.5491 57.5284 115.0 0.00870 98.92099 133.70276
57.5658 57.5451 126.0 0.00794 98.96504 133.08028
57.5825 57.5618 118.0 0.00848 99.00910 132.47678
57.5992 57.5785 112.0 0.00893 99.05317 131.89139
57.6160 57.5953 111.0 0.00900 99.09748 131.32048
57.6327 57.6120 123.0 0.00813 99.14155 130.76991
57.6494 57.6287 118.0 0.00848 99.18559 130.23579
57.6661 57.6454 111.0 0.00900 99.22967 129.71695
57.6828 57.6621 110.0 0.00909 99.27373 129.21358
57.6996 57.6789 121.0 0.00826 99.31804 128.72202
57.7163 57.6956 112.0 0.00893 99.36211 128.24731
57.7330 57.7123 137.0 0.00731 99.40617 127.78639
57.7497 57.7290 117.0 0.00854 99.45023 127.33860
57.7664 57.7457 103.0 0.00971 99.49426 126.90364
57.7832 57.7625 111.0 0.00900 99.53860 126.47812
57.7999 57.7792 128.0 0.00782 99.58267 126.06721
57.8166 57.7959 114.0 0.00877 99.62672 125.66773
57.8333 57.8126 121.0 0.00826 99.67078 125.27934
57.8500 57.8293 112.0 0.00893 99.71483 124.90164
57.8667 57.8460 113.0 0.00885 99.75890 124.53420
57.8835 57.8628 111.0 0.00900 99.80322 124.17483
57.9002 57.8795 118.0 0.00848 99.84727 123.82726
57.9169 57.8962 106.0 0.00943 99.89132 123.48919
57.9336 57.9129 112.0 0.00893 99.93541 123.15992
57.9503 57.9296 116.0 0.00862 99.97946 122.83965
57.9671 57.9464 118.0 0.00848 100.02377 122.52612
57.9838 57.9631 91.0 0.01099 100.06784 122.22260
58.0005 57.9798 132.0 0.00757 100.11191 121.92722
58.0172 57.9965 116.0 0.00862 100.15595 121.63957
58.0339 58.0132 101.0 0.00990 100.20000 121.35958
58.0507 58.0300 101.0 0.00990 100.24435 121.08508
58.0674 58.0467 97.0 0.01031 100.28840 120.81944
58.0841 58.0634 102.0 0.00980 100.33246 120.56069
58.1008 58.0801 119.0 0.00840 100.37651 120.30862
58.1175 58.0968 127.0 0.00787 100.42057 120.06306
58.1342 58.1135 110.0 0.00909 100.46465 119.82373
58.1510 58.1303 113.0 0.00885 100.50896 119.58925
58.1677 58.1470 100.0 0.01000 100.55302 119.36211
58.1844 58.1637 106.0 0.00943 100.59706 119.14082
58.2011 58.1804 108.0 0.00926 100.64114 118.92495
58.2178 58.1971 98.0 0.01021 100.68520 118.71468
58.2346 58.2139 96.0 0.01042 100.72952 118.50854
58.2513 58.2306 99.0 0.01010 100.77358 118.30875
58.2680 58.2473 93.0 0.01075 100.81763 118.11404
58.2847 58.2640 112.0 0.00893 100.86169 117.92422
58.3014 58.2807 100.0 0.01000 100.90574 117.73923
58.3182 58.2975 124.0 0.00806 100.95008 117.55769
58.3349 58.3142 115.0 0.00870 100.99414 117.38184
58.3516 58.3309 121.0 0.00826 101.03819 117.21039
58.3683 58.3476 108.0 0.00926 101.08225 117.04323
58.3850 58.3643 98.0 0.01021 101.12630 116.88025
58.4017 58.3810 110.0 0.00909 101.17038 116.72130
58.4185 58.3978 111.0 0.00900 101.21470 116.56549
58.4352 58.4145 102.0 0.00980 101.25875 116.41445
58.4519 58.4312 115.0 0.00870 101.30280 116.26723
58.4686 58.4479 109.0 0.00917 101.34689 116.12360
58.4853 58.4646 113.0 0.00885 101.39094 115.98363
58.5021 58.4814 115.0 0.00870 101.43525 115.84639
58.5188 58.4981 99.0 0.01010 101.47932 115.71335
58.5355 58.5148 124.0 0.00806 101.52338 115.58370
58.5522 58.5315 118.0 0.00848 101.56743 115.45731
58.5689 58.5482 116.0 0.00862 101.61148 115.33419
58.5857 58.5650 110.0 0.00909 101.65582 115.21337
58.6024 58.5817 115.0 0.00870 101.69987 115.09638
58.6191 58.5984 102.0 0.00980 101.74393 114.98241
58.6358 58.6151 89.0 0.01124 101.78799 114.87133
58.6525 58.6318 111.0 0.00900 101.83205 114.76314
58.6692 58.6485 80.0 0.01250 101.87612 114.65773
58.6860 58.6653 101.0 0.00990 101.92043 114.55450
58.7027 58.6820 113.0 0.00885 101.96449 114.45458
58.7194 58.6987 105.0 0.00952 102.00854 114.35733
58.7361 58.7154 106.0 0.00943 102.05262 114.26259
58.7528 58.7321 100.0 0.01000 102.09668 114.17046
58.7696 58.7489 106.0 0.00943 102.14099 114.08031
58.7863 58.7656 96.0 0.01042 102.18506 113.99315
58.8030 58.7823 110.0 0.00909 102.22911 113.90842
58.8197 58.7990 104.0 0.00961 102.27317 110.34091
58.8364 58.8157 97.0 0.01031 102.31721 110.29914
58.8532 58.8325 132.0 0.00757 102.36156 110.25881
58.8699 58.8492 91.0 0.01099 102.40562 102.49074
58.8866 58.8659 129.0 0.00775 102.44967 102.53883
58.9033 58.8826 108.0 0.00926 102.49373 102.58723
58.9200 58.8993 112.0 0.00893 102.53778 102.63593
58.9367 58.9160 92.0 0.01087 102.58186 102.68502
58.9535 58.9328 94.0 0.01064 102.62617 102.73478
58.9702 58.9495 100.0 0.01000 102.67023 102.78467
58.9869 58.9662 93.0 0.01075 102.71426 102.83502
59.0036 58.9829 114.0 0.00877 102.75836 102.88597
59.0203 58.9996 105.0 0.00952 102.80241 102.93746
59.0371 59.0164 106.0 0.00943 102.84673 102.98993
59.0538 59.0331 109.0 0.00917 102.89079 103.04286
59.0705 59.0498 110.0 0.00909 102.93485 103.09662
59.0872 59.0665 106.0 0.00943 102.97891 103.15131
59.1039 59.0832 99.0 0.01010 103.02296 103.20707
59.1206 59.0999 116.0 0.00862 103.06701 103.26404
59.1374 59.1167 104.0 0.00961 103.11135 103.32278
59.1541 59.1334 99.0 0.01010 103.15541 103.38276
59.1708 59.1501 101.0 0.00990 103.19946 103.44456
59.1875 59.1668 101.0 0.00990 103.24352 103.50851
59.2042 59.1835 91.0 0.01099 103.28760 103.57496
59.2210 59.2003 114.0 0.00877 103.33191 103.64479
59.2377 59.2170 94.0 0.01064 103.37597 103.71782
59.2544 59.2337 84.0 0.01191 103.42001 103.79527
59.2711 59.2504 103.0 0.00971 103.46409 103.87853
59.2878 59.2671 108.0 0.00926 103.50815 103.96936
59.3046 59.2839 93.0 0.01075 103.55247 104.07129
59.3213 59.3006 109.0 0.00917 103.59653 104.18752
59.3380 59.3173 103.0 0.00971 103.64059 104.32496
59.3547 59.3340 108.0 0.00926 103.60963 104.41779
59.3714 59.3507 115.0 0.00870 103.54219 104.51699
59.3881 59.3674 112.0 0.00893 103.47478 104.67501
59.4049 59.3842 96.0 0.01042 103.40691 104.91283
59.4216 59.4009 93.0 0.01075 103.33950 105.24831
59.4383 59.4176 111.0 0.00900 103.27206 105.70262
59.4550 59.4343 93.0 0.01075 103.20463 106.29127
59.4717 59.4510 116.0 0.00862 103.13719 107.02090
59.4885 59.4678 113.0 0.00885 103.06936 107.88866
59.5052 59.4845 135.0 0.00741 103.00194 108.85674
59.5219 59.5012 113.0 0.00885 102.93452 109.87453
59.5386 59.5179 127.0 0.00787 102.86705 110.85345
59.5553 59.5346 114.0 0.00877 102.79963 111.66428
59.5721 59.5514 105.0 0.00952 102.73181 112.16032
59.5888 59.5681 123.0 0.00813 102.66436 112.21507
59.6055 59.5848 102.0 0.00980 102.59692 111.80331
59.6222 59.6015 125.0 0.00800 102.52949 111.00446
59.6389 59.6182 112.0 0.00893 102.46207 109.96065
59.6556 59.6349 121.0 0.00826 102.39466 108.81512
59.6724 59.6517 120.0 0.00834 102.32680 107.67005
59.6891 59.6684 107.0 0.00935 102.25936 106.61292
59.7058 59.6851 94.0 0.01064 102.19194 105.67717
59.7225 59.7018 124.0 0.00806 102.12450 104.88020
59.7392 59.7185 103.0 0.00971 102.05705 104.22218
59.7560 59.7353 120.0 0.00834 101.98923 103.68938
59.7727 59.7520 92.0 0.01087 101.92180 103.26952
59.7894 59.7687 112.0 0.00893 101.85439 102.93851
59.8061 59.7854 100.0 0.01000 101.78693 102.67577
59.8228 59.8021 109.0 0.00917 101.71949 102.46396
59.8396 59.8189 97.0 0.01031 101.65167 102.28769
59.8563 59.8356 101.0 0.00990 101.58422 102.13807
59.8730 59.8523 93.0 0.01075 101.51680 102.00634
59.8897 59.8690 106.0 0.00943 101.44936 101.88712
59.9064 59.8857 118.0 0.00848 101.38193 101.77683
59.9231 59.9024 115.0 0.00870 101.31453 101.67322
59.9399 59.9192 123.0 0.00813 101.24666 101.57399
59.9566 59.9359 111.0 0.00900 101.17924 101.47943
59.9733 59.9526 104.0 0.00961 101.11180 101.38813
59.9900 59.9693 114.0 0.00877 101.04437 101.29957
60.0067 59.9860 113.0 0.00885 100.97694 101.21330
60.0235 60.0028 95.0 0.01053 100.90910 101.12852
60.0402 60.0195 124.0 0.00806 100.84167 101.04599
60.0569 60.0362 121.0 0.00826 100.77426 100.96496
60.0736 60.0529 107.0 0.00935 100.70679 100.88516
60.0903 60.0696 99.0 0.01010 100.63937 100.80656
60.1071 60.0864 108.0 0.00926 100.57153 100.72849
60.1238 60.1031 97.0 0.01031 100.50410 100.65179
60.1405 60.1198 111.0 0.00900 100.43667 100.57587
60.1572 60.1365 116.0 0.00862 100.36923 100.50065
60.1739 60.1532 117.0 0.00854 100.30181 100.42608
60.1906 60.1699 109.0 0.00917 100.23439 100.35207
60.2074 60.1867 118.0 0.00848 100.16654 100.27811
60.2241 60.2034 118.0 0.00848 100.09911 100.20505
60.2408 60.2201 115.0 0.00870 100.03168 100.13242
60.2575 60.2368 113.0 0.00885 99.96425 100.06014
60.2742 60.2535 124.0 0.00806 99.89680 99.98819
60.2910 60.2703 114.0 0.00877 99.82898 99.91615
60.3077 60.2870 104.0 0.00961 99.76154 99.84480
60.3244 60.3037 126.0 0.00794 99.69414 99.77375
60.3411 60.3204 107.0 0.00935 99.62667 99.70286
60.3578 60.3371 127.0 0.00787 99.55923 99.63222
60.3746 60.3539 134.0 0.00746 99.49142 99.56137
60.3913 60.3706 119.0 0.00840 99.42397 99.49110
60.4080 60.3873 136.0 0.00736 99.35653 99.42100
60.4247 60.4040 110.0 0.00909 99.28911 99.35107
60.4414 60.4207 126.0 0.00794 99.22167 99.28127
60.4581 60.4374 119.0 0.00840 99.15427 99.21164
60.4749 60.4542 125.0 0.00800 99.08640 99.14165
60.4916 60.4709 141.0 0.00710 99.01898 99.07224
60.5083 60.4876 121.0 0.00826 98.95155 99.00291
60.5250 60.5043 146.0 0.00685 98.88411 98.93369
60.5417 60.5210 150.0 0.00666 98.81667 98.86456
60.5585 60.5378 132.0 0.00757 98.74884 98.79510
60.5752 60.5545 130.0 0.00769 98.68142 98.72615
60.5919 60.5712 132.0 0.00757 98.61400 98.65727
60.6086 60.5879 132.0 0.00757 98.54653 98.58842
60.6253 60.6046 178.0 0.00562 98.47912 98.51968
60.6421 60.6214 156.0 0.00641 98.41128 98.45057
60.6588 60.6381 143.0 0.00699 98.34384 98.38194
60.6755 60.6548 150.0 0.00666 98.27641 98.31335
60.6922 60.6715 171.0 0.00585 98.20897 98.24481
60.7089 60.6882 151.0 0.00662 98.14156 98.17635
60.7256 60.7049 157.0 0.00637 98.07413 98.10793
60.7424 60.7217 169.0 0.00592 98.00628 98.03910
60.7591 60.7384 164.0 0.00609 97.93884 97.97075
60.7758 60.7551 145.0 0.00690 97.87141 97.90244
60.7925 60.7718 150.0 0.00666 97.80399 97.83417
60.8092 60.7885 150.0 0.00666 97.73654 97.76591
60.8260 60.8053 172.0 0.00582 97.66872 97.69730
60.8427 60.8220 162.0 0.00617 97.60129 97.62912
60.8594 60.8387 163.0 0.00613 97.53388 97.56099
60.8761 60.8554 167.0 0.00599 97.46642 97.49283
60.8928 60.8721 140.0 0.00715 97.39898 97.42473
60.9096 60.8889 136.0 0.00736 97.33116 97.35626
60.9263 60.9056 155.0 0.00645 97.26371 97.28819
60.9430 60.9223 169.0 0.00592 97.19627 97.22016
60.9597 60.9390 152.0 0.00658 97.12885 97.15217
60.9764 60.9557 146.0 0.00685 97.06142 97.08418
60.9931 60.9724 143.0 0.00699 96.99401 97.01624
61.0099 60.9892 137.0 0.00731 96.92615 96.94786
61.0266 61.0059 124.0 0.00806 96.85873 96.87994
61.0433 61.0226 135.0 0.00741 96.79129 96.81202
61.0600 61.0393 119.0 0.00840 96.72385 96.74412
61.0767 61.0560 133.0 0.00752 96.65640 96.67622
61.0935 61.0728 144.0 0.00694 96.58858 96.60796
61.1102 61.0895 120.0 0.00834 96.52116 96.54012
61.1269 61.1062 161.0 0.00621 96.45374 96.47230
61.1436 61.1229 131.0 0.00763 96.38628 96.40443
61.1603 61.1396 116.0 0.00862 96.31886 96.33663
61.1770 61.1563 117.0 0.00854 96.25142 96.26883
61.1938 61.1731 117.0 0.00854 96.18359 96.20064
61.2105 61.1898 119.0 0.00840 96.11615 97.58622
61.2272 61.2065 117.0 0.00854 96.04871 97.52984
61.2439 61.2232 126.0 0.00794 95.98129 97.47361
61.2606 61.2399 109.0 0.00917 95.91388 97.41753
61.2774 61.2567 120.0 0.00834 95.84602 97.36124
61.2941 61.2734 131.0 0.00763 95.77859 97.30544
61.3108 61.2901 103.0 0.00971 95.71115 97.24979
61.3275 61.3068 115.0 0.00870 95.64373 97.19431
61.3442 61.3235 115.0 0.00870 95.57629 97.13897
61.3610 61.3403 94.0 0.01064 95.50846 97.08347
61.3777 61.3570 102.0 0.00980 95.44102 97.02846
61.3944 61.3737 114.0 0.00877 95.37363 96.97363
61.4111 61.3904 111.0 0.00900 95.30616 96.91891
61.4278 61.4071 97.0 0.01031 95.23872 96.86440
61.4445 61.4238 102.0 0.00980 95.17129 96.81004
61.4613 61.4406 110.0 0.00909 95.10345 96.75552
61.4780 61.4573 104.0 0.00961 95.03602 96.70153
61.4947 61.4740 119.0 0.00840 94.96860 96.64771
61.5114 61.4907 112.0 0.00893 94.90116 96.59406
61.5281 61.5074 97.0 0.01031 94.83376 96.54061
61.5449 61.5242 102.0 0.00980 94.76589 96.48699
61.5616 61.5409 107.0 0.00935 94.69847 96.43391
61.5783 61.5576 93.0 0.01075 94.63103 96.38100
61.5950 61.5743 106.0 0.00943 94.56360 96.32829
61.6117 61.5910 114.0 0.00877 94.49615 96.27576
61.6285 61.6078 103.0 0.00971 94.42833 96.22315
61.6452 61.6245 116.0 0.00862 94.36091 96.17106
61.6619 61.6412 96.0 0.01042 94.29349 96.11916
61.6786 61.6579 111.0 0.00900 94.22602 96.06745
61.6953 61.6746 99.0 0.01010 94.15860 96.01598
61.7120 61.6913 96.0 0.01042 94.09116 95.96471
61.7288 61.7081 111.0 0.00900 94.02332 95.91337
61.7455 61.7248 89.0 0.01124 93.95589 95.86256
61.7622 61.7415 98.0 0.01021 93.88846 95.81197
61.7789 61.7582 101.0 0.00990 93.82104 95.76164
61.7956 61.7749 76.0 0.01316 93.75362 95.71153
61.8124 61.7917 106.0 0.00943 93.68577 95.66135
61.8291 61.8084 93.0 0.01075 93.61833 95.61172
61.8458 61.8251 86.0 0.01163 93.55090 95.56235
61.8625 61.8418 90.0 0.01111 93.48347 95.51323
61.8792 61.8585 103.0 0.00971 93.41602 95.46435
61.8960 61.8753 105.0 0.00952 93.34821 95.41547
61.9127 61.8920 109.0 0.00917 93.28077 95.36714
61.9294 61.9087 107.0 0.00935 93.21336 95.31909
61.9461 61.9254 98.0 0.01021 93.14590 95.27129
61.9628 61.9421 104.0 0.00961 93.07847 95.22379
61.9795 61.9588 96.0 0.01042 93.01103 95.17658
61.9963 61.9756 100.0 0.01000 92.94319 95.12938
62.0130 61.9923 98.0 0.01021 92.87576 95.08276
62.0297 62.0090 91.0 0.01099 92.80834 95.03647
62.0464 62.0257 86.0 0.01163 92.74091 94.99046
62.0631 62.0424 122.0 0.00819 92.67350 94.94480
62.0799 62.0592 99.0 0.01010 92.60563 94.89914
62.0966 62.0759 103.0 0.00971 92.53819 94.85410
62.1133 62.0926 95.0 0.01053 92.47078 94.80943
62.1300 62.1093 86.0 0.01163 92.40334 94.76507
62.1467 62.1260 105.0 0.00952 92.33589 94.72105
62.1635 62.1428 105.0 0.00952 92.26807 94.67715
62.1802 62.1595 89.0 0.01124 92.20065 94.63388
62.1969 62.1762 100.0 0.01000 92.13323 94.59097
62.2136 62.1929 109.0 0.00917 92.06577 94.54841
62.2303 62.2096 107.0 0.00935 91.99834 94.50626
62.2470 62.2263 107.0 0.00935 91.93091 94.46451
62.2638 62.2431 110.0 0.00909 91.86306 94.42290
62.2805 62.2598 94.0 0.01064 91.79564 94.38196
62.2972 62.2765 111.0 0.00900 91.72820 94.34142
62.3139 62.2932 71.0 0.01409 91.66078 94.30134
62.3306 62.3099 97.0 0.01031 91.59336 94.26167
62.3474 62.3267 98.0 0.01021 91.52551 94.22221
62.3641 62.3434 105.0 0.00952 91.45808 94.18345
62.3808 62.3601 107.0 0.00935 91.39064 94.14514
62.3975 62.3768 109.0 0.00917 91.32322 94.10732
62.4142 62.3935 95.0 0.01053 91.25577 94.06997
62.4310 62.4103 81.0 0.01235 91.18795 97.44960
62.4477 62.4270 102.0 0.00980 91.12053 97.45157
62.4644 62.4437 98.0 0.01021 91.05306 97.45470
62.4811 62.4604 111.0 0.00900 90.98564 97.45904
62.4978 62.4771 92.0 0.01087 90.91821 97.46458
62.5145 62.4938 91.0 0.01099 90.85077 97.47137
62.5313 62.5106 94.0 0.01064 90.78294 97.47950
62.5480 62.5273 98.0 0.01021 90.71550 97.48886
62.5647 62.5440 116.0 0.00862 90.64808 97.49957
62.5814 62.5607 93.0 0.01075 90.58064 97.51164
62.5981 62.5774 89.0 0.01124 90.51324 97.52512
62.6149 62.5942 106.0 0.00943 90.44537 97.54011
62.6316 62.6109 105.0 0.00952 90.37794 97.55646
62.6483 62.6276 108.0 0.00926 90.31052 97.57433
62.6650 62.6443 120.0 0.00834 90.24308 97.59371
62.6817 62.6610 133.0 0.00752 90.17564 97.61469
62.6985 62.6778 113.0 0.00885 90.10781 97.63739
62.7152 62.6945 115.0 0.00870 90.04041 97.66161
62.7319 62.7112 114.0 0.00877 89.97294 97.68755
62.7486 62.7279 92.0 0.01087 89.90551 97.71519
62.7653 62.7446 85.0 0.01176 89.83807 97.74459
62.7820 62.7613 102.0 0.00980 89.77065 97.77583
62.7988 62.7781 86.0 0.01163 89.70280 97.80912
62.8155 62.7948 97.0 0.01031 89.63538 97.84415
62.8322 62.8115 100.0 0.01000 89.56795 97.88110
62.8489 62.8282 92.0 0.01087 89.50053 97.92008
62.8656 62.8449 120.0 0.00834 89.43311 97.96109
62.8824 62.8617 105.0 0.00952 89.36526 98.00452
62.8991 62.8784 90.0 0.01111 89.29782 98.04985
62.9158 62.8951 90.0 0.01111 89.23038 98.09739
62.9325 62.9118 116.0 0.00862 89.16296 98.14723
62.9492 62.9285 89.0 0.01124 89.09551 98.19942
62.9660 62.9453 111.0 0.00900 89.02769 98.25433
62.9827 62.9620 92.0 0.01087 88.96027 98.31136
62.9994 62.9787 96.0 0.01042 88.89281 98.36721
63.0161 62.9954 104.0 0.00961 88.82539 98.42948
63.0328 63.0121 109.0 0.00917 88.75795 98.49440
63.0495 63.0288 84.0 0.01191 88.69051 98.56208
63.0663 63.0456 83.0 0.01205 88.62268 98.63306
63.0830 63.0623 96.0 0.01042 88.55524 98.70648
63.0997 63.0790 81.0 0.01235 88.48782 98.78294
63.1164 63.0957 86.0 0.01163 88.42039 98.86245
63.1331 63.1124 90.0 0.01111 88.35298 98.94511
63.1499 63.1292 94.0 0.01064 88.28512 99.03162
63.1666 63.1459 99.0 0.01010 88.21768 99.12093
63.1833 63.1626 92.0 0.01087 88.15026 99.21371
63.2000 63.1793 96.0 0.01042 88.08282 99.31004
63.2167 63.1960 94.0 0.01064 88.01537 99.41005
63.2334 63.2127 92.0 0.01087 87.94796 99.51382
63.2502 63.2295 116.0 0.00862 87.88015 99.62207
63.2669 63.2462 102.0 0.00980 87.81268 99.73381
63.2836 63.2629 93.0 0.01075 87.74525 99.84960
63.3003 63.2796 106.0 0.00943 87.67781 99.96965
63.3170 63.2963 101.0 0.00990 87.61040 100.09412
63.3338 63.3131 109.0 0.00917 87.54254 100.22388
63.3505 63.3298 99.0 0.01010 87.47512 100.35755
63.3672 63.3465 91.0 0.01099 87.40768 100.49603
63.3839 63.3632 94.0 0.01064 87.34026 100.63950
63.4006 63.3799 115.0 0.00870 87.27285 100.78803
63.4174 63.3967 103.0 0.00971 87.20498 100.94293
63.4341 63.4134 84.0 0.01191 87.13756 101.10235
63.4508 63.4301 100.0 0.01000 87.07012 101.26741
63.4675 63.4468 91.0 0.01099 87.00271 101.43835
63.4842 63.4635 86.0 0.01163 86.93526 101.61536
63.5009 63.4802 104.0 0.00961 86.86782 101.79859
63.5177 63.4970 87.0 0.01150 86.80001 101.98936
63.5344 63.5137 94.0 0.01064 86.73254 102.18590
63.5511 63.5304 110.0 0.00909 86.66513 102.38929
63.5678 63.5471 93.0 0.01075 86.59769 102.59982
63.5845 63.5638 97.0 0.01031 86.53026 102.81779
63.6013 63.5806 111.0 0.00900 86.46242 103.04487
63.6180 63.5973 112.0 0.00893 86.39499 103.27856
63.6347 63.6140 89.0 0.01124 86.32757 103.52054
63.6514 63.6307 96.0 0.01042 86.26013 103.77108
63.6681 63.6474 98.0 0.01021 86.19273 104.03045
63.6849 63.6642 104.0 0.00961 86.12486 104.30087
63.7016 63.6809 104.0 0.00961 86.05743 104.57918
63.7183 63.6976 91.0 0.01099 85.99001 104.86745
63.7350 63.7143 93.0 0.01075 85.92257 105.16605
63.7517 63.7310 101.0 0.00990 85.85512 105.47548
63.7684 63.7477 117.0 0.00854 85.78770 105.79599
63.7852 63.7645 112.0 0.00893 85.71989 106.12999
63.8019 63.7812 104.0 0.00961 85.65243 106.47446
63.8186 63.7979 98.0 0.01021 85.58499 106.83130
63.8353 63.8146 95.0 0.01053 85.51756 107.20122
63.8520 63.8313 104.0 0.00961 85.45013 107.58479
63.8688 63.8481 105.0 0.00952 85.38229 107.98504
63.8855 63.8648 100.0 0.01000 85.31487 108.39771
63.9022 63.8815 100.0 0.01000 85.24743 108.82581
63.9189 63.8982 103.0 0.00971 85.18001 109.27004
63.9356 63.9149 107.0 0.00935 85.11259 109.73093
63.9524 63.9317 125.0 0.00800 85.04472 110.21266
63.9691 63.9484 92.0 0.01087 84.97730 110.70973
63.9858 63.9651 96.0 0.01042 84.90987 111.22597
64.0025 63.9818 97.0 0.01031 84.84243 111.76227
64.0192 63.9985 99.0 0.01010 84.77499 112.31975
64.0359 64.0152 115.0 0.00870 84.70757 112.89902
64.0527 64.0320 111.0 0.00900 84.63976 113.50473
64.0694 64.0487 98.0 0.01021 84.57229 114.13165
64.0861 64.0654 115.0 0.00870 84.50485 114.78352
64.1028 64.0821 116.0 0.00862 84.43742 115.46191
64.1195 64.0988 114.0 0.00877 84.37002 116.16821
64.1363 64.1156 106.0 0.00943 84.30215 116.90831
64.1530 64.1323 119.0 0.00840 84.23474 117.67481
64.1697 64.1490 124.0 0.00806 84.16731 118.47364
64.1864 64.1657 105.0 0.00952 84.09988 119.30651
64.2031 64.1824 116.0 0.00862 84.03247 120.17499
64.2199 64.1992 98.0 0.01021 83.96460 121.08744
64.2366 64.2159 112.0 0.00893 83.89716 122.03402
64.2533 64.2326 118.0 0.00848 83.82973 123.02267
64.2700 64.2493 96.0 0.01042 83.76233 124.05573
64.2867 64.2660 99.0 0.01010 83.69486 125.13599
64.3034 64.2827 100.0 0.01000 83.62743 126.26558
64.3202 64.2995 124.0 0.00806 83.55962 127.45441
64.3369 64.3162 113.0 0.00885 83.49216 128.69321
64.3536 64.3329 121.0 0.00826 83.42472 129.99030
64.3703 64.3496 118.0 0.00848 83.35732 131.34999
64.3870 64.3663 94.0 0.01064 83.28988 132.77615
64.4038 64.3831 107.0 0.00935 83.22205 134.28241
64.4205 64.3998 143.0 0.00699 83.15461 135.85487
64.4372 64.4165 107.0 0.00935 83.08717 137.50742
64.4539 64.4332 134.0 0.00746 83.01974 139.24535
64.4706 64.4499 134.0 0.00746 82.95233 141.07385
64.4874 64.4667 140.0 0.00715 82.88447 143.01292
64.5041 64.4834 119.0 0.00840 82.81703 145.04404
64.5208 64.5001 135.0 0.00741 82.74963 147.18666
64.5375 64.5168 142.0 0.00704 82.68219 149.44875
64.5542 64.5335 152.0 0.00658 82.61472 151.83978
64.5709 64.5502 154.0 0.00649 82.54732 154.36798
64.5877 64.5670 121.0 0.00826 82.47952 157.05971
64.6044 64.5837 140.0 0.00715 82.41205 159.89850
64.6211 64.6004 133.0 0.00752 82.34461 162.90807
64.6378 64.6171 162.0 0.00617 82.27718 166.10390
64.6545 64.6338 154.0 0.00649 82.20974 169.50128
64.6713 64.6506 173.0 0.00578 82.14191 173.14003
64.6880 64.6673 128.0 0.00782 82.07447 176.99442
64.7047 64.6840 159.0 0.00629 82.00703 181.10675
64.7214 64.7007 158.0 0.00633 81.93960 185.50000
64.7381 64.7174 171.0 0.00585 81.87220 190.19839
64.7549 64.7342 177.0 0.00565 81.80433 195.26675
64.7716 64.7509 172.0 0.00582 81.73692 200.67120
64.7883 64.7676 182.0 0.00550 81.66949 206.47882
64.8050 64.7843 151.0 0.00662 81.60205 212.73001
64.8217 64.8010 189.0 0.00529 81.53462 219.47234
64.8384 64.8177 191.0 0.00524 81.46719 226.75325
64.8552 64.8345 185.0 0.00541 81.39938 234.67859
64.8719 64.8512 210.0 0.00476 81.33191 243.23265
64.8886 64.8679 228.0 0.00439 81.26448 252.52335
64.9053 64.8846 197.0 0.00507 81.19704 262.64218
64.9220 64.9013 222.0 0.00450 81.12961 273.68890
64.9388 64.9181 232.0 0.00431 81.06177 285.85626
64.9555 64.9348 240.0 0.00417 80.99434 299.12982
64.9722 64.9515 245.0 0.00408 80.92693 313.73578
64.9889 64.9682 246.0 0.00407 80.85950 329.85608
65.0056 64.9849 275.0 0.00364 80.79209 347.69989
65.0224 65.0017 316.0 0.003163 80.72423 367.66861
65.0391 65.0184 360.0 0.002779 80.65679 389.81464
65.0558 65.0351 365.0 0.002741 80.58936 414.64542
65.0725 65.0518 392.0 0.002551 80.52192 442.66684
65.0892 65.0685 431.0 0.002320 80.45448 474.52899
65.1059 65.0852 473.0 0.002114 80.38705 511.14359
65.1227 65.1020 565.0 0.001770 80.31924 554.10571
65.1394 65.1187 583.0 0.001715 80.25178 604.95319
65.1561 65.1354 701.0 0.001426 80.18434 666.79431
65.1728 65.1521 775.0 0.001290 80.11691 744.02252
65.1895 65.1688 832.0 0.001202 80.04950 842.95361
65.2063 65.1856 999.0 0.001001 79.98164 973.30872
65.2230 65.2023 1282.0 0.000780 79.91423 1145.28259
65.2397 65.2190 1355.0 0.000738 79.84679 1374.27917
65.2564 65.2357 1783.0 0.000561 79.77936 1677.47119
65.2731 65.2524 2170.0 0.000461 79.71192 2073.16357
65.2898 65.2691 2682.0 0.000373 79.64452 2578.38818
65.3066 65.2859 3283.0 0.0003046 79.57665 3210.90112
65.3233 65.3026 3991.0 0.0002506 79.50922 3967.58545
65.3400 65.3193 4893.0 0.0002044 79.44181 4845.03076
65.3567 65.3360 5838.0 0.0001713 79.37434 5819.68750
65.3734 65.3527 7031.0 0.0001422 79.30691 6844.78809
65.3902 65.3695 7887.0 0.0001268 79.23911 7851.91162
65.4069 65.3862 8855.0 0.0001129 79.17164 8728.02441
65.4236 65.4029 9350.0 0.0001069 79.10420 9364.51758
65.4403 65.4196 9893.0 0.0001011 79.03680 9674.45703
65.4570 65.4363 9754.0 0.0001025 78.96937 9631.16406
65.4738 65.4531 9563.0 0.0001046 78.90153 9266.32910
65.4905 65.4698 8555.0 0.0001169 78.83409 8651.68262
65.5072 65.4865 7617.0 0.0001313 78.76665 7860.01270
65.5239 65.5032 6766.0 0.0001478 78.69923 6965.21826
65.5406 65.5199 5632.0 0.0001775 78.63179 6038.30371
65.5573 65.5366 4768.0 0.0002097 78.56438 5140.68604
65.5741 65.5534 4049.0 0.0002470 78.49651 4310.98389
65.5908 65.5701 3221.0 0.0003105 78.42912 3585.14209
65.6075 65.5868 2847.0 0.000351 78.36168 2966.17798
65.6242 65.6035 2433.0 0.000411 78.29421 2450.89893
65.6409 65.6202 1966.0 0.000509 78.22681 2030.09009
65.6577 65.6370 1658.0 0.000603 78.15900 1689.27051
65.6744 65.6537 1412.0 0.000708 78.09151 1418.71875
65.6911 65.6704 1238.0 0.000808 78.02410 1204.10474
65.7078 65.6871 1082.0 0.000924 77.95667 1034.13733
65.7245 65.7038 933.0 0.001071 77.88923 899.37286
65.7413 65.7206 776.0 0.001288 77.82140 791.44067
65.7580 65.7373 723.0 0.001383 77.75396 705.37128
65.7747 65.7540 598.0 0.001673 77.68652 635.50800
65.7914 65.7707 620.0 0.001613 77.61909 578.04810
65.8081 65.7874 518.0 0.001930 77.55168 530.10291
65.8248 65.8041 453.0 0.002208 77.48425 489.51938
65.8416 65.8209 424.0 0.002359 77.41641 454.46173
65.8583 65.8376 415.0 0.002410 77.34898 424.20172
65.8750 65.8543 366.0 0.002733 77.28154 397.62491
65.8917 65.8710 338.0 0.002960 77.21410 374.07352
65.9084 65.8877 305.0 0.003280 77.14667 353.06738
65.9252 65.9045 308.0 0.003247 77.07887 334.11850
65.9419 65.9212 250.0 0.00400 77.01140 317.12363
65.9586 65.9379 268.0 0.00373 76.94396 301.74854
65.9753 65.9546 238.0 0.00420 76.87653 287.78156
65.9920 65.9713 212.0 0.00472 76.80909 275.05432
66.0088 65.9881 231.0 0.00433 76.74126 263.35562
66.0255 66.0048 201.0 0.00497 76.67382 252.70518
66.0422 66.0215 213.0 0.00470 76.60638 242.92284
66.0589 66.0382 196.0 0.00510 76.53898 233.91698
66.0756 66.0549 201.0 0.00497 76.47154 225.60759
66.0923 66.0716 201.0 0.00497 76.40414 217.92697
66.1091 66.0884 203.0 0.00492 76.33627 210.76511
66.1258 66.1051 171.0 0.00585 76.26884 204.16145
66.1425 66.1218 189.0 0.00529 76.20140 198.02068
66.1592 66.1385 163.0 0.00613 76.13397 192.29878
66.1759 66.1552 163.0 0.00613 76.06654 187.22476
66.1927 66.1720 170.0 0.00588 75.99873 182.31497
66.2094 66.1887 158.0 0.00633 75.93126 177.64825
66.2261 66.2054 138.0 0.00724 75.86383 173.27657
66.2428 66.2221 151.0 0.00662 75.79639 169.17302
66.2595 66.2388 161.0 0.00621 75.72899 165.31595
66.2763 66.2556 139.0 0.00719 75.66112 161.66411
66.2930 66.2723 142.0 0.00704 75.59372 158.24446
66.3097 66.2890 128.0 0.00782 75.52628 155.01799
66.3264 66.3057 115.0 0.00870 75.45885 151.97021
66.3431 66.3224 160.0 0.00625 75.39141 149.08806
66.3598 66.3391 141.0 0.00710 75.32401 146.36031
66.3766 66.3559 128.0 0.00782 75.25614 143.75819
66.3933 66.3726 119.0 0.00840 75.18871 141.30588
66.4100 66.3893 145.0 0.00690 75.12127 138.97717
66.4267 66.4060 120.0 0.00834 75.05383 136.76306
66.4434 66.4227 130.0 0.00769 74.98640 134.65726
66.4602 66.4395 122.0 0.00819 74.91859 132.64113
66.4769 66.4562 121.0 0.00826 74.85113 130.72942
66.4936 66.4729 127.0 0.00787 74.78369 128.90697
66.5103 66.4896 124.0 0.00806 74.71629 127.16718
66.5270 66.5063 141.0 0.00710 74.64885 125.50495
66.5438 66.5231 113.0 0.00885 74.58102 123.90609
66.5605 66.5398 106.0 0.00943 74.51358 122.90076
66.5772 66.5565 122.0 0.00819 74.44614 121.44997
66.5939 66.5732 107.0 0.00935 74.37871 120.06006
66.6106 66.5899 124.0 0.00806 74.31127 118.72755
66.6273 66.6066 109.0 0.00917 74.24387 117.44960
66.6441 66.6234 96.0 0.01042 74.17600 116.21471
66.6608 66.6401 78.0 0.01282 74.10860 115.03632
66.6775 66.6568 113.0 0.00885 74.04116 113.90365
66.6942 66.6735 112.0 0.00893 73.97369 112.81404
66.7109 66.6902 126.0 0.00794 73.90626 111.76585
66.7277 66.7070 106.0 0.00943 73.83849 110.75116
66.7444 66.7237 107.0 0.00935 73.77099 109.77856
66.7611 66.7404 102.0 0.00980 73.70358 108.84169
66.7778 66.7571 102.0 0.00980 73.63615 107.93819
66.7945 66.7738 92.0 0.01087 73.56872 107.06642
66.8113 66.7906 82.0 0.01220 73.50088 106.21981
66.8280 66.8073 114.0 0.00877 73.43344 105.40720
66.8447 66.8240 111.0 0.00900 73.36600 104.62202
66.8614 66.8407 90.0 0.01111 73.29857 103.86296
66.8781 66.8574 118.0 0.00848 73.23117 103.12888
66.8948 66.8741 87.0 0.01150 73.16373 102.41874
66.9116 66.8909 100.0 0.01000 73.09589 101.72684
66.9283 66.9076 96.0 0.01042 73.02846 101.06113
66.9450 66.9243 104.0 0.00961 72.96103 100.41619
66.9617 66.9410 115.0 0.00870 72.89359 99.79099
66.9784 66.9577 82.0 0.01220 72.82616 99.18498
66.9952 66.9745 123.0 0.00813 72.75835 98.59398
67.0119 66.9912 117.0 0.00854 72.69089 98.02348
67.0286 67.0079 82.0 0.01220 72.62345 97.47004
67.0453 67.0246 82.0 0.01220 72.55602 96.93269
67.0620 67.0413 103.0 0.00971 72.48858 96.41077
67.0788 67.0581 87.0 0.01150 72.42075 95.90062
67.0955 67.0748 76.0 0.01316 72.35331 95.40785
67.1122 67.0915 90.0 0.01111 72.28587 94.92878
67.1289 67.1082 92.0 0.01087 72.21847 94.46291
67.1456 67.1249 97.0 0.01031 72.15103 94.00970
67.1623 67.1416 113.0 0.00885 72.08363 93.56883
67.1791 67.1584 95.0 0.01053 72.01576 93.13684
67.1958 67.1751 115.0 0.00870 71.94833 92.71899
67.2125 67.1918 89.0 0.01124 71.88089 92.31209
67.2292 67.2085 105.0 0.00952 71.81345 91.91563
67.2459 67.2252 101.0 0.00990 71.74602 91.52945
67.2627 67.2420 101.0 0.00990 71.67822 91.15103
67.2794 67.2587 96.0 0.01042 71.61075 90.78402
67.2961 67.2754 89.0 0.01124 71.54331 90.42642
67.3128 67.2921 88.0 0.01136 71.47588 90.07768
67.3295 67.3088 91.0 0.01099 71.40847 89.73760
67.3462 67.3255 94.0 0.01064 71.34104 89.40581
67.3630 67.3423 111.0 0.00900 71.27317 89.08009
67.3797 67.3590 93.0 0.01075 71.20576 88.76425
67.3964 67.3757 82.0 0.01220 71.13834 88.45599
67.4131 67.3924 88.0 0.01136 71.07090 88.15507
67.4298 67.4091 88.0 0.01136 71.00349 87.86139
67.4466 67.4259 91.0 0.01099 70.93562 87.57272
67.4633 67.4426 98.0 0.01021 70.86819 87.29269
67.4800 67.4593 79.0 0.01266 70.80076 87.01922
67.4967 67.4760 84.0 0.01191 70.73332 86.75207
67.5134 67.4927 81.0 0.01235 70.66589 86.49120
67.5302 67.5095 88.0 0.01136 70.59808 86.23500
67.5469 67.5262 86.0 0.01163 70.53062 85.98600
67.5636 67.5429 91.0 0.01099 70.46318 85.74290
67.5803 67.5596 87.0 0.01150 70.39577 85.50549
67.5970 67.5763 84.0 0.01191 70.32834 85.27354
67.6137 67.5930 89.0 0.01124 70.26090 85.04695
67.6305 67.6098 89.0 0.01124 70.19307 84.82433
67.6472 67.6265 75.0 0.01333 70.12563 84.60822
67.6639 67.6432 77.0 0.01299 70.05820 84.39714
67.6806 67.6599 94.0 0.01064 69.99076 84.19104
67.6973 67.6766 87.0 0.01150 69.92336 83.98988
67.7141 67.6934 79.0 0.01266 69.85549 83.79219
67.7308 67.7101 75.0 0.01333 69.78806 83.60046
67.7475 67.7268 79.0 0.01266 69.72065 83.41341
67.7642 67.7435 85.0 0.01176 69.65318 83.23083
67.7809 67.7602 94.0 0.01064 69.58575 83.05281
67.7977 67.7770 90.0 0.01111 69.51794 82.87830
67.8144 67.7937 89.0 0.01124 69.45048 82.70908
67.8311 67.8104 94.0 0.01064 69.38307 82.54431
67.8478 67.8271 94.0 0.01064 69.31564 82.38383
67.8645 67.8438 93.0 0.01075 69.24820 82.22762
67.8812 67.8605 98.0 0.01021 69.18076 82.07566
67.8980 67.8773 94.0 0.01064 69.11293 81.92706
67.9147 67.8940 69.0 0.01449 69.04549 81.78356
67.9314 67.9107 91.0 0.01099 68.97806 81.64426
67.9481 67.9274 78.0 0.01282 68.91065 81.50919
67.9648 67.9441 93.0 0.01075 68.84322 81.37829
67.9816 67.9609 90.0 0.01111 68.77538 81.25081
67.9983 67.9776 79.0 0.01266 68.70795 81.12834
68.0150 67.9943 97.0 0.01031 68.64051 81.01012
68.0317 68.0110 91.0 0.01099 68.57305 80.89614
68.0484 68.0277 100.0 0.01000 68.50565 80.78652
68.0652 68.0445 89.0 0.01124 68.43784 80.68068
68.0819 68.0612 79.0 0.01266 68.37037 80.57979
68.0986 68.0779 91.0 0.01099 68.30294 80.48343
68.1153 68.0946 77.0 0.01299 68.23550 80.39161
68.1320 68.1113 81.0 0.01235 68.16807 80.30448
68.1487 68.1280 75.0 0.01333 68.10063 80.22208
68.1655 68.1448 90.0 0.01111 68.03279 80.14408
68.1822 68.1615 85.0 0.01176 67.96536 80.07159
68.1989 68.1782 75.0 0.01333 67.89796 80.00430
68.2156 68.1949 76.0 0.01316 67.86506 79.97681
68.2323 68.2116 99.0 0.01010 67.88267 80.00533
68.2491 68.2284 95.0 0.01053 67.90040 80.03986
68.2658 68.2451 92.0 0.01087 67.91802 80.08015
68.2825 68.2618 87.0 0.01150 67.93564 80.12670
68.2992 68.2785 83.0 0.01205 67.95326 80.17980
68.3159 68.2952 96.0 0.01042 67.97088 80.23983
68.3327 68.3120 79.0 0.01266 67.98859 80.30757
68.3494 68.3287 86.0 0.01163 68.00622 80.38276
68.3661 68.3454 87.0 0.01150 68.02384 80.46626
68.3828 68.3621 83.0 0.01205 68.04146 80.55865
68.3995 68.3788 78.0 0.01282 68.05908 80.66066
68.4162 68.3955 73.0 0.01370 68.07669 80.77310
68.4330 68.4123 103.0 0.00971 68.09442 80.89780
68.4497 68.4290 76.0 0.01316 68.11204 81.03440
68.4664 68.4457 89.0 0.01124 68.12965 81.18517
68.4831 68.4624 108.0 0.00926 68.14727 81.35207
68.4998 68.4791 94.0 0.01064 68.16489 81.53770
68.5166 68.4959 68.0 0.01471 68.18262 81.74715
68.5333 68.5126 82.0 0.01220 68.20023 81.98273
68.5500 68.5293 93.0 0.01075 68.21786 82.25269
68.5667 68.5460 94.0 0.01064 68.23547 82.56682
68.5834 68.5627 94.0 0.01064 68.25310 82.93806
68.6002 68.5795 79.0 0.01266 68.27081 83.38669
68.6169 68.5962 98.0 0.01021 68.28844 83.93061
68.6336 68.6129 83.0 0.01205 68.30605 84.59921
68.6503 68.6296 89.0 0.01124 68.32367 85.42543
68.6670 68.6463 95.0 0.01053 68.34129 86.44579
68.6837 68.6630 93.0 0.01075 68.35891 87.69830
68.7005 68.6798 100.0 0.01000 68.37663 89.22909
68.7172 68.6965 96.0 0.01042 68.39425 91.04784
68.7339 68.7132 106.0 0.00943 68.41187 93.17636
68.7506 68.7299 100.0 0.01000 68.42949 95.60355
68.7673 68.7466 98.0 0.01021 68.44710 98.28320
68.7841 68.7634 116.0 0.00862 68.46484 101.15054
68.8008 68.7801 84.0 0.01191 68.48245 104.04836
68.8175 68.7968 91.0 0.01099 68.50006 106.85793
68.8342 68.8135 94.0 0.01064 68.51769 109.43625
68.8509 68.8302 88.0 0.01136 68.53531 111.62004
68.8677 68.8470 102.0 0.00980 68.55302 113.22370
68.8844 68.8637 117.0 0.00854 68.57066 114.02796
68.9011 68.8804 97.0 0.01031 68.58826 113.90438
68.9178 68.8971 113.0 0.00885 68.60588 112.85422
68.9345 68.9138 107.0 0.00935 68.62350 111.03836
68.9512 68.9305 100.0 0.01000 68.64112 108.72478
68.9680 68.9473 115.0 0.00870 68.65884 106.18396
68.9847 68.9640 103.0 0.00971 68.67647 103.68526
69.0014 68.9807 85.0 0.01176 68.69408 101.37820
69.0181 68.9974 98.0 0.01021 68.71170 99.36120
69.0348 69.0141 124.0 0.00806 68.72932 97.68272
69.0516 69.0309 111.0 0.00900 68.74705 96.34688
69.0683 69.0476 102.0 0.00980 68.76466 95.35987
69.0850 69.0643 116.0 0.00862 68.78228 94.68570
69.1017 69.0810 111.0 0.00900 68.79990 94.28986
69.1184 69.0977 95.0 0.01053 68.81752 94.13532
69.1352 69.1145 103.0 0.00971 68.83524 94.18680
69.1519 69.1312 114.0 0.00877 68.85286 94.41165
69.1686 69.1479 101.0 0.00990 68.87048 94.78270
69.1853 69.1646 91.0 0.01099 68.88810 95.27921
69.2020 69.1813 106.0 0.00943 68.90572 95.88618
69.2187 69.1980 110.0 0.00909 68.92334 96.59364
69.2355 69.2148 101.0 0.00990 68.94106 97.40119
69.2522 69.2315 81.0 0.01235 68.95868 98.29694
69.2689 69.2482 92.0 0.01087 68.97630 99.28631
69.2856 69.2649 99.0 0.01010 68.99391 100.37245
69.3023 69.2816 100.0 0.01000 69.01152 101.56010
69.3191 69.2984 118.0 0.00848 69.02926 102.86549
69.3358 69.3151 98.0 0.01021 69.04688 104.28012
69.3525 69.3318 107.0 0.00935 69.06449 105.82213
69.3692 69.3485 113.0 0.00885 69.08212 107.50403
69.3859 69.3652 115.0 0.00870 69.09973 109.33874
69.4026 69.3819 119.0 0.00840 69.11735 111.34238
69.4194 69.3987 101.0 0.00990 69.13508 113.54971
69.4361 69.4154 124.0 0.00806 69.15269 115.95419
69.4528 69.4321 105.0 0.00952 69.17032 118.59520
69.4695 69.4488 146.0 0.00685 69.18793 121.50347
69.4862 69.4655 108.0 0.00926 69.20554 124.71572
69.5030 69.4823 110.0 0.00909 69.22328 128.29951
69.5197 69.4990 151.0 0.00662 69.24089 132.26590
69.5364 69.5157 139.0 0.00719 69.25851 136.70334
69.5531 69.5324 158.0 0.00633 69.27613 141.69698
69.5698 69.5491 168.0 0.00595 69.29374 147.35320
69.5866 69.5659 161.0 0.00621 69.31147 153.85886
69.6033 69.5826 165.0 0.00606 69.32909 161.31114
69.6200 69.5993 188.0 0.00532 69.34671 169.98685
69.6367 69.6160 167.0 0.00599 69.36433 180.20569
69.6534 69.6327 202.0 0.00495 69.38195 192.38731
69.6701 69.6494 206.0 0.00486 69.39956 207.10571
69.6869 69.6662 256.0 0.00391 69.41729 225.27963
69.7036 69.6829 283.0 0.00353 69.43491 247.73267
69.7203 69.6996 297.0 0.003368 69.45253 275.96796
69.7370 69.7163 301.0 0.003322 69.47015 311.78912
69.7537 69.7330 363.0 0.002756 69.48776 357.43060
69.7705 69.7498 413.0 0.002422 69.50549 415.91455
69.7872 69.7665 492.0 0.002033 69.52311 486.32581
69.8039 69.7832 586.0 0.001706 69.54073 577.93866
69.8206 69.7999 722.0 0.001385 69.55834 689.94440
69.8373 69.8166 812.0 0.001231 69.57596 823.52747
69.8541 69.8334 975.0 0.001026 69.59369 979.42334
69.8708 69.8501 1156.0 0.000865 69.61131 1153.05957
69.8875 69.8668 1315.0 0.000761 69.62892 1340.27600
69.9042 69.8835 1524.0 0.000656 69.64655 1532.90503
69.9209 69.9002 1735.0 0.000576 69.66417 1718.65332
69.9376 69.9169 1988.0 0.000503 69.68178 1881.09802
69.9544 69.9337 2048.0 0.000488 69.69951 2002.17383
69.9711 69.9504 2095.0 0.000477 69.71712 2064.07617
69.9878 69.9671 2067.0 0.000484 69.73474 2059.63330
70.0045 69.9838 1869.0 0.000535 69.75236 1991.78210
70.0212 70.0005 1889.0 0.000529 69.76998 1867.29895
70.0380 70.0173 1552.0 0.000644 69.78770 1700.84326
70.0547 70.0340 1381.0 0.000724 69.80532 1511.47803
70.0714 70.0507 1221.0 0.000819 69.82294 1314.78992
70.0881 70.0674 1028.0 0.000973 69.84056 1124.25488
70.1048 70.0841 910.0 0.001099 69.85817 949.18494
70.1216 70.1009 735.0 0.001361 69.87590 793.76508
70.1383 70.1176 667.0 0.001499 69.89352 663.36450
70.1550 70.1343 536.0 0.001866 69.91113 553.95630
70.1717 70.1510 497.0 0.002013 69.92876 465.09531
70.1884 70.1677 415.0 0.002410 69.94637 394.27951
70.2051 70.1844 335.0 0.002986 69.96399 338.62317
70.2219 70.2012 316.0 0.003163 69.98172 295.00391
70.2386 70.2179 302.0 0.003311 69.99934 261.38663
70.2553 70.2346 261.0 0.00383 70.01695 235.22659
70.2720 70.2513 241.0 0.00415 70.03458 214.70168
70.2887 70.2680 228.0 0.00439 70.05219 198.38229
70.3055 70.2848 191.0 0.00524 70.06992 185.11171
70.3222 70.3015 168.0 0.00595 70.08754 174.24988
70.3389 70.3182 175.0 0.00571 70.10515 165.13185
70.3556 70.3349 144.0 0.00694 70.12277 157.34767
70.3723 70.3516 170.0 0.00588 70.14038 150.60815
70.3891 70.3684 160.0 0.00625 70.15811 144.66586
70.4058 70.3851 154.0 0.00649 70.17573 139.44717
70.4225 70.4018 119.0 0.00840 70.19335 134.79950
70.4392 70.4185 118.0 0.00848 70.21097 130.63576
70.4559 70.4352 134.0 0.00746 70.22859 126.89075
70.4726 70.4519 140.0 0.00715 70.24620 123.50935
70.4894 70.4687 117.0 0.00854 70.26393 120.42557
70.5061 70.4854 120.0 0.00834 70.28156 117.64170
70.5228 70.5021 128.0 0.00782 70.29917 115.10477
70.5395 70.5188 132.0 0.00757 70.31679 112.78716
70.5562 70.5355 94.0 0.01064 70.33440 110.66495
70.5730 70.5523 102.0 0.00980 70.35213 109.85543
70.5897 70.5690 108.0 0.00926 70.36974 108.07555
70.6064 70.5857 125.0 0.00800 70.38737 106.43661
70.6231 70.6024 108.0 0.00926 70.40498 104.92474
70.6398 70.6191 104.0 0.00961 70.42259 103.52816
70.6566 70.6359 102.0 0.00980 70.44033 102.22730
70.6733 70.6526 116.0 0.00862 70.45795 101.02964
70.6900 70.6693 117.0 0.00854 70.47556 99.91807
70.7067 70.6860 99.0 0.01010 70.49319 98.88477
70.7234 70.7027 99.0 0.01010 70.51080 97.92365
70.7401 70.7194 98.0 0.01021 70.52842 97.02863
70.7569 70.7362 89.0 0.01124 70.54615 96.18857
70.7736 70.7529 101.0 0.00990 70.56377 95.40968
70.7903 70.7696 95.0 0.01053 70.58139 94.68201
70.8070 70.7863 86.0 0.01163 70.59900 94.00159
70.8237 70.8030 90.0 0.01111 70.61662 93.36490
70.8405 70.8198 104.0 0.00961 70.63435 92.76517
70.8572 70.8365 88.0 0.01136 70.65196 92.20676
70.8739 70.8532 87.0 0.01150 70.66958 91.68324
70.8906 70.8699 96.0 0.01042 70.68720 91.19221
70.9073 70.8866 100.0 0.01000 70.70481 90.73157
70.9241 70.9034 77.0 0.01299 70.72254 90.29635
70.9408 70.9201 78.0 0.01282 70.74017 89.89037
70.9575 70.9368 97.0 0.01031 70.75777 89.50907
70.9742 70.9535 86.0 0.01163 70.77540 89.15086
70.9909 70.9702 87.0 0.01150 70.79302 88.81445
71.0076 70.9869 91.0 0.01099 70.81063 88.49856
71.0244 71.0037 79.0 0.01266 70.82836 88.19994
71.0411 71.0204 94.0 0.01064 70.84599 87.92136
71.0578 71.0371 91.0 0.01099 70.86359 87.65984
71.0745 71.0538 91.0 0.01099 70.88122 87.41445
71.0912 71.0705 93.0 0.01075 70.89883 87.18430
71.1080 71.0873 81.0 0.01235 70.91656 86.96730
71.1247 71.1040 83.0 0.01205 70.93418 86.76534
71.1414 71.1207 90.0 0.01111 70.95180 86.57635
71.1581 71.1374 81.0 0.01235 70.96941 86.39970
71.1748 71.1541 86.0 0.01163 70.98703 86.23481
71.1916 71.1709 76.0 0.01316 71.00476 86.08012
71.2083 71.1876 84.0 0.01191 71.02237 85.93708
71.2250 71.2043 90.0 0.01111 71.03999 85.80421
71.2417 71.2210 89.0 0.01124 71.05762 85.68105
71.2584 71.2377 84.0 0.01191 71.07523 85.56721
71.2751 71.2544 95.0 0.01053 71.09285 85.46233
71.2919 71.2712 84.0 0.01191 71.11057 85.36539
71.3086 71.2879 84.0 0.01191 71.12819 85.27730
71.3253 71.3046 106.0 0.00943 71.14581 85.19711
71.3420 71.3213 94.0 0.01064 71.16343 85.12451
71.3587 71.3380 86.0 0.01163 71.18105 85.05927
71.3755 71.3548 88.0 0.01136 71.19878 85.00075
71.3922 71.3715 86.0 0.01163 71.21639 84.94947
71.4089 71.3882 88.0 0.01136 71.23402 84.90479
71.4256 71.4049 84.0 0.01191 71.25163 84.86652
71.4423 71.4216 89.0 0.01124 71.26924 84.83447
71.4590 71.4383 96.0 0.01042 71.28686 84.80846
71.4758 71.4551 103.0 0.00971 71.30459 84.78821
71.4925 71.4718 74.0 0.01351 71.32220 84.77383
71.5092 71.4885 87.0 0.01150 71.33983 84.76504
71.5259 71.5052 90.0 0.01111 71.35744 84.76168
71.5426 71.5219 99.0 0.01010 71.37505 84.76365
71.5594 71.5387 74.0 0.01351 71.39279 84.77090
71.5761 71.5554 79.0 0.01266 71.41041 84.78320
71.5928 71.5721 81.0 0.01235 71.42802 84.80054
71.6095 71.5888 80.0 0.01250 71.44565 84.82280
71.6262 71.6055 106.0 0.00943 71.46326 84.84989
71.6430 71.6223 81.0 0.01235 71.48099 84.88199
71.6597 71.6390 93.0 0.01075 71.49860 84.91859
71.6764 71.6557 85.0 0.01176 71.51622 84.95987
71.6931 71.6724 96.0 0.01042 71.53384 85.00574
71.7098 71.6891 83.0 0.01205 71.55145 85.05617
71.7265 71.7058 84.0 0.01191 71.56908 85.11115
71.7433 71.7226 72.0 0.01389 71.58680 85.17097
71.7600 71.7393 90.0 0.01111 71.60442 85.23492
71.7767 71.7560 80.0 0.01250 71.62204 85.30332
71.7934 71.7727 97.0 0.01031 71.63966 85.37614
71.8101 71.7894 93.0 0.01075 71.65727 85.45335
71.8269 71.8062 82.0 0.01220 71.67500 85.53555
71.8436 71.8229 91.0 0.01099 71.69263 85.62166
71.8603 71.8396 93.0 0.01075 71.71024 85.71217
71.8770 71.8563 81.0 0.01235 71.72785 85.80713
71.8937 71.8730 114.0 0.00877 71.74548 85.90655
71.9105 71.8898 87.0 0.01150 71.76320 86.01108
71.9272 71.9065 86.0 0.01163 71.78082 86.11951
71.9439 71.9232 84.0 0.01191 71.79844 86.23246
71.9606 71.9399 90.0 0.01111 71.81606 86.34998
71.9773 71.9566 85.0 0.01176 71.83368 86.47211
71.9940 71.9733 102.0 0.00980 71.85129 86.59886
72.0108 71.9901 99.0 0.01010 71.86902 86.73122
72.0275 72.0068 107.0 0.00935 71.88663 86.86751
72.0442 72.0235 101.0 0.00990 71.90426 87.00868
72.0609 72.0402 86.0 0.01163 71.92188 87.15472
72.0776 72.0569 93.0 0.01075 71.93949 87.30568
72.0944 72.0737 117.0 0.00854 71.95722 87.46272
72.1111 72.0904 95.0 0.01053 71.97484 87.62393
72.1278 72.1071 92.0 0.01087 71.99245 87.79035
72.1445 72.1238 89.0 0.01124 72.01007 87.96210
72.1612 72.1405 102.0 0.00980 72.02769 88.13924
72.1780 72.1573 100.0 0.01000 72.04541 88.32307
72.1947 72.1740 87.0 0.01150 72.06303 88.51143
72.2114 72.1907 96.0 0.01042 72.08065 88.70555
72.2281 72.2074 102.0 0.00980 72.09827 88.90557
72.2448 72.2241 96.0 0.01042 72.11588 89.11154
72.2615 72.2408 118.0 0.00848 72.13351 89.32386
72.2783 72.2576 86.0 0.01163 72.15123 89.54365
72.2950 72.2743 94.0 0.01064 72.16885 89.76867
72.3117 72.2910 95.0 0.01053 72.18647 90.00037
72.3284 72.3077 104.0 0.00961 72.20409 90.23881
72.3451 72.3244 111.0 0.00900 72.22170 90.48415
72.3619 72.3412 104.0 0.00961 72.23943 90.73842
72.3786 72.3579 107.0 0.00935 72.25705 90.99847
72.3953 72.3746 101.0 0.00990 72.27467 91.26607
72.4120 72.3913 115.0 0.00870 72.29229 91.54152
72.4287 72.4080 113.0 0.00885 72.30991 91.82498
72.4455 72.4248 109.0 0.00917 72.32763 92.11855
72.4622 72.4415 126.0 0.00794 72.34525 92.41888
72.4789 72.4582 105.0 0.00952 72.36287 92.72805
72.4956 72.4749 126.0 0.00794 72.38048 93.04626
72.5123 72.4916 126.0 0.00794 72.39810 93.37388
72.5290 72.5083 122.0 0.00819 72.41571 93.71108
72.5458 72.5251 124.0 0.00806 72.43344 94.06066
72.5625 72.5418 107.0 0.00935 72.45107 94.41840
72.5792 72.5585 134.0 0.00746 72.46868 94.78693
72.5959 72.5752 131.0 0.00763 72.48630 95.16647
72.6126 72.5919 127.0 0.00787 72.50391 95.55737
72.6294 72.6087 139.0 0.00719 72.52164 95.96287
72.6461 72.6254 130.0 0.00769 72.53926 96.37818
72.6628 72.6421 124.0 0.00806 72.55688 96.80625
72.6795 72.6588 117.0 0.00854 72.57450 97.24760
72.6962 72.6755 117.0 0.00854 72.59212 97.70269
72.7130 72.6923 117.0 0.00854 72.60985 98.17503
72.7297 72.7090 137.0 0.00731 72.62746 98.65939
72.7464 72.7257 139.0 0.00719 72.64507 99.14517
72.7631 72.7424 120.0 0.00834 72.66270 99.66116
72.7798 72.7591 125.0 0.00800 72.68031 100.19370
72.7965 72.7758 131.0 0.00763 72.69794 100.74416
72.8133 72.7926 131.0 0.00763 72.71566 101.31580
72.8300 72.8093 113.0 0.00885 72.73328 101.90306
72.8467 72.8260 115.0 0.00870 72.75090 102.51025
72.8634 72.8427 121.0 0.00826 72.76852 103.13779
72.8801 72.8594 131.0 0.00763 72.78613 103.78664
72.8969 72.8762 133.0 0.00752 72.80386 104.46250
72.9136 72.8929 104.0 0.00961 72.82148 105.15754
72.9303 72.9096 123.0 0.00813 72.83910 105.87711
72.9470 72.9263 139.0 0.00719 72.85671 106.62235
72.9637 72.9430 120.0 0.00834 72.87433 107.39443
72.9805 72.9598 120.0 0.00834 72.89205 108.19965
72.9972 72.9765 142.0 0.00704 72.90968 109.02953
73.0139 72.9932 146.0 0.00685 72.92729 109.89034
73.0306 73.0099 115.0 0.00870 72.94491 110.78361
73.0473 73.0266 127.0 0.00787 72.96253 111.71099
73.0640 73.0433 132.0 0.00757 72.98014 112.67388
73.0808 73.0601 123.0 0.00813 72.99787 113.68127
73.0975 73.0768 131.0 0.00763 73.01550 114.72202
73.1142 73.0935 126.0 0.00794 73.03311 115.80478
73.1309 73.1102 151.0 0.00662 73.05074 116.93124
73.1476 73.1269 143.0 0.00699 73.06834 118.10374
73.1644 73.1437 127.0 0.00787 73.08607 119.33349
73.1811 73.1604 106.0 0.00943 73.10370 120.60727
73.1978 73.1771 123.0 0.00813 73.12131 121.93567
73.2145 73.1938 133.0 0.00752 73.13892 123.32185
73.2312 73.2105 127.0 0.00787 73.15655 124.76922
73.2480 73.2273 114.0 0.00877 73.17427 126.29089
73.2647 73.2440 116.0 0.00862 73.19189 127.87220
73.2814 73.2607 131.0 0.00763 73.20951 129.52650
73.2981 73.2774 123.0 0.00813 73.22713 131.25829
73.3148 73.2941 129.0 0.00775 73.24474 133.07195
73.3315 73.3108 143.0 0.00699 73.26237 134.97501
73.3483 73.3276 124.0 0.00806 73.28008 136.98238
73.3650 73.3443 134.0 0.00746 73.29770 139.07808
73.3817 73.3610 122.0 0.00819 73.31533 141.28088
73.3984 73.3777 147.0 0.00681 73.33295 143.59686
73.4151 73.3944 133.0 0.00752 73.35056 146.03387
73.4319 73.4112 139.0 0.00719 73.36829 148.61896
73.4486 73.4279 143.0 0.00699 73.38590 151.32791
73.4653 73.4446 113.0 0.00885 73.40353 154.18723
73.4820 73.4613 133.0 0.00752 73.42114 157.20815
73.4987 73.4780 131.0 0.00763 73.43876 160.40314
73.5155 73.4948 142.0 0.00704 73.45648 163.80716
73.5322 73.5115 153.0 0.00654 73.47411 167.39378
73.5489 73.5282 146.0 0.00685 73.49172 171.19971
73.5656 73.5449 152.0 0.00658 73.50934 175.24310
73.5823 73.5616 156.0 0.00641 73.52695 179.54420
73.5990 73.5783 160.0 0.00625 73.54456 184.12392
73.6158 73.5951 183.0 0.00546 73.56230 189.04228
73.6325 73.6118 143.0 0.00699 73.57992 194.26285
73.6492 73.6285 179.0 0.00559 73.59753 199.84860
73.6659 73.6452 155.0 0.00645 73.61516 205.83078
73.6826 73.6619 178.0 0.00562 73.63277 212.24762
73.6994 73.6787 190.0 0.00527 73.65050 219.19244
73.7161 73.6954 197.0 0.00507 73.66812 226.62387
73.7328 73.7121 201.0 0.00497 73.68574 234.64012
73.7495 73.7288 223.0 0.00449 73.70336 243.30412
73.7662 73.7455 251.0 0.00399 73.72098 252.68741
73.7829 73.7622 222.0 0.00450 73.73859 262.87195
73.7997 73.7790 251.0 0.00399 73.75632 274.02896
73.8164 73.7957 238.0 0.00420 73.77393 286.12085
73.8331 73.8124 274.0 0.00365 73.79155 299.34705
73.8498 73.8291 301.0 0.003322 73.80917 313.85599
73.8665 73.8458 327.0 0.003059 73.82679 329.85080
73.8833 73.8626 331.0 0.003022 73.84451 347.64648
73.9000 73.8793 363.0 0.002756 73.86214 367.33566
73.9167 73.8960 366.0 0.002733 73.87975 389.39801
73.9334 73.9127 400.0 0.002500 73.89737 414.31448
73.9501 73.9294 418.0 0.002391 73.91499 442.74197
73.9669 73.9462 490.0 0.002040 73.93272 475.81024
73.9836 73.9629 516.0 0.001937 73.95033 514.28156
74.0003 73.9796 556.0 0.001799 73.96796 559.92346
74.0170 73.9963 673.0 0.001486 73.98557 614.77838
74.0337 74.0130 733.0 0.001365 74.00319 681.43835
74.0504 74.0297 838.0 0.001193 74.02081 763.09882
74.0672 74.0465 948.0 0.001055 74.03853 864.25537
74.0839 74.0632 1095.0 0.000913 74.05614 988.08038
74.1006 74.0799 1249.0 0.000801 74.07377 1139.97241
74.1173 74.0966 1404.0 0.000712 74.09138 1325.04492
74.1340 74.1133 1627.0 0.000615 74.10900 1548.34985
74.1508 74.1301 1895.0 0.000528 74.12673 1816.66748
74.1675 74.1468 2200.0 0.000455 74.14435 2129.78711
74.1842 74.1635 2489.0 0.000402 74.16197 2493.31689
74.2009 74.1802 2823.0 0.000354 74.17959 2906.22900
74.2176 74.1969 3259.0 0.0003068 74.19720 3364.27612
74.2344 74.2137 3532.0 0.0002831 74.21494 3860.79614
74.2511 74.2304 4157.0 0.0002406 74.23255 4371.79053
74.2678 74.2471 4663.0 0.0002144 74.25016 4876.93164
74.2845 74.2638 4945.0 0.0002022 74.26778 5352.26221
74.3012 74.2805 5557.0 0.0001799 74.28540 5781.29980
74.3179 74.2972 5936.0 0.0001684 74.30302 6159.97168
74.3347 74.3140 6392.0 0.0001564 74.32075 6494.67334
74.3514 74.3307 6863.0 0.0001457 74.33836 6783.70020
74.3681 74.3474 7100.0 0.0001409 74.35598 7017.89795
74.3848 74.3641 7440.0 0.0001344 74.37360 7167.52783
74.4015 74.3808 7379.0 0.0001355 74.39122 7190.71533
74.4183 74.3976 7191.0 0.0001391 74.40894 7048.93164
74.4350 74.4143 6716.0 0.0001489 74.42656 6731.59326
74.4517 74.4310 6106.0 0.0001638 74.44418 6259.11865
74.4684 74.4477 5477.0 0.0001826 74.46181 5677.99316
74.4851 74.4644 4821.0 0.0002074 74.47942 5042.23633
74.5019 74.4812 4175.0 0.0002396 74.49715 4395.14209
74.5186 74.4979 3579.0 0.0002795 74.51476 3780.64795
74.5353 74.5146 3147.0 0.0003177 74.53238 3217.18042
74.5520 74.5313 2696.0 0.000371 74.55000 2716.95532
74.5687 74.5480 2249.0 0.000445 74.56762 2284.48364
74.5854 74.5647 1991.0 0.000502 74.58524 1918.84583
74.6022 74.5815 1740.0 0.000575 74.60296 1613.80957
74.6189 74.5982 1531.0 0.000653 74.62058 1366.31873
74.6356 74.6149 1347.0 0.000742 74.63819 1166.53503
74.6523 74.6316 1181.0 0.000847 74.65581 1006.50415
74.6690 74.6483 1030.0 0.000971 74.67342 878.76471
74.6858 74.6651 934.0 0.001071 74.69115 776.00635
74.7025 74.6818 809.0 0.001236 74.70877 693.93304
74.7192 74.6985 700.0 0.001428 74.72640 627.22943
74.7359 74.7152 674.0 0.001484 74.74401 572.34241
74.7526 74.7319 625.0 0.001600 74.76163 526.51099
74.7694 74.7487 571.0 0.001751 74.77936 487.41074
74.7861 74.7654 465.0 0.002151 74.79697 454.01721
74.8028 74.7821 439.0 0.002278 74.81460 424.93362
74.8195 74.7988 405.0 0.002470 74.83221 399.32938
74.8362 74.8155 390.0 0.002564 74.84983 376.58652
74.8529 74.8322 348.0 0.002875 74.86745 356.23865
74.8697 74.8490 349.0 0.002866 74.88518 337.81970
74.8864 74.8657 321.0 0.003114 74.90279 321.27020
74.9031 74.8824 301.0 0.003322 74.92041 306.24438
74.9198 74.8991 280.0 0.00357 74.93802 292.55899
74.9365 74.9158 285.0 0.00351 74.95564 280.04251
74.9533 74.9326 272.0 0.00368 74.97337 268.51700
74.9700 74.9493 224.0 0.00446 74.99099 257.99448
74.9867 74.9660 214.0 0.00467 75.00861 248.30402
75.0034 74.9827 234.0 0.00427 75.02623 239.36581
75.0201 74.9994 216.0 0.00463 75.04384 231.10445
75.0369 75.0162 198.0 0.00505 75.06157 223.40196
75.0536 75.0329 175.0 0.00571 75.07919 216.30118
75.0703 75.0496 195.0 0.00513 75.09681 209.69975
75.0870 75.0663 192.0 0.00521 75.11443 203.55231
75.1037 75.0830 195.0 0.00513 75.13204 197.81848
75.1204 75.0997 172.0 0.00582 75.14966 192.46222
75.1372 75.1165 181.0 0.00553 75.16738 187.42160
75.1539 75.1332 150.0 0.00666 75.18501 182.72917
75.1706 75.1499 155.0 0.00645 75.20262 178.32721
75.1873 75.1666 179.0 0.00559 75.22025 174.19243
75.2040 75.1833 135.0 0.00741 75.23785 170.30490
75.2208 75.2001 144.0 0.00694 75.25558 166.62048
75.2375 75.2168 153.0 0.00654 75.27321 163.17018
75.2542 75.2335 128.0 0.00782 75.29082 159.91319
75.2709 75.2502 123.0 0.00813 75.30844 156.83720
75.2876 75.2669 123.0 0.00813 75.32606 153.92915
75.3044 75.2837 139.0 0.00719 75.34379 151.15833
75.3211 75.3004 136.0 0.00736 75.36140 148.55025
75.3378 75.3171 132.0 0.00757 75.37902 146.07681
75.3545 75.3338 114.0 0.00877 75.39664 143.72905
75.3712 75.3505 130.0 0.00769 75.41425 141.49863
75.3879 75.3672 121.0 0.00826 75.43188 139.37798
75.4047 75.3840 135.0 0.00741 75.44960 137.34799
75.4214 75.4007 123.0 0.00813 75.46722 135.42699
75.4381 75.4174 104.0 0.00961 75.48483 133.59679
75.4548 75.4341 143.0 0.00699 75.50246 131.84987
75.4715 75.4508 114.0 0.00877 75.52008 130.18370
75.4883 75.4676 115.0 0.00870 75.53780 128.58348
75.5050 75.4843 87.0 0.01150 75.55541 127.06337
75.5217 75.5010 117.0 0.00854 75.57304 125.60942
75.5384 75.5177 97.0 0.01031 75.59066 124.21868
75.5551 75.5344 108.0 0.00926 75.60827 122.88763
75.5719 75.5512 115.0 0.00870 75.62601 121.60416
75.5886 75.5679 117.0 0.00854 75.64362 120.38204
75.6053 75.5846 96.0 0.01042 75.66123 119.21005
75.6220 75.6013 127.0 0.00787 75.67886 118.08556
75.6387 75.6180 111.0 0.00900 75.69647 117.00605
75.6554 75.6347 110.0 0.00909 75.71409 115.96922
75.6722 75.6515 129.0 0.00775 75.73182 114.96695
75.6889 75.6682 114.0 0.00877 75.74944 114.00938
75.7056 75.6849 83.0 0.01205 75.76704 113.08865
75.7223 75.7016 102.0 0.00980 75.78468 112.20191
75.7390 75.7183 95.0 0.01053 75.80228 111.34929
75.7558 75.7351 94.0 0.01064 75.82001 110.52250
75.7725 75.7518 110.0 0.00909 75.83763 109.73112
75.7892 75.7685 75.0 0.01333 75.85526 108.96816
75.8059 75.7852 95.0 0.01053 75.87287 108.23273
75.8226 75.8019 95.0 0.01053 75.89049 107.52337
75.8393 75.8186 102.0 0.00980 75.90810 106.83910
75.8561 75.8354 113.0 0.00885 75.92583 106.17422
75.8728 75.8521 102.0 0.00980 75.94345 105.53643
75.8895 75.8688 108.0 0.00926 75.96107 104.92039
75.9062 75.8855 88.0 0.01136 75.97869 104.32516
75.9229 75.9022 83.0 0.01205 75.99630 103.74986
75.9397 75.9190 96.0 0.01042 76.01403 103.19031
75.9564 75.9357 100.0 0.01000 76.03165 102.65252
75.9731 75.9524 106.0 0.00943 76.04926 102.13243
75.9898 75.9691 117.0 0.00854 76.06689 101.62874
76.0065 75.9858 112.0 0.00893 76.08450 101.14149
76.0233 76.0026 92.0 0.01087 76.10223 100.66705
76.0400 76.0193 99.0 0.01010 76.11984 100.21031
76.0567 76.0360 104.0 0.00961 76.13747 99.76777
76.0734 76.0527 88.0 0.01136 76.15508 99.33914
76.0901 76.0694 113.0 0.00885 76.17271 98.92377
76.1068 76.0861 91.0 0.01099 76.19032 98.52126
76.1236 76.1029 108.0 0.00926 76.20805 98.12843
76.1403 76.1196 98.0 0.01021 76.22566 97.74996
76.1570 76.1363 108.0 0.00926 76.24329 97.38291
76.1737 76.1530 83.0 0.01205 76.26089 97.02682
76.1904 76.1697 95.0 0.01053 76.27852 96.68133
76.2072 76.1865 91.0 0.01099 76.29624 96.34402
76.2239 76.2032 92.0 0.01087 76.31386 96.01867
76.2406 76.2199 108.0 0.00926 76.33147 95.70291
76.2573 76.2366 98.0 0.01021 76.34910 95.39609
76.2740 76.2533 91.0 0.01099 76.36671 95.09852
76.2908 76.2701 98.0 0.01021 76.38445 94.80752
76.3075 76.2868 106.0 0.00943 76.40206 94.52672
76.3242 76.3035 87.0 0.01150 76.41968 94.25387
76.3409 76.3202 100.0 0.01000 76.43730 93.98888
76.3576 76.3369 104.0 0.00961 76.45492 93.73141
76.3743 76.3536 106.0 0.00943 76.47253 93.48134
76.3911 76.3704 95.0 0.01053 76.49026 93.23672
76.4078 76.3871 86.0 0.01163 76.50788 93.00053
76.4245 76.4038 105.0 0.00952 76.52549 92.77097
76.4412 76.4205 104.0 0.00961 76.54311 92.54788
76.4579 76.4372 92.0 0.01087 76.56073 92.33105
76.4747 76.4540 92.0 0.01087 76.57845 92.11903
76.4914 76.4707 98.0 0.01021 76.59608 91.91424
76.5081 76.4874 107.0 0.00935 76.61369 91.71524
76.5248 76.5041 104.0 0.00961 76.63132 91.52167
76.5415 76.5208 97.0 0.01031 76.64893 91.33366
76.5583 76.5376 109.0 0.00917 76.66666 91.14988
76.5750 76.5543 112.0 0.00893 76.68427 90.97233
76.5917 76.5710 96.0 0.01042 76.70190 90.79977
76.6084 76.5877 104.0 0.00961 76.71951 90.63219
76.6251 76.6044 84.0 0.01191 76.73713 90.46938
76.6418 76.6211 117.0 0.00854 76.75475 90.31129
76.6586 76.6379 103.0 0.00971 76.77247 90.15675
76.6753 76.6546 112.0 0.00893 76.79009 90.00768
76.6920 76.6713 85.0 0.01176 76.80771 89.86298
76.7087 76.6880 94.0 0.01064 76.82533 89.72256
76.7254 76.7047 100.0 0.01000 76.84295 89.58635
76.7422 76.7215 105.0 0.00952 76.86067 89.45345
76.7589 76.7382 89.0 0.01124 76.87829 89.32544
76.7756 76.7549 109.0 0.00917 76.89590 89.20143
76.7923 76.7716 106.0 0.00943 76.91353 89.08123
76.8090 76.7883 82.0 0.01220 76.93114 88.96503
76.8258 76.8051 104.0 0.00961 76.94887 88.85187
76.8425 76.8218 94.0 0.01064 76.96648 88.74318
76.8592 76.8385 77.0 0.01299 76.98412 88.63822
76.8759 76.8552 82.0 0.01220 77.00172 88.53696
76.8926 76.8719 105.0 0.00952 77.01934 88.43935
76.9093 76.8886 91.0 0.01099 77.03696 88.34544
76.9261 76.9054 102.0 0.00980 77.05469 88.25454
76.9428 76.9221 106.0 0.00943 77.07230 88.16787
76.9595 76.9388 111.0 0.00900 77.08993 88.08484
76.9762 76.9555 92.0 0.01087 77.10754 88.00543
76.9929 76.9722 99.0 0.01010 77.12515 87.92969
77.0097 76.9890 81.0 0.01235 77.14289 87.85725
77.0264 77.0057 95.0 0.01053 77.16050 87.78898
77.0431 77.0224 94.0 0.01064 77.17812 87.72456
77.0598 77.0391 107.0 0.00935 77.19575 87.66396
77.0765 77.0558 106.0 0.00943 77.21141 87.60542
77.0933 77.0726 93.0 0.01075 77.21507 87.53858
77.1100 77.0893 96.0 0.01042 77.21872 87.47639
77.1267 77.1060 98.0 0.01021 77.22237 87.41857
77.1434 77.1227 84.0 0.01191 77.22601 87.36538
77.1601 77.1394 95.0 0.01053 77.22965 87.31702
77.1768 77.1561 102.0 0.00980 77.23329 87.27382
77.1936 77.1729 98.0 0.01021 77.23696 87.23588
77.2103 77.1896 101.0 0.00990 77.24061 87.20414
77.2270 77.2063 91.0 0.01099 77.24425 87.17892
77.2437 77.2230 98.0 0.01021 77.24789 87.16100
77.2604 77.2397 83.0 0.01205 77.25154 87.15141
77.2772 77.2565 91.0 0.01099 77.25520 87.15163
77.2939 77.2732 97.0 0.01031 77.25885 87.16368
77.3106 77.2899 97.0 0.01031 77.26249 87.19038
77.3273 77.3066 87.0 0.01150 77.26614 87.23576
77.3440 77.3233 78.0 0.01282 77.26978 87.30515
77.3608 77.3401 92.0 0.01087 77.27345 87.40666
77.3775 77.3568 92.0 0.01087 77.27709 87.54843
77.3942 77.3735 102.0 0.00980 77.28074 87.74269
77.4109 77.3902 82.0 0.01220 77.28438 88.00310
77.4276 77.4069 94.0 0.01064 77.28802 88.34504
77.4443 77.4236 96.0 0.01042 77.29167 88.78423
77.4611 77.4404 86.0 0.01163 77.29533 89.33975
77.4778 77.4571 73.0 0.01370 77.29898 90.01631
77.4945 77.4738 100.0 0.01000 77.30262 90.82343
77.5112 77.4905 82.0 0.01220 77.30627 91.75915
77.5279 77.5072 86.0 0.01163 77.30991 92.80997
77.5447 77.5240 78.0 0.01282 77.31358 93.95396
77.5614 77.5407 88.0 0.01136 77.31722 95.12701
77.5781 77.5574 102.0 0.00980 77.32087 96.25951
77.5948 77.5741 82.0 0.01220 77.32451 97.24892
77.6115 77.5908 89.0 0.01124 77.32816 97.97236
77.6283 77.6076 78.0 0.01282 77.33183 98.32120
77.6450 77.6243 74.0 0.01351 77.33546 98.23329
77.6617 77.6410 84.0 0.01191 77.33911 97.73261
77.6784 77.6577 89.0 0.01124 77.34276 96.90924
77.6951 77.6744 94.0 0.01064 77.34640 95.88406
77.7118 77.6911 98.0 0.01021 77.35004 94.77269
77.7286 77.7079 99.0 0.01010 77.35371 93.65804
77.7453 77.7246 92.0 0.01087 77.35735 92.61771
77.7620 77.7413 89.0 0.01124 77.36100 91.68369
77.7787 77.7580 86.0 0.01163 77.36464 90.87717
77.7954 77.7747 91.0 0.01099 77.36829 90.20598
77.8122 77.7915 93.0 0.01075 77.37196 89.66521
77.8289 77.8082 97.0 0.01031 77.37560 89.25265
77.8456 77.8249 86.0 0.01163 77.37924 88.95175
77.8623 77.8416 93.0 0.01075 77.38289 88.74741
77.8790 77.8583 89.0 0.01124 77.38653 88.62511
77.8957 77.8750 81.0 0.01235 77.39017 88.57091
77.9125 77.8918 90.0 0.01111 77.39384 88.57338
77.9292 77.9085 72.0 0.01389 77.39748 88.62309
77.9459 77.9252 66.0 0.01515 77.40113 88.71283
77.9626 77.9419 82.0 0.01220 77.40477 88.83773
77.9793 77.9586 71.0 0.01409 77.40842 88.99462
77.9961 77.9754 93.0 0.01075 77.41209 89.18327
78.0128 77.9921 76.0 0.01316 77.41573 89.40076
78.0295 78.0088 66.0 0.01515 77.41937 89.64872
78.0462 78.0255 105.0 0.00952 77.42302 89.92834
78.0629 78.0422 92.0 0.01087 77.42666 90.24154
78.0797 78.0590 109.0 0.00917 77.43033 90.59311
78.0964 78.0757 102.0 0.00980 77.43398 90.98188
78.1131 78.0924 84.0 0.01191 77.43761 91.41352
78.1298 78.1091 110.0 0.00909 77.44126 91.89307
78.1465 78.1258 91.0 0.01099 77.44491 92.42529
78.1632 78.1425 86.0 0.01163 77.44855 93.01696
78.1800 78.1593 92.0 0.01087 77.45222 93.68015
78.1967 78.1760 80.0 0.01250 77.45586 94.41743
78.2134 78.1927 104.0 0.00961 77.45950 95.24473
78.2301 78.2094 88.0 0.01136 77.46315 96.17886
78.2468 78.2261 83.0 0.01205 77.46679 97.24141
78.2636 78.2429 81.0 0.01235 77.47046 98.47094
78.2803 78.2596 110.0 0.00909 77.47411 99.89140
78.2970 78.2763 93.0 0.01075 77.47775 101.56348
78.3137 78.2930 118.0 0.00848 77.48139 103.55820
78.3304 78.3097 113.0 0.00885 77.48503 105.96815
78.3472 78.3265 113.0 0.00885 77.48870 108.93157
78.3639 78.3432 130.0 0.00769 77.49235 112.55983
78.3806 78.3599 109.0 0.00917 77.49599 117.04451
78.3973 78.3766 141.0 0.00710 77.49963 122.59698
78.4140 78.3933 142.0 0.00704 77.50327 129.43468
78.4307 78.4100 154.0 0.00649 77.50692 137.81921
78.4475 78.4268 152.0 0.00658 77.51059 148.05179
78.4642 78.4435 175.0 0.00571 77.51424 160.25856
78.4809 78.4602 184.0 0.00544 77.51788 174.68466
78.4976 78.4769 186.0 0.00537 77.52152 191.45924
78.5143 78.4936 225.0 0.00444 77.52516 210.57967
78.5311 78.5104 228.0 0.00439 77.52883 232.01221
78.5478 78.5271 260.0 0.00385 77.53248 255.01724
78.5645 78.5438 303.0 0.003299 77.53612 278.95175
78.5812 78.5605 331.0 0.003022 77.53976 301.47617
78.5979 78.5772 346.0 0.002891 77.54341 324.16385
78.6147 78.5940 353.0 0.002832 77.54707 345.01944
78.6314 78.6107 369.0 0.002710 77.55072 363.41306
78.6481 78.6274 401.0 0.002495 77.55436 380.49741
78.6648 78.6441 429.0 0.002332 77.55801 393.60474
78.6815 78.6608 412.0 0.002427 77.56165 402.93036
78.6982 78.6775 384.0 0.002603 77.56530 406.94751
78.7150 78.6943 437.0 0.002289 77.56896 401.72144
78.7317 78.7110 395.0 0.002533 77.57261 390.85910
78.7484 78.7277 404.0 0.002475 77.57625 372.48117
78.7651 78.7444 299.0 0.003345 77.57990 348.25031
78.7818 78.7611 326.0 0.003066 77.58354 320.50107
78.7986 78.7779 287.0 0.003485 77.58720 291.30328
78.8153 78.7946 249.0 0.00402 77.59085 262.84390
78.8320 78.8113 264.0 0.00379 77.59449 236.16264
78.8487 78.8280 195.0 0.00513 77.59814 211.99332
78.8654 78.8447 186.0 0.00537 77.60178 190.69920
78.8822 78.8615 195.0 0.00513 77.60545 172.27335
78.8989 78.8782 164.0 0.00609 77.60909 156.84816
78.9156 78.8949 151.0 0.00662 77.61274 144.08546
78.9323 78.9116 143.0 0.00699 77.61638 133.67409
78.9490 78.9283 154.0 0.00649 77.62003 125.29863
78.9657 78.9450 140.0 0.00715 77.62367 118.59882
78.9825 78.9618 113.0 0.00885 77.62733 113.23962
78.9992 78.9785 113.0 0.00885 77.63098 108.99204
79.0159 78.9952 114.0 0.00877 77.63462 105.58318
79.0326 79.0119 115.0 0.00870 77.63827 102.81649
79.0493 79.0286 109.0 0.00917 77.64191 100.53965
79.0661 79.0454 104.0 0.00961 77.64558 98.62375
79.0828 79.0621 82.0 0.01220 77.64922 97.00706
79.0995 79.0788 81.0 0.01235 77.65287 95.61293
79.1162 79.0955 77.0 0.01299 77.65651 94.39532
79.1329 79.1122 102.0 0.00980 77.66016 93.32065
79.1497 79.1290 88.0 0.01136 77.66383 92.35860
79.1664 79.1457 88.0 0.01136 77.66747 91.50220
79.1831 79.1624 106.0 0.00943 77.67111 90.73111
79.1998 79.1791 81.0 0.01235 77.67476 90.03316
79.2165 79.1958 81.0 0.01235 77.67840 89.40015
79.2332 79.2125 91.0 0.01099 77.68204 88.82404
79.2500 79.2293 97.0 0.01031 77.68571 88.29542
79.2667 79.2460 100.0 0.01000 77.68935 87.81477
79.2834 79.2627 88.0 0.01136 77.69300 87.37441
79.3001 79.2794 82.0 0.01220 77.69664 86.97007
79.3168 79.2961 96.0 0.01042 77.70029 86.59824
79.3336 79.3129 101.0 0.00990 77.70396 86.25341
79.3503 79.3296 72.0 0.01389 77.70760 85.93733
79.3670 79.3463 78.0 0.01282 77.71124 85.64523
79.3837 79.3630 77.0 0.01299 77.71488 85.37494
79.4004 79.3797 74.0 0.01351 77.71853 85.12452
79.4172 79.3965 84.0 0.01191 77.72220 84.89088
79.4339 79.4132 83.0 0.01205 77.72584 84.67533
79.4506 79.4299 77.0 0.01299 77.72948 84.47505
79.4673 79.4466 86.0 0.01163 77.73313 84.28860
79.4840 79.4633 93.0 0.01075 77.73677 84.11526
79.5007 79.4800 84.0 0.01191 77.74042 83.95361
79.5175 79.4968 78.0 0.01282 77.74409 83.80217
79.5342 79.5135 82.0 0.01220 77.74773 83.66178
79.5509 79.5302 71.0 0.01409 77.75137 83.53086
79.5676 79.5469 89.0 0.01124 77.75502 83.40870
79.5843 79.5636 84.0 0.01191 77.75866 83.29472
79.6011 79.5804 71.0 0.01409 77.76233 83.18764
79.6178 79.5971 79.0 0.01266 77.76598 83.08836
79.6345 79.6138 75.0 0.01333 77.76962 82.99570
79.6512 79.6305 82.0 0.01220 77.77326 82.90925
79.6679 79.6472 91.0 0.01099 77.77690 82.82861
79.6847 79.6640 80.0 0.01250 77.78057 82.75299
79.7014 79.6807 87.0 0.01150 77.78422 82.68300
79.7181 79.6974 77.0 0.01299 77.78786 82.61785
79.7348 79.7141 74.0 0.01351 77.79150 82.55721
79.7515 79.7308 86.0 0.01163 77.79515 82.50094
79.7682 79.7475 78.0 0.01282 77.79879 82.44873
79.7850 79.7643 98.0 0.01021 77.80246 82.40012
79.8017 79.7810 82.0 0.01220 77.80611 82.35547
79.8184 79.7977 63.0 0.01587 77.80975 82.31431
79.8351 79.8144 95.0 0.01053 77.81339 82.27645
79.8518 79.8311 85.0 0.01176 77.81703 82.24177
79.8686 79.8479 102.0 0.00980 77.82070 82.20988
79.8853 79.8646 86.0 0.01163 77.82435 82.18110
79.9020 79.8813 71.0 0.01409 77.82799 82.15506
79.9187 79.8980 86.0 0.01163 77.83163 82.13168
79.9354 79.9147 83.0 0.01205 77.83528 82.11080
79.9521 79.9314 71.0 0.01409 77.83892 82.09236
79.9689 79.9482 79.0 0.01266 77.84259 82.07618
79.9856 79.9649 81.0 0.01235 77.84623 82.06237
80.0023 79.9816 96.0 0.01042 77.84988 82.05070
80.0190 79.9983 89.0 0.01124 77.85352 82.04117
80.0357 80.0150 87.0 0.01150 77.85717 82.03365
80.0525 80.0318 97.0 0.01031 77.86083 82.02808
80.0692 80.0485 82.0 0.01220 77.86448 82.02448
80.0859 80.0652 87.0 0.01150 77.86812 82.02274
80.1026 80.0819 86.0 0.01163 77.87177 82.02279
80.1193 80.0986 76.0 0.01316 77.87540 82.02463
80.1361 80.1154 89.0 0.01124 77.87907 82.02821
80.1528 80.1321 68.0 0.01471 77.88272 82.03348
80.1695 80.1488 79.0 0.01266 77.88636 82.04038
80.1862 80.1655 82.0 0.01220 77.89001 82.04892
80.2029 80.1822 77.0 0.01299 77.89365 82.05905
80.2196 80.1989 70.0 0.01428 77.89730 82.07075
80.2364 80.2157 82.0 0.01220 77.90096 82.08407
80.2531 80.2324 80.0 0.01250 77.90461 82.09885
80.2698 80.2491 97.0 0.01031 77.90825 82.11515
80.2865 80.2658 87.0 0.01150 77.91190 82.13292
80.3032 80.2825 88.0 0.01136 77.91554 82.15218
80.3200 80.2993 74.0 0.01351 77.91920 82.17301
80.3367 80.3160 69.0 0.01449 77.92285 82.19520
80.3534 80.3327 80.0 0.01250 77.92649 82.21886
80.3701 80.3494 91.0 0.01099 77.93014 82.24392
80.3868 80.3661 89.0 0.01124 77.93378 82.27044
80.4036 80.3829 88.0 0.01136 77.93745 82.29859
80.4203 80.3996 70.0 0.01428 77.94109 82.32801
80.4370 80.4163 92.0 0.01087 77.94474 82.35886
80.4537 80.4330 81.0 0.01235 77.94838 82.39118
80.4704 80.4497 90.0 0.01111 77.95203 82.42494
80.4871 80.4664 76.0 0.01316 77.95567 82.46017
80.5039 80.4832 87.0 0.01150 77.95934 82.49710
80.5206 80.4999 82.0 0.01220 77.96298 82.53528
80.5373 80.5166 72.0 0.01389 77.96663 82.57498
80.5540 80.5333 72.0 0.01389 77.97027 82.61616
80.5707 80.5500 103.0 0.00971 77.97392 82.65891
80.5875 80.5668 83.0 0.01205 77.97758 82.70345
80.6042 80.5835 87.0 0.01150 77.98122 82.74930
80.6209 80.6002 81.0 0.01235 77.98487 82.79673
80.6376 80.6169 84.0 0.01191 77.98851 82.84577
80.6543 80.6336 85.0 0.01176 77.99216 82.89645
80.6711 80.6504 70.0 0.01428 77.99583 82.94913
80.6878 80.6671 78.0 0.01282 77.99947 83.00317
80.7045 80.6838 71.0 0.01409 78.00311 83.05894
80.7212 80.7005 80.0 0.01250 78.00675 83.11647
80.7379 80.7172 85.0 0.01176 78.01040 83.17579
80.7546 80.7339 83.0 0.01205 78.01405 83.23697
80.7714 80.7507 88.0 0.01136 78.01771 83.30035
80.7881 80.7674 83.0 0.01205 78.02135 83.36526
80.8048 80.7841 95.0 0.01053 78.02500 83.43220
80.8215 80.8008 74.0 0.01351 78.02864 83.50109
80.8382 80.8175 88.0 0.01136 78.03229 83.57204
80.8550 80.8343 88.0 0.01136 78.03596 83.64551
80.8717 80.8510 91.0 0.01099 78.03960 83.72074
80.8884 80.8677 78.0 0.01282 78.04324 83.79815
80.9051 80.8844 80.0 0.01250 78.04689 83.87786
80.9218 80.9011 85.0 0.01176 78.05053 83.95985
80.9386 80.9179 101.0 0.00990 78.05420 84.04485
80.9553 80.9346 83.0 0.01205 78.05784 84.13175
80.9720 80.9513 78.0 0.01282 78.06149 84.22119
80.9887 80.9680 81.0 0.01235 78.06513 84.31326
81.0054 80.9847 80.0 0.01250 78.06877 84.40803
81.0221 81.0014 91.0 0.01099 78.07242 84.50559
81.0389 81.0182 84.0 0.01191 78.07609 84.60661
81.0556 81.0349 104.0 0.00961 78.07973 84.70996
81.0723 81.0516 85.0 0.01176 78.08337 84.81647
81.0890 81.0683 83.0 0.01205 78.08701 84.92601
81.1057 81.0850 78.0 0.01282 78.09066 85.03893
81.1225 81.1018 99.0 0.01010 78.09433 85.15587
81.1392 81.1185 92.0 0.01087 78.09798 85.27565
81.1559 81.1352 88.0 0.01136 78.10162 85.39901
81.1726 81.1519 83.0 0.01205 78.10526 85.52612
81.1893 81.1686 86.0 0.01163 78.10890 85.65707
81.2061 81.1854 98.0 0.01021 78.11257 85.79296
81.2228 81.2021 95.0 0.01053 78.11622 85.93216
81.2395 81.2188 81.0 0.01235 78.11986 86.07569
81.2562 81.2355 95.0 0.01053 78.12350 86.22372
81.2729 81.2522 81.0 0.01235 78.12715 86.37640
81.2896 81.2689 75.0 0.01333 78.13079 86.53398
81.3064 81.2857 64.0 0.01563 78.13446 86.69755
81.3231 81.3024 85.0 0.01176 78.13810 86.86534
81.3398 81.3191 74.0 0.01351 78.14175 87.03875
81.3565 81.3358 97.0 0.01031 78.14539 87.21774
81.3732 81.3525 84.0 0.01191 78.14903 87.40527
81.3900 81.3693 94.0 0.01064 78.15270 87.59752
81.4067 81.3860 105.0 0.00952 78.15635 87.89449
81.4234 81.4027 76.0 0.01316 78.15999 88.09937
81.4401 81.4194 87.0 0.01150 78.16364 88.31126
81.4568 81.4361 91.0 0.01099 78.16727 88.53042
81.4736 81.4529 80.0 0.01250 78.17094 88.75298
81.4903 81.4696 91.0 0.01099 78.17459 88.98795
81.5070 81.4863 81.0 0.01235 78.17823 89.23132
81.5237 81.5030 98.0 0.01021 78.18188 89.48342
81.5404 81.5197 88.0 0.01136 78.18552 89.74474
81.5571 81.5364 92.0 0.01087 78.18917 90.01573
81.5739 81.5532 101.0 0.00990 78.19283 90.29842
81.5906 81.5699 81.0 0.01235 78.19648 90.59000
81.6073 81.5866 96.0 0.01042 78.20012 90.89297
81.6240 81.6033 112.0 0.00893 78.20377 91.20726
81.6407 81.6200 93.0 0.01075 78.20741 91.53420
81.6575 81.6368 103.0 0.00971 78.21107 91.87590
81.6742 81.6535 84.0 0.01191 78.21472 92.22936
81.6909 81.6702 102.0 0.00980 78.21836 92.59705
81.7076 81.6869 92.0 0.01087 78.22201 92.97984
81.7243 81.7036 85.0 0.01176 78.22565 93.37846
81.7411 81.7204 86.0 0.01163 78.22932 93.79672
81.7578 81.7371 96.0 0.01042 78.23296 94.23090
81.7745 81.7538 95.0 0.01053 78.23661 94.68312
81.7912 81.7705 105.0 0.00952 78.24025 95.15523
81.8079 81.7872 84.0 0.01191 78.24390 95.64840
81.8246 81.8039 85.0 0.01176 78.24754 96.16406
81.8414 81.8207 89.0 0.01124 78.25121 96.70645
81.8581 81.8374 92.0 0.01087 78.25485 97.27074
81.8748 81.8541 94.0 0.01064 78.25849 97.86228
81.8915 81.8708 95.0 0.01053 78.26214 98.48191
81.9082 81.8875 112.0 0.00893 78.26579 99.13181
81.9250 81.9043 95.0 0.01053 78.26945 99.81805
81.9417 81.9210 112.0 0.00893 78.27309 100.53481
81.9584 81.9377 96.0 0.01042 78.27673 101.28835
81.9751 81.9544 78.0 0.01282 78.28038 102.08119
81.9918 81.9711 90.0 0.01111 78.28403 102.91662
82.0085 81.9878 92.0 0.01087 78.28767 103.79666
82.0253 82.0046 116.0 0.00862 78.29134 104.73064
82.0420 82.0213 105.0 0.00952 78.29498 105.71131
82.0587 82.0380 108.0 0.00926 78.29862 106.74792
82.0754 82.0547 107.0 0.00935 78.30227 107.84473
82.0921 82.0714 113.0 0.00885 78.30591 109.00576
82.1089 82.0882 106.0 0.00943 78.30959 110.24648
82.1256 82.1049 111.0 0.00900 78.31322 111.55470
82.1423 82.1216 110.0 0.00909 78.31687 112.94509
82.1590 82.1383 118.0 0.00848 78.32051 114.42466
82.1757 82.1550 121.0 0.00826 78.32416 116.00112
82.1925 82.1718 102.0 0.00980 78.32782 117.69320
82.2092 82.1885 103.0 0.00971 78.33147 119.49083
82.2259 82.2052 113.0 0.00885 78.33511 121.41415
82.2426 82.2219 89.0 0.01124 78.33875 123.47502
82.2593 82.2386 131.0 0.00763 78.34240 125.68809
82.2760 82.2553 102.0 0.00980 78.34605 128.06570
82.2928 82.2721 121.0 0.00826 78.34971 130.74905
82.3095 82.2888 118.0 0.00848 78.35336 133.51274
82.3262 82.3055 115.0 0.00870 78.35700 136.49953
82.3429 82.3222 128.0 0.00782 78.36064 139.73372
82.3596 82.3389 139.0 0.00719 78.36429 143.24092
82.3764 82.3557 142.0 0.00704 78.36796 147.08488
82.3931 82.3724 132.0 0.00757 78.37160 151.24670
82.4098 82.3891 151.0 0.00662 78.37524 155.79430
82.4265 82.4058 122.0 0.00819 78.37889 160.77693
82.4432 82.4225 137.0 0.00731 78.38253 166.25285
82.4600 82.4393 160.0 0.00625 78.38620 172.32907
82.4767 82.4560 168.0 0.00595 78.38984 179.02132
82.4934 82.4727 148.0 0.00675 78.39349 186.47116
82.5101 82.4894 215.0 0.00465 78.39713 194.81830
82.5268 82.5061 188.0 0.00532 78.40078 204.25417
82.5435 82.5228 215.0 0.00465 78.40442 215.01985
82.5603 82.5396 232.0 0.00431 78.40809 227.54659
82.5770 82.5563 236.0 0.00424 78.41173 242.17336
82.5937 82.5730 240.0 0.00417 78.41537 259.63470
82.6104 82.5897 279.0 0.00359 78.41901 280.84091
82.6271 82.6064 324.0 0.003086 78.42266 306.99271
82.6439 82.6232 353.0 0.002832 78.42633 339.96237
82.6606 82.6399 396.0 0.002525 78.42998 381.28711
82.6773 82.6566 457.0 0.002188 78.43362 433.59314
82.6940 82.6733 514.0 0.001946 78.43726 499.67889
82.7107 82.6900 591.0 0.001692 78.44090 582.60266
82.7275 82.7068 695.0 0.001439 78.44457 686.14508
82.7442 82.7235 881.0 0.001135 78.44822 811.99280
82.7609 82.7402 984.0 0.001016 78.45186 962.94818
82.7776 82.7569 1172.0 0.000853 78.45551 1140.21606
82.7943 82.7736 1418.0 0.000705 78.45915 1343.56445
82.8110 82.7903 1602.0 0.000624 78.46279 1570.25220
82.8278 82.8071 1908.0 0.000524 78.46646 1816.49719
82.8445 82.8238 2210.0 0.000453 78.47010 2070.35986
82.8612 82.8405 2371.0 0.000422 78.47375 2319.13550
82.8779 82.8572 2710.0 0.000369 78.47739 2543.72217
82.8946 82.8739 2922.0 0.0003422 78.48103 2720.56787
82.9114 82.8907 2834.0 0.000353 78.48470 2826.95313
82.9281 82.9074 2921.0 0.0003423 78.48835 2844.63281
82.9448 82.9241 2627.0 0.000381 78.49199 2771.66553
82.9615 82.9408 2460.0 0.000406 78.49564 2619.89380
82.9782 82.9575 2293.0 0.000436 78.49928 2411.00293
82.9950 82.9743 1937.0 0.000516 78.50294 2167.65601
83.0117 82.9910 1740.0 0.000575 78.50659 1913.78223
83.0284 83.0077 1482.0 0.000675 78.51023 1664.18591
83.0451 83.0244 1252.0 0.000799 78.51388 1429.61768
83.0618 83.0411 1097.0 0.000912 78.51752 1216.67236
83.0785 83.0578 1026.0 0.000975 78.52117 1029.12610
83.0953 83.0746 816.0 0.001225 78.52483 867.10309
83.1120 83.0913 721.0 0.001387 78.52848 731.82227
83.1287 83.1080 694.0 0.001441 78.53212 620.35358
83.1454 83.1247 537.0 0.001863 78.53577 530.00934
83.1621 83.1414 516.0 0.001937 78.53941 457.76535
83.1789 83.1582 469.0 0.002131 78.54308 400.07257
83.1956 83.1749 391.0 0.002559 78.54672 354.84778
83.2123 83.1916 383.0 0.002611 78.55036 319.06458
83.2290 83.2083 334.0 0.002993 78.55401 290.55963
83.2457 83.2250 303.0 0.003299 78.55766 267.59015
83.2625 83.2418 283.0 0.00353 78.56132 248.70154
83.2792 83.2585 264.0 0.00379 78.56496 233.08665
83.2959 83.2752 278.0 0.00360 78.56860 219.87123
83.3126 83.2919 227.0 0.00440 78.57225 208.50807
83.3293 83.3086 225.0 0.00444 78.57590 198.59700
83.3460 83.3253 222.0 0.00450 78.57954 189.86415
83.3628 83.3421 182.0 0.00550 78.58321 182.05179
83.3795 83.3588 165.0 0.00606 78.58685 175.09448
83.3962 83.3755 187.0 0.00535 78.59049 168.82530
83.4129 83.3922 170.0 0.00588 78.59414 163.15074
83.4296 83.4089 160.0 0.00625 78.59778 157.99808
83.4464 83.4257 160.0 0.00625 78.60145 153.26746
83.4631 83.4424 144.0 0.00694 78.60509 148.97511
83.4798 83.4591 156.0 0.00641 78.60874 145.04179
83.4965 83.4758 152.0 0.00658 78.61238 141.42905
83.5132 83.4925 148.0 0.00675 78.61603 138.10335
83.5300 83.5093 120.0 0.00834 78.61969 135.01823
83.5467 83.5260 124.0 0.00806 78.62334 132.18396
83.5634 83.5427 130.0 0.00769 78.62698 129.55925
83.5801 83.5594 132.0 0.00757 78.63062 127.12431
83.5968 83.5761 106.0 0.00943 78.63427 124.86022
83.6135 83.5928 117.0 0.00854 78.63792 122.75404
83.6303 83.6096 99.0 0.01010 78.64158 120.77940
83.6470 83.6263 87.0 0.01150 78.64523 118.94677
83.6637 83.6430 116.0 0.00862 78.64887 117.23322
83.6804 83.6597 134.0 0.00746 78.65251 115.62878
83.6971 83.6764 120.0 0.00834 78.65616 114.12538
83.7139 83.6932 116.0 0.00862 78.65983 112.70361
83.7306 83.7099 119.0 0.00840 78.66347 111.37691
83.7473 83.7266 113.0 0.00885 78.66711 110.12849
83.7640 83.7433 103.0 0.00971 78.67076 108.95244
83.7807 83.7600 105.0 0.00952 78.67440 107.84332
83.7975 83.7768 111.0 0.00900 78.67807 106.79033
83.8142 83.7935 100.0 0.01000 78.68171 105.80122
83.8309 83.8102 113.0 0.00885 78.68536 104.86562
83.8476 83.8269 120.0 0.00834 78.68900 103.97983
83.8643 83.8436 91.0 0.01099 78.69264 103.13993
83.8810 83.8603 98.0 0.01021 78.69629 102.34386
83.8978 83.8771 98.0 0.01021 78.69996 101.58389
83.9145 83.8938 114.0 0.00877 78.70360 100.86625
83.9312 83.9105 92.0 0.01087 78.70724 100.18398
83.9479 83.9272 109.0 0.00917 78.71088 99.53487
83.9646 83.9439 98.0 0.01021 78.71453 98.91722
83.9814 83.9607 90.0 0.01111 78.71820 98.32437
83.9981 83.9774 100.0 0.01000 78.72185 97.76318
84.0148 83.9941 85.0 0.01176 78.72549 97.22783
84.0315 84.0108 90.0 0.01111 78.72913 96.71679
84.0482 84.0275 95.0 0.01053 78.73277 96.22868
84.0649 84.0442 112.0 0.00893 78.73642 95.76219
84.0817 84.0610 100.0 0.01000 78.74008 95.31358
84.0984 84.0777 74.0 0.01351 78.74373 94.88693
84.1151 84.0944 108.0 0.00926 78.74738 94.47852
84.1318 84.1111 90.0 0.01111 78.75102 94.08718
84.1485 84.1278 75.0 0.01333 78.75466 93.71246
84.1653 84.1446 89.0 0.01124 78.75833 93.35119
84.1820 84.1613 98.0 0.01021 78.76197 93.00678
84.1987 84.1780 90.0 0.01111 78.76562 92.67637
84.2154 84.1947 89.0 0.01124 78.76926 92.35925
84.2321 84.2114 79.0 0.01266 78.77290 92.05493
84.2489 84.2282 105.0 0.00952 78.77657 91.76046
84.2656 84.2449 95.0 0.01053 78.78022 91.47952
84.2823 84.2616 84.0 0.01191 78.78386 91.20950
84.2990 84.2783 110.0 0.00909 78.78751 90.94987
84.3157 84.2950 111.0 0.00900 78.79115 90.70020
84.3324 84.3117 87.0 0.01150 78.79479 90.46000
84.3492 84.3285 87.0 0.01150 78.79846 90.22753
84.3659 84.3452 99.0 0.01010 78.80210 90.00511
84.3826 84.3619 89.0 0.01124 78.80575 89.79098
84.3993 84.3786 102.0 0.00980 78.80939 89.58466
84.4160 84.3953 104.0 0.00961 78.81304 89.38608
84.4328 84.4121 100.0 0.01000 78.81670 89.19367
84.4495 84.4288 97.0 0.01031 78.82035 89.00940
84.4662 84.4455 92.0 0.01087 78.82399 88.83184
84.4829 84.4622 113.0 0.00885 78.82764 88.66073
84.4996 84.4789 95.0 0.01053 78.83128 88.49590
84.5164 84.4957 90.0 0.01111 78.83495 88.33582
84.5331 84.5124 87.0 0.01150 78.83859 88.18263
84.5498 84.5291 97.0 0.01031 78.84223 88.03495
84.5665 84.5458 100.0 0.01000 78.84588 87.89259
84.5832 84.5625 95.0 0.01053 78.84953 87.75536
84.5999 84.5792 84.0 0.01191 78.85316 87.62305
84.6167 84.5960 99.0 0.01010 78.85683 87.49483
84.6334 84.6127 98.0 0.01021 78.86047 87.37193
84.6501 84.6294 93.0 0.01075 78.86412 87.25350
84.6668 84.6461 96.0 0.01042 78.86777 87.13933
84.6835 84.6628 87.0 0.01150 78.87141 87.02939
84.7003 84.6796 90.0 0.01111 78.87508 86.92290
84.7170 84.6963 81.0 0.01235 78.87872 86.82097
84.7337 84.7130 97.0 0.01031 78.88236 86.72280
84.7504 84.7297 94.0 0.01064 78.88601 86.62835
84.7671 84.7464 88.0 0.01136 78.88965 86.53753
84.7839 84.7632 86.0 0.01163 78.89332 86.44955
84.8006 84.7799 90.0 0.01111 78.89697 86.36559
84.8173 84.7966 82.0 0.01220 78.90061 86.28491
84.8340 84.8133 76.0 0.01316 78.90425 86.20748
84.8507 84.8300 100.0 0.01000 78.90790 86.13317
84.8674 84.8467 83.0 0.01205 78.91154 86.06194
84.8842 84.8635 97.0 0.01031 78.91521 85.99332
84.9009 84.8802 84.0 0.01191 78.91885 85.92802
84.9176 84.8969 78.0 0.01282 78.92249 85.86561
84.9343 84.9136 86.0 0.01163 78.92614 85.80597
84.9510 84.9303 98.0 0.01021 78.92979 85.74911
84.9678 84.9471 83.0 0.01205 78.93345 85.69468
84.9845 84.9638 95.0 0.01053 78.93710 85.64321
85.0012 84.9805 79.0 0.01266 78.94073 85.59438
85.0179 84.9972 84.0 0.01191 78.94438 85.54813
85.0346 85.0139 93.0 0.01075 78.94803 85.50445
85.0514 85.0307 87.0 0.01150 78.95170 85.46297
85.0681 85.0474 90.0 0.01111 78.95534 85.42429
85.0848 85.0641 113.0 0.00885 78.95898 85.38806
85.1015 85.0808 86.0 0.01163 78.96262 85.35426
85.1182 85.0975 102.0 0.00980 78.96627 85.32289
85.1349 85.1142 104.0 0.00961 78.96992 85.29393
85.1517 85.1310 86.0 0.01163 78.97358 85.26721
85.1684 85.1477 107.0 0.00935 78.97723 85.24306
85.1851 85.1644 99.0 0.01010 78.98087 85.22126
85.2018 85.1811 95.0 0.01053 78.98451 85.20184
85.2185 85.1978 95.0 0.01053 78.98816 85.18483
85.2353 85.2146 97.0 0.01031 78.99183 85.17014
85.2520 85.2313 101.0 0.00990 78.99547 85.15791
85.2687 85.2480 87.0 0.01150 78.99911 85.14812
85.2854 85.2647 92.0 0.01087 79.00275 85.14074
85.3021 85.2814 83.0 0.01205 79.00640 85.13585
85.3189 85.2982 101.0 0.00990 79.01007 85.13342
85.3356 85.3149 84.0 0.01191 79.01371 85.13353
85.3523 85.3316 89.0 0.01124 79.01736 85.13621
85.3690 85.3483 91.0 0.01099 79.02100 85.14148
85.3857 85.3650 97.0 0.01031 79.02464 85.14940
85.4024 85.3817 100.0 0.01000 79.02829 85.16002
85.4192 85.3985 84.0 0.01191 79.03195 85.17349
85.4359 85.4152 84.0 0.01191 79.03560 85.18975
85.4526 85.4319 93.0 0.01075 79.03925 85.20893
85.4693 85.4486 84.0 0.01191 79.04289 85.23111
85.4860 85.4653 86.0 0.01163 79.04653 85.25640
85.5028 85.4821 85.0 0.01176 79.05020 85.28508
85.5195 85.4988 95.0 0.01053 79.05384 85.31694
85.5362 85.5155 92.0 0.01087 79.05749 85.35229
85.5529 85.5322 82.0 0.01220 79.06113 85.39126
85.5696 85.5489 94.0 0.01064 79.06477 85.43401
85.5864 85.5657 91.0 0.01099 79.06844 85.48114
85.6031 85.5824 82.0 0.01220 79.07209 85.53221
85.6198 85.5991 112.0 0.00893 79.07573 85.58779
85.6365 85.6158 87.0 0.01150 79.07938 85.64819
85.6532 85.6325 112.0 0.00893 79.08302 85.71380
85.6699 85.6492 89.0 0.01124 79.08666 85.78510
85.6867 85.6660 83.0 0.01205 79.09033 85.86320
85.7034 85.6827 86.0 0.01163 79.09397 85.94792
85.7201 85.6994 92.0 0.01087 79.09762 86.04082
85.7368 85.7161 96.0 0.01042 79.10126 86.14307
85.7535 85.7328 75.0 0.01333 79.10491 86.25647
85.7703 85.7496 86.0 0.01163 79.10857 86.38396
85.7870 85.7663 93.0 0.01075 79.11222 86.52683
85.8037 85.7830 86.0 0.01163 79.11586 86.68920
85.8204 85.7997 95.0 0.01053 79.11951 86.87516
85.8371 85.8164 86.0 0.01163 79.12315 87.08929
85.8539 85.8332 87.0 0.01150 79.12682 87.33902
85.8706 85.8499 79.0 0.01266 79.13046 87.62648
85.8873 85.8666 80.0 0.01250 79.13410 87.95905
85.9040 85.8833 95.0 0.01053 79.13775 88.34220
85.9207 85.9000 105.0 0.00952 79.14140 88.78047
85.9374 85.9167 111.0 0.00900 79.14503 89.27686
85.9542 85.9335 106.0 0.00943 79.14496 89.83160
85.9709 85.9502 104.0 0.00961 79.14435 90.43852
85.9876 85.9669 99.0 0.01010 79.14373 91.09393
86.0043 85.9836 101.0 0.00990 79.14311 91.78399
86.0210 86.0003 84.0 0.01191 79.14250 92.49017
86.0378 86.0171 110.0 0.00909 79.14188 93.19346
86.0545 86.0338 108.0 0.00926 79.14127 93.86057
86.0712 86.0505 116.0 0.00862 79.14066 94.47064
86.0879 86.0672 99.0 0.01010 79.14004 94.99834
86.1046 86.0839 108.0 0.00926 79.13942 96.76953
86.1213 86.1006 75.0 0.01333 79.13881 97.06268
86.1381 86.1174 102.0 0.00980 79.13819 97.20590
86.1548 86.1341 105.0 0.00952 79.13757 97.19798
86.1715 86.1508 94.0 0.01064 79.13696 97.06253
86.1882 86.1675 91.0 0.01099 79.13634 96.83762
86.2049 86.1842 101.0 0.00990 79.13573 96.56715
86.2217 86.2010 129.0 0.00775 79.13511 96.29004
86.2384 86.2177 90.0 0.01111 79.13450 96.04183
86.2551 86.2344 114.0 0.00877 79.13388 95.84373
86.2718 86.2511 74.0 0.01351 79.13326 95.71101
86.2885 86.2678 100.0 0.01000 79.13265 95.65248
86.3053 86.2846 95.0 0.01053 79.13203 95.67300
86.3220 86.3013 90.0 0.01111 79.13142 95.77373
86.3387 86.3180 104.0 0.00961 79.13081 95.95396
86.3554 86.3347 83.0 0.01205 79.13019 96.21169
86.3721 86.3514 106.0 0.00943 79.12957 96.54440
86.3888 86.3681 107.0 0.00935 79.12896 96.94917
86.4056 86.3849 118.0 0.00848 79.12834 97.42773
86.4223 86.4016 102.0 0.00980 79.12772 97.97167
86.4390 86.4183 95.0 0.01053 79.12711 98.58347
86.4557 86.4350 101.0 0.00990 79.12650 99.26367
86.4724 86.4517 118.0 0.00848 79.12588 100.01401
86.4892 86.4685 94.0 0.01064 79.12526 102.16994
86.5059 86.4852 107.0 0.00935 79.12465 103.08097
86.5226 86.5019 108.0 0.00926 79.12403 104.07616
86.5393 86.5186 105.0 0.00952 79.12342 105.16171
86.5560 86.5353 117.0 0.00854 79.12280 106.34718
86.5728 86.5521 103.0 0.00971 79.12218 108.90298
86.5895 86.5688 110.0 0.00909 79.12157 110.33315
86.6062 86.5855 111.0 0.00900 79.12096 111.90414
86.6229 86.6022 127.0 0.00787 79.12034 113.63643
86.6396 86.6189 127.0 0.00787 79.11973 115.55595
86.6563 86.6356 120.0 0.00834 79.11911 117.69473
86.6731 86.6524 112.0 0.00893 79.11849 120.11666
86.6898 86.6691 144.0 0.00694 79.11787 122.84431
86.7065 86.6858 144.0 0.00694 79.11726 125.96906
86.7232 86.7025 136.0 0.00736 79.11665 129.59003
86.7399 86.7192 126.0 0.00794 79.11604 133.83640
86.7567 86.7360 128.0 0.00782 79.11542 138.90620
86.7734 86.7527 141.0 0.00710 79.11480 144.95102
86.7901 86.7694 187.0 0.00535 79.11418 152.26105
86.8068 86.7861 175.0 0.00571 79.11357 161.13872
86.8235 86.8028 173.0 0.00578 79.11295 171.95067
86.8403 86.8196 192.0 0.00521 79.11234 185.19083
86.8570 86.8363 172.0 0.00582 79.11172 201.15131
86.8737 86.8530 236.0 0.00424 79.11111 220.36058
86.8904 86.8697 281.0 0.00356 79.11049 243.26357
86.9071 86.8864 290.0 0.003448 79.10988 270.25272
86.9238 86.9031 278.0 0.00360 79.10926 301.59772
86.9406 86.9199 341.0 0.002931 79.10864 337.72278
86.9573 86.9366 383.0 0.002611 79.10802 377.97229
86.9740 86.9533 396.0 0.002525 79.10741 422.08710
86.9907 86.9700 490.0 0.002040 79.10680 469.09753
87.0074 86.9867 481.0 0.002079 79.10619 517.47205
87.0242 87.0035 541.0 0.001848 79.10557 565.40375
87.0409 87.0202 560.0 0.001786 79.10495 609.89471
87.0576 87.0369 652.0 0.001534 79.10433 648.84821
87.0743 87.0536 644.0 0.001552 79.10372 680.23334
87.0910 87.0703 698.0 0.001433 79.10310 702.66486
87.1078 87.0871 701.0 0.001426 79.10249 715.24377
87.1245 87.1038 706.0 0.001417 79.10188 717.22015
87.1412 87.1205 678.0 0.001475 79.10126 708.51636
87.1579 87.1372 671.0 0.001491 79.10064 689.56781
87.1746 87.1539 668.0 0.001497 79.10003 661.48920
87.1913 87.1706 609.0 0.001642 79.09941 625.95605
87.2081 87.1874 620.0 0.001613 79.09879 583.44232
87.2248 87.2041 497.0 0.002013 79.09818 539.01190
87.2415 87.2208 468.0 0.002137 79.09756 493.30734
87.2582 87.2375 434.0 0.002305 79.09695 448.19269
87.2749 87.2542 366.0 0.002733 79.09634 405.15988
87.2917 87.2710 347.0 0.002881 79.09572 365.03369
87.3084 87.2877 289.0 0.003460 79.09510 328.89819
87.3251 87.3044 299.0 0.003345 79.09449 296.74356
87.3418 87.3211 252.0 0.00397 79.09387 268.58722
87.3585 87.3378 250.0 0.00400 79.09325 244.20660
87.3753 87.3546 218.0 0.00459 79.09264 223.17691
87.3920 87.3713 247.0 0.00405 79.09203 205.37526
87.4087 87.3880 214.0 0.00467 79.09141 190.28915
87.4254 87.4047 163.0 0.00613 79.09080 177.54883
87.4421 87.4214 182.0 0.00550 79.09018 166.81029
87.4588 87.4381 169.0 0.00592 79.08956 157.76811
87.4756 87.4549 160.0 0.00625 79.08894 150.08900
87.4923 87.4716 146.0 0.00685 79.08833 143.64745
87.5090 87.4883 136.0 0.00736 79.08772 138.18311
87.5257 87.5050 130.0 0.00769 79.08710 133.52542
87.5424 87.5217 131.0 0.00763 79.08649 129.53220
87.5592 87.5385 131.0 0.00763 79.08587 126.06721
87.5759 87.5552 129.0 0.00775 79.08525 123.07422
87.5926 87.5719 147.0 0.00681 79.08464 120.45216
87.6093 87.5886 117.0 0.00854 79.08402 118.14110
87.6260 87.6053 129.0 0.00775 79.08340 116.08887
87.6428 87.6221 102.0 0.00980 79.08279 114.24481
87.6595 87.6388 126.0 0.00794 79.08218 112.59771
87.6762 87.6555 98.0 0.01021 79.08156 111.11009
87.6929 87.6722 102.0 0.00980 79.08095 109.76083
87.7096 87.6889 111.0 0.00900 79.08033 108.53264
87.7263 87.7056 95.0 0.01053 79.07972 107.41190
87.7431 87.7224 102.0 0.00980 79.07909 106.37848
87.7598 87.7391 87.0 0.01150 79.07848 105.43740
87.7765 87.7558 99.0 0.01010 79.07787 104.57256
87.7932 87.7725 121.0 0.00826 79.07726 103.77656
87.8099 87.7892 110.0 0.00909 79.07664 103.04296
87.8267 87.8060 97.0 0.01031 79.07602 102.36231
87.8434 87.8227 91.0 0.01099 79.07540 101.73753
87.8601 87.8394 92.0 0.01087 79.07479 101.15971
87.8768 87.8561 106.0 0.00943 79.07417 100.62566
87.8935 87.8728 84.0 0.01191 79.07356 100.13143
87.9103 87.8896 98.0 0.01021 79.07294 99.67136
87.9270 87.9063 106.0 0.00943 79.07233 99.24791
87.9437 87.9230 96.0 0.01042 79.07171 98.85573
87.9604 87.9397 117.0 0.00854 79.07110 98.49257
87.9771 87.9564 88.0 0.01136 79.07048 98.15630
87.9938 87.9731 101.0 0.00990 79.06987 97.84521
88.0106 87.9899 96.0 0.01042 79.06924 97.55530
88.0273 88.0066 120.0 0.00834 79.06863 97.28921
88.0440 88.0233 118.0 0.00848 79.06802 97.04343
88.0607 88.0400 94.0 0.01064 79.06741 96.81669
88.0774 88.0567 98.0 0.01021 79.06679 96.60778
88.0942 88.0735 96.0 0.01042 79.06617 96.41458
88.1109 88.0902 107.0 0.00935 79.06555 96.23830
88.1276 88.1069 108.0 0.00926 79.06494 96.07684
88.1443 88.1236 98.0 0.01021 79.06432 95.92950
88.1610 88.1403 109.0 0.00917 79.06371 95.79546
88.1777 88.1570 89.0 0.01124 79.06310 95.67400
88.1945 88.1738 109.0 0.00917 79.06248 95.56390
88.2112 88.1905 115.0 0.00870 79.06186 95.46584
88.2279 88.2072 104.0 0.00961 79.06125 95.37862
88.2446 88.2239 105.0 0.00952 79.06063 95.30170
88.2613 88.2406 108.0 0.00926 79.06002 95.23469
88.2781 88.2574 94.0 0.01064 79.05940 95.17673
88.2948 88.2741 85.0 0.01176 79.05878 95.12825
88.3115 88.2908 93.0 0.01075 79.05817 95.08849
88.3282 88.3075 96.0 0.01042 79.05756 95.05708
88.3449 88.3242 102.0 0.00980 79.05694 95.03377
88.3617 88.3410 86.0 0.01163 79.05632 95.01817
88.3784 88.3577 102.0 0.00980 79.05571 95.01021
88.3951 88.3744 105.0 0.00952 79.05509 95.00955
88.4118 88.3911 96.0 0.01042 79.05447 95.01601
88.4285 88.4078 94.0 0.01064 79.05386 95.02933
88.4452 88.4245 93.0 0.01075 79.05325 95.04938
88.4620 88.4413 106.0 0.00943 79.05263 95.07613
88.4787 88.4580 97.0 0.01031 79.05202 95.10912
88.4954 88.4747 86.0 0.01163 79.05140 95.14839
88.5121 88.4914 101.0 0.00990 79.05078 95.19382
88.5288 88.5081 93.0 0.01075 79.05017 95.24521
88.5456 88.5249 95.0 0.01053 79.04955 95.30299
88.5623 88.5416 81.0 0.01235 79.04893 95.36623
88.5790 88.5583 105.0 0.00952 79.04832 95.43522
88.5957 88.5750 102.0 0.00980 79.04771 95.50993
88.6124 88.5917 96.0 0.01042 79.04709 95.59027
88.6292 88.6085 108.0 0.00926 79.04647 95.67673
88.6459 88.6252 105.0 0.00952 79.04586 95.76824
88.6626 88.6419 83.0 0.01205 79.04524 95.86535
88.6793 88.6586 105.0 0.00952 79.04462 95.96789
88.6960 88.6753 93.0 0.01075 79.04401 96.07593
88.7127 88.6920 84.0 0.01191 79.04340 96.18945
88.7295 88.7088 100.0 0.01000 79.04278 96.30916
88.7462 88.7255 98.0 0.01021 79.04217 96.43402
88.7629 88.7422 102.0 0.00980 79.04155 96.56404
88.7796 88.7589 100.0 0.01000 79.04093 96.69959
88.7963 88.7756 108.0 0.00926 79.04032 96.84061
88.8131 88.7924 103.0 0.00971 79.03970 96.98834
88.8298 88.8091 112.0 0.00893 79.03909 97.14071
88.8465 88.8258 97.0 0.01031 79.03848 97.29875
88.8632 88.8425 99.0 0.01010 79.03786 97.46254
88.8799 88.8592 109.0 0.00917 79.03724 97.63210
88.8967 88.8760 80.0 0.01250 79.03662 97.80860
88.9134 88.8927 105.0 0.00952 79.03601 97.99004
88.9301 88.9094 99.0 0.01010 79.03539 98.17762
88.9468 88.9261 95.0 0.01053 79.03478 98.37121
88.9635 88.9428 96.0 0.01042 79.03416 98.57100
88.9802 88.9595 104.0 0.00961 79.03355 98.77709
88.9970 88.9763 121.0 0.00826 79.03293 98.99089
89.0137 88.9930 101.0 0.00990 79.03232 99.21001
89.0304 89.0097 94.0 0.01064 79.03170 99.43580
89.0471 89.0264 108.0 0.00926 79.03109 99.66838
89.0638 89.0431 96.0 0.01042 79.03047 99.90777
89.0806 89.0599 84.0 0.01191 79.02985 100.15612
89.0973 89.0766 118.0 0.00848 79.02924 100.41066
89.1140 89.0933 94.0 0.01064 79.02863 100.67197
89.1307 89.1100 113.0 0.00885 79.02801 100.94086
89.1474 89.1267 108.0 0.00926 79.02740 101.21753
89.1642 89.1435 121.0 0.00826 79.02678 101.50382
89.1809 89.1602 93.0 0.01075 79.02616 101.79662
89.1976 89.1769 101.0 0.00990 79.02554 102.09798
89.2143 89.1936 135.0 0.00741 79.02493 102.40772
89.2310 89.2103 105.0 0.00952 79.02431 102.72630
89.2477 89.2270 92.0 0.01087 79.02370 103.05392
89.2645 89.2438 104.0 0.00961 79.02308 103.39287
89.2812 89.2605 115.0 0.00870 79.02247 103.73942
89.2979 89.2772 107.0 0.00935 79.02185 104.09584
89.3146 89.2939 112.0 0.00893 79.02124 104.46241
89.3313 89.3106 104.0 0.00961 79.02062 104.83920
89.3481 89.3274 110.0 0.00909 79.02000 105.22973
89.3648 89.3441 115.0 0.00870 79.01939 105.62869
89.3815 89.3608 97.0 0.01031 79.01878 106.03910
89.3982 89.3775 106.0 0.00943 79.01816 106.46133
89.4149 89.3942 100.0 0.01000 79.01755 106.89576
89.4317 89.4110 109.0 0.00917 79.01693 107.34544
89.4484 89.4277 114.0 0.00877 79.01631 107.80557
89.4651 89.4444 95.0 0.01053 79.01569 108.27946
89.4818 89.4611 102.0 0.00980 79.01508 108.76701
89.4985 89.4778 100.0 0.01000 79.01447 109.26897
89.5152 89.4945 129.0 0.00775 79.01385 109.78584
89.5320 89.5113 92.0 0.01087 79.01324 110.32131
89.5487 89.5280 107.0 0.00935 79.01262 110.86974
89.5654 89.5447 101.0 0.00990 79.01200 111.43477
89.5821 89.5614 101.0 0.00990 79.01139 112.01701
89.5988 89.5781 104.0 0.00961 79.01077 112.61676
89.6156 89.5949 116.0 0.00862 79.01015 113.23975
89.6323 89.6116 100.0 0.01000 79.00954 113.87775
89.6490 89.6283 117.0 0.00854 79.00893 114.53575
89.6657 89.6450 112.0 0.00893 79.00831 115.21450
89.6824 89.6617 124.0 0.00806 79.00770 115.91728
89.6992 89.6785 124.0 0.00806 79.00708 116.64442
89.7159 89.6952 90.0 0.01111 79.00646 117.39085
89.7326 89.7119 104.0 0.00961 79.00585 118.16409
89.7493 89.7286 117.0 0.00854 79.00523 118.96027
89.7660 89.7453 140.0 0.00715 79.00462 119.78291
89.7827 89.7620 135.0 0.00741 79.00401 120.63315
89.7995 89.7788 138.0 0.00724 79.00339 121.51738
89.8162 89.7955 118.0 0.00848 79.00277 122.42662
89.8329 89.8122 118.0 0.00848 79.00216 123.36724
89.8496 89.8289 124.0 0.00806 79.00154 124.34061
89.8663 89.8456 118.0 0.00848 79.00092 125.34768
89.8831 89.8624 148.0 0.00675 79.00031 126.39864
89.8998 89.8791 118.0 0.00848 78.99969 127.47993
89.9165 89.8958 133.0 0.00752 78.99908 128.60052
89.9332 89.9125 134.0 0.00746 78.99846 129.76228
89.9499 89.9292 125.0 0.00800 78.99785 130.96721
89.9667 89.9460 117.0 0.00854 78.99723 132.22488
89.9834 89.9627 122.0 0.00819 78.99661 133.52287
90.0001 89.9794 112.0 0.00893 78.99600 134.87163
90.0168 89.9961 135.0 0.00741 78.99538 136.27203
90.0335 90.0128 123.0 0.00813 78.99477 137.72762
90.0502 90.0295 117.0 0.00854 78.99416 139.24126
90.0670 90.0463 127.0 0.00787 78.99354 140.82541
90.0837 90.0630 125.0 0.00800 78.99292 142.46497
90.1004 90.0797 136.0 0.00736 78.99231 144.17244
90.1171 90.0964 130.0 0.00769 78.99169 145.95158
90.1338 90.1131 131.0 0.00763 78.99108 147.80533
90.1506 90.1299 122.0 0.00819 78.99046 149.75397
90.1673 90.1466 129.0 0.00775 78.98985 151.77391
90.1840 90.1633 139.0 0.00719 78.98923 153.88344
90.2007 90.1800 154.0 0.00649 78.98862 156.08783
90.2174 90.1967 117.0 0.00854 78.98800 158.39276
90.2342 90.2135 129.0 0.00775 78.98738 160.81888
90.2509 90.2302 120.0 0.00834 78.98676 163.34456
90.2676 90.2469 132.0 0.00757 78.98615 165.99236
90.2843 90.2636 155.0 0.00645 78.98553 168.76689
90.3010 90.2803 146.0 0.00685 78.98492 171.67796
90.3177 90.2970 162.0 0.00617 78.98431 174.73468
90.3345 90.3138 160.0 0.00625 78.98369 177.96608
90.3512 90.3305 144.0 0.00694 78.98307 181.34517
90.3679 90.3472 180.0 0.00555 78.98246 184.90187
90.3846 90.3639 161.0 0.00621 78.98184 188.64882
90.4013 90.3806 135.0 0.00741 78.98123 192.59718
90.4181 90.3974 170.0 0.00588 78.98061 196.79668
90.4348 90.4141 168.0 0.00595 78.98000 201.20291
90.4515 90.4308 186.0 0.00537 78.97938 205.86221
90.4682 90.4475 194.0 0.00515 78.97877 210.79422
90.4849 90.4642 197.0 0.00507 78.97815 216.02040
90.5016 90.4809 181.0 0.00553 78.97754 221.56441
90.5184 90.4977 177.0 0.00565 78.97691 227.48788
90.5351 90.5144 195.0 0.00513 78.97630 233.75461
90.5518 90.5311 229.0 0.00437 78.97569 240.42252
90.5685 90.5478 222.0 0.00450 78.97507 247.53049
90.5852 90.5645 213.0 0.00470 78.97446 255.11774
90.6020 90.5813 237.0 0.00422 78.97384 263.27695
90.6187 90.5980 246.0 0.00407 78.97322 271.96225
90.6354 90.6147 236.0 0.00424 78.97261 281.27399
90.6521 90.6314 257.0 0.00389 78.97199 291.27332
90.6688 90.6481 266.0 0.00376 78.97138 302.02258
90.6856 90.6649 265.0 0.00377 78.97076 313.69687
90.7023 90.6816 267.0 0.00375 78.97015 326.21658
90.7190 90.6983 291.0 0.003436 78.96953 339.76184
90.7357 90.7150 315.0 0.003174 78.96892 354.45044
90.7524 90.7317 362.0 0.002761 78.96830 370.42026
90.7691 90.7484 368.0 0.002718 78.96769 387.83517
90.7859 90.7652 398.0 0.002513 78.96707 407.01004
90.8026 90.7819 423.0 0.002363 78.96645 427.98035
90.8193 90.7986 418.0 0.002391 78.96584 451.13489
90.8360 90.8153 446.0 0.002242 78.96523 476.87729
90.8527 90.8320 542.0 0.001845 78.96461 505.71457
90.8695 90.8488 495.0 0.002020 78.96399 538.51208
90.8862 90.8655 544.0 0.001839 78.96338 575.76007
90.9029 90.8822 643.0 0.001555 78.96276 618.76917
90.9196 90.8989 693.0 0.001444 78.96214 669.01410
90.9363 90.9156 765.0 0.001307 78.96153 728.33521
90.9531 90.9324 868.0 0.001152 78.96091 799.71008
90.9698 90.9491 920.0 0.001087 78.96030 885.04700
90.9865 90.9658 1094.0 0.000914 78.95969 988.31110
91.0032 90.9825 1157.0 0.000865 78.95907 1113.61084
91.0199 90.9992 1377.0 0.000726 78.95845 1265.60437
91.0366 91.0159 1528.0 0.000654 78.95784 1449.38318
91.0534 91.0327 1759.0 0.000569 78.95722 1671.69019
91.0701 91.0494 1950.0 0.000513 78.95660 1935.41760
91.0868 91.0661 2271.0 0.000440 78.95599 2246.28687
91.1035 91.0828 2706.0 0.000370 78.95538 2608.35815
91.1202 91.0995 3148.0 0.0003176 78.95476 3023.99512
91.1370 91.1163 3547.0 0.0002819 78.95414 3496.11646
91.1537 91.1330 4076.0 0.0002454 78.95353 4015.91211
91.1704 91.1497 4494.0 0.0002225 78.95291 4578.19629
91.1871 91.1664 5049.0 0.0001980 78.95229 5169.62451
91.2038 91.1831 5661.0 0.0001766 78.95168 5770.32959
91.2206 91.1999 6423.0 0.0001557 78.95107 6359.99365
91.2373 91.2166 6797.0 0.0001471 78.95045 6901.83740
91.2540 91.2333 7346.0 0.0001361 78.94984 7372.83008
91.2707 91.2500 7769.0 0.0001287 78.94922 7749.82617
91.2874 91.2667 8073.0 0.0001239 78.94860 8014.71289
91.3041 91.2834 8219.0 0.0001217 78.94799 8153.51709
91.3209 91.3002 8233.0 0.0001215 78.94737 8155.76172
91.3376 91.3169 8034.0 0.0001245 78.94675 8017.05273
91.3543 91.3336 7603.0 0.0001315 78.94614 7742.55762
91.3710 91.3503 7085.0 0.0001412 78.94553 7347.14551
91.3877 91.3670 6492.0 0.0001540 78.94491 6854.94580
91.4045 91.3838 5808.0 0.0001722 78.94429 6292.55664
91.4212 91.4005 5323.0 0.0001879 78.94368 5698.11426
91.4379 91.4172 4656.0 0.0002148 78.94306 5097.28418
91.4546 91.4339 4159.0 0.0002404 78.94245 4513.44971
91.4713 91.4506 3606.0 0.0002773 78.94183 3963.90015
91.4881 91.4674 3251.0 0.0003076 78.94122 3455.50879
91.5048 91.4841 2927.0 0.0003417 78.94060 3001.51880
91.5215 91.5008 2580.0 0.000388 78.93999 2600.09424
91.5382 91.5175 2172.0 0.000460 78.93937 2250.29248
91.5549 91.5342 2096.0 0.000477 78.93876 1949.25000
91.5716 91.5509 1844.0 0.000542 78.93814 1692.88733
91.5884 91.5677 1654.0 0.000605 78.93752 1475.30261
91.6051 91.5844 1370.0 0.000730 78.93690 1293.91125
91.6218 91.6011 1339.0 0.000747 78.93629 1142.61597
91.6385 91.6178 1133.0 0.000883 78.93568 1016.65076
91.6552 91.6345 1122.0 0.000891 78.93507 911.78748
91.6720 91.6513 983.0 0.001017 78.93444 823.82928
91.6887 91.6680 866.0 0.001155 78.93383 750.57880
91.7054 91.6847 804.0 0.001244 78.93321 688.78741
91.7221 91.7014 767.0 0.001304 78.93260 636.23938
91.7388 91.7181 729.0 0.001372 78.93198 591.16504
91.7556 91.7349 622.0 0.001608 78.93137 551.82404
91.7723 91.7516 581.0 0.001722 78.93075 517.65601
91.7890 91.7683 583.0 0.001715 78.93014 487.48169
91.8057 91.7850 506.0 0.001977 78.92952 460.61002
91.8224 91.8017 453.0 0.002208 78.92891 436.50128
91.8391 91.8184 431.0 0.002320 78.92829 414.73196
91.8559 91.8352 443.0 0.002257 78.92767 394.85736
91.8726 91.8519 401.0 0.002495 78.92706 376.82986
91.8893 91.8686 371.0 0.002696 78.92645 360.33264
91.9060 91.8853 354.0 0.002826 78.92583 345.17670
91.9227 91.9020 322.0 0.003107 78.92522 331.21313
91.9395 91.9188 315.0 0.003174 78.92460 318.24356
91.9562 91.9355 298.0 0.003357 78.92398 306.31036
91.9729 91.9522 299.0 0.003345 78.92336 295.24155
91.9896 91.9689 287.0 0.003485 78.92275 284.95544
92.0063 91.9856 264.0 0.00379 78.92213 275.38541
92.0231 92.0024 236.0 0.00424 78.92152 266.39621
92.0398 92.0191 223.0 0.00449 78.92091 258.06192
92.0565 92.0358 213.0 0.00470 78.92029 250.26727
92.0732 92.0525 223.0 0.00449 78.91967 242.96696
92.0899 92.0692 243.0 0.00411 78.91906 236.12036
92.1066 92.0859 216.0 0.00463 78.91844 229.69099
92.1234 92.1027 186.0 0.00537 78.91782 223.61156
92.1401 92.1194 220.0 0.00455 78.91721 217.91963
92.1568 92.1361 175.0 0.00571 78.91660 212.55836
92.1735 92.1528 198.0 0.00505 78.91598 207.49994
92.1902 92.1695 220.0 0.00455 78.91537 202.72212
92.2070 92.1863 177.0 0.00565 78.91475 198.17892
92.2237 92.2030 173.0 0.00578 78.91413 193.90465
92.2404 92.2197 160.0 0.00625 78.91352 189.85527
92.2571 92.2364 165.0 0.00606 78.91290 186.01537
92.2738 92.2531 172.0 0.00582 78.91228 182.37291
92.2906 92.2699 147.0 0.00681 78.91167 178.88695
92.3073 92.2866 154.0 0.00649 78.91106 175.59633
92.3240 92.3033 145.0 0.00690 78.91044 172.46515
92.3407 92.3200 156.0 0.00641 78.90982 169.48329
92.3574 92.3367 154.0 0.00649 78.90921 166.64148
92.3741 92.3534 151.0 0.00662 78.90859 163.93114
92.3909 92.3702 151.0 0.00662 78.90797 161.32948
92.4076 92.3869 135.0 0.00741 78.90736 158.85799
92.4243 92.4036 135.0 0.00741 78.90675 156.49722
92.4410 92.4203 126.0 0.00794 78.90613 154.23941
92.4577 92.4370 116.0 0.00862 78.90552 152.07864
92.4745 92.4538 129.0 0.00775 78.90490 149.99762
92.4912 92.4705 133.0 0.00752 78.90428 148.01541
92.5079 92.4872 153.0 0.00654 78.90367 146.11497
92.5246 92.5039 129.0 0.00775 78.90305 144.29182
92.5413 92.5206 116.0 0.00862 78.90244 142.54190
92.5580 92.5373 126.0 0.00794 78.90182 140.86224
92.5748 92.5541 146.0 0.00685 78.90121 139.23622
92.5915 92.5708 131.0 0.00763 78.90059 137.68410
92.6082 92.5875 103.0 0.00971 78.89998 136.19113
92.6249 92.6042 135.0 0.00741 78.89936 134.75441
92.6416 92.6209 139.0 0.00719 78.89874 133.37111
92.6584 92.6377 122.0 0.00819 78.89812 132.19298
92.6751 92.6544 140.0 0.00715 78.89751 130.90918
92.6918 92.6711 113.0 0.00885 78.89690 129.67226
92.7085 92.6878 121.0 0.00826 78.89629 128.47917
92.7252 92.7045 131.0 0.00763 78.89567 127.32797
92.7420 92.7213 110.0 0.00909 78.89505 126.21030
92.7587 92.7380 141.0 0.00710 78.89443 125.13732
92.7754 92.7547 141.0 0.00710 78.89382 124.10075
92.7921 92.7714 121.0 0.00826 78.89320 123.09889
92.8088 92.7881 132.0 0.00757 78.89259 122.13030
92.8255 92.8048 111.0 0.00900 78.89198 121.19402
92.8423 92.8216 131.0 0.00763 78.89136 120.28133
92.8590 92.8383 108.0 0.00926 78.89074 119.40424
92.8757 92.8550 92.0 0.01087 78.89013 118.55503
92.8924 92.8717 116.0 0.00862 78.88951 117.73255
92.9091 92.8884 104.0 0.00961 78.88890 116.93568
92.9259 92.9052 96.0 0.01042 78.88828 116.15894
92.9426 92.9219 107.0 0.00935 78.88766 115.40993
92.9593 92.9386 103.0 0.00971 78.88705 114.68404
92.9760 92.9553 122.0 0.00819 78.88644 113.75754
92.9927 92.9720 96.0 0.01042 78.88582 113.07552
93.0095 92.9888 102.0 0.00980 78.88520 112.40974
93.0262 93.0055 124.0 0.00806 78.88458 111.76719
93.0429 93.0222 110.0 0.00909 78.88397 111.14321
93.0596 93.0389 95.0 0.01053 78.88335 110.53708
93.0763 93.0556 118.0 0.00848 78.88274 109.94815
93.0930 93.0723 94.0 0.01064 78.88213 109.37611
93.1098 93.0891 101.0 0.00990 78.88151 108.81583
93.1265 93.1058 103.0 0.00971 78.88089 108.27490
93.1432 93.1225 115.0 0.00870 78.88028 107.74881
93.1599 93.1392 99.0 0.01010 78.87966 107.23699
93.1766 93.1559 125.0 0.00800 78.87905 106.73900
93.1934 93.1727 113.0 0.00885 78.87843 106.25153
93.2101 93.1894 93.0 0.01075 78.87782 105.77950
93.2268 93.2061 91.0 0.01099 78.87720 105.32020
93.2435 93.2228 103.0 0.00971 78.87659 104.87289
93.2602 93.2395 97.0 0.01031 78.87597 104.43719
93.2770 93.2563 90.0 0.01111 78.87535 104.01026
93.2937 93.2730 108.0 0.00926 78.87474 103.59669
93.3104 93.2897 106.0 0.00943 78.87412 103.19365
93.3271 93.3064 95.0 0.01053 78.87350 102.80076
93.3438 93.3231 98.0 0.01021 78.87289 102.41774
93.3605 93.3398 113.0 0.00885 78.87228 102.04444
93.3773 93.3566 96.0 0.01042 78.87166 101.67767
93.3940 93.3733 104.0 0.00961 78.87105 101.32246
93.4107 93.3900 98.0 0.01021 78.87043 100.97594
93.4274 93.4067 83.0 0.01205 78.86981 100.63788
93.4441 93.4234 102.0 0.00980 78.86920 100.30800
93.4609 93.4402 114.0 0.00877 78.86858 99.98422
93.4776 93.4569 124.0 0.00806 78.86797 99.66991
93.4943 93.4736 92.0 0.01087 78.86735 99.36330
93.5110 93.4903 115.0 0.00870 78.86674 99.06403
93.5277 93.5070 97.0 0.01031 78.86612 98.77186
93.5445 93.5238 98.0 0.01021 78.86550 98.48499
93.5612 93.5405 101.0 0.00990 78.86489 98.20657
93.5779 93.5572 96.0 0.01042 78.86427 97.93476
93.5946 93.5739 114.0 0.00877 78.86366 97.66938
93.6113 93.5906 97.0 0.01031 78.86304 97.41029
93.6280 93.6073 112.0 0.00893 78.86243 97.15749
93.6448 93.6241 94.0 0.01064 78.86181 96.90887
93.6615 93.6408 93.0 0.01075 78.86120 96.66788
93.6782 93.6575 91.0 0.01099 78.86058 96.43271
93.6949 93.6742 108.0 0.00926 78.85996 96.20319
93.7116 93.6909 81.0 0.01235 78.85935 95.97929
93.7284 93.7077 113.0 0.00885 78.85873 95.75963
93.7451 93.7244 100.0 0.01000 78.85812 95.54657
93.7618 93.7411 93.0 0.01075 78.85751 95.33904
93.7785 93.7578 106.0 0.00943 78.85689 95.13682
93.7952 93.7745 96.0 0.01042 78.85627 94.93990
93.8120 93.7913 101.0 0.00990 78.85565 94.74718
93.8287 93.8080 115.0 0.00870 78.85504 94.56087
93.8454 93.8247 111.0 0.00900 78.85442 94.37988
93.8621 93.8414 81.0 0.01235 78.85381 94.20427
93.8788 93.8581 68.0 0.01471 78.85320 94.03410
93.8955 93.8748 100.0 0.01000 78.85258 93.86961
93.9123 93.8916 88.0 0.01136 78.85196 93.70968
93.9290 93.9083 104.0 0.00961 78.85135 93.55688
93.9457 93.9250 88.0 0.01136 78.85073 93.41039
93.9624 93.9417 107.0 0.00935 78.85012 93.27067
93.9791 93.9584 96.0 0.01042 78.84950 93.13824
93.9959 93.9752 81.0 0.01235 78.84888 93.01320
94.0126 93.9919 92.0 0.01087 78.84827 92.89783
94.0293 94.0086 89.0 0.01124 78.84766 93.09812
94.0460 94.0253 111.0 0.00900 78.84704 93.00658
94.0627 94.0420 121.0 0.00826 78.84643 92.92878
94.0795 94.0588 86.0 0.01163 78.84580 92.86675
94.0962 94.0755 100.0 0.01000 78.84519 92.82414
94.1129 94.0922 88.0 0.01136 78.84457 92.80399
94.1296 94.1089 106.0 0.00943 78.84396 92.81036
94.1463 94.1256 122.0 0.00819 78.84335 92.84794
94.1630 94.1423 106.0 0.00943 78.84274 92.92182
94.1798 94.1591 87.0 0.01150 78.84211 93.03871
94.1965 94.1758 90.0 0.01111 78.84150 93.20274
94.2132 94.1925 100.0 0.01000 78.84088 93.42021
94.2299 94.2092 101.0 0.00990 78.84027 93.69605
94.2466 94.2259 89.0 0.01124 78.83965 94.03391
94.2634 94.2427 103.0 0.00971 78.83904 94.43787
94.2801 94.2594 98.0 0.01021 78.83842 94.90211
94.2968 94.2761 88.0 0.01136 78.83781 95.42313
94.3135 94.2928 102.0 0.00980 78.83719 95.99185
94.3302 94.3095 87.0 0.01150 78.83658 96.59459
94.3470 94.3263 92.0 0.01087 78.83596 97.21707
94.3637 94.3430 109.0 0.00917 78.83534 97.82986
94.3804 94.3597 84.0 0.01191 78.83472 98.40976
94.3971 94.3764 108.0 0.00926 78.83411 98.92490
94.4138 94.3931 92.0 0.01087 78.83350 99.33946
94.4305 94.4098 97.0 0.01031 78.83289 99.61738
94.4473 94.4266 108.0 0.00926 78.83227 99.72884
94.4640 94.4433 75.0 0.01333 78.83165 99.65285
94.4807 94.4600 85.0 0.01176 78.83103 99.38594
94.4974 94.4767 100.0 0.01000 78.83042 98.93789
94.5141 94.4934 85.0 0.01176 78.82980 98.33172
94.5309 94.5102 103.0 0.00971 78.82919 97.59670
94.5476 94.5269 93.0 0.01075 78.82858 96.78098
94.5643 94.5436 111.0 0.00900 78.82796 95.92210
94.5810 94.5603 91.0 0.01099 78.82734 95.05594
94.5977 94.5770 84.0 0.01191 78.82673 94.21176
94.6144 94.5937 87.0 0.01150 78.82611 93.41100
94.6312 94.6105 93.0 0.01075 78.82549 92.66358
94.6479 94.6272 98.0 0.01021 78.82488 91.98621
94.6646 94.6439 97.0 0.01031 78.82426 91.37743
94.6813 94.6606 92.0 0.01087 78.82365 90.83671
94.6980 94.6773 99.0 0.01010 78.82304 90.36111
94.7148 94.6941 88.0 0.01136 78.82242 89.94250
94.7315 94.7108 108.0 0.00926 78.82180 89.58097
94.7482 94.7275 98.0 0.01021 78.82119 89.26691
94.7649 94.7442 102.0 0.00980 78.82057 88.99389
94.7816 94.7609 90.0 0.01111 78.81995 88.75568
94.7984 94.7777 93.0 0.01075 78.81934 88.54549
94.8151 94.7944 71.0 0.01409 78.82598 88.36786
94.8318 94.8111 83.0 0.01205 78.83721 88.21474
94.8485 94.8278 85.0 0.01176 78.84843 88.07777
94.8652 94.8445 83.0 0.01205 78.85966 87.95399
94.8819 94.8612 94.0 0.01064 78.87090 87.84102
94.8987 94.8780 89.0 0.01124 78.88219 87.73634
94.9154 94.8947 68.0 0.01471 78.89341 87.63966
94.9321 94.9114 91.0 0.01099 78.90464 87.54918
94.9488 94.9281 77.0 0.01299 78.91587 87.46395
94.9655 94.9448 97.0 0.01031 78.92709 87.38333
94.9823 94.9616 85.0 0.01176 78.93840 87.30613
94.9990 94.9783 86.0 0.01163 78.94963 87.23303
95.0157 94.9950 99.0 0.01010 78.96085 87.16309
95.0324 95.0117 87.0 0.01150 78.97208 87.09603
95.0491 95.0284 97.0 0.01031 78.98331 87.03162
95.0659 95.0452 90.0 0.01111 78.99461 86.96928
95.0826 95.0619 92.0 0.01087 79.00584 86.90952
95.0993 95.0786 98.0 0.01021 79.01707 86.85190
95.1160 95.0953 113.0 0.00885 79.02830 86.79624
95.1327 95.1120 103.0 0.00971 79.03953 86.74242
95.1494 95.1287 90.0 0.01111 79.05076 86.69038
95.1662 95.1455 91.0 0.01099 79.06205 86.63966
95.1829 95.1622 75.0 0.01333 79.07328 86.59081
95.1996 95.1789 87.0 0.01150 79.08451 86.54346
95.2163 95.1956 90.0 0.01111 79.09574 86.49753
95.2330 95.2123 94.0 0.01064 79.10696 86.45296
95.2498 95.2291 94.0 0.01064 79.11826 86.40937
95.2665 95.2458 100.0 0.01000 79.12949 86.36734
95.2832 95.2625 96.0 0.01042 79.14072 86.32650
95.2999 95.2792 98.0 0.01021 79.15195 86.28681
95.3166 95.2959 76.0 0.01316 79.16319 86.24822
95.3334 95.3127 80.0 0.01250 79.17448 86.21050
95.3501 95.3294 91.0 0.01099 79.18571 86.17401
95.3668 95.3461 88.0 0.01136 79.19694 86.13854
95.3835 95.3628 93.0 0.01075 79.20817 86.10406
95.4002 95.3795 90.0 0.01111 79.21940 86.07051
95.4169 95.3962 90.0 0.01111 79.23062 86.03786
95.4337 95.4130 99.0 0.01010 79.24191 86.00594
95.4504 95.4297 91.0 0.01099 79.25314 85.97509
95.4671 95.4464 103.0 0.00971 79.26437 85.94508
95.4838 95.4631 87.0 0.01150 79.27560 85.91589
95.5005 95.4798 87.0 0.01150 79.28683 85.88754
95.5173 95.4966 79.0 0.01266 79.29813 85.85976
95.5340 95.5133 99.0 0.01010 79.30936 85.83293
95.5507 95.5300 107.0 0.00935 79.32059 85.80688
95.5674 95.5467 88.0 0.01136 79.33182 85.78159
95.5841 95.5634 80.0 0.01250 79.34304 85.75699
95.6009 95.5802 96.0 0.01042 79.35434 85.73298
95.6176 95.5969 86.0 0.01163 79.36557 85.70980
95.6343 95.6136 113.0 0.00885 79.37680 85.68734
95.6510 95.6303 94.0 0.01064 79.38803 85.66553
95.6677 95.6470 92.0 0.01087 79.39925 85.64439
95.6844 95.6637 106.0 0.00943 79.41048 85.62392
95.7012 95.6805 105.0 0.00952 79.42178 85.60398
95.7179 95.6972 95.0 0.01053 79.43301 85.58479
95.7346 95.7139 77.0 0.01299 79.44424 85.56622
95.7513 95.7306 80.0 0.01250 79.45547 85.54827
95.7680 95.7473 94.0 0.01064 79.46669 85.53094
95.7848 95.7641 94.0 0.01064 79.47800 85.51409
95.8015 95.7808 95.0 0.01053 79.48923 85.49796
95.8182 95.7975 92.0 0.01087 79.50046 85.48242
95.8349 95.8142 88.0 0.01136 79.51168 85.46746
95.8516 95.8309 79.0 0.01266 79.52291 85.45307
95.8684 95.8477 91.0 0.01099 79.53420 85.43917
95.8851 95.8644 91.0 0.01099 79.54544 85.42590
95.9018 95.8811 100.0 0.01000 79.55667 85.41324
95.9185 95.8978 104.0 0.00961 79.56789 85.40108
95.9352 95.9145 72.0 0.01389 79.57912 85.38950
95.9519 95.9312 98.0 0.01021 79.59035 85.37846
95.9687 95.9480 90.0 0.01111 79.60165 85.36790
95.9854 95.9647 96.0 0.01042 79.61288 85.35793
96.0021 95.9814 89.0 0.01124 79.62410 85.34849
96.0188 95.9981 85.0 0.01176 79.63533 85.33959
96.0355 96.0148 74.0 0.01351 79.64655 85.33121
96.0523 96.0316 90.0 0.01111 79.65786 85.32330
96.0690 96.0483 89.0 0.01124 79.66909 85.31597
96.0857 96.0650 108.0 0.00926 79.68031 85.30915
96.1024 96.0817 74.0 0.01351 79.69154 85.30285
96.1191 96.0984 86.0 0.01163 79.70277 85.29707
96.1359 96.1152 86.0 0.01163 79.71407 85.29175
96.1526 96.1319 98.0 0.01021 79.72530 85.28697
96.1693 96.1486 111.0 0.00900 79.73653 85.28272
96.1860 96.1653 79.0 0.01266 79.74776 85.27897
96.2027 96.1820 78.0 0.01282 79.75899 85.27571
96.2194 96.1987 81.0 0.01235 79.77022 85.27297
96.2362 96.2155 83.0 0.01205 79.78151 85.27071
96.2529 96.2322 93.0 0.01075 79.79274 85.26897
96.2696 96.2489 101.0 0.00990 79.80397 85.26774
96.2863 96.2656 89.0 0.01124 79.81520 85.26700
96.3030 96.2823 97.0 0.01031 79.82642 85.26676
96.3198 96.2991 94.0 0.01064 79.83772 85.26703
96.3365 96.3158 110.0 0.00909 79.84895 85.26780
96.3532 96.3325 97.0 0.01031 79.86018 85.26909
96.3699 96.3492 101.0 0.00990 79.87141 85.27087
96.3866 96.3659 100.0 0.01000 79.88264 85.27315
96.4034 96.3827 93.0 0.01075 79.89394 85.27596
96.4201 96.3994 78.0 0.01282 79.90517 85.27924
96.4368 96.4161 70.0 0.01428 79.91640 85.28307
96.4535 96.4328 79.0 0.01266 79.92763 85.28737
96.4702 96.4495 92.0 0.01087 79.93886 85.29221
96.4869 96.4662 81.0 0.01235 79.95009 85.29755
96.5037 96.4830 81.0 0.01235 79.96138 85.30344
96.5204 96.4997 99.0 0.01010 79.97260 85.30982
96.5371 96.5164 110.0 0.00909 79.98383 85.31673
96.5538 96.5331 89.0 0.01124 79.99506 85.32418
96.5705 96.5498 80.0 0.01250 80.00629 85.33213
96.5873 96.5666 80.0 0.01250 80.01759 85.34068
96.6040 96.5833 102.0 0.00980 80.02882 85.34972
96.6207 96.6000 95.0 0.01053 80.04005 85.35929
96.6374 96.6167 90.0 0.01111 80.05128 81.98683
96.6541 96.6334 93.0 0.01075 80.06250 82.01863
96.6708 96.6501 95.0 0.01053 80.07373 82.05078
96.6876 96.6669 85.0 0.01176 80.08504 82.08350
96.7043 96.6836 91.0 0.01099 80.09626 82.11639
96.7210 96.7003 71.0 0.01409 80.10749 82.14965
96.7377 96.7170 96.0 0.01042 80.11871 82.18332
96.7544 96.7337 78.0 0.01282 80.12994 82.21736
96.7712 96.7505 97.0 0.01031 80.14124 82.25202
96.7879 96.7672 94.0 0.01064 80.15247 82.28691
96.8046 96.7839 79.0 0.01266 80.16370 82.32219
96.8213 96.8006 74.0 0.01351 80.17493 82.35792
96.8380 96.8173 117.0 0.00854 80.18615 82.39407
96.8548 96.8341 87.0 0.01150 80.19746 82.43095
96.8715 96.8508 86.0 0.01163 80.20869 82.46804
96.8882 96.8675 94.0 0.01064 80.21992 82.50561
96.9049 96.8842 76.0 0.01316 80.23114 82.54365
96.9216 96.9009 95.0 0.01053 80.24237 82.58221
96.9383 96.9176 104.0 0.00961 80.25360 82.68202
96.9551 96.9344 101.0 0.00990 80.26490 82.72214
96.9718 96.9511 106.0 0.00943 80.27613 82.76256
96.9885 96.9678 115.0 0.00870 80.28735 82.80349
97.0052 96.9845 94.0 0.01064 80.29858 82.84502
97.0219 97.0012 90.0 0.01111 80.30981 82.88710
97.0387 97.0180 93.0 0.01075 80.32111 82.93002
97.0554 97.0347 78.0 0.01282 80.33234 82.97331
97.0721 97.0514 98.0 0.01021 80.34356 83.01722
97.0888 97.0681 86.0 0.01163 80.35479 83.06175
97.1055 97.0848 83.0 0.01205 80.36602 83.10692
97.1223 97.1016 73.0 0.01370 80.37732 83.15309
97.1390 97.1183 92.0 0.01087 80.38855 83.19963
97.1557 97.1350 95.0 0.01053 80.39978 83.24688
97.1724 97.1517 88.0 0.01136 80.41100 83.29484
97.1891 97.1684 98.0 0.01021 80.42223 83.40597
97.2058 97.1851 83.0 0.01205 80.43346 83.45603
97.2226 97.2019 87.0 0.01150 80.44476 83.50690
97.2393 97.2186 94.0 0.01064 80.45599 83.55827
97.2560 97.2353 106.0 0.00943 80.46722 83.61044
97.2727 97.2520 90.0 0.01111 80.47845 83.66347
97.2894 97.2687 75.0 0.01333 80.48968 83.71737
97.3062 97.2855 86.0 0.01163 80.50097 83.77249
97.3229 97.3022 96.0 0.01042 80.51220 83.82821
97.3396 97.3189 79.0 0.01266 80.52343 83.88486
97.3563 97.3356 71.0 0.01409 80.53466 83.94252
97.3730 97.3523 85.0 0.01176 80.54588 84.00112
97.3898 97.3691 90.0 0.01111 80.55718 84.06120
97.4065 97.3858 97.0 0.01031 80.56841 84.12193
97.4232 97.4025 68.0 0.01471 80.57964 84.18376
97.4399 97.4192 86.0 0.01163 80.59087 84.24670
97.4566 97.4359 89.0 0.01124 80.60210 84.31080
97.4733 97.4526 104.0 0.00961 80.61333 84.37608
97.4901 97.4694 95.0 0.01053 80.62463 84.44304
97.5068 97.4861 67.0 0.01493 80.63586 84.51081
97.5235 97.5028 76.0 0.01316 80.64709 84.57991
97.5402 97.5195 67.0 0.01493 80.65832 84.65034
97.5569 97.5362 60.0 0.01667 80.66955 84.72215
97.5737 97.5530 82.0 0.01220 80.68084 84.79582
97.5904 97.5697 92.0 0.01087 80.69206 84.87054
97.6071 97.5864 91.0 0.01099 80.70329 84.94678
97.6238 97.6031 82.0 0.01220 80.71452 85.02460
97.6405 97.6198 107.0 0.00935 80.72575 85.10398
97.6573 97.6366 94.0 0.01064 80.73705 85.18566
97.6740 97.6533 86.0 0.01163 80.74828 85.26851
97.6907 97.6700 77.0 0.01299 80.75951 85.35313
97.7074 97.6867 74.0 0.01351 80.77074 85.43960
97.7241 97.7034 84.0 0.01191 80.78196 85.52798
97.7408 97.7201 98.0 0.01021 80.79319 85.61833
97.7576 97.7369 89.0 0.01124 80.80450 85.71133
97.7743 97.7536 102.0 0.00980 80.81572 85.80585
97.7910 97.7703 84.0 0.01191 80.82695 85.90258
97.8077 97.7870 85.0 0.01176 80.83818 86.00154
97.8244 97.8037 90.0 0.01111 80.84940 86.10285
97.8412 97.8205 98.0 0.01021 80.86070 86.20721
97.8579 97.8372 99.0 0.01010 80.87193 86.31349
97.8746 97.8539 95.0 0.01053 80.88316 86.42238
97.8913 97.8706 80.0 0.01250 80.89439 86.53397
97.9080 97.8873 100.0 0.01000 80.90561 86.64832
97.9248 97.9041 92.0 0.01087 80.91692 86.76646
97.9415 97.9208 79.0 0.01266 80.92815 86.88683
97.9582 97.9375 98.0 0.01021 80.93938 87.01035
97.9749 97.9542 85.0 0.01176 80.95060 87.13712
97.9916 97.9709 92.0 0.01087 80.96183 87.26728
98.0083 97.9876 82.0 0.01220 80.97306 87.40098
98.0251 98.0044 97.0 0.01031 80.98436 87.53924
98.0418 98.0211 98.0 0.01021 80.99559 87.68045
98.0585 98.0378 88.0 0.01136 81.00681 87.82562
98.0752 98.0545 84.0 0.01191 81.01804 87.97495
98.0919 98.0712 92.0 0.01087 81.02927 88.12859
98.1087 98.0880 84.0 0.01191 81.04057 88.28766
98.1254 98.1047 93.0 0.01075 81.05180 88.45049
98.1421 98.1214 87.0 0.01150 81.06303 88.61823
98.1588 98.1381 96.0 0.01042 81.07425 88.79106
98.1755 98.1548 78.0 0.01282 81.08548 89.03252
98.1923 98.1716 93.0 0.01075 81.09679 89.21793
98.2090 98.1883 90.0 0.01111 81.10801 89.40786
98.2257 98.2050 84.0 0.01191 81.11924 89.60389
98.2424 98.2217 100.0 0.01000 81.13046 89.93507
98.2591 98.2384 99.0 0.01010 81.14169 90.14489
98.2758 98.2551 93.0 0.01075 81.15292 90.36166
98.2926 98.2719 87.0 0.01150 81.16422 90.64667
98.3093 98.2886 85.0 0.01176 81.17545 90.87884
98.3260 98.3053 95.0 0.01053 81.18668 91.11906
98.3427 98.3220 91.0 0.01099 81.19791 91.36774
98.3594 98.3387 84.0 0.01191 81.20914 91.62528
98.3762 98.3555 117.0 0.00854 81.22043 91.89375
98.3929 98.3722 86.0 0.01163 81.23166 92.17048
98.4096 98.3889 83.0 0.01205 81.24289 92.45754
98.4263 98.4056 98.0 0.01021 81.25412 92.75546
98.4430 98.4223 97.0 0.01031 81.26534 93.06463
98.4598 98.4391 81.0 0.01235 81.27665 93.38834
98.4765 98.4558 95.0 0.01053 81.28787 93.72256
98.4932 98.4725 79.0 0.01266 81.29910 94.07023
98.5099 98.4892 82.0 0.01220 81.31033 94.43213
98.5266 98.5059 87.0 0.01150 81.32156 94.80902
98.5433 98.5226 101.0 0.00990 81.33279 95.20180
98.5601 98.5394 104.0 0.00961 81.34409 95.61409
98.5768 98.5561 101.0 0.00990 81.35532 96.04166
98.5935 98.5728 117.0 0.00854 81.36655 96.48816
98.6102 98.5895 95.0 0.01053 81.37778 96.95476
98.6269 98.6062 107.0 0.00935 81.38901 97.44270
98.6437 98.6230 93.0 0.01075 81.40030 97.95641
98.6604 98.6397 111.0 0.00900 81.41152 98.49142
98.6771 98.6564 88.0 0.01136 81.42275 99.05221
98.6938 98.6731 101.0 0.00990 81.43399 99.64086
98.7105 98.6898 102.0 0.00980 81.44522 100.25858
98.7272 98.7065 88.0 0.01136 81.45644 100.90771
98.7440 98.7233 81.0 0.01235 81.46774 101.59458
98.7607 98.7400 90.0 0.01111 81.47897 102.31363
98.7774 98.7567 91.0 0.01099 81.49020 103.07137
98.7941 98.7734 87.0 0.01150 81.50143 103.87070
98.8108 98.7901 110.0 0.00909 81.51265 104.71478
98.8276 98.8069 113.0 0.00885 81.52396 105.61303
98.8443 98.8236 121.0 0.00826 81.53519 106.55782
98.8610 98.8403 113.0 0.00885 81.54641 107.55901
98.8777 98.8570 89.0 0.01124 81.55764 108.62140
98.8944 98.8737 101.0 0.00990 81.56886 109.75030
98.9112 98.8905 123.0 0.00813 81.58016 110.95904
98.9279 98.9072 99.0 0.01010 81.59139 112.24046
98.9446 98.9239 113.0 0.00885 81.60262 113.60925
98.9613 98.9406 114.0 0.00877 81.61385 115.07453
98.9780 98.9573 120.0 0.00834 81.62508 116.64782
98.9947 98.9740 103.0 0.00971 81.63631 118.33974
99.0115 98.9908 116.0 0.00862 81.64761 120.17703
99.0282 99.0075 128.0 0.00782 81.65884 122.15582
99.0449 99.0242 120.0 0.00834 81.67006 124.30721
99.0616 99.0409 119.0 0.00840 81.68129 126.65598
99.0783 99.0576 127.0 0.00787 81.69252 129.23175
99.0951 99.0744 130.0 0.00769 81.70382 132.08896
99.1118 99.0911 128.0 0.00782 81.71505 135.23291
99.1285 99.1078 130.0 0.00769 81.72628 138.73006
99.1452 99.1245 140.0 0.00715 81.73750 142.63750
99.1619 99.1412 137.0 0.00731 81.74873 147.02130
99.1787 99.1580 153.0 0.00654 81.76003 151.98735
99.1954 99.1747 182.0 0.00550 81.77126 157.56319
99.2121 99.1914 162.0 0.00617 81.78249 163.87022
99.2288 99.2081 155.0 0.00645 81.79372 171.01598
99.2455 99.2248 198.0 0.00505 81.80495 179.10292
99.2622 99.2415 213.0 0.00470 81.81618 188.25221
99.2790 99.2583 183.0 0.00546 81.82747 198.64922
99.2957 99.2750 223.0 0.00449 81.83870 210.29694
99.3124 99.2917 227.0 0.00440 81.84993 223.37422
99.3291 99.3084 259.0 0.00386 81.86115 237.99860
99.3458 99.3251 247.0 0.00405 81.87238 254.27893
99.3626 99.3419 264.0 0.00379 81.88369 272.43222
99.3793 99.3586 307.0 0.003258 81.89491 292.30139
99.3960 99.3753 299.0 0.003345 81.90614 314.04181
99.4127 99.3920 333.0 0.003002 81.91737 337.65598
99.4294 99.4087 353.0 0.002832 81.92860 363.08630
99.4462 99.4255 381.0 0.002624 81.93989 390.35614
99.4629 99.4422 416.0 0.002403 81.95112 418.89963
99.4796 99.4589 440.0 0.002272 81.96235 448.49173
99.4963 99.4756 411.0 0.002434 81.97358 478.61258
99.5130 99.4923 472.0 0.002118 81.98481 508.63580
99.5297 99.5090 520.0 0.001924 81.99604 537.81763
99.5465 99.5258 553.0 0.001808 82.00733 565.66449
99.5632 99.5425 526.0 0.001902 82.01856 591.36273
99.5799 99.5592 592.0 0.001689 82.02979 614.90002
99.5966 99.5759 561.0 0.001782 82.04102 636.47479
99.6133 99.5926 586.0 0.001706 82.05225 656.63715
99.6301 99.6094 583.0 0.001715 82.06355 676.29279
99.6468 99.6261 634.0 0.001577 82.07478 696.02380
99.6635 99.6428 655.0 0.001527 82.08601 716.64148
99.6802 99.6595 670.0 0.001493 82.09724 738.51880
99.6969 99.6762 736.0 0.001359 82.10847 761.58783
99.7137 99.6930 768.0 0.001302 82.11976 785.38464
99.7304 99.7097 867.0 0.001154 82.13099 808.43781
99.7471 99.7264 833.0 0.001201 82.14221 829.11896
99.7638 99.7431 850.0 0.001177 82.15345 845.21625
99.7805 99.7598 896.0 0.001116 82.16468 854.31067
99.7972 99.7765 857.0 0.001167 82.17591 854.26422
99.8140 99.7933 891.0 0.001122 82.18720 843.57104
99.8307 99.8100 841.0 0.001189 82.19843 822.05127
99.8474 99.8267 795.0 0.001257 82.20966 790.56335
99.8641 99.8434 739.0 0.001354 82.22089 750.94324
99.8808 99.8601 703.0 0.001423 82.23211 705.53528
99.8976 99.8769 622.0 0.001608 82.24342 656.42267
99.9143 99.8936 610.0 0.001639 82.25465 606.38586
99.9310 99.9103 535.0 0.001869 82.26587 556.84375
99.9477 99.9270 491.0 0.002036 82.27710 509.08151
99.9644 99.9437 441.0 0.002268 82.28833 463.99365
99.9812 99.9605 416.0 0.002403 82.29962 421.92029
99.9979 99.9772 389.0 0.002571 82.31086 383.65598
100.0150 99.9943 357.0 0.002802 82.32235 348.36102
100.0310 100.0103 305.0 0.003280 82.33311 318.81641
100.0480 100.0273 315.0 0.003174 82.34453 291.06171
100.0650 100.0443 312.0 0.003206 82.35597 266.75912
100.0820 100.0613 273.0 0.00366 82.36740 245.69960
100.0980 100.0773 237.0 0.00422 82.37815 228.56799
100.1150 100.0943 253.0 0.00395 82.38959 212.87070
100.1320 100.1113 207.0 0.00483 82.40102 199.47279
100.1480 100.1273 209.0 0.00478 82.41177 188.68282
100.1650 100.1443 205.0 0.00488 82.42321 178.84543
100.1820 100.1613 199.0 0.00502 82.43463 170.45120
100.1990 100.1783 185.0 0.00541 82.44608 163.24481
100.2150 100.1943 169.0 0.00592 82.45683 157.37874
100.2320 100.2113 185.0 0.00541 82.46825 151.94864
100.2490 100.2283 172.0 0.00582 82.47969 147.19708
100.2650 100.2443 136.0 0.00736 82.49045 143.24709
100.2820 100.2613 169.0 0.00592 82.50187 139.50844
100.2990 100.2783 161.0 0.00621 82.51331 136.16045
100.3150 100.2943 162.0 0.00617 82.52407 133.31250
100.3320 100.3113 133.0 0.00752 82.53549 130.77197
100.3490 100.3283 146.0 0.00685 82.54694 128.26669
100.3660 100.3453 141.0 0.00710 82.55836 125.97372
100.3820 100.3613 142.0 0.00704 82.56911 123.98643
100.3990 100.3783 137.0 0.00731 82.58055 122.03062
100.4160 100.3953 104.0 0.00961 82.59198 120.22193
100.4330 100.4123 124.0 0.00806 82.60342 118.54414
100.4490 100.4283 127.0 0.00787 82.61417 117.07350
100.4660 100.4453 113.0 0.00885 82.62560 115.61448
100.4830 100.4623 113.0 0.00885 82.63703 114.25323
100.4990 100.4783 122.0 0.00819 82.64779 113.05412
100.5160 100.4953 120.0 0.00834 82.65923 111.85913
100.5330 100.5123 112.0 0.00893 82.67064 110.74069
100.5500 100.5293 112.0 0.00893 82.68208 109.68961
100.5660 100.5453 120.0 0.00834 82.69284 108.75907
100.5830 100.5623 100.0 0.01000 82.70425 107.82900
100.6000 100.5793 119.0 0.00840 82.71570 106.95203
100.6170 100.5963 104.0 0.00961 82.72713 106.12623
100.6330 100.6123 109.0 0.00917 82.73788 105.39264
100.6500 100.6293 136.0 0.00736 82.74932 104.65443
100.6670 100.6463 100.0 0.01000 82.76075 103.95739
100.6830 100.6623 80.0 0.01250 82.77150 103.33660
100.7000 100.6793 100.0 0.01000 82.78294 102.71040
100.7170 100.6963 100.0 0.01000 82.79436 102.11803
100.7340 100.7133 101.0 0.00990 82.80580 101.55591
100.7500 100.7293 116.0 0.00862 82.81656 101.05384
100.7670 100.7463 83.0 0.01205 82.82798 100.54687
100.7840 100.7633 109.0 0.00917 82.83942 100.06484
100.8000 100.7793 82.0 0.01220 82.85018 99.63348
100.8170 100.7963 115.0 0.00870 82.86160 99.19717
100.8340 100.8133 106.0 0.00943 82.87305 98.78160
100.8500 100.8293 76.0 0.01316 82.88380 98.40912
100.8670 100.8463 96.0 0.01042 82.89522 98.03178
100.8840 100.8633 123.0 0.00813 82.90666 97.67189
100.9010 100.8803 91.0 0.01099 82.91809 97.32903
100.9170 100.8963 91.0 0.01099 82.92884 97.02122
100.9340 100.9133 111.0 0.00900 82.94028 96.70831
100.9510 100.9303 112.0 0.00893 82.95171 96.40990
100.9680 100.9473 81.0 0.01235 82.96314 96.12503
100.9840 100.9633 100.0 0.01000 82.97390 95.86879
101.0010 100.9803 97.0 0.01031 82.98534 95.60831
101.0180 100.9973 102.0 0.00980 82.99677 95.35944
101.0340 101.0133 104.0 0.00961 83.00752 95.13541
101.0510 101.0303 98.0 0.01021 83.01895 94.90752
101.0680 101.0473 87.0 0.01150 83.03036 94.68993
101.0850 101.0643 83.0 0.01205 83.04181 94.48155
101.1010 101.0803 99.0 0.01010 83.05257 94.29385
101.1180 101.0973 93.0 0.01075 83.06399 94.10315
101.1350 101.1143 94.0 0.01064 83.07543 93.92049
101.1520 101.1313 102.0 0.00980 83.08686 93.74592
101.1680 101.1473 94.0 0.01064 83.09761 93.58876
101.1850 101.1643 93.0 0.01075 83.10905 93.42863
101.2020 101.1813 98.0 0.01021 83.12048 93.27563
101.2180 101.1973 105.0 0.00952 83.13123 93.13791
101.2350 101.2143 89.0 0.01124 83.14267 92.99765
101.2520 101.2313 84.0 0.01191 83.15409 92.86378
101.2690 101.2483 69.0 0.01449 83.16553 92.73575
101.2850 101.2643 81.0 0.01235 83.17629 92.62062
101.3020 101.2813 89.0 0.01124 83.18771 92.90270
101.3190 101.2983 83.0 0.01205 83.19915 92.79297
101.3350 101.3143 102.0 0.00980 83.20991 92.69453
101.3520 101.3313 96.0 0.01042 83.22133 92.59478
101.3690 101.3483 92.0 0.01087 83.23277 92.49979
101.3850 101.3643 99.0 0.01010 83.24353 92.41473
101.4020 101.3813 89.0 0.01124 83.25495 92.32877
101.4190 101.3983 105.0 0.00952 83.26640 92.24709
101.4360 101.4153 101.0 0.00990 83.27782 92.16972
101.4520 101.4313 83.0 0.01205 83.28857 92.10072
101.4690 101.4483 91.0 0.01099 83.30001 92.03119
101.4860 101.4653 88.0 0.01136 83.31145 91.96559
101.5030 101.4823 99.0 0.01010 83.32288 91.90381
101.5190 101.4983 94.0 0.01064 83.33363 91.84902
101.5360 101.5153 76.0 0.01316 83.34506 91.79429
101.5530 101.5323 106.0 0.00943 83.35649 91.74308
101.5690 101.5483 89.0 0.01124 83.36725 91.69802
101.5860 101.5653 107.0 0.00935 83.37868 91.65339
101.6030 101.5823 90.0 0.01111 83.39010 91.61208
101.6200 101.5993 95.0 0.01053 83.40154 91.57391
101.6360 101.6153 99.0 0.01010 83.41230 91.54086
101.6530 101.6323 86.0 0.01163 83.42372 91.50881
101.6700 101.6493 90.0 0.01111 83.43516 91.47973
101.6870 101.6663 92.0 0.01087 83.44659 91.45367
101.7030 101.6823 100.0 0.01000 83.45734 91.43184
101.7200 101.6993 99.0 0.01010 83.46878 91.41142
101.7370 101.7163 105.0 0.00952 83.48021 91.39388
101.7530 101.7323 100.0 0.01000 83.49096 91.37994
101.7700 101.7493 95.0 0.01053 83.50240 91.36784
101.7870 101.7663 90.0 0.01111 83.51382 91.35852
101.8040 101.7833 80.0 0.01250 83.52526 91.35192
101.8200 101.7993 96.0 0.01042 83.53602 91.34822
101.8370 101.8163 123.0 0.00813 83.54744 91.34689
101.8540 101.8333 88.0 0.01136 83.55888 91.34828
101.8700 101.8493 99.0 0.01010 83.56964 91.35201
101.8870 101.8663 88.0 0.01136 83.58106 91.35854
101.9040 101.8833 86.0 0.01163 83.59251 91.36777
101.9210 101.9003 84.0 0.01191 83.60394 91.37965
101.9370 101.9163 92.0 0.01087 83.61468 91.39326
101.9540 101.9333 71.0 0.01409 83.62612 91.41035
101.9710 101.9503 95.0 0.01053 83.63756 91.43009
101.9870 101.9663 95.0 0.01053 83.64830 91.45111
102.0040 101.9833 104.0 0.00961 83.65974 91.47614
102.0210 102.0003 107.0 0.00935 83.67117 91.50383
102.0380 102.0173 100.0 0.01000 83.68260 91.53429
102.0540 102.0333 103.0 0.00971 83.69336 91.56546
102.0710 102.0503 99.0 0.01010 83.70480 91.60136
102.0880 102.0673 76.0 0.01316 83.71622 91.64008
102.1040 102.0833 106.0 0.00943 83.72698 92.57581
102.1210 102.1003 101.0 0.00990 83.73841 92.62494
102.1380 102.1173 83.0 0.01205 83.74983 92.67703
102.1550 102.1343 105.0 0.00952 83.76127 92.73225
102.1710 102.1503 92.0 0.01087 83.77203 92.78702
102.1880 102.1673 92.0 0.01087 83.78345 92.84821
102.2050 102.1843 93.0 0.01075 83.79489 92.91271
102.2220 102.2013 102.0 0.00980 83.80632 92.98045
102.2380 102.2173 93.0 0.01075 83.81707 93.04722
102.2550 102.2343 105.0 0.00952 83.82851 93.12161
102.2720 102.2513 93.0 0.01075 83.83994 93.19949
102.2880 102.2673 85.0 0.01176 83.85069 93.27599
102.3050 102.2843 98.0 0.01021 83.86213 93.36101
102.3220 102.3013 108.0 0.00926 83.87355 93.44973
102.3390 102.3183 97.0 0.01031 83.88499 93.54247
102.3550 102.3343 118.0 0.00848 83.89575 93.63336
102.3720 102.3513 86.0 0.01163 83.90717 93.73395
102.3890 102.3683 98.0 0.01021 83.91862 93.83895
102.4050 102.3843 98.0 0.01021 83.92937 93.94173
102.4220 102.4013 108.0 0.00926 83.94079 94.05536
102.4390 102.4183 102.0 0.00980 83.95223 94.17390
102.4550 102.4343 103.0 0.00971 83.96299 94.28984
102.4720 102.4513 92.0 0.01087 83.97441 94.41801
102.4890 102.4683 91.0 0.01099 83.98586 94.55166
102.5060 102.4853 83.0 0.01205 83.99728 94.69083
102.5220 102.5013 96.0 0.01042 84.00803 94.82700
102.5390 102.5183 102.0 0.00980 84.01947 95.41404
102.5560 102.5353 94.0 0.01064 84.03091 95.57382
102.5730 102.5523 95.0 0.01053 84.04234 95.74041
102.5890 102.5683 89.0 0.01124 84.05309 95.90372
102.6060 102.5853 95.0 0.01053 84.06452 96.08469
102.6230 102.6023 116.0 0.00862 84.07596 96.27375
102.6390 102.6183 93.0 0.01075 84.08672 96.45948
102.6560 102.6353 90.0 0.01111 84.09814 96.66576
102.6730 102.6523 83.0 0.01205 84.10956 96.88157
102.6900 102.6693 92.0 0.01087 84.12100 97.10812
102.7060 102.6853 100.0 0.01000 84.13176 97.33139
102.7230 102.7023 106.0 0.00943 84.14318 97.57968
102.7400 102.7193 101.0 0.00990 84.15462 97.84083
102.7570 102.7363 102.0 0.00980 84.16605 98.11494
102.7730 102.7523 97.0 0.01031 84.17680 98.38522
102.7900 102.7693 102.0 0.00980 84.18824 98.68680
102.8070 102.7863 97.0 0.01031 84.19967 99.00309
102.8230 102.8023 114.0 0.00877 84.21042 99.31448
102.8400 102.8193 108.0 0.00926 84.22186 99.66100
102.8570 102.8363 93.0 0.01075 84.23328 100.02285
102.8740 102.8533 121.0 0.00826 84.24472 100.40073
102.8900 102.8693 107.0 0.00935 84.25548 100.76995
102.9070 102.8863 88.0 0.01136 84.26690 101.17620
102.9240 102.9033 104.0 0.00961 84.27834 101.59642
102.9400 102.9193 122.0 0.00819 84.28910 102.00277
102.9570 102.9363 112.0 0.00893 84.30052 102.44529
102.9740 102.9533 119.0 0.00840 84.31197 102.89895
102.9900 102.9693 92.0 0.01087 84.32272 103.33550
103.0070 102.9863 96.0 0.01042 84.33414 103.81124
103.0240 103.0033 104.0 0.00961 84.34558 104.30255
103.0410 103.0203 103.0 0.00971 84.35702 104.81218
103.0570 103.0363 106.0 0.00943 84.36776 105.31210
103.0740 103.0533 104.0 0.00961 84.37920 105.87024
103.0910 103.0703 113.0 0.00885 84.39063 106.45921
103.1080 103.0873 104.0 0.00961 84.40207 107.08346
103.1240 103.1033 95.0 0.01053 84.41282 107.70653
103.1410 103.1203 100.0 0.01000 84.42426 108.41047
103.1580 103.1373 124.0 0.00806 84.43568 109.16127
103.1740 103.1533 102.0 0.00980 84.44644 109.91402
103.1910 103.1703 86.0 0.01163 84.45788 110.76760
103.2080 103.1873 111.0 0.00900 84.46929 111.67973
103.2250 103.2043 114.0 0.00877 84.48073 112.65832
103.2410 103.2203 121.0 0.00826 84.49149 113.64357
103.2580 103.2373 107.0 0.00935 84.50291 114.76360
103.2750 103.2543 99.0 0.01010 84.51435 115.97026
103.2920 103.2713 120.0 0.00834 84.52578 117.26984
103.3080 103.2873 105.0 0.00952 84.53653 118.58656
103.3250 103.3043 98.0 0.01021 84.54797 120.10044
103.3420 103.3213 102.0 0.00980 84.55940 121.74402
103.3580 103.3373 135.0 0.00741 84.57014 123.42406
103.3750 103.3543 127.0 0.00787 84.58159 125.37494
103.3920 103.3713 133.0 0.00752 84.59301 127.51553
103.4090 103.3883 119.0 0.00840 84.60445 129.87991
103.4250 103.4043 132.0 0.00757 84.61521 132.33594
103.4420 103.4213 129.0 0.00775 84.62663 135.23041
103.4590 103.4383 160.0 0.00625 84.63808 138.46925
103.4750 103.4543 146.0 0.00685 84.64883 141.87498
103.4920 103.4713 116.0 0.00862 84.66025 145.93562
103.5090 103.4883 149.0 0.00671 84.67169 150.52934
103.5250 103.5043 148.0 0.00675 84.68245 155.40559
103.5420 103.5213 168.0 0.00595 84.69387 161.26648
103.5590 103.5383 172.0 0.00582 84.70531 167.94176
103.5760 103.5553 148.0 0.00675 84.71674 175.54048
103.5920 103.5713 194.0 0.00515 84.72749 183.65031
103.6090 103.5883 192.0 0.00521 84.73893 193.44768
103.6260 103.6053 192.0 0.00521 84.75037 204.59923
103.6430 103.6223 210.0 0.00476 84.76180 217.28197
103.6590 103.6383 215.0 0.00465 84.77255 230.77324
103.6760 103.6553 262.0 0.00382 84.77661 246.93826
103.6930 103.6723 242.0 0.00413 84.76633 265.14478
103.7090 103.6883 260.0 0.00385 84.75666 284.29428
103.7260 103.7053 304.0 0.003288 84.74639 306.91196
103.7430 103.7223 338.0 0.002960 84.73612 331.89981
103.7600 103.7393 357.0 0.002802 84.72584 359.32559
103.7760 103.7553 354.0 0.002826 84.71617 387.22992
103.7930 103.7723 384.0 0.002603 84.70590 418.87378
103.8100 103.7893 423.0 0.002363 84.69563 452.38510
103.8270 103.8063 466.0 0.002145 84.68535 487.31992
103.8430 103.8223 507.0 0.001972 84.67569 521.11243
103.8600 103.8393 501.0 0.001997 84.66541 557.66272
103.8770 103.8563 547.0 0.001828 84.65513 594.35217
103.8930 103.8723 566.0 0.001767 84.64547 628.54163
103.9100 103.8893 647.0 0.001545 84.63519 664.01447
103.9270 103.9063 666.0 0.001501 84.62492 697.76746
103.9440 103.9233 741.0 0.001350 84.61464 728.96124
103.9600 103.9393 767.0 0.001304 84.60497 754.98370
103.9770 103.9563 837.0 0.001195 84.59470 778.04364
103.9940 103.9733 798.0 0.001253 84.58442 795.27826
104.0100 103.9893 864.0 0.001158 84.57475 805.16473
104.0270 104.0063 813.0 0.001230 84.56448 808.06812
104.0440 104.0233 812.0 0.001231 84.55420 802.50537
104.0610 104.0403 788.0 0.001269 84.54392 788.27905
104.0770 104.0563 696.0 0.001437 84.53426 767.29657
104.0940 104.0733 665.0 0.001503 84.52398 737.70142
104.1110 104.0903 683.0 0.001465 84.51370 701.93134
104.1270 104.1063 656.0 0.001525 84.50404 664.08612
104.1440 104.1233 550.0 0.001819 84.49376 620.95319
104.1610 104.1403 530.0 0.001887 84.48349 576.49579
104.1780 104.1573 539.0 0.001855 84.47321 532.11572
104.1940 104.1733 469.0 0.002131 84.46355 491.46652
104.2110 104.1903 399.0 0.002508 84.45326 450.26294
104.2280 104.2073 402.0 0.002488 84.44299 411.71393
104.2440 104.2233 367.0 0.002724 84.43333 378.20761
104.2610 104.2403 361.0 0.002770 84.42304 345.71240
104.2780 104.2573 344.0 0.002906 84.41279 316.50662
104.2950 104.2743 334.0 0.002993 84.40250 290.44455
104.3110 104.2903 254.0 0.00394 84.39283 268.71182
104.3280 104.3073 270.0 0.00370 84.38257 248.41754
104.3450 104.3243 255.0 0.00392 84.37228 230.70912
104.3620 104.3413 230.0 0.00435 84.36201 215.37567
104.3780 104.3573 233.0 0.00429 84.35234 202.88048
104.3950 104.3743 221.0 0.00452 84.34206 191.38522
104.4120 104.3913 200.0 0.00500 84.33179 181.51245
104.4280 104.4073 192.0 0.00521 84.32213 173.50003
104.4450 104.4243 178.0 0.00562 84.31184 166.13026
104.4620 104.4413 167.0 0.00599 84.30157 159.78018
104.4790 104.4583 163.0 0.00613 84.29130 154.27527
104.4950 104.4743 175.0 0.00571 84.28162 149.75391
104.5120 104.4913 156.0 0.00641 84.27135 145.53519
104.5290 104.5083 151.0 0.00662 84.26107 141.81821
104.5450 104.5243 134.0 0.00746 84.25141 138.71220
104.5620 104.5413 131.0 0.00763 84.24114 135.76154
104.5790 104.5583 136.0 0.00736 84.23086 133.11290
104.5950 104.5743 140.0 0.00715 84.22119 130.86026
104.6120 104.5913 127.0 0.00787 84.21092 128.68443
104.6290 104.6083 117.0 0.00854 84.20064 126.70009
104.6460 104.6253 118.0 0.00848 84.19036 124.88571
104.6620 104.6413 118.0 0.00848 84.18070 123.31512
104.6790 104.6583 129.0 0.00775 84.17042 121.77152
104.6960 104.6753 102.0 0.00980 84.16014 120.34622
104.7130 104.6923 140.0 0.00715 84.14987 119.02608
104.7290 104.7083 132.0 0.00757 84.14020 117.87077
104.7460 104.7253 115.0 0.00870 84.12993 116.72642
104.7630 104.7423 120.0 0.00834 84.11965 115.66062
104.7790 104.7583 104.0 0.00961 84.10998 114.72346
104.7960 104.7753 120.0 0.00834 84.09971 113.79135
104.8130 104.7923 114.0 0.00877 84.08944 112.92085
104.8300 104.8093 116.0 0.00862 84.07916 112.10474
104.8460 104.8253 132.0 0.00757 84.06949 111.38412
104.8630 104.8423 114.0 0.00877 84.05922 110.66593
104.8800 104.8593 115.0 0.00870 84.04894 109.99094
104.8960 104.8753 109.0 0.00917 84.03927 109.39364
104.9130 104.8923 118.0 0.00848 84.02901 108.79715
104.9300 104.9093 103.0 0.00971 84.01872 108.23555
104.9470 104.9263 101.0 0.00990 84.00845 107.70774
104.9630 104.9423 113.0 0.00885 83.99879 107.24005
104.9800 104.9593 105.0 0.00952 83.98850 106.77084
104.9970 104.9763 98.0 0.01021 83.97823 106.32942
105.0130 104.9923 113.0 0.00885 83.96857 105.93797
105.0300 105.0093 97.0 0.01031 83.95829 105.54499
105.0470 105.0263 98.0 0.01021 83.94802 105.17536
105.0640 105.0433 98.0 0.01021 83.93774 104.82687
105.0800 105.0593 105.0 0.00952 83.92806 104.51779
105.0970 105.0763 107.0 0.00935 83.91780 104.20815
105.1140 105.0933 109.0 0.00917 83.90752 103.91635
105.1300 105.1093 96.0 0.01042 83.89785 103.65775
105.1470 105.1263 85.0 0.01176 83.88757 103.39892
105.1640 105.1433 119.0 0.00840 83.87730 103.15539
105.1810 105.1603 90.0 0.01111 83.86702 102.92677
105.1970 105.1763 106.0 0.00943 83.85736 102.72467
105.2140 105.1933 90.0 0.01111 83.84708 102.52265
105.2310 105.2103 93.0 0.01075 83.83681 102.33356
105.2480 105.2273 95.0 0.01053 83.82653 102.15672
105.2640 105.2433 81.0 0.01235 83.81686 102.00106
105.2810 105.2603 99.0 0.01010 83.80659 101.84682
105.2980 105.2773 122.0 0.00819 83.79631 101.70304
105.3140 105.2933 110.0 0.00909 83.78664 101.57722
105.3310 105.3103 123.0 0.00813 83.77637 101.45315
105.3480 105.3273 101.0 0.00990 83.76610 101.33878
105.3650 105.3443 114.0 0.00877 83.75582 101.23348
105.3810 105.3603 114.0 0.00877 83.74615 101.14365
105.3980 105.3773 104.0 0.00961 83.73589 101.05556
105.4150 105.3943 100.0 0.01000 83.72560 101.00346
105.4310 105.4103 110.0 0.00909 83.71593 100.93581
105.4480 105.4273 97.0 0.01031 83.70567 100.87163
105.4650 105.4443 94.0 0.01064 83.69538 100.81499
105.4820 105.4613 97.0 0.01031 83.68510 100.76581
105.4980 105.4773 90.0 0.01111 83.67545 100.72616
105.5150 105.4943 107.0 0.00935 83.66516 100.69083
105.5320 105.5113 100.0 0.01000 83.65489 100.66242
105.5490 105.5283 103.0 0.00971 83.64462 100.64076
105.5650 105.5443 108.0 0.00926 83.63494 100.62641
105.5820 105.5613 98.0 0.01021 83.62467 100.61747
105.5990 105.5783 121.0 0.00826 83.61440 100.61488
105.6150 105.5943 97.0 0.01031 83.60473 100.61818
105.6320 105.6113 80.0 0.01250 83.59446 100.62764
105.6490 105.6283 113.0 0.00885 83.58418 100.64321
105.6650 105.6443 101.0 0.00990 83.57451 100.66335
105.6820 105.6613 112.0 0.00893 83.56424 100.69052
105.6990 105.6783 84.0 0.01191 83.55396 100.72359
105.7160 105.6953 120.0 0.00834 83.54369 100.76248
105.7320 105.7113 104.0 0.00961 83.53402 100.80433
105.7490 105.7283 90.0 0.01111 83.52374 100.85444
105.7660 105.7453 103.0 0.00971 83.51346 100.91026
105.7830 105.7623 110.0 0.00909 83.50319 100.97180
105.7990 105.7783 108.0 0.00926 83.49352 101.03490
105.8160 105.7953 118.0 0.00848 83.48324 101.10747
105.8330 105.8123 109.0 0.00917 83.47297 101.18574
105.8490 105.8283 115.0 0.00870 83.46329 101.26459
105.8660 105.8453 102.0 0.00980 83.45303 101.35394
105.8830 105.8623 107.0 0.00935 83.44276 101.44891
105.9000 105.8793 109.0 0.00917 83.43248 101.54980
105.9160 105.8953 138.0 0.00724 83.42281 101.65002
105.9330 105.9123 106.0 0.00943 83.41254 101.76199
105.9500 105.9293 108.0 0.00926 83.40226 101.88010
105.9660 105.9453 122.0 0.00819 83.39259 101.99660
105.9830 105.9623 100.0 0.01000 83.38232 102.12605
106.0000 105.9793 102.0 0.00980 83.37204 102.26179
106.0170 105.9963 100.0 0.01000 83.36177 102.40357
106.0330 106.0123 91.0 0.01099 83.35210 102.54254
106.0500 106.0293 112.0 0.00893 83.34182 102.69655
106.0670 106.0463 148.0 0.00675 83.33155 102.85681
106.0840 106.0633 102.0 0.00980 83.32127 103.02370
106.1000 106.0793 102.0 0.00980 83.31161 103.18670
106.1170 106.0963 113.0 0.00885 83.30134 103.36634
106.1340 106.1133 108.0 0.00926 83.29105 103.55305
106.1500 106.1293 97.0 0.01031 83.28139 103.73497
106.1670 106.1463 110.0 0.00909 83.27112 103.93510
106.1840 106.1633 102.0 0.00980 83.26083 104.14275
106.2010 106.1803 111.0 0.00900 83.25056 104.35767
106.2170 106.1963 105.0 0.00952 83.24090 104.56665
106.2340 106.2133 92.0 0.01087 83.23061 104.79659
106.2510 106.2303 103.0 0.00971 83.22034 105.03429
106.2670 106.2463 113.0 0.00885 83.21068 105.26521
106.2840 106.2633 119.0 0.00840 83.20039 105.51902
106.3010 106.2803 106.0 0.00943 83.19012 105.78121
106.3180 106.2973 105.0 0.00952 83.17985 106.05215
106.3340 106.3133 101.0 0.00990 83.17017 106.31523
106.3510 106.3303 118.0 0.00848 83.15990 106.60385
106.3680 106.3473 103.0 0.00971 83.14963 106.90194
106.3840 106.3633 117.0 0.00854 83.13996 107.19131
106.4010 106.3803 102.0 0.00980 83.12968 107.50858
106.4180 106.3973 119.0 0.00840 83.11942 107.83582
106.4350 106.4143 120.0 0.00834 83.10914 108.17426
106.4510 106.4303 98.0 0.01021 83.09946 108.50273
106.4680 106.4473 114.0 0.00877 83.08920 108.91090
106.4850 106.4643 110.0 0.00909 83.07892 108.89204
106.5010 106.4803 111.0 0.00900 83.06924 109.25491
106.5180 106.4973 105.0 0.00952 83.05898 109.65195
106.5350 106.5143 110.0 0.00909 83.04870 110.06249
106.5520 106.5313 108.0 0.00926 83.03842 110.48608
106.5680 106.5473 135.0 0.00741 83.02876 110.89692
106.5850 106.5643 114.0 0.00877 83.01849 111.34787
106.6020 106.5813 123.0 0.00813 83.00822 111.81302
106.6190 106.5983 123.0 0.00813 82.99793 112.29393
106.6350 106.6143 118.0 0.00848 82.98826 112.76057
106.6520 106.6313 109.0 0.00917 82.97800 113.27214
106.6690 106.6483 101.0 0.00990 82.96771 113.80128
106.6850 106.6643 115.0 0.00870 82.95805 114.31494
106.7020 106.6813 108.0 0.00926 82.94777 114.87833
106.7190 106.6983 110.0 0.00909 82.93749 115.46137
106.7350 106.7143 100.0 0.01000 82.92783 116.02766
106.7520 106.7313 102.0 0.00980 82.91756 116.64912
106.7690 106.7483 108.0 0.00926 82.90727 117.29268
106.7860 106.7653 106.0 0.00943 82.89700 117.95815
106.8020 106.7813 113.0 0.00885 82.88734 118.60497
106.8190 106.7983 123.0 0.00813 82.87706 119.31676
106.8360 106.8153 114.0 0.00877 82.86678 120.05331
106.8530 106.8323 110.0 0.00909 82.85651 120.81614
106.8690 106.8483 111.0 0.00900 82.84684 121.55888
106.8860 106.8653 123.0 0.00813 82.83656 122.37608
106.9030 106.8823 119.0 0.00840 82.82629 123.22325
106.9190 106.8983 128.0 0.00782 82.81662 124.04880
106.9360 106.9153 120.0 0.00834 82.80634 124.95798
106.9530 106.9323 125.0 0.00800 82.79608 125.90027
106.9700 106.9493 106.0 0.00943 82.78580 126.88007
106.9860 106.9653 102.0 0.00980 82.77612 127.83625
107.0030 106.9823 141.0 0.00710 82.76586 128.88893
107.0200 106.9993 119.0 0.00840 82.75558 129.98473
107.0360 107.0153 117.0 0.00854 82.74590 131.05533
107.0530 107.0323 121.0 0.00826 82.73564 132.23538
107.0700 107.0493 109.0 0.00917 82.72536 133.46530
107.0870 107.0663 136.0 0.00736 82.71508 134.74487
107.1030 107.0823 93.0 0.01075 82.70542 135.99634
107.1200 107.0993 129.0 0.00775 82.69514 137.38228
107.1370 107.1163 139.0 0.00719 82.68487 138.82619
107.1530 107.1323 135.0 0.00741 82.67521 140.24042
107.1700 107.1493 116.0 0.00862 82.66492 141.80887
107.1870 107.1663 123.0 0.00813 82.65466 143.44456
107.2040 107.1833 135.0 0.00741 82.64437 145.15529
107.2200 107.1993 109.0 0.00917 82.63470 146.83450
107.2370 107.2163 125.0 0.00800 82.62444 148.69766
107.2540 107.2333 151.0 0.00662 82.61415 150.64970
107.2700 107.2493 133.0 0.00752 82.60448 152.56926
107.2870 107.2663 152.0 0.00658 82.59422 154.70296
107.3040 107.2833 160.0 0.00625 82.58394 156.94290
107.3210 107.3003 129.0 0.00775 82.57365 159.29195
107.3370 107.3163 141.0 0.00710 82.56400 161.60788
107.3540 107.3333 150.0 0.00666 82.55372 164.19392
107.3710 107.3503 166.0 0.00603 82.54344 166.91206
107.3880 107.3673 149.0 0.00671 82.53316 169.77296
107.4040 107.3833 155.0 0.00645 82.52349 172.60397
107.4210 107.4003 166.0 0.00603 82.51322 175.77148
107.4380 107.4173 153.0 0.00654 82.50294 179.11407
107.4540 107.4333 172.0 0.00582 82.49328 182.43054
107.4710 107.4503 195.0 0.00513 82.48300 186.15154
107.4880 107.4673 175.0 0.00571 82.47273 190.08545
107.5050 107.4843 188.0 0.00532 82.46246 194.26138
107.5210 107.5003 179.0 0.00559 82.45278 198.42291
107.5380 107.5173 189.0 0.00529 82.44252 203.10571
107.5550 107.5343 200.0 0.00500 82.43224 208.09686
107.5710 107.5503 192.0 0.00521 82.42256 213.09250
107.5880 107.5673 222.0 0.00450 82.41230 218.74113
107.6050 107.5843 232.0 0.00431 82.40202 224.79541
107.6220 107.6013 239.0 0.00418 82.39175 231.28542
107.6380 107.6173 213.0 0.00470 82.38208 237.83362
107.6550 107.6343 253.0 0.00395 82.37180 245.33337
107.6720 107.6513 248.0 0.00403 82.36153 253.44113
107.6890 107.6683 250.0 0.00400 82.35125 262.25989
107.7050 107.6843 251.0 0.00399 82.34158 271.28265
107.7220 107.7013 284.0 0.00352 82.33131 281.75647
107.7390 107.7183 300.0 0.003334 82.32103 293.29984
107.7550 107.7343 318.0 0.003146 82.31136 305.27005
107.7720 107.7513 304.0 0.003288 82.30109 319.35959
107.7890 107.7683 341.0 0.002931 82.29081 335.11209
107.8050 107.7843 351.0 0.002851 82.28114 351.67023
107.8220 107.8013 404.0 0.002475 82.27087 371.41153
107.8390 107.8183 383.0 0.002611 82.26059 393.74905
107.8560 107.8353 423.0 0.002363 82.25032 419.05487
107.8720 107.8513 457.0 0.002188 82.24065 445.97754
107.8890 107.8683 494.0 0.002024 82.23037 478.44214
107.9060 107.8853 537.0 0.001863 82.22010 515.36670
107.9230 107.9023 574.0 0.001742 82.20982 557.37445
107.9390 107.9183 620.0 0.001613 82.20016 602.11792
107.9560 107.9353 671.0 0.001491 82.18988 655.87128
107.9730 107.9523 766.0 0.001305 82.17960 716.69794
107.9890 107.9683 766.0 0.001305 82.16994 781.01495
108.0060 107.9853 884.0 0.001131 82.15966 857.56317
108.0230 108.0023 954.0 0.001048 82.14940 943.06555
108.0400 108.0193 1031.0 0.000970 82.13911 1038.31445
108.0560 108.0353 1110.0 0.000901 82.12944 1137.05188
108.0730 108.0523 1202.0 0.000832 82.11918 1251.64026
108.0900 108.0693 1287.0 0.000777 82.10890 1376.43372
108.1060 108.0853 1393.0 0.000718 82.09923 1502.52148
108.1230 108.1023 1587.0 0.000630 82.08896 1644.92615
108.1400 108.1193 1728.0 0.000579 82.07868 1794.20288
108.1570 108.1363 1914.0 0.000522 82.06840 1948.37231
108.1730 108.1523 1972.0 0.000507 82.05874 2095.70508
108.1900 108.1693 2118.0 0.000472 82.04845 2252.52563
108.2070 108.1863 2281.0 0.000438 82.03819 2406.70068
108.2240 108.2033 2389.0 0.000419 82.02791 2556.29297
108.2400 108.2193 2517.0 0.000397 82.01824 2690.86206
108.2570 108.2363 2601.0 0.000384 82.00797 2825.73560
108.2740 108.2533 2729.0 0.000366 81.99769 2950.84717
108.2900 108.2693 2995.0 0.0003338 81.98802 3057.93164
108.3070 108.2863 3168.0 0.0003157 81.97775 3158.78247
108.3240 108.3033 3134.0 0.0003191 81.96747 3244.67432
108.3410 108.3203 3305.0 0.0003026 81.95720 3313.71069
108.3570 108.3363 3368.0 0.0002970 81.94753 3361.75635
108.3740 108.3533 3470.0 0.0002882 81.93726 3393.12549
108.3910 108.3703 3545.0 0.0002821 81.92698 3401.92529
108.4070 108.3863 3463.0 0.0002887 81.91731 3387.38184
108.4240 108.4033 3562.0 0.0002808 81.90704 3345.33350
108.4410 108.4203 3407.0 0.0002935 81.89676 3274.38281
108.4580 108.4373 3115.0 0.0003211 81.88648 3174.47510
108.4740 108.4533 3035.0 0.0003295 81.87682 3055.77637
108.4910 108.4703 2865.0 0.0003490 81.86654 2907.05542
108.5080 108.4873 2678.0 0.000373 81.85626 2740.30640
108.5240 108.5033 2545.0 0.000393 81.84660 2572.33960
108.5410 108.5203 2291.0 0.000437 81.83632 2387.69873
108.5580 108.5373 2130.0 0.000470 81.82606 2202.20996
108.5750 108.5543 1955.0 0.000511 81.81577 2019.76282
108.5910 108.5703 1748.0 0.000572 81.80611 1854.23279
108.6080 108.5873 1635.0 0.000611 81.79584 1687.43726
108.6250 108.6043 1515.0 0.000660 81.78555 1531.07764
108.6410 108.6203 1353.0 0.000739 81.77588 1394.63623
108.6580 108.6373 1289.0 0.000776 81.76562 1261.60645
108.6750 108.6543 1176.0 0.000850 81.75533 1140.49866
108.6920 108.6713 1095.0 0.000913 81.74506 1031.34302
108.7080 108.6873 1017.0 0.000983 81.73540 939.10144
108.7250 108.7043 922.0 0.001085 81.72512 851.38220
108.7420 108.7213 851.0 0.001175 81.71485 773.75885
108.7590 108.7383 833.0 0.001201 81.70457 705.22211
108.7750 108.7543 810.0 0.001235 81.69490 648.38196
108.7920 108.7713 717.0 0.001394 81.68463 595.25696
108.8090 108.7883 667.0 0.001499 81.67435 548.73419
108.8250 108.8043 605.0 0.001652 81.66468 510.35495
108.8420 108.8213 581.0 0.001722 81.65441 474.57306
108.8590 108.8383 563.0 0.001776 81.64413 443.22534
108.8760 108.8553 477.0 0.002096 81.63385 415.75198
108.8920 108.8713 496.0 0.002016 81.62419 392.94531
108.9090 108.8883 448.0 0.002231 81.61391 371.43747
108.9260 108.9053 391.0 0.002559 81.60364 352.37686
108.9420 108.9213 382.0 0.002619 81.59397 336.35345
108.9590 108.9383 387.0 0.002585 81.58369 321.03146
108.9760 108.9553 367.0 0.002724 81.57342 307.24585
108.9930 108.9723 354.0 0.002826 81.56314 294.76987
109.0090 108.9883 333.0 0.003002 81.55347 284.06470
109.0260 109.0053 284.0 0.00352 81.54320 273.63968
109.0430 109.0223 311.0 0.003214 81.53292 264.07291
109.0590 109.0383 289.0 0.003460 81.52325 255.76071
109.0760 109.0553 263.0 0.00380 81.51298 247.57318
109.0930 109.0723 260.0 0.00385 81.50272 239.98801
109.1100 109.0893 276.0 0.00362 81.49243 232.92058
109.1260 109.1053 234.0 0.00427 81.48276 226.70790
109.1430 109.1223 225.0 0.00444 81.47250 220.53534
109.1600 109.1393 209.0 0.00478 81.46221 214.74579
109.1760 109.1553 238.0 0.00420 81.45255 210.04768
109.1930 109.1723 190.0 0.00527 81.44228 204.93733
109.2100 109.1893 214.0 0.00467 81.43200 200.12100
109.2270 109.2063 181.0 0.00553 81.42172 195.58618
109.2430 109.2223 177.0 0.00565 81.41206 191.55714
109.2600 109.2393 192.0 0.00521 81.40178 187.50122
109.2770 109.2563 196.0 0.00510 81.39150 183.66908
109.2930 109.2723 197.0 0.00507 81.38184 180.25351
109.3100 109.2893 185.0 0.00541 81.37156 176.80482
109.3270 109.3063 185.0 0.00541 81.36129 173.53860
109.3440 109.3233 175.0 0.00571 81.35101 170.43524
109.3600 109.3393 165.0 0.00606 81.34134 167.65924
109.3770 109.3563 142.0 0.00704 81.33107 164.85158
109.3940 109.3733 140.0 0.00715 81.32079 162.17722
109.4100 109.3893 167.0 0.00599 81.31112 159.77934
109.4270 109.4063 125.0 0.00800 81.30085 157.34865
109.4440 109.4233 158.0 0.00633 81.29057 155.02812
109.4610 109.4403 145.0 0.00690 81.28030 152.81494
109.4770 109.4563 135.0 0.00741 81.27064 150.82504
109.4940 109.4733 149.0 0.00671 81.26035 148.79883
109.5110 109.4903 151.0 0.00662 81.25008 146.86249
109.5280 109.5073 127.0 0.00787 81.23980 145.00981
109.5440 109.5233 155.0 0.00645 81.23013 143.33887
109.5610 109.5403 172.0 0.00582 81.21986 141.63530
109.5780 109.5573 122.0 0.00819 81.20958 140.00241
109.5940 109.5733 146.0 0.00685 81.19991 138.52719
109.6110 109.5903 126.0 0.00794 81.18964 137.02066
109.6280 109.6073 149.0 0.00671 81.17937 135.57591
109.6450 109.6243 146.0 0.00685 81.16910 134.18565
109.6610 109.6403 105.0 0.00952 81.15942 132.92700
109.6780 109.6573 127.0 0.00787 81.14915 131.64136
109.6950 109.6743 120.0 0.00834 81.13888 130.40234
109.7110 109.6903 128.0 0.00782 81.12920 129.27908
109.7280 109.7073 126.0 0.00794 81.11893 128.13017
109.7450 109.7243 117.0 0.00854 81.10865 127.02141
109.7620 109.7413 113.0 0.00885 81.09838 125.95338
109.7780 109.7573 114.0 0.00877 81.08872 124.98409
109.7950 109.7743 112.0 0.00893 81.07844 123.98804
109.8120 109.7913 136.0 0.00736 81.06817 123.02796
109.8290 109.8083 136.0 0.00736 81.05788 122.10007
109.8450 109.8243 109.0 0.00917 81.04822 121.25658
109.8620 109.8413 118.0 0.00848 81.03795 120.39005
109.8790 109.8583 133.0 0.00752 81.02766 119.55157
109.8950 109.8743 107.0 0.00935 81.01800 118.78860
109.9120 109.8913 118.0 0.00848 81.00773 118.00396
109.9290 109.9083 120.0 0.00834 80.99745 117.24394
109.9450 109.9243 118.0 0.00848 80.98778 116.55168
109.9620 109.9413 119.0 0.00840 80.97751 115.83904
109.9790 109.9583 97.0 0.01031 80.96723 115.14812
109.9960 109.9753 115.0 0.00870 80.95695 114.47922
110.0120 109.9913 120.0 0.00834 80.94729 113.86918
110.0290 110.0083 112.0 0.00893 80.93701 113.23937
110.0460 110.0253 100.0 0.01000 80.92673 112.62908
110.0630 110.0423 108.0 0.00926 80.91646 112.03719
110.0790 110.0583 110.0 0.00909 80.90679 111.49651
110.0960 110.0753 106.0 0.00943 80.89651 110.93835
110.1130 110.0923 108.0 0.00926 80.88624 110.39661
110.1290 110.1083 105.0 0.00952 80.87657 109.90134
110.1460 110.1253 120.0 0.00834 80.86630 109.38969
110.1630 110.1423 121.0 0.00826 80.85603 108.89330
110.1800 110.1593 108.0 0.00926 80.84575 108.41022
110.1960 110.1753 110.0 0.00909 80.83607 107.96817
110.2130 110.1923 114.0 0.00877 80.82581 107.51192
110.2300 110.2093 106.0 0.00943 80.81553 107.06761
110.2460 110.2253 105.0 0.00952 80.80586 106.66080
110.2630 110.2423 86.0 0.01163 80.79560 106.24068
110.2800 110.2593 108.0 0.00926 80.78532 105.83131
110.2970 110.2763 100.0 0.01000 80.77504 105.43326
110.3130 110.2923 118.0 0.00848 80.76538 105.06879
110.3300 110.3093 93.0 0.01075 80.75510 104.69101
110.3470 110.3263 95.0 0.01053 80.74483 104.32372
110.3640 110.3433 105.0 0.00952 80.73454 103.96575
110.3800 110.3593 96.0 0.01042 80.72488 103.63779
110.3970 110.3763 82.0 0.01220 80.71461 103.29823
110.4140 110.3933 91.0 0.01099 80.70433 102.96716
110.4300 110.4093 112.0 0.00893 80.69466 102.66371
110.4470 110.4263 115.0 0.00870 80.68439 102.34947
110.4640 110.4433 107.0 0.00935 80.67411 102.04295
110.4810 110.4603 106.0 0.00943 80.66383 101.74452
110.4970 110.4763 82.0 0.01220 80.65417 101.47086
110.5140 110.4933 105.0 0.00952 80.64388 101.18688
110.5310 110.5103 98.0 0.01021 80.63361 100.91029
110.5470 110.5263 124.0 0.00806 80.62395 100.65665
110.5640 110.5433 88.0 0.01136 80.61367 100.39338
110.5810 110.5603 97.0 0.01031 80.60339 100.13697
110.5980 110.5773 95.0 0.01053 80.59312 100.32738
110.6140 110.5933 96.0 0.01042 80.58345 100.10007
110.6310 110.6103 115.0 0.00870 80.57317 99.86449
110.6480 110.6273 105.0 0.00952 80.56290 99.63497
110.6640 110.6433 101.0 0.00990 80.55323 99.42444
110.6810 110.6603 87.0 0.01150 80.54295 99.20628
110.6980 110.6773 104.0 0.00961 80.53269 98.99404
110.7150 110.6943 86.0 0.01163 80.52242 98.78696
110.7310 110.7103 108.0 0.00926 80.51274 98.59708
110.7480 110.7273 91.0 0.01099 80.50247 98.40080
110.7650 110.7443 100.0 0.01000 80.49220 98.14861
110.7810 110.7603 107.0 0.00935 80.48252 97.97348
110.7980 110.7773 99.0 0.01010 80.47225 97.79255
110.8150 110.7943 98.0 0.01021 80.46198 97.61628
110.8320 110.8113 95.0 0.01053 80.45170 97.44499
110.8480 110.8273 103.0 0.00971 80.44203 97.28832
110.8650 110.8443 88.0 0.01136 80.43176 97.12620
110.8820 110.8613 110.0 0.00909 80.42149 96.96900
110.8990 110.8783 94.0 0.01064 80.41120 96.81626
110.9150 110.8943 112.0 0.00893 80.40154 96.67686
110.9320 110.9113 100.0 0.01000 80.39127 96.53323
110.9490 110.9283 110.0 0.00909 80.38098 96.39404
110.9650 110.9443 95.0 0.01053 80.37132 96.26725
110.9820 110.9613 87.0 0.01150 80.36105 96.13700
110.9990 110.9783 108.0 0.00926 80.35077 96.01114
111.0160 110.9953 93.0 0.01075 80.34049 95.65527
111.0320 111.0113 95.0 0.01053 80.33083 95.54659
111.0490 111.0283 101.0 0.00990 80.32055 95.43550
111.0660 111.0453 98.0 0.01021 80.31027 95.32919
111.0820 111.0613 100.0 0.01000 80.30061 95.23367
111.0990 111.0783 88.0 0.01136 80.29033 95.13687
111.1160 111.0953 107.0 0.00935 80.28005 95.04528
111.1330 111.1123 94.0 0.01064 80.26978 94.95908
111.1490 111.1283 75.0 0.01333 80.26011 94.88310
111.1660 111.1453 90.0 0.01111 80.24983 94.80821
111.1830 111.1623 109.0 0.00917 80.23956 94.73971
111.1990 111.1783 100.0 0.01000 80.22989 94.68156
111.2160 111.1953 112.0 0.00893 80.21962 94.62706
111.2330 111.2123 90.0 0.01111 80.20935 94.58082
111.2500 111.2293 93.0 0.01075 80.19907 94.54356
111.2660 111.2453 113.0 0.00885 80.18940 94.51771
111.2830 111.2623 87.0 0.01150 80.17913 94.50113
111.3000 111.2793 105.0 0.00952 80.16885 94.49697
111.3160 111.2953 95.0 0.01053 80.15918 94.50577
111.3330 111.3123 107.0 0.00935 80.14892 94.53008
111.3500 111.3293 106.0 0.00943 80.13863 94.57159
111.3670 111.3463 96.0 0.01042 80.12836 94.63208
111.3830 111.3623 92.0 0.01087 80.11870 94.70802
111.4000 111.3793 106.0 0.00943 80.10841 94.81089
111.4170 111.3963 97.0 0.01031 80.09814 94.93826
111.4340 111.4133 103.0 0.00971 80.08786 95.09212
111.4500 111.4293 94.0 0.01064 80.07819 95.26222
111.4670 111.4463 102.0 0.00980 80.06792 95.47106
111.4840 111.4633 109.0 0.00917 80.05765 95.70991
111.5000 111.4793 110.0 0.00909 80.04797 95.96178
111.5170 111.4963 97.0 0.01031 80.03770 96.25777
111.5340 111.5133 111.0 0.00900 80.02743 96.58199
111.5500 111.5293 90.0 0.01111 80.01775 96.91006
111.5670 111.5463 106.0 0.00943 80.00748 97.27984
111.5840 111.5633 110.0 0.00909 79.99721 97.66739
111.6010 111.5803 96.0 0.01042 79.98693 98.06612
111.6170 111.5963 96.0 0.01042 79.97727 98.44525
111.6340 111.6133 109.0 0.00917 79.96699 98.84534
111.6510 111.6303 87.0 0.01150 79.95671 99.23269
111.6680 111.6473 97.0 0.01031 79.94643 99.59728
111.6840 111.6633 81.0 0.01235 79.93677 99.90990
111.7010 111.6803 114.0 0.00877 79.92649 100.19963
111.7180 111.6973 120.0 0.00834 79.91621 100.43576
111.7340 111.7133 113.0 0.00885 79.90656 100.60146
111.7510 111.7303 106.0 0.00943 79.89627 100.71136
111.7680 111.7473 107.0 0.00935 79.88601 100.74903
111.7850 111.7643 93.0 0.01075 79.87572 100.71297
111.8010 111.7803 101.0 0.00990 79.86606 100.61289
111.8180 111.7973 94.0 0.01064 79.85580 100.44096
111.8350 111.8143 78.0 0.01282 79.84551 100.20853
111.8510 111.8303 112.0 0.00893 79.83584 99.94433
111.8680 111.8473 106.0 0.00943 79.82558 99.62772
111.8850 111.8643 87.0 0.01150 79.81529 99.28627
111.9020 111.8813 101.0 0.00990 79.80502 98.93393
111.9180 111.8973 105.0 0.00952 79.79535 98.60331
111.9350 111.9143 94.0 0.01064 79.78507 98.26205
111.9520 111.9313 91.0 0.01099 79.77480 97.94040
111.9690 111.9483 96.0 0.01042 79.76453 97.64423
111.9850 111.9643 100.0 0.01000 79.75485 97.39374
112.0020 111.9813 90.0 0.01111 79.74458 97.16074
112.0190 111.9983 81.0 0.01235 79.73431 96.96394
112.0350 112.0143 92.0 0.01087 79.72463 96.81354
112.0520 112.0313 111.0 0.00900 79.71436 96.69141
112.0690 112.0483 100.0 0.01000 79.70409 96.60843
112.0850 112.0643 97.0 0.01031 79.69442 96.56643
112.1020 112.0813 95.0 0.01053 79.68415 96.56013
112.1190 112.0983 92.0 0.01087 79.67387 96.59339
112.1360 112.1153 98.0 0.01021 79.66359 96.66638
112.1520 112.1313 128.0 0.00782 79.65393 96.77165
112.1690 112.1483 89.0 0.01124 79.64365 96.92338
112.1860 112.1653 95.0 0.01053 79.63337 97.11716
112.2030 112.1823 96.0 0.01042 79.62309 97.35507
112.2190 112.1983 117.0 0.00854 79.61343 97.62157
112.2360 112.2153 116.0 0.00862 79.60315 97.95380
112.2530 112.2323 109.0 0.00917 79.59288 98.34143
112.2690 112.2483 99.0 0.01010 79.58321 98.76249
112.2860 112.2653 99.0 0.01010 79.57294 99.27785
112.3030 112.2823 96.0 0.01042 79.56267 99.87255
112.3200 112.2993 136.0 0.00736 79.55239 100.56130
112.3360 112.3153 109.0 0.00917 79.54272 101.30834
112.3530 112.3323 125.0 0.00800 79.53245 102.22585
112.3700 112.3493 122.0 0.00819 79.52217 103.29141
112.3860 112.3653 101.0 0.00990 79.51250 104.45273
112.4030 112.3823 111.0 0.00900 79.50224 105.88168
112.4200 112.3993 100.0 0.01000 79.49195 107.54729
112.4370 112.4163 117.0 0.00854 79.48167 109.48289
112.4530 112.4323 126.0 0.00794 79.47202 111.58482
112.4700 112.4493 104.0 0.00961 79.46173 114.16055
112.4870 112.4663 115.0 0.00870 79.45146 117.12323
112.5040 112.4833 134.0 0.00746 79.44118 120.52090
112.5200 112.4993 140.0 0.00715 79.43152 124.14477
112.5370 112.5163 131.0 0.00763 79.42458 128.48645
112.5540 112.5333 127.0 0.00787 79.45453 133.40265
112.5700 112.5493 126.0 0.00794 79.48270 138.52986
112.5870 112.5663 144.0 0.00694 79.51262 144.52043
112.6040 112.5833 146.0 0.00685 79.54258 151.07397
112.6210 112.6003 130.0 0.00769 79.57251 158.15636
112.6370 112.6163 196.0 0.00510 79.60067 165.26047
112.6540 112.6333 185.0 0.00541 79.63063 173.22438
112.6710 112.6503 181.0 0.00553 79.66056 181.49608
112.6870 112.6663 232.0 0.00431 79.68871 189.42961
112.7040 112.6833 202.0 0.00495 79.71867 197.85945
112.7210 112.7003 215.0 0.00465 79.74861 206.04395
112.7380 112.7173 219.0 0.00457 79.77854 213.71782
112.7540 112.7333 260.0 0.00385 79.80672 220.21021
112.7710 112.7503 242.0 0.00413 79.83665 226.06538
112.7880 112.7673 271.0 0.00369 79.86659 230.60271
112.8040 112.7833 268.0 0.00373 79.89475 233.51384
112.8210 112.8003 267.0 0.00375 79.92470 235.09015
112.8380 112.8173 263.0 0.00380 79.95461 235.11864
112.8550 112.8343 250.0 0.00400 79.98456 233.68913
112.8710 112.8503 250.0 0.00400 80.01273 231.13474
112.8880 112.8673 246.0 0.00407 80.04264 227.29128
112.9050 112.8843 223.0 0.00449 80.07260 222.42723
112.9210 112.9003 229.0 0.00437 80.10078 217.06465
112.9380 112.9173 221.0 0.00452 80.13069 210.69119
112.9550 112.9343 238.0 0.00420 80.16064 203.76044
112.9720 112.9513 187.0 0.00535 80.19058 196.45593
112.9880 112.9673 209.0 0.00478 80.21873 189.39561
113.0050 112.9843 183.0 0.00546 80.24869 181.83388
113.0220 113.0013 173.0 0.00578 80.27862 174.37653
113.0390 113.0183 182.0 0.00550 80.30856 167.13283
113.0550 113.0343 165.0 0.00606 80.33673 160.61414
113.0720 113.0513 177.0 0.00565 80.36665 154.06982
113.0890 113.0683 149.0 0.00671 80.39661 147.95776
113.1050 113.0843 151.0 0.00662 80.42478 142.63600
113.1220 113.1013 145.0 0.00690 80.45470 137.44307
113.1390 113.1183 164.0 0.00609 80.48466 132.71428
113.1560 113.1353 136.0 0.00736 80.51460 128.44293
113.1720 113.1513 143.0 0.00699 80.54274 124.82133
113.1890 113.1683 114.0 0.00877 80.57270 121.36147
113.2060 113.1853 140.0 0.00715 80.60265 118.28004
113.2220 113.2013 116.0 0.00862 80.63079 115.69783
113.2390 113.2183 129.0 0.00775 80.66074 113.25552
113.2560 113.2353 107.0 0.00935 80.69068 111.09900
113.2730 113.2523 123.0 0.00813 80.72063 109.19724
113.2890 113.2683 106.0 0.00943 80.74879 107.61555
113.3060 113.2853 115.0 0.00870 80.77873 106.13029
113.3230 113.3023 93.0 0.01075 80.80866 104.82343
113.3390 113.3183 118.0 0.00848 80.83683 103.73728
113.3560 113.3353 125.0 0.00800 80.86677 102.71643
113.3730 113.3523 107.0 0.00935 80.89667 101.81697
113.3900 113.3693 119.0 0.00840 80.92663 101.02078
113.4060 113.3853 105.0 0.00952 80.95482 100.35506
113.4230 113.4023 105.0 0.00952 80.98472 99.72567
113.4400 113.4193 112.0 0.00893 81.01468 99.16429
113.4560 113.4353 88.0 0.01136 81.04286 98.69219
113.4730 113.4523 109.0 0.00917 81.07277 98.24086
113.4900 113.4693 104.0 0.00961 81.10271 97.83459
113.5070 113.4863 97.0 0.01031 81.13266 97.46865
113.5230 113.5023 96.0 0.01042 81.16080 97.15673
113.5400 113.5193 93.0 0.01075 81.19077 96.85508
113.5570 113.5363 97.0 0.01031 81.22069 96.58145
113.5740 113.5533 95.0 0.01053 81.25064 96.33244
113.5900 113.5693 120.0 0.00834 81.27880 96.11833
113.6070 113.5863 107.0 0.00935 81.30873 96.00006
113.6240 113.6033 106.0 0.00943 81.33868 95.81035
113.6400 113.6193 103.0 0.00971 81.36685 95.64713
113.6570 113.6363 92.0 0.01087 81.39677 95.48849
113.6740 113.6533 112.0 0.00893 81.42673 95.34367
113.6900 113.6693 99.0 0.01010 81.45490 95.21934
113.7070 113.6863 89.0 0.01124 81.48482 95.09888
113.7240 113.7033 98.0 0.01021 81.51478 94.98949
113.7410 113.7203 107.0 0.00935 81.54471 94.89055
113.7570 113.7363 96.0 0.01042 81.57286 94.80644
113.7740 113.7533 104.0 0.00961 81.60281 94.72580
113.7910 113.7703 110.0 0.00909 81.63276 94.65382
113.8080 113.7873 95.0 0.01053 81.66270 94.58990
113.8240 113.8033 90.0 0.01111 81.69086 94.53678
113.8410 113.8203 100.0 0.01000 81.72079 94.48729
113.8580 113.8373 106.0 0.00943 81.75074 94.44468
113.8740 113.8533 112.0 0.00893 81.77890 94.41051
113.8910 113.8703 130.0 0.00769 81.80885 94.38018
113.9080 113.8873 93.0 0.01075 81.83878 94.35576
113.9240 113.9033 96.0 0.01042 81.86695 94.33790
113.9410 113.9203 89.0 0.01124 81.89690 94.32413
113.9580 113.9373 81.0 0.01235 81.92679 94.31546
113.9750 113.9543 93.0 0.01075 81.95675 94.31171
113.9910 113.9703 108.0 0.00926 81.98493 94.31252
114.0080 113.9873 93.0 0.01075 82.01484 94.41513
114.0250 114.0043 108.0 0.00926 82.04480 94.42516
114.0420 114.0213 110.0 0.00909 82.07473 94.43938
114.0580 114.0373 99.0 0.01010 82.10289 94.45647
114.0750 114.0543 90.0 0.01111 82.13284 94.47850
114.0920 114.0713 94.0 0.01064 82.16277 94.50433
114.1090 114.0883 107.0 0.00935 82.19271 94.53388
114.1250 114.1043 89.0 0.01124 82.22089 94.56495
114.1420 114.1213 103.0 0.00971 82.25080 94.60134
114.1590 114.1383 115.0 0.00870 82.28076 94.64121
114.1750 114.1543 102.0 0.00980 82.30894 94.68175
114.1920 114.1713 109.0 0.00917 82.33885 94.72797
114.2090 114.1883 80.0 0.01250 82.36881 94.87179
114.2250 114.2043 104.0 0.00961 82.39697 94.92155
114.2420 114.2213 91.0 0.01099 82.42689 94.97741
114.2590 114.2383 95.0 0.01053 82.45685 95.03636
114.2760 114.2553 96.0 0.01042 82.48679 95.09828
114.2920 114.2713 99.0 0.01010 82.51494 95.15916
114.3090 114.2883 109.0 0.00917 82.54490 95.22681
114.3260 114.3053 104.0 0.00961 82.57483 95.29728
114.3430 114.3223 93.0 0.01075 82.60477 95.37065
114.3590 114.3383 80.0 0.01250 82.63293 95.44223
114.3760 114.3553 97.0 0.01031 82.66288 95.52103
114.3930 114.3723 109.0 0.00917 82.69281 95.60262
114.4090 114.3883 97.0 0.01031 82.72099 95.68195
114.4260 114.4053 87.0 0.01150 82.75092 95.76895
114.4430 114.4223 96.0 0.01042 82.78082 95.85859
114.4600 114.4393 82.0 0.01220 82.81078 95.95122
114.4760 114.4553 114.0 0.00877 82.83897 96.04081
114.4930 114.4723 103.0 0.00971 82.86887 96.13858
114.5100 114.4893 100.0 0.01000 82.89883 96.23933
114.5260 114.5053 96.0 0.01042 82.92702 96.33663
114.5430 114.5223 105.0 0.00952 82.95692 96.44257
114.5600 114.5393 92.0 0.01087 82.98687 96.55153
114.5770 114.5563 101.0 0.00990 83.01682 96.66322
114.5930 114.5723 91.0 0.01099 83.04496 96.77087
114.6100 114.5893 98.0 0.01021 83.07491 96.88815
114.6270 114.6063 90.0 0.01111 83.10484 97.00824
114.6440 114.6233 107.0 0.00935 83.13480 97.13137
114.6600 114.6393 103.0 0.00971 83.16296 97.24987
114.6770 114.6563 85.0 0.01176 83.19289 97.37858
114.6940 114.6733 106.0 0.00943 83.22283 97.51047
114.7100 114.6893 101.0 0.00990 83.25100 97.63727
114.7270 114.7063 104.0 0.00961 83.28092 97.77495
114.7440 114.7233 89.0 0.01124 83.31088 97.91598
114.7600 114.7393 86.0 0.01163 83.33905 98.05148
114.7770 114.7563 93.0 0.01075 83.36897 98.19855
114.7940 114.7733 103.0 0.00971 83.39893 98.34902
114.8110 114.7903 91.0 0.01099 83.42886 98.50278
114.8270 114.8063 93.0 0.01075 83.45702 98.65044
114.8440 114.8233 96.0 0.01042 83.48697 98.81093
114.8610 114.8403 115.0 0.00870 83.51691 98.97484
114.8780 114.8573 96.0 0.01042 83.54684 99.14230
114.8940 114.8733 90.0 0.01111 83.57502 99.30322
114.9110 114.8903 87.0 0.01150 83.60495 99.47783
114.9280 114.9073 112.0 0.00893 83.63490 99.65626
114.9440 114.9233 100.0 0.01000 83.66306 99.82767
114.9610 114.9403 82.0 0.01220 83.69300 100.01365
114.9780 114.9573 100.0 0.01000 83.72290 100.20348
114.9950 114.9743 118.0 0.00848 83.75286 100.39774
115.0110 114.9903 110.0 0.00909 83.78105 100.58439
115.0280 115.0073 102.0 0.00980 83.81094 100.78660
115.0450 115.0243 103.0 0.00971 83.84090 100.99355
115.0610 115.0403 99.0 0.01010 83.86909 101.19240
115.0780 115.0573 114.0 0.00877 83.89899 101.40791
115.0950 115.0743 97.0 0.01031 83.92895 101.62849
115.1120 115.0913 86.0 0.01163 83.95888 101.85380
115.1280 115.1073 116.0 0.00862 83.98704 102.07021
115.1450 115.1243 111.0 0.00900 84.01698 102.30538
115.1620 115.1413 102.0 0.00980 84.04692 102.54563
115.1790 115.1583 124.0 0.00806 84.07687 102.79145
115.1950 115.1743 93.0 0.01075 84.10503 103.02769
115.2120 115.1913 99.0 0.01010 84.13496 103.28409
115.2290 115.2083 81.0 0.01235 84.16491 103.54664
115.2450 115.2243 99.0 0.01010 84.19308 103.79898
115.2620 115.2413 115.0 0.00870 84.22300 104.07298
115.2790 115.2583 109.0 0.00917 84.25296 104.35361
115.2960 115.2753 99.0 0.01010 84.28290 104.64059
115.3120 115.2913 98.0 0.01021 84.31104 104.91657
115.3290 115.3083 117.0 0.00854 84.34100 105.21693
115.3460 115.3253 107.0 0.00935 84.37094 105.52423
115.3620 115.3413 106.0 0.00943 84.39909 105.81980
115.3790 115.3583 93.0 0.01075 84.42905 106.14169
115.3960 115.3753 102.0 0.00980 84.45898 106.47113
115.4130 115.3923 88.0 0.01136 84.48893 106.80859
115.4290 115.4083 93.0 0.01075 84.51708 107.13361
115.4460 115.4253 122.0 0.00819 84.54703 107.48738
115.4630 115.4423 87.0 0.01150 84.57697 107.84989
115.4790 115.4583 91.0 0.01099 84.60513 108.19927
115.4960 115.4753 93.0 0.01075 84.63506 108.57972
115.5130 115.4923 110.0 0.00909 84.66497 108.96939
115.5300 115.5093 102.0 0.00980 84.69493 109.36976
115.5460 115.5253 98.0 0.01021 84.72311 109.75592
115.5630 115.5423 97.0 0.01031 84.75302 110.17600
115.5800 115.5593 109.0 0.00917 84.78298 110.60790
115.5960 115.5753 103.0 0.00971 84.81116 111.02473
115.6130 115.5923 96.0 0.01042 84.84107 111.47848
115.6300 115.6093 118.0 0.00848 84.87102 111.94530
115.6470 115.6263 79.0 0.01266 84.90096 112.42460
115.6630 115.6423 115.0 0.00870 84.92911 112.88729
115.6800 115.6593 97.0 0.01031 84.95907 113.39294
115.6970 115.6763 115.0 0.00870 84.98900 113.91250
115.7130 115.6923 108.0 0.00926 85.01716 114.41442
115.7300 115.7093 122.0 0.00819 85.04712 114.96340
115.7470 115.7263 102.0 0.00980 85.07703 115.52760
115.7640 115.7433 108.0 0.00926 85.10699 116.10890
115.7800 115.7593 113.0 0.00885 85.13515 116.67113
115.7970 115.7763 108.0 0.00926 85.16507 117.28565
115.8140 115.7933 125.0 0.00800 85.19503 117.91937
115.8300 115.8093 102.0 0.00980 85.22321 118.53287
115.8470 115.8263 122.0 0.00819 85.25312 119.20400
115.8640 115.8433 105.0 0.00952 85.28308 119.89676
115.8810 115.8603 101.0 0.00990 85.31301 120.61089
115.8970 115.8763 112.0 0.00893 85.34117 121.30302
115.9140 115.8933 107.0 0.00935 85.37112 122.06252
115.9310 115.9103 100.0 0.01000 85.40106 122.84622
115.9480 115.9273 112.0 0.00893 85.43099 123.65565
115.9640 115.9433 148.0 0.00675 85.45917 124.44175
115.9810 115.9603 109.0 0.00917 85.48910 125.30448
115.9980 115.9773 126.0 0.00794 85.51904 126.19662
116.0140 115.9933 108.0 0.00926 85.54722 127.06393
116.0310 116.0103 138.0 0.00724 85.57715 128.01694
116.0480 116.0273 118.0 0.00848 85.60708 129.00352
116.0640 116.0433 103.0 0.00971 85.63525 129.96393
116.0810 116.0603 100.0 0.01000 85.66520 131.02040
116.0980 116.0773 131.0 0.00763 85.69511 132.11426
116.1150 116.0943 104.0 0.00961 85.72505 133.25058
116.1310 116.1103 128.0 0.00782 85.75323 134.35863
116.1480 116.1273 92.0 0.01087 85.78314 135.57767
116.1650 116.1443 137.0 0.00731 85.81310 136.84579
116.1820 116.1613 129.0 0.00775 85.84303 138.16270
116.1980 116.1773 114.0 0.00877 85.87119 139.44843
116.2150 116.1943 121.0 0.00826 85.90114 140.86980
116.2320 116.2113 127.0 0.00787 85.93108 142.34819
116.2480 116.2273 136.0 0.00736 85.95923 143.79376
116.2650 116.2443 142.0 0.00704 85.98919 145.39444
116.2820 116.2613 147.0 0.00681 86.01910 147.06111
116.2990 116.2783 125.0 0.00800 86.04906 148.80148
116.3150 116.2943 133.0 0.00752 86.07723 150.50728
116.3320 116.3113 136.0 0.00736 86.10715 152.39717
116.3490 116.3283 167.0 0.00599 86.13712 154.37436
116.3650 116.3443 150.0 0.00666 86.16527 156.31589
116.3820 116.3613 127.0 0.00787 86.19519 158.47119
116.3990 116.3783 138.0 0.00724 86.22515 160.73073
116.4160 116.3953 147.0 0.00681 86.25510 163.09738
116.4320 116.4113 149.0 0.00671 86.28324 165.42784
116.4490 116.4283 145.0 0.00690 86.31320 168.02724
116.4660 116.4453 159.0 0.00629 86.34313 170.75658
116.4830 116.4623 175.0 0.00571 86.37308 173.62671
116.4990 116.4783 165.0 0.00606 86.40124 176.46484
116.5160 116.4953 155.0 0.00645 86.43118 179.63878
116.5330 116.5123 176.0 0.00568 86.46111 182.98743
116.5490 116.5283 151.0 0.00662 86.48929 186.31024
116.5660 116.5453 177.0 0.00565 86.51923 190.04050
116.5830 116.5623 202.0 0.00495 86.54913 193.98862
116.6000 116.5793 200.0 0.00500 86.57908 196.95613
116.6160 116.5953 177.0 0.00565 86.60727 201.15544
116.6330 116.6123 174.0 0.00575 86.63718 205.89633
116.6500 116.6293 206.0 0.00486 86.66713 210.97177
116.6660 116.6453 190.0 0.00527 86.69532 216.07910
116.6830 116.6623 227.0 0.00440 86.72522 221.89180
116.7000 116.6793 217.0 0.00461 86.75517 228.17145
116.7170 116.6963 250.0 0.00400 86.78511 234.96446
116.7330 116.7123 228.0 0.00439 86.81326 241.88583
116.7500 116.7293 261.0 0.00383 86.84322 249.89732
116.7670 116.7463 284.0 0.00352 86.87315 258.66263
116.7830 116.7623 257.0 0.00389 86.90131 267.69299
116.8000 116.7793 286.0 0.003497 86.93127 278.26071
116.8170 116.7963 300.0 0.003334 86.96119 289.94125
116.8340 116.8133 304.0 0.003288 86.99114 302.92160
116.8500 116.8293 313.0 0.003196 87.01930 316.46167
116.8670 116.8463 334.0 0.002993 87.04922 332.45087
116.8840 116.8633 340.0 0.002941 87.07919 350.33011
116.9000 116.8793 373.0 0.002682 87.10735 369.06305
116.9170 116.8963 368.0 0.002718 87.13728 391.24509
116.9340 116.9133 405.0 0.002470 87.16723 416.07526
116.9510 116.9303 437.0 0.002289 87.19717 443.79947
116.9670 116.9463 489.0 0.002046 87.22532 472.78561
116.9840 116.9633 499.0 0.002004 87.25526 507.02676
117.0010 116.9803 507.0 0.001972 87.28522 545.04706
117.0180 116.9973 590.0 0.001695 87.31515 587.16815
117.0340 117.0133 643.0 0.001555 87.34332 630.80341
117.0510 117.0303 646.0 0.001548 87.37325 681.70020
117.0680 117.0473 686.0 0.001458 87.40320 737.49103
117.0840 117.0633 771.0 0.001297 87.43137 794.62872
117.1010 117.0803 858.0 0.001166 87.46130 860.43146
117.1180 117.0973 886.0 0.001128 87.49120 931.43188
117.1350 117.1143 964.0 0.001037 87.52116 1007.78424
117.1510 117.1303 1014.0 0.000986 87.54935 1084.22485
117.1680 117.1473 1100.0 0.000909 87.57925 1169.85010
117.1850 117.1643 1142.0 0.000876 87.60920 1259.70813
117.2010 117.1803 1199.0 0.000834 87.63738 1347.23743
117.2180 117.1973 1354.0 0.000738 87.66729 1442.23254
117.2350 117.2143 1442.0 0.000694 87.69725 1538.28113
117.2520 117.2313 1528.0 0.000654 87.72718 1633.65735
117.2680 117.2473 1562.0 0.000640 87.75534 1721.36719
117.2850 117.2643 1652.0 0.000605 87.78530 1811.18921
117.3020 117.2813 1694.0 0.000590 87.81523 1896.11914
117.3180 117.2973 1751.0 0.000571 87.84338 1970.77478
117.3350 117.3143 1858.0 0.000538 87.87334 2044.25073
117.3520 117.3313 2010.0 0.000498 87.90325 2111.42798
117.3690 117.3483 1986.0 0.000504 87.93321 2172.62256
117.3850 117.3643 2135.0 0.000468 87.96139 2224.80029
117.4020 117.3813 2138.0 0.000468 87.99130 2274.52100
117.4190 117.3983 2329.0 0.000429 88.02126 2318.01294
117.4360 117.4153 2304.0 0.000434 88.05119 2354.29541
117.4520 117.4313 2362.0 0.000423 88.07935 2380.61621
117.4690 117.4483 2335.0 0.000428 88.10930 2398.66040
117.4860 117.4653 2486.0 0.000402 88.13924 2404.58936
117.5020 117.4813 2526.0 0.000396 88.16739 2397.60010
117.5190 117.4983 2434.0 0.000411 88.19735 2375.61182
117.5360 117.5153 2448.0 0.000408 88.22728 2338.11182
117.5530 117.5323 2397.0 0.000417 88.25723 2285.34131
117.5690 117.5483 2232.0 0.000448 88.28539 2222.65845
117.5860 117.5653 2163.0 0.000462 88.31533 2143.74829
117.6030 117.5823 2029.0 0.000493 88.34526 2054.23486
117.6190 117.5983 1957.0 0.000511 88.37344 1962.44141
117.6360 117.6153 1861.0 0.000537 88.40338 1859.13770
117.6530 117.6323 1736.0 0.000576 88.43327 1752.36475
117.6700 117.6493 1629.0 0.000614 88.46323 1643.99976
117.6860 117.6653 1500.0 0.000667 88.49142 1542.48926
117.7030 117.6823 1428.0 0.000700 88.52132 1436.81323
117.7200 117.6993 1312.0 0.000762 88.55128 1334.34900
117.7360 117.7153 1192.0 0.000839 88.57947 1241.96497
117.7530 117.7323 1149.0 0.000870 88.60938 1148.91772
117.7700 117.7493 983.0 0.001017 88.63932 1061.33325
117.7870 117.7663 922.0 0.001085 88.66927 979.71069
117.8030 117.7823 939.0 0.001065 88.69741 908.45490
117.8200 117.7993 884.0 0.001131 88.72737 838.44592
117.8370 117.8163 812.0 0.001231 88.75732 774.33289
117.8530 117.8323 749.0 0.001335 88.78546 719.19092
117.8700 117.8493 707.0 0.001414 88.81542 665.71454
117.8870 117.8663 667.0 0.001499 88.84534 617.33630
117.9040 117.8833 619.0 0.001615 88.87530 573.59442
117.9200 117.8993 592.0 0.001689 88.90346 536.42218
117.9370 117.9163 561.0 0.001782 88.93337 500.79138
117.9540 117.9333 578.0 0.001730 88.96333 468.74857
117.9700 117.9493 533.0 0.001876 88.99150 441.62265
117.9870 117.9663 502.0 0.001991 89.02142 415.68549
118.0040 117.9833 454.0 0.002202 89.05138 392.70203
118.0210 118.0003 439.0 0.002278 89.08131 371.80151
118.0370 118.0163 441.0 0.002268 89.10947 354.08881
118.0540 118.0333 357.0 0.002802 89.13942 337.07730
118.0710 118.0503 360.0 0.002779 89.16936 321.75681
118.0880 118.0673 380.0 0.002633 89.19930 307.92279
118.1040 118.0833 347.0 0.002881 89.22747 296.10944
118.1210 118.1003 316.0 0.003163 89.25740 284.68411
118.1380 118.1173 297.0 0.003368 89.28735 274.29010
118.1540 118.1333 297.0 0.003368 89.31552 265.34460
118.1710 118.1503 261.0 0.00383 89.34545 256.62155
118.1880 118.1673 299.0 0.003345 89.37540 248.61610
118.2040 118.1833 240.0 0.00417 89.40356 241.66631
118.2210 118.2003 241.0 0.00415 89.43350 234.83046
118.2380 118.2173 258.0 0.00388 89.46340 228.50841
118.2550 118.2343 234.0 0.00427 89.49335 222.62833
118.2710 118.2503 210.0 0.00476 89.52154 217.46748
118.2880 118.2673 218.0 0.00459 89.55145 212.34677
118.3050 118.2843 215.0 0.00465 89.58140 207.54851
118.3220 118.3013 213.0 0.00470 89.61134 203.05309
118.3380 118.3173 206.0 0.00486 89.63949 199.07533
118.3550 118.3343 214.0 0.00467 89.66945 195.08488
118.3720 118.3513 191.0 0.00524 89.69938 191.32571
118.3880 118.3673 217.0 0.00461 89.72753 187.98318
118.4050 118.3843 164.0 0.00609 89.75748 184.61507
118.4220 118.4013 176.0 0.00568 89.78741 181.43051
118.4390 118.4183 175.0 0.00571 89.81737 178.40910
118.4550 118.4343 168.0 0.00595 89.84554 175.70966
118.4720 118.4513 166.0 0.00603 89.87546 172.98230
118.4890 118.4683 156.0 0.00641 89.90541 170.38689
118.5050 118.4843 181.0 0.00553 89.93357 168.06181
118.5220 118.5013 175.0 0.00571 89.96351 165.70679
118.5390 118.5183 152.0 0.00658 89.99345 163.46033
118.5560 118.5353 149.0 0.00671 90.02340 161.31956
118.5720 118.5513 154.0 0.00649 90.05154 159.99722
118.5890 118.5683 143.0 0.00699 90.08150 158.04277
118.6060 118.5853 162.0 0.00617 90.11143 156.17690
118.6230 118.6023 121.0 0.00826 90.14138 154.39328
118.6390 118.6183 151.0 0.00662 90.16955 152.78630
118.6560 118.6353 158.0 0.00633 90.19949 151.14969
118.6730 118.6523 150.0 0.00666 90.22942 149.58273
118.6890 118.6683 131.0 0.00763 90.25758 148.16879
118.7060 118.6853 143.0 0.00699 90.28753 146.72667
118.7230 118.7023 159.0 0.00629 90.31744 145.34547
118.7400 118.7193 148.0 0.00675 90.34738 144.01819
118.7560 118.7353 166.0 0.00603 90.37557 142.81831
118.7730 118.7523 142.0 0.00704 90.40547 141.59451
118.7900 118.7693 137.0 0.00731 90.43543 140.41704
118.8060 118.7853 124.0 0.00806 90.46362 139.35126
118.8230 118.8023 131.0 0.00763 90.49352 138.26297
118.8400 118.8193 150.0 0.00666 90.52347 137.21460
118.8570 118.8363 134.0 0.00746 90.55341 136.20670
118.8730 118.8523 133.0 0.00752 90.58156 135.29364
118.8900 118.8693 109.0 0.00917 90.61152 134.35728
118.9070 118.8863 116.0 0.00862 90.64146 133.45609
118.9230 118.9023 101.0 0.00990 90.66961 132.63901
118.9400 118.9193 110.0 0.00909 90.69957 131.80023
118.9570 118.9363 112.0 0.00893 90.72948 130.99274
118.9740 118.9533 111.0 0.00900 90.75945 130.21332
118.9900 118.9693 130.0 0.00769 90.78761 129.50577
119.0070 118.9863 114.0 0.00877 90.81752 128.77995
119.0240 119.0033 112.0 0.00893 90.84748 128.07886
119.0400 119.0193 128.0 0.00782 90.87566 127.44196
119.0570 119.0363 111.0 0.00900 90.90557 126.78818
119.0740 119.0533 142.0 0.00704 90.93553 126.15621
119.0910 119.0703 113.0 0.00885 90.96546 125.54622
119.1070 119.0863 105.0 0.00952 90.99362 124.99168
119.1240 119.1033 111.0 0.00900 91.02357 124.42097
119.1410 119.1203 145.0 0.00690 91.05351 123.86980
119.1580 119.1373 112.0 0.00893 91.08345 123.33717
119.1740 119.1533 113.0 0.00885 91.11162 122.85231
119.1910 119.1703 119.0 0.00840 91.14156 122.35362
119.2080 119.1873 141.0 0.00710 91.17149 121.87144
119.2240 119.2033 107.0 0.00935 91.19967 121.43237
119.2410 119.2203 114.0 0.00877 91.22960 120.98061
119.2580 119.2373 145.0 0.00690 91.25951 120.54419
119.2750 119.2543 119.0 0.00840 91.28947 120.12132
119.2910 119.2703 119.0 0.00840 91.31765 119.73611
119.3080 119.2873 123.0 0.00813 91.34756 119.34035
119.3250 119.3043 110.0 0.00909 91.37750 118.95679
119.3410 119.3203 131.0 0.00763 91.40569 118.60737
119.3580 119.3373 124.0 0.00806 91.43559 118.24831
119.3750 119.3543 108.0 0.00926 91.46555 117.90038
119.3920 119.3713 107.0 0.00935 91.49548 117.56395
119.4080 119.3873 112.0 0.00893 91.52364 117.25762
119.4250 119.4043 138.0 0.00724 91.55360 116.94200
119.4420 119.4213 125.0 0.00800 91.58353 116.63686
119.4580 119.4373 118.0 0.00848 91.61168 116.35905
119.4750 119.4543 114.0 0.00877 91.64164 116.07288
119.4920 119.4713 126.0 0.00794 91.67155 115.79646
119.5090 119.4883 113.0 0.00885 91.70152 115.52888
119.5250 119.5043 102.0 0.00980 91.72969 115.28541
119.5420 119.5213 115.0 0.00870 91.75961 115.03516
119.5590 119.5383 114.0 0.00877 91.78957 114.79308
119.5760 119.5553 134.0 0.00746 91.81950 114.55928
119.5920 119.5713 114.0 0.00877 91.84766 114.34679
119.6090 119.5883 100.0 0.01000 91.87760 114.12816
119.6260 119.6053 96.0 0.01042 91.90755 113.91728
119.6420 119.6213 104.0 0.00961 91.93569 113.72570
119.6590 119.6383 123.0 0.00813 91.96565 113.52890
119.6760 119.6553 120.0 0.00834 91.99558 113.33925
119.6930 119.6723 122.0 0.00819 92.02553 113.15647
119.7090 119.6883 110.0 0.00909 92.05370 112.99065
119.7260 119.7053 114.0 0.00877 92.08363 112.82080
119.7430 119.7223 101.0 0.00990 92.11358 112.65739
119.7590 119.7383 108.0 0.00926 92.14174 112.50942
119.7760 119.7553 124.0 0.00806 92.17168 112.35817
119.7930 119.7723 105.0 0.00952 92.20159 112.21313
119.8100 119.7893 115.0 0.00870 92.23154 112.07381
119.8260 119.8053 109.0 0.00917 92.25972 111.94807
119.8430 119.8223 131.0 0.00763 92.28963 111.82026
119.8600 119.8393 126.0 0.00794 92.31958 111.69785
119.8760 119.8553 97.0 0.01031 92.34777 111.58781
119.8930 119.8723 103.0 0.00971 92.37768 111.47633
119.9100 119.8893 109.0 0.00917 92.40763 111.37009
119.9270 119.9063 91.0 0.01099 92.43757 111.26924
119.9430 119.9223 112.0 0.00893 92.46571 111.17588
119.9600 119.9393 92.0 0.01087 92.49567 111.08656
119.9770 119.9563 123.0 0.00813 92.52561 111.00108
119.9930 119.9723 130.0 0.00769 92.55376 110.92537
120.0100 119.9893 110.0 0.00909 92.58372 110.84970
120.0270 120.0063 105.0 0.00952 92.61364 110.77914
120.0440 120.0233 114.0 0.00877 92.64360 110.71352
120.0600 120.0393 86.0 0.01163 92.67175 110.65635
120.0770 120.0563 120.0 0.00834 92.70169 110.60041
120.0940 120.0733 115.0 0.00870 92.73164 110.54933
120.1100 120.0893 121.0 0.00826 92.75980 110.50581
120.1270 120.1063 122.0 0.00819 92.78973 110.46434
120.1440 120.1233 112.0 0.00893 92.81969 110.42776
120.1610 120.1403 95.0 0.01053 92.84962 110.39614
120.1770 120.1563 110.0 0.00909 92.87778 110.37093
120.1940 120.1733 105.0 0.00952 92.90772 110.34892
120.2110 120.1903 120.0 0.00834 92.93767 110.33198
120.2280 120.2073 118.0 0.00848 92.96760 110.32009
120.2440 120.2233 106.0 0.00943 92.99577 110.31362
120.2610 120.2403 105.0 0.00952 93.02572 110.31176
120.2780 120.2573 109.0 0.00917 93.05565 110.31519
120.2940 120.2733 115.0 0.00870 93.08382 110.32334
120.3110 120.2903 105.0 0.00952 93.11375 110.33736
120.3280 120.3073 121.0 0.00826 93.14370 110.35727
120.3440 120.3233 101.0 0.00990 93.17185 110.38111
120.3610 120.3403 111.0 0.00900 93.20180 110.41231
120.3780 120.3573 106.0 0.00943 93.23170 110.44972
120.3950 120.3743 130.0 0.00769 93.26165 110.49373
120.4110 120.3903 150.0 0.00666 93.28984 110.54145
120.4280 120.4073 110.0 0.00909 93.31974 110.59911
120.4450 120.4243 141.0 0.00710 93.34970 110.60345
120.4620 120.4413 98.0 0.01021 93.37965 110.67730
120.4780 120.4573 118.0 0.00848 93.40779 110.75469
120.4950 120.4743 100.0 0.01000 93.43775 110.84618
120.5120 120.4913 118.0 0.00848 93.46768 110.94769
120.5280 120.5073 113.0 0.00885 93.49583 111.05309
120.5450 120.5243 114.0 0.00877 93.52579 111.17666
120.5620 120.5413 112.0 0.00893 93.55570 111.31282
120.5790 120.5583 114.0 0.00877 93.58566 111.46293
120.5950 120.5743 118.0 0.00848 93.61384 111.61770
120.6120 120.5913 106.0 0.00943 93.64375 111.79772
120.6290 120.6083 112.0 0.00893 93.67371 111.99525
120.6450 120.6243 110.0 0.00909 93.70187 112.19797
120.6620 120.6413 111.0 0.00900 93.73180 112.43262
120.6790 120.6583 110.0 0.00909 93.76175 112.68864
120.6960 120.6753 128.0 0.00782 93.79169 112.96695
120.7120 120.6913 102.0 0.00980 93.81984 113.25011
120.7290 120.7083 108.0 0.00926 93.84980 113.57533
120.7460 120.7253 131.0 0.00763 93.87973 113.92585
120.7630 120.7423 114.0 0.00877 93.90968 114.30252
120.7790 120.7583 109.0 0.00917 93.93785 114.68118
120.7960 120.7753 109.0 0.00917 93.96778 115.10940
120.8130 120.7923 112.0 0.00893 93.99773 115.56377
120.8290 120.8083 117.0 0.00854 94.02589 116.01425
120.8460 120.8253 111.0 0.00900 94.05583 116.51598
120.8630 120.8423 113.0 0.00885 94.08576 117.03903
120.8790 120.8583 103.0 0.00971 94.11394 117.54793
120.8960 120.8753 121.0 0.00826 94.14387 118.10302
120.9130 120.8923 119.0 0.00840 94.17377 118.66786
120.9300 120.9093 105.0 0.00952 94.20374 119.23931
120.9460 120.9253 118.0 0.00848 94.23192 119.77777
120.9630 120.9423 106.0 0.00943 94.26183 120.34547
120.9800 120.9593 109.0 0.00917 94.29179 120.90626
120.9970 120.9763 106.0 0.00943 94.32172 121.45512
121.0130 120.9923 125.0 0.00800 94.34986 121.95761
121.0300 121.0093 112.0 0.00893 94.37982 122.47491
121.0470 121.0263 104.0 0.00961 94.40977 122.97083
121.0630 121.0423 141.0 0.00710 94.43791 123.41473
121.0800 121.0593 114.0 0.00877 94.46787 123.85976
121.0970 121.0763 130.0 0.00769 94.49779 124.27238
121.1140 121.0933 142.0 0.00704 94.52775 124.65031
121.1300 121.1093 115.0 0.00870 94.55591 124.97166
121.1470 121.1263 123.0 0.00813 94.58584 125.27652
121.1640 121.1433 134.0 0.00746 94.61578 125.54594
121.1800 121.1593 132.0 0.00757 94.64396 125.77043
121.1970 121.1763 132.0 0.00757 94.67387 125.98458
121.2140 121.1933 119.0 0.00840 94.70383 126.18219
121.2310 121.2103 141.0 0.00710 94.73376 126.37264
121.2470 121.2263 121.0 0.00826 94.76192 126.55454
121.2640 121.2433 119.0 0.00840 94.79189 126.76084
121.2810 121.2603 104.0 0.00961 94.82182 126.98979
121.2980 121.2773 140.0 0.00715 94.85175 127.25050
121.3140 121.2933 138.0 0.00724 94.87992 127.53209
121.3310 121.3103 117.0 0.00854 94.90987 127.87693
121.3480 121.3273 111.0 0.00900 94.93980 128.27513
121.3640 121.3433 134.0 0.00746 94.96797 128.70398
121.3810 121.3603 129.0 0.00775 94.99790 129.22278
121.3980 121.3773 129.0 0.00775 95.02781 129.81133
121.4150 121.3943 143.0 0.00699 95.06444 130.48373
121.4310 121.4103 140.0 0.00715 95.10022 131.19275
121.4480 121.4273 140.0 0.00715 95.13818 132.03084
121.4650 121.4443 150.0 0.00666 95.17620 132.96617
121.4810 121.4603 147.0 0.00681 95.21198 133.94133
121.4980 121.4773 138.0 0.00724 95.24995 135.08600
121.5150 121.4943 153.0 0.00654 95.28798 136.35722
121.5320 121.5113 133.0 0.00752 95.32600 137.76538
121.5480 121.5273 138.0 0.00724 95.36172 139.22839
121.5650 121.5443 138.0 0.00724 95.39976 140.94997
121.5820 121.5613 177.0 0.00565 95.43776 142.85999
121.5980 121.5773 173.0 0.00578 95.47350 144.84926
121.6150 121.5943 147.0 0.00681 95.51152 147.19698
121.6320 121.6113 178.0 0.00562 95.54951 149.80853
121.6490 121.6283 171.0 0.00585 95.58754 152.72305
121.6650 121.6443 172.0 0.00582 95.62330 155.77023
121.6820 121.6613 181.0 0.00553 95.66129 159.37105
121.6990 121.6783 182.0 0.00550 95.69932 163.39459
121.7160 121.6953 175.0 0.00571 95.73731 167.88148
121.7320 121.7113 162.0 0.00617 95.77306 172.57011
121.7490 121.7283 193.0 0.00518 95.81108 178.10986
121.7660 121.7453 204.0 0.00490 95.84909 184.26764
121.7820 121.7613 193.0 0.00518 95.88483 190.67471
121.7990 121.7783 222.0 0.00450 95.92286 198.20422
121.8160 121.7953 185.0 0.00541 95.96088 206.51837
121.8330 121.8123 219.0 0.00457 95.99887 215.67679
121.8490 121.8283 233.0 0.00429 96.03464 225.11154
121.8660 121.8453 247.0 0.00405 96.07263 236.05499
121.8830 121.8623 285.0 0.00351 96.11065 247.98280
121.8990 121.8783 263.0 0.00380 96.14640 260.13306
121.9160 121.8953 261.0 0.00383 96.18441 274.05377
121.9330 121.9123 295.0 0.003388 96.22238 288.99896
121.9500 121.9293 321.0 0.003114 96.26039 304.99786
121.9660 121.9453 298.0 0.003357 96.29617 320.95441
121.9830 121.9623 358.0 0.002794 96.33414 338.77551
122.0000 121.9793 360.0 0.002779 96.37217 357.44266
122.0160 121.9953 407.0 0.002458 96.40795 375.62018
122.0330 122.0123 387.0 0.002585 96.44592 395.37836
122.0500 122.0293 419.0 0.002387 96.48396 415.43271
122.0670 122.0463 422.0 0.002370 96.52195 435.47565
122.0830 122.0623 454.0 0.002202 96.55768 454.07056
122.1000 122.0793 492.0 0.002033 96.59571 473.32669
122.1170 122.0963 460.0 0.002173 96.63373 491.77493
122.1330 122.1123 490.0 0.002040 96.66946 508.21051
122.1500 122.1293 473.0 0.002114 96.70750 524.59326
122.1670 122.1463 562.0 0.001779 96.74548 539.73846
122.1840 122.1633 520.0 0.001924 96.78351 553.65155
122.2000 122.1793 564.0 0.001773 96.81925 565.59100
122.2170 122.1963 593.0 0.001687 96.85725 577.05267
122.2340 122.2133 617.0 0.001621 96.89527 587.22192
122.2510 122.2303 624.0 0.001603 96.93329 595.97150
122.2670 122.2463 632.0 0.001582 96.96902 602.74487
122.2840 122.2633 606.0 0.001650 97.00705 608.16278
122.3010 122.2803 649.0 0.001540 97.04504 611.43378
122.3170 122.2963 617.0 0.001621 97.08080 612.26733
122.3340 122.3133 626.0 0.001597 97.11883 610.48853
122.3510 122.3303 658.0 0.001520 97.15683 605.74799
122.3680 122.3473 592.0 0.001689 97.19484 597.93671
122.3840 122.3633 648.0 0.001543 97.23059 587.80603
122.4010 122.3803 648.0 0.001543 97.26861 574.23706
122.4180 122.3973 610.0 0.001639 97.30660 558.06348
122.4340 122.4133 563.0 0.001776 97.34237 540.81232
122.4510 122.4303 518.0 0.001930 97.38037 520.73895
122.4680 122.4473 523.0 0.001912 97.41838 499.33942
122.4840 122.4633 517.0 0.001934 97.45413 478.41409
122.5010 122.4803 487.0 0.002053 97.49215 455.74814
122.5180 122.4973 432.0 0.002316 97.53011 433.05341
122.5350 122.5143 402.0 0.002488 97.56815 410.59900
122.5510 122.5303 396.0 0.002525 97.60390 389.97421
122.5680 122.5473 384.0 0.002603 97.64188 368.83014
122.5850 122.5643 364.0 0.002747 97.67991 348.57492
122.6020 122.5813 383.0 0.002611 97.71792 329.37625
122.6180 122.5973 300.0 0.003334 97.75365 312.34860
122.6350 122.6143 292.0 0.003424 97.79169 295.36340
122.6520 122.6313 322.0 0.003107 97.82968 279.57544
122.6680 122.6473 288.0 0.003472 97.86543 265.81094
122.6850 122.6643 318.0 0.003146 97.90345 252.29308
122.7020 122.6813 304.0 0.003288 97.94144 239.91852
122.7190 122.6983 246.0 0.00407 97.97946 228.61176
122.7350 122.7143 240.0 0.00417 98.01523 218.91820
122.7520 122.7313 232.0 0.00431 98.05321 209.55864
122.7690 122.7483 230.0 0.00435 98.09124 201.09198
122.7850 122.7643 235.0 0.00426 98.12701 193.89537
122.8020 122.7813 218.0 0.00459 98.16499 186.99774
122.8190 122.7983 224.0 0.00446 98.20300 180.79742
122.8360 122.8153 207.0 0.00483 98.24102 175.24039
122.8520 122.8313 192.0 0.00521 98.27675 170.54266
122.8690 122.8483 188.0 0.00532 98.31478 166.04863
122.8860 122.8653 203.0 0.00492 98.35280 162.02298
122.9030 122.8823 197.0 0.00507 98.39079 158.41171
122.9190 122.8983 181.0 0.00553 98.42656 155.35028
122.9360 122.9153 157.0 0.00637 98.46456 152.41302
122.9530 122.9323 186.0 0.00537 98.50258 149.76433
122.9690 122.9483 207.0 0.00483 98.53832 147.50487
122.9860 122.9653 187.0 0.00535 98.57634 145.32133
123.0030 122.9823 181.0 0.00553 98.61433 143.33589
123.0190 122.9983 165.0 0.00606 98.65010 141.62747
123.0360 123.0153 165.0 0.00606 98.68810 139.96133
123.0530 123.0323 174.0 0.00575 98.72607 138.43346
123.0700 123.0493 157.0 0.00637 98.76410 137.02376
123.0860 123.0653 154.0 0.00649 98.79988 135.79567
123.1030 123.0823 143.0 0.00699 98.83784 134.58554
123.1200 123.0993 133.0 0.00752 98.87588 133.45934
123.1370 123.1163 155.0 0.00645 98.91387 132.41092
123.1530 123.1323 164.0 0.00609 98.94961 131.48875
123.1700 123.1493 149.0 0.00671 98.98764 130.56880
123.1870 123.1663 143.0 0.00699 99.02566 129.70705
123.2030 123.1823 134.0 0.00746 99.06139 128.94484
123.2200 123.1993 126.0 0.00794 99.09942 128.18076
123.2370 123.2163 161.0 0.00621 99.13740 127.46220
123.2540 123.2333 128.0 0.00782 99.17543 126.78406
123.2700 123.2493 148.0 0.00675 99.21118 126.18133
123.2870 123.2663 126.0 0.00794 99.24918 125.57563
123.3040 123.2833 129.0 0.00775 99.28719 125.00243
123.3200 123.2993 136.0 0.00736 99.32296 124.49186
123.3370 123.3163 141.0 0.00710 99.36094 123.97771
123.3540 123.3333 134.0 0.00746 99.39897 123.49033
123.3710 123.3503 125.0 0.00800 99.43697 123.02893
123.3870 123.3663 136.0 0.00736 99.47272 122.61716
123.4040 123.3833 123.0 0.00813 99.51075 122.20112
123.4210 123.4003 119.0 0.00840 99.54875 121.80688
123.4380 123.4173 144.0 0.00694 99.58677 121.43302
123.4540 123.4333 127.0 0.00787 99.62251 121.09883
123.4710 123.4503 118.0 0.00848 99.66053 120.76138
123.4880 123.4673 127.0 0.00787 99.69853 120.44125
123.5040 123.4833 131.0 0.00763 99.73429 120.15505
123.5210 123.5003 117.0 0.00854 99.77229 119.86604
123.5380 123.5173 138.0 0.00724 99.81026 119.59219
123.5550 123.5343 111.0 0.00900 99.84829 119.33204
123.5710 123.5503 126.0 0.00794 99.88407 119.09955
123.5880 123.5673 142.0 0.00704 99.92204 118.86535
123.6050 123.5843 112.0 0.00893 99.96007 118.64299
123.6210 123.6003 109.0 0.00917 99.99583 118.44447
123.6380 123.6173 127.0 0.00787 100.03380 118.24469
123.6550 123.6343 104.0 0.00961 100.07183 118.05527
123.6720 123.6513 118.0 0.00848 100.10985 117.87622
123.6880 123.6673 108.0 0.00926 100.14558 117.71678
123.7050 123.6843 133.0 0.00752 100.18361 117.55629
123.7220 123.7013 131.0 0.00763 100.22161 117.40488
123.7380 123.7173 103.0 0.00971 100.25735 117.27044
123.7550 123.7343 148.0 0.00675 100.29537 117.13545
123.7720 123.7513 124.0 0.00806 100.33337 117.00864
123.7890 123.7683 126.0 0.00794 100.37138 116.88939
123.8050 123.7843 94.0 0.01064 100.40715 116.78406
123.8220 123.8013 109.0 0.00917 100.44513 116.67908
123.8390 123.8183 116.0 0.00862 100.48316 116.58090
123.8560 123.8353 124.0 0.00806 100.52116 116.48944
123.8720 123.8513 99.0 0.01010 100.55691 116.40934
123.8890 123.8683 135.0 0.00741 100.59495 116.33015
123.9060 123.8853 120.0 0.00834 100.63294 116.25697
123.9220 123.9013 123.0 0.00813 100.66867 116.19353
123.9390 123.9183 125.0 0.00800 100.70670 116.13154
123.9560 123.9353 130.0 0.00769 100.74472 116.07505
123.9730 123.9523 118.0 0.00848 100.78272 116.02392
123.9890 123.9683 140.0 0.00715 100.81848 115.98051
124.0060 123.9853 127.0 0.00787 100.85648 115.93927
124.0230 124.0023 105.0 0.00952 100.89450 115.90294
124.0390 124.0183 106.0 0.00943 100.93024 115.87311
124.0560 124.0353 126.0 0.00794 100.96826 115.84593
124.0730 124.0523 118.0 0.00848 101.00623 115.82335
124.0900 124.0693 116.0 0.00862 101.04424 115.80511
124.1060 124.0853 114.0 0.00877 101.08002 115.79197
124.1230 124.1023 111.0 0.00900 101.11799 115.78211
124.1400 124.1193 123.0 0.00813 101.15602 115.77641
124.1560 124.1353 108.0 0.00926 101.19180 115.77477
124.1730 124.1523 99.0 0.01010 101.22977 115.77689
124.1900 124.1693 139.0 0.00719 101.26780 115.78295
124.2070 124.1863 121.0 0.00826 101.30580 115.79285
124.2230 124.2023 119.0 0.00840 101.34155 115.80565
124.2400 124.2193 119.0 0.00840 101.37956 115.82286
124.2570 124.2363 108.0 0.00926 101.41758 115.84375
124.2730 124.2523 133.0 0.00752 101.45331 115.86672
124.2900 124.2693 107.0 0.00935 101.49134 115.89462
124.3070 124.2863 106.0 0.00943 101.52933 115.92603
124.3240 124.3033 124.0 0.00806 101.56736 115.96096
124.3400 124.3193 121.0 0.00826 101.60310 115.99696
124.3570 124.3363 107.0 0.00935 101.64111 116.03857
124.3740 124.3533 115.0 0.00870 101.67912 116.08357
124.3910 124.3703 128.0 0.00782 101.71713 116.13199
124.4070 124.3863 104.0 0.00961 101.75287 116.18053
124.4240 124.4033 110.0 0.00909 101.79090 116.23545
124.4410 124.4203 110.0 0.00909 101.82891 116.29365
124.4570 124.4363 118.0 0.00848 101.86465 116.35134
124.4740 124.4533 120.0 0.00834 101.90268 116.41599
124.4910 124.4703 110.0 0.00909 101.94067 116.48384
124.5080 124.4873 121.0 0.00826 101.97869 116.55499
124.5240 124.5033 108.0 0.00926 102.01444 116.62492
124.5410 124.5203 112.0 0.00893 102.05245 116.70243
124.5580 124.5373 122.0 0.00819 102.09045 116.78322
124.5740 124.5533 112.0 0.00893 102.12622 116.86224
124.5910 124.5703 130.0 0.00769 102.16422 116.94942
124.6080 124.5873 116.0 0.00862 102.20223 117.03989
124.6240 124.6033 119.0 0.00840 102.23798 117.12802
124.6410 124.6203 103.0 0.00971 102.27599 117.22501
124.6580 124.6373 117.0 0.00854 102.31396 117.32518
124.6750 124.6543 111.0 0.00900 102.35199 117.42892
124.6910 124.6703 106.0 0.00943 102.38777 117.52963
124.7080 124.6873 149.0 0.00671 102.42572 117.63982
124.7250 124.7043 114.0 0.00877 102.46375 117.75365
124.7420 124.7213 104.0 0.00961 102.50177 117.87094
124.7580 124.7373 121.0 0.00826 102.53750 117.98442
124.7750 124.7543 129.0 0.00775 102.57553 118.10867
124.7920 124.7713 127.0 0.00787 102.61353 118.23644
124.8080 124.7873 121.0 0.00826 102.64928 118.35992
124.8250 124.8043 102.0 0.00980 102.68729 118.49490
124.8420 124.8213 120.0 0.00834 102.72530 118.63350
124.8590 124.8383 138.0 0.00724 102.76331 118.77603
124.8750 124.8543 130.0 0.00769 102.79907 118.91360
124.8920 124.8713 120.0 0.00834 102.83706 119.06356
124.9090 124.8883 113.0 0.00885 102.87509 119.21767
124.9250 124.9043 99.0 0.01010 102.91085 119.36627
124.9420 124.9213 103.0 0.00971 102.94884 119.52812
124.9590 124.9383 113.0 0.00885 102.98687 119.69436
124.9760 124.9553 97.0 0.01031 103.02486 119.86478
124.9920 124.9713 110.0 0.00909 103.06060 120.02899
125.0090 124.9883 121.0 0.00826 103.09863 120.20807
125.0260 125.0053 117.0 0.00854 103.13665 120.39155
125.0430 125.0223 124.0 0.00806 103.17464 120.57964
125.0590 125.0383 106.0 0.00943 103.21041 120.76093
125.0760 125.0553 127.0 0.00787 103.24841 120.95828
125.0930 125.0723 123.0 0.00813 103.28642 121.16058
125.1090 125.0883 109.0 0.00917 103.32217 121.35551
125.1260 125.1053 106.0 0.00943 103.36018 121.56770
125.1430 125.1223 116.0 0.00862 103.39819 121.78513
125.1590 125.1383 108.0 0.00926 103.43395 121.99467
125.1760 125.1553 125.0 0.00800 103.47195 122.22272
125.1930 125.1723 127.0 0.00787 103.50991 122.45618
125.2100 125.1893 126.0 0.00794 103.54794 122.69586
125.2260 125.2053 122.0 0.00819 103.58372 122.92681
125.2430 125.2223 125.0 0.00800 103.62170 123.17778
125.2600 125.2393 123.0 0.00813 103.65973 123.43546
125.2770 125.2563 112.0 0.00893 103.69772 123.69943
125.2930 125.2723 124.0 0.00806 103.73347 123.95372
125.3100 125.2893 139.0 0.00719 103.77148 124.23088
125.3270 125.3063 112.0 0.00893 103.80950 124.51492
125.3430 125.3223 133.0 0.00752 103.84524 124.78856
125.3600 125.3393 130.0 0.00769 103.88327 125.08696
125.3770 125.3563 128.0 0.00782 103.92125 125.39262
125.3940 125.3733 123.0 0.00813 103.95928 125.70651
125.4100 125.3893 124.0 0.00806 103.99505 126.00905
125.4270 125.4063 106.0 0.00943 104.03303 126.33851
125.4440 125.4233 124.0 0.00806 104.07104 126.67695
125.4600 125.4393 127.0 0.00787 104.10681 127.00333
125.4770 125.4563 117.0 0.00854 104.14479 127.35886
125.4940 125.4733 122.0 0.00819 104.18282 127.72428
125.5110 125.4903 123.0 0.00813 104.22084 128.09927
125.5270 125.5063 120.0 0.00834 104.25657 128.46101
125.5440 125.5233 111.0 0.00900 104.29460 128.85612
125.5610 125.5403 135.0 0.00741 104.33260 129.26176
125.5780 125.5573 123.0 0.00813 104.37061 129.67853
125.5940 125.5733 123.0 0.00813 104.40636 130.08122
125.6110 125.5903 114.0 0.00877 104.44438 130.52075
125.6280 125.6073 123.0 0.00813 104.48238 130.97266
125.6440 125.6233 131.0 0.00763 104.51814 131.40948
125.6610 125.6403 115.0 0.00870 104.55614 131.88669
125.6780 125.6573 126.0 0.00794 104.59411 132.37703
125.6950 125.6743 134.0 0.00746 104.63214 132.88249
125.7110 125.6903 127.0 0.00787 104.66792 133.37157
125.7280 125.7073 128.0 0.00782 104.70589 133.90540
125.7450 125.7243 138.0 0.00724 104.74392 134.45605
125.7610 125.7403 121.0 0.00826 104.77970 134.98930
125.7780 125.7573 117.0 0.00854 104.81765 135.57170
125.7950 125.7743 131.0 0.00763 104.85568 136.17300
125.8120 125.7913 111.0 0.00900 104.89369 136.79260
125.8280 125.8073 142.0 0.00704 104.92943 137.39282
125.8450 125.8243 134.0 0.00746 104.96746 138.05109
125.8620 125.8413 130.0 0.00769 105.00546 138.72995
125.8780 125.8573 133.0 0.00752 105.04121 139.38818
125.8950 125.8743 136.0 0.00736 105.07922 140.11078
125.9120 125.8913 122.0 0.00819 105.11722 140.85626
125.9290 125.9083 148.0 0.00675 105.15524 141.62738
125.9450 125.9243 122.0 0.00819 105.19100 142.37610
125.9620 125.9413 132.0 0.00757 105.22898 143.19765
125.9790 125.9583 125.0 0.00800 105.26701 144.04837
125.9950 125.9743 142.0 0.00704 105.30278 144.87523
126.0120 125.9913 139.0 0.00719 105.34076 145.78349
126.0290 126.0083 127.0 0.00787 105.37879 146.72507
126.0460 126.0253 120.0 0.00834 105.41679 147.69994
126.0620 126.0413 143.0 0.00699 105.45252 148.64886
126.0790 126.0583 159.0 0.00629 105.49055 149.69470
126.0960 126.0753 127.0 0.00787 105.52857 150.77885
126.1130 126.0923 151.0 0.00662 105.56657 151.90384
126.1290 126.1083 129.0 0.00775 105.60233 153.00145
126.1460 126.1253 140.0 0.00715 105.64034 154.21181
126.1630 126.1423 164.0 0.00609 105.67835 155.46945
126.1790 126.1583 150.0 0.00666 105.71410 156.69818
126.1960 126.1753 152.0 0.00658 105.75211 158.05498
126.2130 126.1923 151.0 0.00662 105.79008 159.46533
126.2300 126.2093 143.0 0.00699 105.82811 160.93628
126.2460 126.2253 152.0 0.00658 105.86388 162.37637
126.2630 126.2423 163.0 0.00613 105.90184 163.96704
126.2800 126.2593 164.0 0.00609 105.93987 165.62888
126.2960 126.2753 151.0 0.00662 105.97565 167.25853
126.3130 126.2923 145.0 0.00690 106.01362 169.06177
126.3300 126.3093 145.0 0.00690 106.05165 170.94914
126.3470 126.3263 175.0 0.00571 106.08965 172.92149
126.3630 126.3423 136.0 0.00736 106.12540 174.85944
126.3800 126.3593 159.0 0.00629 106.16341 177.01595
126.3970 126.3763 163.0 0.00613 106.20143 179.27477
126.4130 126.3923 172.0 0.00582 106.23716 181.49942
126.4300 126.4093 169.0 0.00592 106.27519 183.98149
126.4470 126.4263 171.0 0.00585 106.31317 186.58723
126.4640 126.4433 162.0 0.00617 106.35120 189.33247
126.4800 126.4593 179.0 0.00559 106.38697 192.04816
126.4970 126.4763 178.0 0.00562 106.42495 195.08720
126.5140 126.4933 177.0 0.00565 106.46298 198.30270
126.5300 126.5093 197.0 0.00507 106.49873 201.49840
126.5470 126.5263 205.0 0.00488 106.53671 205.09329
126.5640 126.5433 215.0 0.00465 106.57475 209.57025
126.5810 126.5603 214.0 0.00467 106.61276 213.64810
126.5970 126.5763 209.0 0.00478 106.64849 217.73741
126.6140 126.5933 199.0 0.00502 106.68652 222.39211
126.6310 126.6103 212.0 0.00472 106.72453 227.39412
126.6480 126.6273 238.0 0.00420 106.76254 232.79089
126.6640 126.6433 240.0 0.00417 106.79829 238.27550
126.6810 126.6603 217.0 0.00461 106.83630 244.59512
126.6980 126.6773 230.0 0.00435 106.87431 251.48845
126.7140 126.6933 241.0 0.00415 106.91006 258.56958
126.7310 126.7103 258.0 0.00388 106.94807 266.81665
126.7480 126.7273 271.0 0.00369 106.98603 275.89810
126.7650 126.7443 282.0 0.00355 107.02406 285.96881
126.7810 126.7603 300.0 0.003334 107.05984 296.43655
126.7980 126.7773 331.0 0.003022 107.09781 308.74588
126.8150 126.7943 296.0 0.003380 107.13584 322.47986
126.8310 126.8103 317.0 0.003156 107.17162 336.84634
126.8480 126.8273 353.0 0.002832 107.20959 353.80719
126.8650 126.8443 389.0 0.002571 107.24760 372.77768
126.8820 126.8613 401.0 0.002495 107.28562 393.94199
126.8980 126.8773 413.0 0.002422 107.32135 416.06302
126.9150 126.8943 381.0 0.002624 107.35938 442.19928
126.9320 126.9113 444.0 0.002253 107.39738 471.23865
126.9480 126.9273 442.0 0.002263 107.43313 501.42697
126.9650 126.9443 503.0 0.001988 107.47115 536.85352
126.9820 126.9613 563.0 0.001776 107.50915 575.86682
126.9990 126.9783 550.0 0.001819 107.54716 618.77344
127.0150 126.9943 645.0 0.001550 107.58292 662.80359
127.0320 127.0113 666.0 0.001501 107.62090 712.73102
127.0490 127.0283 720.0 0.001389 107.65894 767.94202
127.0650 127.0443 791.0 0.001265 107.69470 824.21088
127.0820 127.0613 830.0 0.001205 107.73268 887.86597
127.0990 127.0783 881.0 0.001135 107.77072 955.92975
127.1160 127.0953 957.0 0.001045 107.80872 1028.14587
127.1320 127.1113 1031.0 0.000970 107.84444 1099.65552
127.1490 127.1283 1165.0 0.000858 107.88248 1179.25513
127.1660 127.1453 1247.0 0.000802 107.92049 1261.94116
127.1830 127.1623 1338.0 0.000747 107.95850 1347.11926
127.1990 127.1783 1467.0 0.000682 107.99426 1428.80762
127.2160 127.1953 1600.0 0.000625 108.03226 1516.32361
127.2330 127.2123 1667.0 0.000600 108.07027 1603.36401
127.2490 127.2283 1850.0 0.000541 108.10602 1683.55066
127.2660 127.2453 1912.0 0.000523 108.14404 1765.42932
127.2830 127.2623 1985.0 0.000504 108.18204 1842.11218
127.2990 127.2783 2155.0 0.000464 108.21780 1907.83594
127.3160 127.2953 2228.0 0.000449 108.25581 1969.07642
127.3330 127.3123 2189.0 0.000457 108.29376 2019.65027
127.3500 127.3293 2273.0 0.000440 108.33179 2058.15723
127.3660 127.3453 2211.0 0.000452 108.36758 2082.21729
127.3830 127.3623 2173.0 0.000460 108.40554 2094.12939
127.4000 127.3793 2237.0 0.000447 108.44357 2091.74634
127.4170 127.3963 2229.0 0.000449 108.48158 2075.30225
127.4330 127.4123 2178.0 0.000459 108.51732 2047.53992
127.4500 127.4293 2074.0 0.000482 108.55534 2005.93066
127.4670 127.4463 1953.0 0.000512 108.59335 1953.22534
127.4830 127.4623 1932.0 0.000518 108.62908 1894.90527
127.5000 127.4793 1821.0 0.000549 108.66711 1825.09937
127.5170 127.4963 1693.0 0.000591 108.70510 1749.07312
127.5340 127.5133 1532.0 0.000653 108.74313 1668.32983
127.5500 127.5293 1492.0 0.000670 108.77889 1589.60608
127.5670 127.5463 1372.0 0.000729 108.81688 1504.39404
127.5840 127.5633 1335.0 0.000749 108.85491 1418.72327
127.6000 127.5793 1282.0 0.000780 108.89066 1338.84753
127.6170 127.5963 1190.0 0.000840 108.92864 1255.62329
127.6340 127.6133 1129.0 0.000886 108.96667 1174.74219
127.6510 127.6303 1038.0 0.000963 109.00468 1096.96240
127.6670 127.6463 990.0 0.001010 109.04042 1027.03528
127.6840 127.6633 885.0 0.001130 109.07845 956.36121
127.7010 127.6803 865.0 0.001156 109.11645 889.80341
127.7180 127.6973 878.0 0.001139 109.15446 827.45245
127.7340 127.7133 734.0 0.001363 109.19022 772.67615
127.7510 127.7303 731.0 0.001368 109.22823 718.56732
127.7680 127.7473 698.0 0.001433 109.26623 668.62097
127.7840 127.7633 644.0 0.001552 109.30199 625.32074
127.8010 127.7803 583.0 0.001715 109.33999 583.06866
127.8180 127.7973 618.0 0.001618 109.37795 544.56024
127.8350 127.8143 568.0 0.001761 109.41599 509.47888
127.8510 127.8303 563.0 0.001776 109.45177 479.46381
127.8680 127.8473 509.0 0.001965 109.48973 450.56912
127.8850 127.8643 544.0 0.001839 109.52776 424.44110
127.9010 127.8803 452.0 0.002212 109.56355 402.22278
127.9180 127.8973 452.0 0.002212 109.60152 380.93881
127.9350 127.9143 434.0 0.002305 109.63953 361.76581
127.9520 127.9313 417.0 0.002398 109.67754 344.54184
127.9680 127.9473 435.0 0.002298 109.71327 329.93716
127.9850 127.9643 361.0 0.002770 109.75130 315.91330
128.0020 127.9813 379.0 0.002638 109.78931 303.29382
128.0180 127.9973 331.0 0.003022 109.82505 292.56204
128.0350 128.0143 324.0 0.003086 109.86309 282.21371
128.0520 128.0313 321.0 0.003114 109.90105 272.85516
128.0690 128.0483 347.0 0.002881 109.93909 264.35022
128.0850 128.0643 311.0 0.003214 109.97487 257.05051
128.1020 128.0813 293.0 0.003412 110.01283 249.95081
128.1190 128.0983 284.0 0.00352 110.05087 243.44044
128.1350 128.1143 287.0 0.003485 110.08661 237.80135
128.1520 128.1313 295.0 0.003388 110.12461 232.26537
128.1690 128.1483 276.0 0.00362 110.16264 227.13950
128.1860 128.1653 263.0 0.00380 110.20064 222.38658
128.2020 128.1813 223.0 0.00449 110.23639 218.21912
128.2190 128.1983 264.0 0.00379 110.27442 214.07199
128.2360 128.2153 228.0 0.00439 110.31242 210.19403
128.2530 128.2323 262.0 0.00382 110.35042 206.55656
128.2690 128.2483 228.0 0.00439 110.38617 203.33344
128.2860 128.2653 237.0 0.00422 110.42420 200.10048
128.3030 128.2823 227.0 0.00440 110.46220 197.04921
128.3190 128.2983 211.0 0.00474 110.49795 194.33076
128.3360 128.3153 211.0 0.00474 110.53594 191.59053
128.3530 128.3323 200.0 0.00500 110.57397 188.99242
128.3690 128.3483 200.0 0.00500 110.60973 186.66827
128.3860 128.3653 201.0 0.00497 110.64772 184.31696
128.4030 128.3823 153.0 0.00654 110.68568 182.08243
128.4200 128.3993 190.0 0.00527 110.72372 179.95078
128.4360 128.4153 180.0 0.00555 110.75950 178.03651
128.4530 128.4323 181.0 0.00553 110.79747 176.09642
128.4700 128.4493 194.0 0.00515 110.83550 174.24121
128.4870 128.4663 185.0 0.00541 110.87350 172.47000
128.5030 128.4823 181.0 0.00553 110.90925 170.87598
128.5200 128.4993 163.0 0.00613 110.94728 169.25139
128.5370 128.5163 177.0 0.00565 110.98528 167.69749
128.5530 128.5323 160.0 0.00625 111.02103 166.29666
128.5700 128.5493 152.0 0.00658 111.05906 164.86670
128.5870 128.5663 153.0 0.00654 111.09702 163.49754
128.6040 128.5833 162.0 0.00617 111.13506 162.18297
128.6200 128.5993 177.0 0.00565 111.17080 160.99553
128.6370 128.6163 204.0 0.00490 111.20880 159.78323
128.6540 128.6333 170.0 0.00588 111.24683 158.61769
128.6700 128.6493 147.0 0.00681 111.28259 157.56345
128.6870 128.6663 153.0 0.00654 111.32058 156.48581
128.7040 128.6833 148.0 0.00675 111.35861 155.44838
128.7210 128.7003 154.0 0.00649 111.39661 154.45103
128.7370 128.7163 139.0 0.00719 111.43236 153.54758
128.7540 128.7333 131.0 0.00763 111.47036 152.62099
128.7710 128.7503 171.0 0.00585 111.50839 151.72919
128.7880 128.7673 155.0 0.00645 111.54639 150.87004
128.8040 128.7833 134.0 0.00746 111.58214 150.09023
128.8210 128.8003 144.0 0.00694 111.62013 149.29033
128.8380 128.8173 160.0 0.00625 111.65816 148.51894
128.8540 128.8333 143.0 0.00699 111.69392 147.81808
128.8710 128.8503 143.0 0.00699 111.73192 147.09854
128.8880 128.8673 149.0 0.00671 111.76988 146.40479
128.9050 128.8843 145.0 0.00690 111.80791 145.73380
128.9210 128.9003 137.0 0.00731 111.84370 145.12343
128.9380 128.9173 142.0 0.00704 111.88166 144.49716
128.9550 128.9343 132.0 0.00757 111.91969 143.89090
128.9710 128.9503 145.0 0.00690 111.95547 143.33908
128.9880 128.9673 126.0 0.00794 111.99344 142.77234
129.0050 128.9843 144.0 0.00694 112.03147 142.22336
129.0220 129.0013 142.0 0.00704 112.06947 141.69258
129.0380 129.0173 152.0 0.00658 112.10522 141.20932
129.0550 129.0343 147.0 0.00681 112.14322 140.71107
129.0720 129.0513 116.0 0.00862 112.18125 140.22910
129.0880 129.0673 129.0 0.00775 112.21696 139.78990
129.1050 129.0843 144.0 0.00694 112.25500 139.33684
129.1220 129.1013 135.0 0.00741 112.29299 138.89859
129.1390 129.1183 130.0 0.00769 112.33102 138.47348
129.1550 129.1343 134.0 0.00746 112.36678 138.08582
129.1720 129.1513 119.0 0.00840 112.40477 137.68637
129.1890 129.1683 138.0 0.00724 112.44280 137.29874
129.2050 129.1843 118.0 0.00848 112.47855 136.94502
129.2220 129.2013 126.0 0.00794 112.51652 136.58035
129.2390 129.2183 139.0 0.00719 112.55455 136.22627
129.2560 129.2353 131.0 0.00763 112.59258 135.88309
129.2720 129.2513 143.0 0.00699 112.62830 135.56973
129.2890 129.2683 136.0 0.00736 112.66633 135.24594
129.3060 129.2853 134.0 0.00746 112.70433 134.93192
129.3230 129.3023 120.0 0.00834 112.74236 134.62717
129.3390 129.3183 147.0 0.00681 112.77811 134.34859
129.3560 129.3353 143.0 0.00699 112.81611 134.06096
129.3730 129.3523 105.0 0.00952 112.85410 133.78166
129.3890 129.3683 122.0 0.00819 112.88988 133.52632
129.4060 129.3853 144.0 0.00694 112.92789 133.26254
129.4230 129.4023 139.0 0.00719 112.96585 133.00668
129.4400 129.4193 143.0 0.00699 113.00388 132.75772
129.4560 129.4353 130.0 0.00769 113.03967 132.53004
129.4730 129.4523 127.0 0.00787 113.07763 132.29514
129.4900 129.4693 132.0 0.00757 113.11566 132.06656
129.5060 129.4853 151.0 0.00662 113.15144 131.85742
129.5230 129.5023 142.0 0.00704 113.18941 131.64165
129.5400 129.5193 138.0 0.00724 113.22741 131.43159
129.5570 129.5363 108.0 0.00926 113.26544 131.22765
129.5730 129.5523 139.0 0.00719 113.30116 131.04108
129.5900 129.5693 125.0 0.00800 113.33919 130.84801
129.6070 129.5863 140.0 0.00715 113.37718 130.66051
129.6230 129.6023 138.0 0.00724 113.41293 130.48898
129.6400 129.6193 125.0 0.00800 113.45097 130.31146
129.6570 129.6363 141.0 0.00710 113.48896 130.13911
129.6740 129.6533 137.0 0.00731 113.52700 129.97142
129.6900 129.6693 130.0 0.00769 113.56274 129.81801
129.7070 129.6863 100.0 0.01000 113.60071 129.65948
129.7240 129.7033 120.0 0.00834 113.63874 129.50523
129.7400 129.7193 138.0 0.00724 113.67452 129.36423
129.7570 129.7363 119.0 0.00840 113.71249 129.21844
129.7740 129.7533 119.0 0.00840 113.75052 129.07663
129.7910 129.7703 128.0 0.00782 113.78852 128.93887
129.8070 129.7863 124.0 0.00806 113.82426 128.81293
129.8240 129.8033 130.0 0.00769 113.86230 128.68257
129.8410 129.8203 123.0 0.00813 113.90030 128.55600
129.8570 129.8363 123.0 0.00813 113.93604 128.44026
129.8740 129.8533 117.0 0.00854 113.97408 128.32053
129.8910 129.8703 143.0 0.00699 114.01208 128.20427
129.9080 129.8873 123.0 0.00813 114.05008 128.09135
129.9240 129.9033 131.0 0.00763 114.08586 127.98605
129.9410 129.9203 115.0 0.00870 114.12386 127.87939
129.9580 129.9373 112.0 0.00893 114.16182 127.77447
129.9750 129.9543 135.0 0.00741 114.19985 127.67391
129.9910 129.9703 96.0 0.01042 114.23563 127.58198
130.0080 129.9873 140.0 0.00715 114.27360 127.48727
130.0250 130.0043 118.0 0.00848 114.31160 127.39658
130.0410 130.0203 136.0 0.00736 114.34738 127.31248
130.0580 130.0373 127.0 0.00787 114.38535 127.22592
130.0750 130.0543 136.0 0.00736 114.42338 127.14180
130.0920 130.0713 119.0 0.00840 114.46138 127.06035
130.1080 130.0873 161.0 0.00621 114.49712 126.98608
130.1250 130.1043 127.0 0.00787 114.53516 126.90947
130.1420 130.1213 143.0 0.00699 114.57316 126.83530
130.1580 130.1373 147.0 0.00681 114.60890 126.76777
130.1750 130.1543 119.0 0.00840 114.64693 126.69815
130.1920 130.1713 120.0 0.00834 114.68490 126.64474
130.2090 130.1883 117.0 0.00854 114.72293 126.57972
130.2250 130.2043 123.0 0.00813 114.75871 126.52061
130.2420 130.2213 134.0 0.00746 114.79668 126.45987
130.2590 130.2383 130.0 0.00769 114.83471 126.40122
130.2750 130.2543 116.0 0.00862 114.86068 126.33823
130.2920 130.2713 125.0 0.00800 114.87958 126.26460
130.3090 130.2883 124.0 0.00806 114.89849 126.19293
130.3260 130.3053 124.0 0.00806 114.91740 126.12331
130.3420 130.3213 132.0 0.00757 114.93517 126.05968
130.3590 130.3383 125.0 0.00800 114.95409 125.99387
130.3760 130.3553 125.0 0.00800 114.97299 125.93005
130.3930 130.3723 126.0 0.00794 114.99189 125.86814
130.4090 130.3883 127.0 0.00787 115.00967 125.81163
130.4260 130.4053 119.0 0.00840 115.02859 125.75345
130.4430 130.4223 128.0 0.00782 115.04749 125.69712
130.4590 130.4383 143.0 0.00699 115.06526 125.64587
130.4760 130.4553 123.0 0.00813 115.08418 125.59324
130.4930 130.4723 136.0 0.00736 115.10305 125.54254
130.5100 130.4893 119.0 0.00840 115.12196 125.49364
130.5260 130.5053 137.0 0.00731 115.13976 125.44941
130.5430 130.5223 126.0 0.00794 115.15865 125.40431
130.5600 130.5393 142.0 0.00704 115.17756 125.36112
130.5760 130.5553 131.0 0.00763 115.19536 125.32227
130.5930 130.5723 140.0 0.00715 115.21424 125.28298
130.6100 130.5893 138.0 0.00724 115.23315 125.24632
130.6270 130.6063 116.0 0.00862 115.25206 125.21112
130.6430 130.6223 135.0 0.00741 115.26984 125.17994
130.6600 130.6393 145.0 0.00690 115.28875 125.14890
130.6770 130.6563 122.0 0.00819 115.30766 125.12010
130.6930 130.6723 114.0 0.00877 115.32543 125.09513
130.7100 130.6893 110.0 0.00909 115.34435 125.07085
130.7270 130.7063 112.0 0.00893 115.36324 125.04906
130.7440 130.7233 109.0 0.00917 115.38215 125.02979
130.7600 130.7393 113.0 0.00885 115.39993 125.01582
130.7770 130.7563 124.0 0.00806 115.41883 125.00179
130.7940 130.7733 125.0 0.00800 115.43774 124.99060
130.8100 130.7893 128.0 0.00782 115.45553 124.98279
130.8270 130.8063 111.0 0.00900 115.47443 124.97747
130.8440 130.8233 122.0 0.00819 115.49334 124.97537
130.8610 130.8403 120.0 0.00834 115.51224 124.97662
130.8770 130.8563 118.0 0.00848 115.53002 124.98103
130.8940 130.8733 116.0 0.00862 115.54892 124.98920
130.9110 130.8903 123.0 0.00813 115.56784 125.00122
130.9280 130.9073 111.0 0.00900 115.58674 125.01718
130.9440 130.9233 121.0 0.00826 115.60452 125.27930
130.9610 130.9403 130.0 0.00769 115.62341 125.30380
130.9780 130.9573 118.0 0.00848 115.64233 125.33272
130.9940 130.9733 135.0 0.00741 115.66011 125.36405
131.0110 130.9903 115.0 0.00870 115.67902 125.40191
131.0280 131.0073 127.0 0.00787 115.69790 125.44449
131.0450 131.0243 107.0 0.00935 115.71681 125.49199
131.0610 131.0403 129.0 0.00775 115.73461 125.54109
131.0780 131.0573 130.0 0.00769 115.75349 125.59796
131.0950 131.0743 108.0 0.00926 115.77241 125.65974
131.1110 131.0903 120.0 0.00834 115.79021 125.72227
131.1280 131.1073 139.0 0.00719 115.80909 125.79313
131.1450 131.1243 135.0 0.00741 115.82800 125.86874
131.1620 131.1413 118.0 0.00848 115.84690 125.94879
131.1780 131.1573 127.0 0.00787 115.86469 125.77972
131.1950 131.1743 126.0 0.00794 115.88360 125.86932
131.2120 131.1913 134.0 0.00746 115.90250 125.96323
131.2280 131.2073 114.0 0.00877 115.92027 126.05550
131.2450 131.2243 137.0 0.00731 115.93918 126.15801
131.2620 131.2413 111.0 0.00900 115.95808 126.26490
131.2790 131.2583 129.0 0.00775 115.97700 126.37643
131.2950 131.2743 95.0 0.01053 115.99477 126.48540
131.3120 131.2913 136.0 0.00736 116.01368 126.60545
131.3290 131.3083 143.0 0.00699 116.03259 126.72979
131.3450 131.3243 124.0 0.00806 116.05037 126.85014
131.3620 131.3413 133.0 0.00752 116.06927 126.98103
131.3790 131.3583 117.0 0.00854 116.08817 127.11427
131.3960 131.3753 130.0 0.00769 116.10709 127.24852
131.4120 131.3913 127.0 0.00787 116.12486 127.37436
131.4290 131.4083 111.0 0.00900 116.14377 127.50616
131.4460 131.4253 139.0 0.00719 116.16267 127.63361
131.4630 131.4423 130.0 0.00769 116.18159 127.75440
131.4790 131.4583 140.0 0.00715 116.19936 127.85953
131.4960 131.4753 145.0 0.00690 116.21826 127.99486
131.5130 131.4923 116.0 0.00862 116.23716 128.08018
131.5290 131.5083 119.0 0.00840 116.25496 128.14461
131.5460 131.5253 140.0 0.00715 116.27386 128.19386
131.5630 131.5423 131.0 0.00763 116.29276 128.22150
131.5790 131.5583 149.0 0.00671 116.31055 128.22652
131.5960 131.5753 126.0 0.00794 116.32945 128.20898
131.6130 131.5923 139.0 0.00719 116.34834 128.16808
131.6300 131.6093 111.0 0.00900 116.36726 128.10448
131.6460 131.6253 150.0 0.00666 116.38506 128.02534
131.6630 131.6423 129.0 0.00775 116.40394 127.92289
131.6800 131.6593 132.0 0.00757 116.42284 127.80358
131.6960 131.6753 125.0 0.00800 116.44063 127.67857
131.7130 131.6923 143.0 0.00699 116.45951 127.53502
131.7300 131.7093 157.0 0.00637 116.47843 127.38268
131.7470 131.7263 115.0 0.00870 116.49734 127.74211
131.7630 131.7423 121.0 0.00826 116.51511 127.59089
131.7800 131.7593 129.0 0.00775 116.53403 127.65784
131.7970 131.7763 130.0 0.00769 116.55293 127.49648
131.8140 131.7933 137.0 0.00731 116.57185 127.33698
131.8300 131.8093 148.0 0.00675 116.58962 127.19009
131.8470 131.8263 126.0 0.00794 116.60851 127.03836
131.8640 131.8433 119.0 0.00840 116.62743 126.89179
131.8800 131.8593 121.0 0.00826 116.64522 126.75951
131.8970 131.8763 143.0 0.00699 116.66410 126.62527
131.9140 131.8933 130.0 0.00769 116.68302 126.49786
131.9310 131.9103 147.0 0.00681 116.70192 126.37769
131.9470 131.9263 157.0 0.00637 116.71970 126.27139
131.9640 131.9433 123.0 0.00813 116.73862 126.16544
131.9810 131.9603 128.0 0.00782 116.75751 126.06695
131.9980 131.9773 132.0 0.00757 116.77641 125.97567
132.0140 131.9933 109.0 0.00917 116.79421 125.89632
132.0310 132.0103 111.0 0.00900 116.81311 125.81870
132.0480 132.0273 119.0 0.00840 116.83201 125.74778
132.0640 132.0433 131.0 0.00763 116.84981 125.68696
132.0810 132.0603 119.0 0.00840 116.86871 125.62827
132.0980 132.0773 138.0 0.00724 116.88760 125.57546
132.1140 132.0933 104.0 0.00961 116.90539 125.53082
132.1310 132.1103 124.0 0.00806 116.92430 125.48846
132.1480 132.1273 112.0 0.00893 116.94318 125.45109
132.1650 132.1443 136.0 0.00736 116.96209 125.41820
132.1810 132.1603 128.0 0.00782 116.97988 125.39117
132.1980 132.1773 130.0 0.00769 116.99876 125.36639
132.2150 132.1943 115.0 0.00870 117.01768 125.34525
132.2320 132.2113 134.0 0.00746 117.03658 125.32750
132.2480 132.2273 130.0 0.00769 117.05436 125.31370
132.2650 132.2443 122.0 0.00819 117.07328 125.30184
132.2820 132.2613 123.0 0.00813 117.09218 125.29266
132.2980 132.2773 138.0 0.00724 117.10995 125.28625
132.3150 132.2943 132.0 0.00757 117.12888 125.28165
132.3320 132.3113 144.0 0.00694 117.14776 125.27912
132.3490 132.3283 131.0 0.00763 117.16667 125.27851
132.3650 132.3443 132.0 0.00757 117.18447 125.27953
132.3820 132.3613 117.0 0.00854 117.20335 125.28217
132.3990 132.3783 117.0 0.00854 117.22227 125.28635
132.4150 132.3943 144.0 0.00694 117.24005 125.29150
132.4320 132.4113 123.0 0.00813 117.25895 125.29827
132.4490 132.4283 136.0 0.00736 117.27787 125.30621
132.4660 132.4453 143.0 0.00699 117.29677 125.31528
132.4820 132.4613 121.0 0.00826 117.31454 125.32475
132.4990 132.4783 135.0 0.00741 117.33347 125.37263
132.5160 132.4953 142.0 0.00704 117.35236 125.38469
132.5330 132.5123 141.0 0.00710 117.37126 125.39759
132.5490 132.5283 151.0 0.00662 117.38906 125.41052
132.5660 132.5453 141.0 0.00710 117.40796 125.42498
132.5830 132.5623 137.0 0.00731 117.42686 125.44026
132.5990 132.5783 138.0 0.00724 117.44464 125.45527
132.6160 132.5953 139.0 0.00719 117.46355 125.47191
132.6330 132.6123 114.0 0.00877 117.48245 125.48920
132.6490 132.6283 152.0 0.00658 117.50024 125.50608
132.6660 132.6453 119.0 0.00840 117.51913 125.52460
132.6830 132.6623 125.0 0.00800 117.53802 125.54374
132.7000 132.6793 121.0 0.00826 117.55693 125.56348
132.7160 132.6953 117.0 0.00854 117.57473 125.58261
132.7330 132.7123 136.0 0.00736 117.59361 125.60345
132.7500 132.7293 110.0 0.00909 117.61253 125.62488
132.7670 132.7463 128.0 0.00782 117.63143 125.64680
132.7830 132.7623 114.0 0.00877 117.64921 125.66792
132.8000 132.7793 121.0 0.00826 117.66813 125.69091
132.8170 132.7963 146.0 0.00685 117.68703 125.71438
132.8330 132.8123 111.0 0.00900 117.70480 125.73693
132.8500 132.8293 136.0 0.00736 117.72372 125.76139
132.8670 132.8463 127.0 0.00787 117.74261 125.78630
132.8840 132.8633 125.0 0.00800 117.76152 125.81173
132.9000 132.8793 133.0 0.00752 117.77930 125.83607
132.9170 132.8963 129.0 0.00775 117.79820 125.86241
132.9340 132.9133 122.0 0.00819 117.81712 125.88923
132.9500 132.9293 126.0 0.00794 117.83490 125.91486
132.9670 132.9463 127.0 0.00787 117.85380 125.94256
132.9840 132.9633 140.0 0.00715 117.87271 125.97070
133.0010 132.9803 127.0 0.00787 117.89162 125.99931
133.0170 132.9963 126.0 0.00794 117.90939 126.02661
133.0340 133.0133 118.0 0.00848 117.92829 126.05607
133.0510 133.0303 129.0 0.00775 117.94721 126.08597
133.0680 133.0473 122.0 0.00819 117.96611 126.11629
133.0840 133.0633 134.0 0.00746 117.98389 126.14523
133.1010 133.0803 136.0 0.00736 118.00281 126.17643
133.1180 133.0973 132.0 0.00757 118.02171 126.20802
133.1340 133.1133 119.0 0.00840 118.03948 126.23815
133.1510 133.1303 109.0 0.00917 118.05839 126.27059
133.1680 133.1473 131.0 0.00763 118.07727 126.30343
133.1850 133.1643 129.0 0.00775 118.09618 126.33673
133.2010 133.1803 128.0 0.00782 118.11398 126.36845
133.2180 133.1973 127.0 0.00787 118.13287 126.40253
133.2350 133.2143 124.0 0.00806 118.15178 126.43709
133.2510 133.2303 121.0 0.00826 118.16958 126.46998
133.2680 133.2473 146.0 0.00685 118.18846 126.50529
133.2850 133.2643 134.0 0.00746 118.20737 126.54108
133.3020 133.2813 110.0 0.00909 118.22628 126.57728
133.3180 133.2973 117.0 0.00854 118.24406 126.61173
133.3350 133.3143 124.0 0.00806 118.26297 126.64877
133.3520 133.3313 124.0 0.00806 118.28188 126.68620
133.3680 133.3473 127.0 0.00787 118.29964 126.72178
133.3850 133.3643 153.0 0.00654 118.31855 126.76006
133.4020 133.3813 108.0 0.00926 118.33746 126.79874
133.4190 133.3983 125.0 0.00800 118.35637 126.83788
133.4350 133.4143 146.0 0.00685 118.37415 126.87507
133.4520 133.4313 145.0 0.00690 118.39305 126.91502
133.4690 133.4483 113.0 0.00885 118.41196 126.95542
133.4850 133.4643 137.0 0.00731 118.42975 126.99380
133.5020 133.4813 120.0 0.00834 118.44865 127.03499
133.5190 133.4983 135.0 0.00741 118.46754 127.07665
133.5360 133.5153 130.0 0.00769 118.48646 127.11875
133.5520 133.5313 128.0 0.00782 118.50423 127.15873
133.5690 133.5483 134.0 0.00746 118.52314 127.20171
133.5860 133.5653 119.0 0.00840 118.54204 127.24509
133.6030 133.5823 139.0 0.00719 118.56096 127.28895
133.6190 133.5983 106.0 0.00943 118.57874 127.33058
133.6360 133.6153 128.0 0.00782 118.59763 127.37531
133.6530 133.6323 152.0 0.00658 118.61655 127.42046
133.6690 133.6483 127.0 0.00787 118.63433 127.46336
133.6860 133.6653 132.0 0.00757 118.65324 127.50941
133.7030 133.6823 106.0 0.00943 118.67212 127.55586
133.7200 133.6993 144.0 0.00694 118.69103 127.60286
133.7360 133.7153 137.0 0.00731 118.70883 127.64751
133.7530 133.7323 121.0 0.00826 118.72771 127.69533
133.7700 133.7493 154.0 0.00649 118.74663 127.74374
133.7860 133.7653 149.0 0.00671 118.76443 127.78968
133.8030 133.7823 148.0 0.00675 118.78331 127.83892
133.8200 133.7993 123.0 0.00813 118.80222 127.88873
133.8370 133.8163 174.0 0.00575 118.82112 127.93900
133.8530 133.8323 155.0 0.00645 118.83889 127.98669
133.8700 133.8493 138.0 0.00724 118.85780 128.03795
133.8870 133.8663 133.0 0.00752 118.87672 128.08969
133.9030 133.8823 142.0 0.00704 118.89449 128.13876
133.9200 133.8993 106.0 0.00943 118.91340 128.19151
133.9370 133.9163 122.0 0.00819 118.93230 128.24474
133.9540 133.9333 130.0 0.00769 118.95122 128.29849
133.9700 133.9493 118.0 0.00848 118.96899 128.34953
133.9870 133.9663 138.0 0.00724 118.98790 128.40428
134.0040 133.9833 138.0 0.00724 119.00680 128.45959
134.0200 133.9993 114.0 0.00877 119.02459 128.51213
134.0370 134.0163 145.0 0.00690 119.04347 128.56845
134.0540 134.0333 141.0 0.00710 119.06239 128.62538
134.0710 134.0503 120.0 0.00834 119.08129 128.68283
134.0870 134.0663 127.0 0.00787 119.09908 128.73738
134.1040 134.0833 134.0 0.00746 119.11799 128.79597
134.1210 134.1003 140.0 0.00715 119.13689 128.85506
134.1370 134.1163 142.0 0.00704 119.15467 128.91118
134.1540 134.1333 117.0 0.00854 119.17358 128.97147
134.1710 134.1503 127.0 0.00787 119.19248 129.03232
134.1880 134.1673 143.0 0.00699 119.21138 129.09373
134.2040 134.1833 142.0 0.00704 119.22918 129.15210
134.2210 134.2003 115.0 0.00870 119.24808 129.21472
134.2380 134.2173 128.0 0.00782 119.26696 129.27788
134.2550 134.2343 131.0 0.00763 119.28588 129.34175
134.2710 134.2503 135.0 0.00741 119.30367 129.40247
134.2880 134.2673 147.0 0.00681 119.32256 129.46748
134.3050 134.2843 127.0 0.00787 119.34146 129.53322
134.3210 134.3003 136.0 0.00736 119.35925 129.59572
134.3380 134.3173 121.0 0.00826 119.37814 129.66264
134.3550 134.3343 111.0 0.00900 119.39706 129.73035
134.3720 134.3513 122.0 0.00819 119.41597 129.79874
134.3880 134.3673 133.0 0.00752 119.43373 129.86360
134.4050 134.3843 146.0 0.00685 119.45265 129.93336
134.4220 134.4013 140.0 0.00715 119.47155 130.00375
134.4380 134.4173 139.0 0.00719 119.48933 130.07062
134.4550 134.4343 134.0 0.00746 119.50825 130.14244
134.4720 134.4513 130.0 0.00769 119.52715 130.21495
134.4880 134.4673 131.0 0.00763 119.54493 130.28384
134.5050 134.4843 152.0 0.00658 119.56384 130.35785
134.5220 134.5013 114.0 0.00877 119.58273 130.43253
134.5390 134.5183 138.0 0.00724 119.60165 130.50807
134.5550 134.5343 150.0 0.00666 119.61942 130.57979
134.5720 134.5513 121.0 0.00826 119.63832 130.65677
134.5890 134.5683 154.0 0.00649 119.65724 130.73466
134.6060 134.5853 130.0 0.00769 119.67614 130.81326
134.6220 134.6013 146.0 0.00685 119.69392 130.88795
134.6390 134.6183 139.0 0.00719 119.71284 130.96828
134.6560 134.6353 138.0 0.00724 119.73174 131.04933
134.6730 134.6523 150.0 0.00666 119.75063 131.13130
134.6890 134.6683 140.0 0.00715 119.76843 131.20921
134.7060 134.6853 139.0 0.00719 119.78733 131.29283
134.7230 134.7023 133.0 0.00752 119.80623 131.37741
134.7390 134.7183 136.0 0.00736 119.82401 131.45776
134.7560 134.7353 129.0 0.00775 119.84293 131.54411
134.7730 134.7523 139.0 0.00719 119.86181 131.63127
134.7900 134.7693 123.0 0.00813 119.88071 131.71953
134.8060 134.7853 111.0 0.00900 119.89851 131.80342
134.8230 134.8023 132.0 0.00757 119.91739 132.11859
134.8400 134.8193 144.0 0.00694 119.93631 132.21016
134.8560 134.8353 123.0 0.00813 119.95410 132.29716
134.8730 134.8523 122.0 0.00819 119.97298 132.39055
134.8900 134.8693 139.0 0.00719 119.99191 132.48509
134.9070 134.8863 151.0 0.00662 120.01080 132.58066
134.9230 134.9023 134.0 0.00746 120.02858 132.67148
134.9400 134.9193 136.0 0.00736 120.04750 132.76918
134.9570 134.9363 108.0 0.00926 120.06640 132.86795
134.9730 134.9523 130.0 0.00769 120.08418 132.96181
134.9900 134.9693 148.0 0.00675 120.10310 133.06282
135.0070 134.9863 166.0 0.00603 120.12198 133.16489
135.0240 135.0033 138.0 0.00724 120.14089 133.26825
135.0400 135.0193 137.0 0.00731 120.15868 133.36650
135.0570 135.0363 125.0 0.00800 120.17757 133.47208
135.0740 135.0533 121.0 0.00826 120.19649 133.57901
135.0900 135.0693 142.0 0.00704 120.21427 133.68073
135.1070 135.0863 154.0 0.00649 120.23317 133.79004
135.1240 135.1033 122.0 0.00819 120.25208 133.90073
135.1410 135.1203 133.0 0.00752 120.27099 134.01271
135.1570 135.1363 121.0 0.00826 120.28876 134.11920
135.1740 135.1533 135.0 0.00741 120.30769 134.23387
135.1910 135.1703 136.0 0.00736 120.32658 134.34984
135.2080 135.1873 160.0 0.00625 120.34548 134.46725
135.2240 135.2033 156.0 0.00641 120.36326 134.57903
135.2410 135.2203 132.0 0.00757 120.38218 134.69926
135.2580 135.2373 130.0 0.00769 120.40108 134.82098
135.2740 135.2533 117.0 0.00854 120.41886 134.93687
135.2910 135.2703 133.0 0.00752 120.43776 135.57239
135.3080 135.2873 115.0 0.00870 120.45664 135.69945
135.3250 135.3043 146.0 0.00685 120.47556 135.82828
135.3410 135.3203 146.0 0.00685 120.49335 135.95105
135.3580 135.3373 133.0 0.00752 120.51224 136.08289
135.3750 135.3543 156.0 0.00641 120.53115 136.21664
135.3910 135.3703 144.0 0.00694 120.54895 136.34409
135.4080 135.3873 136.0 0.00736 120.56783 136.48102
135.4250 135.4043 144.0 0.00694 120.58675 136.61993
135.4420 135.4213 138.0 0.00724 120.60565 136.76059
135.4580 135.4373 140.0 0.00715 120.62343 136.89455
135.4750 135.4543 135.0 0.00741 120.64235 137.03899
135.4920 135.4713 137.0 0.00731 120.66125 137.18521
135.5080 135.4873 144.0 0.00694 120.67902 137.32445
135.5250 135.5043 155.0 0.00645 120.69792 137.98210
135.5420 135.5213 142.0 0.00704 120.71683 138.13503
135.5590 135.5383 138.0 0.00724 120.73574 138.29024
135.5750 135.5543 126.0 0.00794 120.75352 138.43811
135.5920 135.5713 137.0 0.00731 120.77242 138.59732
135.6090 135.5883 140.0 0.00715 120.79134 138.75891
135.6250 135.6043 143.0 0.00699 120.80912 138.91289
135.6420 135.6213 132.0 0.00757 120.82802 139.07869
135.6590 135.6383 121.0 0.00826 120.84692 139.24699
135.6760 135.6553 143.0 0.00699 120.86584 139.41762
135.6920 135.6713 127.0 0.00787 120.88360 139.58025
135.7090 135.6883 131.0 0.00763 120.90251 139.75578
135.7260 135.7053 126.0 0.00794 120.92143 139.93373
135.7430 135.7223 149.0 0.00671 120.94033 140.11424
135.7590 135.7383 134.0 0.00746 120.95811 140.28650
135.7760 135.7553 139.0 0.00719 120.97701 140.47221
135.7930 135.7723 147.0 0.00681 120.99593 140.66069
135.8090 135.7883 132.0 0.00757 121.01370 140.84056
135.8260 135.8053 148.0 0.00675 121.03261 141.03456
135.8430 135.8223 163.0 0.00613 121.05151 141.23148
135.8590 135.8383 142.0 0.00704 121.06931 141.41953
135.8760 135.8553 166.0 0.00603 121.08820 141.62231
135.8930 135.8723 125.0 0.00800 121.10709 141.82800
135.9100 135.8893 140.0 0.00715 121.12600 142.03728
135.9260 135.9053 129.0 0.00775 121.14380 142.23712
135.9430 135.9223 154.0 0.00649 121.16268 142.45242
135.9600 135.9393 157.0 0.00637 121.18159 142.67149
135.9760 135.9553 133.0 0.00752 121.19939 142.88084
135.9930 135.9723 154.0 0.00649 121.21826 143.10638
136.0100 135.9893 140.0 0.00715 121.23717 143.33601
136.0270 136.0063 154.0 0.00649 121.25610 143.56923
136.0430 136.0223 136.0 0.00736 121.27386 143.79196
136.0600 136.0393 165.0 0.00606 121.29277 144.03282
136.0770 136.0563 147.0 0.00681 121.31168 144.27742
136.0940 136.0733 131.0 0.00763 121.33059 144.52637
136.1100 136.0893 146.0 0.00685 121.34837 144.76427
136.1270 136.1063 150.0 0.00666 121.36727 145.02119
136.1440 136.1233 140.0 0.00715 121.38617 145.28278
136.1600 136.1393 152.0 0.00658 121.40397 145.53288
136.1770 136.1563 157.0 0.00637 121.42285 145.80301
136.1940 136.1733 166.0 0.00603 121.44176 146.07819
136.2110 136.1903 129.0 0.00775 121.46066 146.35802
136.2270 136.2063 155.0 0.00645 121.47845 146.62567
136.2440 136.2233 157.0 0.00637 121.49736 146.91542
136.2610 136.2403 146.0 0.00685 121.51626 147.21024
136.2770 136.2563 137.0 0.00731 121.53404 147.49229
136.2940 136.2733 145.0 0.00690 121.55296 147.79774
136.3110 136.2903 135.0 0.00741 121.57185 148.10869
136.3280 136.3073 146.0 0.00685 121.59076 148.42532
136.3440 136.3233 136.0 0.00736 121.60855 148.72865
136.3610 136.3403 151.0 0.00662 121.62746 149.05693
136.3780 136.3573 152.0 0.00658 121.64635 149.39143
136.3940 136.3733 167.0 0.00599 121.66413 149.71194
136.4110 136.3903 152.0 0.00658 121.68305 150.05899
136.4280 136.4073 146.0 0.00685 121.70193 150.41235
136.4450 136.4243 134.0 0.00746 121.72085 150.77318
136.4610 136.4403 152.0 0.00658 121.73863 151.11922
136.4780 136.4573 154.0 0.00649 121.75751 151.49339
136.4950 136.4743 163.0 0.00613 121.77643 151.87575
136.5120 136.4913 142.0 0.00704 121.79534 152.26555
136.5280 136.5073 142.0 0.00704 121.81311 152.63927
136.5450 136.5243 156.0 0.00641 121.83202 153.04485
136.5620 136.5413 143.0 0.00699 121.85092 153.45854
136.5780 136.5573 144.0 0.00694 121.86871 153.85547
136.5950 136.5743 142.0 0.00704 121.88762 154.28632
136.6120 136.5913 171.0 0.00585 121.90652 154.72580
136.6290 136.6083 159.0 0.00629 121.92542 155.17517
136.6450 136.6243 129.0 0.00775 121.94321 155.60652
136.6620 136.6413 144.0 0.00694 121.96210 156.07431
136.6790 136.6583 138.0 0.00724 121.98102 156.55286
136.6950 136.6743 139.0 0.00719 121.99881 157.01251
136.7120 136.6913 167.0 0.00599 122.01769 157.51120
136.7290 136.7083 167.0 0.00599 122.03661 158.02168
136.7460 136.7253 163.0 0.00613 122.05551 158.54333
136.7620 136.7413 141.0 0.00710 122.07329 159.04474
136.7790 136.7583 138.0 0.00724 122.09221 159.59010
136.7960 136.7753 149.0 0.00671 122.11111 160.14781
136.8120 136.7913 141.0 0.00710 122.12889 160.68404
136.8290 136.8083 159.0 0.00629 122.14780 161.26772
136.8460 136.8253 167.0 0.00599 122.16670 161.86494
136.8630 136.8423 154.0 0.00649 122.18560 162.47635
136.8790 136.8583 142.0 0.00704 122.20338 163.06519
136.8960 136.8753 167.0 0.00599 122.22230 163.70580
136.9130 136.8923 179.0 0.00559 122.24120 163.53963
136.9290 136.9083 136.0 0.00736 122.25898 164.17482
136.9460 136.9253 174.0 0.00575 122.27788 164.86620
136.9630 136.9423 160.0 0.00625 122.29676 165.57419
136.9800 136.9593 171.0 0.00585 122.31568 166.30138
136.9960 136.9753 181.0 0.00553 122.33347 167.00259
137.0130 136.9923 181.0 0.00553 122.35236 167.76523
137.0300 137.0093 165.0 0.00606 122.37128 168.54913
137.0470 137.0263 159.0 0.00629 122.39017 169.35320
137.0630 137.0423 177.0 0.00565 122.40795 170.12877
137.0800 137.0593 141.0 0.00710 122.42687 170.97552
137.0970 137.0763 188.0 0.00532 122.44577 171.84479
137.1130 137.0923 165.0 0.00606 122.46355 172.68385
137.1300 137.1093 153.0 0.00654 122.48247 173.60068
137.1470 137.1263 169.0 0.00592 122.50135 174.54193
137.1640 137.1433 148.0 0.00675 122.52026 175.51093
137.1800 137.1593 169.0 0.00592 122.53805 176.44724
137.1970 137.1763 167.0 0.00599 122.55695 177.46959
137.2140 137.1933 181.0 0.00553 122.57587 178.52293
137.2300 137.2093 154.0 0.00649 122.59364 179.54155
137.2470 137.2263 195.0 0.00513 122.61254 180.65479
137.2640 137.2433 169.0 0.00592 122.63146 181.80272
137.2810 137.2603 159.0 0.00629 122.65036 182.98477
137.2970 137.2763 198.0 0.00505 122.66814 184.12927
137.3140 137.2933 162.0 0.00617 122.68706 185.38377
137.3310 137.3103 199.0 0.00502 122.70596 186.67688
137.3470 137.3263 196.0 0.00510 122.72372 187.93002
137.3640 137.3433 178.0 0.00562 122.74264 189.30513
137.3810 137.3603 209.0 0.00478 122.76155 190.72404
137.3980 137.3773 185.0 0.00541 122.78045 192.18961
137.4140 137.3933 203.0 0.00492 122.79823 193.61288
137.4310 137.4103 189.0 0.00529 122.81713 195.17520
137.4480 137.4273 172.0 0.00582 122.83604 196.79091
137.4640 137.4433 202.0 0.00495 122.85383 198.36215
137.4810 137.4603 176.0 0.00568 122.87273 200.08911
137.4980 137.4773 204.0 0.00490 122.89161 201.87578
137.5150 137.4943 212.0 0.00472 122.91053 203.73048
137.5310 137.5103 202.0 0.00495 122.92832 205.53809
137.5480 137.5273 200.0 0.00500 122.94720 207.52588
137.5650 137.5443 186.0 0.00537 122.96613 209.59348
137.5820 137.5613 199.0 0.00502 122.98502 211.74074
137.5980 137.5773 189.0 0.00529 123.00280 213.83798
137.6150 137.5943 200.0 0.00500 123.02172 216.15826
137.6320 137.6113 213.0 0.00470 123.04062 218.57428
137.6480 137.6273 203.0 0.00492 123.05840 220.94048
137.6650 137.6443 213.0 0.00470 123.07730 223.56610
137.6820 137.6613 223.0 0.00449 123.09620 226.30751
137.6990 137.6783 212.0 0.00472 123.11511 229.17998
137.7150 137.6943 192.0 0.00521 123.13290 232.00684
137.7320 137.7113 254.0 0.00394 123.15179 235.15399
137.7490 137.7283 223.0 0.00449 123.17071 238.46588
137.7650 137.7443 241.0 0.00415 123.18849 241.73947
137.7820 137.7613 255.0 0.00392 123.20739 245.40094
137.7990 137.7783 251.0 0.00399 123.22630 249.27330
137.8160 137.7953 236.0 0.00424 123.24521 253.36903
137.8320 137.8113 245.0 0.00408 123.26297 257.44482
137.8490 137.8283 244.0 0.00410 123.28188 262.04337
137.8660 137.8453 273.0 0.00366 123.30080 266.93414
137.8820 137.8613 255.0 0.00392 123.31857 271.82693
137.8990 137.8783 259.0 0.00386 123.33748 277.37659
137.9160 137.8953 243.0 0.00411 123.35638 283.31012
137.9330 137.9123 244.0 0.00410 123.37530 289.66833
137.9490 137.9283 291.0 0.003436 123.39308 296.07462
137.9660 137.9453 309.0 0.003236 123.41198 303.37717
137.9830 137.9623 303.0 0.003299 123.43086 311.22604
138.0000 137.9793 320.0 0.003124 123.44978 319.69623
138.0160 137.9953 315.0 0.003174 123.46758 328.27097
138.0330 138.0123 307.0 0.003258 123.48646 338.06732
138.0500 138.0293 350.0 0.002857 123.50537 348.66367
138.0660 138.0453 307.0 0.003258 123.52317 359.40927
138.0830 138.0623 408.0 0.002451 123.54205 371.70023
138.1000 138.0793 374.0 0.002674 123.56097 385.00323
138.1170 138.0963 404.0 0.002475 123.57987 399.36710
138.1330 138.1123 384.0 0.002603 123.59765 413.91870
138.1500 138.1293 401.0 0.002495 123.61655 430.59555
138.1670 138.1463 438.0 0.002283 123.63547 448.57330
138.1830 138.1623 432.0 0.002316 123.65323 466.74890
138.2000 138.1793 466.0 0.002145 123.67214 487.52615
138.2170 138.1963 464.0 0.002155 123.69105 509.85516
138.2330 138.2123 505.0 0.001981 123.70882 532.35254
138.2500 138.2293 522.0 0.001915 123.72775 557.97131
138.2670 138.2463 560.0 0.001786 123.74664 585.36664
138.2840 138.2633 555.0 0.001802 123.76554 614.67780
138.3000 138.2793 550.0 0.001819 123.78334 644.02173
138.3170 138.2963 654.0 0.001529 123.80222 677.14581
138.3340 138.3133 703.0 0.001423 123.82114 712.37640
138.3510 138.3303 691.0 0.001447 123.84006 749.69843
138.3670 138.3463 731.0 0.001368 123.85782 786.74414
138.3840 138.3633 739.0 0.001354 123.87673 828.25940
138.4010 138.3803 815.0 0.001227 123.89564 871.90552
138.4170 138.3963 883.0 0.001132 123.91341 914.88843
138.4340 138.4133 886.0 0.001128 123.93233 962.65289
138.4510 138.4303 994.0 0.001006 123.95123 1012.40259
138.4680 138.4473 955.0 0.001047 123.97013 1064.05847
138.4840 138.4633 1056.0 0.000947 123.98793 1114.27344
138.5010 138.4803 1090.0 0.000917 124.00683 1169.19385
138.5180 138.4973 1140.0 0.000877 124.02571 1225.42932
138.5350 138.5143 1168.0 0.000856 124.04462 1282.88403
138.5510 138.5303 1230.0 0.000813 124.06242 1337.69556
138.5680 138.5473 1314.0 0.000761 124.08131 1396.32715
138.5850 138.5643 1369.0 0.000730 124.10022 1455.18115
138.6010 138.5803 1448.0 0.000691 124.11802 1510.30273
138.6180 138.5973 1609.0 0.000622 124.13689 1568.11804
138.6350 138.6143 1552.0 0.000644 124.15580 1624.92004
138.6520 138.6313 1670.0 0.000599 124.17472 1680.15356
138.6680 138.6473 1713.0 0.000584 124.19248 1730.32605
138.6850 138.6643 1778.0 0.000562 124.21140 1781.48877
138.7020 138.6813 1759.0 0.000569 124.23029 1830.00159
138.7180 138.6973 1884.0 0.000531 124.24808 1872.96924
138.7350 138.7143 1866.0 0.000536 124.26699 1915.64038
138.7520 138.7313 1944.0 0.000514 124.28590 1954.93457
138.7680 138.7473 2043.0 0.000489 124.30367 1988.65503
138.7850 138.7643 2093.0 0.000478 124.32259 2020.92932
138.8020 138.7813 2090.0 0.000478 124.34147 2049.26709
138.8190 138.7983 2195.0 0.000456 124.36039 2073.52319
138.8350 138.8143 2195.0 0.000456 124.37819 2092.36133
138.8520 138.8313 2237.0 0.000447 124.39707 2107.90186
138.8690 138.8483 2208.0 0.000453 124.41599 2118.55859
138.8860 138.8653 2278.0 0.000439 124.43488 2123.99829
138.9020 138.8813 2376.0 0.000421 124.45267 2124.09375
138.9190 138.8983 2322.0 0.000431 124.47158 2118.59692
138.9360 138.9153 2301.0 0.000435 124.49048 2107.13232
138.9520 138.9313 2167.0 0.000461 124.50826 2090.79395
138.9690 138.9483 2197.0 0.000455 124.52718 2067.47363
138.9860 138.9653 2061.0 0.000485 124.54607 2038.15393
139.0030 138.9823 2064.0 0.000485 124.56498 2003.05212
139.0190 138.9983 2061.0 0.000485 124.58276 1965.06226
139.0360 139.0153 1979.0 0.000505 124.60168 1919.84631
139.0530 139.0323 1993.0 0.000502 124.62056 1870.24438
139.0700 139.0493 1852.0 0.000540 124.63947 1816.72644
139.0860 139.0653 1794.0 0.000557 124.65725 1763.45862
139.1030 139.0823 1709.0 0.000585 124.67613 1704.48535
139.1200 139.0993 1541.0 0.000649 124.69505 1643.51990
139.1360 139.1153 1510.0 0.000662 124.71138 1584.99292
139.1530 139.1323 1502.0 0.000666 124.72454 1522.21252
139.1700 139.1493 1424.0 0.000702 124.73773 1459.14709
139.1870 139.1663 1324.0 0.000755 124.75090 1396.41602
139.2030 139.1823 1292.0 0.000774 124.76330 1338.07703
139.2200 139.1993 1185.0 0.000844 124.77648 1277.02356
139.2370 139.2163 1178.0 0.000849 124.78966 1217.36047
139.2530 139.2323 1156.0 0.000865 124.80205 1162.72229
139.2700 139.2493 1057.0 0.000946 124.81524 1106.32983
139.2870 139.2663 1033.0 0.000968 124.82840 1051.96277
139.3040 139.2833 937.0 0.001067 124.84158 999.62109
139.3200 139.2993 927.0 0.001079 124.85399 952.39270
139.3370 139.3163 842.0 0.001187 124.86716 904.39325
139.3540 139.3333 848.0 0.001179 124.88034 858.61462
139.3700 139.3493 853.0 0.001172 124.89273 817.65985
139.3870 139.3663 871.0 0.001148 124.90591 776.37036
139.4040 139.3833 708.0 0.001412 124.91910 737.29950
139.4210 139.4003 762.0 0.001313 124.93227 700.48022
139.4370 139.4163 698.0 0.001433 124.94466 667.85101
139.4540 139.4333 703.0 0.001423 124.95785 635.19196
139.4710 139.4503 619.0 0.001615 124.97102 604.61084
139.4870 139.4663 649.0 0.001540 124.98341 577.66772
139.5040 139.4833 619.0 0.001615 124.99659 550.84808
139.5210 139.5003 578.0 0.001730 125.00978 525.86816
139.5380 139.5173 564.0 0.001773 125.02295 502.62402
139.5540 139.5333 594.0 0.001684 125.03535 482.25891
139.5710 139.5503 473.0 0.002114 125.04852 462.12463
139.5880 139.5673 531.0 0.001884 125.06168 443.47870
139.6050 139.5843 485.0 0.002062 125.07487 426.17770
139.6210 139.6003 495.0 0.002020 125.08727 411.07813
139.6380 139.6173 473.0 0.002114 125.10043 396.22269
139.6550 139.6343 434.0 0.002305 125.11362 382.46158
139.6710 139.6503 465.0 0.002151 125.12603 370.46384
139.6880 139.6673 443.0 0.002257 125.13919 358.66620
139.7050 139.6843 414.0 0.002415 125.15237 347.73672
139.7220 139.7013 433.0 0.002309 125.16555 337.63086
139.7380 139.7173 422.0 0.002370 125.17795 328.81424
139.7550 139.7343 413.0 0.002422 125.19113 320.10159
139.7720 139.7513 381.0 0.002624 125.20431 312.02621
139.7880 139.7673 385.0 0.002598 125.21670 304.96091
139.8050 139.7843 377.0 0.002652 125.22987 297.95566
139.8220 139.8013 330.0 0.003029 125.24305 291.44119
139.8390 139.8183 345.0 0.002900 125.25623 285.35938
139.8550 139.8343 339.0 0.002950 125.26863 280.00723
139.8720 139.8513 334.0 0.002993 125.28180 274.67691
139.8890 139.8683 324.0 0.003086 125.29499 269.67471
139.9050 139.8843 320.0 0.003124 125.30738 265.24982
139.9220 139.9013 328.0 0.003049 125.32056 260.81964
139.9390 139.9183 321.0 0.003114 125.33374 256.63943
139.9560 139.9353 303.0 0.003299 125.34692 252.69472
139.9720 139.9513 279.0 0.00359 125.35930 249.18057
139.9890 139.9683 292.0 0.003424 125.37248 245.63170
140.0060 139.9853 257.0 0.00389 125.38567 242.26566
140.0220 140.0013 274.0 0.00365 125.39806 239.25272
140.0390 140.0183 274.0 0.00365 125.41124 236.19615
140.0560 140.0353 249.0 0.00402 125.42442 233.28416
140.0730 140.0523 232.0 0.00431 125.43760 230.50453
140.0890 140.0683 262.0 0.00382 125.45000 228.00183
140.1060 140.0853 250.0 0.00400 125.46317 225.45332
140.1230 140.1023 258.0 0.00388 125.47633 223.01509
140.1400 140.1193 261.0 0.00383 125.48952 220.67340
140.1560 140.1353 230.0 0.00435 125.50192 218.55655
140.1730 140.1523 221.0 0.00452 125.51508 216.39682
140.1900 140.1693 238.0 0.00420 125.52827 214.31732
140.2060 140.1853 233.0 0.00429 125.54068 212.43333
140.2230 140.2023 208.0 0.00481 125.55384 210.50719
140.2400 140.2193 228.0 0.00439 125.56702 208.64891
140.2570 140.2363 218.0 0.00459 125.58020 206.85924
140.2730 140.2523 232.0 0.00431 125.59259 205.23515
140.2900 140.2693 216.0 0.00463 125.60577 203.56619
140.3070 140.2863 187.0 0.00535 125.61896 201.95645
140.3230 140.3023 208.0 0.00481 125.63134 200.49364
140.3400 140.3193 206.0 0.00486 125.64452 198.98859
140.3570 140.3363 192.0 0.00521 125.65770 197.53596
140.3740 140.3533 177.0 0.00565 125.67088 196.13028
140.3900 140.3693 193.0 0.00518 125.68327 194.85094
140.4070 140.3863 183.0 0.00546 125.69645 193.53506
140.4240 140.4033 212.0 0.00472 125.70964 192.26044
140.4400 140.4193 186.0 0.00537 125.72203 191.09926
140.4570 140.4363 197.0 0.00507 125.73519 189.90385
140.4740 140.4533 190.0 0.00527 125.74838 188.74489
140.4910 140.4703 199.0 0.00502 125.76157 187.62273
140.5070 140.4863 189.0 0.00529 125.77395 186.59940
140.5240 140.5033 191.0 0.00524 125.78713 185.54295
140.5410 140.5203 215.0 0.00465 125.80031 184.51933
140.5570 140.5363 185.0 0.00541 125.81271 183.58508
140.5740 140.5533 180.0 0.00555 125.82589 182.61996
140.5910 140.5703 165.0 0.00606 125.83907 181.68410
140.6080 140.5873 186.0 0.00537 125.85223 180.77589
140.6240 140.6033 187.0 0.00535 125.86464 179.94583
140.6410 140.6203 188.0 0.00532 125.87782 179.08846
140.6580 140.6373 163.0 0.00613 125.89099 178.25592
140.6740 140.6533 179.0 0.00559 125.90340 177.49448
140.6910 140.6703 172.0 0.00582 125.91657 176.70758
140.7080 140.6873 169.0 0.00592 125.92973 175.94382
140.7250 140.7043 154.0 0.00649 125.94292 175.20030
140.7410 140.7203 221.0 0.00452 125.95532 174.51970
140.7580 140.7373 176.0 0.00568 125.96849 173.81703
140.7750 140.7543 187.0 0.00535 125.98167 173.13258
140.7920 140.7713 169.0 0.00592 125.99485 172.46732
140.8080 140.7873 154.0 0.00649 126.00723 171.85831
140.8250 140.8043 181.0 0.00553 126.02042 171.22731
140.8420 140.8213 166.0 0.00603 126.03359 170.61366
140.8580 140.8373 159.0 0.00629 126.04598 170.05164
140.8750 140.8543 168.0 0.00595 126.05917 169.46906
140.8920 140.8713 168.0 0.00595 126.07235 168.90253
140.9090 140.8883 189.0 0.00529 126.08552 168.35033
140.9250 140.9043 171.0 0.00585 126.09792 167.84425
140.9420 140.9213 151.0 0.00662 126.11109 167.32028
140.9590 140.9383 162.0 0.00617 126.12428 166.80933
140.9750 140.9543 159.0 0.00629 126.13668 166.34091
140.9920 140.9713 140.0 0.00715 126.14984 165.85574
141.0090 140.9883 183.0 0.00546 126.16303 165.38242
141.0260 141.0053 169.0 0.00592 126.17620 164.92136
141.0420 141.0213 163.0 0.00613 126.18860 164.49857
141.0590 141.0383 159.0 0.00629 126.20178 164.05960
141.0760 141.0553 166.0 0.00603 126.21496 163.63196
141.0920 141.0713 167.0 0.00599 126.22735 163.23962
141.1090 141.0883 166.0 0.00603 126.24054 162.83217
141.1260 141.1053 161.0 0.00621 126.25372 162.43513
141.1430 141.1223 170.0 0.00588 126.26688 162.04790
141.1590 141.1383 175.0 0.00571 126.27928 161.69231
141.1760 141.1553 148.0 0.00675 126.29247 161.32333
141.1930 141.1723 160.0 0.00625 126.30564 160.96344
141.2090 141.1883 174.0 0.00575 126.31803 160.63281
141.2260 141.2053 152.0 0.00658 126.33122 160.28981
141.2430 141.2223 151.0 0.00662 126.34437 159.95541
141.2600 141.2393 175.0 0.00571 126.35756 159.62860
141.2760 141.2553 146.0 0.00685 126.36996 159.32831
141.2930 141.2723 152.0 0.00658 126.38313 159.01721
141.3100 141.2893 134.0 0.00746 126.39631 158.71301
141.3270 141.3063 140.0 0.00715 126.40948 158.41634
141.3430 141.3223 158.0 0.00633 126.42188 158.14391
141.3600 141.3393 144.0 0.00694 126.43507 157.86069
141.3770 141.3563 147.0 0.00681 126.44824 157.58441
141.3930 141.3723 154.0 0.00649 126.46063 157.33066
141.4100 141.3893 144.0 0.00694 126.47382 157.06694
141.4270 141.4063 151.0 0.00662 126.48698 156.80977
141.4440 141.4233 137.0 0.00731 126.50017 156.55843
141.4600 141.4393 156.0 0.00641 126.51257 156.32762
141.4770 141.4563 150.0 0.00666 126.52573 156.08806
141.4940 141.4733 155.0 0.00645 126.53893 155.85393
141.5100 141.4893 156.0 0.00641 126.55132 155.63893
141.5270 141.5063 143.0 0.00699 126.56449 155.41580
141.5440 141.5233 155.0 0.00645 126.57767 155.19778
141.5610 141.5403 163.0 0.00613 126.59085 154.98505
141.5770 141.5563 142.0 0.00704 126.60325 154.78973
141.5940 141.5733 152.0 0.00658 126.61643 154.58670
141.6110 141.5903 174.0 0.00575 126.62961 154.38869
141.6270 141.6063 153.0 0.00654 126.64200 154.20680
141.6440 141.6233 135.0 0.00741 126.65517 154.01779
141.6610 141.6403 137.0 0.00731 126.66836 153.83350
141.6780 141.6573 181.0 0.00553 126.68153 153.65369
141.6940 141.6733 173.0 0.00578 126.69393 153.48853
141.7110 141.6903 156.0 0.00641 126.70710 153.31709
141.7280 141.7073 138.0 0.00724 126.72029 153.14989
141.7440 141.7233 162.0 0.00617 126.73268 152.99637
141.7610 141.7403 166.0 0.00603 126.74586 152.83710
141.7780 141.7573 171.0 0.00585 126.75902 152.68196
141.7950 141.7743 131.0 0.00763 126.77221 152.53049
141.8110 141.7903 131.0 0.00763 126.78461 152.39139
141.8280 141.8073 135.0 0.00741 126.79778 152.24750
141.8450 141.8243 161.0 0.00621 126.81096 152.10703
141.8620 141.8413 152.0 0.00658 126.82413 151.97026
141.8780 141.8573 146.0 0.00685 126.83652 151.84483
141.8950 141.8743 158.0 0.00633 126.84972 151.71477
141.9120 141.8913 136.0 0.00736 126.86289 151.58820
141.9280 141.9073 136.0 0.00736 126.87528 151.47231
141.9450 141.9243 172.0 0.00582 126.88847 151.35211
141.9620 141.9413 165.0 0.00606 126.90163 151.23534
141.9790 141.9583 144.0 0.00694 126.91482 151.12158
141.9950 141.9743 137.0 0.00731 126.92721 151.01753
142.0120 141.9913 148.0 0.00675 126.94038 150.90999
142.0290 142.0083 136.0 0.00736 126.95358 150.80539
142.0450 142.0243 158.0 0.00633 126.96597 150.70973
142.0620 142.0413 163.0 0.00613 126.97914 150.61099
142.0790 142.0583 155.0 0.00645 126.99232 150.51514
142.0960 142.0753 152.0 0.00658 127.00550 150.42212
142.1120 142.0913 138.0 0.00724 127.01789 150.33730
142.1290 142.1083 161.0 0.00621 127.03107 150.24968
142.1460 142.1253 162.0 0.00617 127.04426 150.16496
142.1620 142.1413 153.0 0.00654 127.05664 150.08768
142.1790 142.1583 153.0 0.00654 127.06982 150.00809
142.1960 142.1753 175.0 0.00571 127.08300 149.93126
142.2130 142.1923 144.0 0.00694 127.09618 149.85701
142.2290 142.2083 165.0 0.00606 127.10857 149.78954
142.2460 142.2253 147.0 0.00681 127.12175 149.72026
142.2630 142.2423 159.0 0.00629 127.13491 149.65367
142.2800 142.2593 144.0 0.00694 127.14810 149.58945
142.2960 142.2753 143.0 0.00699 127.16051 149.53128
142.3130 142.2923 147.0 0.00681 127.17367 149.47197
142.3300 142.3093 158.0 0.00633 127.18685 149.41501
142.3460 142.3253 146.0 0.00685 127.19926 149.36357
142.3630 142.3423 129.0 0.00775 127.21243 149.31139
142.3800 142.3593 145.0 0.00690 127.22561 149.26147
142.3970 142.3763 151.0 0.00662 127.23878 149.21397
142.4130 142.3923 151.0 0.00662 127.25117 149.17146
142.4300 142.4093 157.0 0.00637 127.26435 149.12842
142.4470 142.4263 141.0 0.00710 127.27753 149.08780
142.4630 142.4423 164.0 0.00609 127.28992 149.05171
142.4800 142.4593 155.0 0.00645 127.30311 149.01555
142.4970 142.4763 150.0 0.00666 127.31629 148.98169
142.5130 142.4923 153.0 0.00654 127.32867 148.95193
142.5300 142.5093 162.0 0.00617 127.34186 148.92255
142.5470 142.5263 122.0 0.00819 127.35503 148.89543
142.5640 142.5433 150.0 0.00666 127.36822 148.87057
142.5800 142.5593 153.0 0.00654 127.38062 148.84929
142.5970 142.5763 158.0 0.00633 127.39378 148.82890
142.6140 142.5933 141.0 0.00710 127.40696 148.81076
142.6310 142.6103 134.0 0.00746 127.42015 148.79497
142.6470 142.6263 144.0 0.00694 127.43253 148.78218
142.6640 142.6433 137.0 0.00731 127.44572 148.77092
142.6810 142.6603 153.0 0.00654 127.45889 148.76193
142.6970 142.6763 130.0 0.00769 127.47128 148.75565
142.7140 142.6933 157.0 0.00637 127.48447 148.75131
142.7310 142.7103 136.0 0.00736 127.49764 148.74937
142.7480 142.7273 150.0 0.00666 127.51082 148.74986
142.7640 142.7433 162.0 0.00617 127.52322 148.75262
142.7810 142.7603 139.0 0.00719 127.53640 148.75798
142.7980 142.7773 156.0 0.00641 127.54956 148.76591
142.8150 142.7943 146.0 0.00685 127.56275 148.77644
142.8310 142.8103 151.0 0.00662 127.57516 148.78883
142.8480 142.8273 144.0 0.00694 127.58832 148.80464
142.8650 142.8443 133.0 0.00752 127.60150 148.82324
142.8810 142.8603 150.0 0.00666 127.61391 148.84346
142.8980 142.8773 145.0 0.00690 127.62708 148.86780
142.9150 142.8943 174.0 0.00575 127.64024 148.89516
142.9320 142.9113 147.0 0.00681 127.65343 148.92574
142.9480 142.9273 137.0 0.00731 127.66582 148.95752
142.9650 142.9443 124.0 0.00806 127.67900 148.99463
142.9820 142.9613 153.0 0.00654 127.69218 149.03528
142.9980 142.9773 134.0 0.00746 127.70457 149.07689
143.0150 142.9943 137.0 0.00731 127.71776 149.12489
143.0320 143.0113 147.0 0.00681 127.73093 149.17683
143.0480 143.0273 151.0 0.00662 127.74332 149.22951
143.0650 143.0443 137.0 0.00731 127.75651 149.28989
143.0820 143.0613 153.0 0.00654 127.76967 149.35468
143.0990 143.0783 144.0 0.00694 127.78286 149.42441
143.1150 143.0943 113.0 0.00885 127.79527 149.49452
143.1320 143.1113 154.0 0.00649 127.80843 149.57405
143.1490 143.1283 173.0 0.00578 127.82161 149.65916
143.1660 143.1453 148.0 0.00675 127.83479 149.74994
143.1820 143.1613 144.0 0.00694 127.84718 149.84076
143.1990 143.1783 137.0 0.00731 127.86037 149.94345
143.2160 143.1953 135.0 0.00741 127.87354 150.05260
143.2320 143.2113 136.0 0.00736 127.88593 150.15942
143.2490 143.2283 154.0 0.00649 127.89912 150.28198
143.2660 143.2453 169.0 0.00592 127.91229 150.41185
143.2830 143.2623 135.0 0.00741 127.92547 150.54929
143.2990 143.2783 159.0 0.00629 127.93787 150.68573
143.3160 143.2953 147.0 0.00681 127.95105 150.83864
143.3330 143.3123 162.0 0.00617 127.96421 150.99965
143.3500 143.3293 149.0 0.00671 127.97740 151.16956
143.3660 143.3453 160.0 0.00625 127.98981 151.33746
143.3830 143.3623 168.0 0.00595 128.00296 151.52428
143.4000 143.3793 156.0 0.00641 128.01614 151.72060
143.4160 143.3953 146.0 0.00685 128.02855 151.91382
143.4330 143.4123 157.0 0.00637 128.04170 152.12796
143.4500 143.4293 170.0 0.00588 128.05490 152.35194
143.4670 143.4463 150.0 0.00666 128.06807 152.58531
143.4830 143.4623 153.0 0.00654 128.08046 152.81352
143.5000 143.4793 141.0 0.00710 128.09364 153.06549
143.5170 143.4963 142.0 0.00704 128.10683 153.32675
143.5330 143.5123 142.0 0.00704 128.11922 153.58075
143.5500 143.5293 152.0 0.00658 128.13240 153.85973
143.5670 143.5463 146.0 0.00685 128.14558 154.14717
143.5830 143.5623 135.0 0.00741 128.15797 154.42499
143.6000 143.5793 149.0 0.00671 128.17116 154.72810
143.6170 143.5963 158.0 0.00633 128.18433 155.03807
143.6340 143.6133 170.0 0.00588 128.19751 155.35490
143.6500 143.6293 172.0 0.00582 128.20990 155.65805
143.6670 143.6463 160.0 0.00625 128.22307 155.98473
143.6840 143.6633 157.0 0.00637 128.23627 156.31577
143.7010 143.6803 130.0 0.00769 128.24944 156.64929
143.7170 143.6963 143.0 0.00699 128.26183 156.96442
143.7340 143.7133 147.0 0.00681 128.27501 157.30011
143.7510 143.7303 148.0 0.00675 128.28819 157.63466
143.7670 143.7463 151.0 0.00662 128.30058 157.94717
143.7840 143.7633 146.0 0.00685 128.31375 158.27611
143.8010 143.7803 153.0 0.00654 128.32695 158.59972
143.8180 143.7973 156.0 0.00641 128.34012 158.91675
143.8340 143.8133 151.0 0.00662 128.35251 159.20776
143.8510 143.8303 145.0 0.00690 128.36569 159.50809
143.8680 143.8473 148.0 0.00675 128.37885 159.79744
143.8850 143.8643 181.0 0.00553 128.39203 160.07555
143.9010 143.8803 153.0 0.00654 128.40443 160.32552
143.9180 143.8973 144.0 0.00694 128.41760 160.57739
143.9350 143.9143 140.0 0.00715 128.43079 160.81538
143.9510 143.9303 147.0 0.00681 128.44319 161.02570
143.9680 143.9473 169.0 0.00592 128.45636 161.23428
143.9850 143.9643 157.0 0.00637 128.46954 161.42813
144.0020 143.9813 153.0 0.00654 128.48271 161.60715
144.0180 143.9973 156.0 0.00641 128.49512 161.76268
144.0350 144.0143 181.0 0.00553 128.50830 161.91524
144.0520 144.0313 138.0 0.00724 128.52147 162.05574
144.0680 144.0473 162.0 0.00617 128.53386 162.17812
144.0850 144.0643 146.0 0.00685 128.54706 162.29958
144.1020 144.0813 152.0 0.00658 128.56021 162.41379
144.1190 144.0983 174.0 0.00575 128.57339 162.52290
144.1350 144.1143 141.0 0.00710 128.58580 162.62273
144.1520 144.1313 151.0 0.00662 128.59897 162.72800
144.1690 144.1483 167.0 0.00599 128.61215 162.83473
144.1850 144.1643 151.0 0.00662 128.62454 162.93839
144.2020 144.1813 146.0 0.00685 128.63773 163.05418
144.2190 144.1983 168.0 0.00595 128.65091 163.17812
144.2360 144.2153 159.0 0.00629 128.66408 163.31223
144.2520 144.2313 186.0 0.00537 128.67648 163.44952
144.2690 144.2483 162.0 0.00617 128.68965 163.60948
144.2860 144.2653 147.0 0.00681 128.70284 163.78561
144.3020 144.2813 166.0 0.00603 128.71523 163.96765
144.3190 144.2983 148.0 0.00675 128.72841 164.18074
144.3360 144.3153 193.0 0.00518 128.74158 164.41536
144.3530 144.3323 161.0 0.00621 128.75476 164.67337
144.3690 144.3483 175.0 0.00571 128.76717 164.93910
144.3860 144.3653 148.0 0.00675 128.78033 165.24744
144.4030 144.3823 161.0 0.00621 128.79350 165.58385
144.4200 144.3993 159.0 0.00629 128.80669 165.95108
144.4360 144.4153 172.0 0.00582 128.81909 166.32576
144.4530 144.4323 166.0 0.00603 128.83224 166.75594
144.4700 144.4493 150.0 0.00666 128.84544 167.22234
144.4860 144.4653 165.0 0.00606 128.85785 167.69528
144.5030 144.4823 165.0 0.00606 128.87100 168.23529
144.5200 144.4993 176.0 0.00568 128.88419 168.81757
144.5370 144.5163 161.0 0.00621 128.89737 169.44315
144.5530 144.5323 166.0 0.00603 128.90976 170.07312
144.5700 144.5493 157.0 0.00637 128.92294 170.79037
144.5870 144.5663 185.0 0.00541 128.93613 171.55801
144.6030 144.5823 173.0 0.00578 128.94850 172.32845
144.6200 144.5993 170.0 0.00588 128.96169 173.20297
144.6370 144.6163 154.0 0.00649 128.97487 174.13565
144.6540 144.6333 190.0 0.00527 128.98805 175.13171
144.6700 144.6493 177.0 0.00565 129.00044 176.12837
144.6870 144.6663 170.0 0.00588 129.01361 177.25400
144.7040 144.6833 167.0 0.00599 129.02681 178.45367
144.7200 144.6993 165.0 0.00606 129.03920 179.65152
144.7370 144.7163 163.0 0.00613 129.05237 181.00189
144.7540 144.7333 187.0 0.00535 129.06555 182.43825
144.7700 144.7493 191.0 0.00524 129.07796 183.86986
144.7870 144.7663 181.0 0.00553 129.09111 185.48059
144.8040 144.7833 181.0 0.00553 129.10429 187.19061
144.8210 144.8003 201.0 0.00497 129.11748 189.00157
144.8370 144.8163 179.0 0.00559 129.12987 190.80148
144.8540 144.8333 159.0 0.00629 129.14305 192.82462
144.8710 144.8503 175.0 0.00571 129.15623 194.96220
144.8880 144.8673 212.0 0.00472 129.16940 197.21999
144.9040 144.8833 218.0 0.00459 129.18181 199.45793
144.9210 144.9003 230.0 0.00435 129.19498 201.96164
144.9380 144.9173 206.0 0.00486 129.20816 204.59836
144.9540 144.9333 209.0 0.00478 129.22057 207.20403
144.9710 144.9503 220.0 0.00455 129.23373 210.10980
144.9880 144.9673 186.0 0.00537 129.24690 213.15550
145.0050 144.9843 202.0 0.00495 129.26009 216.35295
145.0210 145.0003 253.0 0.00395 129.27249 219.49728
145.0380 145.0173 239.0 0.00418 129.28566 222.97932
145.0550 145.0343 227.0 0.00440 129.29883 226.61887
145.0710 145.0503 226.0 0.00443 129.31123 230.18225
145.0880 145.0673 246.0 0.00407 129.32440 234.11006
145.1050 145.0843 212.0 0.00472 129.33759 238.19536
145.1220 145.1013 208.0 0.00481 129.35077 242.42697
145.1380 145.1173 240.0 0.00417 129.36316 246.53876
145.1550 145.1343 250.0 0.00400 129.37634 251.05212
145.1720 145.1513 250.0 0.00400 129.38951 255.69724
145.1890 145.1683 234.0 0.00427 129.40269 260.47870
145.2050 145.1843 286.0 0.003497 129.41508 265.08774
145.2220 145.2013 244.0 0.00410 129.42825 270.09586
145.2390 145.2183 271.0 0.00369 129.44144 275.21579
145.2550 145.2343 276.0 0.00362 129.45384 280.11685
145.2720 145.2513 283.0 0.00353 129.46701 285.40335
145.2890 145.2683 298.0 0.003357 129.48019 290.76501
145.3050 145.2843 283.0 0.00353 129.49258 295.85571
145.3220 145.3013 305.0 0.003280 129.50577 301.29919
145.3390 145.3183 302.0 0.003311 129.51895 306.76752
145.3560 145.3353 313.0 0.003196 129.53212 312.23087
145.3720 145.3513 289.0 0.003460 129.54453 317.34644
145.3890 145.3683 333.0 0.003002 129.55771 322.74518
145.4060 145.3853 322.0 0.003107 129.57088 328.07031
145.4230 145.4023 307.0 0.003258 129.58405 333.29916
145.4390 145.4183 331.0 0.003022 129.59645 338.10754
145.4560 145.4353 316.0 0.003163 129.60963 343.07449
145.4730 145.4523 352.0 0.002841 129.62280 347.86765
145.4890 145.4683 365.0 0.002741 129.63521 352.19498
145.5060 145.4853 396.0 0.002525 129.64839 356.57700
145.5230 145.5023 406.0 0.002463 129.66154 360.70688
145.5400 145.5193 354.0 0.002826 129.67473 364.57401
145.5560 145.5353 348.0 0.002875 129.68713 367.94717
145.5730 145.5523 402.0 0.002488 129.70029 371.22739
145.5900 145.5693 407.0 0.002458 129.71347 374.18829
145.6070 145.5863 371.0 0.002696 129.72665 376.80789
145.6230 145.6023 422.0 0.002370 129.73904 378.95016
145.6400 145.6193 403.0 0.002483 129.75223 380.87839
145.6570 145.6363 391.0 0.002559 129.76541 382.43555
145.6730 145.6523 409.0 0.002446 129.77780 383.55701
145.6900 145.6693 418.0 0.002391 129.79099 384.38220
145.7070 145.6863 389.0 0.002571 129.80415 384.82611
145.7240 145.7033 399.0 0.002508 129.81734 384.89084
145.7400 145.7193 400.0 0.002500 129.82974 384.60803
145.7570 145.7363 400.0 0.002500 129.84291 383.94745
145.7740 145.7533 418.0 0.002391 129.85609 382.92130
145.7900 145.7693 444.0 0.002253 129.86848 381.63086
145.8070 145.7863 387.0 0.002585 129.88165 379.92383
145.8240 145.8033 375.0 0.002668 129.89484 377.87811
145.8400 145.8193 365.0 0.002741 129.90724 375.65753
145.8570 145.8363 387.0 0.002585 129.92041 372.99490
145.8740 145.8533 390.0 0.002564 129.93359 370.02844
145.8910 145.8703 381.0 0.002624 129.94678 366.77655
145.9070 145.8863 366.0 0.002733 129.95917 363.47003
145.9240 145.9033 366.0 0.002733 129.97235 359.70123
145.9410 145.9203 341.0 0.002931 129.98552 355.69315
145.9580 145.9373 371.0 0.002696 129.99870 351.46158
145.9740 145.9533 357.0 0.002802 130.01109 347.29330
145.9910 145.9703 338.0 0.002960 130.02428 342.68369
146.0080 145.9873 336.0 0.002976 130.03746 337.91052
146.0240 146.0033 382.0 0.002619 130.04985 333.29065
146.0410 146.0203 355.0 0.002817 130.06302 328.26541
146.0580 146.0373 357.0 0.002802 130.07619 323.15106
146.0750 146.0543 329.0 0.003039 130.08937 317.95670
146.0910 146.0703 310.0 0.003225 130.10178 313.02597
146.1080 146.0873 346.0 0.002891 130.11494 307.77005
146.1250 146.1043 283.0 0.00353 130.12813 302.50208
146.1420 146.1213 294.0 0.003400 130.14130 297.25510
146.1580 146.1373 288.0 0.003472 130.15370 292.35568
146.1750 146.1543 296.0 0.003380 130.16689 287.19562
146.1920 146.1713 285.0 0.00351 130.18005 282.11005
146.2080 146.1873 310.0 0.003225 130.19244 277.40649
146.2250 146.2043 269.0 0.00372 130.20564 272.49713
146.2420 146.2213 276.0 0.00362 130.21880 267.70294
146.2590 146.2383 252.0 0.00397 130.23198 263.02255
146.2750 146.2543 269.0 0.00372 130.24438 258.73749
146.2920 146.2713 258.0 0.00388 130.25755 254.31467
146.3090 146.2883 249.0 0.00402 130.27074 250.02489
146.3250 146.3043 240.0 0.00417 130.28313 246.12054
146.3420 146.3213 257.0 0.00389 130.29631 242.11270
146.3590 146.3383 257.0 0.00389 130.30949 238.24582
146.3750 146.3543 239.0 0.00418 130.32188 234.74304
146.3920 146.3713 224.0 0.00446 130.33507 231.16333
146.4090 146.3883 252.0 0.00397 130.34824 227.72409
146.4260 146.4053 214.0 0.00467 130.36142 224.42975
146.4420 146.4213 241.0 0.00415 130.37381 221.46059
146.4590 146.4383 219.0 0.00457 130.38699 218.43509
146.4760 146.4553 236.0 0.00424 130.40018 215.54655
146.4930 146.4723 243.0 0.00411 130.41335 212.78972
146.5090 146.4883 223.0 0.00449 130.42575 210.31311
146.5260 146.5053 235.0 0.00426 130.43892 207.80173
146.5430 146.5223 214.0 0.00467 130.45209 205.41371
146.5600 146.5393 234.0 0.00427 130.46527 203.13824
146.5760 146.5553 206.0 0.00486 130.47768 201.10037
146.5930 146.5723 191.0 0.00524 130.49083 199.04330
146.6100 146.5893 210.0 0.00476 130.50403 197.08730
146.6260 146.6053 172.0 0.00582 130.51643 195.33871
146.6430 146.6223 175.0 0.00571 130.52959 193.57689
146.6600 146.6393 222.0 0.00450 130.54277 191.90445
146.6770 146.6563 212.0 0.00472 130.55595 190.32140
146.6930 146.6723 187.0 0.00535 130.56834 188.90997
146.7100 146.6893 188.0 0.00532 130.58153 187.48648
146.7270 146.7063 189.0 0.00529 130.59471 186.14079
146.7430 146.7223 184.0 0.00544 130.60709 184.94261
146.7600 146.7393 199.0 0.00502 130.62027 183.73546
146.7770 146.7563 201.0 0.00497 130.63345 182.59561
146.7930 146.7723 224.0 0.00446 130.64584 181.58160
146.8100 146.7893 189.0 0.00529 130.65903 180.56094
146.8270 146.8063 174.0 0.00575 130.67220 179.59856
146.8440 146.8233 199.0 0.00502 130.68539 178.68921
146.8600 146.8393 193.0 0.00518 130.69778 177.88089
146.8770 146.8563 202.0 0.00495 130.71095 177.06947
146.8940 146.8733 201.0 0.00497 130.72414 176.30305
146.9110 146.8903 216.0 0.00463 130.73732 175.58066
146.9270 146.9063 170.0 0.00588 130.74969 174.93881
146.9440 146.9233 182.0 0.00550 130.76288 174.29361
146.9610 146.9403 173.0 0.00578 130.77606 173.68550
146.9770 146.9563 178.0 0.00562 130.78845 173.14536
146.9940 146.9733 172.0 0.00582 130.80164 172.60237
147.0110 146.9903 175.0 0.00571 130.81482 172.09067
147.0280 147.0073 168.0 0.00595 130.82800 171.60808
147.0440 147.0233 161.0 0.00621 130.84039 171.17918
147.0610 147.0403 168.0 0.00595 130.85356 170.74849
147.0780 147.0573 166.0 0.00603 130.86674 170.34238
147.0940 147.0733 187.0 0.00535 130.87915 169.98143
147.1110 147.0903 178.0 0.00562 130.89232 169.61893
147.1280 147.1073 153.0 0.00654 130.90549 169.27745
147.1450 147.1243 156.0 0.00641 130.91867 168.95490
147.1610 147.1403 179.0 0.00559 130.93108 168.66817
147.1780 147.1573 164.0 0.00609 130.94424 168.38086
147.1950 147.1743 175.0 0.00571 130.95743 168.10951
147.2120 147.1913 162.0 0.00617 130.97060 167.85387
147.2280 147.2073 163.0 0.00613 130.98299 167.62694
147.2450 147.2243 165.0 0.00606 130.99617 167.39902
147.2620 147.2413 153.0 0.00654 131.00935 167.18449
147.2780 147.2573 164.0 0.00609 131.02173 166.99428
147.2950 147.2743 182.0 0.00550 131.03493 166.80348
147.3120 147.2913 186.0 0.00537 131.04810 166.62416
147.3280 147.3073 180.0 0.00555 131.06049 166.46542
147.3450 147.3243 185.0 0.00541 131.07367 166.30655
147.3620 147.3413 182.0 0.00550 131.08685 166.15771
147.3790 147.3583 165.0 0.00606 131.10002 166.01808
147.3950 147.3743 190.0 0.00527 131.11243 165.89503
147.4120 147.3913 162.0 0.00617 131.12560 165.77264
147.4290 147.4083 169.0 0.00592 131.13878 165.65843
147.4460 147.4253 177.0 0.00565 131.15195 165.55208
147.4620 147.4413 169.0 0.00592 131.16435 165.45909
147.4790 147.4583 169.0 0.00592 131.17754 165.36723
147.4960 147.4753 165.0 0.00606 131.19070 165.28242
147.5120 147.4913 182.0 0.00550 131.20309 165.20891
147.5290 147.5083 149.0 0.00671 131.21629 165.13699
147.5460 147.5253 180.0 0.00555 131.22946 165.07147
147.5630 147.5423 148.0 0.00675 131.24263 165.01201
147.5790 147.5583 176.0 0.00568 131.25504 164.96150
147.5960 147.5753 171.0 0.00585 131.26822 164.91335
147.6130 147.5923 169.0 0.00592 131.28139 164.87073
147.6290 147.6083 163.0 0.00613 131.29378 164.83554
147.6460 147.6253 165.0 0.00606 131.30698 164.80328
147.6630 147.6423 186.0 0.00537 131.32013 164.77606
147.6800 147.6593 143.0 0.00699 131.33331 164.75375
147.6960 147.6753 135.0 0.00741 131.34572 164.73720
147.7130 147.6923 158.0 0.00633 131.35887 164.72418
147.7300 147.7093 180.0 0.00555 131.37206 164.71565
147.7470 147.7263 142.0 0.00704 131.38525 164.71169
147.7630 147.7423 166.0 0.00603 131.39763 164.71187
147.7800 147.7593 134.0 0.00746 131.41081 164.71628
147.7970 147.7763 158.0 0.00633 131.42400 164.72478
147.8130 147.7923 157.0 0.00637 131.43639 164.73650
147.8300 147.8093 159.0 0.00629 131.44957 164.75290
147.8470 147.8263 163.0 0.00613 131.46274 164.77316
147.8630 147.8423 155.0 0.00645 131.47514 164.79578
147.8800 147.8593 164.0 0.00609 131.48833 164.82347
147.8970 147.8763 165.0 0.00606 131.50148 164.85484
147.9140 147.8933 179.0 0.00559 131.51468 164.88985
147.9300 147.9093 192.0 0.00521 131.52707 164.92606
147.9470 147.9263 158.0 0.00633 131.54024 164.96793
147.9640 147.9433 148.0 0.00675 131.55342 165.01326
147.9810 147.9603 152.0 0.00658 131.56660 165.06204
147.9970 147.9763 154.0 0.00649 131.57899 165.11092
148.0140 147.9933 172.0 . . .
148.0310 148.0103 179.0 . . .
148.0470 148.0263 163.0 . . .
148.0640 148.0433 163.0 . . .
148.0810 148.0603 138.0 . . .
148.0980 148.0773 152.0 . . .
148.1140 148.0933 144.0 . . .
148.1310 148.1103 155.0 . . .
148.1480 148.1273 157.0 . . .
148.1640 148.1433 148.0 . . .
148.1810 148.1603 176.0 . . .
148.1980 148.1773 170.0 . . .
148.2150 148.1943 139.0 . . .
148.2310 148.2103 134.0 . . .
148.2480 148.2273 164.0 . . .
148.2650 148.2443 150.0 . . .
148.2820 148.2613 148.0 . . .
148.2980 148.2773 140.0 . . .
148.3150 148.2943 155.0 . . .
148.3320 148.3113 157.0 . . .
148.3480 148.3273 162.0 . . .
148.3650 148.3443 163.0 . . .
148.3820 148.3613 208.0 . . .
148.3990 148.3783 151.0 . . .
148.4150 148.3943 174.0 . . .
148.4320 148.4113 150.0 . . .
148.4490 148.4283 166.0 . . .
148.4650 148.4443 153.0 . . .
148.4820 148.4613 176.0 . . .
148.4990 148.4783 155.0 . . .
148.5160 148.4953 155.0 . . .
148.5320 148.5113 160.0 . . .
148.5490 148.5283 180.0 . . .
148.5660 148.5453 156.0 . . .
148.5820 148.5613 166.0 . . .
148.5990 148.5783 131.0 . . .
148.6160 148.5953 177.0 . . .
148.6330 148.6123 196.0 . . .
148.6490 148.6283 167.0 . . .
148.6660 148.6453 150.0 . . .
148.6830 148.6623 139.0 . . .
148.6990 148.6783 184.0 . . .
148.7160 148.6953 183.0 . . .
148.7330 148.7123 166.0 . . .
148.7500 148.7293 180.0 . . .
148.7660 148.7453 149.0 . . .
148.7830 148.7623 157.0 . . .
148.8000 148.7793 171.0 . . .
148.8170 148.7963 164.0 . . .
148.8330 148.8123 164.0 . . .
148.8500 148.8293 168.0 . . .
148.8670 148.8463 172.0 . . .
148.8830 148.8623 153.0 . . .
148.9000 148.8793 173.0 . . .
148.9170 148.8963 177.0 . . .
148.9340 148.9133 172.0 . . .
148.9500 148.9293 169.0 . . .
148.9670 148.9463 172.0 . . .
148.9840 148.9633 168.0 . . .
149.0000 148.9793 150.0 . . .
149.0170 148.9963 172.0 . . .
149.0340 149.0133 175.0 . . .
149.0500 149.0293 179.0 . . .
149.0670 149.0463 173.0 . . .
149.0840 149.0633 168.0 . . .
149.1010 149.0803 175.0 . . .
149.1170 149.0963 179.0 . . .
149.1340 149.1133 195.0 . . .
149.1510 149.1303 146.0 . . .
149.1680 149.1473 177.0 . . .
149.1840 149.1633 181.0 . . .
149.2010 149.1803 150.0 . . .
149.2180 149.1973 170.0 . . .
149.2340 149.2133 165.0 . . .
149.2510 149.2303 167.0 . . .
149.2680 149.2473 166.0 . . .
149.2850 149.2643 179.0 . . .
149.3010 149.2803 166.0 . . .
149.3180 149.2973 147.0 . . .
149.3350 149.3143 171.0 . . .
149.3510 149.3303 174.0 . . .
149.3680 149.3473 169.0 . . .
149.3850 149.3643 174.0 . . .
149.4020 149.3813 181.0 . . .
149.4180 149.3973 169.0 . . .
149.4350 149.4143 150.0 . . .
149.4520 149.4313 152.0 . . .
149.4690 149.4483 173.0 . . .
149.4850 149.4643 171.0 . . .
149.5020 149.4813 157.0 . . .
149.5190 149.4983 178.0 . . .
149.5350 149.5143 165.0 . . .
149.5520 149.5313 167.0 . . .
149.5690 149.5483 140.0 . . .
149.5850 149.5643 171.0 . . .
149.6020 149.5813 167.0 . . .
149.6190 149.5983 172.0 . . .
149.6360 149.6153 173.0 . . .
149.6520 149.6313 159.0 . . .
149.6690 149.6483 158.0 . . .
149.6860 149.6653 176.0 . . .
149.7030 149.6823 182.0 . . .
149.7190 149.6983 180.0 . . .
149.7360 149.7153 194.0 . . .
149.7530 149.7323 170.0 . . .
149.7690 149.7483 166.0 . . .
149.7860 149.7653 169.0 . . .
149.8030 149.7823 186.0 . . .
149.8200 149.7993 198.0 . . .
149.8360 149.8153 188.0 . . .
149.8530 149.8323 157.0 . . .
149.8700 149.8493 189.0 . . .
149.8870 149.8663 166.0 . . .
149.9030 149.8823 189.0 . . .
149.9200 149.8993 194.0 . . .
149.9370 149.9163 182.0 . . .
149.9530 149.9323 150.0 . . .
149.9700 149.9493 189.0 . . .
149.9870 149.9663 178.0 . . .
150.0040 149.9833 188.0 . . .
150.0200 149.9993 172.0 . . .
150.0370 150.0163 171.0 . . .
150.0540 150.0333 200.0 . . .
150.0700 150.0493 190.0 . . .
150.0870 150.0663 177.0 . . .
150.1040 150.0833 160.0 . . .
150.1200 150.0993 139.0 . . .
150.1370 150.1163 165.0 . . .
150.1540 150.1333 170.0 . . .
150.1710 150.1503 175.0 . . .
150.1870 150.1663 173.0 . . .
150.2040 150.1833 170.0 . . .
150.2210 150.2003 198.0 . . .
150.2380 150.2173 185.0 . . .
150.2540 150.2333 183.0 . . .
150.2710 150.2503 170.0 . . .
150.2880 150.2673 182.0 . . .
150.3040 150.2833 168.0 . . .
150.3210 150.3003 190.0 . . .
150.3380 150.3173 173.0 . . .
150.3550 150.3343 183.0 . . .
150.3710 150.3503 172.0 . . .
150.3880 150.3673 174.0 . . .
150.4050 150.3843 185.0 . . .
150.4220 150.4013 176.0 . . .
150.4380 150.4173 197.0 . . .
150.4550 150.4343 187.0 . . .
150.4720 150.4513 181.0 . . .
150.4880 150.4673 192.0 . . .
150.5050 150.4843 161.0 . . .
150.5220 150.5013 201.0 . . .
150.5390 150.5183 183.0 . . .
150.5550 150.5343 204.0 . . .
150.5720 150.5513 174.0 . . .
150.5890 150.5683 183.0 . . .
150.6050 150.5843 185.0 . . .
150.6220 150.6013 172.0 . . .
150.6390 150.6183 169.0 . . .
150.6550 150.6343 194.0 . . .
150.6720 150.6513 190.0 . . .
150.6890 150.6683 171.0 . . .
150.7060 150.6853 187.0 . . .
150.7220 150.7013 176.0 . . .
150.7390 150.7183 216.0 . . .
150.7560 150.7353 209.0 . . .
150.7730 150.7523 211.0 . . .
150.7890 150.7683 189.0 . . .
150.8060 150.7853 181.0 . . .
150.8230 150.8023 172.0 . . .
150.8390 150.8183 196.0 . . .
150.8560 150.8353 213.0 . . .
150.8730 150.8523 189.0 . . .
150.8900 150.8693 195.0 . . .
150.9060 150.8853 232.0 . . .
150.9230 150.9023 220.0 . . .
150.9400 150.9193 218.0 . . .
150.9570 150.9363 194.0 . . .
150.9730 150.9523 199.0 . . .
150.9900 150.9693 197.0 . . .
151.0070 150.9863 207.0 . . .
151.0230 151.0023 206.0 . . .
151.0400 151.0193 209.0 . . .
151.0570 151.0363 190.0 . . .
151.0740 151.0533 207.0 . . .
151.0900 151.0693 232.0 . . .
151.1070 151.0863 193.0 . . .
151.1240 151.1033 237.0 . . .
151.1400 151.1193 207.0 . . .
151.1570 151.1363 236.0 . . .
151.1740 151.1533 204.0 . . .
151.1900 151.1693 224.0 . . .
151.2070 151.1863 194.0 . . .
151.2240 151.2033 200.0 . . .
151.2410 151.2203 246.0 . . .
151.2570 151.2363 229.0 . . .
151.2740 151.2533 210.0 . . .
151.2910 151.2703 224.0 . . .
151.3080 151.2873 228.0 . . .
151.3240 151.3033 235.0 . . .
151.3410 151.3203 234.0 . . .
151.3580 151.3373 220.0 . . .
151.3740 151.3533 216.0 . . .
151.3910 151.3703 244.0 . . .
151.4080 151.3873 251.0 . . .
151.4250 151.4043 244.0 . . .
151.4410 151.4203 252.0 . . .
151.4580 151.4373 246.0 . . .
151.4750 151.4543 210.0 . . .
151.4920 151.4713 238.0 . . .
151.5080 151.4873 245.0 . . .
151.5250 151.5043 230.0 . . .
151.5420 151.5213 241.0 . . .
loop_
_refln_index_h
_refln_index_k
_refln_index_l
_refln_observed_status
_refln_F_squared_meas
_refln_F_squared_calc
_refln_phase_calc
_refln_d_spacing
_gsas_i100_meas
0 0 2 o 23630.557 24177.758 0.00 4.03559 12.08
1 1 0 o 19975.225 20791.492 0.00 4.02852 16.81
2 0 0 o 101400.09 101138.17 0.00 2.84859 60.45
1 1 2 o 104833.98 105288.41 0.00 2.85109 100.00
2 1 1 o 658.419 114.764 0.00 2.42968 1.06
2 0 2 o 3012.366 3709.751 0.00 2.32723 0.82
0 0 4 o 134679.02 127963.77 0.00 2.01780 17.91
2 2 0 o 130152.07 125985.91 0.00 2.01426 29.21
2 1 3 o 83.616 71.949 0.00 1.84995 0.07
3 1 0 o 14889.084 14664.767 0.00 1.80161 4.82
1 1 4 o 14539.433 14141.904 0.00 1.80414 4.44
2 2 2 o 15436.530 15218.351 0.00 1.80224 4.31
2 0 4 o 74217.78 71785.68 0.00 1.64656 21.12
3 1 2 o 76399.05 75015.36 0.00 1.64512 43.99
3 2 1 o 833.383 42.014 0.00 1.55068 0.47
4 0 0 o 84302.39 85752.66 0.00 1.42430 10.46
2 2 4 o 85946.09 86855.58 0.00 1.42555 17.07
4 1 1 o 131.927 131.858 180.00 1.36196 0.07
2 1 5 o 36.337 35.643 0.00 1.36360 0.02
3 2 3 o 29.285 30.524 0.00 1.36250 0.01
0 0 6 o 11977.989 11769.350 0.00 1.34520 0.50
4 0 2 o 11094.273 11068.567 0.00 1.34310 1.76
3 3 0 o 10121.772 10108.786 0.00 1.34284 0.68
3 1 4 o 11136.316 11075.063 0.00 1.34389 3.14
1 1 6 o 56269.44 56468.82 0.00 1.27594 9.55
4 2 0 o 56564.64 56318.63 0.00 1.27393 9.19
3 3 2 o 55069.56 55024.04 0.00 1.27415 8.18
4 1 3 o 72.788 100.557 180.00 1.22914 0.03
2 0 6 o 4197.402 4081.854 0.00 1.21639 0.41
4 2 2 o 4516.633 4428.273 0.00 1.21484 0.85
4 0 4 o 64985.03 64669.96 0.00 1.16361 8.88
4 3 1 o 92.812 68.285 0.00 1.12825 0.03
5 1 0 o 8330.301 8264.616 0.00 1.11731 0.96
3 2 5 o 27.980 18.443 0.00 1.12918 0.01
2 2 6 o 9018.210 8954.421 0.00 1.11867 0.91
3 3 4 o 8050.283 8046.744 0.00 1.11791 0.74
5 1 2 o 44084.47 44458.30 0.00 1.07680 11.57
3 1 6 o 45319.98 45488.16 0.00 1.07788 10.82
4 2 4 o 44517.28 44914.49 0.00 1.07721 10.29
5 2 1 o 11.284 10.784 180.00 1.04897 0.00
2 1 7 o 18.722 17.592 0.00 1.05047 0.01
4 1 5 o 64.503 65.152 180.00 1.04972 0.02
4 3 3 o 55.801 55.836 0.00 1.04922 0.02
0 0 8 o 52169.54 52296.12 0.00 1.00890 1.74
4 4 0 o 51362.92 50333.82 0.00 1.00713 2.91
1 1 8 o 6824.271 6932.214 0.00 0.97867 0.67
5 3 0 o 7561.497 7563.614 0.00 0.97706 0.70
5 2 3 o 9.841 9.044 180.00 0.98456 0.00
4 0 6 o 7018.225 7097.985 0.00 0.97797 0.62
5 1 4 o 6717.249 6760.648 0.00 0.97746 1.22
4 4 2 o 6765.345 6795.048 0.00 0.97716 0.57
6 0 0 o 37909.89 37474.00 0.00 0.94953 2.71
2 0 8 o 35658.89 36108.38 0.00 0.95101 4.47
5 3 2 o 38459.22 38191.27 0.00 0.94962 9.00
3 3 6 o 35839.88 36090.07 0.00 0.95036 4.04
6 1 1 o 100.411 92.339 0.00 0.93037 0.04
3 2 7 o 12.769 10.816 0.00 0.93141 0.00
4 3 5 o 44.957 40.075 0.00 0.93089 0.01
6 0 2 o 3894.190 3610.556 0.00 0.92429 0.38
4 2 6 o 3634.744 3396.473 0.00 0.92497 0.57
6 2 0 o 40680.28 40734.78 0.00 0.90080 5.88
2 2 8 o 40848.60 42238.60 0.00 0.90207 5.52
4 4 4 o 40738.76 41134.58 0.00 0.90112 5.03
6 1 3 o 79.160 80.371 0.00 0.88454 0.03
5 4 1 o 24.878 24.967 0.00 0.88439 0.01
4 1 7 o 37.789 40.678 180.00 0.88529 0.01
5 2 5 o 6.435 6.737 180.00 0.88484 0.00
6 2 2 o 5893.774 5563.797 0.00 0.87917 1.35
3 1 8 o 6139.018 5941.295 0.00 0.88027 1.35
5 3 4 o 6624.649 6308.392 0.00 0.87939 1.41
6 0 4 o 31824.949 31197.502 0.00 0.85916 5.05
5 1 6 o 30873.609 30377.369 0.00 0.85950 9.07
6 3 1 o 74.433 60.794 180.00 0.84462 0.03
2 1 9 o 9.240 9.681 0.00 0.84593 0.00
5 4 3 o 26.795 22.026 0.00 0.84475 0.01
6 2 4 o 34607.340 33930.730 0.00 0.82256 13.87
0 0 10 o 5291.629 5306.584 0.00 0.80712 0.26
4 0 8 o 34695.402 34811.863 0.00 0.82328 6.80
7 1 0 o 5290.086 5148.991 0.00 0.80570 1.13
6 3 3 o 47.889 54.226 180.00 0.80989 0.03
5 5 0 o 4504.641 4385.140 0.00 0.80570 0.37
4 3 7 o 23.926 27.434 0.00 0.81047 0.01
6 1 5 o 55.294 63.238 0.00 0.81012 0.03
3 3 8 o 4795.245 4746.611 0.00 0.80661 0.82
4 4 6 o 4975.738 4876.855 0.00 0.80621 0.83
