#------------------------------------------------------------------------------
#$Date: 2016-02-16 03:10:39 +0200 (Tue, 16 Feb 2016) $
#$Revision: 176453 $
#$URL: svn://www.crystallography.net/cod/cif/7/03/38/7033827.cif $
#------------------------------------------------------------------------------
#
# This file is available in the Crystallography Open Database (COD),
# http://www.crystallography.net/
#
# All data on this site have been placed in the public domain by the
# contributors.
#
data_7033827
loop_
_publ_author_name
'Essehli, R.'
'Belharouak, I.'
'Ben Yahia, H.'
'Chamoun, R.'
'Orayech, B.'
'El Bali, B.'
'Bouziane, K.'
'Zhou, X. L.'
'Zhou, Z.'
_publ_section_title
;
 \a-Na2Ni2Fe(PO4)3: a dual positive/negative electrode material for sodium
 ion batteries.
;
_journal_issue                   10
_journal_name_full
'Dalton transactions (Cambridge, England : 2003)'
_journal_page_first              4526
_journal_page_last               4532
_journal_paper_doi               10.1039/c5dt00021a
_journal_volume                  44
_journal_year                    2015
_chemical_formula_moiety         'Fe1 Na2 Ni2 O12 P3'
_chemical_formula_sum            'Fe Na2 Ni2 O12 P3'
_chemical_formula_weight         504.1
_chemical_name_systematic        ' ?'
_space_group_IT_number           74
_symmetry_cell_setting           orthorhombic
_symmetry_Int_Tables_number      74
_symmetry_space_group_name_Hall  '-I 2b 2'
_symmetry_space_group_name_H-M   'I m m a'
_cell_angle_alpha                90
_cell_angle_beta                 90
_cell_angle_gamma                90
_cell_formula_units_Z            4
_cell_length_a                   10.42821(12)
_cell_length_b                   13.19862(15)
_cell_length_c                   6.47634(8)
_cell_measurement_temperature    293
_cell_volume                     891.390(18)
_diffrn_ambient_temperature      293
_diffrn_radiation_probe          x-ray
_diffrn_radiation_wavelength     1.5418
_exptl_absorpt_coefficient_mu    24.72
_exptl_crystal_density_diffrn    3.7564
_exptl_crystal_F_000             980
_pd_char_colour                  yellow
_pd_instr_location               ' ?'
_pd_meas_2theta_range_inc        0.01
_pd_meas_2theta_range_max        99.990
_pd_meas_2theta_range_min        10.000
_pd_meas_number_of_points        9000
_pd_proc_2theta_range_inc        0.01
_pd_proc_2theta_range_max        99.99
_pd_proc_2theta_range_min        10
_pd_proc_ls_background_function  '15 Legendre polynoms'
_pd_proc_ls_pref_orient_corr     none
_pd_proc_ls_profile_function     Pseudo-Voigt
_pd_proc_ls_prof_R_factor        0.0184
_pd_proc_ls_prof_wR_expected     0.0203
_pd_proc_ls_prof_wR_factor       0.0234
_refine_diff_density_max         1.10
_refine_diff_density_min         -1.77
_refine_ls_goodness_of_fit_all   1.15
_refine_ls_number_constraints    9
_refine_ls_number_parameters     42
_refine_ls_number_restraints     0
_refine_ls_R_factor_all          0.0675
_refine_ls_R_factor_gt           0.0556
_refine_ls_shift/su_max          0.0383
_refine_ls_shift/su_mean         0.0022
_refine_ls_weighting_scheme      sigma
_refine_ls_wR_factor_all         0.0447
_refine_ls_wR_factor_gt          0.0436
_cod_data_source_file            c5dt00021a2.cif
_cod_data_source_block           I
_cod_depositor_comments
;
The following automatic conversions were performed:

'_diffrn_radiation_probe' value 'X-ray' changed to 'x-ray' according
to
/usr/data/users/saulius/crontab/automatic-downloads/rss-feeds/RSC/lib/dictionaries/cif_core.dic
dictionary named 'cif_core.dic' version 2.4.2 from 2011-04-26.

Automatic conversion script
Id: cif_fix_values 3008 2015-01-20 13:52:24Z robertas 

 Adding full bibliography for 7033827.cif.
;
_cod_original_formula_sum        'Fe1 Na2 Ni2 O12 P3'
_cod_database_code               7033827
loop_
_space_group_symop_id
_space_group_symop_operation_xyz
1 x,y,z
2 -x,-y+1/2,z
3 -x,y+1/2,-z
4 x,-y,-z
5 -x,-y,-z
6 x,y+1/2,-z
7 x,-y+1/2,z
8 -x,y,z
9 x+1/2,y+1/2,z+1/2
10 -x+1/2,-y,z+1/2
11 -x+1/2,y,-z+1/2
12 x+1/2,-y+1/2,-z+1/2
13 -x+1/2,-y+1/2,-z+1/2
14 x+1/2,y,-z+1/2
15 x+1/2,-y,z+1/2
16 -x+1/2,y+1/2,z+1/2
loop_
_atom_site_label
_atom_site_type_symbol
_atom_site_fract_x
_atom_site_fract_y
_atom_site_fract_z
_atom_site_adp_type
_atom_site_U_iso_or_equiv
_atom_site_site_symmetry_multiplicity
_atom_site_occupancy
_atom_site_calc_flag
Na1 Na 0 0.75 0.6119(14) Uiso 0.094(3) 4 1 d
Na2 Na 0 0.5 0.5 Uiso 0.094(3) 4 1 d
Ni1 Ni 0.25 0.63617(17) 0.25 Uiso 0.0035(6) 8 0.75 d
Fe1 Fe 0.25 0.63617(17) 0.25 Uiso 0.0035(6) 8 0.25 d
Ni2 Ni 0.5 0.5 0.5 Uiso 0.0035(6) 4 0.5 d
Fe2 Fe 0.5 0.5 0.5 Uiso 0.0035(6) 4 0.5 d
P1 P 0.25 0.4288(3) 0.25 Uiso 0.0070(12) 8 1 d
P2 P 0 0.75 0.0831(8) Uiso 0.0070(12) 4 1 d
O1 O 0.2881(4) 0.3660(4) 0.0661(6) Uiso 0.0018(11) 16 1 d
O2 O 0.1403(4) 0.5066(3) 0.2117(8) Uiso 0.0018(11) 16 1 d
O3 O 0 0.6538(6) 0.9525(10) Uiso 0.0018(11) 8 1 d
O4 O 0.1202(6) 0.75 0.2280(13) Uiso 0.0018(11) 8 1 d
loop_
_atom_type_symbol
_atom_type_scat_dispersion_real
_atom_type_scat_dispersion_imag
_atom_type_scat_source
Fe -1.1336 3.1974 'International Tables Vol C tables 4.2.6.8 and 6.1.1.1'
Na 0.1353 0.1239 'International Tables Vol C tables 4.2.6.8 and 6.1.1.1'
Ni -3.0029 0.5091 'International Tables Vol C tables 4.2.6.8 and 6.1.1.1'
O 0.0492 0.0322 'International Tables Vol C tables 4.2.6.8 and 6.1.1.1'
P 0.2955 0.4335 'International Tables Vol C tables 4.2.6.8 and 6.1.1.1'
loop_
_geom_angle_atom_site_label_1
_geom_angle_atom_site_label_2
_geom_angle_atom_site_label_3
_geom_angle_site_symmetry_1
_geom_angle_site_symmetry_3
_geom_angle
O1 P1 O1 . 11_555 113.1(3)
O1 P1 O2 . . 115.6(2)
O1 P1 O2 . 11_555 107.2(2)
O1 P1 O2 11_555 . 107.2(2)
O1 P1 O2 11_555 11_555 115.6(2)
O2 P1 O2 . 11_555 97.5(3)
O3 P2 O3 1_554 2_564 112.7(5)
O3 P2 O4 1_554 . 109.42(19)
O3 P2 O4 1_554 2_565 109.42(19)
O3 P2 O4 2_564 . 109.42(19)
O3 P2 O4 2_564 2_565 109.42(19)
O4 P2 O4 . 2_565 106.3(5)
loop_
_geom_bond_atom_site_label_1
_geom_bond_atom_site_label_2
_geom_bond_site_symmetry_2
_geom_bond_distance
Na1 O1 9_455 2.705(4)
Na1 O1 10_565 2.705(4)
Na1 O1 15_465 2.705(4)
Na1 O1 16_555 2.705(4)
Na1 O3 . 2.545(10)
Na1 O3 2_565 2.545(10)
Na1 O4 . 2.784(11)
Na1 O4 2_565 2.784(11)
Na2 O1 10_565 2.863(4)
Na2 O1 11_555 2.863(4)
Na2 O1 14_455 2.863(4)
Na2 O1 15_465 2.863(4)
Na2 O2 . 2.374(5)
Na2 O2 4_566 2.374(5)
Na2 O2 5_566 2.374(5)
Na2 O2 8_555 2.374(5)
Ni1 Fe1 . 0
Ni1 P1 . 2.736(4)
Ni1 O1 10_565 2.086(4)
Ni1 O1 4_565 2.086(4)
Ni1 O2 . 2.072(5)
Ni1 O2 11_555 2.072(5)
Ni1 O4 . 2.027(5)
Ni1 O4 11_555 2.027(5)
Fe1 P1 . 2.736(4)
Fe1 O1 10_565 2.086(4)
Fe1 O1 4_565 2.086(4)
Fe1 O2 . 2.072(5)
Fe1 O2 11_555 2.072(5)
Fe1 O4 . 2.027(5)
Fe1 O4 11_555 2.027(5)
Ni2 Fe2 . 0
Ni2 O2 10_565 2.007(5)
Ni2 O2 11_555 2.007(5)
Ni2 O2 14_555 2.007(5)
Ni2 O2 15_565 2.007(5)
Ni2 O3 10_564 2.054(7)
Ni2 O3 11_556 2.054(7)
Fe2 O2 10_565 2.007(5)
Fe2 O2 11_555 2.007(5)
Fe2 O2 14_555 2.007(5)
Fe2 O2 15_565 2.007(5)
Fe2 O3 10_564 2.054(7)
Fe2 O3 11_556 2.054(7)
P1 O1 . 1.505(5)
P1 O1 11_555 1.505(5)
P1 O2 . 1.557(5)
P1 O2 11_555 1.557(5)
P2 O3 1_554 1.525(8)
P2 O3 2_564 1.525(8)
P2 O4 . 1.566(8)
P2 O4 2_565 1.566(8)
O1 O1 11_555 2.511(5)
O1 O2 . 2.590(6)
O1 O2 10_564 2.941(6)
O1 O2 11_555 2.464(7)
O1 O2 4_565 2.905(6)
O1 O4 10_564 2.838(8)
O2 O2 11_555 2.340(6)
O2 O2 4_565 2.748(7)
O2 O2 8_555 2.927(6)
O2 O3 1_554 2.955(8)
O2 O3 4_566 2.786(8)
O3 O3 2_565 2.538(10)
O3 O4 1_556 2.523(9)
O3 O4 2_566 2.523(9)
O4 O4 2_565 2.506(9)
O4 O4 11_555 2.723(9)
loop_
_pd_proc_point_id
_pd_proc_2theta_corrected
_pd_proc_intensity_net
_pd_calc_intensity_net
_pd_proc_ls_weight
1 9.9100 2026.00 2006.93 45.01
2 9.9200 2072.00 2007.68 45.52
3 9.9300 1913.00 2008.41 43.74
4 9.9400 1953.00 2009.15 44.19
5 9.9500 2053.00 2009.87 45.31
6 9.9600 2011.00 2010.59 44.84
7 9.9700 2083.00 2011.30 45.64
8 9.9800 2085.00 2012.01 45.66
9 9.9900 2001.00 2012.71 44.73
10 10.0000 2046.00 2013.41 45.23
11 10.0100 2061.00 2014.10 45.40
12 10.0200 2026.00 2014.79 45.01
13 10.0300 2132.00 2015.47 46.17
14 10.0400 2059.00 2016.14 45.38
15 10.0500 2023.00 2016.81 44.98
16 10.0600 2080.00 2017.47 45.61
17 10.0700 2061.00 2018.13 45.40
18 10.0800 2017.00 2018.78 44.91
19 10.0900 2027.00 2019.42 45.02
20 10.1000 1924.00 2020.06 43.86
21 10.1100 1952.00 2020.70 44.18
22 10.1200 2025.00 2021.33 45.00
23 10.1300 1948.00 2021.95 44.14
24 10.1400 2079.00 2022.57 45.60
25 10.1500 1943.00 2023.19 44.08
26 10.1600 2035.00 2023.80 45.11
27 10.1700 1976.00 2024.40 44.45
28 10.1800 1992.00 2025.00 44.63
29 10.1900 1989.00 2025.59 44.60
30 10.2000 2034.00 2026.18 45.10
31 10.2100 2078.00 2026.76 45.59
32 10.2200 2059.00 2027.34 45.38
33 10.2300 2104.00 2027.92 45.87
34 10.2400 1992.00 2028.48 44.63
35 10.2500 2025.00 2029.05 45.00
36 10.2600 2070.00 2029.61 45.50
37 10.2700 2006.00 2030.16 44.79
38 10.2800 2035.00 2030.71 45.11
39 10.2900 1976.00 2031.26 44.45
40 10.3000 2004.00 2031.80 44.77
41 10.3100 2045.00 2032.33 45.22
42 10.3200 2072.00 2032.86 45.52
43 10.3300 1928.00 2033.39 43.91
44 10.3400 2033.00 2033.91 45.09
45 10.3500 2057.00 2034.43 45.35
46 10.3600 2105.00 2034.94 45.88
47 10.3700 2062.00 2035.45 45.41
48 10.3800 1959.00 2035.95 44.26
49 10.3900 2052.00 2036.45 45.30
50 10.4000 2004.00 2036.94 44.77
51 10.4100 2002.00 2037.43 44.74
52 10.4200 1987.00 2037.92 44.58
53 10.4300 2032.00 2038.40 45.08
54 10.4400 1968.00 2038.88 44.36
55 10.4500 1979.00 2039.35 44.49
56 10.4600 2109.00 2039.82 45.92
57 10.4700 2039.00 2040.29 45.16
58 10.4800 2068.00 2040.75 45.48
59 10.4900 2041.00 2041.20 45.18
60 10.5000 2005.00 2041.66 44.78
61 10.5100 2047.00 2042.10 45.24
62 10.5200 2060.00 2042.55 45.39
63 10.5300 1961.00 2042.99 44.28
64 10.5400 1984.00 2043.43 44.54
65 10.5500 2029.00 2043.86 45.04
66 10.5600 2062.00 2044.29 45.41
67 10.5700 2110.00 2044.71 45.93
68 10.5800 1917.00 2045.13 43.78
69 10.5900 2056.00 2045.55 45.34
70 10.6000 1962.00 2045.96 44.29
71 10.6100 1983.00 2046.37 44.53
72 10.6200 2117.00 2046.78 46.01
73 10.6300 2007.00 2047.18 44.80
74 10.6400 2045.00 2047.58 45.22
75 10.6500 1968.00 2047.98 44.36
76 10.6600 2044.00 2048.37 45.21
77 10.6700 2075.00 2048.76 45.55
78 10.6800 2034.00 2049.14 45.10
79 10.6900 2060.00 2049.52 45.39
80 10.7000 2003.00 2049.90 44.75
81 10.7100 1960.00 2050.27 44.27
82 10.7200 2106.00 2050.64 45.89
83 10.7300 2120.00 2051.01 46.04
84 10.7400 1966.00 2051.37 44.34
85 10.7500 2058.00 2051.73 45.37
86 10.7600 2053.00 2052.09 45.31
87 10.7700 2028.00 2052.44 45.03
88 10.7800 2024.00 2052.79 44.99
89 10.7900 2052.00 2053.14 45.30
90 10.8000 2113.00 2053.48 45.97
91 10.8100 1999.00 2053.82 44.71
92 10.8200 2017.00 2054.16 44.91
93 10.8300 2048.00 2054.49 45.25
94 10.8400 2065.00 2054.82 45.44
95 10.8500 2035.00 2055.15 45.11
96 10.8600 2023.00 2055.47 44.98
97 10.8700 2001.00 2055.80 44.73
98 10.8800 2051.00 2056.11 45.29
99 10.8900 2021.00 2056.43 44.96
100 10.9000 2024.00 2056.74 44.99
101 10.9100 2006.00 2057.05 44.79
102 10.9200 2105.00 2057.36 45.88
103 10.9300 2008.00 2057.66 44.81
104 10.9400 1986.00 2057.96 44.56
105 10.9500 2091.00 2058.26 45.73
106 10.9600 2033.00 2058.55 45.09
107 10.9700 2116.00 2058.84 46.00
108 10.9800 2078.00 2059.13 45.59
109 10.9900 2115.00 2059.42 45.99
110 11.0000 2114.00 2059.70 45.98
111 11.0100 2074.00 2059.98 45.54
112 11.0200 2012.00 2060.26 44.86
113 11.0300 2030.00 2060.54 45.06
114 11.0400 2009.00 2060.81 44.82
115 11.0500 2063.00 2061.08 45.42
116 11.0600 2022.00 2061.35 44.97
117 11.0700 2025.00 2061.61 45.00
118 11.0800 2027.00 2061.87 45.02
119 11.0900 2121.00 2062.13 46.05
120 11.1000 2015.00 2062.39 44.89
121 11.1100 2091.00 2062.64 45.73
122 11.1200 2082.00 2062.89 45.63
123 11.1300 2013.00 2063.14 44.87
124 11.1400 2126.00 2063.39 46.11
125 11.1500 2033.00 2063.63 45.09
126 11.1600 2144.00 2063.88 46.30
127 11.1700 2084.00 2064.11 45.65
128 11.1800 2079.00 2064.35 45.60
129 11.1900 2013.00 2064.59 44.87
130 11.2000 2092.00 2064.82 45.74
131 11.2100 2052.00 2065.05 45.30
132 11.2200 2080.00 2065.28 45.61
133 11.2300 2112.00 2065.50 45.96
134 11.2400 2054.00 2065.72 45.32
135 11.2500 2089.00 2065.94 45.71
136 11.2600 2078.00 2066.16 45.59
137 11.2700 2006.00 2066.38 44.79
138 11.2800 2071.00 2066.59 45.51
139 11.2900 2094.00 2066.80 45.76
140 11.3000 2130.00 2067.01 46.15
141 11.3100 2088.00 2067.22 45.69
142 11.3200 2092.00 2067.43 45.74
143 11.3300 2116.00 2067.63 46.00
144 11.3400 2002.00 2067.83 44.74
145 11.3500 2115.00 2068.03 45.99
146 11.3600 2024.00 2068.23 44.99
147 11.3700 2111.00 2068.42 45.95
148 11.3800 2078.00 2068.61 45.59
149 11.3900 2097.00 2068.80 45.79
150 11.4000 2116.00 2068.99 46.00
151 11.4100 2086.00 2069.18 45.67
152 11.4200 2190.00 2069.36 46.80
153 11.4300 2110.00 2069.55 45.93
154 11.4400 2085.00 2069.73 45.66
155 11.4500 2052.00 2069.91 45.30
156 11.4600 2074.00 2070.08 45.54
157 11.4700 1993.00 2070.26 44.64
158 11.4800 2109.00 2070.43 45.92
159 11.4900 2068.00 2070.60 45.48
160 11.5000 2061.00 2070.77 45.40
161 11.5100 2065.00 2070.94 45.44
162 11.5200 2057.00 2071.11 45.35
163 11.5300 2232.00 2071.27 47.24
164 11.5400 2048.00 2071.44 45.25
165 11.5500 2113.00 2071.60 45.97
166 11.5600 2062.00 2071.76 45.41
167 11.5700 2145.00 2071.91 46.31
168 11.5800 2114.00 2072.07 45.98
169 11.5900 1977.00 2072.22 44.46
170 11.6000 2156.00 2072.37 46.43
171 11.6100 2030.00 2072.53 45.06
172 11.6200 2129.00 2072.67 46.14
173 11.6300 2052.00 2072.82 45.30
174 11.6400 2118.00 2072.97 46.02
175 11.6500 2094.00 2073.11 45.76
176 11.6600 2157.00 2073.25 46.44
177 11.6700 2064.00 2073.39 45.43
178 11.6800 2142.00 2073.53 46.28
179 11.6900 2132.00 2073.67 46.17
180 11.7000 2130.00 2073.81 46.15
181 11.7100 2093.00 2073.94 45.75
182 11.7200 2119.00 2074.08 46.03
183 11.7300 2074.00 2074.21 45.54
184 11.7400 2122.00 2074.34 46.07
185 11.7500 2077.00 2074.47 45.57
186 11.7600 2064.00 2074.60 45.43
187 11.7700 2154.00 2074.72 46.41
188 11.7800 2150.00 2074.85 46.37
189 11.7900 2063.00 2074.97 45.42
190 11.8000 2130.00 2075.09 46.15
191 11.8100 2111.00 2075.21 45.95
192 11.8200 2141.00 2075.33 46.27
193 11.8300 2127.00 2075.45 46.12
194 11.8400 2090.00 2075.57 45.72
195 11.8500 2094.00 2075.68 45.76
196 11.8600 2051.00 2075.79 45.29
197 11.8700 2125.00 2075.91 46.10
198 11.8800 2096.00 2076.02 45.78
199 11.8900 2087.00 2076.13 45.68
200 11.9000 2085.00 2076.24 45.66
201 11.9100 2152.00 2076.34 46.39
202 11.9200 2183.00 2076.45 46.72
203 11.9300 2092.00 2076.56 45.74
204 11.9400 2115.00 2076.66 45.99
205 11.9500 2042.00 2076.76 45.19
206 11.9600 2156.00 2076.86 46.43
207 11.9700 2071.00 2076.96 45.51
208 11.9800 2042.00 2077.06 45.19
209 11.9900 2173.00 2077.16 46.62
210 12.0000 2125.00 2077.26 46.10
211 12.0100 2090.00 2077.35 45.72
212 12.0200 2143.00 2077.45 46.29
213 12.0300 2020.00 2077.54 44.94
214 12.0400 2011.00 2077.63 44.84
215 12.0500 2087.00 2077.72 45.68
216 12.0600 2074.00 2077.81 45.54
217 12.0700 2081.00 2077.90 45.62
218 12.0800 2083.00 2077.99 45.64
219 12.0900 1992.00 2078.08 44.63
220 12.1000 2100.00 2078.16 45.83
221 12.1100 2079.00 2078.25 45.60
222 12.1200 2162.00 2078.33 46.50
223 12.1300 2091.00 2078.42 45.73
224 12.1400 2149.00 2078.50 46.36
225 12.1500 2162.00 2078.58 46.50
226 12.1600 2143.00 2078.66 46.29
227 12.1700 2150.00 2078.74 46.37
228 12.1800 2103.00 2078.82 45.86
229 12.1900 2122.00 2078.89 46.07
230 12.2000 2047.00 2078.97 45.24
231 12.2100 2045.00 2079.05 45.22
232 12.2200 2084.00 2079.12 45.65
233 12.2300 2167.00 2079.19 46.55
234 12.2400 2104.00 2079.27 45.87
235 12.2500 2038.00 2079.34 45.14
236 12.2600 2206.00 2079.41 46.97
237 12.2700 2014.00 2079.48 44.88
238 12.2800 1997.00 2079.55 44.69
239 12.2900 2065.00 2079.62 45.44
240 12.3000 2057.00 2079.68 45.35
241 12.3100 2112.00 2079.75 45.96
242 12.3200 2116.00 2079.82 46.00
243 12.3300 1973.00 2079.88 44.42
244 12.3400 2085.00 2079.95 45.66
245 12.3500 2074.00 2080.01 45.54
246 12.3600 2069.00 2080.07 45.49
247 12.3700 2115.00 2080.14 45.99
248 12.3800 2068.00 2080.20 45.48
249 12.3900 2102.00 2080.26 45.85
250 12.4000 2011.00 2080.32 44.84
251 12.4100 2069.00 2080.38 45.49
252 12.4200 2077.00 2080.43 45.57
253 12.4300 2063.00 2080.49 45.42
254 12.4400 2012.00 2080.55 44.86
255 12.4500 2123.00 2080.61 46.08
256 12.4600 2100.00 2080.66 45.83
257 12.4700 2121.00 2080.72 46.05
258 12.4800 2053.00 2080.77 45.31
259 12.4900 2095.00 2080.82 45.77
260 12.5000 2061.00 2080.88 45.40
261 12.5100 2056.00 2080.93 45.34
262 12.5200 2042.00 2080.98 45.19
263 12.5300 2037.00 2081.03 45.13
264 12.5400 2075.00 2081.08 45.55
265 12.5500 2106.00 2081.13 45.89
266 12.5600 2054.00 2081.18 45.32
267 12.5700 2019.00 2081.23 44.93
268 12.5800 2033.00 2081.28 45.09
269 12.5900 2141.00 2081.32 46.27
270 12.6000 2029.00 2081.37 45.04
271 12.6100 2062.00 2081.42 45.41
272 12.6200 2030.00 2081.46 45.06
273 12.6300 2116.00 2081.51 46.00
274 12.6400 2024.00 2081.55 44.99
275 12.6500 2090.00 2081.60 45.72
276 12.6600 2022.00 2081.64 44.97
277 12.6700 2123.00 2081.68 46.08
278 12.6800 2077.00 2081.72 45.57
279 12.6900 2079.00 2081.77 45.60
280 12.7000 2119.00 2081.81 46.03
281 12.7100 2027.00 2081.85 45.02
282 12.7200 2126.00 2081.89 46.11
283 12.7300 2047.00 2081.93 45.24
284 12.7400 2120.00 2081.97 46.04
285 12.7500 2075.00 2082.01 45.55
286 12.7600 2075.00 2082.04 45.55
287 12.7700 2124.00 2082.08 46.09
288 12.7800 2075.00 2082.12 45.55
289 12.7900 2045.00 2082.16 45.22
290 12.8000 2055.00 2082.19 45.33
291 12.8100 2063.00 2082.23 45.42
292 12.8200 2062.00 2082.27 45.41
293 12.8300 2082.00 2082.30 45.63
294 12.8400 2117.00 2087.82 46.01
295 12.8500 2058.00 2088.05 45.37
296 12.8600 2000.00 2088.29 44.72
297 12.8700 2089.00 2088.55 45.71
298 12.8800 2045.00 2091.59 45.22
299 12.8900 2144.00 2091.97 46.30
300 12.9000 2081.00 2092.37 45.62
301 12.9100 2046.00 2092.80 45.23
302 12.9200 2121.00 2093.24 46.05
303 12.9300 2179.00 2093.71 46.68
304 12.9400 2022.00 2094.21 44.97
305 12.9500 2061.00 2094.74 45.40
306 12.9600 2143.00 2095.30 46.29
307 12.9700 2142.00 2095.90 46.28
308 12.9800 2087.00 2096.53 45.68
309 12.9900 2119.00 2097.21 46.03
310 13.0000 2116.00 2097.94 46.00
311 13.0100 2179.00 2098.71 46.68
312 13.0200 2038.00 2099.54 45.14
313 13.0300 2199.00 2100.44 46.89
314 13.0400 2117.00 2101.40 46.01
315 13.0500 2025.00 2102.44 45.00
316 13.0600 2081.00 2103.57 45.62
317 13.0700 2140.00 2104.79 46.26
318 13.0800 2118.00 2106.12 46.02
319 13.0900 2114.00 2107.56 45.98
320 13.1000 2122.00 2109.15 46.07
321 13.1100 2125.00 2110.88 46.10
322 13.1200 2085.00 2112.79 45.66
323 13.1300 2064.00 2114.89 45.43
324 13.1400 2087.00 2117.23 45.68
325 13.1500 2136.00 2119.82 46.22
326 13.1600 1991.00 2122.71 44.62
327 13.1700 2070.00 2125.95 45.50
328 13.1800 2134.00 2129.60 46.20
329 13.1900 2172.00 2133.73 46.60
330 13.2000 2142.00 2138.43 46.28
331 13.2100 2106.00 2143.81 45.89
332 13.2200 2116.00 2150.00 46.00
333 13.2300 2198.00 2157.18 46.88
334 13.2400 2087.00 2165.56 45.68
335 13.2500 2123.00 2175.44 46.08
336 13.2600 2245.00 2187.18 47.38
337 13.2700 2257.00 2201.30 47.51
338 13.2800 2197.00 2218.53 46.87
339 13.2900 2332.00 2240.01 48.29
340 13.3000 2354.00 2267.69 48.52
341 13.3100 2423.00 2305.17 49.22
342 13.3200 2429.00 2359.13 49.28
343 13.3300 2586.00 2441.16 50.85
344 13.3400 2685.00 2569.34 51.82
345 13.3500 2985.00 2767.66 54.64
346 13.3600 3234.00 3061.65 56.87
347 13.3700 3554.00 3468.84 59.62
348 13.3800 3925.00 3983.61 62.65
349 13.3900 4517.00 4552.87 67.21
350 13.4000 5121.00 5048.92 71.56
351 13.4100 4983.00 5306.86 70.59
352 13.4200 5364.00 5273.51 73.24
353 13.4300 5170.00 5033.91 71.90
354 13.4400 4773.00 4660.55 69.09
355 13.4500 4028.00 4192.19 63.47
356 13.4600 3611.00 3703.37 60.09
357 13.4700 3207.00 3272.65 56.63
358 13.4800 2778.00 2935.41 52.71
359 13.4900 2515.00 2691.18 50.15
360 13.5000 2314.00 2523.73 48.10
361 13.5100 2194.00 2412.76 46.84
362 13.5200 2279.00 2339.84 47.74
363 13.5300 2215.00 2290.90 47.06
364 13.5400 2146.00 2256.54 46.32
365 13.5500 2179.00 2231.07 46.68
366 13.5600 2223.00 2211.30 47.15
367 13.5700 2224.00 2195.42 47.16
368 13.5800 2197.00 2182.38 46.87
369 13.5900 2204.00 2171.52 46.95
370 13.6000 2121.00 2162.36 46.05
371 13.6100 2183.00 2154.56 46.72
372 13.6200 2121.00 2147.88 46.05
373 13.6300 2170.00 2142.10 46.58
374 13.6400 2136.00 2137.08 46.22
375 13.6500 2089.00 2132.69 45.71
376 13.6600 2137.00 2128.82 46.23
377 13.6700 2102.00 2125.40 45.85
378 13.6800 2157.00 2122.36 46.44
379 13.6900 2192.00 2119.65 46.82
380 13.7000 2152.00 2117.23 46.39
381 13.7100 2077.00 2115.04 45.57
382 13.7200 2169.00 2113.07 46.57
383 13.7300 2126.00 2111.29 46.11
384 13.7400 2095.00 2109.67 45.77
385 13.7500 2079.00 2108.19 45.60
386 13.7600 2074.00 2106.84 45.54
387 13.7700 2092.00 2105.61 45.74
388 13.7800 2070.00 2104.48 45.50
389 13.7900 2214.00 2103.43 47.05
390 13.8000 2061.00 2102.47 45.40
391 13.8100 2156.00 2101.59 46.43
392 13.8200 2114.00 2100.77 45.98
393 13.8300 2100.00 2100.00 45.83
394 13.8400 2104.00 2099.30 45.87
395 13.8500 2051.00 2098.64 45.29
396 13.8600 2108.00 2098.03 45.91
397 13.8700 2140.00 2097.46 46.26
398 13.8800 2009.00 2096.92 44.82
399 13.8900 2110.00 2096.42 45.93
400 13.9000 2151.00 2095.96 46.38
401 13.9100 2096.00 2095.52 45.78
402 13.9200 2092.00 2095.10 45.74
403 13.9300 2134.00 2094.72 46.20
404 13.9400 2039.00 2094.35 45.16
405 13.9500 2109.00 2094.01 45.92
406 13.9600 2077.00 2093.69 45.57
407 13.9700 2083.00 2093.38 45.64
408 13.9800 2027.00 2087.74 45.02
409 13.9900 2091.00 2087.65 45.73
410 14.0000 2076.00 2087.56 45.56
411 14.0100 2105.00 2084.80 45.88
412 14.0200 2155.00 2084.82 46.42
413 14.0300 2043.00 2084.83 45.20
414 14.0400 2062.00 2084.85 45.41
415 14.0500 2003.00 2084.86 44.75
416 14.0600 2102.00 2084.88 45.85
417 14.0700 2090.00 2084.90 45.72
418 14.0800 2084.00 2084.91 45.65
419 14.0900 2101.00 2084.93 45.84
420 14.1000 2158.00 2084.94 46.45
421 14.1100 2141.00 2084.96 46.27
422 14.1200 2064.00 2084.97 45.43
423 14.1300 2054.00 2084.99 45.32
424 14.1400 2177.00 2085.00 46.66
425 14.1500 2102.00 2085.02 45.85
426 14.1600 2001.00 2085.04 44.73
427 14.1700 2112.00 2085.05 45.96
428 14.1800 2035.00 2085.07 45.11
429 14.1900 2093.00 2085.08 45.75
430 14.2000 2042.00 2085.10 45.19
431 14.2100 2088.00 2085.12 45.69
432 14.2200 2084.00 2085.13 45.65
433 14.2300 2045.00 2085.15 45.22
434 14.2400 2104.00 2085.16 45.87
435 14.2500 2075.00 2085.18 45.55
436 14.2600 2114.00 2085.20 45.98
437 14.2700 2036.00 2085.21 45.12
438 14.2800 2188.00 2085.23 46.78
439 14.2900 2198.00 2085.24 46.88
440 14.3000 2059.00 2085.26 45.38
441 14.3100 2092.00 2085.28 45.74
442 14.3200 2044.00 2085.29 45.21
443 14.3300 2097.00 2085.31 45.79
444 14.3400 2118.00 2085.32 46.02
445 14.3500 2119.00 2085.34 46.03
446 14.3600 2083.00 2085.36 45.64
447 14.3700 2066.00 2085.37 45.45
448 14.3800 2011.00 2085.39 44.84
449 14.3900 2075.00 2085.41 45.55
450 14.4000 2127.00 2085.42 46.12
451 14.4100 2065.00 2085.44 45.44
452 14.4200 2014.00 2085.46 44.88
453 14.4300 2033.00 2085.47 45.09
454 14.4400 2162.00 2085.49 46.50
455 14.4500 2058.00 2085.51 45.37
456 14.4600 2056.00 2085.53 45.34
457 14.4700 2086.00 2085.54 45.67
458 14.4800 2045.00 2085.56 45.22
459 14.4900 2073.00 2085.58 45.53
460 14.5000 2223.00 2085.59 47.15
461 14.5100 2071.00 2085.61 45.51
462 14.5200 2151.00 2085.63 46.38
463 14.5300 2135.00 2085.65 46.21
464 14.5400 2138.00 2085.66 46.24
465 14.5500 2201.00 2085.68 46.91
466 14.5600 2147.00 2085.70 46.34
467 14.5700 2109.00 2085.72 45.92
468 14.5800 2104.00 2085.73 45.87
469 14.5900 2131.00 2085.75 46.16
470 14.6000 2072.00 2085.77 45.52
471 14.6100 2138.00 2085.79 46.24
472 14.6200 1989.00 2085.81 44.60
473 14.6300 2058.00 2085.82 45.37
474 14.6400 1980.00 2085.84 44.50
475 14.6500 2129.00 2085.86 46.14
476 14.6600 2115.00 2085.88 45.99
477 14.6700 2007.00 2094.96 44.80
478 14.6800 2137.00 2095.31 46.23
479 14.6900 2105.00 2095.68 45.88
480 14.7000 2084.00 2100.42 45.65
481 14.7100 2130.00 2100.99 46.15
482 14.7200 2097.00 2101.59 45.79
483 14.7300 2122.00 2102.23 46.07
484 14.7400 2140.00 2102.90 46.26
485 14.7500 2099.00 2103.62 45.81
486 14.7600 2134.00 2104.38 46.20
487 14.7700 2104.00 2105.18 45.87
488 14.7800 2101.00 2106.04 45.84
489 14.7900 2079.00 2106.96 45.60
490 14.8000 2163.00 2107.93 46.51
491 14.8100 2097.00 2108.97 45.79
492 14.8200 2048.00 2110.09 45.25
493 14.8300 2160.00 2111.29 46.48
494 14.8400 2130.00 2112.58 46.15
495 14.8500 2152.00 2113.97 46.39
496 14.8600 2134.00 2115.46 46.20
497 14.8700 2065.00 2117.08 45.44
498 14.8800 2144.00 2118.83 46.30
499 14.8900 2076.00 2120.73 45.56
500 14.9000 2135.00 2122.80 46.21
501 14.9100 2171.00 2125.06 46.59
502 14.9200 2170.00 2127.53 46.58
503 14.9300 2061.00 2130.24 45.40
504 14.9400 2008.00 2133.22 44.81
505 14.9500 2062.00 2136.52 45.41
506 14.9600 2182.00 2140.16 46.71
507 14.9700 2185.00 2144.22 46.74
508 14.9800 2222.00 2148.75 47.14
509 14.9900 2143.00 2153.82 46.29
510 15.0000 2143.00 2159.53 46.29
511 15.0100 2117.00 2165.99 46.01
512 15.0200 2125.00 2173.34 46.10
513 15.0300 2092.00 2181.75 45.74
514 15.0400 2230.00 2191.43 47.22
515 15.0500 2196.00 2202.65 46.86
516 15.0600 2160.00 2215.74 46.48
517 15.0700 2232.00 2231.16 47.24
518 15.0800 2195.00 2249.49 46.85
519 15.0900 2301.00 2271.50 47.97
520 15.1000 2275.00 2298.32 47.70
521 15.1100 2370.00 2331.72 48.68
522 15.1200 2372.00 2374.65 48.70
523 15.1300 2494.00 2432.63 49.94
524 15.1400 2551.00 2515.80 50.51
525 15.1500 2767.00 2641.91 52.60
526 15.1600 3064.00 2838.76 55.35
527 15.1700 3331.00 3143.35 57.71
528 15.1800 3837.00 3595.11 61.94
529 15.1900 4446.00 4221.29 66.68
530 15.2000 5061.00 5014.06 71.14
531 15.2100 5834.00 5893.19 76.38
532 15.2200 6514.00 6663.12 80.71
533 15.2300 6924.00 7065.70 83.21
534 15.2400 6981.00 7019.85 83.55
535 15.2500 6807.00 6683.79 82.50
536 15.2600 6225.00 6194.44 78.90
537 15.2700 5486.00 5570.41 74.07
538 15.2800 4618.00 4858.75 67.96
539 15.2900 4058.00 4176.41 63.70
540 15.3000 3297.00 3609.00 57.42
541 15.3100 2966.00 3179.58 54.46
542 15.3200 2697.00 2874.81 51.93
543 15.3300 2518.00 2668.12 50.18
544 15.3400 2349.00 2531.35 48.47
545 15.3500 2265.00 2440.49 47.59
546 15.3600 2194.00 2378.13 46.84
547 15.3700 2334.00 2333.09 48.31
548 15.3800 2205.00 2298.86 46.96
549 15.3900 2354.00 2271.74 48.52
550 15.4000 2222.00 2249.67 47.14
551 15.4100 2205.00 2231.39 46.96
552 15.4200 2221.00 2216.03 47.13
553 15.4300 2177.00 2203.01 46.66
554 15.4400 2084.00 2191.87 45.65
555 15.4500 2265.00 2182.28 47.59
556 15.4600 2227.00 2173.95 47.19
557 15.4700 2181.00 2166.68 46.70
558 15.4800 2070.00 2160.29 45.50
559 15.4900 2162.00 2154.65 46.50
560 15.5000 2137.00 2149.65 46.23
561 15.5100 2156.00 2145.19 46.43
562 15.5200 2190.00 2141.20 46.80
563 15.5300 2159.00 2137.62 46.47
564 15.5400 2158.00 2145.52 46.45
565 15.5500 2165.00 2143.01 46.53
566 15.5600 2076.00 2140.79 45.56
567 15.5700 2114.00 2138.83 45.98
568 15.5800 2225.00 2142.61 47.17
569 15.5900 2080.00 2141.31 45.61
570 15.6000 2059.00 2140.22 45.38
571 15.6100 2106.00 2139.33 45.89
572 15.6200 2059.00 2138.61 45.38
573 15.6300 2131.00 2138.07 46.16
574 15.6400 2114.00 2137.70 45.98
575 15.6500 2145.00 2137.49 46.31
576 15.6600 2108.00 2137.44 45.91
577 15.6700 2087.00 2137.54 45.68
578 15.6800 2139.00 2137.80 46.25
579 15.6900 2211.00 2138.22 47.02
580 15.7000 2115.00 2138.79 45.99
581 15.7100 2100.00 2139.53 45.83
582 15.7200 2217.00 2140.45 47.08
583 15.7300 2117.00 2141.54 46.01
584 15.7400 2029.00 2142.83 45.04
585 15.7500 2068.00 2144.32 45.48
586 15.7600 2171.00 2146.03 46.59
587 15.7700 2104.00 2147.98 45.87
588 15.7800 2112.00 2150.19 45.96
589 15.7900 2294.00 2152.69 47.90
590 15.8000 2097.00 2146.94 45.79
591 15.8100 2118.00 2150.41 46.02
592 15.8200 2199.00 2154.26 46.89
593 15.8300 2140.00 2158.56 46.26
594 15.8400 2149.00 2159.15 46.36
595 15.8500 2076.00 2164.67 45.56
596 15.8600 2182.00 2170.86 46.71
597 15.8700 2183.00 2177.83 46.72
598 15.8800 2177.00 2185.70 46.66
599 15.8900 2106.00 2194.66 45.89
600 15.9000 2239.00 2204.91 47.32
601 15.9100 2180.00 2216.69 46.69
602 15.9200 2190.00 2230.35 46.80
603 15.9300 2206.00 2246.30 46.97
604 15.9400 2189.00 2265.06 46.79
605 15.9500 2247.00 2287.34 47.40
606 15.9600 2241.00 2314.10 47.34
607 15.9700 2354.00 2346.71 48.52
608 15.9800 2298.00 2387.26 47.94
609 15.9900 2485.00 2439.37 49.85
610 16.0000 2620.00 2509.64 51.19
611 16.0100 2720.00 2610.36 52.15
612 16.0200 2910.00 2762.92 53.94
613 16.0300 3207.00 3000.96 56.63
614 16.0400 3640.00 3369.13 60.33
615 16.0500 4203.00 3915.37 64.83
616 16.0600 4987.00 4672.29 70.62
617 16.0700 5748.00 5630.48 75.82
618 16.0800 6726.00 6693.33 82.01
619 16.0900 7692.00 7624.93 87.70
620 16.1000 8289.00 8111.01 91.04
621 16.1100 8376.00 8052.46 91.52
622 16.1200 7931.00 7654.16 89.06
623 16.1300 7460.00 7102.22 86.37
624 16.1400 6481.00 6410.71 80.50
625 16.1500 5626.00 5593.01 75.01
626 16.1600 4858.00 4770.56 69.70
627 16.1700 4059.00 4062.44 63.71
628 16.1800 3397.00 3512.85 58.28
629 16.1900 2920.00 3115.36 54.04
630 16.2000 2643.00 2842.06 51.41
631 16.2100 2412.00 2660.05 49.11
632 16.2200 2397.00 2539.35 48.96
633 16.2300 2251.00 2457.33 47.44
634 16.2400 2329.00 2398.86 48.26
635 16.2500 2258.00 2354.93 47.52
636 16.2600 2253.00 2320.42 47.47
637 16.2700 2198.00 2292.49 46.88
638 16.2800 2247.00 2269.41 47.40
639 16.2900 2247.00 2250.08 47.40
640 16.3000 2242.00 2233.72 47.35
641 16.3100 2199.00 2219.74 46.89
642 16.3200 2246.00 2207.71 47.39
643 16.3300 2225.00 2197.28 47.17
644 16.3400 2216.00 2188.19 47.07
645 16.3500 2174.00 2180.21 46.63
646 16.3600 2112.00 2173.17 45.96
647 16.3700 2243.00 2166.93 47.36
648 16.3800 2143.00 2161.37 46.29
649 16.3900 2133.00 2156.40 46.18
650 16.4000 2129.00 2151.94 46.14
651 16.4100 2144.00 2147.92 46.30
652 16.4200 2114.00 2144.28 45.98
653 16.4300 2109.00 2146.53 45.92
654 16.4400 2095.00 2143.74 45.77
655 16.4500 2069.00 2141.21 45.49
656 16.4600 2087.00 2138.94 45.68
657 16.4700 2099.00 2139.60 45.81
658 16.4800 2161.00 2137.85 46.49
659 16.4900 2136.00 2136.28 46.22
660 16.5000 2200.00 2134.88 46.90
661 16.5100 2123.00 2133.64 46.08
662 16.5200 2154.00 2132.55 46.41
663 16.5300 2159.00 2131.60 46.47
664 16.5400 2044.00 2130.78 45.21
665 16.5500 2110.00 2130.08 45.93
666 16.5600 2128.00 2129.51 46.13
667 16.5700 2166.00 2129.05 46.54
668 16.5800 2088.00 2128.70 45.69
669 16.5900 2210.00 2128.46 47.01
670 16.6000 2163.00 2128.34 46.51
671 16.6100 2215.00 2128.33 47.06
672 16.6200 2172.00 2128.43 46.60
673 16.6300 2149.00 2128.65 46.36
674 16.6400 2149.00 2129.00 46.36
675 16.6500 2100.00 2129.47 45.83
676 16.6600 2089.00 2130.07 45.71
677 16.6700 2144.00 2120.29 46.30
678 16.6800 2100.00 2121.55 45.83
679 16.6900 2106.00 2122.96 45.89
680 16.7000 2075.00 2124.54 45.55
681 16.7100 2110.00 2121.10 45.93
682 16.7200 2131.00 2123.27 46.16
683 16.7300 2103.00 2125.66 45.86
684 16.7400 2007.00 2128.33 44.80
685 16.7500 2137.00 2131.32 46.23
686 16.7600 2188.00 2134.67 46.78
687 16.7700 2081.00 2138.45 45.62
688 16.7800 2125.00 2142.73 46.10
689 16.7900 2112.00 2147.62 45.96
690 16.8000 2158.00 2153.22 46.45
691 16.8100 2152.00 2159.69 46.39
692 16.8200 2189.00 2167.21 46.79
693 16.8300 2193.00 2176.03 46.83
694 16.8400 2152.00 2186.45 46.39
695 16.8500 2167.00 2198.91 46.55
696 16.8600 2092.00 2213.98 45.74
697 16.8700 2167.00 2232.53 46.55
698 16.8800 2313.00 2256.01 48.09
699 16.8900 2196.00 2286.98 46.86
700 16.9000 2445.00 2330.23 49.45
701 16.9100 2525.00 2394.39 50.25
702 16.9200 2679.00 2493.69 51.76
703 16.9300 2848.00 2648.44 53.37
704 16.9400 3125.00 2882.67 55.90
705 16.9500 3361.00 3216.87 57.97
706 16.9600 3825.00 3656.61 61.85
707 16.9700 4310.00 4174.42 65.65
708 16.9800 4837.00 4682.78 69.55
709 16.9900 5166.00 5028.17 71.87
710 17.0000 5470.00 5098.40 73.96
711 17.0100 5267.00 4949.89 72.57
712 17.0200 5000.00 4709.36 70.71
713 17.0300 4758.00 4421.67 68.98
714 17.0400 4191.00 4067.17 64.74
715 17.0500 3683.00 3665.32 60.69
716 17.0600 3312.00 3281.79 57.55
717 17.0700 2973.00 2962.87 54.53
718 17.0800 2694.00 2720.63 51.90
719 17.0900 2470.00 2547.89 49.70
720 17.1000 2335.00 2430.32 48.32
721 17.1100 2307.00 2352.21 48.03
722 17.1200 2160.00 2300.12 46.48
723 17.1300 2232.00 2264.18 47.24
724 17.1400 2185.00 2238.09 46.74
725 17.1500 2140.00 2218.16 46.26
726 17.1600 2076.00 2202.31 45.56
727 17.1700 2197.00 2189.38 46.87
728 17.1800 2235.00 2178.63 47.28
729 17.1900 2164.00 2169.59 46.52
730 17.2000 2135.00 2161.91 46.21
731 17.2100 2084.00 2155.33 45.65
732 17.2200 2087.00 2149.65 45.68
733 17.2300 2199.00 2144.72 46.89
734 17.2400 2233.00 2140.41 47.25
735 17.2500 2164.00 2136.62 46.52
736 17.2600 2276.00 2133.27 47.71
737 17.2700 2031.00 2130.30 45.07
738 17.2800 2135.00 2127.64 46.21
739 17.2900 2117.00 2125.27 46.01
740 17.3000 2216.00 2123.14 47.07
741 17.3100 2108.00 2121.21 45.91
742 17.3200 2071.00 2119.47 45.51
743 17.3300 2162.00 2117.90 46.50
744 17.3400 2133.00 2116.46 46.18
745 17.3500 2132.00 2115.15 46.17
746 17.3600 2129.00 2113.95 46.14
747 17.3700 2137.00 2112.85 46.23
748 17.3800 2070.00 2111.84 45.50
749 17.3900 2086.00 2110.91 45.67
750 17.4000 2066.00 2110.05 45.45
751 17.4100 2185.00 2109.26 46.74
752 17.4200 2055.00 2108.52 45.33
753 17.4300 2110.00 2107.84 45.93
754 17.4400 2030.00 2107.21 45.06
755 17.4500 2154.00 2106.62 46.41
756 17.4600 2118.00 2106.07 46.02
757 17.4700 2103.00 2105.56 45.86
758 17.4800 2158.00 2105.09 46.45
759 17.4900 2147.00 2104.64 46.34
760 17.5000 2043.00 2104.22 45.20
761 17.5100 2117.00 2103.83 46.01
762 17.5200 1998.00 2103.46 44.70
763 17.5300 2137.00 2103.12 46.23
764 17.5400 2018.00 2102.79 44.92
765 17.5500 2077.00 2102.49 45.57
766 17.5600 2142.00 2096.79 46.28
767 17.5700 2075.00 2096.71 45.55
768 17.5800 2173.00 2096.63 46.62
769 17.5900 2099.00 2096.56 45.81
770 17.6000 2110.00 2096.49 45.93
771 17.6100 2056.00 2093.82 45.34
772 17.6200 2127.00 2093.85 46.12
773 17.6300 2117.00 2093.88 46.01
774 17.6400 2092.00 2093.91 45.74
775 17.6500 2032.00 2093.94 45.08
776 17.6600 2097.00 2093.97 45.79
777 17.6700 2118.00 2094.00 46.02
778 17.6800 2078.00 2094.02 45.59
779 17.6900 2081.00 2094.05 45.62
780 17.7000 2080.00 2094.08 45.61
781 17.7100 2164.00 2094.11 46.52
782 17.7200 2033.00 2094.14 45.09
783 17.7300 2111.00 2094.17 45.95
784 17.7400 2127.00 2094.20 46.12
785 17.7500 2210.00 2094.23 47.01
786 17.7600 2092.00 2094.26 45.74
787 17.7700 2087.00 2094.29 45.68
788 17.7800 2074.00 2094.32 45.54
789 17.7900 2115.00 2094.34 45.99
790 17.8000 2013.00 2094.37 44.87
791 17.8100 2074.00 2094.40 45.54
792 17.8200 2159.00 2094.43 46.47
793 17.8300 2147.00 2094.46 46.34
794 17.8400 2103.00 2094.49 45.86
795 17.8500 2125.00 2094.52 46.10
796 17.8600 2100.00 2094.55 45.83
797 17.8700 2080.00 2094.57 45.61
798 17.8800 2107.00 2094.60 45.90
799 17.8900 2115.00 2094.63 45.99
800 17.9000 2119.00 2094.66 46.03
801 17.9100 2149.00 2094.69 46.36
802 17.9200 2084.00 2094.72 45.65
803 17.9300 2098.00 2094.74 45.80
804 17.9400 2151.00 2094.77 46.38
805 17.9500 2096.00 2094.80 45.78
806 17.9600 2139.00 2094.83 46.25
807 17.9700 2106.00 2094.86 45.89
808 17.9800 2155.00 2094.89 46.42
809 17.9900 2111.00 2094.91 45.95
810 18.0000 2129.00 2094.94 46.14
811 18.0100 2149.00 2094.97 46.36
812 18.0200 2147.00 2095.00 46.34
813 18.0300 2078.00 2095.03 45.59
814 18.0400 2068.00 2095.05 45.48
815 18.0500 2140.00 2095.08 46.26
816 18.0600 2121.00 2095.11 46.05
817 18.0700 2125.00 2095.14 46.10
818 18.0800 1975.00 2095.16 44.44
819 18.0900 2091.00 2095.19 45.73
820 18.1000 2131.00 2095.22 46.16
821 18.1100 1974.00 2095.25 44.43
822 18.1200 2061.00 2095.27 45.40
823 18.1300 2054.00 2095.30 45.32
824 18.1400 2105.00 2095.33 45.88
825 18.1500 2111.00 2095.36 45.95
826 18.1600 2142.00 2095.38 46.28
827 18.1700 2155.00 2095.41 46.42
828 18.1800 2048.00 2095.44 45.25
829 18.1900 2162.00 2095.47 46.50
830 18.2000 2128.00 2095.49 46.13
831 18.2100 2136.00 2095.52 46.22
832 18.2200 2036.00 2095.55 45.12
833 18.2300 2097.00 2095.57 45.79
834 18.2400 2082.00 2095.60 45.63
835 18.2500 2105.00 2095.63 45.88
836 18.2600 2040.00 2095.66 45.17
837 18.2700 2140.00 2095.68 46.26
838 18.2800 2119.00 2095.71 46.03
839 18.2900 2059.00 2095.74 45.38
840 18.3000 2080.00 2095.76 45.61
841 18.3100 2098.00 2095.79 45.80
842 18.3200 2135.00 2095.82 46.21
843 18.3300 2173.00 2095.84 46.62
844 18.3400 2188.00 2095.87 46.78
845 18.3500 1984.00 2095.90 44.54
846 18.3600 2184.00 2095.92 46.73
847 18.3700 2077.00 2095.95 45.57
848 18.3800 2048.00 2095.97 45.25
849 18.3900 2066.00 2096.00 45.45
850 18.4000 1989.00 2096.03 44.60
851 18.4100 2138.00 2096.05 46.24
852 18.4200 2157.00 2096.08 46.44
853 18.4300 2120.00 2096.10 46.04
854 18.4400 2111.00 2096.13 45.95
855 18.4500 1970.00 2096.16 44.38
856 18.4600 2084.00 2096.18 45.65
857 18.4700 2097.00 2096.21 45.79
858 18.4800 2164.00 2096.23 46.52
859 18.4900 2105.00 2096.26 45.88
860 18.5000 2062.00 2096.29 45.41
861 18.5100 2081.00 2096.31 45.62
862 18.5200 2209.00 2096.34 47.00
863 18.5300 2085.00 2096.36 45.66
864 18.5400 2103.00 2096.39 45.86
865 18.5500 2126.00 2096.41 46.11
866 18.5600 2090.00 2096.44 45.72
867 18.5700 2074.00 2096.46 45.54
868 18.5800 2192.00 2096.49 46.82
869 18.5900 2062.00 2096.51 45.41
870 18.6000 2105.00 2096.54 45.88
871 18.6100 2082.00 2096.56 45.63
872 18.6200 2100.00 2096.59 45.83
873 18.6300 2068.00 2096.61 45.48
874 18.6400 2052.00 2096.64 45.30
875 18.6500 2157.00 2096.66 46.44
876 18.6600 2107.00 2096.69 45.90
877 18.6700 2133.00 2096.71 46.18
878 18.6800 2078.00 2096.74 45.59
879 18.6900 2136.00 2096.76 46.22
880 18.7000 2105.00 2096.79 45.88
881 18.7100 2115.00 2096.81 45.99
882 18.7200 2105.00 2096.84 45.88
883 18.7300 2089.00 2096.86 45.71
884 18.7400 2123.00 2096.89 46.08
885 18.7500 2150.00 2096.91 46.37
886 18.7600 2166.00 2096.93 46.54
887 18.7700 2083.00 2096.96 45.64
888 18.7800 2104.00 2096.98 45.87
889 18.7900 2022.00 2097.01 44.97
890 18.8000 2133.00 2097.03 46.18
891 18.8100 2061.00 2097.06 45.40
892 18.8200 2093.00 2097.08 45.75
893 18.8300 2087.00 2097.10 45.68
894 18.8400 2143.00 2097.13 46.29
895 18.8500 2112.00 2097.15 45.96
896 18.8600 2116.00 2097.17 46.00
897 18.8700 2053.00 2097.20 45.31
898 18.8800 2126.00 2097.22 46.11
899 18.8900 2106.00 2097.25 45.89
900 18.9000 2090.00 2097.27 45.72
901 18.9100 2104.00 2097.29 45.87
902 18.9200 2124.00 2097.32 46.09
903 18.9300 2086.00 2097.34 45.67
904 18.9400 2132.00 2097.36 46.17
905 18.9500 2082.00 2097.39 45.63
906 18.9600 2046.00 2097.41 45.23
907 18.9700 2132.00 2097.43 46.17
908 18.9800 2178.00 2097.46 46.67
909 18.9900 2153.00 2097.48 46.40
910 19.0000 2096.00 2097.50 45.78
911 19.0100 2059.00 2097.52 45.38
912 19.0200 2100.00 2097.55 45.83
913 19.0300 2086.00 2097.57 45.67
914 19.0400 2116.00 2097.59 46.00
915 19.0500 2156.00 2097.62 46.43
916 19.0600 2019.00 2097.64 44.93
917 19.0700 2106.00 2097.66 45.89
918 19.0800 2144.00 2097.68 46.30
919 19.0900 2137.00 2097.71 46.23
920 19.1000 2021.00 2097.73 44.96
921 19.1100 1999.00 2097.75 44.71
922 19.1200 2100.00 2097.77 45.83
923 19.1300 2235.00 2097.80 47.28
924 19.1400 2146.00 2097.82 46.32
925 19.1500 2105.00 2097.84 45.88
926 19.1600 2173.00 2097.86 46.62
927 19.1700 2051.00 2097.88 45.29
928 19.1800 2062.00 2097.91 45.41
929 19.1900 2150.00 2097.93 46.37
930 19.2000 2145.00 2097.95 46.31
931 19.2100 2100.00 2097.97 45.83
932 19.2200 2124.00 2097.99 46.09
933 19.2300 2067.00 2098.02 45.46
934 19.2400 2131.00 2098.04 46.16
935 19.2500 2157.00 2098.06 46.44
936 19.2600 2143.00 2098.08 46.29
937 19.2700 2078.00 2098.10 45.59
938 19.2800 2096.00 2098.12 45.78
939 19.2900 2014.00 2098.14 44.88
940 19.3000 2116.00 2098.17 46.00
941 19.3100 1961.00 2098.19 44.28
942 19.3200 2111.00 2098.21 45.95
943 19.3300 2088.00 2098.23 45.69
944 19.3400 2123.00 2098.25 46.08
945 19.3500 2165.00 2098.27 46.53
946 19.3600 2115.00 2098.29 45.99
947 19.3700 2143.00 2098.31 46.29
948 19.3800 2161.00 2098.34 46.49
949 19.3900 2185.00 2098.36 46.74
950 19.4000 2113.00 2098.38 45.97
951 19.4100 2134.00 2098.40 46.20
952 19.4200 2073.00 2098.42 45.53
953 19.4300 2053.00 2098.44 45.31
954 19.4400 2056.00 2098.46 45.34
955 19.4500 2070.00 2098.48 45.50
956 19.4600 2047.00 2098.50 45.24
957 19.4700 2117.00 2098.52 46.01
958 19.4800 2182.00 2098.54 46.71
959 19.4900 2070.00 2098.56 45.50
960 19.5000 2173.00 2098.58 46.62
961 19.5100 2085.00 2098.60 45.66
962 19.5200 2175.00 2098.62 46.64
963 19.5300 2030.00 2098.64 45.06
964 19.5400 2105.00 2098.66 45.88
965 19.5500 2085.00 2098.68 45.66
966 19.5600 2164.00 2098.70 46.52
967 19.5700 2191.00 2098.72 46.81
968 19.5800 2175.00 2098.74 46.64
969 19.5900 2144.00 2098.76 46.30
970 19.6000 2165.00 2098.78 46.53
971 19.6100 2178.00 2098.80 46.67
972 19.6200 2049.00 2098.82 45.27
973 19.6300 2003.00 2098.84 44.75
974 19.6400 2086.00 2098.86 45.67
975 19.6500 2081.00 2098.88 45.62
976 19.6600 2081.00 2098.90 45.62
977 19.6700 2146.00 2098.92 46.32
978 19.6800 2080.00 2098.94 45.61
979 19.6900 2177.00 2098.96 46.66
980 19.7000 2149.00 2098.98 46.36
981 19.7100 2200.00 2099.00 46.90
982 19.7200 1999.00 2099.02 44.71
983 19.7300 2119.00 2099.04 46.03
984 19.7400 2065.00 2099.06 45.44
985 19.7500 2068.00 2099.08 45.48
986 19.7600 2112.00 2099.10 45.96
987 19.7700 2089.00 2099.11 45.71
988 19.7800 2120.00 2099.13 46.04
989 19.7900 2032.00 2099.15 45.08
990 19.8000 2121.00 2099.17 46.05
991 19.8100 2127.00 2099.19 46.12
992 19.8200 2055.00 2099.21 45.33
993 19.8300 2100.00 2099.23 45.83
994 19.8400 2111.00 2099.25 45.95
995 19.8500 2197.00 2099.27 46.87
996 19.8600 2074.00 2099.28 45.54
997 19.8700 2022.00 2099.30 44.97
998 19.8800 2084.00 2099.32 45.65
999 19.8900 2193.00 2099.34 46.83
1000 19.9000 2052.00 2099.36 45.30
1001 19.9100 2059.00 2099.38 45.38
1002 19.9200 2014.00 2099.40 44.88
1003 19.9300 2069.00 2099.41 45.49
1004 19.9400 2011.00 2099.43 44.84
1005 19.9500 2137.00 2099.45 46.23
1006 19.9600 2093.00 2099.47 45.75
1007 19.9700 2094.00 2099.49 45.76
1008 19.9800 2079.00 2099.51 45.60
1009 19.9900 2129.00 2099.52 46.14
1010 20.0000 2136.00 2099.54 46.22
1011 20.0100 2100.00 2099.56 45.83
1012 20.0200 2085.00 2099.58 45.66
1013 20.0300 2164.00 2099.60 46.52
1014 20.0400 2173.00 2099.61 46.62
1015 20.0500 2046.00 2099.63 45.23
1016 20.0600 2032.00 2099.65 45.08
1017 20.0700 2145.00 2099.67 46.31
1018 20.0800 2083.00 2099.69 45.64
1019 20.0900 2124.00 2099.70 46.09
1020 20.1000 2090.00 2099.72 45.72
1021 20.1100 2084.00 2099.74 45.65
1022 20.1200 2121.00 2099.76 46.05
1023 20.1300 2057.00 2099.77 45.35
1024 20.1400 2091.00 2099.79 45.73
1025 20.1500 2089.00 2099.81 45.71
1026 20.1600 2059.00 2099.83 45.38
1027 20.1700 2142.00 2099.85 46.28
1028 20.1800 2127.00 2099.86 46.12
1029 20.1900 2139.00 2099.88 46.25
1030 20.2000 2140.00 2099.90 46.26
1031 20.2100 2085.00 2099.92 45.66
1032 20.2200 2068.00 2099.93 45.48
1033 20.2300 2093.00 2099.95 45.75
1034 20.2400 2096.00 2099.97 45.78
1035 20.2500 2039.00 2099.98 45.16
1036 20.2600 2066.00 2100.00 45.45
1037 20.2700 2022.00 2100.02 44.97
1038 20.2800 2102.00 2100.04 45.85
1039 20.2900 2081.00 2100.05 45.62
1040 20.3000 2070.00 2100.07 45.50
1041 20.3100 2119.00 2100.09 46.03
1042 20.3200 2088.00 2100.10 45.69
1043 20.3300 2059.00 2100.12 45.38
1044 20.3400 2058.00 2100.14 45.37
1045 20.3500 2062.00 2100.16 45.41
1046 20.3600 2107.00 2100.17 45.90
1047 20.3700 2113.00 2100.19 45.97
1048 20.3800 2066.00 2100.21 45.45
1049 20.3900 2154.00 2100.22 46.41
1050 20.4000 2081.00 2100.24 45.62
1051 20.4100 2131.00 2100.26 46.16
1052 20.4200 2121.00 2100.27 46.05
1053 20.4300 2126.00 2100.29 46.11
1054 20.4400 2139.00 2101.04 46.25
1055 20.4500 2176.00 2101.08 46.65
1056 20.4600 2167.00 2101.13 46.55
1057 20.4700 2084.00 2101.17 45.65
1058 20.4800 2158.00 2101.22 46.45
1059 20.4900 2093.00 2101.63 45.75
1060 20.5000 2097.00 2101.69 45.79
1061 20.5100 2089.00 2101.76 45.71
1062 20.5200 2125.00 2101.83 46.10
1063 20.5300 2159.00 2101.91 46.47
1064 20.5400 2154.00 2101.98 46.41
1065 20.5500 2106.00 2102.06 45.89
1066 20.5600 2087.00 2102.15 45.68
1067 20.5700 2055.00 2102.24 45.33
1068 20.5800 2159.00 2102.33 46.47
1069 20.5900 2047.00 2102.43 45.24
1070 20.6000 2079.00 2102.54 45.60
1071 20.6100 2070.00 2102.65 45.50
1072 20.6200 2010.00 2102.77 44.83
1073 20.6300 2119.00 2102.90 46.03
1074 20.6400 2096.00 2103.04 45.78
1075 20.6500 2116.00 2103.19 46.00
1076 20.6600 2148.00 2103.34 46.35
1077 20.6700 2130.00 2103.52 46.15
1078 20.6800 2160.00 2103.70 46.48
1079 20.6900 1991.00 2103.90 44.62
1080 20.7000 2122.00 2104.12 46.07
1081 20.7100 2112.00 2104.35 45.96
1082 20.7200 2176.00 2104.61 46.65
1083 20.7300 2099.00 2104.89 45.81
1084 20.7400 2115.00 2105.21 45.99
1085 20.7500 2070.00 2105.55 45.50
1086 20.7600 2210.00 2105.94 47.01
1087 20.7700 2213.00 2106.37 47.04
1088 20.7800 2104.00 2106.85 45.87
1089 20.7900 2084.00 2107.39 45.65
1090 20.8000 2112.00 2108.01 45.96
1091 20.8100 2076.00 2108.71 45.56
1092 20.8200 2094.00 2109.51 45.76
1093 20.8300 2164.00 2110.44 46.52
1094 20.8400 2048.00 2111.53 45.25
1095 20.8500 2108.00 2112.80 45.91
1096 20.8600 2079.00 2114.32 45.60
1097 20.8700 2114.00 2116.14 45.98
1098 20.8800 2206.00 2118.35 46.97
1099 20.8900 2182.00 2121.13 46.71
1100 20.9000 2195.00 2124.72 46.85
1101 20.9100 2125.00 2129.63 46.10
1102 20.9200 2174.00 2136.77 46.63
1103 20.9300 2212.00 2147.68 47.03
1104 20.9400 2306.00 2164.67 48.02
1105 20.9500 2266.00 2190.63 47.60
1106 20.9600 2244.00 2228.34 47.37
1107 20.9700 2222.00 2279.17 47.14
1108 20.9800 2328.00 2341.23 48.25
1109 20.9900 2462.00 2406.43 49.62
1110 21.0000 2540.00 2457.92 50.40
1111 21.0100 2614.00 2476.94 51.13
1112 21.0200 2529.00 2462.55 50.29
1113 21.0300 2481.00 2432.94 49.81
1114 21.0400 2407.00 2403.91 49.06
1115 21.0500 2470.00 2377.89 49.70
1116 21.0600 2457.00 2347.55 49.57
1117 21.0700 2368.00 2308.17 48.66
1118 21.0800 2350.00 2264.71 48.48
1119 21.0900 2268.00 2224.66 47.62
1120 21.1000 2309.00 2191.94 48.05
1121 21.1100 2129.00 2167.30 46.14
1122 21.1200 2124.00 2149.86 46.09
1123 21.1300 2167.00 2138.04 46.55
1124 21.1400 2140.00 2130.65 46.26
1125 21.1500 2086.00 2125.35 45.67
1126 21.1600 2066.00 2121.63 45.45
1127 21.1700 2054.00 2118.88 45.32
1128 21.1800 2113.00 2116.74 45.97
1129 21.1900 2119.00 2115.24 46.03
1130 21.2000 2074.00 2113.84 45.54
1131 21.2100 2157.00 2112.67 46.44
1132 21.2200 2184.00 2111.68 46.73
1133 21.2300 2170.00 2110.85 46.58
1134 21.2400 2119.00 2110.14 46.03
1135 21.2500 2069.00 2109.54 45.49
1136 21.2600 2080.00 2109.02 45.61
1137 21.2700 2086.00 2108.57 45.67
1138 21.2800 2136.00 2108.19 46.22
1139 21.2900 2153.00 2107.86 46.40
1140 21.3000 2158.00 2107.58 46.45
1141 21.3100 2171.00 2107.33 46.59
1142 21.3200 2139.00 2107.13 46.25
1143 21.3300 2113.00 2106.96 45.97
1144 21.3400 2039.00 2106.81 45.16
1145 21.3500 2034.00 2106.70 45.10
1146 21.3600 2067.00 2106.61 45.46
1147 21.3700 2204.00 2106.55 46.95
1148 21.3800 2077.00 2106.51 45.57
1149 21.3900 2138.00 2106.49 46.24
1150 21.4000 2085.00 2106.50 45.66
1151 21.4100 2090.00 2106.53 45.72
1152 21.4200 2119.00 2106.58 46.03
1153 21.4300 2207.00 2106.66 46.98
1154 21.4400 2149.00 2106.77 46.36
1155 21.4500 2050.00 2106.90 45.28
1156 21.4600 2123.00 2107.06 46.08
1157 21.4700 2096.00 2107.26 45.78
1158 21.4800 2159.00 2107.50 46.47
1159 21.4900 2058.00 2107.78 45.37
1160 21.5000 2169.00 2108.12 46.57
1161 21.5100 2091.00 2108.51 45.73
1162 21.5200 2101.00 2108.97 45.84
1163 21.5300 2134.00 2109.52 46.20
1164 21.5400 2128.00 2110.17 46.13
1165 21.5500 2100.00 2110.95 45.83
1166 21.5600 2138.00 2111.89 46.24
1167 21.5700 2099.00 2113.02 45.81
1168 21.5800 2111.00 2113.71 45.95
1169 21.5900 2134.00 2115.49 46.20
1170 21.6000 2125.00 2117.82 46.10
1171 21.6100 2089.00 2121.03 45.71
1172 21.6200 2157.00 2125.73 46.44
1173 21.6300 2183.00 2132.93 46.72
1174 21.6400 2157.00 2143.80 46.44
1175 21.6500 2107.00 2160.87 45.90
1176 21.6600 2179.00 2185.48 46.68
1177 21.6700 2233.00 2218.35 47.25
1178 21.6800 2249.00 2257.96 47.42
1179 21.6900 2324.00 2298.76 48.21
1180 21.7000 2374.00 2329.66 48.72
1181 21.7100 2286.00 2339.29 47.81
1182 21.7200 2352.00 2328.37 48.50
1183 21.7300 2387.00 2308.94 48.86
1184 21.7400 2295.00 2290.81 47.91
1185 21.7500 2310.00 2275.45 48.06
1186 21.7600 2266.00 2257.98 47.60
1187 21.7700 2279.00 2234.64 47.74
1188 21.7800 2156.00 2207.90 46.43
1189 21.7900 2184.00 2182.62 46.73
1190 21.8000 2279.00 2161.61 47.74
1191 21.8100 2176.00 2145.59 46.65
1192 21.8200 2113.00 2134.15 45.97
1193 21.8300 2088.00 2126.36 45.69
1194 21.8400 2088.00 2121.17 45.69
1195 21.8500 2159.00 2117.68 46.47
1196 21.8600 2056.00 2115.24 45.34
1197 21.8700 2073.00 2113.44 45.53
1198 21.8800 2145.00 2112.05 46.31
1199 21.8900 2047.00 2110.94 45.24
1200 21.9000 2008.00 2110.02 44.81
1201 21.9100 2157.00 2109.26 46.44
1202 21.9200 2217.00 2108.61 47.08
1203 21.9300 2099.00 2108.06 45.81
1204 21.9400 2118.00 2107.59 46.02
1205 21.9500 2120.00 2107.18 46.04
1206 21.9600 2175.00 2106.83 46.64
1207 21.9700 2101.00 2106.52 45.84
1208 21.9800 2079.00 2106.25 45.60
1209 21.9900 2142.00 2106.01 46.28
1210 22.0000 2052.00 2105.80 45.30
1211 22.0100 2148.00 2105.61 46.35
1212 22.0200 2205.00 2105.45 46.96
1213 22.0300 2071.00 2105.30 45.51
1214 22.0400 2112.00 2105.17 45.96
1215 22.0500 2131.00 2105.05 46.16
1216 22.0600 2134.00 2104.94 46.20
1217 22.0700 2126.00 2104.84 46.11
1218 22.0800 2053.00 2104.76 45.31
1219 22.0900 2117.00 2104.68 46.01
1220 22.1000 2072.00 2104.61 45.52
1221 22.1100 2087.00 2104.55 45.68
1222 22.1200 2106.00 2104.49 45.89
1223 22.1300 2116.00 2104.44 46.00
1224 22.1400 2126.00 2104.39 46.11
1225 22.1500 2126.00 2104.35 46.11
1226 22.1600 2047.00 2104.31 45.24
1227 22.1700 2156.00 2104.28 46.43
1228 22.1800 2191.00 2104.25 46.81
1229 22.1900 2183.00 2104.22 46.72
1230 22.2000 2110.00 2104.19 45.93
1231 22.2100 2126.00 2104.17 46.11
1232 22.2200 2104.00 2104.15 45.87
1233 22.2300 2172.00 2104.13 46.60
1234 22.2400 2146.00 2104.12 46.32
1235 22.2500 2028.00 2104.11 45.03
1236 22.2600 2110.00 2104.09 45.93
1237 22.2700 2150.00 2104.09 46.37
1238 22.2800 2100.00 2103.62 45.83
1239 22.2900 2101.00 2103.63 45.84
1240 22.3000 2066.00 2103.64 45.45
1241 22.3100 2140.00 2103.65 46.26
1242 22.3200 2016.00 2106.44 44.90
1243 22.3300 2076.00 2106.55 45.56
1244 22.3400 2195.00 2106.44 46.85
1245 22.3500 2086.00 2106.57 45.67
1246 22.3600 2084.00 2106.71 45.65
1247 22.3700 2162.00 2106.85 46.50
1248 22.3800 2116.00 2108.39 46.00
1249 22.3900 2179.00 2108.59 46.68
1250 22.4000 2151.00 2108.81 46.38
1251 22.4100 2106.00 2109.04 45.89
1252 22.4200 2072.00 2109.29 45.52
1253 22.4300 2079.00 2109.55 45.60
1254 22.4400 2102.00 2109.82 45.85
1255 22.4500 2083.00 2110.11 45.64
1256 22.4600 2090.00 2110.42 45.72
1257 22.4700 2095.00 2110.75 45.77
1258 22.4800 2067.00 2111.10 45.46
1259 22.4900 1997.00 2111.48 44.69
1260 22.5000 2059.00 2111.88 45.38
1261 22.5100 2002.00 2112.31 44.74
1262 22.5200 2103.00 2112.78 45.86
1263 22.5300 2197.00 2113.28 46.87
1264 22.5400 2137.00 2113.82 46.23
1265 22.5500 2108.00 2114.40 45.91
1266 22.5600 2015.00 2115.03 44.89
1267 22.5700 2143.00 2115.72 46.29
1268 22.5800 2123.00 2116.47 46.08
1269 22.5900 2220.00 2117.29 47.12
1270 22.6000 2130.00 2118.19 46.15
1271 22.6100 2141.00 2119.18 46.27
1272 22.6200 2151.00 2120.27 46.38
1273 22.6300 2035.00 2121.48 45.11
1274 22.6400 2125.00 2122.82 46.10
1275 22.6500 2064.00 2124.32 45.43
1276 22.6600 2033.00 2126.00 45.09
1277 22.6700 2167.00 2127.90 46.55
1278 22.6800 2046.00 2130.05 45.23
1279 22.6900 2106.00 2132.49 45.89
1280 22.7000 2080.00 2135.29 45.61
1281 22.7100 2176.00 2138.53 46.65
1282 22.7200 2010.00 2142.28 44.83
1283 22.7300 2195.00 2146.68 46.85
1284 22.7400 2141.00 2151.88 46.27
1285 22.7500 2111.00 2158.08 45.95
1286 22.7600 2110.00 2165.59 45.93
1287 22.7700 2159.00 2174.86 46.47
1288 22.7800 2242.00 2186.63 47.35
1289 22.7900 2249.00 2202.31 47.42
1290 22.8000 2176.00 2224.43 46.65
1291 22.8100 2240.00 2257.51 47.33
1292 22.8200 2252.00 2308.73 47.46
1293 22.8300 2331.00 2387.94 48.28
1294 22.8400 2417.00 2506.10 49.16
1295 22.8500 2526.00 2671.42 50.26
1296 22.8600 2841.00 2883.82 53.30
1297 22.8700 3063.00 3126.28 55.34
1298 22.8800 3255.00 3353.53 57.05
1299 22.8900 3358.00 3492.08 57.95
1300 22.9000 3433.00 3493.82 58.59
1301 22.9100 3380.00 3395.38 58.14
1302 22.9200 3327.00 3273.84 57.68
1303 22.9300 3189.00 3174.82 56.47
1304 22.9400 3064.00 3095.48 55.35
1305 22.9500 2934.00 3001.67 54.17
1306 22.9600 2878.00 2870.54 53.65
1307 22.9700 2598.00 2717.84 50.97
1308 22.9800 2627.00 2572.25 51.25
1309 22.9900 2399.00 2450.46 48.98
1310 23.0000 2404.00 2357.19 49.03
1311 23.0100 2282.00 2290.34 47.77
1312 23.0200 2214.00 2244.71 47.05
1313 23.0300 2223.00 2214.26 47.15
1314 23.0400 2100.00 2193.76 45.83
1315 23.0500 2203.00 2179.40 46.94
1316 23.0600 2085.00 2168.81 45.66
1317 23.0700 2130.00 2160.60 46.15
1318 23.0800 2155.00 2153.99 46.42
1319 23.0900 2110.00 2148.53 45.93
1320 23.1000 2153.00 2143.97 46.40
1321 23.1100 2135.00 2140.10 46.21
1322 23.1200 2234.00 2136.79 47.27
1323 23.1300 2089.00 2133.94 45.71
1324 23.1400 2165.00 2131.46 46.53
1325 23.1500 2096.00 2129.30 45.78
1326 23.1600 2138.00 2127.40 46.24
1327 23.1700 2041.00 2125.73 45.18
1328 23.1800 2079.00 2124.24 45.60
1329 23.1900 2081.00 2122.92 45.62
1330 23.2000 2076.00 2121.73 45.56
1331 23.2100 2101.00 2120.67 45.84
1332 23.2200 2124.00 2119.71 46.09
1333 23.2300 2071.00 2118.85 45.51
1334 23.2400 2086.00 2118.06 45.67
1335 23.2500 2134.00 2117.35 46.20
1336 23.2600 2045.00 2116.70 45.22
1337 23.2700 2060.00 2116.10 45.39
1338 23.2800 2154.00 2115.56 46.41
1339 23.2900 2111.00 2115.06 45.95
1340 23.3000 2062.00 2114.60 45.41
1341 23.3100 2084.00 2114.18 45.65
1342 23.3200 2147.00 2113.79 46.34
1343 23.3300 2088.00 2113.43 45.69
1344 23.3400 2064.00 2113.10 45.43
1345 23.3500 2112.00 2112.79 45.96
1346 23.3600 2138.00 2112.51 46.24
1347 23.3700 2091.00 2112.24 45.73
1348 23.3800 2110.00 2111.99 45.93
1349 23.3900 2127.00 2111.76 46.12
1350 23.4000 2114.00 2111.55 45.98
1351 23.4100 2086.00 2111.35 45.67
1352 23.4200 2084.00 2111.17 45.65
1353 23.4300 2076.00 2110.99 45.56
1354 23.4400 2102.00 2110.83 45.85
1355 23.4500 2160.00 2110.68 46.48
1356 23.4600 2070.00 2110.54 45.50
1357 23.4700 2138.00 2107.70 46.24
1358 23.4800 2041.00 2107.67 45.18
1359 23.4900 2118.00 2107.64 46.02
1360 23.5000 2083.00 2107.61 45.64
1361 23.5100 2038.00 2107.58 45.14
1362 23.5200 2110.00 2107.56 45.93
1363 23.5300 2161.00 2106.22 46.49
1364 23.5400 2202.00 2106.25 46.93
1365 23.5500 2079.00 2106.28 45.60
1366 23.5600 2054.00 2106.30 45.32
1367 23.5700 2065.00 2106.33 45.44
1368 23.5800 2052.00 2106.36 45.30
1369 23.5900 2123.00 2106.39 46.08
1370 23.6000 2121.00 2106.42 46.05
1371 23.6100 2125.00 2106.45 46.10
1372 23.6200 2090.00 2106.48 45.72
1373 23.6300 2181.00 2106.51 46.70
1374 23.6400 2149.00 2106.53 46.36
1375 23.6500 2110.00 2106.56 45.93
1376 23.6600 2084.00 2106.59 45.65
1377 23.6700 2074.00 2106.62 45.54
1378 23.6800 2156.00 2106.65 46.43
1379 23.6900 2129.00 2106.68 46.14
1380 23.7000 2100.00 2106.71 45.83
1381 23.7100 2188.00 2106.74 46.78
1382 23.7200 2048.00 2106.77 45.25
1383 23.7300 2055.00 2106.80 45.33
1384 23.7400 2129.00 2106.83 46.14
1385 23.7500 2107.00 2106.86 45.90
1386 23.7600 2173.00 2106.89 46.62
1387 23.7700 2125.00 2106.92 46.10
1388 23.7800 2152.00 2106.95 46.39
1389 23.7900 2148.00 2106.98 46.35
1390 23.8000 2105.00 2107.01 45.88
1391 23.8100 2100.00 2107.05 45.83
1392 23.8200 2037.00 2107.08 45.13
1393 23.8300 2122.00 2107.11 46.07
1394 23.8400 2075.00 2107.14 45.55
1395 23.8500 2158.00 2107.17 46.45
1396 23.8600 2142.00 2108.71 46.28
1397 23.8700 2118.00 2108.80 46.02
1398 23.8800 2045.00 2108.88 45.22
1399 23.8900 2189.00 2108.97 46.79
1400 23.9000 1992.00 2109.07 44.63
1401 23.9100 2084.00 2109.17 45.65
1402 23.9200 2128.00 2110.01 46.13
1403 23.9300 2056.00 2110.14 45.34
1404 23.9400 2136.00 2110.28 46.22
1405 23.9500 2118.00 2110.43 46.02
1406 23.9600 2099.00 2110.58 45.81
1407 23.9700 2183.00 2110.74 46.72
1408 23.9800 2158.00 2110.90 46.45
1409 23.9900 2043.00 2111.08 45.20
1410 24.0000 2175.00 2111.27 46.64
1411 24.0100 2043.00 2111.46 45.20
1412 24.0200 2149.00 2111.67 46.36
1413 24.0300 2093.00 2111.89 45.75
1414 24.0400 2058.00 2112.12 45.37
1415 24.0500 2044.00 2112.37 45.21
1416 24.0600 2179.00 2112.64 46.68
1417 24.0700 2125.00 2112.92 46.10
1418 24.0800 2019.00 2113.23 44.93
1419 24.0900 2252.00 2113.55 47.46
1420 24.1000 2096.00 2113.90 45.78
1421 24.1100 2131.00 2114.28 46.16
1422 24.1200 2143.00 2114.69 46.29
1423 24.1300 2151.00 2115.14 46.38
1424 24.1400 2159.00 2115.63 46.47
1425 24.1500 2172.00 2116.16 46.60
1426 24.1600 2101.00 2116.74 45.84
1427 24.1700 2120.00 2117.38 46.04
1428 24.1800 2126.00 2118.08 46.11
1429 24.1900 2114.00 2118.87 45.98
1430 24.2000 2070.00 2119.74 45.50
1431 24.2100 2053.00 2120.72 45.31
1432 24.2200 2085.00 2121.81 45.66
1433 24.2300 2082.00 2123.05 45.63
1434 24.2400 2144.00 2124.47 46.30
1435 24.2500 2116.00 2126.08 46.00
1436 24.2600 2114.00 2127.94 45.98
1437 24.2700 2108.00 2130.10 45.91
1438 24.2800 2150.00 2132.63 46.37
1439 24.2900 2178.00 2135.62 46.67
1440 24.3000 2207.00 2139.19 46.98
1441 24.3100 2013.00 2143.52 44.87
1442 24.3200 2133.00 2148.88 46.18
1443 24.3300 2177.00 2155.76 46.66
1444 24.3400 2104.00 2165.02 45.87
1445 24.3500 2267.00 2178.28 47.61
1446 24.3600 2207.00 2198.29 46.98
1447 24.3700 2343.00 2229.29 48.40
1448 24.3800 2277.00 2276.87 47.72
1449 24.3900 2303.00 2346.76 47.99
1450 24.4000 2431.00 2442.67 49.31
1451 24.4100 2548.00 2562.87 50.48
1452 24.4200 2675.00 2695.52 51.72
1453 24.4300 2700.00 2812.42 51.96
1454 24.4400 2843.00 2873.23 53.32
1455 24.4500 2672.00 2858.75 51.69
1456 24.4600 2733.00 2795.97 52.28
1457 24.4700 2751.00 2727.03 52.45
1458 24.4800 2680.00 2675.20 51.77
1459 24.4900 2619.00 2639.09 51.18
1460 24.5000 2555.00 2599.61 50.55
1461 24.5100 2507.00 2539.30 50.07
1462 24.5200 2449.00 2461.73 49.49
1463 24.5300 2358.00 2382.70 48.56
1464 24.5400 2267.00 2313.78 47.61
1465 24.5500 2362.00 2259.34 48.60
1466 24.5600 2175.00 2219.45 46.64
1467 24.5700 2227.00 2191.79 47.19
1468 24.5800 2122.00 2173.24 46.07
1469 24.5900 2044.00 2160.83 45.21
1470 24.6000 2123.00 2152.28 46.08
1471 24.6100 2198.00 2146.08 46.88
1472 24.6200 2139.00 2141.35 46.25
1473 24.6300 2102.00 2137.59 45.85
1474 24.6400 2171.00 2134.51 46.59
1475 24.6500 2086.00 2131.94 45.67
1476 24.6600 2150.00 2129.77 46.37
1477 24.6700 2188.00 2127.92 46.78
1478 24.6800 2249.00 2126.34 47.42
1479 24.6900 2071.00 2124.97 45.51
1480 24.7000 2208.00 2123.77 46.99
1481 24.7100 2145.00 2122.73 46.31
1482 24.7200 2093.00 2121.81 45.75
1483 24.7300 2154.00 2121.01 46.41
1484 24.7400 2109.00 2120.29 45.92
1485 24.7500 2101.00 2119.65 45.84
1486 24.7600 2074.00 2119.08 45.54
1487 24.7700 2143.00 2118.57 46.29
1488 24.7800 2116.00 2118.11 46.00
1489 24.7900 2125.00 2117.70 46.10
1490 24.8000 2100.00 2117.32 45.83
1491 24.8100 2163.00 2116.99 46.51
1492 24.8200 1975.00 2116.68 44.44
1493 24.8300 2149.00 2116.41 46.36
1494 24.8400 2046.00 2116.15 45.23
1495 24.8500 2099.00 2115.93 45.81
1496 24.8600 2096.00 2115.72 45.78
1497 24.8700 2053.00 2115.53 45.31
1498 24.8800 2041.00 2115.35 45.18
1499 24.8900 2116.00 2115.20 46.00
1500 24.9000 2058.00 2115.05 45.37
1501 24.9100 2090.00 2114.92 45.72
1502 24.9200 2113.00 2114.80 45.97
1503 24.9300 2094.00 2114.69 45.76
1504 24.9400 2104.00 2114.59 45.87
1505 24.9500 2107.00 2114.50 45.90
1506 24.9600 2093.00 2114.42 45.75
1507 24.9700 2117.00 2114.35 46.01
1508 24.9800 2074.00 2114.28 45.54
1509 24.9900 2125.00 2114.22 46.10
1510 25.0000 2060.00 2114.16 45.39
1511 25.0100 2060.00 2114.11 45.39
1512 25.0200 2115.00 2114.07 45.99
1513 25.0300 2198.00 2112.57 46.88
1514 25.0400 2122.00 2112.58 46.07
1515 25.0500 2083.00 2112.60 45.64
1516 25.0600 2131.00 2112.61 46.16
1517 25.0700 2145.00 2112.63 46.31
1518 25.0800 2163.00 2112.65 46.51
1519 25.0900 2059.00 2111.95 45.38
1520 25.1000 2137.00 2112.00 46.23
1521 25.1100 2145.00 2112.04 46.31
1522 25.1200 2093.00 2112.09 45.75
1523 25.1300 2100.00 2112.14 45.83
1524 25.1400 2074.00 2112.18 45.54
1525 25.1500 2199.00 2112.23 46.89
1526 25.1600 2068.00 2112.28 45.48
1527 25.1700 2077.00 2112.32 45.57
1528 25.1800 2120.00 2112.37 46.04
1529 25.1900 2207.00 2112.42 46.98
1530 25.2000 2111.00 2112.47 45.95
1531 25.2100 2163.00 2112.51 46.51
1532 25.2200 2071.00 2112.56 45.51
1533 25.2300 2056.00 2112.61 45.34
1534 25.2400 2099.00 2112.66 45.81
1535 25.2500 2081.00 2112.71 45.62
1536 25.2600 2110.00 2112.75 45.93
1537 25.2700 2128.00 2112.80 46.13
1538 25.2800 2068.00 2112.85 45.48
1539 25.2900 2141.00 2112.90 46.27
1540 25.3000 2146.00 2112.95 46.32
1541 25.3100 2171.00 2113.00 46.59
1542 25.3200 2110.00 2113.05 45.93
1543 25.3300 2070.00 2113.10 45.50
1544 25.3400 2022.00 2113.14 44.97
1545 25.3500 2192.00 2113.19 46.82
1546 25.3600 2098.00 2113.24 45.80
1547 25.3700 2184.00 2113.29 46.73
1548 25.3800 2133.00 2113.34 46.18
1549 25.3900 2133.00 2113.39 46.18
1550 25.4000 2075.00 2113.44 45.55
1551 25.4100 2043.00 2113.49 45.20
1552 25.4200 2123.00 2113.54 46.08
1553 25.4300 2085.00 2113.59 45.66
1554 25.4400 2080.00 2113.64 45.61
1555 25.4500 2184.00 2113.70 46.73
1556 25.4600 2117.00 2113.75 46.01
1557 25.4700 2205.00 2113.80 46.96
1558 25.4800 2108.00 2113.85 45.91
1559 25.4900 2056.00 2113.90 45.34
1560 25.5000 2127.00 2113.95 46.12
1561 25.5100 2100.00 2114.00 45.83
1562 25.5200 2126.00 2114.05 46.11
1563 25.5300 2111.00 2114.11 45.95
1564 25.5400 2179.00 2114.16 46.68
1565 25.5500 2089.00 2114.21 45.71
1566 25.5600 2137.00 2114.26 46.23
1567 25.5700 2070.00 2114.31 45.50
1568 25.5800 2118.00 2114.37 46.02
1569 25.5900 2100.00 2114.42 45.83
1570 25.6000 2143.00 2114.47 46.29
1571 25.6100 2099.00 2114.53 45.81
1572 25.6200 2137.00 2114.58 46.23
1573 25.6300 2155.00 2114.63 46.42
1574 25.6400 2064.00 2114.68 45.43
1575 25.6500 2073.00 2114.74 45.53
1576 25.6600 2025.00 2114.79 45.00
1577 25.6700 2161.00 2114.84 46.49
1578 25.6800 2094.00 2114.90 45.76
1579 25.6900 2131.00 2114.95 46.16
1580 25.7000 2105.00 2115.01 45.88
1581 25.7100 2123.00 2115.06 46.08
1582 25.7200 2145.00 2115.11 46.31
1583 25.7300 2198.00 2115.17 46.88
1584 25.7400 2110.00 2115.22 45.93
1585 25.7500 2077.00 2115.28 45.57
1586 25.7600 2076.00 2115.33 45.56
1587 25.7700 2124.00 2115.39 46.09
1588 25.7800 2110.00 2115.44 45.93
1589 25.7900 2127.00 2115.50 46.12
1590 25.8000 2104.00 2115.55 45.87
1591 25.8100 2214.00 2115.61 47.05
1592 25.8200 2049.00 2115.66 45.27
1593 25.8300 2159.00 2115.72 46.47
1594 25.8400 2083.00 2115.78 45.64
1595 25.8500 2129.00 2115.83 46.14
1596 25.8600 2126.00 2115.89 46.11
1597 25.8700 2053.00 2115.94 45.31
1598 25.8800 2135.00 2116.00 46.21
1599 25.8900 2122.00 2116.06 46.07
1600 25.9000 2087.00 2116.11 45.68
1601 25.9100 2101.00 2116.17 45.84
1602 25.9200 2088.00 2116.23 45.69
1603 25.9300 2104.00 2116.28 45.87
1604 25.9400 2111.00 2116.34 45.95
1605 25.9500 2108.00 2116.40 45.91
1606 25.9600 2090.00 2116.46 45.72
1607 25.9700 2145.00 2116.51 46.31
1608 25.9800 2072.00 2116.57 45.52
1609 25.9900 2085.00 2116.63 45.66
1610 26.0000 2137.00 2116.69 46.23
1611 26.0100 2148.00 2116.74 46.35
1612 26.0200 2119.00 2116.80 46.03
1613 26.0300 2161.00 2116.86 46.49
1614 26.0400 2135.00 2116.92 46.21
1615 26.0500 2031.00 2116.98 45.07
1616 26.0600 2078.00 2117.04 45.59
1617 26.0700 2098.00 2117.09 45.80
1618 26.0800 2150.00 2117.15 46.37
1619 26.0900 2114.00 2117.21 45.98
1620 26.1000 2096.00 2117.27 45.78
1621 26.1100 2136.00 2117.33 46.22
1622 26.1200 2222.00 2117.39 47.14
1623 26.1300 2099.00 2117.45 45.81
1624 26.1400 2104.00 2117.51 45.87
1625 26.1500 2121.00 2117.57 46.05
1626 26.1600 2158.00 2117.63 46.45
1627 26.1700 2144.00 2117.69 46.30
1628 26.1800 2084.00 2117.75 45.65
1629 26.1900 2135.00 2117.81 46.21
1630 26.2000 2127.00 2117.87 46.12
1631 26.2100 2119.00 2117.93 46.03
1632 26.2200 2210.00 2117.99 47.01
1633 26.2300 2146.00 2118.05 46.32
1634 26.2400 2111.00 2118.11 45.95
1635 26.2500 2162.00 2118.17 46.50
1636 26.2600 2148.00 2118.23 46.35
1637 26.2700 2177.00 2118.30 46.66
1638 26.2800 2096.00 2118.36 45.78
1639 26.2900 2111.00 2118.42 45.95
1640 26.3000 2153.00 2118.48 46.40
1641 26.3100 2139.00 2118.54 46.25
1642 26.3200 2095.00 2118.60 45.77
1643 26.3300 2082.00 2118.67 45.63
1644 26.3400 2069.00 2118.73 45.49
1645 26.3500 2058.00 2118.79 45.37
1646 26.3600 2102.00 2118.85 45.85
1647 26.3700 2142.00 2118.92 46.28
1648 26.3800 2090.00 2118.98 45.72
1649 26.3900 2134.00 2119.04 46.20
1650 26.4000 2146.00 2119.10 46.32
1651 26.4100 2108.00 2119.24 45.91
1652 26.4200 2140.00 2119.30 46.26
1653 26.4300 2050.00 2119.37 45.28
1654 26.4400 2110.00 2119.44 45.93
1655 26.4500 2122.00 2119.50 46.07
1656 26.4600 2195.00 2119.57 46.85
1657 26.4700 2075.00 2119.64 45.55
1658 26.4800 2123.00 2119.74 46.08
1659 26.4900 2022.00 2119.81 44.97
1660 26.5000 2199.00 2119.88 46.89
1661 26.5100 2103.00 2119.95 45.86
1662 26.5200 2132.00 2120.02 46.17
1663 26.5300 2150.00 2120.09 46.37
1664 26.5400 2173.00 2120.16 46.62
1665 26.5500 2083.00 2120.23 45.64
1666 26.5600 2119.00 2120.30 46.03
1667 26.5700 2194.00 2120.38 46.84
1668 26.5800 2185.00 2120.45 46.74
1669 26.5900 2177.00 2120.53 46.66
1670 26.6000 2140.00 2120.60 46.26
1671 26.6100 2133.00 2120.68 46.18
1672 26.6200 2125.00 2120.75 46.10
1673 26.6300 2108.00 2120.83 45.91
1674 26.6400 2140.00 2120.91 46.26
1675 26.6500 2119.00 2120.99 46.03
1676 26.6600 2122.00 2121.07 46.07
1677 26.6700 2063.00 2121.15 45.42
1678 26.6800 2134.00 2121.24 46.20
1679 26.6900 2050.00 2121.33 45.28
1680 26.7000 2155.00 2121.41 46.42
1681 26.7100 2148.00 2121.51 46.35
1682 26.7200 2072.00 2121.60 45.52
1683 26.7300 2216.00 2121.70 47.07
1684 26.7400 2215.00 2121.79 47.06
1685 26.7500 2124.00 2121.90 46.09
1686 26.7600 2093.00 2122.01 45.75
1687 26.7700 2120.00 2122.12 46.04
1688 26.7800 2058.00 2122.24 45.37
1689 26.7900 2124.00 2122.36 46.09
1690 26.8000 2047.00 2122.50 45.24
1691 26.8100 2031.00 2122.64 45.07
1692 26.8200 2046.00 2122.80 45.23
1693 26.8300 2067.00 2122.97 45.46
1694 26.8400 2126.00 2123.16 46.11
1695 26.8500 2115.00 2123.37 45.99
1696 26.8600 2170.00 2123.61 46.58
1697 26.8700 2106.00 2123.89 45.89
1698 26.8800 2169.00 2124.21 46.57
1699 26.8900 2117.00 2124.62 46.01
1700 26.9000 2061.00 2125.14 45.40
1701 26.9100 2096.00 2125.86 45.78
1702 26.9200 2119.00 2126.92 46.03
1703 26.9300 2115.00 2130.69 45.99
1704 26.9400 2117.00 2133.16 46.01
1705 26.9500 2100.00 2136.69 45.83
1706 26.9600 2221.00 2141.44 47.13
1707 26.9700 2091.00 2147.30 45.73
1708 26.9800 2190.00 2153.68 46.80
1709 26.9900 2176.00 2159.27 46.65
1710 27.0000 2160.00 2163.28 46.48
1711 27.0100 2174.00 2162.66 46.63
1712 27.0200 2117.00 2159.66 46.01
1713 27.0300 2230.00 2156.29 47.22
1714 27.0400 2181.00 2153.84 46.70
1715 27.0500 2217.00 2152.56 47.08
1716 27.0600 2259.00 2151.81 47.53
1717 27.0700 2196.00 2150.50 46.86
1718 27.0800 2206.00 2148.03 46.97
1719 27.0900 2066.00 2144.82 45.45
1720 27.1000 2156.00 2141.63 46.43
1721 27.1100 2145.00 2138.94 46.31
1722 27.1200 2109.00 2136.92 45.92
1723 27.1300 2118.00 2135.57 46.02
1724 27.1400 2154.00 2134.78 46.41
1725 27.1500 2157.00 2134.40 46.44
1726 27.1600 2091.00 2134.32 45.73
1727 27.1700 2173.00 2134.44 46.62
1728 27.1800 2084.00 2134.70 45.65
1729 27.1900 2076.00 2135.06 45.56
1730 27.2000 2171.00 2135.50 46.59
1731 27.2100 2141.00 2136.03 46.27
1732 27.2200 2213.00 2136.63 47.04
1733 27.2300 2152.00 2137.32 46.39
1734 27.2400 2122.00 2138.09 46.07
1735 27.2500 2060.00 2138.96 45.39
1736 27.2600 2144.00 2139.93 46.30
1737 27.2700 2155.00 2141.02 46.42
1738 27.2800 2114.00 2142.24 45.98
1739 27.2900 2145.00 2143.62 46.31
1740 27.3000 2144.00 2145.16 46.30
1741 27.3100 2132.00 2146.92 46.17
1742 27.3200 2081.00 2148.91 45.62
1743 27.3300 2120.00 2151.20 46.04
1744 27.3400 2130.00 2153.82 46.15
1745 27.3500 2141.00 2156.87 46.27
1746 27.3600 2061.00 2160.43 45.40
1747 27.3700 2187.00 2164.62 46.77
1748 27.3800 2089.00 2169.61 45.71
1749 27.3900 2044.00 2175.64 45.21
1750 27.4000 2147.00 2183.09 46.34
1751 27.4100 2074.00 2192.58 45.54
1752 27.4200 2230.00 2205.30 47.22
1753 27.4300 2229.00 2223.35 47.21
1754 27.4400 2248.00 2250.39 47.41
1755 27.4500 2216.00 2292.05 47.07
1756 27.4600 2383.00 2355.81 48.82
1757 27.4700 2407.00 2449.68 49.06
1758 27.4800 2496.00 2579.26 49.96
1759 27.4900 2689.00 2743.67 51.86
1760 27.5000 2923.00 2929.57 54.06
1761 27.5100 3169.00 3103.51 56.29
1762 27.5200 3310.00 3211.23 57.53
1763 27.5300 3457.00 3212.24 58.80
1764 27.5400 3236.00 3126.59 56.89
1765 27.5500 3219.00 3014.15 56.74
1766 27.5600 2932.00 2921.94 54.15
1767 27.5700 2835.00 2866.57 53.24
1768 27.5800 2774.00 2837.28 52.67
1769 27.5900 2798.00 2803.27 52.90
1770 27.6000 2840.00 2736.56 53.29
1771 27.6100 2673.00 2638.67 51.70
1772 27.6200 2594.00 2531.56 50.93
1773 27.6300 2403.00 2433.78 49.02
1774 27.6400 2327.00 2354.02 48.24
1775 27.6500 2268.00 2294.06 47.62
1776 27.6600 2238.00 2251.69 47.31
1777 27.6700 2269.00 2222.95 47.63
1778 27.6800 2136.00 2203.75 46.22
1779 27.6900 2120.00 2190.67 46.04
1780 27.7000 2204.00 2181.35 46.95
1781 27.7100 2158.00 2174.34 46.45
1782 27.7200 2156.00 2168.83 46.43
1783 27.7300 2179.00 2164.35 46.68
1784 27.7400 2140.00 2160.62 46.26
1785 27.7500 2163.00 2157.48 46.51
1786 27.7600 2160.00 2154.81 46.48
1787 27.7700 2102.00 2152.52 45.85
1788 27.7800 2093.00 2150.54 45.75
1789 27.7900 2178.00 2148.82 46.67
1790 27.8000 2128.00 2147.32 46.13
1791 27.8100 2137.00 2146.00 46.23
1792 27.8200 2139.00 2144.84 46.25
1793 27.8300 2099.00 2143.81 45.81
1794 27.8400 2132.00 2142.89 46.17
1795 27.8500 2095.00 2142.08 45.77
1796 27.8600 2121.00 2141.35 46.05
1797 27.8700 2182.00 2140.69 46.71
1798 27.8800 2085.00 2140.11 45.66
1799 27.8900 2126.00 2139.58 46.11
1800 27.9000 2203.00 2139.10 46.94
1801 27.9100 2132.00 2138.67 46.17
1802 27.9200 2123.00 2138.28 46.08
1803 27.9300 2039.00 2137.93 45.16
1804 27.9400 2167.00 2137.61 46.55
1805 27.9500 2120.00 2137.32 46.04
1806 27.9600 2165.00 2137.06 46.53
1807 27.9700 2137.00 2136.82 46.23
1808 27.9800 2116.00 2136.61 46.00
1809 27.9900 2148.00 2136.41 46.35
1810 28.0000 2213.00 2136.23 47.04
1811 28.0100 2122.00 2136.07 46.07
1812 28.0200 2102.00 2135.93 45.85
1813 28.0300 2088.00 2135.79 45.69
1814 28.0400 2145.00 2135.68 46.31
1815 28.0500 2199.00 2135.57 46.89
1816 28.0600 2129.00 2135.48 46.14
1817 28.0700 2127.00 2135.39 46.12
1818 28.0800 2136.00 2135.31 46.22
1819 28.0900 2084.00 2135.25 45.65
1820 28.1000 2094.00 2135.19 45.76
1821 28.1100 2155.00 2135.14 46.42
1822 28.1200 2102.00 2132.95 45.85
1823 28.1300 2104.00 2132.99 45.87
1824 28.1400 2146.00 2133.02 46.32
1825 28.1500 2164.00 2133.06 46.52
1826 28.1600 2135.00 2133.10 46.21
1827 28.1700 2086.00 2133.14 45.67
1828 28.1800 2186.00 2133.18 46.75
1829 28.1900 2067.00 2132.17 45.46
1830 28.2000 2214.00 2132.25 47.05
1831 28.2100 2064.00 2132.34 45.43
1832 28.2200 2139.00 2132.42 46.25
1833 28.2300 2254.00 2132.50 47.48
1834 28.2400 2145.00 2132.58 46.31
1835 28.2500 2115.00 2132.66 45.99
1836 28.2600 2155.00 2132.75 46.42
1837 28.2700 2152.00 2132.83 46.39
1838 28.2800 2104.00 2132.91 45.87
1839 28.2900 2101.00 2132.99 45.84
1840 28.3000 2154.00 2133.08 46.41
1841 28.3100 2147.00 2133.16 46.34
1842 28.3200 2103.00 2133.24 45.86
1843 28.3300 2132.00 2133.32 46.17
1844 28.3400 2081.00 2133.41 45.62
1845 28.3500 2129.00 2133.49 46.14
1846 28.3600 2206.00 2133.57 46.97
1847 28.3700 2167.00 2133.66 46.55
1848 28.3800 2128.00 2133.74 46.13
1849 28.3900 2098.00 2133.82 45.80
1850 28.4000 2142.00 2133.91 46.28
1851 28.4100 2170.00 2133.99 46.58
1852 28.4200 2126.00 2134.07 46.11
1853 28.4300 2133.00 2134.16 46.18
1854 28.4400 2154.00 2134.24 46.41
1855 28.4500 2127.00 2134.32 46.12
1856 28.4600 2136.00 2134.41 46.22
1857 28.4700 2129.00 2134.49 46.14
1858 28.4800 2080.00 2134.57 45.61
1859 28.4900 2083.00 2134.66 45.64
1860 28.5000 2156.00 2134.74 46.43
1861 28.5100 2200.00 2134.83 46.90
1862 28.5200 2097.00 2134.91 45.79
1863 28.5300 2147.00 2139.05 46.34
1864 28.5400 2120.00 2139.27 46.04
1865 28.5500 2170.00 2139.50 46.58
1866 28.5600 2169.00 2139.73 46.57
1867 28.5700 2078.00 2139.98 45.59
1868 28.5800 2092.00 2140.23 45.74
1869 28.5900 2205.00 2140.49 46.96
1870 28.6000 2139.00 2140.77 46.25
1871 28.6100 2074.00 2143.10 45.54
1872 28.6200 2165.00 2143.46 46.53
1873 28.6300 2138.00 2143.85 46.24
1874 28.6400 2151.00 2144.25 46.38
1875 28.6500 2185.00 2144.66 46.74
1876 28.6600 2204.00 2145.10 46.95
1877 28.6700 2119.00 2145.57 46.03
1878 28.6800 2181.00 2146.05 46.70
1879 28.6900 2078.00 2146.56 45.59
1880 28.7000 2122.00 2147.11 46.07
1881 28.7100 2160.00 2147.68 46.48
1882 28.7200 2092.00 2148.28 45.74
1883 28.7300 2195.00 2148.93 46.85
1884 28.7400 2149.00 2149.61 46.36
1885 28.7500 2134.00 2150.35 46.20
1886 28.7600 2134.00 2151.13 46.20
1887 28.7700 2161.00 2151.96 46.49
1888 28.7800 2189.00 2152.86 46.79
1889 28.7900 2106.00 2153.83 45.89
1890 28.8000 2195.00 2154.87 46.85
1891 28.8100 2197.00 2156.00 46.87
1892 28.8200 2219.00 2157.22 47.11
1893 28.8300 2166.00 2158.55 46.54
1894 28.8400 2149.00 2160.01 46.36
1895 28.8500 2077.00 2161.60 45.57
1896 28.8600 2196.00 2163.35 46.86
1897 28.8700 2152.00 2165.28 46.39
1898 28.8800 2140.00 2167.42 46.26
1899 28.8900 2212.00 2169.80 47.03
1900 28.9000 2215.00 2172.46 47.06
1901 28.9100 2220.00 2175.45 47.12
1902 28.9200 2295.00 2178.82 47.91
1903 28.9300 2323.00 2182.64 48.20
1904 28.9400 2270.00 2187.01 47.64
1905 28.9500 2236.00 2192.04 47.29
1906 28.9600 2261.00 2197.85 47.55
1907 28.9700 2224.00 2204.65 47.16
1908 28.9800 2246.00 2212.65 47.39
1909 28.9900 2269.00 2222.19 47.63
1910 29.0000 2183.00 2233.73 46.72
1911 29.0100 2277.00 2248.01 47.72
1912 29.0200 2322.00 2266.34 48.19
1913 29.0300 2264.00 2291.06 47.58
1914 29.0400 2299.00 2328.04 47.95
1915 29.0500 2376.00 2381.29 48.74
1916 29.0600 2496.00 2463.21 49.96
1917 29.0700 2679.00 2587.71 51.76
1918 29.0800 2816.00 2769.16 53.07
1919 29.0900 3003.00 3016.91 54.80
1920 29.1000 3270.00 3327.61 57.18
1921 29.1100 3671.00 3674.29 60.59
1922 29.1200 4092.00 3993.86 63.97
1923 29.1300 4348.00 4185.21 65.94
1924 29.1400 4464.00 4177.03 66.81
1925 29.1500 4372.00 4007.61 66.12
1926 29.1600 3953.00 3787.01 62.87
1927 29.1700 3693.00 3603.67 60.77
1928 29.1800 3508.00 3493.99 59.23
1929 29.1900 3488.00 3447.17 59.06
1930 29.2000 3371.00 3413.59 58.06
1931 29.2100 3330.00 3331.43 57.71
1932 29.2200 3332.00 3178.99 57.72
1933 29.2300 2958.00 2987.22 54.39
1934 29.2400 2820.00 2797.38 53.10
1935 29.2500 2695.00 2633.98 51.91
1936 29.2600 2555.00 2505.91 50.55
1937 29.2700 2315.00 2412.50 48.11
1938 29.2800 2347.00 2347.96 48.45
1939 29.2900 2311.00 2304.69 48.07
1940 29.3000 2239.00 2275.64 47.32
1941 29.3100 2263.00 2255.61 47.57
1942 29.3200 2305.00 2241.08 48.01
1943 29.3300 2325.00 2230.03 48.22
1944 29.3400 2266.00 2221.29 47.60
1945 29.3500 2267.00 2214.22 47.61
1946 29.3600 2257.00 2208.42 47.51
1947 29.3700 2225.00 2203.65 47.17
1948 29.3800 2205.00 2199.72 46.96
1949 29.3900 2162.00 2196.52 46.50
1950 29.4000 2249.00 2193.92 47.42
1951 29.4100 2196.00 2191.87 46.86
1952 29.4200 2135.00 2190.30 46.21
1953 29.4300 2125.00 2189.20 46.10
1954 29.4400 2172.00 2188.54 46.60
1955 29.4500 2160.00 2188.31 46.48
1956 29.4600 2194.00 2188.53 46.84
1957 29.4700 2149.00 2189.22 46.36
1958 29.4800 2152.00 2190.43 46.39
1959 29.4900 2199.00 2192.22 46.89
1960 29.5000 2166.00 2194.70 46.54
1961 29.5100 2121.00 2198.02 46.05
1962 29.5200 2149.00 2202.43 46.36
1963 29.5300 2151.00 2208.38 46.38
1964 29.5400 2191.00 2216.65 46.81
1965 29.5500 2145.00 2228.71 46.31
1966 29.5600 2287.00 2247.06 47.82
1967 29.5700 2276.00 2275.61 47.71
1968 29.5800 2331.00 2319.60 48.28
1969 29.5900 2453.00 2384.75 49.53
1970 29.6000 2401.00 2475.47 49.00
1971 29.6100 2675.00 2592.01 51.72
1972 29.6200 2732.00 2726.52 52.27
1973 29.6300 2869.00 2858.38 53.56
1974 29.6400 2976.00 2950.87 54.55
1975 29.6500 3137.00 2968.90 56.01
1976 29.6600 2951.00 2914.49 54.32
1977 29.6700 2871.00 2827.01 53.58
1978 29.6800 2813.00 2746.26 53.04
1979 29.6900 2752.00 2692.76 52.46
1980 29.7000 2661.00 2668.15 51.58
1981 29.7100 2611.00 2657.92 51.10
1982 29.7200 2634.00 2637.29 51.32
1983 29.7300 2630.00 2589.05 51.28
1984 29.7400 2613.00 2514.19 51.12
1985 29.7500 2542.00 2437.58 50.42
1986 29.7600 2475.00 2367.93 49.75
1987 29.7700 2376.00 2311.15 48.74
1988 29.7800 2233.00 2268.42 47.25
1989 29.7900 2225.00 2238.22 47.17
1990 29.8000 2277.00 2217.73 47.72
1991 29.8100 2193.00 2202.06 46.83
1992 29.8200 2189.00 2192.87 46.79
1993 29.8300 2116.00 2186.46 46.00
1994 29.8400 2313.00 2181.87 48.09
1995 29.8500 2252.00 2178.56 47.46
1996 29.8600 2247.00 2176.31 47.40
1997 29.8700 2158.00 2174.98 46.45
1998 29.8800 2098.00 2174.46 45.80
1999 29.8900 2102.00 2174.58 45.85
2000 29.9000 2162.00 2175.00 46.50
2001 29.9100 2081.00 2175.14 45.62
2002 29.9200 2234.00 2174.40 47.27
2003 29.9300 2098.00 2172.65 45.80
2004 29.9400 2168.00 2170.41 46.56
2005 29.9500 2185.00 2168.30 46.74
2006 29.9600 2151.00 2166.68 46.38
2007 29.9700 2120.00 2165.59 46.04
2008 29.9800 2103.00 2164.87 45.86
2009 29.9900 2085.00 2164.14 45.66
2010 30.0000 2046.00 2163.07 45.23
2011 30.0100 2142.00 2161.66 46.28
2012 30.0200 2099.00 2160.13 45.81
2013 30.0300 2122.00 2158.71 46.07
2014 30.0400 2115.00 2157.50 45.99
2015 30.0500 2116.00 2156.54 46.00
2016 30.0600 2136.00 2155.81 46.22
2017 30.0700 2122.00 2155.25 46.07
2018 30.0800 2095.00 2154.83 45.77
2019 30.0900 2162.00 2154.51 46.50
2020 30.1000 2135.00 2154.25 46.21
2021 30.1100 2170.00 2154.04 46.58
2022 30.1200 2082.00 2153.89 45.63
2023 30.1300 2192.00 2153.74 46.82
2024 30.1400 2147.00 2153.61 46.34
2025 30.1500 2114.00 2153.49 45.98
2026 30.1600 2203.00 2153.39 46.94
2027 30.1700 2111.00 2153.31 45.95
2028 30.1800 2150.00 2153.24 46.37
2029 30.1900 2197.00 2153.18 46.87
2030 30.2000 2130.00 2153.14 46.15
2031 30.2100 2164.00 2153.10 46.52
2032 30.2200 2106.00 2153.07 45.89
2033 30.2300 2132.00 2153.05 46.17
2034 30.2400 2093.00 2153.03 45.75
2035 30.2500 2116.00 2153.02 46.00
2036 30.2600 2140.00 2151.46 46.26
2037 30.2700 2104.00 2151.50 45.87
2038 30.2800 2191.00 2151.56 46.81
2039 30.2900 2087.00 2151.61 45.68
2040 30.3000 2124.00 2151.67 46.09
2041 30.3100 2110.00 2151.73 45.93
2042 30.3200 2152.00 2151.79 46.39
2043 30.3300 2111.00 2151.07 45.95
2044 30.3400 2223.00 2151.16 47.15
2045 30.3500 2210.00 2151.25 47.01
2046 30.3600 2178.00 2151.35 46.67
2047 30.3700 2223.00 2151.44 47.15
2048 30.3800 2121.00 2151.53 46.05
2049 30.3900 2149.00 2151.63 46.36
2050 30.4000 2071.00 2151.72 45.51
2051 30.4100 2118.00 2151.82 46.02
2052 30.4200 2165.00 2151.92 46.53
2053 30.4300 2115.00 2152.01 45.99
2054 30.4400 2081.00 2152.11 45.62
2055 30.4500 2178.00 2152.22 46.67
2056 30.4600 2113.00 2152.32 45.97
2057 30.4700 2147.00 2152.42 46.34
2058 30.4800 2128.00 2152.53 46.13
2059 30.4900 2231.00 2152.64 47.23
2060 30.5000 2063.00 2152.75 45.42
2061 30.5100 2164.00 2152.86 46.52
2062 30.5200 2102.00 2152.98 45.85
2063 30.5300 2145.00 2153.08 46.31
2064 30.5400 2071.00 2153.21 45.51
2065 30.5500 2154.00 2153.34 46.41
2066 30.5600 2159.00 2153.48 46.47
2067 30.5700 2161.00 2153.63 46.49
2068 30.5800 2158.00 2153.79 46.45
2069 30.5900 2126.00 2153.96 46.11
2070 30.6000 2086.00 2154.16 45.67
2071 30.6100 2154.00 2154.36 46.41
2072 30.6200 2167.00 2154.62 46.55
2073 30.6300 2098.00 2154.94 45.80
2074 30.6400 2187.00 2155.37 46.77
2075 30.6500 2069.00 2155.98 45.49
2076 30.6600 2103.00 2156.86 45.86
2077 30.6700 2150.00 2158.13 46.37
2078 30.6800 2195.00 2159.91 46.85
2079 30.6900 2150.00 2162.24 46.37
2080 30.7000 2192.00 2165.06 46.82
2081 30.7100 2221.00 2168.06 47.13
2082 30.7200 2201.00 2170.65 46.91
2083 30.7300 2161.00 2171.98 46.49
2084 30.7400 2152.00 2171.61 46.39
2085 30.7500 2254.00 2170.04 47.48
2086 30.7600 2205.00 2168.20 46.96
2087 30.7700 2225.00 2166.75 47.17
2088 30.7800 2181.00 2165.96 46.70
2089 30.7900 2096.00 2165.74 45.78
2090 30.8000 2173.00 2165.71 46.62
2091 30.8100 2159.00 2165.33 46.47
2092 30.8200 2170.00 2164.33 46.58
2093 30.8300 2158.00 2162.90 46.45
2094 30.8400 2118.00 2161.38 46.02
2095 30.8500 2188.00 2160.03 46.78
2096 30.8600 2181.00 2158.95 46.70
2097 30.8700 2153.00 2158.17 46.40
2098 30.8800 2210.00 2157.65 47.01
2099 30.8900 2096.00 2157.32 45.78
2100 30.9000 2087.00 2157.13 45.68
2101 30.9100 2080.00 2157.03 45.61
2102 30.9200 2044.00 2156.98 45.21
2103 30.9300 2170.00 2156.96 46.58
2104 30.9400 2154.00 2156.97 46.41
2105 30.9500 2183.00 2156.99 46.72
2106 30.9600 2209.00 2157.02 47.00
2107 30.9700 2103.00 2157.06 45.86
2108 30.9800 2230.00 2158.67 47.22
2109 30.9900 2211.00 2158.78 47.02
2110 31.0000 2232.00 2158.89 47.24
2111 31.0100 2174.00 2159.01 46.63
2112 31.0200 2147.00 2159.13 46.34
2113 31.0300 2240.00 2159.26 47.33
2114 31.0400 2275.00 2159.40 47.70
2115 31.0500 2184.00 2159.54 46.73
2116 31.0600 2190.00 2160.46 46.80
2117 31.0700 2277.00 2160.64 47.72
2118 31.0800 2174.00 2160.83 46.63
2119 31.0900 2232.00 2161.03 47.24
2120 31.1000 2238.00 2161.23 47.31
2121 31.1100 2163.00 2161.44 46.51
2122 31.1200 2229.00 2161.66 47.21
2123 31.1300 2133.00 2161.89 46.18
2124 31.1400 2217.00 2162.13 47.08
2125 31.1500 2250.00 2162.38 47.43
2126 31.1600 2160.00 2162.64 46.48
2127 31.1700 2145.00 2162.92 46.31
2128 31.1800 2208.00 2163.21 46.99
2129 31.1900 2221.00 2163.51 47.13
2130 31.2000 2151.00 2163.83 46.38
2131 31.2100 2151.00 2164.17 46.38
2132 31.2200 2124.00 2164.53 46.09
2133 31.2300 2195.00 2164.91 46.85
2134 31.2400 2278.00 2165.32 47.73
2135 31.2500 2106.00 2165.75 45.89
2136 31.2600 2166.00 2166.22 46.54
2137 31.2700 2182.00 2166.71 46.71
2138 31.2800 2286.00 2167.25 47.81
2139 31.2900 2174.00 2167.83 46.63
2140 31.3000 2149.00 2168.45 46.36
2141 31.3100 2261.00 2169.14 47.55
2142 31.3200 2221.00 2169.88 47.13
2143 31.3300 2184.00 2170.70 46.73
2144 31.3400 2146.00 2171.59 46.32
2145 31.3500 2152.00 2172.55 46.39
2146 31.3600 2159.00 2173.66 46.47
2147 31.3700 2120.00 2174.90 46.04
2148 31.3800 2246.00 2176.28 47.39
2149 31.3900 2240.00 2177.85 47.33
2150 31.4000 2128.00 2179.64 46.13
2151 31.4100 2223.00 2181.68 47.15
2152 31.4200 2282.00 2184.04 47.77
2153 31.4300 2200.00 2186.77 46.90
2154 31.4400 2188.00 2190.00 46.78
2155 31.4500 2235.00 2193.84 47.28
2156 31.4600 2196.00 2218.67 46.86
2157 31.4700 2193.00 2225.14 46.83
2158 31.4800 2275.00 2233.36 47.70
2159 31.4900 2272.00 2244.40 47.67
2160 31.5000 2244.00 2260.08 47.37
2161 31.5100 2337.00 2283.40 48.34
2162 31.5200 2355.00 2318.67 48.53
2163 31.5300 2425.00 2371.14 49.24
2164 31.5400 2509.00 2455.62 50.09
2165 31.5500 2541.00 2555.24 50.41
2166 31.5600 2687.00 2676.94 51.84
2167 31.5700 2811.00 2808.88 53.02
2168 31.5800 2945.00 2925.67 54.27
2169 31.5900 2982.00 2990.63 54.61
2170 31.6000 2986.00 2980.54 54.64
2171 31.6100 2858.00 2911.99 53.46
2172 31.6200 2817.00 2825.22 53.08
2173 31.6300 2684.00 2752.66 51.81
2174 31.6400 2712.00 2709.28 52.08
2175 31.6500 2617.00 2694.70 51.16
2176 31.6600 2649.00 2695.21 51.47
2177 31.6700 2599.00 2687.76 50.98
2178 31.6800 2690.00 2654.09 51.87
2179 31.6900 2585.00 2595.75 50.84
2180 31.7000 2524.00 2527.86 50.24
2181 31.7100 2402.00 2464.03 49.01
2182 31.7200 2413.00 2411.26 49.12
2183 31.7300 2299.00 2371.80 47.95
2184 31.7400 2329.00 2344.93 48.26
2185 31.7500 2371.00 2328.35 48.69
2186 31.7600 2286.00 2319.38 47.81
2187 31.7700 2291.00 2315.68 47.86
2188 31.7800 2294.00 2315.56 47.90
2189 31.7900 2359.00 2317.96 48.57
2190 31.8000 2290.00 2322.30 47.85
2191 31.8100 2301.00 2328.30 47.97
2192 31.8200 2337.00 2335.90 48.34
2193 31.8300 2386.00 2345.11 48.85
2194 31.8400 2405.00 2356.03 49.04
2195 31.8500 2385.00 2368.83 48.84
2196 31.8600 2341.00 2383.74 48.38
2197 31.8700 2461.00 2401.08 49.61
2198 31.8800 2424.00 2421.24 49.23
2199 31.8900 2498.00 2444.74 49.98
2200 31.9000 2493.00 2490.50 49.93
2201 31.9100 2559.00 2523.42 50.59
2202 31.9200 2586.00 2562.33 50.85
2203 31.9300 2656.00 2608.81 51.54
2204 31.9400 2656.00 2665.16 51.54
2205 31.9500 2778.00 2735.12 52.71
2206 31.9600 2812.00 2825.17 53.03
2207 31.9700 2918.00 2947.09 54.02
2208 31.9800 3142.00 3121.79 56.05
2209 31.9900 3419.00 3393.17 58.47
2210 32.0000 4013.00 3794.01 63.35
2211 32.0100 4469.00 4398.07 66.85
2212 32.0200 5183.00 5272.23 71.99
2213 32.0300 6338.00 6458.73 79.61
2214 32.0400 7627.00 7944.29 87.33
2215 32.0500 9010.00 9611.62 94.92
2216 32.0600 10512.00 11187.30 102.53
2217 32.0700 11385.00 12222.60 106.70
2218 32.0800 12158.00 12330.70 110.26
2219 32.0900 11839.00 11577.60 108.81
2220 32.1000 10843.00 10438.80 104.13
2221 32.1100 9767.00 9382.12 98.83
2222 32.1200 8640.00 8666.28 92.95
2223 32.1300 8263.00 8345.00 90.90
2224 32.1400 7875.00 8300.81 88.74
2225 32.1500 7873.00 8270.54 88.73
2226 32.1600 7663.00 7966.82 87.54
2227 32.1700 7407.00 7299.46 86.06
2228 32.1800 6576.00 6417.10 81.09
2229 32.1900 5612.00 5518.09 74.91
2230 32.2000 4856.00 4726.78 69.68
2231 32.2100 4160.00 4093.26 64.50
2232 32.2200 3737.00 3624.99 61.13
2233 32.2300 3373.00 3298.20 58.08
2234 32.2400 3141.00 3079.03 56.04
2235 32.2500 2908.00 2934.31 53.93
2236 32.2600 2911.00 2837.72 53.95
2237 32.2700 2816.00 2771.23 53.07
2238 32.2800 2816.00 2723.84 53.07
2239 32.2900 2808.00 2688.52 52.99
2240 32.3000 2717.00 2663.60 52.12
2241 32.3100 2711.00 2646.57 52.07
2242 32.3200 2758.00 2636.53 52.52
2243 32.3300 2665.00 2632.98 51.62
2244 32.3400 2672.00 2635.74 51.69
2245 32.3500 2640.00 2644.92 51.38
2246 32.3600 2707.00 2660.93 52.03
2247 32.3700 2662.00 2684.53 51.59
2248 32.3800 2848.00 2717.00 53.37
2249 32.3900 2797.00 2760.45 52.89
2250 32.4000 2827.00 2818.65 53.17
2251 32.4100 2837.00 2898.32 53.26
2252 32.4200 2973.00 3011.84 54.53
2253 32.4300 3143.00 3180.93 56.06
2254 32.4400 3385.00 3440.67 58.18
2255 32.4500 3750.00 3841.46 61.24
2256 32.4600 4354.00 4443.83 65.98
2257 32.4700 4969.00 5306.37 70.49
2258 32.4800 6159.00 6458.53 78.48
2259 32.4900 7559.00 7871.14 86.94
2260 32.5000 9040.00 9409.56 95.08
2261 32.5100 10557.00 10786.80 102.75
2262 32.5200 11446.00 11577.70 106.99
2263 32.5300 11780.00 11487.30 108.54
2264 32.5400 11155.00 10672.50 105.62
2265 32.5500 10070.00 9594.43 100.35
2266 32.5600 8540.00 8650.47 92.41
2267 32.5700 7697.00 8042.51 87.73
2268 32.5800 7153.00 7795.23 84.58
2269 32.5900 7365.00 7781.99 85.82
2270 32.6000 7422.00 7752.21 86.15
2271 32.6100 7408.00 7450.52 86.07
2272 32.6200 6737.00 6815.98 82.08
2273 32.6300 6229.00 5994.95 78.92
2274 32.6400 5187.00 5167.01 72.02
2275 32.6500 4455.00 4441.39 66.75
2276 32.6600 3642.00 3863.13 60.35
2277 32.6700 3355.00 3433.82 57.92
2278 32.6800 3037.00 3132.03 55.11
2279 32.6900 2955.00 2926.88 54.36
2280 32.7000 2741.00 2768.43 52.35
2281 32.7100 2700.00 2672.57 51.96
2282 32.7200 2659.00 2602.97 51.57
2283 32.7300 2517.00 2549.81 50.17
2284 32.7400 2551.00 2507.30 50.51
2285 32.7500 2557.00 2472.27 50.57
2286 32.7600 2492.00 2442.79 49.92
2287 32.7700 2457.00 2417.65 49.57
2288 32.7800 2393.00 2386.33 48.92
2289 32.7900 2435.00 2367.82 49.35
2290 32.8000 2418.00 2351.67 49.17
2291 32.8100 2394.00 2337.48 48.93
2292 32.8200 2326.00 2324.93 48.23
2293 32.8300 2308.00 2313.81 48.04
2294 32.8400 2263.00 2303.88 47.57
2295 32.8500 2389.00 2295.00 48.88
2296 32.8600 2286.00 2287.01 47.81
2297 32.8700 2273.00 2279.80 47.68
2298 32.8800 2302.00 2273.27 47.98
2299 32.8900 2258.00 2267.34 47.52
2300 32.9000 2345.00 2261.93 48.43
2301 32.9100 2182.00 2256.99 46.71
2302 32.9200 2220.00 2252.47 47.12
2303 32.9300 2259.00 2248.31 47.53
2304 32.9400 2284.00 2244.49 47.79
2305 32.9500 2162.00 2240.97 46.50
2306 32.9600 2192.00 2237.71 46.82
2307 32.9700 2149.00 2234.70 46.36
2308 32.9800 2193.00 2231.90 46.83
2309 32.9900 2238.00 2229.30 47.31
2310 33.0000 2220.00 2226.88 47.12
2311 33.0100 2199.00 2224.63 46.89
2312 33.0200 2318.00 2222.53 48.15
2313 33.0300 2237.00 2220.56 47.30
2314 33.0400 2220.00 2218.72 47.12
2315 33.0500 2163.00 2217.00 46.51
2316 33.0600 2142.00 2215.38 46.28
2317 33.0700 2189.00 2213.86 46.79
2318 33.0800 2311.00 2212.43 48.07
2319 33.0900 2165.00 2211.08 46.53
2320 33.1000 2144.00 2209.82 46.30
2321 33.1100 2153.00 2208.62 46.40
2322 33.1200 2207.00 2207.50 46.98
2323 33.1300 2141.00 2206.43 46.27
2324 33.1400 2225.00 2205.42 47.17
2325 33.1500 2220.00 2186.49 47.12
2326 33.1600 2224.00 2186.14 47.16
2327 33.1700 2241.00 2185.82 47.34
2328 33.1800 2241.00 2185.52 47.34
2329 33.1900 2212.00 2185.23 47.03
2330 33.2000 2209.00 2184.97 47.00
2331 33.2100 2221.00 2184.72 47.13
2332 33.2200 2246.00 2184.48 47.39
2333 33.2300 2192.00 2175.29 46.82
2334 33.2400 2224.00 2175.36 47.16
2335 33.2500 2269.00 2175.44 47.63
2336 33.2600 2220.00 2175.51 47.12
2337 33.2700 2219.00 2175.58 47.11
2338 33.2800 2239.00 2175.66 47.32
2339 33.2900 2119.00 2175.73 46.03
2340 33.3000 2224.00 2175.80 47.16
2341 33.3100 2234.00 2175.88 47.27
2342 33.3200 2271.00 2175.95 47.65
2343 33.3300 2197.00 2176.02 46.87
2344 33.3400 2272.00 2176.09 47.67
2345 33.3500 2228.00 2176.17 47.20
2346 33.3600 2217.00 2176.24 47.08
2347 33.3700 2187.00 2176.31 46.77
2348 33.3800 2220.00 2176.38 47.12
2349 33.3900 2209.00 2176.45 47.00
2350 33.4000 2236.00 2176.53 47.29
2351 33.4100 2225.00 2176.60 47.17
2352 33.4200 2229.00 2176.67 47.21
2353 33.4300 2287.00 2176.74 47.82
2354 33.4400 2185.00 2176.81 46.74
2355 33.4500 2255.00 2176.89 47.49
2356 33.4600 2278.00 2176.96 47.73
2357 33.4700 2206.00 2177.03 46.97
2358 33.4800 2249.00 2177.10 47.42
2359 33.4900 2221.00 2177.17 47.13
2360 33.5000 2129.00 2177.24 46.14
2361 33.5100 2194.00 2177.31 46.84
2362 33.5200 2216.00 2177.38 47.07
2363 33.5300 2294.00 2177.45 47.90
2364 33.5400 2274.00 2177.52 47.69
2365 33.5500 2269.00 2177.59 47.63
2366 33.5600 2192.00 2177.67 46.82
2367 33.5700 2200.00 2177.74 46.90
2368 33.5800 2257.00 2177.81 47.51
2369 33.5900 2187.00 2177.88 46.77
2370 33.6000 2171.00 2177.95 46.59
2371 33.6100 2284.00 2178.02 47.79
2372 33.6200 2215.00 2178.08 47.06
2373 33.6300 2204.00 2178.15 46.95
2374 33.6400 2191.00 2178.22 46.81
2375 33.6500 2299.00 2178.29 47.95
2376 33.6600 2243.00 2178.36 47.36
2377 33.6700 2271.00 2178.43 47.65
2378 33.6800 2175.00 2178.50 46.64
2379 33.6900 2178.00 2178.57 46.67
2380 33.7000 2257.00 2178.64 47.51
2381 33.7100 2322.00 2178.71 48.19
2382 33.7200 2208.00 2178.78 46.99
2383 33.7300 2245.00 2178.84 47.38
2384 33.7400 2269.00 2187.18 47.63
2385 33.7500 2231.00 2187.51 47.23
2386 33.7600 2212.00 2187.86 47.03
2387 33.7700 2180.00 2188.23 46.69
2388 33.7800 2168.00 2188.60 46.56
2389 33.7900 2249.00 2189.00 47.42
2390 33.8000 2275.00 2189.41 47.70
2391 33.8100 2236.00 2189.84 47.29
2392 33.8200 2143.00 2190.29 46.29
2393 33.8300 2118.00 2194.87 46.02
2394 33.8400 2275.00 2195.50 47.70
2395 33.8500 2214.00 2196.15 47.05
2396 33.8600 2144.00 2196.85 46.30
2397 33.8700 2212.00 2197.57 47.03
2398 33.8800 2270.00 2198.34 47.64
2399 33.8900 2273.00 2199.15 47.68
2400 33.9000 2232.00 2200.00 47.24
2401 33.9100 2228.00 2200.90 47.20
2402 33.9200 2228.00 2201.86 47.20
2403 33.9300 2219.00 2202.87 47.11
2404 33.9400 2233.00 2203.95 47.25
2405 33.9500 2307.00 2205.10 48.03
2406 33.9600 2232.00 2206.32 47.24
2407 33.9700 2237.00 2207.62 47.30
2408 33.9800 2126.00 2209.02 46.11
2409 33.9900 2201.00 2210.52 46.91
2410 34.0000 2262.00 2212.13 47.56
2411 34.0100 2186.00 2213.86 46.75
2412 34.0200 2289.00 2215.73 47.84
2413 34.0300 2212.00 2217.75 47.03
2414 34.0400 2314.00 2219.94 48.10
2415 34.0500 2216.00 2222.32 47.07
2416 34.0600 2276.00 2224.91 47.71
2417 34.0700 2300.00 2227.74 47.96
2418 34.0800 2247.00 2230.85 47.40
2419 34.0900 2282.00 2234.26 47.77
2420 34.1000 2156.00 2238.02 46.43
2421 34.1100 2251.00 2242.19 47.44
2422 34.1200 2268.00 2246.82 47.62
2423 34.1300 2238.00 2251.99 47.31
2424 34.1400 2277.00 2257.78 47.72
2425 34.1500 2256.00 2264.30 47.50
2426 34.1600 2379.00 2271.68 48.78
2427 34.1700 2324.00 2280.07 48.21
2428 34.1800 2289.00 2289.69 47.84
2429 34.1900 2428.00 2300.77 49.27
2430 34.2000 2302.00 2313.65 47.98
2431 34.2100 2352.00 2328.70 48.50
2432 34.2200 2297.00 2346.53 47.93
2433 34.2300 2319.00 2367.91 48.16
2434 34.2400 2340.00 2394.14 48.37
2435 34.2500 2400.00 2427.32 48.99
2436 34.2600 2535.00 2471.37 50.35
2437 34.2700 2538.00 2533.15 50.38
2438 34.2800 2756.00 2624.17 52.50
2439 34.2900 2836.00 2762.11 53.25
2440 34.3000 2995.00 2970.74 54.73
2441 34.3100 3288.00 3276.73 57.34
2442 34.3200 3657.00 3701.84 60.47
2443 34.3300 4181.00 4251.97 64.66
2444 34.3400 4853.00 4903.35 69.66
2445 34.3500 5504.00 5581.58 74.19
2446 34.3600 6144.00 6144.83 78.38
2447 34.3700 6325.00 6410.34 79.53
2448 34.3800 6603.00 6286.32 81.26
2449 34.3900 6144.00 5876.03 78.38
2450 34.4000 5384.00 5380.72 73.38
2451 34.4100 4874.00 4959.71 69.81
2452 34.4200 4527.00 4692.53 67.28
2453 34.4300 4552.00 4590.06 67.47
2454 34.4400 4415.00 4604.16 66.45
2455 34.4500 4632.00 4634.86 68.06
2456 34.4600 4543.00 4565.16 67.40
2457 34.4700 4512.00 4340.10 67.17
2458 34.4800 4132.00 4003.60 64.28
2459 34.4900 3698.00 3636.25 60.81
2460 34.5000 3238.00 3297.86 56.90
2461 34.5100 2983.00 3017.43 54.62
2462 34.5200 2709.00 2802.35 52.05
2463 34.5300 2638.00 2647.40 51.36
2464 34.5400 2528.00 2540.41 50.28
2465 34.5500 2523.00 2468.02 50.23
2466 34.5600 2469.00 2418.49 49.69
2467 34.5700 2358.00 2383.43 48.56
2468 34.5800 2369.00 2357.31 48.67
2469 34.5900 2411.00 2336.90 49.10
2470 34.6000 2317.00 2320.31 48.14
2471 34.6100 2361.00 2306.49 48.59
2472 34.6200 2320.00 2294.77 48.17
2473 34.6300 2272.00 2284.72 47.67
2474 34.6400 2261.00 2276.02 47.55
2475 34.6500 2298.00 2268.44 47.94
2476 34.6600 2297.00 2261.80 47.93
2477 34.6700 2326.00 2255.94 48.23
2478 34.6800 2206.00 2253.72 46.97
2479 34.6900 2245.00 2249.19 47.38
2480 34.7000 2280.00 2245.16 47.75
2481 34.7100 2171.00 2241.55 46.59
2482 34.7200 2229.00 2238.31 47.21
2483 34.7300 2247.00 2235.40 47.40
2484 34.7400 2218.00 2232.77 47.10
2485 34.7500 2207.00 2230.40 46.98
2486 34.7600 2234.00 2228.25 47.27
2487 34.7700 2277.00 2227.77 47.72
2488 34.7800 2211.00 2226.06 47.02
2489 34.7900 2214.00 2224.51 47.05
2490 34.8000 2243.00 2223.10 47.36
2491 34.8100 2212.00 2222.70 47.03
2492 34.8200 2198.00 2221.59 46.88
2493 34.8300 2284.00 2220.59 47.79
2494 34.8400 2185.00 2219.71 46.74
2495 34.8500 2129.00 2218.93 46.14
2496 34.8600 2189.00 2218.25 46.79
2497 34.8700 2213.00 2217.65 47.04
2498 34.8800 2191.00 2217.15 46.81
2499 34.8900 2172.00 2216.72 46.60
2500 34.9000 2199.00 2216.81 46.89
2501 34.9100 2148.00 2216.56 46.35
2502 34.9200 2156.00 2216.39 46.43
2503 34.9300 2168.00 2216.31 46.56
2504 34.9400 2220.00 2216.30 47.12
2505 34.9500 2107.00 2216.37 45.90
2506 34.9600 2291.00 2216.53 47.86
2507 34.9700 2186.00 2216.77 46.75
2508 34.9800 2219.00 2217.10 47.11
2509 34.9900 2151.00 2217.53 46.38
2510 35.0000 2212.00 2218.06 47.03
2511 35.0100 2140.00 2210.67 46.26
2512 35.0200 2263.00 2211.67 47.57
2513 35.0300 2174.00 2212.79 46.63
2514 35.0400 2225.00 2214.04 47.17
2515 35.0500 2249.00 2215.43 47.42
2516 35.0600 2225.00 2216.99 47.17
2517 35.0700 2219.00 2218.74 47.11
2518 35.0800 2260.00 2220.71 47.54
2519 35.0900 2156.00 2222.93 46.43
2520 35.1000 2254.00 2221.50 47.48
2521 35.1100 2243.00 2224.47 47.36
2522 35.1200 2289.00 2227.83 47.84
2523 35.1300 2272.00 2231.67 47.67
2524 35.1400 2295.00 2236.07 47.91
2525 35.1500 2225.00 2241.16 47.17
2526 35.1600 2275.00 2247.09 47.70
2527 35.1700 2222.00 2254.07 47.14
2528 35.1800 2281.00 2262.43 47.76
2529 35.1900 2287.00 2272.65 47.82
2530 35.2000 2184.00 2285.58 46.73
2531 35.2100 2348.00 2302.73 48.46
2532 35.2200 2331.00 2326.76 48.28
2533 35.2300 2321.00 2362.05 48.18
2534 35.2400 2341.00 2415.19 48.38
2535 35.2500 2448.00 2494.86 49.48
2536 35.2600 2518.00 2610.50 50.18
2537 35.2700 2716.00 2769.64 52.12
2538 35.2800 2943.00 2973.50 54.25
2539 35.2900 3154.00 3212.61 56.16
2540 35.3000 3353.00 3459.19 57.91
2541 35.3100 3559.00 3661.78 59.66
2542 35.3200 3638.00 3755.85 60.32
2543 35.3300 3621.00 3710.67 60.17
2544 35.3400 3440.00 3564.01 58.65
2545 35.3500 3414.00 3388.04 58.43
2546 35.3600 3236.00 3240.72 56.89
2547 35.3700 3052.00 3153.43 55.24
2548 35.3800 3064.00 3134.25 55.35
2549 35.3900 3030.00 3171.39 55.05
2550 35.4000 3141.00 3234.38 56.04
2551 35.4100 3212.00 3281.50 56.67
2552 35.4200 3193.00 3283.57 56.51
2553 35.4300 3195.00 3241.51 56.52
2554 35.4400 3259.00 3169.43 57.09
2555 35.4500 2997.00 3072.80 54.74
2556 35.4600 2905.00 2954.46 53.90
2557 35.4700 2766.00 2827.97 52.59
2558 35.4800 2691.00 2712.98 51.87
2559 35.4900 2651.00 2622.76 51.49
2560 35.5000 2543.00 2561.85 50.43
2561 35.5100 2520.00 2528.02 50.20
2562 35.5200 2435.00 2514.38 49.35
2563 35.5300 2593.00 2509.78 50.92
2564 35.5400 2519.00 2500.72 50.19
2565 35.5500 2504.00 2477.65 50.04
2566 35.5600 2442.00 2441.25 49.42
2567 35.5700 2440.00 2399.13 49.40
2568 35.5800 2350.00 2358.43 48.48
2569 35.5900 2304.00 2323.20 48.00
2570 35.6000 2287.00 2295.00 47.82
2571 35.6100 2310.00 2273.70 48.06
2572 35.6200 2247.00 2258.28 47.40
2573 35.6300 2219.00 2247.29 47.11
2574 35.6400 2290.00 2239.43 47.85
2575 35.6500 2227.00 2233.62 47.19
2576 35.6600 2209.00 2229.14 47.00
2577 35.6700 2345.00 2225.53 48.43
2578 35.6800 2217.00 2222.51 47.08
2579 35.6900 2172.00 2219.94 46.60
2580 35.7000 2233.00 2217.70 47.25
2581 35.7100 2165.00 2215.74 46.53
2582 35.7200 2249.00 2214.00 47.42
2583 35.7300 2066.00 2212.46 45.45
2584 35.7400 2315.00 2211.08 48.11
2585 35.7500 2245.00 2209.84 47.38
2586 35.7600 2100.00 2208.73 45.83
2587 35.7700 2260.00 2207.72 47.54
2588 35.7800 2167.00 2206.80 46.55
2589 35.7900 2269.00 2205.96 47.63
2590 35.8000 2197.00 2205.20 46.87
2591 35.8100 2213.00 2204.50 47.04
2592 35.8200 2209.00 2203.86 47.00
2593 35.8300 2208.00 2203.26 46.99
2594 35.8400 2122.00 2202.72 46.07
2595 35.8500 2086.00 2202.22 45.67
2596 35.8600 2229.00 2201.75 47.21
2597 35.8700 2157.00 2201.32 46.44
2598 35.8800 2201.00 2200.92 46.91
2599 35.8900 2163.00 2200.55 46.51
2600 35.9000 2238.00 2200.20 47.31
2601 35.9100 2150.00 2199.88 46.37
2602 35.9200 2083.00 2199.58 45.64
2603 35.9300 2226.00 2199.29 47.18
2604 35.9400 2305.00 2199.03 48.01
2605 35.9500 2197.00 2198.79 46.87
2606 35.9600 2235.00 2198.56 47.28
2607 35.9700 2245.00 2195.46 47.38
2608 35.9800 2198.00 2195.34 46.88
2609 35.9900 2195.00 2195.23 46.85
2610 36.0000 2165.00 2195.13 46.53
2611 36.0100 2101.00 2195.04 45.84
2612 36.0200 2216.00 2194.96 47.07
2613 36.0300 2150.00 2194.88 46.37
2614 36.0400 2164.00 2194.81 46.52
2615 36.0500 2161.00 2194.74 46.49
2616 36.0600 2188.00 2193.25 46.78
2617 36.0700 2144.00 2193.24 46.30
2618 36.0800 2190.00 2193.23 46.80
2619 36.0900 2183.00 2194.00 46.72
2620 36.1000 2160.00 2193.19 46.48
2621 36.1100 2185.00 2193.23 46.74
2622 36.1200 2140.00 2193.28 46.26
2623 36.1300 2216.00 2193.33 47.07
2624 36.1400 2192.00 2193.39 46.82
2625 36.1500 2240.00 2193.44 47.33
2626 36.1600 2129.00 2193.50 46.14
2627 36.1700 2185.00 2193.56 46.74
2628 36.1800 2188.00 2194.01 46.78
2629 36.1900 2142.00 2193.67 46.28
2630 36.2000 2142.00 2193.76 46.28
2631 36.2100 2137.00 2193.86 46.23
2632 36.2200 2129.00 2193.96 46.14
2633 36.2300 2131.00 2194.06 46.16
2634 36.2400 2186.00 2194.17 46.75
2635 36.2500 2236.00 2194.28 47.29
2636 36.2600 2221.00 2194.39 47.13
2637 36.2700 2235.00 2194.51 47.28
2638 36.2800 2175.00 2194.64 46.64
2639 36.2900 2220.00 2194.76 47.12
2640 36.3000 2201.00 2194.90 46.91
2641 36.3100 2160.00 2195.04 46.48
2642 36.3200 2203.00 2195.19 46.94
2643 36.3300 2249.00 2195.35 47.42
2644 36.3400 2202.00 2195.51 46.93
2645 36.3500 2263.00 2195.68 47.57
2646 36.3600 2151.00 2195.87 46.38
2647 36.3700 2126.00 2196.06 46.11
2648 36.3800 2183.00 2196.27 46.72
2649 36.3900 2291.00 2196.50 47.86
2650 36.4000 2138.00 2196.74 46.24
2651 36.4100 2328.00 2196.99 48.25
2652 36.4200 2210.00 2197.27 47.01
2653 36.4300 2186.00 2197.57 46.75
2654 36.4400 2313.00 2197.89 48.09
2655 36.4500 2173.00 2198.24 46.62
2656 36.4600 2201.00 2198.62 46.91
2657 36.4700 2198.00 2199.04 46.88
2658 36.4800 2151.00 2199.51 46.38
2659 36.4900 2157.00 2200.02 46.44
2660 36.5000 2222.00 2200.59 47.14
2661 36.5100 2182.00 2201.22 46.71
2662 36.5200 2172.00 2201.94 46.60
2663 36.5300 2149.00 2202.74 46.36
2664 36.5400 2127.00 2203.65 46.12
2665 36.5500 2191.00 2204.70 46.81
2666 36.5600 2149.00 2205.90 46.36
2667 36.5700 2178.00 2207.30 46.67
2668 36.5800 2215.00 2208.94 47.06
2669 36.5900 2128.00 2210.89 46.13
2670 36.6000 2236.00 2213.26 47.29
2671 36.6100 2206.00 2216.22 46.97
2672 36.6200 2261.00 2220.11 47.55
2673 36.6300 2251.00 2225.47 47.44
2674 36.6400 2199.00 2233.26 46.89
2675 36.6500 2295.00 2244.94 47.91
2676 36.6600 2263.00 2262.52 47.57
2677 36.6700 2279.00 2288.35 47.74
2678 36.6800 2336.00 2324.57 48.33
2679 36.6900 2368.00 2372.25 48.66
2680 36.7000 2465.00 2430.23 49.65
2681 36.7100 2552.00 2493.66 50.52
2682 36.7200 2484.00 2552.40 49.84
2683 36.7300 2624.00 2590.90 51.22
2684 36.7400 2558.00 2595.62 50.58
2685 36.7500 2578.00 2567.39 50.77
2686 36.7600 2559.00 2521.46 50.59
2687 36.7700 2484.00 2474.81 49.84
2688 36.7800 2422.00 2438.71 49.21
2689 36.7900 2408.00 2418.03 49.07
2690 36.8000 2444.00 2412.48 49.44
2691 36.8100 2466.00 2417.20 49.66
2692 36.8200 2403.00 2423.25 49.02
2693 36.8300 2372.00 2420.24 48.70
2694 36.8400 2362.00 2402.55 48.60
2695 36.8500 2531.00 2373.25 50.31
2696 36.8600 2340.00 2339.55 48.37
2697 36.8700 2370.00 2307.39 48.68
2698 36.8800 2251.00 2279.92 47.44
2699 36.8900 2235.00 2258.31 47.28
2700 36.9000 2260.00 2242.38 47.54
2701 36.9100 2350.00 2231.20 48.48
2702 36.9200 2202.00 2223.57 46.93
2703 36.9300 2264.00 2218.38 47.58
2704 36.9400 2313.00 2214.78 48.09
2705 36.9500 2251.00 2212.19 47.44
2706 36.9600 2138.00 2210.24 46.24
2707 36.9700 2219.00 2208.74 47.11
2708 36.9800 2167.00 2207.59 46.55
2709 36.9900 2155.00 2206.71 46.42
2710 37.0000 2242.00 2206.09 47.35
2711 37.0100 2161.00 2205.66 46.49
2712 37.0200 2256.00 2205.39 47.50
2713 37.0300 2285.00 2205.17 47.80
2714 37.0400 2227.00 2204.90 47.19
2715 37.0500 2189.00 2204.45 46.79
2716 37.0600 2130.00 2203.83 46.15
2717 37.0700 2182.00 2203.13 46.71
2718 37.0800 2263.00 2202.47 47.57
2719 37.0900 2314.00 2201.90 48.10
2720 37.1000 2237.00 2201.48 47.30
2721 37.1100 2190.00 2201.19 46.80
2722 37.1200 2168.00 2201.00 46.56
2723 37.1300 2141.00 2200.87 46.27
2724 37.1400 2113.00 2200.68 45.97
2725 37.1500 2135.00 2200.41 46.21
2726 37.1600 2282.00 2200.06 47.77
2727 37.1700 2177.00 2199.70 46.66
2728 37.1800 2254.00 2199.35 47.48
2729 37.1900 2136.00 2199.04 46.22
2730 37.2000 2205.00 2198.78 46.96
2731 37.2100 2182.00 2198.57 46.71
2732 37.2200 2159.00 2198.42 46.47
2733 37.2300 2263.00 2198.28 47.57
2734 37.2400 2256.00 2198.18 47.50
2735 37.2500 2196.00 2198.09 46.86
2736 37.2600 2171.00 2198.01 46.59
2737 37.2700 2196.00 2197.94 46.86
2738 37.2800 2143.00 2197.88 46.29
2739 37.2900 2175.00 2197.83 46.64
2740 37.3000 2157.00 2197.78 46.44
2741 37.3100 2286.00 2197.74 47.81
2742 37.3200 2227.00 2197.70 47.19
2743 37.3300 2223.00 2197.67 47.15
2744 37.3400 2172.00 2197.64 46.60
2745 37.3500 2200.00 2197.62 46.90
2746 37.3600 2120.00 2197.59 46.04
2747 37.3700 2275.00 2197.57 47.70
2748 37.3800 2280.00 2197.56 47.75
2749 37.3900 2242.00 2196.78 47.35
2750 37.4000 2153.00 2196.79 46.40
2751 37.4100 2153.00 2196.80 46.40
2752 37.4200 2113.00 2196.82 45.97
2753 37.4300 2198.00 2196.83 46.88
2754 37.4400 2187.00 2196.85 46.77
2755 37.4500 2182.00 2196.86 46.71
2756 37.4600 2138.00 2196.88 46.24
2757 37.4700 2175.00 2196.90 46.64
2758 37.4800 2200.00 2196.92 46.90
2759 37.4900 2212.00 2196.57 47.03
2760 37.5000 2230.00 2196.61 47.22
2761 37.5100 2182.00 2196.64 46.71
2762 37.5200 2125.00 2196.68 46.10
2763 37.5300 2217.00 2196.71 47.08
2764 37.5400 2220.00 2196.75 47.12
2765 37.5500 2163.00 2196.79 46.51
2766 37.5600 2170.00 2196.83 46.58
2767 37.5700 2225.00 2196.87 47.17
2768 37.5800 2273.00 2196.92 47.68
2769 37.5900 2162.00 2196.97 46.50
2770 37.6000 2239.00 2197.02 47.32
2771 37.6100 2129.00 2197.08 46.14
2772 37.6200 2221.00 2197.14 47.13
2773 37.6300 2195.00 2197.21 46.85
2774 37.6400 2047.00 2197.28 45.24
2775 37.6500 2157.00 2197.37 46.44
2776 37.6600 2218.00 2197.48 47.10
2777 37.6700 2190.00 2197.60 46.80
2778 37.6800 2194.00 2197.77 46.84
2779 37.6900 2136.00 2198.01 46.22
2780 37.7000 2167.00 2198.35 46.55
2781 37.7100 2258.00 2198.84 47.52
2782 37.7200 2159.00 2199.57 46.47
2783 37.7300 2293.00 2200.57 47.89
2784 37.7400 2179.00 2201.88 46.68
2785 37.7500 2184.00 2203.46 46.73
2786 37.7600 2122.00 2205.21 46.07
2787 37.7700 2172.00 2206.85 46.60
2788 37.7800 2162.00 2207.99 46.50
2789 37.7900 2258.00 2208.24 47.52
2790 37.8000 2139.00 2207.57 46.25
2791 37.8100 2262.00 2206.36 47.56
2792 37.8200 2145.00 2205.07 46.31
2793 37.8300 2202.00 2204.02 46.93
2794 37.8400 2249.00 2203.38 47.42
2795 37.8500 2196.00 2203.17 46.86
2796 37.8600 2231.00 2203.28 47.23
2797 37.8700 2117.00 2203.52 46.01
2798 37.8800 2225.00 2203.61 47.17
2799 37.8900 2268.00 2203.33 47.62
2800 37.9000 2120.00 2202.67 46.04
2801 37.9100 2096.00 2201.81 45.78
2802 37.9200 2239.00 2200.93 47.32
2803 37.9300 2193.00 2200.14 46.83
2804 37.9400 2147.00 2199.50 46.34
2805 37.9500 2207.00 2199.01 46.98
2806 37.9600 2162.00 2198.67 46.50
2807 37.9700 2150.00 2198.44 46.37
2808 37.9800 2147.00 2198.29 46.34
2809 37.9900 2216.00 2198.19 47.07
2810 38.0000 2162.00 2198.13 46.50
2811 38.0100 2136.00 2198.09 46.22
2812 38.0200 2157.00 2198.06 46.44
2813 38.0300 2198.00 2198.04 46.88
2814 38.0400 2229.00 2198.03 47.21
2815 38.0500 2219.00 2198.02 47.11
2816 38.0600 2155.00 2198.01 46.42
2817 38.0700 2197.00 2198.01 46.87
2818 38.0800 2227.00 2198.02 47.19
2819 38.0900 2133.00 2198.02 46.18
2820 38.1000 2134.00 2198.03 46.20
2821 38.1100 2147.00 2198.03 46.34
2822 38.1200 2256.00 2198.04 47.50
2823 38.1300 2251.00 2198.05 47.44
2824 38.1400 2217.00 2198.06 47.08
2825 38.1500 2257.00 2198.07 47.51
2826 38.1600 2215.00 2198.09 47.06
2827 38.1700 2178.00 2198.10 46.67
2828 38.1800 2239.00 2198.11 47.32
2829 38.1900 2238.00 2198.13 47.31
2830 38.2000 2199.00 2198.14 46.89
2831 38.2100 2283.00 2198.16 47.78
2832 38.2200 2147.00 2198.17 46.34
2833 38.2300 2210.00 2198.19 47.01
2834 38.2400 2204.00 2198.20 46.95
2835 38.2500 2181.00 2198.22 46.70
2836 38.2600 2216.00 2198.24 47.07
2837 38.2700 2251.00 2198.78 47.44
2838 38.2800 2140.00 2198.81 46.26
2839 38.2900 2170.00 2198.84 46.58
2840 38.3000 2163.00 2198.88 46.51
2841 38.3100 2212.00 2198.91 47.03
2842 38.3200 2241.00 2198.95 47.34
2843 38.3300 2194.00 2198.99 46.84
2844 38.3400 2218.00 2199.02 47.10
2845 38.3500 2101.00 2199.06 45.84
2846 38.3600 2219.00 2199.11 47.11
2847 38.3700 2190.00 2199.41 46.80
2848 38.3800 2174.00 2199.46 46.63
2849 38.3900 2134.00 2199.51 46.20
2850 38.4000 2150.00 2199.57 46.37
2851 38.4100 2250.00 2199.63 47.43
2852 38.4200 2220.00 2199.69 47.12
2853 38.4300 2166.00 2199.75 46.54
2854 38.4400 2189.00 2199.82 46.79
2855 38.4500 2171.00 2199.87 46.59
2856 38.4600 2229.00 2199.95 47.21
2857 38.4700 2169.00 2200.03 46.57
2858 38.4800 2221.00 2200.12 47.13
2859 38.4900 2137.00 2200.23 46.23
2860 38.5000 2255.00 2200.34 47.49
2861 38.5100 2149.00 2200.48 46.36
2862 38.5200 2152.00 2200.64 46.39
2863 38.5300 2223.00 2200.82 47.15
2864 38.5400 2247.00 2201.02 47.40
2865 38.5500 2208.00 2201.22 46.99
2866 38.5600 2146.00 2201.43 46.32
2867 38.5700 2198.00 2201.60 46.88
2868 38.5800 2193.00 2201.74 46.83
2869 38.5900 2094.00 2201.83 45.76
2870 38.6000 2158.00 2201.91 46.45
2871 38.6100 2199.00 2202.00 46.89
2872 38.6200 2253.00 2202.13 47.47
2873 38.6300 2212.00 2202.29 47.03
2874 38.6400 2279.00 2202.50 47.74
2875 38.6500 2243.00 2202.74 47.36
2876 38.6600 2197.00 2203.01 46.87
2877 38.6700 2111.00 2203.30 45.95
2878 38.6800 2227.00 2203.59 47.19
2879 38.6900 2153.00 2203.89 46.40
2880 38.7000 2193.00 2204.23 46.83
2881 38.7100 2143.00 2204.60 46.29
2882 38.7200 2136.00 2205.04 46.22
2883 38.7300 2149.00 2205.54 46.36
2884 38.7400 2199.00 2206.13 46.89
2885 38.7500 2180.00 2206.82 46.69
2886 38.7600 2278.00 2207.62 47.73
2887 38.7700 2149.00 2208.56 46.36
2888 38.7800 2221.00 2209.66 47.13
2889 38.7900 2174.00 2210.99 46.63
2890 38.8000 2233.00 2212.60 47.25
2891 38.8100 2159.00 2214.63 46.47
2892 38.8200 2184.00 2217.30 46.73
2893 38.8300 2285.00 2221.02 47.80
2894 38.8400 2208.00 2226.42 46.99
2895 38.8500 2204.00 2234.48 46.95
2896 38.8600 2203.00 2246.53 46.94
2897 38.8700 2307.00 2264.06 48.03
2898 38.8800 2242.00 2288.43 47.35
2899 38.8900 2331.00 2320.27 48.28
2900 38.9000 2350.00 2358.84 48.48
2901 38.9100 2382.00 2401.15 48.81
2902 38.9200 2287.00 2440.99 47.82
2903 38.9300 2376.00 2468.78 48.74
2904 38.9400 2282.00 2475.30 47.77
2905 38.9500 2409.00 2459.31 49.08
2906 38.9600 2363.00 2429.25 48.61
2907 38.9700 2325.00 2396.21 48.22
2908 38.9800 2274.00 2368.41 47.69
2909 38.9900 2387.00 2350.14 48.86
2910 39.0000 2227.00 2342.47 47.19
2911 39.0100 2279.00 2343.70 47.74
2912 39.0200 2309.00 2349.63 48.05
2913 39.0300 2354.00 2354.02 48.52
2914 39.0400 2378.00 2350.71 48.76
2915 39.0500 2328.00 2337.54 48.25
2916 39.0600 2348.00 2317.43 48.46
2917 39.0700 2290.00 2295.07 47.85
2918 39.0800 2180.00 2273.96 46.69
2919 39.0900 2223.00 2255.99 47.15
2920 39.1000 2096.00 2241.84 45.78
2921 39.1100 2173.00 2231.35 46.62
2922 39.1200 2127.00 2223.94 46.12
2923 39.1300 2238.00 2218.84 47.31
2924 39.1400 2260.00 2215.36 47.54
2925 39.1500 2285.00 2212.92 47.80
2926 39.1600 2194.00 2211.13 46.84
2927 39.1700 2190.00 2209.77 46.80
2928 39.1800 2241.00 2208.68 47.34
2929 39.1900 2219.00 2207.78 47.11
2930 39.2000 2219.00 2207.03 47.11
2931 39.2100 2207.00 2206.38 46.98
2932 39.2200 2190.00 2205.82 46.80
2933 39.2300 2157.00 2205.33 46.44
2934 39.2400 2191.00 2204.90 46.81
2935 39.2500 2239.00 2204.52 47.32
2936 39.2600 2186.00 2204.19 46.75
2937 39.2700 2209.00 2203.89 47.00
2938 39.2800 2272.00 2203.63 47.67
2939 39.2900 2292.00 2203.39 47.87
2940 39.3000 2207.00 2203.18 46.98
2941 39.3100 2296.00 2202.99 47.92
2942 39.3200 2180.00 2202.81 46.69
2943 39.3300 2245.00 2202.66 47.38
2944 39.3400 2174.00 2202.51 46.63
2945 39.3500 2180.00 2202.38 46.69
2946 39.3600 2186.00 2202.26 46.75
2947 39.3700 2247.00 2202.15 47.40
2948 39.3800 2199.00 2202.06 46.89
2949 39.3900 2126.00 2201.96 46.11
2950 39.4000 2152.00 2201.88 46.39
2951 39.4100 2153.00 2201.80 46.40
2952 39.4200 2163.00 2201.73 46.51
2953 39.4300 2158.00 2201.67 46.45
2954 39.4400 2190.00 2201.61 46.80
2955 39.4500 2205.00 2201.55 46.96
2956 39.4600 2212.00 2201.68 47.03
2957 39.4700 2238.00 2201.64 47.31
2958 39.4800 2112.00 2201.60 45.96
2959 39.4900 2218.00 2201.56 47.10
2960 39.5000 2208.00 2201.53 46.99
2961 39.5100 2248.00 2201.50 47.41
2962 39.5200 2152.00 2201.48 46.39
2963 39.5300 2248.00 2201.45 47.41
2964 39.5400 2239.00 2201.43 47.32
2965 39.5500 2248.00 2201.41 47.41
2966 39.5600 2217.00 2201.49 47.08
2967 39.5700 2214.00 2201.48 47.05
2968 39.5800 2199.00 2201.47 46.89
2969 39.5900 2188.00 2201.46 46.78
2970 39.6000 2200.00 2201.46 46.90
2971 39.6100 2220.00 2200.94 47.12
2972 39.6200 2165.00 2200.96 46.53
2973 39.6300 2125.00 2200.97 46.10
2974 39.6400 2243.00 2200.99 47.36
2975 39.6500 2136.00 2201.01 46.22
2976 39.6600 2196.00 2201.03 46.86
2977 39.6700 2234.00 2201.05 47.27
2978 39.6800 2205.00 2201.08 46.96
2979 39.6900 2177.00 2201.10 46.66
2980 39.7000 2151.00 2201.13 46.38
2981 39.7100 2144.00 2201.16 46.30
2982 39.7200 2219.00 2200.94 47.11
2983 39.7300 2156.00 2200.98 46.43
2984 39.7400 2176.00 2201.03 46.65
2985 39.7500 2164.00 2201.07 46.52
2986 39.7600 2176.00 2201.12 46.65
2987 39.7700 2233.00 2201.17 47.25
2988 39.7800 2203.00 2201.22 46.94
2989 39.7900 2196.00 2201.28 46.86
2990 39.8000 2189.00 2201.34 46.79
2991 39.8100 2250.00 2201.40 47.43
2992 39.8200 2171.00 2201.47 46.59
2993 39.8300 2161.00 2201.55 46.49
2994 39.8400 2111.00 2201.63 45.95
2995 39.8500 2221.00 2201.72 47.13
2996 39.8600 2202.00 2201.81 46.93
2997 39.8700 2227.00 2201.92 47.19
2998 39.8800 2242.00 2202.03 47.35
2999 39.8900 2182.00 2202.16 46.71
3000 39.9000 2155.00 2202.30 46.42
3001 39.9100 2091.00 2202.46 45.73
3002 39.9200 2083.00 2202.63 45.64
3003 39.9300 2181.00 2202.83 46.70
3004 39.9400 2152.00 2203.05 46.39
3005 39.9500 2193.00 2203.31 46.83
3006 39.9600 2143.00 2203.60 46.29
3007 39.9700 2194.00 2203.94 46.84
3008 39.9800 2168.00 2204.34 46.56
3009 39.9900 2273.00 2204.81 47.68
3010 40.0000 2198.00 2205.39 46.88
3011 40.0100 2237.00 2206.13 47.30
3012 40.0200 2233.00 2207.10 47.25
3013 40.0300 2256.00 2208.45 47.50
3014 40.0400 2168.00 2210.43 46.56
3015 40.0500 2260.00 2218.05 47.54
3016 40.0600 2223.00 2222.55 47.15
3017 40.0700 2178.00 2228.98 46.67
3018 40.0800 2195.00 2237.78 46.85
3019 40.0900 2208.00 2249.11 46.99
3020 40.1000 2260.00 2262.67 47.54
3021 40.1100 2317.00 2277.40 48.14
3022 40.1200 2376.00 2291.15 48.74
3023 40.1300 2365.00 2300.70 48.63
3024 40.1400 2379.00 2303.02 48.78
3025 40.1500 2330.00 2300.00 48.27
3026 40.1600 2353.00 2289.92 48.51
3027 40.1700 2269.00 2278.70 47.63
3028 40.1800 2361.00 2269.11 48.59
3029 40.1900 2291.00 2262.69 47.86
3030 40.2000 2263.00 2259.92 47.57
3031 40.2100 2223.00 2260.39 47.15
3032 40.2200 2262.00 2262.88 47.56
3033 40.2300 2332.00 2265.46 48.29
3034 40.2400 2249.00 2265.97 47.42
3035 40.2500 2195.00 2263.15 46.85
3036 40.2600 2318.00 2257.49 48.15
3037 40.2700 2271.00 2250.51 47.65
3038 40.2800 2236.00 2243.59 47.29
3039 40.2900 2239.00 2237.56 47.32
3040 40.3000 2202.00 2232.81 46.93
3041 40.3100 2173.00 2229.91 46.62
3042 40.3200 2234.00 2227.69 47.27
3043 40.3300 2190.00 2226.42 46.80
3044 40.3400 2218.00 2225.87 47.10
3045 40.3500 2120.00 2225.82 46.04
3046 40.3600 2192.00 2226.12 46.82
3047 40.3700 2194.00 2226.68 46.84
3048 40.3800 2127.00 2227.44 46.12
3049 40.3900 2209.00 2228.37 47.00
3050 40.4000 2091.00 2229.46 45.73
3051 40.4100 2164.00 2230.98 46.52
3052 40.4200 2165.00 2232.41 46.53
3053 40.4300 2201.00 2234.02 46.91
3054 40.4400 2331.00 2235.83 48.28
3055 40.4500 2250.00 2237.84 47.43
3056 40.4600 2187.00 2240.10 46.77
3057 40.4700 2251.00 2242.62 47.44
3058 40.4800 2285.00 2245.44 47.80
3059 40.4900 2214.00 2248.61 47.05
3060 40.5000 2206.00 2252.18 46.97
3061 40.5100 2264.00 2256.20 47.58
3062 40.5200 2358.00 2260.76 48.56
3063 40.5300 2285.00 2265.96 47.80
3064 40.5400 2276.00 2271.91 47.71
3065 40.5500 2393.00 2278.77 48.92
3066 40.5600 2317.00 2286.72 48.14
3067 40.5700 2276.00 2296.03 47.71
3068 40.5800 2353.00 2307.07 48.51
3069 40.5900 2497.00 2320.41 49.97
3070 40.6000 2319.00 2337.00 48.16
3071 40.6100 2462.00 2358.51 49.62
3072 40.6200 2438.00 2387.78 49.38
3073 40.6300 2464.00 2429.60 49.64
3074 40.6400 2667.00 2491.35 51.64
3075 40.6500 2736.00 2583.37 52.31
3076 40.6600 2909.00 2718.08 53.94
3077 40.6700 3001.00 2908.20 54.78
3078 40.6800 3322.00 3162.49 57.64
3079 40.6900 3583.00 3480.41 59.86
3080 40.7000 3827.00 3846.47 61.86
3081 40.7100 4379.00 4222.43 66.17
3082 40.7200 4554.00 4540.73 67.48
3083 40.7300 4798.00 4714.03 69.27
3084 40.7400 4750.00 4685.37 68.92
3085 40.7500 4705.00 4480.28 68.59
3086 40.7600 4218.00 4186.78 64.95
3087 40.7700 3914.00 3893.62 62.56
3088 40.7800 3680.00 3660.33 60.66
3089 40.7900 3538.00 3515.74 59.48
3090 40.8000 3639.00 3464.35 60.32
3091 40.8100 3509.00 3489.08 59.24
3092 40.8200 3472.00 3553.14 58.92
3093 40.8300 3724.00 3604.21 61.02
3094 40.8400 3550.00 3589.26 59.58
3095 40.8500 3513.00 3486.51 59.27
3096 40.8600 3315.00 3317.37 57.58
3097 40.8700 3203.00 3122.15 56.60
3098 40.8800 2956.00 2933.62 54.37
3099 40.8900 2788.00 2771.25 52.80
3100 40.9000 2639.00 2643.37 51.37
3101 40.9100 2613.00 2551.54 51.12
3102 40.9200 2503.00 2492.79 50.03
3103 40.9300 2517.00 2462.22 50.17
3104 40.9400 2483.00 2454.74 49.83
3105 40.9500 2402.00 2465.16 49.01
3106 40.9600 2524.00 2488.26 50.24
3107 40.9700 2541.00 2517.75 50.41
3108 40.9800 2415.00 2545.12 49.14
3109 40.9900 2541.00 2559.81 50.41
3110 41.0000 2475.00 2553.67 49.75
3111 41.0100 2550.00 2527.40 50.50
3112 41.0200 2409.00 2489.82 49.08
3113 41.0300 2429.00 2451.19 49.28
3114 41.0400 2448.00 2418.76 49.48
3115 41.0500 2362.00 2396.40 48.60
3116 41.0600 2303.00 2385.04 47.99
3117 41.0700 2363.00 2383.27 48.61
3118 41.0800 2328.00 2387.42 48.25
3119 41.0900 2449.00 2391.91 49.49
3120 41.1000 2261.00 2390.47 47.55
3121 41.1100 2300.00 2379.40 47.96
3122 41.1200 2382.00 2359.99 48.81
3123 41.1300 2356.00 2336.48 48.54
3124 41.1400 2327.00 2312.92 48.24
3125 41.1500 2211.00 2291.81 47.02
3126 41.1600 2232.00 2274.34 47.24
3127 41.1700 2280.00 2260.70 47.75
3128 41.1800 2217.00 2250.54 47.08
3129 41.1900 2292.00 2243.17 47.87
3130 41.2000 2204.00 2237.87 46.95
3131 41.2100 2193.00 2233.99 46.83
3132 41.2200 2184.00 2231.04 46.73
3133 41.2300 2204.00 2228.70 46.95
3134 41.2400 2209.00 2226.77 47.00
3135 41.2500 2282.00 2225.11 47.77
3136 41.2600 2117.00 2223.67 46.01
3137 41.2700 2207.00 2222.39 46.98
3138 41.2800 2210.00 2221.24 47.01
3139 41.2900 2189.00 2220.20 46.79
3140 41.3000 2230.00 2219.26 47.22
3141 41.3100 2111.00 2218.40 45.95
3142 41.3200 2234.00 2217.62 47.27
3143 41.3300 2266.00 2216.90 47.60
3144 41.3400 2230.00 2216.23 47.22
3145 41.3500 2256.00 2215.62 47.50
3146 41.3600 2184.00 2215.05 46.73
3147 41.3700 2195.00 2214.52 46.85
3148 41.3800 2347.00 2214.02 48.45
3149 41.3900 2186.00 2213.56 46.75
3150 41.4000 2170.00 2213.13 46.58
3151 41.4100 2237.00 2212.72 47.30
3152 41.4200 2263.00 2212.34 47.57
3153 41.4300 2286.00 2207.50 47.81
3154 41.4400 2215.00 2207.28 47.06
3155 41.4500 2247.00 2207.09 47.40
3156 41.4600 2222.00 2206.90 47.14
3157 41.4700 2162.00 2206.73 46.50
3158 41.4800 2243.00 2206.56 47.36
3159 41.4900 2204.00 2206.41 46.95
3160 41.5000 2265.00 2206.26 47.59
3161 41.5100 2188.00 2206.13 46.78
3162 41.5200 2185.00 2206.00 46.74
3163 41.5300 2161.00 2203.63 46.49
3164 41.5400 2184.00 2203.57 46.73
3165 41.5500 2207.00 2203.53 46.98
3166 41.5600 2217.00 2203.48 47.08
3167 41.5700 2057.00 2203.44 45.35
3168 41.5800 2264.00 2203.41 47.58
3169 41.5900 2208.00 2203.37 46.99
3170 41.6000 2170.00 2203.34 46.58
3171 41.6100 2119.00 2203.31 46.03
3172 41.6200 2219.00 2203.28 47.11
3173 41.6300 2175.00 2203.25 46.64
3174 41.6400 2169.00 2203.23 46.57
3175 41.6500 2189.00 2203.20 46.79
3176 41.6600 2177.00 2203.18 46.66
3177 41.6700 2202.00 2203.16 46.93
3178 41.6800 2248.00 2203.15 47.41
3179 41.6900 2210.00 2204.52 47.01
3180 41.7000 2204.00 2204.57 46.95
3181 41.7100 2224.00 2204.63 47.16
3182 41.7200 2257.00 2204.69 47.51
3183 41.7300 2197.00 2204.75 46.87
3184 41.7400 2196.00 2204.82 46.86
3185 41.7500 2315.00 2204.89 48.11
3186 41.7600 2206.00 2204.96 46.97
3187 41.7700 2190.00 2205.04 46.80
3188 41.7800 2222.00 2205.12 47.14
3189 41.7900 2209.00 2205.21 47.00
3190 41.8000 2228.00 2205.99 47.20
3191 41.8100 2222.00 2206.12 47.14
3192 41.8200 2105.00 2206.26 45.88
3193 41.8300 2187.00 2206.40 46.77
3194 41.8400 2266.00 2206.55 47.60
3195 41.8500 2250.00 2206.70 47.43
3196 41.8600 2144.00 2206.87 46.30
3197 41.8700 2094.00 2207.04 45.76
3198 41.8800 2101.00 2207.23 45.84
3199 41.8900 2198.00 2207.42 46.88
3200 41.9000 2312.00 2207.62 48.08
3201 41.9100 2233.00 2207.84 47.25
3202 41.9200 2192.00 2208.09 46.82
3203 41.9300 2274.00 2208.33 47.69
3204 41.9400 2179.00 2208.59 46.68
3205 41.9500 2301.00 2208.86 47.97
3206 41.9600 2253.00 2209.15 47.47
3207 41.9700 2185.00 2209.46 46.74
3208 41.9800 2170.00 2209.79 46.58
3209 41.9900 2251.00 2210.14 47.44
3210 42.0000 2278.00 2210.52 47.73
3211 42.0100 2279.00 2210.92 47.74
3212 42.0200 2282.00 2211.36 47.77
3213 42.0300 2165.00 2211.84 46.53
3214 42.0400 2318.00 2212.42 48.15
3215 42.0500 2202.00 2212.97 46.93
3216 42.0600 2213.00 2213.56 47.04
3217 42.0700 2222.00 2214.21 47.14
3218 42.0800 2247.00 2214.92 47.40
3219 42.0900 2285.00 2215.69 47.80
3220 42.1000 2225.00 2216.53 47.17
3221 42.1100 2216.00 2217.46 47.07
3222 42.1200 2163.00 2218.48 46.51
3223 42.1300 2227.00 2219.61 47.19
3224 42.1400 2233.00 2220.87 47.25
3225 42.1500 2102.00 2222.31 45.85
3226 42.1600 2214.00 2223.88 47.05
3227 42.1700 2226.00 2225.65 47.18
3228 42.1800 2218.00 2227.64 47.10
3229 42.1900 2204.00 2229.91 46.95
3230 42.2000 2245.00 2232.51 47.38
3231 42.2100 2240.00 2235.49 47.33
3232 42.2200 2328.00 2238.96 48.25
3233 42.2300 2206.00 2243.02 46.97
3234 42.2400 2184.00 2247.86 46.73
3235 42.2500 2256.00 2253.76 47.50
3236 42.2600 2189.00 2261.20 46.79
3237 42.2700 2309.00 2271.02 48.05
3238 42.2800 2267.00 2284.62 47.61
3239 42.2900 2363.00 2304.29 48.61
3240 42.3000 2351.00 2333.34 48.49
3241 42.3100 2413.00 2376.24 49.12
3242 42.3200 2382.00 2438.04 48.81
3243 42.3300 2504.00 2523.32 50.04
3244 42.3400 2598.00 2634.71 50.97
3245 42.3500 2738.00 2770.47 52.33
3246 42.3600 2951.00 2922.50 54.32
3247 42.3700 3038.00 3073.09 55.12
3248 42.3800 3217.00 3193.71 56.72
3249 42.3900 3391.00 3250.58 58.23
3250 42.4000 3352.00 3225.96 57.90
3251 42.4100 3194.00 3134.51 56.52
3252 42.4200 3088.00 3011.50 55.57
3253 42.4300 2974.00 2890.54 54.53
3254 42.4400 2808.00 2794.06 52.99
3255 42.4500 2755.00 2733.22 52.49
3256 42.4600 2750.00 2710.08 52.44
3257 42.4700 2773.00 2718.82 52.66
3258 42.4800 2786.00 2746.47 52.78
3259 42.4900 2725.00 2773.74 52.20
3260 42.5000 2958.00 2779.20 54.39
3261 42.5100 2727.00 2749.75 52.22
3262 42.5200 2768.00 2688.99 52.61
3263 42.5300 2568.00 2611.67 50.68
3264 42.5400 2485.00 2532.25 49.85
3265 42.5500 2498.00 2460.32 49.98
3266 42.5600 2435.00 2400.64 49.35
3267 42.5700 2326.00 2354.56 48.23
3268 42.5800 2287.00 2321.14 47.82
3269 42.5900 2297.00 2298.13 47.93
3270 42.6000 2147.00 2282.86 46.34
3271 42.6100 2323.00 2272.72 48.20
3272 42.6200 2239.00 2265.58 47.32
3273 42.6300 2253.00 2260.66 47.47
3274 42.6400 2337.00 2255.90 48.34
3275 42.6500 2247.00 2251.98 47.40
3276 42.6600 2269.00 2249.20 47.63
3277 42.6700 2210.00 2247.87 47.01
3278 42.6800 2270.00 2248.21 47.64
3279 42.6900 2279.00 2250.25 47.74
3280 42.7000 2244.00 2253.80 47.37
3281 42.7100 2213.00 2258.31 47.04
3282 42.7200 2276.00 2262.81 47.71
3283 42.7300 2319.00 2265.88 48.16
3284 42.7400 2281.00 2266.46 47.76
3285 42.7500 2272.00 2263.44 47.67
3286 42.7600 2199.00 2258.03 46.89
3287 42.7700 2229.00 2251.71 47.21
3288 42.7800 2291.00 2245.75 47.86
3289 42.7900 2237.00 2240.96 47.30
3290 42.8000 2275.00 2237.73 47.70
3291 42.8100 2215.00 2236.09 47.06
3292 42.8200 2115.00 2235.76 45.99
3293 42.8300 2155.00 2236.19 46.42
3294 42.8400 2218.00 2236.60 47.10
3295 42.8500 2251.00 2236.20 47.44
3296 42.8600 2195.00 2234.56 46.85
3297 42.8700 2146.00 2231.88 46.32
3298 42.8800 2270.00 2228.66 47.64
3299 42.8900 2254.00 2225.43 47.48
3300 42.9000 2257.00 2222.51 47.51
3301 42.9100 2252.00 2220.06 47.46
3302 42.9200 2266.00 2218.14 47.60
3303 42.9300 2213.00 2216.70 47.04
3304 42.9400 2197.00 2215.67 46.87
3305 42.9500 2193.00 2214.94 46.83
3306 42.9600 2252.00 2214.44 47.46
3307 42.9700 2215.00 2214.09 47.06
3308 42.9800 2151.00 2213.85 46.38
3309 42.9900 2225.00 2213.70 47.17
3310 43.0000 2249.00 2213.60 47.42
3311 43.0100 2154.00 2213.56 46.41
3312 43.0200 2181.00 2213.56 46.70
3313 43.0300 2222.00 2213.61 47.14
3314 43.0400 2253.00 2213.71 47.47
3315 43.0500 2336.00 2213.85 48.33
3316 43.0600 2241.00 2214.03 47.34
3317 43.0700 2201.00 2214.27 46.91
3318 43.0800 2238.00 2214.56 47.31
3319 43.0900 2278.00 2214.91 47.73
3320 43.1000 2234.00 2213.46 47.27
3321 43.1100 2146.00 2214.00 46.32
3322 43.1200 2221.00 2214.63 47.13
3323 43.1300 2222.00 2215.34 47.14
3324 43.1400 2231.00 2216.18 47.23
3325 43.1500 2109.00 2217.14 45.92
3326 43.1600 2226.00 2218.26 47.18
3327 43.1700 2221.00 2219.58 47.13
3328 43.1800 2284.00 2221.15 47.79
3329 43.1900 2236.00 2223.05 47.29
3330 43.2000 2250.00 2225.40 47.43
3331 43.2100 2297.00 2227.52 47.93
3332 43.2200 2328.00 2231.65 48.25
3333 43.2300 2212.00 2237.49 47.03
3334 43.2400 2308.00 2246.03 48.04
3335 43.2500 2206.00 2258.62 46.97
3336 43.2600 2368.00 2277.02 48.66
3337 43.2700 2331.00 2303.03 48.28
3338 43.2800 2335.00 2338.04 48.32
3339 43.2900 2414.00 2382.52 49.13
3340 43.3000 2481.00 2435.03 49.81
3341 43.3100 2608.00 2491.56 51.07
3342 43.3200 2630.00 2544.36 51.28
3343 43.3300 2726.00 2582.13 52.21
3344 43.3400 2613.00 2593.68 51.12
3345 43.3500 2620.00 2576.07 51.19
3346 43.3600 2641.00 2537.53 51.39
3347 43.3700 2571.00 2491.16 50.71
3348 43.3800 2441.00 2447.97 49.41
3349 43.3900 2447.00 2414.93 49.47
3350 43.4000 2385.00 2395.27 48.84
3351 43.4100 2443.00 2389.15 49.43
3352 43.4200 2341.00 2394.09 48.38
3353 43.4300 2499.00 2405.18 49.99
3354 43.4400 2448.00 2415.41 49.48
3355 43.4500 2411.00 2417.12 49.10
3356 43.4600 2457.00 2406.09 49.57
3357 43.4700 2504.00 2383.73 50.04
3358 43.4800 2372.00 2355.34 48.70
3359 43.4900 2276.00 2326.08 47.71
3360 43.5000 2294.00 2299.39 47.90
3361 43.5100 2337.00 2277.00 48.34
3362 43.5200 2286.00 2261.26 47.81
3363 43.5300 2264.00 2248.24 47.58
3364 43.5400 2193.00 2238.97 46.83
3365 43.5500 2251.00 2232.54 47.44
3366 43.5600 2303.00 2228.06 47.99
3367 43.5700 2266.00 2224.95 47.60
3368 43.5800 2238.00 2222.69 47.31
3369 43.5900 2237.00 2220.98 47.30
3370 43.6000 2323.00 2219.62 48.20
3371 43.6100 2243.00 2218.52 47.36
3372 43.6200 2238.00 2217.60 47.31
3373 43.6300 2191.00 2216.83 46.81
3374 43.6400 2246.00 2217.65 47.39
3375 43.6500 2198.00 2217.14 46.88
3376 43.6600 2190.00 2216.71 46.80
3377 43.6700 2184.00 2216.35 46.73
3378 43.6800 2284.00 2216.06 47.79
3379 43.6900 2189.00 2215.83 46.79
3380 43.7000 2223.00 2215.64 47.15
3381 43.7100 2175.00 2215.74 46.64
3382 43.7200 2196.00 2215.65 46.86
3383 43.7300 2218.00 2215.60 47.10
3384 43.7400 2103.00 2215.58 45.86
3385 43.7500 2205.00 2215.60 46.96
3386 43.7600 2203.00 2215.65 46.94
3387 43.7700 2181.00 2215.74 46.70
3388 43.7800 2235.00 2215.85 47.28
3389 43.7900 2269.00 2216.00 47.63
3390 43.8000 2316.00 2216.18 48.12
3391 43.8100 2149.00 2216.39 46.36
3392 43.8200 2243.00 2216.63 47.36
3393 43.8300 2073.00 2216.91 45.53
3394 43.8400 2218.00 2217.22 47.10
3395 43.8500 2149.00 2217.57 46.36
3396 43.8600 2260.00 2218.16 47.54
3397 43.8700 2222.00 2218.60 47.14
3398 43.8800 2186.00 2219.08 46.75
3399 43.8900 2209.00 2219.61 47.00
3400 43.9000 2118.00 2220.19 46.02
3401 43.9100 2199.00 2220.83 46.89
3402 43.9200 2223.00 2221.53 47.15
3403 43.9300 2214.00 2222.31 47.05
3404 43.9400 2208.00 2223.16 46.99
3405 43.9500 2181.00 2224.11 46.70
3406 43.9600 2240.00 2225.15 47.33
3407 43.9700 2234.00 2226.30 47.27
3408 43.9800 2173.00 2227.77 46.62
3409 43.9900 2214.00 2229.20 47.05
3410 44.0000 2207.00 2230.80 46.98
3411 44.0100 2257.00 2232.59 47.51
3412 44.0200 2199.00 2234.60 46.89
3413 44.0300 2311.00 2236.88 48.07
3414 44.0400 2223.00 2239.46 47.15
3415 44.0500 2310.00 2242.41 48.06
3416 44.0600 2201.00 2245.13 46.91
3417 44.0700 2287.00 2249.11 47.82
3418 44.0800 2171.00 2253.74 46.59
3419 44.0900 2214.00 2259.25 47.05
3420 44.1000 2280.00 2265.99 47.75
3421 44.1100 2272.00 2274.54 47.67
3422 44.1200 2240.00 2285.87 47.33
3423 44.1300 2396.00 2301.61 48.95
3424 44.1400 2453.00 2324.22 49.53
3425 44.1500 2384.00 2357.24 48.83
3426 44.1600 2425.00 2405.08 49.24
3427 44.1700 2435.00 2472.24 49.35
3428 44.1800 2623.00 2563.52 51.22
3429 44.1900 2701.00 2680.26 51.97
3430 44.2000 2890.00 2820.33 53.76
3431 44.2100 2967.00 2975.13 54.47
3432 44.2200 3106.00 3127.70 55.73
3433 44.2300 3236.00 3251.27 56.89
3434 44.2400 3368.00 3316.69 58.03
3435 44.2500 3325.00 3310.61 57.66
3436 44.2600 3192.00 3248.39 56.50
3437 44.2700 3208.00 3161.96 56.64
3438 44.2800 3154.00 3079.83 56.16
3439 44.2900 3043.00 3018.34 55.16
3440 44.3000 3076.00 2981.58 55.46
3441 44.3100 3014.00 2964.82 54.90
3442 44.3200 2974.00 2960.65 54.53
3443 44.3300 2891.00 2962.91 53.77
3444 44.3400 2945.00 2964.10 54.27
3445 44.3500 2983.00 2952.38 54.62
3446 44.3600 2958.00 2916.44 54.39
3447 44.3700 2836.00 2855.36 53.25
3448 44.3800 2749.00 2779.93 52.43
3449 44.3900 2755.00 2704.26 52.49
3450 44.4000 2644.00 2636.04 51.42
3451 44.4100 2549.00 2578.59 50.49
3452 44.4200 2469.00 2529.88 49.69
3453 44.4300 2581.00 2486.03 50.80
3454 44.4400 2527.00 2444.81 50.27
3455 44.4500 2483.00 2406.65 49.83
3456 44.4600 2364.00 2373.03 48.62
3457 44.4700 2386.00 2344.96 48.85
3458 44.4800 2410.00 2322.90 49.09
3459 44.4900 2346.00 2306.89 48.44
3460 44.5000 2338.00 2296.82 48.35
3461 44.5100 2325.00 2292.70 48.22
3462 44.5200 2287.00 2293.67 47.82
3463 44.5300 2264.00 2299.47 47.58
3464 44.5400 2357.00 2309.30 48.55
3465 44.5500 2333.00 2321.92 48.30
3466 44.5600 2413.00 2335.32 49.12
3467 44.5700 2412.00 2346.57 49.11
3468 44.5800 2399.00 2352.34 48.98
3469 44.5900 2368.00 2350.63 48.66
3470 44.6000 2477.00 2342.53 49.77
3471 44.6100 2327.00 2331.45 48.24
3472 44.6200 2332.00 2320.93 48.29
3473 44.6300 2306.00 2313.41 48.02
3474 44.6400 2432.00 2310.02 49.32
3475 44.6500 2314.00 2310.71 48.10
3476 44.6600 2343.00 2314.26 48.40
3477 44.6700 2380.00 2318.54 48.79
3478 44.6800 2377.00 2321.23 48.75
3479 44.6900 2364.00 2320.48 48.62
3480 44.7000 2381.00 2315.44 48.80
3481 44.7100 2306.00 2306.44 48.02
3482 44.7200 2227.00 2295.11 47.19
3483 44.7300 2259.00 2283.52 47.53
3484 44.7400 2340.00 2273.27 48.37
3485 44.7500 2220.00 2265.18 47.12
3486 44.7600 2247.00 2259.39 47.40
3487 44.7700 2270.00 2255.50 47.64
3488 44.7800 2239.00 2252.72 47.32
3489 44.7900 2251.00 2250.10 47.44
3490 44.8000 2176.00 2247.01 46.65
3491 44.8100 2220.00 2243.41 47.12
3492 44.8200 2279.00 2239.62 47.74
3493 44.8300 2302.00 2236.04 47.98
3494 44.8400 2172.00 2232.90 46.60
3495 44.8500 2273.00 2230.35 47.68
3496 44.8600 2215.00 2228.40 47.06
3497 44.8700 2188.00 2227.04 46.78
3498 44.8800 2265.00 2226.18 47.59
3499 44.8900 2249.00 2225.75 47.42
3500 44.9000 2319.00 2225.70 48.16
3501 44.9100 2292.00 2226.00 47.87
3502 44.9200 2250.00 2226.64 47.43
3503 44.9300 2215.00 2227.66 47.06
3504 44.9400 2196.00 2228.99 46.86
3505 44.9500 2277.00 2230.69 47.72
3506 44.9600 2308.00 2232.70 48.04
3507 44.9700 2279.00 2233.17 47.74
3508 44.9800 2189.00 2235.67 46.79
3509 44.9900 2226.00 2238.31 47.18
3510 45.0000 2230.00 2241.29 47.22
3511 45.0100 2313.00 2245.18 48.09
3512 45.0200 2180.00 2250.97 46.69
3513 45.0300 2317.00 2259.91 48.14
3514 45.0400 2245.00 2273.01 47.38
3515 45.0500 2459.00 2292.63 49.59
3516 45.0600 2272.00 2319.38 47.67
3517 45.0700 2348.00 2353.54 48.46
3518 45.0800 2437.00 2393.20 49.37
3519 45.0900 2515.00 2437.28 50.15
3520 45.1000 2557.00 2479.28 50.57
3521 45.1100 2653.00 2511.02 51.51
3522 45.1200 2531.00 2523.79 50.31
3523 45.1300 2473.00 2513.92 49.73
3524 45.1400 2611.00 2486.05 51.10
3525 45.1500 2514.00 2449.59 50.14
3526 45.1600 2549.00 2413.21 50.49
3527 45.1700 2457.00 2383.43 49.57
3528 45.1800 2432.00 2363.32 49.32
3529 45.1900 2429.00 2353.86 49.28
3530 45.2000 2351.00 2354.10 48.49
3531 45.2100 2457.00 2361.29 49.57
3532 45.2200 2336.00 2371.14 48.33
3533 45.2300 2436.00 2378.13 49.36
3534 45.2400 2427.00 2378.32 49.26
3535 45.2500 2496.00 2367.37 49.96
3536 45.2600 2378.00 2348.65 48.76
3537 45.2700 2394.00 2326.25 48.93
3538 45.2800 2419.00 2303.81 49.18
3539 45.2900 2306.00 2283.59 48.02
3540 45.3000 2258.00 2266.74 47.52
3541 45.3100 2301.00 2253.34 47.97
3542 45.3200 2177.00 2243.54 46.66
3543 45.3300 2230.00 2236.55 47.22
3544 45.3400 2227.00 2231.67 47.19
3545 45.3500 2200.00 2228.30 46.90
3546 45.3600 2243.00 2226.53 47.36
3547 45.3700 2241.00 2224.83 47.34
3548 45.3800 2156.00 2223.56 46.43
3549 45.3900 2220.00 2222.57 47.12
3550 45.4000 2245.00 2221.78 47.38
3551 45.4100 2183.00 2221.06 46.72
3552 45.4200 2230.00 2220.53 47.22
3553 45.4300 2264.00 2220.00 47.58
3554 45.4400 2234.00 2219.66 47.27
3555 45.4500 2196.00 2219.38 46.86
3556 45.4600 2166.00 2219.17 46.54
3557 45.4700 2286.00 2219.01 47.81
3558 45.4800 2290.00 2218.91 47.85
3559 45.4900 2177.00 2218.86 46.66
3560 45.5000 2241.00 2218.86 47.34
3561 45.5100 2250.00 2218.91 47.43
3562 45.5200 2190.00 2218.98 46.80
3563 45.5300 2191.00 2219.17 46.81
3564 45.5400 2196.00 2219.44 46.86
3565 45.5500 2253.00 2219.84 47.47
3566 45.5600 2189.00 2220.42 46.79
3567 45.5700 2284.00 2221.26 47.79
3568 45.5800 2221.00 2222.45 47.13
3569 45.5900 2205.00 2224.09 46.96
3570 45.6000 2149.00 2226.26 46.36
3571 45.6100 2324.00 2228.97 48.21
3572 45.6200 2186.00 2232.16 46.75
3573 45.6300 2286.00 2235.63 47.81
3574 45.6400 2162.00 2238.99 46.50
3575 45.6500 2227.00 2241.69 47.19
3576 45.6600 2240.00 2243.09 47.33
3577 45.6700 2160.00 2242.93 46.48
3578 45.6800 2201.00 2241.49 46.91
3579 45.6900 2308.00 2239.45 48.04
3580 45.7000 2312.00 2237.44 48.08
3581 45.7100 2293.00 2235.93 47.89
3582 45.7200 2267.00 2235.17 47.61
3583 45.7300 2249.00 2235.25 47.42
3584 45.7400 2168.00 2236.16 46.56
3585 45.7500 2222.00 2237.73 47.14
3586 45.7600 2206.00 2239.67 46.97
3587 45.7700 2251.00 2241.65 47.44
3588 45.7800 2185.00 2243.29 46.74
3589 45.7900 2217.00 2244.45 47.08
3590 45.8000 2269.00 2245.27 47.63
3591 45.8100 2256.00 2246.11 47.50
3592 45.8200 2201.00 2247.33 46.91
3593 45.8300 2272.00 2249.28 47.67
3594 45.8400 2311.00 2252.32 48.07
3595 45.8500 2295.00 2256.90 47.91
3596 45.8600 2214.00 2263.24 47.05
3597 45.8700 2247.00 2273.52 47.40
3598 45.8800 2328.00 2288.91 48.25
3599 45.8900 2291.00 2311.69 47.86
3600 45.9000 2370.00 2344.67 48.68
3601 45.9100 2399.00 2390.63 48.98
3602 45.9200 2439.00 2451.73 49.39
3603 45.9300 2453.00 2528.38 49.53
3604 45.9400 2569.00 2618.06 50.69
3605 45.9500 2563.00 2714.35 50.63
3606 45.9600 2689.00 2805.17 51.86
3607 45.9700 2771.00 2872.96 52.64
3608 45.9800 2881.00 2899.23 53.67
3609 45.9900 2782.00 2877.21 52.74
3610 46.0000 2771.00 2816.66 52.64
3611 46.0100 2679.00 2737.56 51.76
3612 46.0200 2581.00 2658.93 50.80
3613 46.0300 2477.00 2593.36 49.77
3614 46.0400 2413.00 2548.31 49.12
3615 46.0500 2568.00 2526.26 50.68
3616 46.0600 2466.00 2525.47 49.66
3617 46.0700 2500.00 2540.62 50.00
3618 46.0800 2495.00 2563.06 49.95
3619 46.0900 2515.00 2581.38 50.15
3620 46.1000 2477.00 2584.09 49.77
3621 46.1100 2508.00 2565.19 50.08
3622 46.1200 2489.00 2527.62 49.89
3623 46.1300 2539.00 2479.84 50.39
3624 46.1400 2302.00 2430.31 47.98
3625 46.1500 2368.00 2384.28 48.66
3626 46.1600 2291.00 2345.04 47.86
3627 46.1700 2344.00 2313.68 48.41
3628 46.1800 2255.00 2289.90 47.49
3629 46.1900 2290.00 2272.64 47.85
3630 46.2000 2261.00 2260.48 47.55
3631 46.2100 2347.00 2252.04 48.45
3632 46.2200 2256.00 2246.07 47.50
3633 46.2300 2291.00 2241.75 47.86
3634 46.2400 2249.00 2238.50 47.42
3635 46.2500 2121.00 2235.94 46.05
3636 46.2600 2245.00 2233.85 47.38
3637 46.2700 2251.00 2232.10 47.44
3638 46.2800 2224.00 2230.61 47.16
3639 46.2900 2231.00 2229.32 47.23
3640 46.3000 2221.00 2228.21 47.13
3641 46.3100 2332.00 2227.23 48.29
3642 46.3200 2261.00 2226.38 47.55
3643 46.3300 2242.00 2225.62 47.35
3644 46.3400 2255.00 2224.96 47.49
3645 46.3500 2239.00 2224.38 47.32
3646 46.3600 2246.00 2223.86 47.39
3647 46.3700 2301.00 2223.40 47.97
3648 46.3800 2311.00 2223.00 48.07
3649 46.3900 2191.00 2222.64 46.81
3650 46.4000 2213.00 2222.29 47.04
3651 46.4100 2189.00 2222.02 46.79
3652 46.4200 2195.00 2221.79 46.85
3653 46.4300 2205.00 2221.59 46.96
3654 46.4400 2292.00 2221.42 47.87
3655 46.4500 2206.00 2221.28 46.97
3656 46.4600 2207.00 2221.18 46.98
3657 46.4700 2172.00 2221.10 46.60
3658 46.4800 2282.00 2221.05 47.77
3659 46.4900 2136.00 2221.02 46.22
3660 46.5000 2297.00 2221.03 47.93
3661 46.5100 2202.00 2221.07 46.93
3662 46.5200 2195.00 2221.11 46.85
3663 46.5300 2132.00 2221.21 46.17
3664 46.5400 2165.00 2221.35 46.53
3665 46.5500 2134.00 2221.53 46.20
3666 46.5600 2354.00 2221.74 48.52
3667 46.5700 2239.00 2222.01 47.32
3668 46.5800 2167.00 2222.34 46.55
3669 46.5900 2208.00 2222.74 46.99
3670 46.6000 2233.00 2223.22 47.25
3671 46.6100 2152.00 2223.80 46.39
3672 46.6200 2232.00 2224.54 47.24
3673 46.6300 2277.00 2225.48 47.72
3674 46.6400 2146.00 2226.74 46.32
3675 46.6500 2161.00 2228.49 46.49
3676 46.6600 2274.00 2230.99 47.69
3677 46.6700 2214.00 2234.62 47.05
3678 46.6800 2243.00 2239.86 47.36
3679 46.6900 2288.00 2247.20 47.83
3680 46.7000 2227.00 2257.11 47.19
3681 46.7100 2310.00 2269.86 48.06
3682 46.7200 2367.00 2285.33 48.65
3683 46.7300 2341.00 2301.65 48.38
3684 46.7400 2340.00 2319.71 48.37
3685 46.7500 2345.00 2335.90 48.43
3686 46.7600 2399.00 2347.11 48.98
3687 46.7700 2360.00 2351.08 48.58
3688 46.7800 2354.00 2348.10 48.52
3689 46.7900 2364.00 2340.95 48.62
3690 46.8000 2353.00 2332.94 48.51
3691 46.8100 2275.00 2326.35 47.70
3692 46.8200 2335.00 2322.11 48.32
3693 46.8300 2322.00 2319.87 48.19
3694 46.8400 2336.00 2318.64 48.33
3695 46.8500 2388.00 2317.03 48.87
3696 46.8600 2383.00 2315.97 48.82
3697 46.8700 2328.00 2314.56 48.25
3698 46.8800 2375.00 2311.99 48.73
3699 46.8900 2283.00 2307.24 47.78
3700 46.9000 2370.00 2300.12 48.68
3701 46.9100 2264.00 2291.60 47.58
3702 46.9200 2195.00 2283.07 46.85
3703 46.9300 2280.00 2275.52 47.75
3704 46.9400 2271.00 2269.24 47.65
3705 46.9500 2256.00 2263.92 47.50
3706 46.9600 2315.00 2258.95 48.11
3707 46.9700 2300.00 2253.81 47.96
3708 46.9800 2237.00 2248.47 47.30
3709 46.9900 2222.00 2243.24 47.14
3710 47.0000 2310.00 2238.43 48.06
3711 47.0100 2193.00 2234.26 46.83
3712 47.0200 2249.00 2230.80 47.42
3713 47.0300 2280.00 2228.05 47.75
3714 47.0400 2213.00 2225.94 47.04
3715 47.0500 2277.00 2224.42 47.72
3716 47.0600 2262.00 2223.26 47.56
3717 47.0700 2264.00 2222.42 47.58
3718 47.0800 2219.00 2221.79 47.11
3719 47.0900 2217.00 2221.32 47.08
3720 47.1000 2270.00 2220.95 47.64
3721 47.1100 2205.00 2220.65 46.96
3722 47.1200 2197.00 2220.40 46.87
3723 47.1300 2133.00 2220.19 46.18
3724 47.1400 2203.00 2220.01 46.94
3725 47.1500 2168.00 2219.86 46.56
3726 47.1600 2258.00 2219.74 47.52
3727 47.1700 2178.00 2219.65 46.67
3728 47.1800 2301.00 2219.56 47.97
3729 47.1900 2255.00 2219.48 47.49
3730 47.2000 2192.00 2219.41 46.82
3731 47.2100 2147.00 2219.35 46.34
3732 47.2200 2254.00 2219.31 47.48
3733 47.2300 2244.00 2219.27 47.37
3734 47.2400 2190.00 2219.24 46.80
3735 47.2500 2183.00 2219.21 46.72
3736 47.2600 2202.00 2219.20 46.93
3737 47.2700 2199.00 2219.19 46.89
3738 47.2800 2212.00 2219.18 47.03
3739 47.2900 2205.00 2219.18 46.96
3740 47.3000 2199.00 2219.18 46.89
3741 47.3100 2244.00 2219.19 47.37
3742 47.3200 2197.00 2219.20 46.87
3743 47.3300 2186.00 2219.21 46.75
3744 47.3400 2240.00 2219.23 47.33
3745 47.3500 2201.00 2219.25 46.91
3746 47.3600 2196.00 2219.27 46.86
3747 47.3700 2220.00 2219.29 47.12
3748 47.3800 2180.00 2219.32 46.69
3749 47.3900 2175.00 2219.35 46.64
3750 47.4000 2289.00 2219.39 47.84
3751 47.4100 2332.00 2219.42 48.29
3752 47.4200 2256.00 2219.46 47.50
3753 47.4300 2251.00 2219.50 47.44
3754 47.4400 2185.00 2219.54 46.74
3755 47.4500 2234.00 2219.59 47.27
3756 47.4600 2212.00 2219.63 47.03
3757 47.4700 2167.00 2219.68 46.55
3758 47.4800 2251.00 2219.73 47.44
3759 47.4900 2166.00 2219.79 46.54
3760 47.5000 2166.00 2219.85 46.54
3761 47.5100 2177.00 2219.91 46.66
3762 47.5200 2266.00 2219.76 47.60
3763 47.5300 2242.00 2219.83 47.35
3764 47.5400 2180.00 2219.91 46.69
3765 47.5500 2248.00 2219.99 47.41
3766 47.5600 2260.00 2220.08 47.54
3767 47.5700 2199.00 2220.17 46.89
3768 47.5800 2275.00 2220.26 47.70
3769 47.5900 2233.00 2220.28 47.25
3770 47.6000 2120.00 2220.40 46.04
3771 47.6100 2239.00 2220.52 47.32
3772 47.6200 2218.00 2220.65 47.10
3773 47.6300 2225.00 2220.80 47.17
3774 47.6400 2312.00 2220.86 48.08
3775 47.6500 2230.00 2221.05 47.22
3776 47.6600 2232.00 2221.28 47.24
3777 47.6700 2229.00 2221.55 47.21
3778 47.6800 2135.00 2221.90 46.21
3779 47.6900 2258.00 2222.38 47.52
3780 47.7000 2220.00 2223.04 47.12
3781 47.7100 2156.00 2223.97 46.43
3782 47.7200 2252.00 2225.25 47.46
3783 47.7300 2276.00 2227.06 47.71
3784 47.7400 2216.00 2229.47 47.07
3785 47.7500 2299.00 2232.52 47.95
3786 47.7600 2292.00 2236.14 47.87
3787 47.7700 2259.00 2240.14 47.53
3788 47.7800 2233.00 2244.13 47.25
3789 47.7900 2241.00 2247.50 47.34
3790 47.8000 2237.00 2249.50 47.30
3791 47.8100 2297.00 2249.59 47.93
3792 47.8200 2243.00 2247.84 47.36
3793 47.8300 2256.00 2244.89 47.50
3794 47.8400 2236.00 2241.54 47.29
3795 47.8500 2246.00 2238.44 47.39
3796 47.8600 2180.00 2236.00 46.69
3797 47.8700 2227.00 2234.46 47.19
3798 47.8800 2168.00 2233.85 46.56
3799 47.8900 2185.00 2234.06 46.74
3800 47.9000 2216.00 2234.88 47.07
3801 47.9100 2177.00 2235.93 46.66
3802 47.9200 2219.00 2236.78 47.11
3803 47.9300 2156.00 2236.99 46.43
3804 47.9400 2203.00 2236.31 46.94
3805 47.9500 2304.00 2234.85 48.00
3806 47.9600 2223.00 2232.96 47.15
3807 47.9700 2226.00 2230.95 47.18
3808 47.9800 2268.00 2229.06 47.62
3809 47.9900 2228.00 2227.44 47.20
3810 48.0000 2279.00 2226.13 47.74
3811 48.0100 2208.00 2225.13 46.99
3812 48.0200 2268.00 2224.41 47.62
3813 48.0300 2267.00 2223.91 47.61
3814 48.0400 2200.00 2223.58 46.90
3815 48.0500 2280.00 2223.36 47.75
3816 48.0600 2206.00 2223.22 46.97
3817 48.0700 2197.00 2223.12 46.87
3818 48.0800 2207.00 2223.06 46.98
3819 48.0900 2239.00 2223.03 47.32
3820 48.1000 2182.00 2223.01 46.71
3821 48.1100 2189.00 2223.00 46.79
3822 48.1200 2205.00 2222.99 46.96
3823 48.1300 2172.00 2223.00 46.60
3824 48.1400 2223.00 2223.01 47.15
3825 48.1500 2182.00 2223.03 46.71
3826 48.1600 2247.00 2223.05 47.40
3827 48.1700 2231.00 2223.08 47.23
3828 48.1800 2197.00 2223.11 46.87
3829 48.1900 2141.00 2223.14 46.27
3830 48.2000 2223.00 2223.17 47.15
3831 48.2100 2256.00 2223.21 47.50
3832 48.2200 2187.00 2223.25 46.77
3833 48.2300 2204.00 2223.29 46.95
3834 48.2400 2214.00 2223.33 47.05
3835 48.2500 2115.00 2223.37 45.99
3836 48.2600 2188.00 2223.42 46.78
3837 48.2700 2269.00 2223.46 47.63
3838 48.2800 2283.00 2223.51 47.78
3839 48.2900 2246.00 2223.56 47.39
3840 48.3000 2229.00 2223.61 47.21
3841 48.3100 2275.00 2223.66 47.70
3842 48.3200 2180.00 2223.71 46.69
3843 48.3300 2297.00 2223.76 47.93
3844 48.3400 2110.00 2223.81 45.93
3845 48.3500 2115.00 2223.86 45.99
3846 48.3600 2182.00 2223.91 46.71
3847 48.3700 2176.00 2223.97 46.65
3848 48.3800 2141.00 2224.02 46.27
3849 48.3900 2202.00 2224.07 46.93
3850 48.4000 2220.00 2224.13 47.12
3851 48.4100 2210.00 2224.18 47.01
3852 48.4200 2131.00 2224.24 46.16
3853 48.4300 2173.00 2224.29 46.62
3854 48.4400 2149.00 2224.35 46.36
3855 48.4500 2236.00 2224.40 47.29
3856 48.4600 2242.00 2224.46 47.35
3857 48.4700 2229.00 2224.52 47.21
3858 48.4800 2181.00 2224.57 46.70
3859 48.4900 2260.00 2224.63 47.54
3860 48.5000 2220.00 2224.69 47.12
3861 48.5100 2163.00 2224.75 46.51
3862 48.5200 2118.00 2224.80 46.02
3863 48.5300 2155.00 2224.86 46.42
3864 48.5400 2196.00 2224.92 46.86
3865 48.5500 2249.00 2224.98 47.42
3866 48.5600 2254.00 2225.04 47.48
3867 48.5700 2232.00 2225.04 47.24
3868 48.5800 2276.00 2225.10 47.71
3869 48.5900 2237.00 2225.16 47.30
3870 48.6000 2191.00 2225.23 46.81
3871 48.6100 2224.00 2225.29 47.16
3872 48.6200 2276.00 2225.35 47.71
3873 48.6300 2259.00 2225.41 47.53
3874 48.6400 2180.00 2225.47 46.69
3875 48.6500 2217.00 2225.53 47.08
3876 48.6600 2231.00 2225.59 47.23
3877 48.6700 2265.00 2225.65 47.59
3878 48.6800 2127.00 2225.71 46.12
3879 48.6900 2311.00 2225.77 48.07
3880 48.7000 2277.00 2225.81 47.72
3881 48.7100 2162.00 2225.87 46.50
3882 48.7200 2242.00 2225.93 47.35
3883 48.7300 2266.00 2226.00 47.60
3884 48.7400 2203.00 2226.06 46.94
3885 48.7500 2246.00 2226.12 47.39
3886 48.7600 2199.00 2226.18 46.89
3887 48.7700 2163.00 2226.24 46.51
3888 48.7800 2224.00 2226.31 47.16
3889 48.7900 2221.00 2226.37 47.13
3890 48.8000 2223.00 2226.43 47.15
3891 48.8100 2190.00 2226.50 46.80
3892 48.8200 2135.00 2226.56 46.21
3893 48.8300 2191.00 2226.62 46.81
3894 48.8400 2284.00 2226.68 47.79
3895 48.8500 2234.00 2226.75 47.27
3896 48.8600 2237.00 2226.81 47.30
3897 48.8700 2259.00 2226.87 47.53
3898 48.8800 2260.00 2226.94 47.54
3899 48.8900 2206.00 2227.76 46.97
3900 48.9000 2309.00 2227.85 48.05
3901 48.9100 2156.00 2227.93 46.43
3902 48.9200 2263.00 2228.01 47.57
3903 48.9300 2116.00 2228.10 46.00
3904 48.9400 2117.00 2228.19 46.01
3905 48.9500 2231.00 2228.28 47.23
3906 48.9600 2265.00 2228.36 47.59
3907 48.9700 2255.00 2228.45 47.49
3908 48.9800 2208.00 2228.55 46.99
3909 48.9900 2181.00 2228.64 46.70
3910 49.0000 2208.00 2228.73 46.99
3911 49.0100 2260.00 2228.83 47.54
3912 49.0200 2189.00 2229.30 46.79
3913 49.0300 2218.00 2229.41 47.10
3914 49.0400 2249.00 2229.52 47.42
3915 49.0500 2249.00 2229.63 47.42
3916 49.0600 2179.00 2229.75 46.68
3917 49.0700 2169.00 2229.86 46.57
3918 49.0800 2273.00 2229.98 47.68
3919 49.0900 2281.00 2230.11 47.76
3920 49.1000 2236.00 2230.23 47.29
3921 49.1100 2216.00 2230.36 47.07
3922 49.1200 2303.00 2230.49 47.99
3923 49.1300 2206.00 2230.63 46.97
3924 49.1400 2215.00 2230.77 47.06
3925 49.1500 2077.00 2230.91 45.57
3926 49.1600 2243.00 2231.06 47.36
3927 49.1700 2229.00 2231.21 47.21
3928 49.1800 2272.00 2231.37 47.67
3929 49.1900 2272.00 2231.54 47.67
3930 49.2000 2270.00 2231.71 47.64
3931 49.2100 2251.00 2231.88 47.44
3932 49.2200 2232.00 2232.07 47.24
3933 49.2300 2275.00 2232.26 47.70
3934 49.2400 2219.00 2232.46 47.11
3935 49.2500 2157.00 2232.67 46.44
3936 49.2600 2291.00 2232.89 47.86
3937 49.2700 2208.00 2233.12 46.99
3938 49.2800 2237.00 2233.36 47.30
3939 49.2900 2220.00 2233.62 47.12
3940 49.3000 2242.00 2233.89 47.35
3941 49.3100 2170.00 2234.45 46.58
3942 49.3200 2231.00 2234.76 47.23
3943 49.3300 2219.00 2235.09 47.11
3944 49.3400 2223.00 2235.44 47.15
3945 49.3500 2307.00 2235.82 48.03
3946 49.3600 2238.00 2236.23 47.31
3947 49.3700 2220.00 2236.67 47.12
3948 49.3800 2250.00 2237.14 47.43
3949 49.3900 2225.00 2237.65 47.17
3950 49.4000 2211.00 2238.21 47.02
3951 49.4100 2236.00 2238.82 47.29
3952 49.4200 2251.00 2239.49 47.44
3953 49.4300 2192.00 2240.23 46.82
3954 49.4400 2219.00 2241.20 47.11
3955 49.4500 2253.00 2242.11 47.47
3956 49.4600 2251.00 2243.14 47.44
3957 49.4700 2213.00 2244.29 47.04
3958 49.4800 2251.00 2245.61 47.44
3959 49.4900 2205.00 2247.11 46.96
3960 49.5000 2250.00 2248.85 47.43
3961 49.5100 2271.00 2250.90 47.65
3962 49.5200 2256.00 2253.40 47.50
3963 49.5300 2262.00 2256.54 47.56
3964 49.5400 2226.00 2260.65 47.18
3965 49.5500 2283.00 2266.29 47.78
3966 49.5600 2328.00 2274.27 48.25
3967 49.5700 2288.00 2285.74 47.83
3968 49.5800 2261.00 2302.27 47.55
3969 49.5900 2346.00 2325.34 48.44
3970 49.6000 2339.00 2356.60 48.36
3971 49.6100 2430.00 2397.13 49.29
3972 49.6200 2377.00 2446.84 48.75
3973 49.6300 2496.00 2504.15 49.96
3974 49.6400 2549.00 2565.07 50.49
3975 49.6500 2620.00 2622.80 51.19
3976 49.6600 2642.00 2667.52 51.40
3977 49.6700 2580.00 2688.81 50.79
3978 49.6800 2594.00 2681.10 50.93
3979 49.6900 2590.00 2647.95 50.89
3980 49.7000 2581.00 2599.70 50.80
3981 49.7100 2515.00 2547.62 50.15
3982 49.7200 2456.00 2500.28 49.56
3983 49.7300 2380.00 2463.35 48.79
3984 49.7400 2343.00 2439.71 48.40
3985 49.7500 2360.00 2429.91 48.58
3986 49.7600 2386.00 2432.50 48.85
3987 49.7700 2435.00 2444.27 49.35
3988 49.7800 2504.00 2460.40 50.04
3989 49.7900 2413.00 2474.70 49.12
3990 49.8000 2520.00 2480.62 50.20
3991 49.8100 2425.00 2473.85 49.24
3992 49.8200 2464.00 2454.64 49.64
3993 49.8300 2381.00 2427.10 48.80
3994 49.8400 2377.00 2396.24 48.75
3995 49.8500 2313.00 2366.05 48.09
3996 49.8600 2248.00 2339.02 47.41
3997 49.8700 2327.00 2316.43 48.24
3998 49.8800 2227.00 2298.61 47.19
3999 49.8900 2235.00 2285.27 47.28
4000 49.9000 2238.00 2275.71 47.31
4001 49.9100 2190.00 2269.13 46.80
4002 49.9200 2153.00 2264.75 46.40
4003 49.9300 2252.00 2261.95 47.46
4004 49.9400 2221.00 2260.30 47.13
4005 49.9500 2237.00 2259.55 47.30
4006 49.9600 2347.00 2259.64 48.45
4007 49.9700 2244.00 2260.64 47.37
4008 49.9800 2361.00 2262.82 48.59
4009 49.9900 2156.00 2266.56 46.43
4010 50.0000 2287.00 2272.39 47.82
4011 50.0100 2309.00 2280.84 48.05
4012 50.0200 2311.00 2292.41 48.07
4013 50.0300 2307.00 2307.31 48.03
4014 50.0400 2393.00 2325.33 48.92
4015 50.0500 2317.00 2345.62 48.14
4016 50.0600 2326.00 2366.49 48.23
4017 50.0700 2366.00 2385.18 48.64
4018 50.0800 2363.00 2398.11 48.61
4019 50.0900 2405.00 2402.06 49.04
4020 50.1000 2364.00 2396.15 48.62
4021 50.1100 2347.00 2382.62 48.45
4022 50.1200 2473.00 2365.36 49.73
4023 50.1300 2343.00 2347.95 48.40
4024 50.1400 2367.00 2333.03 48.65
4025 50.1500 2377.00 2322.14 48.75
4026 50.1600 2371.00 2315.92 48.69
4027 50.1700 2278.00 2314.23 47.73
4028 50.1800 2236.00 2316.30 47.29
4029 50.1900 2284.00 2320.85 47.79
4030 50.2000 2294.00 2326.22 47.90
4031 50.2100 2185.00 2330.33 46.74
4032 50.2200 2370.00 2331.17 48.68
4033 50.2300 2284.00 2327.72 47.79
4034 50.2400 2303.00 2320.53 47.99
4035 50.2500 2345.00 2311.30 48.43
4036 50.2600 2339.00 2301.87 48.36
4037 50.2700 2337.00 2293.66 48.34
4038 50.2800 2291.00 2287.89 47.86
4039 50.2900 2238.00 2284.55 47.31
4040 50.3000 2248.00 2284.03 47.41
4041 50.3100 2258.00 2286.10 47.52
4042 50.3200 2249.00 2290.27 47.42
4043 50.3300 2348.00 2295.76 48.46
4044 50.3400 2335.00 2301.47 48.32
4045 50.3500 2323.00 2306.00 48.20
4046 50.3600 2293.00 2307.83 47.89
4047 50.3700 2280.00 2306.09 47.75
4048 50.3800 2300.00 2301.11 47.96
4049 50.3900 2295.00 2294.13 47.91
4050 50.4000 2312.00 2286.61 48.08
4051 50.4100 2284.00 2279.71 47.79
4052 50.4200 2283.00 2276.83 47.78
4053 50.4300 2295.00 2273.15 47.91
4054 50.4400 2207.00 2271.35 46.98
4055 50.4500 2299.00 2271.30 47.95
4056 50.4600 2312.00 2271.84 48.08
4057 50.4700 2363.00 2273.91 48.61
4058 50.4800 2183.00 2275.97 46.72
4059 50.4900 2339.00 2277.14 48.36
4060 50.5000 2248.00 2276.76 47.41
4061 50.5100 2164.00 2274.67 46.52
4062 50.5200 2262.00 2272.43 47.56
4063 50.5300 2264.00 2268.47 47.58
4064 50.5400 2183.00 2264.45 46.72
4065 50.5500 2254.00 2260.77 47.48
4066 50.5600 2318.00 2257.65 48.15
4067 50.5700 2127.00 2255.16 46.12
4068 50.5800 2222.00 2253.30 47.14
4069 50.5900 2256.00 2251.61 47.50
4070 50.6000 2144.00 2250.74 46.30
4071 50.6100 2206.00 2250.21 46.97
4072 50.6200 2218.00 2249.92 47.10
4073 50.6300 2178.00 2249.79 46.67
4074 50.6400 2270.00 2249.78 47.64
4075 50.6500 2251.00 2249.86 47.44
4076 50.6600 2239.00 2249.99 47.32
4077 50.6700 2235.00 2250.18 47.28
4078 50.6800 2205.00 2250.42 46.96
4079 50.6900 2171.00 2250.69 46.59
4080 50.7000 2272.00 2251.00 47.67
4081 50.7100 2277.00 2251.35 47.72
4082 50.7200 2264.00 2251.74 47.58
4083 50.7300 2193.00 2252.16 46.83
4084 50.7400 2299.00 2252.63 47.95
4085 50.7500 2193.00 2253.13 46.83
4086 50.7600 2134.00 2253.68 46.20
4087 50.7700 2303.00 2254.28 47.99
4088 50.7800 2301.00 2254.93 47.97
4089 50.7900 2212.00 2255.63 47.03
4090 50.8000 2318.00 2256.39 48.15
4091 50.8100 2277.00 2257.22 47.72
4092 50.8200 2274.00 2258.11 47.69
4093 50.8300 2210.00 2259.09 47.01
4094 50.8400 2156.00 2260.16 46.43
4095 50.8500 2336.00 2261.32 48.33
4096 50.8600 2309.00 2262.60 48.05
4097 50.8700 2281.00 2264.01 47.76
4098 50.8800 2180.00 2265.29 46.69
4099 50.8900 2254.00 2267.26 47.48
4100 50.9000 2272.00 2269.19 47.67
4101 50.9100 2338.00 2271.35 48.35
4102 50.9200 2334.00 2273.80 48.31
4103 50.9300 2337.00 2276.63 48.34
4104 50.9400 2238.00 2279.95 47.31
4105 50.9500 2345.00 2283.96 48.43
4106 50.9600 2216.00 2288.93 47.07
4107 50.9700 2346.00 2295.25 48.44
4108 50.9800 2360.00 2303.44 48.58
4109 50.9900 2334.00 2314.08 48.31
4110 51.0000 2325.00 2327.82 48.22
4111 51.0100 2435.00 2345.21 49.35
4112 51.0200 2435.00 2367.09 49.35
4113 51.0300 2386.00 2392.62 48.85
4114 51.0400 2471.00 2421.95 49.71
4115 51.0500 2529.00 2454.33 50.29
4116 51.0600 2616.00 2488.66 51.15
4117 51.0700 2664.00 2523.95 51.61
4118 51.0800 2645.00 2560.78 51.43
4119 51.0900 2729.00 2602.98 52.24
4120 51.1000 2712.00 2657.61 52.08
4121 51.1100 2881.00 2732.90 53.67
4122 51.1200 2883.00 2835.17 53.69
4123 51.1300 3081.00 2967.01 55.51
4124 51.1400 3262.00 3125.59 57.11
4125 51.1500 3406.00 3300.84 58.36
4126 51.1600 3550.00 3474.30 59.58
4127 51.1700 3717.00 3618.80 60.97
4128 51.1800 3692.00 3702.72 60.76
4129 51.1900 3675.00 3704.31 60.62
4130 51.2000 3560.00 3625.68 59.67
4131 51.2100 3407.00 3490.99 58.37
4132 51.2200 3227.00 3331.59 56.81
4133 51.2300 3081.00 3174.98 55.51
4134 51.2400 3048.00 3041.24 55.21
4135 51.2500 2934.00 2943.00 54.17
4136 51.2600 2830.00 2885.64 53.20
4137 51.2700 2831.00 2868.17 53.21
4138 51.2800 2955.00 2884.18 54.36
4139 51.2900 3039.00 2922.38 55.13
4140 51.3000 3038.00 2967.33 55.12
4141 51.3100 3058.00 3000.30 55.30
4142 51.3200 3111.00 3003.78 55.78
4143 51.3300 2966.00 2969.33 54.46
4144 51.3400 3000.00 2901.57 54.77
4145 51.3500 2772.00 2813.74 52.65
4146 51.3600 2720.00 2719.59 52.15
4147 51.3700 2651.00 2629.51 51.49
4148 51.3800 2513.00 2549.68 50.13
4149 51.3900 2568.00 2483.24 50.68
4150 51.4000 2521.00 2430.71 50.21
4151 51.4100 2424.00 2390.98 49.23
4152 51.4200 2320.00 2361.91 48.17
4153 51.4300 2324.00 2341.09 48.21
4154 51.4400 2268.00 2326.30 47.62
4155 51.4500 2314.00 2315.69 48.10
4156 51.4600 2344.00 2307.93 48.41
4157 51.4700 2377.00 2302.09 48.75
4158 51.4800 2328.00 2297.56 48.25
4159 51.4900 2277.00 2293.96 47.72
4160 51.5000 2272.00 2291.09 47.67
4161 51.5100 2295.00 2288.79 47.91
4162 51.5200 2345.00 2287.00 48.43
4163 51.5300 2251.00 2285.67 47.44
4164 51.5400 2233.00 2284.80 47.25
4165 51.5500 2391.00 2284.44 48.90
4166 51.5600 2278.00 2284.70 47.73
4167 51.5700 2321.00 2285.75 48.18
4168 51.5800 2325.00 2287.87 48.22
4169 51.5900 2275.00 2291.45 47.70
4170 51.6000 2250.00 2296.95 47.43
4171 51.6100 2268.00 2304.85 47.62
4172 51.6200 2331.00 2315.57 48.28
4173 51.6300 2369.00 2329.31 48.67
4174 51.6400 2292.00 2345.92 47.87
4175 51.6500 2324.00 2364.76 48.21
4176 51.6600 2434.00 2384.51 49.34
4177 51.6700 2366.00 2403.10 48.64
4178 51.6800 2301.00 2417.85 47.97
4179 51.6900 2513.00 2426.34 50.13
4180 51.7000 2405.00 2428.07 49.04
4181 51.7100 2386.00 2425.30 48.85
4182 51.7200 2481.00 2422.02 49.81
4183 51.7300 2408.00 2422.23 49.07
4184 51.7400 2432.00 2428.97 49.32
4185 51.7500 2460.00 2443.90 49.60
4186 51.7600 2460.00 2467.17 49.60
4187 51.7700 2474.00 2497.23 49.74
4188 51.7800 2512.00 2530.51 50.12
4189 51.7900 2537.00 2561.49 50.37
4190 51.8000 2575.00 2583.50 50.74
4191 51.8100 2601.00 2590.26 51.00
4192 51.8200 2532.00 2579.98 50.32
4193 51.8300 2588.00 2555.31 50.87
4194 51.8400 2564.00 2521.71 50.64
4195 51.8500 2463.00 2485.28 49.63
4196 51.8600 2514.00 2451.21 50.14
4197 51.8700 2399.00 2423.15 48.98
4198 51.8800 2474.00 2402.86 49.74
4199 51.8900 2418.00 2391.38 49.17
4200 51.9000 2365.00 2387.69 48.63
4201 51.9100 2341.00 2389.98 48.38
4202 51.9200 2369.00 2395.51 48.67
4203 51.9300 2368.00 2400.82 48.66
4204 51.9400 2403.00 2402.39 49.02
4205 51.9500 2407.00 2397.55 49.06
4206 51.9600 2400.00 2386.26 48.99
4207 51.9700 2447.00 2370.41 49.47
4208 51.9800 2348.00 2352.58 48.46
4209 51.9900 2333.00 2332.60 48.30
4210 52.0000 2310.00 2316.50 48.06
4211 52.0100 2262.00 2302.73 47.56
4212 52.0200 2240.00 2291.43 47.33
4213 52.0300 2166.00 2282.78 46.54
4214 52.0400 2325.00 2276.32 48.22
4215 52.0500 2255.00 2271.63 47.49
4216 52.0600 2327.00 2268.26 48.24
4217 52.0700 2253.00 2265.84 47.47
4218 52.0800 2301.00 2268.52 47.97
4219 52.0900 2209.00 2267.29 47.00
4220 52.1000 2255.00 2266.36 47.49
4221 52.1100 2293.00 2265.64 47.89
4222 52.1200 2274.00 2265.06 47.69
4223 52.1300 2203.00 2263.48 46.94
4224 52.1400 2269.00 2263.14 47.63
4225 52.1500 2317.00 2262.86 48.14
4226 52.1600 2311.00 2262.65 48.07
4227 52.1700 2202.00 2262.49 46.93
4228 52.1800 2192.00 2262.39 46.82
4229 52.1900 2341.00 2262.33 48.38
4230 52.2000 2283.00 2262.31 47.78
4231 52.2100 2266.00 2262.32 47.60
4232 52.2200 2214.00 2264.57 47.05
4233 52.2300 2347.00 2264.71 48.45
4234 52.2400 2288.00 2264.88 47.83
4235 52.2500 2273.00 2265.09 47.68
4236 52.2600 2271.00 2265.32 47.65
4237 52.2700 2239.00 2265.60 47.32
4238 52.2800 2221.00 2265.90 47.13
4239 52.2900 2268.00 2266.23 47.62
4240 52.3000 2295.00 2266.60 47.91
4241 52.3100 2301.00 2267.01 47.97
4242 52.3200 2326.00 2267.44 48.23
4243 52.3300 2256.00 2267.92 47.50
4244 52.3400 2338.00 2268.44 48.35
4245 52.3500 2277.00 2268.99 47.72
4246 52.3600 2319.00 2269.60 48.16
4247 52.3700 2215.00 2270.25 47.06
4248 52.3800 2258.00 2270.96 47.52
4249 52.3900 2225.00 2271.72 47.17
4250 52.4000 2229.00 2272.55 47.21
4251 52.4100 2241.00 2273.45 47.34
4252 52.4200 2322.00 2274.44 48.19
4253 52.4300 2243.00 2275.52 47.36
4254 52.4400 2362.00 2276.72 48.60
4255 52.4500 2269.00 2278.36 47.63
4256 52.4600 2251.00 2279.90 47.44
4257 52.4700 2304.00 2281.70 48.00
4258 52.4800 2217.00 2283.89 47.08
4259 52.4900 2328.00 2286.62 48.25
4260 52.5000 2278.00 2289.91 47.73
4261 52.5100 2276.00 2294.54 47.71
4262 52.5200 2311.00 2300.66 48.07
4263 52.5300 2248.00 2308.67 47.41
4264 52.5400 2357.00 2318.88 48.55
4265 52.5500 2321.00 2331.46 48.18
4266 52.5600 2428.00 2346.30 49.27
4267 52.5700 2412.00 2362.85 49.11
4268 52.5800 2436.00 2380.05 49.36
4269 52.5900 2488.00 2396.36 49.88
4270 52.6000 2470.00 2409.19 49.70
4271 52.6100 2454.00 2416.40 49.54
4272 52.6200 2428.00 2416.53 49.27
4273 52.6300 2436.00 2411.37 49.36
4274 52.6400 2521.00 2402.76 50.21
4275 52.6500 2433.00 2393.53 49.33
4276 52.6600 2329.00 2385.65 48.26
4277 52.6700 2492.00 2380.58 49.92
4278 52.6800 2348.00 2379.18 48.46
4279 52.6900 2473.00 2381.87 49.73
4280 52.7000 2368.00 2388.60 48.66
4281 52.7100 2344.00 2399.04 48.41
4282 52.7200 2293.00 2412.57 47.89
4283 52.7300 2399.00 2428.44 48.98
4284 52.7400 2461.00 2445.94 49.61
4285 52.7500 2555.00 2464.89 50.55
4286 52.7600 2529.00 2486.24 50.29
4287 52.7700 2703.00 2513.73 51.99
4288 52.7800 2653.00 2552.64 51.51
4289 52.7900 2746.00 2610.30 52.40
4290 52.8000 2835.00 2695.34 53.24
4291 52.8100 2855.00 2817.07 53.43
4292 52.8200 3061.00 2984.07 55.33
4293 52.8300 3319.00 3202.21 57.61
4294 52.8400 3639.00 3472.32 60.32
4295 52.8500 3911.00 3786.98 62.54
4296 52.8600 4352.00 4128.97 65.97
4297 52.8700 4619.00 4467.00 67.96
4298 52.8800 4919.00 4755.47 70.14
4299 52.8900 5155.00 4939.16 71.80
4300 52.9000 5268.00 4974.58 72.58
4301 52.9100 5057.00 4855.92 71.11
4302 52.9200 4732.00 4620.74 68.79
4303 52.9300 4169.00 4326.58 64.57
4304 52.9400 4096.00 4027.52 64.00
4305 52.9500 3736.00 3763.19 61.12
4306 52.9600 3564.00 3559.34 59.70
4307 52.9700 3550.00 3428.72 59.58
4308 52.9800 3281.00 3373.64 57.28
4309 52.9900 3448.00 3386.67 58.72
4310 53.0000 3556.00 3452.18 59.63
4311 53.0100 3704.00 3547.24 60.86
4312 53.0200 3806.00 3642.60 61.69
4313 53.0300 3815.00 3703.70 61.77
4314 53.0400 3843.00 3702.69 61.99
4315 53.0500 3808.00 3629.59 61.71
4316 53.0600 3618.00 3496.97 60.15
4317 53.0700 3385.00 3329.94 58.18
4318 53.0800 3209.00 3153.01 56.65
4319 53.0900 3004.00 2984.04 54.81
4320 53.1000 2743.00 2834.36 52.37
4321 53.1100 2790.00 2709.35 52.82
4322 53.1200 2698.00 2610.28 51.94
4323 53.1300 2629.00 2535.16 51.27
4324 53.1400 2612.00 2480.52 51.11
4325 53.1500 2507.00 2442.21 50.07
4326 53.1600 2575.00 2416.64 50.74
4327 53.1700 2453.00 2400.34 49.53
4328 53.1800 2430.00 2391.42 49.29
4329 53.1900 2421.00 2388.62 49.20
4330 53.2000 2473.00 2391.25 49.73
4331 53.2100 2436.00 2398.89 49.36
4332 53.2200 2422.00 2411.06 49.21
4333 53.2300 2489.00 2426.93 49.89
4334 53.2400 2442.00 2445.11 49.42
4335 53.2500 2530.00 2463.32 50.30
4336 53.2600 2415.00 2478.40 49.14
4337 53.2700 2454.00 2486.67 49.54
4338 53.2800 2347.00 2485.33 48.45
4339 53.2900 2444.00 2474.18 49.44
4340 53.3000 2544.00 2455.78 50.44
4341 53.3100 2453.00 2433.91 49.53
4342 53.3200 2429.00 2412.05 49.28
4343 53.3300 2375.00 2392.75 48.73
4344 53.3400 2328.00 2377.65 48.25
4345 53.3500 2376.00 2367.55 48.74
4346 53.3600 2274.00 2362.58 47.69
4347 53.3700 2342.00 2362.24 48.39
4348 53.3800 2402.00 2365.49 49.01
4349 53.3900 2407.00 2370.82 49.06
4350 53.4000 2329.00 2376.28 48.26
4351 53.4100 2345.00 2379.66 48.43
4352 53.4200 2405.00 2379.08 49.04
4353 53.4300 2284.00 2373.61 47.79
4354 53.4400 2353.00 2364.43 48.51
4355 53.4500 2382.00 2352.95 48.81
4356 53.4600 2273.00 2340.83 47.68
4357 53.4700 2321.00 2329.28 48.18
4358 53.4800 2227.00 2319.07 47.19
4359 53.4900 2324.00 2310.57 48.21
4360 53.5000 2295.00 2303.87 47.91
4361 53.5100 2257.00 2298.81 47.51
4362 53.5200 2364.00 2295.08 48.62
4363 53.5300 2286.00 2292.35 47.81
4364 53.5400 2237.00 2290.25 47.30
4365 53.5500 2329.00 2288.54 48.26
4366 53.5600 2309.00 2287.09 48.05
4367 53.5700 2277.00 2285.85 47.72
4368 53.5800 2188.00 2284.71 46.78
4369 53.5900 2332.00 2283.86 48.29
4370 53.6000 2353.00 2283.24 48.51
4371 53.6100 2381.00 2282.83 48.80
4372 53.6200 2305.00 2282.64 48.01
4373 53.6300 2302.00 2282.66 47.98
4374 53.6400 2360.00 2282.88 48.58
4375 53.6500 2237.00 2283.27 47.30
4376 53.6600 2316.00 2283.82 48.12
4377 53.6700 2279.00 2284.51 47.74
4378 53.6800 2238.00 2285.33 47.31
4379 53.6900 2290.00 2286.33 47.85
4380 53.7000 2300.00 2287.67 47.96
4381 53.7100 2240.00 2289.50 47.33
4382 53.7200 2364.00 2287.80 48.62
4383 53.7300 2219.00 2291.88 47.11
4384 53.7400 2273.00 2297.88 47.68
4385 53.7500 2256.00 2306.53 47.50
4386 53.7600 2284.00 2318.66 47.79
4387 53.7700 2383.00 2335.07 48.82
4388 53.7800 2366.00 2356.31 48.64
4389 53.7900 2461.00 2382.50 49.61
4390 53.8000 2377.00 2413.01 48.75
4391 53.8100 2363.00 2446.32 48.61
4392 53.8200 2406.00 2479.63 49.05
4393 53.8300 2521.00 2508.79 50.21
4394 53.8400 2494.00 2528.73 49.94
4395 53.8500 2499.00 2534.84 49.99
4396 53.8600 2400.00 2525.91 48.99
4397 53.8700 2521.00 2502.67 50.21
4398 53.8800 2411.00 2474.69 49.10
4399 53.8900 2329.00 2445.13 48.26
4400 53.9000 2475.00 2418.07 49.75
4401 53.9100 2422.00 2396.29 49.21
4402 53.9200 2337.00 2381.31 48.34
4403 53.9300 2325.00 2373.64 48.22
4404 53.9400 2349.00 2372.86 48.47
4405 53.9500 2421.00 2377.76 49.20
4406 53.9600 2416.00 2386.42 49.15
4407 53.9700 2403.00 2396.29 49.02
4408 53.9800 2398.00 2404.28 48.97
4409 53.9900 2408.00 2407.35 49.07
4410 54.0000 2378.00 2403.64 48.76
4411 54.0100 2402.00 2393.38 49.01
4412 54.0200 2348.00 2378.52 48.46
4413 54.0300 2399.00 2361.53 48.98
4414 54.0400 2287.00 2344.46 47.82
4415 54.0500 2371.00 2330.03 48.69
4416 54.0600 2310.00 2316.44 48.06
4417 54.0700 2289.00 2305.31 47.84
4418 54.0800 2340.00 2296.61 48.37
4419 54.0900 2285.00 2290.07 47.80
4420 54.1000 2295.00 2285.31 47.91
4421 54.1100 2367.00 2281.62 48.65
4422 54.1200 2325.00 2279.22 48.22
4423 54.1300 2284.00 2277.51 47.79
4424 54.1400 2262.00 2276.26 47.56
4425 54.1500 2292.00 2275.33 47.87
4426 54.1600 2256.00 2274.61 47.50
4427 54.1700 2152.00 2274.04 46.39
4428 54.1800 2357.00 2273.57 48.55
4429 54.1900 2274.00 2273.19 47.69
4430 54.2000 2244.00 2273.53 47.37
4431 54.2100 2363.00 2273.28 48.61
4432 54.2200 2264.00 2273.09 47.58
4433 54.2300 2282.00 2272.93 47.77
4434 54.2400 2237.00 2272.82 47.30
4435 54.2500 2226.00 2272.60 47.18
4436 54.2600 2259.00 2272.77 47.53
4437 54.2700 2233.00 2272.76 47.25
4438 54.2800 2217.00 2272.78 47.08
4439 54.2900 2264.00 2272.82 47.58
4440 54.3000 2278.00 2272.89 47.73
4441 54.3100 2303.00 2272.99 47.99
4442 54.3200 2300.00 2273.11 47.96
4443 54.3300 2184.00 2273.25 46.73
4444 54.3400 2241.00 2273.43 47.34
4445 54.3500 2269.00 2273.63 47.63
4446 54.3600 2282.00 2273.86 47.77
4447 54.3700 2231.00 2274.13 47.23
4448 54.3800 2229.00 2274.44 47.21
4449 54.3900 2220.00 2274.81 47.12
4450 54.4000 2198.00 2275.26 46.88
4451 54.4100 2295.00 2275.93 47.91
4452 54.4200 2243.00 2276.66 47.36
4453 54.4300 2213.00 2277.61 47.04
4454 54.4400 2325.00 2278.86 48.22
4455 54.4500 2263.00 2280.53 47.57
4456 54.4600 2327.00 2282.70 48.24
4457 54.4700 2282.00 2285.48 47.77
4458 54.4800 2227.00 2288.88 47.19
4459 54.4900 2312.00 2292.91 48.08
4460 54.5000 2234.00 2297.42 47.27
4461 54.5100 2371.00 2302.16 48.69
4462 54.5200 2294.00 2306.69 47.90
4463 54.5300 2344.00 2310.49 48.41
4464 54.5400 2344.00 2312.97 48.41
4465 54.5500 2315.00 2313.78 48.11
4466 54.5600 2268.00 2312.92 47.62
4467 54.5700 2293.00 2310.74 47.89
4468 54.5800 2244.00 2307.86 47.37
4469 54.5900 2248.00 2304.91 47.41
4470 54.6000 2291.00 2302.37 47.86
4471 54.6100 2302.00 2300.59 47.98
4472 54.6200 2283.00 2299.76 47.78
4473 54.6300 2242.00 2299.95 47.35
4474 54.6400 2262.00 2301.11 47.56
4475 54.6500 2273.00 2303.07 47.68
4476 54.6600 2309.00 2305.62 48.05
4477 54.6700 2326.00 2308.43 48.23
4478 54.6800 2359.00 2311.16 48.57
4479 54.6900 2356.00 2313.12 48.54
4480 54.7000 2377.00 2315.01 48.75
4481 54.7100 2362.00 2316.51 48.60
4482 54.7200 2343.00 2317.93 48.40
4483 54.7300 2319.00 2319.71 48.16
4484 54.7400 2402.00 2322.40 49.01
4485 54.7500 2408.00 2326.66 49.07
4486 54.7600 2359.00 2333.34 48.57
4487 54.7700 2367.00 2343.58 48.65
4488 54.7800 2270.00 2358.90 47.64
4489 54.7900 2365.00 2381.29 48.63
4490 54.8000 2390.00 2413.02 48.89
4491 54.8100 2477.00 2457.77 49.77
4492 54.8200 2606.00 2515.00 51.05
4493 54.8300 2477.00 2586.81 49.77
4494 54.8400 2654.00 2673.01 51.52
4495 54.8500 2706.00 2770.31 52.02
4496 54.8600 2841.00 2872.63 53.30
4497 54.8700 2943.00 2970.11 54.25
4498 54.8800 2971.00 3049.12 54.51
4499 54.8900 2984.00 3094.54 54.63
4500 54.9000 2960.00 3096.17 54.41
4501 54.9100 3018.00 3054.91 54.94
4502 54.9200 2891.00 2982.51 53.77
4503 54.9300 2785.00 2895.05 52.77
4504 54.9400 2800.00 2807.16 52.92
4505 54.9500 2632.00 2729.54 51.30
4506 54.9600 2587.00 2670.30 50.86
4507 54.9700 2692.00 2631.40 51.88
4508 54.9800 2570.00 2614.75 50.70
4509 54.9900 2574.00 2618.86 50.73
4510 55.0000 2619.00 2640.12 51.18
4511 55.0100 2603.00 2673.04 51.02
4512 55.0200 2636.00 2710.40 51.34
4513 55.0300 2609.00 2743.46 51.08
4514 55.0400 2648.00 2763.71 51.46
4515 55.0500 2719.00 2765.95 52.14
4516 55.0600 2675.00 2750.64 51.72
4517 55.0700 2692.00 2722.63 51.88
4518 55.0800 2582.00 2687.53 50.81
4519 55.0900 2584.00 2649.15 50.83
4520 55.1000 2532.00 2609.18 50.32
4521 55.1100 2540.00 2568.29 50.40
4522 55.1200 2570.00 2527.57 50.70
4523 55.1300 2433.00 2488.82 49.33
4524 55.1400 2462.00 2453.95 49.62
4525 55.1500 2440.00 2424.25 49.40
4526 55.1600 2372.00 2400.34 48.70
4527 55.1700 2298.00 2382.28 47.94
4528 55.1800 2392.00 2369.80 48.91
4529 55.1900 2412.00 2362.38 49.11
4530 55.2000 2321.00 2359.30 48.18
4531 55.2100 2450.00 2359.61 49.50
4532 55.2200 2398.00 2362.18 48.97
4533 55.2300 2357.00 2365.67 48.55
4534 55.2400 2329.00 2368.53 48.26
4535 55.2500 2295.00 2369.26 47.91
4536 55.2600 2374.00 2366.89 48.72
4537 55.2700 2450.00 2361.41 49.50
4538 55.2800 2294.00 2353.70 47.90
4539 55.2900 2350.00 2344.91 48.48
4540 55.3000 2370.00 2336.06 48.68
4541 55.3100 2293.00 2327.86 47.89
4542 55.3200 2368.00 2320.76 48.66
4543 55.3300 2286.00 2314.94 47.81
4544 55.3400 2342.00 2310.42 48.39
4545 55.3500 2262.00 2307.10 47.56
4546 55.3600 2321.00 2304.81 48.18
4547 55.3700 2232.00 2303.35 47.24
4548 55.3800 2330.00 2302.52 48.27
4549 55.3900 2286.00 2302.21 47.81
4550 55.4000 2265.00 2302.27 47.59
4551 55.4100 2369.00 2302.68 48.67
4552 55.4200 2305.00 2303.37 48.01
4553 55.4300 2279.00 2304.32 47.74
4554 55.4400 2262.00 2305.54 47.56
4555 55.4500 2357.00 2307.03 48.55
4556 55.4600 2340.00 2308.85 48.37
4557 55.4700 2376.00 2311.03 48.74
4558 55.4800 2277.00 2313.66 47.72
4559 55.4900 2288.00 2316.88 47.83
4560 55.5000 2393.00 2320.87 48.92
4561 55.5100 2309.00 2325.99 48.05
4562 55.5200 2414.00 2332.79 49.13
4563 55.5300 2349.00 2342.07 48.47
4564 55.5400 2376.00 2355.10 48.74
4565 55.5500 2423.00 2373.55 49.22
4566 55.5600 2442.00 2399.62 49.42
4567 55.5700 2483.00 2435.77 49.83
4568 55.5800 2585.00 2484.53 50.84
4569 55.5900 2581.00 2548.00 50.80
4570 55.6000 2663.00 2627.06 51.60
4571 55.6100 2911.00 2720.86 53.95
4572 55.6200 2828.00 2825.84 53.18
4573 55.6300 3035.00 2935.43 55.09
4574 55.6400 3004.00 3038.86 54.81
4575 55.6500 3182.00 3121.69 56.41
4576 55.6600 3081.00 3168.25 55.51
4577 55.6700 3226.00 3168.31 56.80
4578 55.6800 3054.00 3123.06 55.26
4579 55.6900 3055.00 3044.82 55.27
4580 55.7000 2866.00 2950.31 53.53
4581 55.7100 2749.00 2854.75 52.43
4582 55.7200 2718.00 2769.52 52.13
4583 55.7300 2639.00 2702.23 51.37
4584 55.7400 2523.00 2656.89 50.23
4585 55.7500 2586.00 2633.36 50.85
4586 55.7600 2579.00 2632.64 50.78
4587 55.7700 2679.00 2649.58 51.76
4588 55.7800 2713.00 2678.30 52.09
4589 55.7900 2697.00 2711.11 51.93
4590 55.8000 2832.00 2738.73 53.22
4591 55.8100 2647.00 2751.83 51.45
4592 55.8200 2749.00 2744.04 52.43
4593 55.8300 2761.00 2714.93 52.55
4594 55.8400 2650.00 2669.65 51.48
4595 55.8500 2593.00 2615.72 50.92
4596 55.8600 2531.00 2559.82 50.31
4597 55.8700 2464.00 2506.90 49.64
4598 55.8800 2449.00 2459.97 49.49
4599 55.8900 2374.00 2420.57 48.72
4600 55.9000 2371.00 2388.32 48.69
4601 55.9100 2422.00 2363.97 49.21
4602 55.9200 2384.00 2345.80 48.83
4603 55.9300 2301.00 2332.55 47.97
4604 55.9400 2284.00 2322.99 47.79
4605 55.9500 2296.00 2317.12 47.92
4606 55.9600 2221.00 2311.85 47.13
4607 55.9700 2329.00 2308.02 48.26
4608 55.9800 2286.00 2305.03 47.81
4609 55.9900 2380.00 2302.60 48.79
4610 56.0000 2277.00 2300.58 47.72
4611 56.0100 2317.00 2298.85 48.14
4612 56.0200 2380.00 2297.35 48.79
4613 56.0300 2305.00 2296.04 48.01
4614 56.0400 2293.00 2294.88 47.89
4615 56.0500 2350.00 2293.86 48.48
4616 56.0600 2359.00 2292.95 48.57
4617 56.0700 2340.00 2292.14 48.37
4618 56.0800 2225.00 2291.41 47.17
4619 56.0900 2264.00 2290.76 47.58
4620 56.1000 2267.00 2290.69 47.61
4621 56.1100 2240.00 2290.07 47.33
4622 56.1200 2256.00 2289.62 47.50
4623 56.1300 2240.00 2289.21 47.33
4624 56.1400 2341.00 2288.85 48.38
4625 56.1500 2223.00 2288.53 47.15
4626 56.1600 2249.00 2288.24 47.42
4627 56.1700 2205.00 2287.99 46.96
4628 56.1800 2372.00 2287.77 48.70
4629 56.1900 2298.00 2287.58 47.94
4630 56.2000 2241.00 2287.41 47.34
4631 56.2100 2302.00 2287.27 47.98
4632 56.2200 2235.00 2287.16 47.28
4633 56.2300 2281.00 2287.07 47.76
4634 56.2400 2368.00 2287.00 48.66
4635 56.2500 2234.00 2286.95 47.27
4636 56.2600 2172.00 2286.93 46.60
4637 56.2700 2308.00 2286.92 48.04
4638 56.2800 2313.00 2286.94 48.09
4639 56.2900 2331.00 2286.99 48.28
4640 56.3000 2333.00 2287.21 48.30
4641 56.3100 2257.00 2287.32 47.51
4642 56.3200 2204.00 2287.48 46.95
4643 56.3300 2262.00 2287.71 47.56
4644 56.3400 2238.00 2288.01 47.31
4645 56.3500 2257.00 2288.41 47.51
4646 56.3600 2326.00 2288.92 48.23
4647 56.3700 2298.00 2289.57 47.94
4648 56.3800 2273.00 2290.36 47.68
4649 56.3900 2320.00 2291.29 48.17
4650 56.4000 2217.00 2292.32 47.08
4651 56.4100 2283.00 2293.42 47.78
4652 56.4200 2268.00 2294.49 47.62
4653 56.4300 2259.00 2295.44 47.53
4654 56.4400 2262.00 2296.14 47.56
4655 56.4500 2304.00 2296.56 48.00
4656 56.4600 2346.00 2296.60 48.44
4657 56.4700 2356.00 2296.39 48.54
4658 56.4800 2242.00 2296.07 47.35
4659 56.4900 2356.00 2295.78 48.54
4660 56.5000 2239.00 2295.60 47.32
4661 56.5100 2278.00 2295.60 47.73
4662 56.5200 2279.00 2295.83 47.74
4663 56.5300 2248.00 2294.92 47.41
4664 56.5400 2271.00 2295.66 47.65
4665 56.5500 2289.00 2296.64 47.84
4666 56.5600 2303.00 2298.03 47.99
4667 56.5700 2309.00 2299.36 48.05
4668 56.5800 2317.00 2300.79 48.14
4669 56.5900 2323.00 2302.27 48.20
4670 56.6000 2245.00 2303.77 47.38
4671 56.6100 2357.00 2305.29 48.55
4672 56.6200 2298.00 2306.91 47.94
4673 56.6300 2226.00 2308.75 47.18
4674 56.6400 2369.00 2310.96 48.67
4675 56.6500 2346.00 2313.76 48.44
4676 56.6600 2324.00 2317.43 48.21
4677 56.6700 2363.00 2322.41 48.61
4678 56.6800 2381.00 2328.62 48.80
4679 56.6900 2347.00 2338.37 48.45
4680 56.7000 2357.00 2352.18 48.55
4681 56.7100 2377.00 2371.57 48.75
4682 56.7200 2263.00 2398.41 47.57
4683 56.7300 2449.00 2434.24 49.49
4684 56.7400 2482.00 2480.60 49.82
4685 56.7500 2525.00 2538.07 50.25
4686 56.7600 2575.00 2606.00 50.74
4687 56.7700 2622.00 2682.03 51.21
4688 56.7800 2774.00 2761.46 52.67
4689 56.7900 2869.00 2837.02 53.56
4690 56.8000 2924.00 2898.69 54.07
4691 56.8100 3012.00 2935.56 54.88
4692 56.8200 2993.00 2939.75 54.71
4693 56.8300 2962.00 2911.10 54.42
4694 56.8400 2856.00 2857.32 53.44
4695 56.8500 2953.00 2790.01 54.34
4696 56.8600 2751.00 2720.09 52.45
4697 56.8700 2625.00 2656.11 51.23
4698 56.8800 2550.00 2603.81 50.50
4699 56.8900 2481.00 2566.65 49.81
4700 56.9000 2490.00 2545.92 49.90
4701 56.9100 2446.00 2541.04 49.46
4702 56.9200 2547.00 2549.82 50.47
4703 56.9300 2535.00 2568.65 50.35
4704 56.9400 2617.00 2592.66 51.16
4705 56.9500 2630.00 2615.81 51.28
4706 56.9600 2632.00 2631.46 51.30
4707 56.9700 2751.00 2633.89 52.45
4708 56.9800 2691.00 2620.71 51.87
4709 56.9900 2602.00 2593.82 51.01
4710 57.0000 2466.00 2557.99 49.66
4711 57.0100 2546.00 2519.48 50.46
4712 57.0200 2507.00 2480.36 50.07
4713 57.0300 2324.00 2444.64 48.21
4714 57.0400 2445.00 2414.03 49.45
4715 57.0500 2437.00 2389.41 49.37
4716 57.0600 2367.00 2370.89 48.65
4717 57.0700 2360.00 2358.19 48.58
4718 57.0800 2367.00 2350.70 48.65
4719 57.0900 2380.00 2347.74 48.79
4720 57.1000 2383.00 2348.63 48.82
4721 57.1100 2362.00 2352.67 48.60
4722 57.1200 2409.00 2359.10 49.08
4723 57.1300 2400.00 2367.09 48.99
4724 57.1400 2338.00 2375.57 48.35
4725 57.1500 2394.00 2383.22 48.93
4726 57.1600 2295.00 2388.51 47.91
4727 57.1700 2510.00 2390.62 50.10
4728 57.1800 2393.00 2387.91 48.92
4729 57.1900 2382.00 2381.48 48.81
4730 57.2000 2313.00 2372.65 48.09
4731 57.2100 2333.00 2362.95 48.30
4732 57.2200 2311.00 2353.65 48.07
4733 57.2300 2296.00 2345.67 47.92
4734 57.2400 2376.00 2339.60 48.74
4735 57.2500 2394.00 2335.75 48.93
4736 57.2600 2373.00 2334.18 48.71
4737 57.2700 2385.00 2334.74 48.84
4738 57.2800 2304.00 2337.08 48.00
4739 57.2900 2330.00 2340.74 48.27
4740 57.3000 2313.00 2345.09 48.09
4741 57.3100 2388.00 2349.48 48.87
4742 57.3200 2249.00 2353.26 47.42
4743 57.3300 2329.00 2356.16 48.26
4744 57.3400 2302.00 2358.45 47.98
4745 57.3500 2335.00 2360.94 48.32
4746 57.3600 2386.00 2364.64 48.85
4747 57.3700 2371.00 2370.36 48.69
4748 57.3800 2301.00 2378.57 47.97
4749 57.3900 2275.00 2389.21 47.70
4750 57.4000 2376.00 2401.71 48.74
4751 57.4100 2372.00 2414.83 48.70
4752 57.4200 2443.00 2426.70 49.43
4753 57.4300 2333.00 2435.03 48.30
4754 57.4400 2397.00 2437.69 48.96
4755 57.4500 2427.00 2433.97 49.26
4756 57.4600 2271.00 2424.28 47.65
4757 57.4700 2354.00 2410.87 48.52
4758 57.4800 2407.00 2396.05 49.06
4759 57.4900 2353.00 2381.76 48.51
4760 57.5000 2266.00 2369.45 47.60
4761 57.5100 2312.00 2360.02 48.08
4762 57.5200 2330.00 2353.94 48.27
4763 57.5300 2368.00 2351.31 48.66
4764 57.5400 2357.00 2351.83 48.55
4765 57.5500 2340.00 2354.93 48.37
4766 57.5600 2379.00 2359.76 48.78
4767 57.5700 2311.00 2365.24 48.07
4768 57.5800 2350.00 2370.07 48.48
4769 57.5900 2335.00 2372.91 48.32
4770 57.6000 2284.00 2372.80 47.79
4771 57.6100 2435.00 2369.67 49.35
4772 57.6200 2336.00 2363.98 48.33
4773 57.6300 2359.00 2356.87 48.57
4774 57.6400 2299.00 2349.38 47.95
4775 57.6500 2316.00 2342.27 48.12
4776 57.6600 2280.00 2336.07 47.75
4777 57.6700 2315.00 2331.07 48.11
4778 57.6800 2287.00 2327.40 47.82
4779 57.6900 2329.00 2324.04 48.26
4780 57.7000 2301.00 2322.94 47.97
4781 57.7100 2301.00 2322.98 47.97
4782 57.7200 2438.00 2324.09 49.38
4783 57.7300 2302.00 2326.25 47.98
4784 57.7400 2370.00 2329.64 48.68
4785 57.7500 2298.00 2334.57 47.94
4786 57.7600 2363.00 2341.62 48.61
4787 57.7700 2420.00 2351.68 49.19
4788 57.7800 2377.00 2365.97 48.75
4789 57.7900 2391.00 2386.06 48.90
4790 57.8000 2502.00 2413.72 50.02
4791 57.8100 2497.00 2450.76 49.97
4792 57.8200 2487.00 2498.62 49.87
4793 57.8300 2654.00 2557.97 51.52
4794 57.8400 2569.00 2628.25 50.69
4795 57.8500 2748.00 2706.67 52.42
4796 57.8600 2845.00 2789.81 53.34
4797 57.8700 2864.00 2869.96 53.52
4798 57.8800 2988.00 2937.41 54.66
4799 57.8900 3046.00 2981.01 55.19
4800 57.9000 3059.00 2992.42 55.31
4801 57.9100 3015.00 2968.83 54.91
4802 57.9200 2978.00 2917.33 54.57
4803 57.9300 2811.00 2848.83 53.02
4804 57.9400 2765.00 2774.99 52.58
4805 57.9500 2754.00 2705.07 52.48
4806 57.9600 2645.00 2645.82 51.43
4807 57.9700 2561.00 2601.26 50.61
4808 57.9800 2572.00 2573.48 50.71
4809 57.9900 2570.00 2562.49 50.70
4810 58.0000 2603.00 2566.62 51.02
4811 58.0100 2633.00 2582.76 51.31
4812 58.0200 2567.00 2606.51 50.67
4813 58.0300 2666.00 2632.29 51.63
4814 58.0400 2752.00 2653.57 52.46
4815 58.0500 2698.00 2663.73 51.94
4816 58.0600 2737.00 2658.62 52.32
4817 58.0700 2770.00 2637.77 52.63
4818 58.0800 2629.00 2604.65 51.27
4819 58.0900 2598.00 2564.50 50.97
4820 58.1000 2557.00 2522.31 50.57
4821 58.1100 2546.00 2481.75 50.46
4822 58.1200 2433.00 2445.24 49.33
4823 58.1300 2399.00 2414.11 48.98
4824 58.1400 2347.00 2388.78 48.45
4825 58.1500 2511.00 2369.02 50.11
4826 58.1600 2537.00 2354.19 50.37
4827 58.1700 2270.00 2343.43 47.64
4828 58.1800 2287.00 2335.87 47.82
4829 58.1900 2348.00 2330.76 48.46
4830 58.2000 2342.00 2327.54 48.39
4831 58.2100 2296.00 2325.80 47.92
4832 58.2200 2326.00 2325.52 48.23
4833 58.2300 2328.00 2326.67 48.25
4834 58.2400 2391.00 2329.40 48.90
4835 58.2500 2411.00 2333.95 49.10
4836 58.2600 2335.00 2340.53 48.32
4837 58.2700 2289.00 2349.31 47.84
4838 58.2800 2460.00 2360.24 49.60
4839 58.2900 2328.00 2373.05 48.25
4840 58.3000 2388.00 2387.08 48.87
4841 58.3100 2406.00 2401.31 49.05
4842 58.3200 2330.00 2414.17 48.27
4843 58.3300 2336.00 2423.55 48.33
4844 58.3400 2402.00 2428.02 49.01
4845 58.3500 2383.00 2426.37 48.82
4846 58.3600 2346.00 2419.07 48.44
4847 58.3700 2343.00 2407.82 48.40
4848 58.3800 2358.00 2394.70 48.56
4849 58.3900 2358.00 2381.56 48.56
4850 58.4000 2481.00 2369.80 49.81
4851 58.4100 2476.00 2360.41 49.76
4852 58.4200 2297.00 2353.91 47.93
4853 58.4300 2231.00 2350.49 47.23
4854 58.4400 2423.00 2350.04 49.22
4855 58.4500 2314.00 2352.15 48.10
4856 58.4600 2301.00 2356.17 47.97
4857 58.4700 2374.00 2361.47 48.72
4858 58.4800 2340.00 2366.64 48.37
4859 58.4900 2421.00 2370.62 49.20
4860 58.5000 2294.00 2372.66 47.90
4861 58.5100 2312.00 2372.25 48.08
4862 58.5200 2408.00 2369.80 49.07
4863 58.5300 2333.00 2366.38 48.30
4864 58.5400 2397.00 2363.31 48.96
4865 58.5500 2439.00 2361.86 49.39
4866 58.5600 2372.00 2363.16 48.70
4867 58.5700 2354.00 2368.15 48.52
4868 58.5800 2347.00 2377.49 48.45
4869 58.5900 2378.00 2391.50 48.76
4870 58.6000 2421.00 2410.04 49.20
4871 58.6100 2473.00 2432.42 49.73
4872 58.6200 2476.00 2457.24 49.76
4873 58.6300 2577.00 2482.49 50.76
4874 58.6400 2633.00 2504.98 51.31
4875 58.6500 2558.00 2521.36 50.58
4876 58.6600 2603.00 2528.33 51.02
4877 58.6700 2594.00 2524.37 50.93
4878 58.6800 2556.00 2510.46 50.56
4879 58.6900 2379.00 2489.68 48.78
4880 58.7000 2496.00 2465.75 49.96
4881 58.7100 2582.00 2441.91 50.81
4882 58.7200 2333.00 2420.63 48.30
4883 58.7300 2454.00 2403.58 49.54
4884 58.7400 2324.00 2391.67 48.21
4885 58.7500 2253.00 2385.24 47.47
4886 58.7600 2422.00 2383.99 49.21
4887 58.7700 2383.00 2387.18 48.82
4888 58.7800 2463.00 2393.62 49.63
4889 58.7900 2441.00 2400.68 49.41
4890 58.8000 2414.00 2408.62 49.13
4891 58.8100 2352.00 2414.26 48.50
4892 58.8200 2438.00 2415.75 49.38
4893 58.8300 2478.00 2412.12 49.78
4894 58.8400 2443.00 2403.75 49.43
4895 58.8500 2341.00 2392.32 48.38
4896 58.8600 2458.00 2378.86 49.58
4897 58.8700 2352.00 2365.16 48.50
4898 58.8800 2383.00 2352.23 48.82
4899 58.8900 2370.00 2340.74 48.68
4900 58.9000 2366.00 2331.03 48.64
4901 58.9100 2316.00 2323.17 48.12
4902 58.9200 2287.00 2317.04 47.82
4903 58.9300 2315.00 2312.41 48.11
4904 58.9400 2396.00 2309.01 48.95
4905 58.9500 2226.00 2306.02 47.18
4906 58.9600 2346.00 2304.25 48.44
4907 58.9700 2313.00 2302.97 48.09
4908 58.9800 2353.00 2302.02 48.51
4909 58.9900 2295.00 2301.30 47.91
4910 59.0000 2254.00 2300.74 47.48
4911 59.0100 2356.00 2300.44 48.54
4912 59.0200 2276.00 2300.07 47.71
4913 59.0300 2336.00 2299.78 48.33
4914 59.0400 2263.00 2299.53 47.57
4915 59.0500 2341.00 2299.34 48.38
4916 59.0600 2243.00 2299.19 47.36
4917 59.0700 2303.00 2299.08 47.99
4918 59.0800 2267.00 2299.01 47.61
4919 59.0900 2343.00 2298.98 48.40
4920 59.1000 2304.00 2298.99 48.00
4921 59.1100 2301.00 2299.02 47.97
4922 59.1200 2305.00 2299.10 48.01
4923 59.1300 2350.00 2299.21 48.48
4924 59.1400 2268.00 2299.36 47.62
4925 59.1500 2326.00 2299.55 48.23
4926 59.1600 2310.00 2299.79 48.06
4927 59.1700 2296.00 2300.08 47.92
4928 59.1800 2306.00 2300.44 48.02
4929 59.1900 2249.00 2300.88 47.42
4930 59.2000 2277.00 2302.60 47.72
4931 59.2100 2324.00 2303.34 48.21
4932 59.2200 2308.00 2304.31 48.04
4933 59.2300 2294.00 2305.62 47.90
4934 59.2400 2332.00 2307.23 48.29
4935 59.2500 2403.00 2309.73 49.02
4936 59.2600 2281.00 2313.19 47.76
4937 59.2700 2317.00 2317.90 48.14
4938 59.2800 2443.00 2324.14 49.43
4939 59.2900 2223.00 2332.17 47.15
4940 59.3000 2276.00 2342.12 47.71
4941 59.3100 2371.00 2353.92 48.69
4942 59.3200 2343.00 2367.24 48.40
4943 59.3300 2312.00 2381.43 48.08
4944 59.3400 2436.00 2395.43 49.36
4945 59.3500 2269.00 2407.74 47.63
4946 59.3600 2405.00 2416.58 49.04
4947 59.3700 2395.00 2420.92 48.94
4948 59.3800 2439.00 2418.90 49.39
4949 59.3900 2394.00 2411.75 48.93
4950 59.4000 2340.00 2400.99 48.37
4951 59.4100 2352.00 2388.73 48.50
4952 59.4200 2287.00 2376.54 47.82
4953 59.4300 2277.00 2365.67 47.72
4954 59.4400 2283.00 2357.00 47.78
4955 59.4500 2420.00 2351.00 49.19
4956 59.4600 2314.00 2347.85 48.10
4957 59.4700 2383.00 2347.43 48.82
4958 59.4800 2345.00 2350.66 48.43
4959 59.4900 2418.00 2354.41 49.17
4960 59.5000 2289.00 2359.18 47.84
4961 59.5100 2389.00 2364.01 48.88
4962 59.5200 2253.00 2367.83 47.47
4963 59.5300 2285.00 2369.66 47.80
4964 59.5400 2343.00 2368.91 48.40
4965 59.5500 2362.00 2365.66 48.60
4966 59.5600 2344.00 2360.60 48.41
4967 59.5700 2375.00 2354.28 48.73
4968 59.5800 2224.00 2348.18 47.16
4969 59.5900 2327.00 2342.60 48.24
4970 59.6000 2363.00 2338.04 48.61
4971 59.6100 2303.00 2334.83 47.99
4972 59.6200 2401.00 2333.28 49.00
4973 59.6300 2361.00 2333.66 48.59
4974 59.6400 2366.00 2336.86 48.64
4975 59.6500 2331.00 2341.97 48.28
4976 59.6600 2384.00 2349.95 48.83
4977 59.6700 2498.00 2361.12 49.98
4978 59.6800 2464.00 2375.68 49.64
4979 59.6900 2428.00 2393.60 49.27
4980 59.7000 2325.00 2414.48 48.22
4981 59.7100 2384.00 2437.47 48.83
4982 59.7200 2441.00 2461.12 49.41
4983 59.7300 2472.00 2483.13 49.72
4984 59.7400 2588.00 2501.06 50.87
4985 59.7500 2439.00 2511.83 49.39
4986 59.7600 2427.00 2513.41 49.26
4987 59.7700 2428.00 2505.72 49.27
4988 59.7800 2500.00 2490.85 50.00
4989 59.7900 2485.00 2471.69 49.85
4990 59.8000 2451.00 2451.35 49.51
4991 59.8100 2412.00 2432.24 49.11
4992 59.8200 2520.00 2416.12 50.20
4993 59.8300 2314.00 2404.10 48.10
4994 59.8400 2344.00 2396.76 48.41
4995 59.8500 2464.00 2394.16 49.64
4996 59.8600 2477.00 2395.93 49.77
4997 59.8700 2381.00 2401.33 48.80
4998 59.8800 2421.00 2409.29 49.20
4999 59.8900 2514.00 2418.42 50.14
5000 59.9000 2394.00 2427.11 48.93
5001 59.9100 2395.00 2433.62 48.94
5002 59.9200 2431.00 2436.56 49.31
5003 59.9300 2402.00 2435.45 49.01
5004 59.9400 2477.00 2430.97 49.77
5005 59.9500 2473.00 2424.60 49.73
5006 59.9600 2491.00 2418.02 49.91
5007 59.9700 2521.00 2412.93 50.21
5008 59.9800 2405.00 2410.91 49.04
5009 59.9900 2465.00 2413.52 49.65
5010 60.0000 2516.00 2422.38 50.16
5011 60.0100 2548.00 2439.18 50.48
5012 60.0200 2553.00 2465.70 50.53
5013 60.0300 2515.00 2503.51 50.15
5014 60.0400 2622.00 2553.78 51.21
5015 60.0500 2621.00 2616.91 51.20
5016 60.0600 2699.00 2692.04 51.95
5017 60.0700 2872.00 2776.66 53.59
5018 60.0800 2880.00 2866.20 53.67
5019 60.0900 2977.00 2953.62 54.56
5020 60.1000 3154.00 3029.34 56.16
5021 60.1100 3157.00 3082.19 56.19
5022 60.1200 3193.00 3102.48 56.51
5023 60.1300 3085.00 3086.61 55.54
5024 60.1400 3039.00 3039.11 55.13
5025 60.1500 2877.00 2970.36 53.64
5026 60.1600 2855.00 2892.17 53.43
5027 60.1700 2769.00 2814.80 52.62
5028 60.1800 2693.00 2746.00 51.89
5029 60.1900 2641.00 2691.11 51.39
5030 60.2000 2719.00 2653.24 52.14
5031 60.2100 2715.00 2633.60 52.11
5032 60.2200 2672.00 2631.67 51.69
5033 60.2300 2618.00 2645.54 51.17
5034 60.2400 2648.00 2672.15 51.46
5035 60.2500 2759.00 2707.42 52.53
5036 60.2600 2887.00 2746.51 53.73
5037 60.2700 2902.00 2784.11 53.87
5038 60.2800 2932.00 2815.47 54.15
5039 60.2900 2842.00 2838.13 53.31
5040 60.3000 2949.00 2854.25 54.30
5041 60.3100 2908.00 2868.93 53.93
5042 60.3200 2915.00 2888.58 53.99
5043 60.3300 2852.00 2918.27 53.40
5044 60.3400 2970.00 2960.44 54.50
5045 60.3500 3166.00 3014.15 56.27
5046 60.3600 3332.00 3075.16 57.72
5047 60.3700 3387.00 3135.31 58.20
5048 60.3800 3381.00 3183.39 58.15
5049 60.3900 3385.00 3207.16 58.18
5050 60.4000 3401.00 3197.77 58.32
5051 60.4100 3270.00 3154.17 57.18
5052 60.4200 3221.00 3083.49 56.75
5053 60.4300 3019.00 2997.19 54.95
5054 60.4400 2904.00 2906.78 53.89
5055 60.4500 2703.00 2821.53 51.99
5056 60.4600 2741.00 2748.61 52.35
5057 60.4700 2687.00 2692.17 51.84
5058 60.4800 2635.00 2654.61 51.33
5059 60.4900 2630.00 2636.19 51.28
5060 60.5000 2643.00 2635.49 51.41
5061 60.5100 2765.00 2649.57 52.58
5062 60.5200 2756.00 2674.20 52.50
5063 60.5300 2791.00 2703.96 52.83
5064 60.5400 2904.00 2732.30 53.89
5065 60.5500 2879.00 2752.14 53.66
5066 60.5600 2898.00 2757.26 53.83
5067 60.5700 2847.00 2744.61 53.36
5068 60.5800 2697.00 2715.49 51.93
5069 60.5900 2658.00 2674.56 51.56
5070 60.6000 2607.00 2627.62 51.06
5071 60.6100 2521.00 2579.83 50.21
5072 60.6200 2486.00 2534.72 49.86
5073 60.6300 2455.00 2494.87 49.55
5074 60.6400 2471.00 2461.62 49.71
5075 60.6500 2470.00 2435.32 49.70
5076 60.6600 2382.00 2415.60 48.81
5077 60.6700 2339.00 2401.52 48.36
5078 60.6800 2449.00 2391.52 49.49
5079 60.6900 2378.00 2384.79 48.76
5080 60.7000 2361.00 2379.62 48.59
5081 60.7100 2386.00 2374.84 48.85
5082 60.7200 2324.00 2369.74 48.21
5083 60.7300 2423.00 2364.12 49.22
5084 60.7400 2394.00 2358.17 48.93
5085 60.7500 2351.00 2352.25 48.49
5086 60.7600 2358.00 2346.69 48.56
5087 60.7700 2409.00 2341.75 49.08
5088 60.7800 2371.00 2337.72 48.69
5089 60.7900 2262.00 2334.53 47.56
5090 60.8000 2407.00 2332.29 49.06
5091 60.8100 2300.00 2330.94 47.96
5092 60.8200 2309.00 2330.39 48.05
5093 60.8300 2355.00 2330.46 48.53
5094 60.8400 2413.00 2330.77 49.12
5095 60.8500 2321.00 2331.37 48.18
5096 60.8600 2255.00 2331.90 47.49
5097 60.8700 2341.00 2331.86 48.38
5098 60.8800 2314.00 2331.13 48.10
5099 60.8900 2295.00 2329.68 47.91
5100 60.9000 2293.00 2327.64 47.89
5101 60.9100 2395.00 2325.24 48.94
5102 60.9200 2297.00 2322.72 47.93
5103 60.9300 2300.00 2320.26 47.96
5104 60.9400 2287.00 2317.98 47.82
5105 60.9500 2363.00 2315.96 48.61
5106 60.9600 2261.00 2314.23 47.55
5107 60.9700 2248.00 2312.80 47.41
5108 60.9800 2317.00 2311.64 48.14
5109 60.9900 2250.00 2310.72 47.43
5110 61.0000 2286.00 2309.98 47.81
5111 61.0100 2291.00 2309.40 47.86
5112 61.0200 2315.00 2308.97 48.11
5113 61.0300 2311.00 2308.59 48.07
5114 61.0400 2371.00 2308.26 48.69
5115 61.0500 2332.00 2306.84 48.29
5116 61.0600 2341.00 2306.62 48.38
5117 61.0700 2231.00 2306.42 47.23
5118 61.0800 2308.00 2306.25 48.04
5119 61.0900 2295.00 2306.10 47.91
5120 61.1000 2348.00 2305.96 48.46
5121 61.1100 2294.00 2305.84 47.90
5122 61.1200 2271.00 2305.74 47.65
5123 61.1300 2273.00 2305.64 47.68
5124 61.1400 2287.00 2305.56 47.82
5125 61.1500 2348.00 2305.49 48.46
5126 61.1600 2315.00 2305.43 48.11
5127 61.1700 2248.00 2305.38 47.41
5128 61.1800 2326.00 2305.34 48.23
5129 61.1900 2333.00 2305.31 48.30
5130 61.2000 2211.00 2305.29 47.02
5131 61.2100 2386.00 2305.10 48.85
5132 61.2200 2339.00 2305.12 48.36
5133 61.2300 2322.00 2305.15 48.19
5134 61.2400 2345.00 2305.20 48.43
5135 61.2500 2344.00 2305.26 48.41
5136 61.2600 2361.00 2305.33 48.59
5137 61.2700 2351.00 2305.41 48.49
5138 61.2800 2286.00 2305.51 47.81
5139 61.2900 2290.00 2305.62 47.85
5140 61.3000 2345.00 2305.76 48.43
5141 61.3100 2297.00 2305.91 47.93
5142 61.3200 2277.00 2306.09 47.72
5143 61.3300 2346.00 2305.05 48.44
5144 61.3400 2280.00 2305.31 47.75
5145 61.3500 2195.00 2305.61 46.85
5146 61.3600 2261.00 2305.96 47.55
5147 61.3700 2291.00 2306.38 47.86
5148 61.3800 2359.00 2307.13 48.57
5149 61.3900 2309.00 2307.79 48.05
5150 61.4000 2260.00 2308.67 47.54
5151 61.4100 2337.00 2309.83 48.34
5152 61.4200 2243.00 2311.39 47.36
5153 61.4300 2381.00 2313.52 48.80
5154 61.4400 2290.00 2316.39 47.85
5155 61.4500 2323.00 2320.20 48.20
5156 61.4600 2305.00 2325.05 48.01
5157 61.4700 2396.00 2331.10 48.95
5158 61.4800 2288.00 2338.33 47.83
5159 61.4900 2354.00 2346.01 48.52
5160 61.5000 2404.00 2355.08 49.03
5161 61.5100 2392.00 2364.42 48.91
5162 61.5200 2358.00 2373.27 48.56
5163 61.5300 2438.00 2380.68 49.38
5164 61.5400 2385.00 2385.62 48.84
5165 61.5500 2427.00 2387.34 49.26
5166 61.5600 2444.00 2385.76 49.44
5167 61.5700 2499.00 2381.50 49.99
5168 61.5800 2386.00 2375.61 48.85
5169 61.5900 2415.00 2369.13 49.14
5170 61.6000 2322.00 2362.90 48.19
5171 61.6100 2376.00 2357.49 48.74
5172 61.6200 2419.00 2353.23 49.18
5173 61.6300 2387.00 2350.25 48.86
5174 61.6400 2379.00 2348.54 48.78
5175 61.6500 2320.00 2348.20 48.17
5176 61.6600 2362.00 2349.15 48.60
5177 61.6700 2497.00 2351.31 49.97
5178 61.6800 2338.00 2354.50 48.35
5179 61.6900 2377.00 2358.43 48.75
5180 61.7000 2438.00 2362.70 49.38
5181 61.7100 2363.00 2366.87 48.61
5182 61.7200 2362.00 2370.63 48.60
5183 61.7300 2358.00 2373.90 48.56
5184 61.7400 2360.00 2376.86 48.58
5185 61.7500 2381.00 2379.74 48.80
5186 61.7600 2384.00 2382.57 48.83
5187 61.7700 2416.00 2385.15 49.15
5188 61.7800 2448.00 2386.92 49.48
5189 61.7900 2379.00 2387.18 48.78
5190 61.8000 2496.00 2385.31 49.96
5191 61.8100 2422.00 2381.08 49.21
5192 61.8200 2394.00 2374.96 48.93
5193 61.8300 2343.00 2367.67 48.40
5194 61.8400 2367.00 2360.04 48.65
5195 61.8500 2380.00 2352.79 48.79
5196 61.8600 2330.00 2346.44 48.27
5197 61.8700 2349.00 2341.34 48.47
5198 61.8800 2406.00 2337.70 49.05
5199 61.8900 2322.00 2335.57 48.19
5200 61.9000 2233.00 2334.90 47.25
5201 61.9100 2251.00 2335.52 47.44
5202 61.9200 2315.00 2337.18 48.11
5203 61.9300 2294.00 2339.55 47.90
5204 61.9400 2326.00 2342.21 48.23
5205 61.9500 2393.00 2344.73 48.92
5206 61.9600 2331.00 2346.63 48.28
5207 61.9700 2359.00 2347.58 48.57
5208 61.9800 2359.00 2347.51 48.57
5209 61.9900 2394.00 2346.71 48.93
5210 62.0000 2307.00 2345.58 48.03
5211 62.0100 2348.00 2344.75 48.46
5212 62.0200 2399.00 2344.83 48.98
5213 62.0300 2327.00 2346.45 48.24
5214 62.0400 2369.00 2350.25 48.67
5215 62.0500 2355.00 2356.90 48.53
5216 62.0600 2367.00 2367.04 48.65
5217 62.0700 2336.00 2381.21 48.33
5218 62.0800 2422.00 2399.74 49.21
5219 62.0900 2472.00 2422.69 49.72
5220 62.1000 2439.00 2449.63 49.39
5221 62.1100 2485.00 2479.60 49.85
5222 62.1200 2499.00 2510.91 49.99
5223 62.1300 2584.00 2541.10 50.83
5224 62.1400 2602.00 2566.94 51.01
5225 62.1500 2650.00 2584.80 51.48
5226 62.1600 2568.00 2591.68 50.68
5227 62.1700 2674.00 2586.34 51.71
5228 62.1800 2568.00 2570.18 50.68
5229 62.1900 2563.00 2546.38 50.63
5230 62.2000 2415.00 2518.72 49.14
5231 62.2100 2408.00 2490.61 49.07
5232 62.2200 2510.00 2464.79 50.10
5233 62.2300 2449.00 2443.20 49.49
5234 62.2400 2389.00 2427.05 48.88
5235 62.2500 2460.00 2416.95 49.60
5236 62.2600 2429.00 2412.86 49.28
5237 62.2700 2375.00 2414.31 48.73
5238 62.2800 2384.00 2420.34 48.83
5239 62.2900 2470.00 2429.64 49.70
5240 62.3000 2473.00 2440.50 49.73
5241 62.3100 2470.00 2450.93 49.70
5242 62.3200 2390.00 2458.79 48.89
5243 62.3300 2539.00 2462.21 50.39
5244 62.3400 2493.00 2460.20 49.93
5245 62.3500 2429.00 2453.04 49.28
5246 62.3600 2467.00 2441.90 49.67
5247 62.3700 2416.00 2428.33 49.15
5248 62.3800 2467.00 2413.68 49.67
5249 62.3900 2318.00 2398.99 48.15
5250 62.4000 2487.00 2384.94 49.87
5251 62.4100 2348.00 2371.99 48.46
5252 62.4200 2319.00 2360.49 48.16
5253 62.4300 2354.00 2350.62 48.52
5254 62.4400 2318.00 2342.43 48.15
5255 62.4500 2301.00 2335.84 47.97
5256 62.4600 2321.00 2330.68 48.18
5257 62.4700 2348.00 2326.77 48.46
5258 62.4800 2373.00 2323.91 48.71
5259 62.4900 2420.00 2321.79 49.19
5260 62.5000 2335.00 2320.50 48.32
5261 62.5100 2317.00 2319.77 48.14
5262 62.5200 2477.00 2319.44 49.77
5263 62.5300 2192.00 2319.40 46.82
5264 62.5400 2341.00 2319.49 48.38
5265 62.5500 2335.00 2319.59 48.32
5266 62.5600 2322.00 2319.55 48.19
5267 62.5700 2286.00 2319.26 47.81
5268 62.5800 2313.00 2318.66 48.09
5269 62.5900 2304.00 2317.86 48.00
5270 62.6000 2172.00 2316.83 46.60
5271 62.6100 2296.00 2315.72 47.92
5272 62.6200 2287.00 2314.62 47.82
5273 62.6300 2327.00 2313.58 48.24
5274 62.6400 2276.00 2312.65 47.71
5275 62.6500 2269.00 2311.84 47.63
5276 62.6600 2355.00 2311.18 48.53
5277 62.6700 2255.00 2310.59 47.49
5278 62.6800 2241.00 2310.18 47.34
5279 62.6900 2287.00 2309.87 47.82
5280 62.7000 2371.00 2309.64 48.69
5281 62.7100 2375.00 2309.49 48.73
5282 62.7200 2342.00 2309.39 48.39
5283 62.7300 2359.00 2309.33 48.57
5284 62.7400 2324.00 2309.31 48.21
5285 62.7500 2248.00 2309.23 47.41
5286 62.7600 2329.00 2309.32 48.26
5287 62.7700 2302.00 2309.42 47.98
5288 62.7800 2269.00 2309.58 47.63
5289 62.7900 2291.00 2309.81 47.86
5290 62.8000 2340.00 2310.14 48.37
5291 62.8100 2257.00 2310.60 47.51
5292 62.8200 2294.00 2311.25 47.90
5293 62.8300 2280.00 2312.14 47.75
5294 62.8400 2332.00 2313.33 48.29
5295 62.8500 2385.00 2314.90 48.84
5296 62.8600 2302.00 2316.91 47.98
5297 62.8700 2278.00 2319.39 47.73
5298 62.8800 2263.00 2322.36 47.57
5299 62.8900 2351.00 2325.77 48.49
5300 62.9000 2288.00 2329.54 47.83
5301 62.9100 2304.00 2333.51 48.00
5302 62.9200 2255.00 2337.40 47.49
5303 62.9300 2315.00 2340.98 48.11
5304 62.9400 2375.00 2343.91 48.73
5305 62.9500 2350.00 2345.96 48.48
5306 62.9600 2347.00 2347.12 48.45
5307 62.9700 2356.00 2347.56 48.54
5308 62.9800 2361.00 2347.51 48.59
5309 62.9900 2303.00 2347.15 47.99
5310 63.0000 2421.00 2346.49 49.20
5311 63.0100 2297.00 2345.49 47.93
5312 63.0200 2317.00 2344.04 48.14
5313 63.0300 2343.00 2342.16 48.40
5314 63.0400 2392.00 2340.00 48.91
5315 63.0500 2248.00 2337.82 47.41
5316 63.0600 2404.00 2335.84 49.03
5317 63.0700 2332.00 2334.25 48.29
5318 63.0800 2291.00 2333.11 47.86
5319 63.0900 2369.00 2332.40 48.67
5320 63.1000 2302.00 2332.01 47.98
5321 63.1100 2233.00 2331.40 47.25
5322 63.1200 2442.00 2331.17 49.42
5323 63.1300 2310.00 2330.79 48.06
5324 63.1400 2394.00 2330.33 48.93
5325 63.1500 2266.00 2329.79 47.60
5326 63.1600 2307.00 2329.21 48.03
5327 63.1700 2335.00 2328.56 48.32
5328 63.1800 2340.00 2327.76 48.37
5329 63.1900 2386.00 2326.72 48.85
5330 63.2000 2387.00 2325.65 48.86
5331 63.2100 2357.00 2324.01 48.55
5332 63.2200 2306.00 2322.18 48.02
5333 63.2300 2335.00 2320.27 48.32
5334 63.2400 2310.00 2318.43 48.06
5335 63.2500 2290.00 2317.32 47.85
5336 63.2600 2293.00 2315.83 47.89
5337 63.2700 2316.00 2314.56 48.12
5338 63.2800 2372.00 2313.71 48.70
5339 63.2900 2292.00 2312.72 47.87
5340 63.3000 2316.00 2312.14 48.12
5341 63.3100 2327.00 2311.71 48.24
5342 63.3200 2329.00 2311.45 48.26
5343 63.3300 2289.00 2311.30 47.84
5344 63.3400 2289.00 2311.24 47.84
5345 63.3500 2324.00 2311.25 48.21
5346 63.3600 2338.00 2311.28 48.35
5347 63.3700 2251.00 2311.36 47.44
5348 63.3800 2280.00 2311.48 47.75
5349 63.3900 2310.00 2311.63 48.06
5350 63.4000 2314.00 2311.85 48.10
5351 63.4100 2340.00 2312.14 48.37
5352 63.4200 2296.00 2312.57 47.92
5353 63.4300 2270.00 2313.16 47.64
5354 63.4400 2263.00 2313.99 47.57
5355 63.4500 2269.00 2315.11 47.63
5356 63.4600 2336.00 2316.59 48.33
5357 63.4700 2263.00 2318.45 47.57
5358 63.4800 2393.00 2320.73 48.92
5359 63.4900 2290.00 2323.41 47.85
5360 63.5000 2362.00 2326.42 48.60
5361 63.5100 2268.00 2329.64 47.62
5362 63.5200 2319.00 2332.87 48.16
5363 63.5300 2253.00 2335.83 47.47
5364 63.5400 2373.00 2338.21 48.71
5365 63.5500 2325.00 2339.67 48.22
5366 63.5600 2298.00 2340.00 47.94
5367 63.5700 2365.00 2339.20 48.63
5368 63.5800 2368.00 2337.52 48.66
5369 63.5900 2340.00 2335.30 48.37
5370 63.6000 2399.00 2332.90 48.98
5371 63.6100 2276.00 2330.61 47.71
5372 63.6200 2297.00 2328.64 47.93
5373 63.6300 2294.00 2327.12 47.90
5374 63.6400 2386.00 2326.13 48.85
5375 63.6500 2346.00 2325.67 48.44
5376 63.6600 2255.00 2325.69 47.49
5377 63.6700 2321.00 2326.13 48.18
5378 63.6800 2331.00 2326.93 48.28
5379 63.6900 2368.00 2327.97 48.66
5380 63.7000 2348.00 2329.11 48.46
5381 63.7100 2325.00 2330.20 48.22
5382 63.7200 2371.00 2331.03 48.69
5383 63.7300 2223.00 2331.44 47.15
5384 63.7400 2343.00 2331.33 48.40
5385 63.7500 2329.00 2330.74 48.26
5386 63.7600 2352.00 2329.79 48.50
5387 63.7700 2284.00 2328.65 47.79
5388 63.7800 2313.00 2327.49 48.09
5389 63.7900 2305.00 2326.44 48.01
5390 63.8000 2293.00 2325.57 47.89
5391 63.8100 2338.00 2324.94 48.35
5392 63.8200 2372.00 2324.58 48.70
5393 63.8300 2354.00 2324.48 48.52
5394 63.8400 2287.00 2324.63 47.82
5395 63.8500 2273.00 2325.05 47.68
5396 63.8600 2313.00 2325.74 48.09
5397 63.8700 2287.00 2326.75 47.82
5398 63.8800 2333.00 2328.15 48.30
5399 63.8900 2325.00 2330.03 48.22
5400 63.9000 2416.00 2332.56 49.15
5401 63.9100 2356.00 2335.90 48.54
5402 63.9200 2398.00 2340.45 48.97
5403 63.9300 2332.00 2346.57 48.29
5404 63.9400 2359.00 2354.74 48.57
5405 63.9500 2369.00 2365.54 48.67
5406 63.9600 2446.00 2379.63 49.46
5407 63.9700 2361.00 2397.55 48.59
5408 63.9800 2390.00 2419.82 48.89
5409 63.9900 2446.00 2446.62 49.46
5410 64.0000 2416.00 2477.88 49.15
5411 64.0100 2527.00 2513.00 50.27
5412 64.0200 2622.00 2550.69 51.21
5413 64.0300 2511.00 2588.99 50.11
5414 64.0400 2535.00 2625.18 50.35
5415 64.0500 2638.00 2656.11 51.36
5416 64.0600 2622.00 2678.71 51.21
5417 64.0700 2633.00 2690.49 51.31
5418 64.0800 2588.00 2690.02 50.87
5419 64.0900 2597.00 2677.18 50.96
5420 64.1000 2586.00 2653.72 50.85
5421 64.1100 2557.00 2622.96 50.57
5422 64.1200 2445.00 2588.82 49.45
5423 64.1300 2505.00 2555.10 50.05
5424 64.1400 2465.00 2524.73 49.65
5425 64.1500 2447.00 2499.82 49.47
5426 64.1600 2355.00 2481.54 48.53
5427 64.1700 2371.00 2470.32 48.69
5428 64.1800 2419.00 2466.48 49.18
5429 64.1900 2479.00 2468.24 49.79
5430 64.2000 2429.00 2474.77 49.28
5431 64.2100 2389.00 2484.32 48.88
5432 64.2200 2470.00 2494.79 49.70
5433 64.2300 2480.00 2504.06 49.80
5434 64.2400 2463.00 2510.12 49.63
5435 64.2500 2520.00 2511.49 50.20
5436 64.2600 2412.00 2507.23 49.11
5437 64.2700 2557.00 2497.23 50.57
5438 64.2800 2451.00 2482.27 49.51
5439 64.2900 2511.00 2463.92 50.11
5440 64.3000 2385.00 2443.92 48.84
5441 64.3100 2326.00 2423.85 48.23
5442 64.3200 2367.00 2404.94 48.65
5443 64.3300 2360.00 2387.94 48.58
5444 64.3400 2279.00 2373.24 47.74
5445 64.3500 2308.00 2361.24 48.04
5446 64.3600 2365.00 2351.37 48.63
5447 64.3700 2381.00 2343.63 48.80
5448 64.3800 2361.00 2337.69 48.59
5449 64.3900 2346.00 2333.20 48.44
5450 64.4000 2364.00 2329.85 48.62
5451 64.4100 2284.00 2327.35 47.79
5452 64.4200 2325.00 2325.46 48.22
5453 64.4300 2329.00 2324.02 48.26
5454 64.4400 2382.00 2322.89 48.81
5455 64.4500 2189.00 2321.97 46.79
5456 64.4600 2334.00 2321.21 48.31
5457 64.4700 2271.00 2320.57 47.65
5458 64.4800 2286.00 2320.02 47.81
5459 64.4900 2264.00 2319.54 47.58
5460 64.5000 2311.00 2319.12 48.07
5461 64.5100 2344.00 2318.75 48.41
5462 64.5200 2249.00 2318.42 47.42
5463 64.5300 2312.00 2318.09 48.08
5464 64.5400 2233.00 2317.83 47.25
5465 64.5500 2253.00 2317.61 47.47
5466 64.5600 2341.00 2317.41 48.38
5467 64.5700 2296.00 2317.23 47.92
5468 64.5800 2282.00 2317.08 47.77
5469 64.5900 2343.00 2316.95 48.40
5470 64.6000 2294.00 2316.83 47.90
5471 64.6100 2298.00 2316.74 47.94
5472 64.6200 2348.00 2316.66 48.46
5473 64.6300 2435.00 2316.59 49.35
5474 64.6400 2370.00 2316.54 48.68
5475 64.6500 2207.00 2316.50 46.98
5476 64.6600 2333.00 2316.48 48.30
5477 64.6700 2308.00 2316.47 48.04
5478 64.6800 2248.00 2316.47 47.41
5479 64.6900 2344.00 2316.50 48.41
5480 64.7000 2265.00 2316.53 47.59
5481 64.7100 2275.00 2316.55 47.70
5482 64.7200 2310.00 2316.61 48.06
5483 64.7300 2265.00 2316.67 47.59
5484 64.7400 2323.00 2316.75 48.20
5485 64.7500 2381.00 2316.84 48.80
5486 64.7600 2259.00 2316.95 47.53
5487 64.7700 2269.00 2317.07 47.63
5488 64.7800 2369.00 2317.21 48.67
5489 64.7900 2276.00 2317.36 47.71
5490 64.8000 2300.00 2317.53 47.96
5491 64.8100 2262.00 2317.71 47.56
5492 64.8200 2332.00 2317.92 48.29
5493 64.8300 2300.00 2318.15 47.96
5494 64.8400 2390.00 2318.40 48.89
5495 64.8500 2402.00 2318.68 49.01
5496 64.8600 2229.00 2318.99 47.21
5497 64.8700 2311.00 2319.35 48.07
5498 64.8800 2234.00 2319.73 47.27
5499 64.8900 2359.00 2320.14 48.57
5500 64.9000 2345.00 2320.60 48.43
5501 64.9100 2355.00 2321.11 48.53
5502 64.9200 2342.00 2321.68 48.39
5503 64.9300 2380.00 2322.32 48.79
5504 64.9400 2403.00 2323.05 49.02
5505 64.9500 2302.00 2323.87 47.98
5506 64.9600 2317.00 2324.82 48.14
5507 64.9700 2372.00 2325.94 48.70
5508 64.9800 2346.00 2327.30 48.44
5509 64.9900 2347.00 2329.86 48.45
5510 65.0000 2322.00 2332.03 48.19
5511 65.0100 2431.00 2334.89 49.31
5512 65.0200 2402.00 2338.72 49.01
5513 65.0300 2410.00 2343.92 49.09
5514 65.0400 2312.00 2350.77 48.08
5515 65.0500 2394.00 2360.27 48.93
5516 65.0600 2471.00 2373.50 49.71
5517 65.0700 2408.00 2389.42 49.07
5518 65.0800 2507.00 2409.83 50.07
5519 65.0900 2424.00 2434.64 49.23
5520 65.1000 2407.00 2463.69 49.06
5521 65.1100 2541.00 2496.28 50.41
5522 65.1200 2370.00 2531.19 48.68
5523 65.1300 2573.00 2566.38 50.72
5524 65.1400 2562.00 2599.18 50.62
5525 65.1500 2600.00 2625.89 50.99
5526 65.1600 2626.00 2642.97 51.24
5527 65.1700 2543.00 2647.69 50.43
5528 65.1800 2634.00 2639.39 51.32
5529 65.1900 2476.00 2619.87 49.76
5530 65.2000 2520.00 2592.56 50.20
5531 65.2100 2420.00 2561.39 49.19
5532 65.2200 2523.00 2529.74 50.23
5533 65.2300 2481.00 2500.47 49.81
5534 65.2400 2586.00 2475.56 50.85
5535 65.2500 2421.00 2456.13 49.20
5536 65.2600 2463.00 2443.18 49.63
5537 65.2700 2429.00 2436.68 49.28
5538 65.2800 2443.00 2436.22 49.43
5539 65.2900 2460.00 2441.15 49.60
5540 65.3000 2451.00 2449.93 49.51
5541 65.3100 2481.00 2461.19 49.81
5542 65.3200 2354.00 2473.06 48.52
5543 65.3300 2441.00 2483.43 49.41
5544 65.3400 2517.00 2490.17 50.17
5545 65.3500 2495.00 2491.51 49.95
5546 65.3600 2380.00 2486.75 48.79
5547 65.3700 2483.00 2476.40 49.83
5548 65.3800 2544.00 2461.91 50.44
5549 65.3900 2432.00 2445.03 49.32
5550 65.4000 2304.00 2427.40 48.00
5551 65.4100 2394.00 2410.24 48.93
5552 65.4200 2347.00 2394.44 48.45
5553 65.4300 2463.00 2380.56 49.63
5554 65.4400 2331.00 2368.83 48.28
5555 65.4500 2321.00 2359.28 48.18
5556 65.4600 2447.00 2351.77 49.47
5557 65.4700 2422.00 2348.07 49.21
5558 65.4800 2385.00 2343.88 48.84
5559 65.4900 2348.00 2340.86 48.46
5560 65.5000 2331.00 2338.75 48.28
5561 65.5100 2429.00 2337.32 49.28
5562 65.5200 2279.00 2336.38 47.74
5563 65.5300 2413.00 2335.81 49.12
5564 65.5400 2351.00 2335.53 48.49
5565 65.5500 2337.00 2335.49 48.34
5566 65.5600 2348.00 2336.43 48.46
5567 65.5700 2371.00 2336.80 48.69
5568 65.5800 2472.00 2337.37 49.72
5569 65.5900 2293.00 2338.16 47.89
5570 65.6000 2397.00 2339.19 48.96
5571 65.6100 2344.00 2340.45 48.41
5572 65.6200 2288.00 2341.97 47.83
5573 65.6300 2374.00 2343.75 48.72
5574 65.6400 2365.00 2345.76 48.63
5575 65.6500 2295.00 2347.99 47.91
5576 65.6600 2359.00 2350.40 48.57
5577 65.6700 2383.00 2352.94 48.82
5578 65.6800 2445.00 2355.57 49.45
5579 65.6900 2388.00 2358.27 48.87
5580 65.7000 2422.00 2361.13 49.21
5581 65.7100 2424.00 2364.34 49.23
5582 65.7200 2409.00 2368.27 49.08
5583 65.7300 2452.00 2373.91 49.52
5584 65.7400 2402.00 2380.90 49.01
5585 65.7500 2355.00 2390.49 48.53
5586 65.7600 2414.00 2403.51 49.13
5587 65.7700 2471.00 2420.91 49.71
5588 65.7800 2580.00 2443.55 50.79
5589 65.7900 2471.00 2472.20 49.71
5590 65.8000 2599.00 2507.40 50.98
5591 65.8100 2539.00 2549.19 50.39
5592 65.8200 2605.00 2597.08 51.04
5593 65.8300 2667.00 2649.90 51.64
5594 65.8400 2798.00 2705.57 52.90
5595 65.8500 2790.00 2761.00 52.82
5596 65.8600 2909.00 2812.00 53.94
5597 65.8700 2737.00 2853.64 52.32
5598 65.8800 2841.00 2881.29 53.30
5599 65.8900 2792.00 2892.31 52.84
5600 65.9000 2959.00 2887.33 54.40
5601 65.9100 2748.00 2869.87 52.42
5602 65.9200 2802.00 2844.97 52.93
5603 65.9300 2612.00 2816.61 51.11
5604 65.9400 2765.00 2788.13 52.58
5605 65.9500 2716.00 2761.34 52.12
5606 65.9600 2680.00 2736.81 51.77
5607 65.9700 2640.00 2714.66 51.38
5608 65.9800 2614.00 2695.08 51.13
5609 65.9900 2712.00 2678.77 52.08
5610 66.0000 2569.00 2666.71 50.69
5611 66.0100 2636.00 2659.50 51.34
5612 66.0200 2614.00 2657.12 51.13
5613 66.0300 2687.00 2658.73 51.84
5614 66.0400 2654.00 2662.70 51.52
5615 66.0500 2604.00 2666.82 51.03
5616 66.0600 2720.00 2668.25 52.15
5617 66.0700 2674.00 2665.00 51.71
5618 66.0800 2634.00 2656.26 51.32
5619 66.0900 2490.00 2642.70 49.90
5620 66.1000 2612.00 2625.99 51.11
5621 66.1100 2721.00 2607.99 52.16
5622 66.1200 2651.00 2590.03 51.49
5623 66.1300 2520.00 2572.86 50.20
5624 66.1400 2616.00 2556.68 51.15
5625 66.1500 2552.00 2541.38 50.52
5626 66.1600 2560.00 2526.86 50.60
5627 66.1700 2548.00 2512.98 50.48
5628 66.1800 2519.00 2501.36 50.19
5629 66.1900 2548.00 2492.37 50.48
5630 66.2000 2560.00 2486.88 50.60
5631 66.2100 2503.00 2485.66 50.03
5632 66.2200 2581.00 2489.38 50.80
5633 66.2300 2560.00 2498.71 50.60
5634 66.2400 2534.00 2514.49 50.34
5635 66.2500 2562.00 2537.05 50.62
5636 66.2600 2579.00 2567.36 50.78
5637 66.2700 2679.00 2606.08 51.76
5638 66.2800 2730.00 2653.85 52.25
5639 66.2900 2783.00 2711.13 52.75
5640 66.3000 2843.00 2778.28 53.32
5641 66.3100 2899.00 2855.59 53.84
5642 66.3200 2935.00 2943.12 54.18
5643 66.3300 3090.00 3039.80 55.59
5644 66.3400 3152.00 3143.46 56.14
5645 66.3500 3218.00 3248.96 56.73
5646 66.3600 3228.00 3348.53 56.82
5647 66.3700 3395.00 3432.90 58.27
5648 66.3800 3355.00 3490.36 57.92
5649 66.3900 3396.00 3511.39 58.28
5650 66.4000 3308.00 3491.95 57.52
5651 66.4100 3204.00 3435.57 56.60
5652 66.4200 3209.00 3351.89 56.65
5653 66.4300 3017.00 3252.89 54.93
5654 66.4400 2920.00 3149.86 54.04
5655 66.4500 2951.00 3051.82 54.32
5656 66.4600 2768.00 2965.57 52.61
5657 66.4700 2801.00 2895.41 52.92
5658 66.4800 2772.00 2843.58 52.65
5659 66.4900 2878.00 2810.90 53.65
5660 66.5000 2750.00 2796.78 52.44
5661 66.5100 2826.00 2799.63 53.16
5662 66.5200 2816.00 2816.71 53.07
5663 66.5300 2822.00 2844.36 53.12
5664 66.5400 2903.00 2877.73 53.88
5665 66.5500 2992.00 2911.04 54.70
5666 66.5600 2920.00 2937.67 54.04
5667 66.5700 3051.00 2951.23 55.24
5668 66.5800 2857.00 2947.22 53.45
5669 66.5900 2923.00 2924.70 54.06
5670 66.6000 2866.00 2886.58 53.53
5671 66.6100 2748.00 2838.25 52.42
5672 66.6200 2663.00 2785.60 51.60
5673 66.6300 2701.00 2734.11 51.97
5674 66.6400 2625.00 2688.05 51.23
5675 66.6500 2641.00 2650.65 51.39
5676 66.6600 2585.00 2623.86 50.84
5677 66.6700 2641.00 2608.66 51.39
5678 66.6800 2525.00 2604.98 50.25
5679 66.6900 2648.00 2611.74 51.46
5680 66.7000 2636.00 2627.01 51.34
5681 66.7100 2672.00 2648.04 51.69
5682 66.7200 2653.00 2671.35 51.51
5683 66.7300 2740.00 2692.90 52.35
5684 66.7400 2839.00 2708.30 53.28
5685 66.7500 2789.00 2713.79 52.81
5686 66.7600 2652.00 2707.29 51.50
5687 66.7700 2591.00 2689.19 50.90
5688 66.7800 2619.00 2661.97 51.18
5689 66.7900 2517.00 2629.26 50.17
5690 66.8000 2444.00 2594.56 49.44
5691 66.8100 2499.00 2560.90 49.99
5692 66.8200 2550.00 2530.65 50.50
5693 66.8300 2579.00 2505.49 50.78
5694 66.8400 2584.00 2486.44 50.83
5695 66.8500 2343.00 2473.98 48.40
5696 66.8600 2522.00 2468.47 50.22
5697 66.8700 2487.00 2468.60 49.87
5698 66.8800 2494.00 2473.87 49.94
5699 66.8900 2474.00 2483.05 49.74
5700 66.9000 2559.00 2493.93 50.59
5701 66.9100 2569.00 2506.09 50.69
5702 66.9200 2542.00 2516.81 50.42
5703 66.9300 2576.00 2524.06 50.75
5704 66.9400 2567.00 2526.29 50.67
5705 66.9500 2568.00 2522.91 50.68
5706 66.9600 2541.00 2514.53 50.41
5707 66.9700 2506.00 2502.68 50.06
5708 66.9800 2588.00 2488.96 50.87
5709 66.9900 2424.00 2475.59 49.23
5710 67.0000 2537.00 2463.62 50.37
5711 67.0100 2502.00 2453.96 50.02
5712 67.0200 2419.00 2447.08 49.18
5713 67.0300 2456.00 2443.03 49.56
5714 67.0400 2519.00 2441.50 50.19
5715 67.0500 2446.00 2442.04 49.46
5716 67.0600 2511.00 2443.35 50.11
5717 67.0700 2374.00 2444.95 48.72
5718 67.0800 2455.00 2445.06 49.55
5719 67.0900 2602.00 2444.28 51.01
5720 67.1000 2378.00 2442.40 48.76
5721 67.1100 2467.00 2439.91 49.67
5722 67.1200 2477.00 2437.41 49.77
5723 67.1300 2459.00 2435.37 49.59
5724 67.1400 2450.00 2434.03 49.50
5725 67.1500 2457.00 2433.37 49.57
5726 67.1600 2340.00 2433.10 48.37
5727 67.1700 2500.00 2432.67 50.00
5728 67.1800 2445.00 2431.86 49.45
5729 67.1900 2477.00 2430.34 49.77
5730 67.2000 2402.00 2428.21 49.01
5731 67.2100 2352.00 2425.88 48.50
5732 67.2200 2337.00 2423.80 48.34
5733 67.2300 2462.00 2422.39 49.62
5734 67.2400 2490.00 2421.87 49.90
5735 67.2500 2387.00 2422.32 48.86
5736 67.2600 2386.00 2423.83 48.85
5737 67.2700 2367.00 2426.02 48.65
5738 67.2800 2490.00 2429.01 49.90
5739 67.2900 2517.00 2432.83 50.17
5740 67.3000 2440.00 2437.53 49.40
5741 67.3100 2369.00 2442.94 48.67
5742 67.3200 2400.00 2448.47 48.99
5743 67.3300 2438.00 2453.75 49.38
5744 67.3400 2402.00 2457.66 49.01
5745 67.3500 2447.00 2459.17 49.47
5746 67.3600 2396.00 2457.64 48.95
5747 67.3700 2468.00 2452.53 49.68
5748 67.3800 2331.00 2444.38 48.28
5749 67.3900 2359.00 2434.04 48.57
5750 67.4000 2371.00 2422.56 48.69
5751 67.4100 2470.00 2409.33 49.70
5752 67.4200 2331.00 2398.36 48.28
5753 67.4300 2368.00 2388.66 48.66
5754 67.4400 2346.00 2380.62 48.44
5755 67.4500 2278.00 2374.48 47.73
5756 67.4600 2271.00 2370.29 47.65
5757 67.4700 2314.00 2367.98 48.10
5758 67.4800 2342.00 2367.34 48.39
5759 67.4900 2297.00 2368.05 47.93
5760 67.5000 2323.00 2369.75 48.20
5761 67.5100 2419.00 2371.88 49.18
5762 67.5200 2366.00 2374.11 48.64
5763 67.5300 2356.00 2375.82 48.54
5764 67.5400 2263.00 2376.54 47.57
5765 67.5500 2254.00 2376.05 47.48
5766 67.5600 2269.00 2374.17 47.63
5767 67.5700 2414.00 2371.20 49.13
5768 67.5800 2311.00 2367.50 48.07
5769 67.5900 2336.00 2363.47 48.33
5770 67.6000 2365.00 2358.65 48.63
5771 67.6100 2342.00 2354.86 48.39
5772 67.6200 2336.00 2351.48 48.33
5773 67.6300 2409.00 2348.62 49.08
5774 67.6400 2432.00 2346.34 49.32
5775 67.6500 2275.00 2344.62 47.70
5776 67.6600 2349.00 2343.59 48.47
5777 67.6700 2371.00 2342.92 48.69
5778 67.6800 2315.00 2342.72 48.11
5779 67.6900 2349.00 2342.93 48.47
5780 67.7000 2427.00 2343.56 49.26
5781 67.7100 2258.00 2344.63 47.52
5782 67.7200 2262.00 2346.23 47.56
5783 67.7300 2388.00 2348.49 48.87
5784 67.7400 2373.00 2351.63 48.71
5785 67.7500 2454.00 2355.94 49.54
5786 67.7600 2422.00 2361.81 49.21
5787 67.7700 2314.00 2369.68 48.10
5788 67.7800 2384.00 2379.57 48.83
5789 67.7900 2357.00 2392.91 48.55
5790 67.8000 2440.00 2409.63 49.40
5791 67.8100 2372.00 2429.97 48.70
5792 67.8200 2464.00 2454.02 49.64
5793 67.8300 2402.00 2481.07 49.01
5794 67.8400 2555.00 2510.50 50.55
5795 67.8500 2679.00 2540.91 51.76
5796 67.8600 2524.00 2570.39 50.24
5797 67.8700 2568.00 2596.53 50.68
5798 67.8800 2636.00 2616.44 51.34
5799 67.8900 2698.00 2627.50 51.94
5800 67.9000 2505.00 2628.15 50.05
5801 67.9100 2532.00 2618.57 50.32
5802 67.9200 2582.00 2600.72 50.81
5803 67.9300 2532.00 2577.47 50.32
5804 67.9400 2509.00 2551.88 50.09
5805 67.9500 2444.00 2526.69 49.44
5806 67.9600 2539.00 2504.20 50.39
5807 67.9700 2632.00 2485.90 51.30
5808 67.9800 2495.00 2473.57 49.95
5809 67.9900 2443.00 2467.88 49.43
5810 68.0000 2416.00 2469.31 49.15
5811 68.0100 2532.00 2477.96 50.32
5812 68.0200 2538.00 2493.54 50.38
5813 68.0300 2569.00 2515.38 50.69
5814 68.0400 2471.00 2542.25 49.71
5815 68.0500 2573.00 2572.58 50.72
5816 68.0600 2586.00 2604.18 50.85
5817 68.0700 2595.00 2634.31 50.94
5818 68.0800 2716.00 2660.02 52.12
5819 68.0900 2830.00 2678.43 53.20
5820 68.1000 2726.00 2687.23 52.21
5821 68.1100 2764.00 2685.07 52.57
5822 68.1200 2663.00 2672.22 51.60
5823 68.1300 2691.00 2650.05 51.87
5824 68.1400 2570.00 2621.11 50.70
5825 68.1500 2530.00 2588.49 50.30
5826 68.1600 2580.00 2554.99 50.79
5827 68.1700 2477.00 2523.02 49.77
5828 68.1800 2551.00 2494.34 50.51
5829 68.1900 2486.00 2470.06 49.86
5830 68.2000 2483.00 2450.91 49.83
5831 68.2100 2471.00 2437.11 49.71
5832 68.2200 2486.00 2428.47 49.86
5833 68.2300 2444.00 2424.78 49.44
5834 68.2400 2431.00 2425.35 49.31
5835 68.2500 2424.00 2429.43 49.23
5836 68.2600 2422.00 2436.13 49.21
5837 68.2700 2408.00 2444.47 49.07
5838 68.2800 2535.00 2453.34 50.35
5839 68.2900 2501.00 2461.60 50.01
5840 68.3000 2675.00 2468.15 51.72
5841 68.3100 2509.00 2472.38 50.09
5842 68.3200 2447.00 2474.13 49.47
5843 68.3300 2444.00 2473.88 49.44
5844 68.3400 2606.00 2472.47 51.05
5845 68.3500 2478.00 2470.71 49.78
5846 68.3600 2443.00 2469.16 49.43
5847 68.3700 2510.00 2468.02 50.10
5848 68.3800 2415.00 2467.11 49.14
5849 68.3900 2553.00 2465.78 50.53
5850 68.4000 2480.00 2463.52 49.80
5851 68.4100 2500.00 2459.48 50.00
5852 68.4200 2496.00 2453.39 49.96
5853 68.4300 2412.00 2445.41 49.11
5854 68.4400 2383.00 2436.13 48.82
5855 68.4500 2419.00 2426.34 49.18
5856 68.4600 2428.00 2416.78 49.27
5857 68.4700 2382.00 2408.09 48.81
5858 68.4800 2333.00 2400.68 48.30
5859 68.4900 2373.00 2394.83 48.71
5860 68.5000 2434.00 2390.70 49.34
5861 68.5100 2410.00 2388.28 49.09
5862 68.5200 2445.00 2387.51 49.45
5863 68.5300 2429.00 2388.27 49.28
5864 68.5400 2503.00 2390.44 50.03
5865 68.5500 2392.00 2393.92 48.91
5866 68.5600 2459.00 2398.57 49.59
5867 68.5700 2378.00 2404.17 48.76
5868 68.5800 2407.00 2410.42 49.06
5869 68.5900 2425.00 2416.89 49.24
5870 68.6000 2395.00 2423.32 48.94
5871 68.6100 2363.00 2429.33 48.61
5872 68.6200 2395.00 2434.85 48.94
5873 68.6300 2498.00 2439.90 49.98
5874 68.6400 2468.00 2444.49 49.68
5875 68.6500 2369.00 2448.53 48.67
5876 68.6600 2353.00 2451.72 48.51
5877 68.6700 2512.00 2453.66 50.12
5878 68.6800 2510.00 2454.02 50.10
5879 68.6900 2472.00 2452.75 49.72
5880 68.7000 2551.00 2450.27 50.51
5881 68.7100 2416.00 2446.95 49.15
5882 68.7200 2397.00 2443.47 48.96
5883 68.7300 2460.00 2440.28 49.60
5884 68.7400 2347.00 2437.60 48.45
5885 68.7500 2397.00 2435.43 48.96
5886 68.7600 2440.00 2433.53 49.40
5887 68.7700 2421.00 2431.53 49.20
5888 68.7800 2429.00 2429.05 49.28
5889 68.7900 2464.00 2425.92 49.64
5890 68.8000 2373.00 2422.23 48.71
5891 68.8100 2432.00 2418.27 49.32
5892 68.8200 2401.00 2414.39 49.00
5893 68.8300 2406.00 2410.84 49.05
5894 68.8400 2398.00 2407.70 48.97
5895 68.8500 2446.00 2404.91 49.46
5896 68.8600 2379.00 2402.29 48.78
5897 68.8700 2385.00 2399.60 48.84
5898 68.8800 2462.00 2396.71 49.62
5899 68.8900 2520.00 2393.62 50.20
5900 68.9000 2444.00 2390.85 49.44
5901 68.9100 2248.00 2388.01 47.41
5902 68.9200 2418.00 2385.40 49.17
5903 68.9300 2378.00 2383.19 48.76
5904 68.9400 2431.00 2380.92 49.31
5905 68.9500 2446.00 2379.22 49.46
5906 68.9600 2430.00 2377.46 49.29
5907 68.9700 2361.00 2375.36 48.59
5908 68.9800 2351.00 2372.73 48.49
5909 68.9900 2279.00 2369.54 47.74
5910 69.0000 2405.00 2365.90 49.04
5911 69.0100 2295.00 2362.00 47.91
5912 69.0200 2474.00 2358.06 49.74
5913 69.0300 2449.00 2354.25 49.49
5914 69.0400 2356.00 2350.71 48.54
5915 69.0500 2448.00 2347.53 49.48
5916 69.0600 2351.00 2344.75 48.49
5917 69.0700 2347.00 2342.40 48.45
5918 69.0800 2401.00 2340.47 49.00
5919 69.0900 2365.00 2338.91 48.63
5920 69.1000 2436.00 2337.67 49.36
5921 69.1100 2312.00 2336.72 48.08
5922 69.1200 2326.00 2335.99 48.23
5923 69.1300 2285.00 2335.44 47.80
5924 69.1400 2314.00 2334.82 48.10
5925 69.1500 2379.00 2334.50 48.78
5926 69.1600 2313.00 2334.25 48.09
5927 69.1700 2254.00 2333.76 47.48
5928 69.1800 2348.00 2333.61 48.46
5929 69.1900 2313.00 2333.50 48.09
5930 69.2000 2297.00 2333.40 47.93
5931 69.2100 2338.00 2333.33 48.35
5932 69.2200 2423.00 2333.28 49.22
5933 69.2300 2329.00 2333.24 48.26
5934 69.2400 2334.00 2333.21 48.31
5935 69.2500 2364.00 2333.19 48.62
5936 69.2600 2369.00 2333.19 48.67
5937 69.2700 2321.00 2333.20 48.18
5938 69.2800 2384.00 2333.21 48.83
5939 69.2900 2322.00 2333.24 48.19
5940 69.3000 2349.00 2333.27 48.47
5941 69.3100 2395.00 2333.32 48.94
5942 69.3200 2206.00 2333.37 46.97
5943 69.3300 2349.00 2333.43 48.47
5944 69.3400 2359.00 2333.50 48.57
5945 69.3500 2308.00 2333.58 48.04
5946 69.3600 2388.00 2333.53 48.87
5947 69.3700 2300.00 2333.63 47.96
5948 69.3800 2346.00 2333.74 48.44
5949 69.3900 2247.00 2333.86 47.40
5950 69.4000 2454.00 2334.00 49.54
5951 69.4100 2367.00 2334.14 48.65
5952 69.4200 2220.00 2334.30 47.12
5953 69.4300 2348.00 2334.47 48.46
5954 69.4400 2280.00 2334.66 47.75
5955 69.4500 2227.00 2334.86 47.19
5956 69.4600 2280.00 2335.09 47.75
5957 69.4700 2349.00 2335.19 48.47
5958 69.4800 2280.00 2335.46 47.75
5959 69.4900 2302.00 2335.75 47.98
5960 69.5000 2412.00 2336.06 49.11
5961 69.5100 2291.00 2336.41 47.86
5962 69.5200 2346.00 2336.79 48.44
5963 69.5300 2326.00 2337.22 48.23
5964 69.5400 2307.00 2337.69 48.03
5965 69.5500 2373.00 2338.23 48.71
5966 69.5600 2280.00 2338.84 47.75
5967 69.5700 2380.00 2339.55 48.79
5968 69.5800 2405.00 2340.39 49.04
5969 69.5900 2332.00 2341.43 48.29
5970 69.6000 2436.00 2342.74 49.36
5971 69.6100 2342.00 2344.43 48.39
5972 69.6200 2216.00 2346.65 47.07
5973 69.6300 2394.00 2349.60 48.93
5974 69.6400 2407.00 2353.52 49.06
5975 69.6500 2376.00 2358.72 48.74
5976 69.6600 2427.00 2365.46 49.26
5977 69.6700 2427.00 2374.19 49.26
5978 69.6800 2436.00 2385.15 49.36
5979 69.6900 2356.00 2398.56 48.54
5980 69.7000 2397.00 2414.47 48.96
5981 69.7100 2430.00 2432.76 49.29
5982 69.7200 2422.00 2452.97 49.21
5983 69.7300 2546.00 2474.45 50.46
5984 69.7400 2511.00 2496.00 50.11
5985 69.7500 2566.00 2516.37 50.66
5986 69.7600 2656.00 2533.76 51.54
5987 69.7700 2586.00 2546.30 50.85
5988 69.7800 2548.00 2552.39 50.48
5989 69.7900 2568.00 2551.27 50.68
5990 69.8000 2543.00 2543.18 50.43
5991 69.8100 2589.00 2529.43 50.88
5992 69.8200 2555.00 2511.85 50.55
5993 69.8300 2472.00 2492.46 49.72
5994 69.8400 2394.00 2472.90 48.93
5995 69.8500 2487.00 2454.75 49.87
5996 69.8600 2409.00 2439.05 49.08
5997 69.8700 2327.00 2426.48 48.24
5998 69.8800 2499.00 2417.47 49.99
5999 69.8900 2436.00 2412.16 49.36
6000 69.9000 2433.00 2410.41 49.33
6001 69.9100 2410.00 2411.89 49.09
6002 69.9200 2392.00 2416.03 48.91
6003 69.9300 2543.00 2422.12 50.43
6004 69.9400 2412.00 2429.24 49.11
6005 69.9500 2533.00 2436.48 50.33
6006 69.9600 2510.00 2442.70 50.10
6007 69.9700 2517.00 2446.80 50.17
6008 69.9800 2435.00 2447.93 49.35
6009 69.9900 2564.00 2445.71 50.64
6010 70.0000 2473.00 2440.22 49.73
6011 70.0100 2421.00 2432.09 49.20
6012 70.0200 2444.00 2422.21 49.44
6013 70.0300 2412.00 2411.43 49.11
6014 70.0400 2384.00 2400.50 48.83
6015 70.0500 2383.00 2390.06 48.82
6016 70.0600 2447.00 2380.49 49.47
6017 70.0700 2402.00 2372.05 49.01
6018 70.0800 2415.00 2364.85 49.14
6019 70.0900 2395.00 2358.88 48.94
6020 70.1000 2374.00 2354.07 48.72
6021 70.1100 2412.00 2350.28 49.11
6022 70.1200 2343.00 2347.36 48.40
6023 70.1300 2333.00 2345.14 48.30
6024 70.1400 2404.00 2343.46 49.03
6025 70.1500 2290.00 2342.20 47.85
6026 70.1600 2371.00 2341.25 48.69
6027 70.1700 2355.00 2340.51 48.53
6028 70.1800 2388.00 2339.93 48.87
6029 70.1900 2443.00 2339.48 49.43
6030 70.2000 2310.00 2339.10 48.06
6031 70.2100 2360.00 2338.78 48.58
6032 70.2200 2306.00 2338.50 48.02
6033 70.2300 2366.00 2338.27 48.64
6034 70.2400 2284.00 2338.06 47.79
6035 70.2500 2340.00 2337.87 48.37
6036 70.2600 2405.00 2337.71 49.04
6037 70.2700 2334.00 2337.56 48.31
6038 70.2800 2386.00 2337.44 48.85
6039 70.2900 2352.00 2337.32 48.50
6040 70.3000 2269.00 2337.22 47.63
6041 70.3100 2333.00 2337.17 48.30
6042 70.3200 2347.00 2337.09 48.45
6043 70.3300 2301.00 2337.02 47.97
6044 70.3400 2365.00 2336.96 48.63
6045 70.3500 2256.00 2336.91 47.50
6046 70.3600 2382.00 2336.87 48.81
6047 70.3700 2340.00 2336.83 48.37
6048 70.3800 2390.00 2336.79 48.89
6049 70.3900 2325.00 2336.77 48.22
6050 70.4000 2358.00 2336.75 48.56
6051 70.4100 2344.00 2336.73 48.41
6052 70.4200 2304.00 2336.72 48.00
6053 70.4300 2335.00 2336.71 48.32
6054 70.4400 2284.00 2336.70 47.79
6055 70.4500 2333.00 2336.70 48.30
6056 70.4600 2388.00 2336.70 48.87
6057 70.4700 2258.00 2336.71 47.52
6058 70.4800 2359.00 2336.72 48.57
6059 70.4900 2390.00 2336.73 48.89
6060 70.5000 2328.00 2336.74 48.25
6061 70.5100 2319.00 2336.78 48.16
6062 70.5200 2294.00 2336.80 47.90
6063 70.5300 2304.00 2336.82 48.00
6064 70.5400 2352.00 2336.84 48.50
6065 70.5500 2375.00 2336.87 48.73
6066 70.5600 2377.00 2336.90 48.75
6067 70.5700 2374.00 2336.93 48.72
6068 70.5800 2304.00 2336.96 48.00
6069 70.5900 2316.00 2337.00 48.12
6070 70.6000 2314.00 2337.04 48.10
6071 70.6100 2291.00 2337.08 47.86
6072 70.6200 2327.00 2337.12 48.24
6073 70.6300 2244.00 2337.17 47.37
6074 70.6400 2313.00 2337.22 48.09
6075 70.6500 2363.00 2337.27 48.61
6076 70.6600 2331.00 2337.33 48.28
6077 70.6700 2297.00 2337.40 47.93
6078 70.6800 2380.00 2337.47 48.79
6079 70.6900 2381.00 2337.55 48.80
6080 70.7000 2315.00 2337.65 48.11
6081 70.7100 2427.00 2337.77 49.26
6082 70.7200 2337.00 2337.91 48.34
6083 70.7300 2348.00 2338.07 48.46
6084 70.7400 2401.00 2338.27 49.00
6085 70.7500 2284.00 2338.50 47.79
6086 70.7600 2360.00 2338.78 48.58
6087 70.7700 2363.00 2339.09 48.61
6088 70.7800 2322.00 2339.43 48.19
6089 70.7900 2284.00 2339.81 47.79
6090 70.8000 2341.00 2340.20 48.38
6091 70.8100 2424.00 2340.59 49.23
6092 70.8200 2371.00 2340.96 48.69
6093 70.8300 2361.00 2341.29 48.59
6094 70.8400 2319.00 2341.54 48.16
6095 70.8500 2352.00 2341.61 48.50
6096 70.8600 2452.00 2341.68 49.52
6097 70.8700 2387.00 2341.47 48.86
6098 70.8800 2458.00 2341.40 49.58
6099 70.8900 2269.00 2341.32 47.63
6100 70.9000 2326.00 2341.25 48.23
6101 70.9100 2350.00 2341.23 48.48
6102 70.9200 2351.00 2341.31 48.49
6103 70.9300 2404.00 2341.51 49.03
6104 70.9400 2449.00 2341.89 49.49
6105 70.9500 2429.00 2342.48 49.28
6106 70.9600 2415.00 2343.32 49.14
6107 70.9700 2348.00 2344.46 48.46
6108 70.9800 2388.00 2345.92 48.87
6109 70.9900 2324.00 2347.72 48.21
6110 71.0000 2350.00 2349.86 48.48
6111 71.0100 2310.00 2352.31 48.06
6112 71.0200 2435.00 2355.01 49.35
6113 71.0300 2433.00 2357.86 49.33
6114 71.0400 2345.00 2360.73 48.43
6115 71.0500 2394.00 2363.37 48.93
6116 71.0600 2315.00 2365.66 48.11
6117 71.0700 2412.00 2367.24 49.11
6118 71.0800 2333.00 2368.09 48.30
6119 71.0900 2415.00 2368.02 49.14
6120 71.1000 2347.00 2367.04 48.45
6121 71.1100 2365.00 2365.32 48.63
6122 71.1200 2341.00 2363.08 48.38
6123 71.1300 2318.00 2360.59 48.15
6124 71.1400 2298.00 2358.07 47.94
6125 71.1500 2378.00 2355.70 48.76
6126 71.1600 2373.00 2353.62 48.71
6127 71.1700 2379.00 2351.94 48.78
6128 71.1800 2376.00 2350.71 48.74
6129 71.1900 2385.00 2349.95 48.84
6130 71.2000 2390.00 2349.68 48.89
6131 71.2100 2283.00 2349.86 47.78
6132 71.2200 2379.00 2350.43 48.78
6133 71.2300 2508.00 2351.35 50.08
6134 71.2400 2331.00 2352.52 48.28
6135 71.2500 2402.00 2353.86 49.01
6136 71.2600 2371.00 2355.28 48.69
6137 71.2700 2390.00 2356.66 48.89
6138 71.2800 2389.00 2357.92 48.88
6139 71.2900 2280.00 2359.02 47.75
6140 71.3000 2347.00 2360.03 48.45
6141 71.3100 2453.00 2360.90 49.53
6142 71.3200 2399.00 2361.79 48.98
6143 71.3300 2409.00 2362.82 49.08
6144 71.3400 2356.00 2364.05 48.54
6145 71.3500 2285.00 2365.48 47.80
6146 71.3600 2399.00 2367.07 48.98
6147 71.3700 2378.00 2368.70 48.76
6148 71.3800 2422.00 2370.20 49.21
6149 71.3900 2397.00 2371.33 48.96
6150 71.4000 2381.00 2371.88 48.80
6151 71.4100 2342.00 2371.66 48.39
6152 71.4200 2369.00 2370.62 48.67
6153 71.4300 2346.00 2368.85 48.44
6154 71.4400 2420.00 2366.54 49.19
6155 71.4500 2297.00 2363.93 47.93
6156 71.4600 2370.00 2361.23 48.68
6157 71.4700 2337.00 2358.64 48.34
6158 71.4800 2317.00 2356.30 48.14
6159 71.4900 2415.00 2354.33 49.14
6160 71.5000 2345.00 2353.51 48.43
6161 71.5100 2377.00 2352.46 48.75
6162 71.5200 2338.00 2351.88 48.35
6163 71.5300 2360.00 2352.01 48.58
6164 71.5400 2446.00 2352.31 49.46
6165 71.5500 2318.00 2352.93 48.15
6166 71.5600 2397.00 2353.81 48.96
6167 71.5700 2412.00 2354.82 49.11
6168 71.5800 2308.00 2355.83 48.04
6169 71.5900 2449.00 2356.73 49.49
6170 71.6000 2389.00 2357.36 48.88
6171 71.6100 2378.00 2357.61 48.76
6172 71.6200 2417.00 2357.42 49.16
6173 71.6300 2418.00 2356.81 49.17
6174 71.6400 2299.00 2355.85 47.95
6175 71.6500 2388.00 2354.64 48.87
6176 71.6600 2359.00 2353.32 48.57
6177 71.6700 2360.00 2351.96 48.58
6178 71.6800 2362.00 2350.65 48.60
6179 71.6900 2356.00 2349.44 48.54
6180 71.7000 2416.00 2348.37 49.15
6181 71.7100 2351.00 2347.46 48.49
6182 71.7200 2284.00 2346.71 47.79
6183 71.7300 2328.00 2346.12 48.25
6184 71.7400 2284.00 2345.66 47.79
6185 71.7500 2299.00 2345.33 47.95
6186 71.7600 2377.00 2345.10 48.75
6187 71.7700 2326.00 2344.94 48.23
6188 71.7800 2262.00 2344.85 47.56
6189 71.7900 2309.00 2344.80 48.05
6190 71.8000 2383.00 2344.80 48.82
6191 71.8100 2315.00 2344.81 48.11
6192 71.8200 2341.00 2344.85 48.38
6193 71.8300 2287.00 2344.90 47.82
6194 71.8400 2261.00 2344.97 47.55
6195 71.8500 2383.00 2345.05 48.82
6196 71.8600 2352.00 2345.13 48.50
6197 71.8700 2347.00 2345.23 48.45
6198 71.8800 2274.00 2345.33 47.69
6199 71.8900 2318.00 2345.44 48.15
6200 71.9000 2319.00 2345.56 48.16
6201 71.9100 2342.00 2345.68 48.39
6202 71.9200 2356.00 2345.81 48.54
6203 71.9300 2327.00 2345.96 48.24
6204 71.9400 2394.00 2346.12 48.93
6205 71.9500 2290.00 2346.28 47.85
6206 71.9600 2294.00 2346.45 47.90
6207 71.9700 2326.00 2346.62 48.23
6208 71.9800 2256.00 2346.81 47.50
6209 71.9900 2278.00 2347.01 47.73
6210 72.0000 2318.00 2347.22 48.15
6211 72.0100 2353.00 2347.44 48.51
6212 72.0200 2318.00 2347.67 48.15
6213 72.0300 2371.00 2347.92 48.69
6214 72.0400 2457.00 2348.19 49.57
6215 72.0500 2287.00 2348.47 47.82
6216 72.0600 2372.00 2348.77 48.70
6217 72.0700 2429.00 2349.09 49.28
6218 72.0800 2384.00 2349.43 48.83
6219 72.0900 2338.00 2349.80 48.35
6220 72.1000 2431.00 2350.19 49.31
6221 72.1100 2341.00 2350.61 48.38
6222 72.1200 2356.00 2351.07 48.54
6223 72.1300 2360.00 2351.57 48.58
6224 72.1400 2309.00 2352.10 48.05
6225 72.1500 2369.00 2352.78 48.67
6226 72.1600 2394.00 2353.42 48.93
6227 72.1700 2322.00 2354.16 48.19
6228 72.1800 2368.00 2354.94 48.66
6229 72.1900 2304.00 2355.77 48.00
6230 72.2000 2428.00 2356.75 49.27
6231 72.2100 2367.00 2357.88 48.65
6232 72.2200 2351.00 2359.19 48.49
6233 72.2300 2363.00 2360.76 48.61
6234 72.2400 2411.00 2362.69 49.10
6235 72.2500 2488.00 2365.11 49.88
6236 72.2600 2404.00 2368.21 49.03
6237 72.2700 2386.00 2372.24 48.85
6238 72.2800 2442.00 2377.53 49.42
6239 72.2900 2463.00 2384.50 49.63
6240 72.3000 2349.00 2393.62 48.47
6241 72.3100 2530.00 2405.42 50.30
6242 72.3200 2391.00 2420.45 48.90
6243 72.3300 2438.00 2439.18 49.38
6244 72.3400 2495.00 2462.02 49.95
6245 72.3500 2528.00 2489.14 50.28
6246 72.3600 2637.00 2520.36 51.35
6247 72.3700 2567.00 2555.24 50.67
6248 72.3800 2674.00 2592.74 51.71
6249 72.3900 2662.00 2631.35 51.59
6250 72.4000 2768.00 2669.08 52.61
6251 72.4100 2782.00 2703.37 52.74
6252 72.4200 2807.00 2731.36 52.98
6253 72.4300 2978.00 2750.22 54.57
6254 72.4400 2841.00 2757.71 53.30
6255 72.4500 2676.00 2752.88 51.73
6256 72.4600 2769.00 2736.51 52.62
6257 72.4700 2639.00 2710.88 51.37
6258 72.4800 2668.00 2679.04 51.65
6259 72.4900 2657.00 2644.34 51.55
6260 72.5000 2511.00 2609.54 50.11
6261 72.5100 2567.00 2576.98 50.67
6262 72.5200 2578.00 2548.46 50.77
6263 72.5300 2540.00 2525.28 50.40
6264 72.5400 2486.00 2508.22 49.86
6265 72.5500 2505.00 2497.51 50.05
6266 72.5600 2534.00 2493.06 50.34
6267 72.5700 2481.00 2494.37 49.81
6268 72.5800 2510.00 2500.63 50.10
6269 72.5900 2512.00 2510.72 50.12
6270 72.6000 2570.00 2523.29 50.70
6271 72.6100 2461.00 2536.75 49.61
6272 72.6200 2663.00 2549.40 51.60
6273 72.6300 2616.00 2559.43 51.15
6274 72.6400 2552.00 2565.21 50.52
6275 72.6500 2586.00 2565.54 50.85
6276 72.6600 2614.00 2559.98 51.13
6277 72.6700 2453.00 2548.92 49.53
6278 72.6800 2534.00 2533.54 50.34
6279 72.6900 2564.00 2515.25 50.64
6280 72.7000 2560.00 2495.61 50.60
6281 72.7100 2460.00 2475.75 49.60
6282 72.7200 2419.00 2456.71 49.18
6283 72.7300 2453.00 2439.19 49.53
6284 72.7400 2449.00 2423.65 49.49
6285 72.7500 2388.00 2410.29 48.87
6286 72.7600 2346.00 2399.14 48.44
6287 72.7700 2459.00 2390.11 49.59
6288 72.7800 2341.00 2382.95 48.38
6289 72.7900 2493.00 2377.46 49.93
6290 72.8000 2428.00 2373.26 49.27
6291 72.8100 2370.00 2370.12 48.68
6292 72.8200 2360.00 2367.76 48.58
6293 72.8300 2310.00 2366.20 48.06
6294 72.8400 2324.00 2364.82 48.21
6295 72.8500 2450.00 2363.71 49.50
6296 72.8600 2330.00 2362.80 48.27
6297 72.8700 2298.00 2362.04 47.94
6298 72.8800 2414.00 2361.79 49.13
6299 72.8900 2329.00 2361.31 48.26
6300 72.9000 2311.00 2361.00 48.07
6301 72.9100 2392.00 2360.88 48.91
6302 72.9200 2245.00 2360.99 47.38
6303 72.9300 2351.00 2361.39 48.49
6304 72.9400 2231.00 2362.14 47.23
6305 72.9500 2355.00 2363.31 48.53
6306 72.9600 2307.00 2364.98 48.03
6307 72.9700 2420.00 2367.21 49.19
6308 72.9800 2414.00 2370.05 49.13
6309 72.9900 2337.00 2373.55 48.34
6310 73.0000 2350.00 2377.68 48.48
6311 73.0100 2365.00 2382.40 48.63
6312 73.0200 2354.00 2387.58 48.52
6313 73.0300 2391.00 2393.26 48.90
6314 73.0400 2409.00 2398.72 49.08
6315 73.0500 2328.00 2403.87 48.25
6316 73.0600 2446.00 2408.29 49.46
6317 73.0700 2386.00 2411.58 48.85
6318 73.0800 2445.00 2413.39 49.45
6319 73.0900 2351.00 2413.56 48.49
6320 73.1000 2415.00 2411.96 49.14
6321 73.1100 2388.00 2408.87 48.87
6322 73.1200 2408.00 2404.66 49.07
6323 73.1300 2523.00 2399.79 50.23
6324 73.1400 2418.00 2394.70 49.17
6325 73.1500 2500.00 2389.74 50.00
6326 73.1600 2450.00 2385.24 49.50
6327 73.1700 2453.00 2381.40 49.53
6328 73.1800 2332.00 2378.39 48.29
6329 73.1900 2321.00 2376.27 48.18
6330 73.2000 2354.00 2375.09 48.52
6331 73.2100 2332.00 2374.80 48.29
6332 73.2200 2405.00 2375.33 49.04
6333 73.2300 2392.00 2376.54 48.91
6334 73.2400 2383.00 2378.29 48.82
6335 73.2500 2274.00 2380.39 47.69
6336 73.2600 2412.00 2382.60 49.11
6337 73.2700 2386.00 2384.71 48.85
6338 73.2800 2378.00 2386.47 48.76
6339 73.2900 2304.00 2387.69 48.00
6340 73.3000 2350.00 2388.21 48.48
6341 73.3100 2339.00 2388.01 48.36
6342 73.3200 2420.00 2387.20 49.19
6343 73.3300 2301.00 2385.83 47.97
6344 73.3400 2369.00 2384.11 48.67
6345 73.3500 2372.00 2382.19 48.70
6346 73.3600 2262.00 2380.20 47.56
6347 73.3700 2316.00 2378.20 48.12
6348 73.3800 2253.00 2376.23 47.47
6349 73.3900 2307.00 2374.31 48.03
6350 73.4000 2423.00 2372.47 49.22
6351 73.4100 2352.00 2370.74 48.50
6352 73.4200 2400.00 2369.17 48.99
6353 73.4300 2425.00 2367.79 49.24
6354 73.4400 2442.00 2366.66 49.42
6355 73.4500 2480.00 2365.80 49.80
6356 73.4600 2251.00 2365.23 47.44
6357 73.4700 2338.00 2365.00 48.35
6358 73.4800 2270.00 2365.12 47.64
6359 73.4900 2456.00 2365.63 49.56
6360 73.5000 2450.00 2366.57 49.50
6361 73.5100 2300.00 2367.97 47.96
6362 73.5200 2451.00 2369.87 49.51
6363 73.5300 2401.00 2372.46 49.00
6364 73.5400 2362.00 2375.33 48.60
6365 73.5500 2391.00 2378.79 48.90
6366 73.5600 2399.00 2382.71 48.98
6367 73.5700 2413.00 2386.54 49.12
6368 73.5800 2373.00 2391.15 48.71
6369 73.5900 2415.00 2395.90 49.14
6370 73.6000 2390.00 2400.96 48.89
6371 73.6100 2407.00 2405.47 49.06
6372 73.6200 2433.00 2409.61 49.33
6373 73.6300 2441.00 2413.27 49.41
6374 73.6400 2405.00 2416.45 49.04
6375 73.6500 2352.00 2419.31 48.50
6376 73.6600 2458.00 2422.12 49.58
6377 73.6700 2467.00 2425.21 49.67
6378 73.6800 2470.00 2428.88 49.70
6379 73.6900 2372.00 2433.34 48.70
6380 73.7000 2450.00 2438.73 49.50
6381 73.7100 2579.00 2445.07 50.78
6382 73.7200 2454.00 2452.29 49.54
6383 73.7300 2494.00 2460.34 49.94
6384 73.7400 2465.00 2469.10 49.65
6385 73.7500 2438.00 2478.39 49.38
6386 73.7600 2465.00 2488.22 49.65
6387 73.7700 2479.00 2497.93 49.79
6388 73.7800 2522.00 2506.92 50.22
6389 73.7900 2516.00 2515.04 50.16
6390 73.8000 2514.00 2521.44 50.14
6391 73.8100 2570.00 2525.72 50.70
6392 73.8200 2569.00 2527.86 50.69
6393 73.8300 2530.00 2528.37 50.30
6394 73.8400 2544.00 2528.11 50.44
6395 73.8500 2562.00 2528.13 50.62
6396 73.8600 2420.00 2529.61 49.19
6397 73.8700 2494.00 2533.16 49.94
6398 73.8800 2575.00 2539.53 50.74
6399 73.8900 2573.00 2549.06 50.72
6400 73.9000 2482.00 2561.66 49.82
6401 73.9100 2566.00 2576.90 50.66
6402 73.9200 2729.00 2593.90 52.24
6403 73.9300 2564.00 2611.39 50.64
6404 73.9400 2695.00 2627.83 51.91
6405 73.9500 2676.00 2641.59 51.73
6406 73.9600 2651.00 2651.24 51.49
6407 73.9700 2701.00 2655.98 51.97
6408 73.9800 2591.00 2655.72 50.90
6409 73.9900 2707.00 2650.91 52.03
6410 74.0000 2701.00 2642.24 51.97
6411 74.0100 2627.00 2630.38 51.25
6412 74.0200 2586.00 2615.89 50.85
6413 74.0300 2627.00 2599.38 51.25
6414 74.0400 2587.00 2581.65 50.86
6415 74.0500 2509.00 2563.62 50.09
6416 74.0600 2473.00 2546.25 49.73
6417 74.0700 2618.00 2530.52 51.17
6418 74.0800 2514.00 2517.01 50.14
6419 74.0900 2513.00 2506.07 50.13
6420 74.1000 2502.00 2497.97 50.02
6421 74.1100 2539.00 2492.72 50.39
6422 74.1200 2580.00 2490.09 50.79
6423 74.1300 2574.00 2489.62 50.73
6424 74.1400 2476.00 2490.67 49.76
6425 74.1500 2447.00 2492.42 49.47
6426 74.1600 2582.00 2493.95 50.81
6427 74.1700 2615.00 2494.42 51.14
6428 74.1800 2514.00 2493.21 50.14
6429 74.1900 2559.00 2490.06 50.59
6430 74.2000 2433.00 2485.10 49.33
6431 74.2100 2478.00 2478.65 49.78
6432 74.2200 2406.00 2471.17 49.05
6433 74.2300 2519.00 2462.92 50.19
6434 74.2400 2430.00 2454.34 49.29
6435 74.2500 2420.00 2445.62 49.19
6436 74.2600 2421.00 2437.00 49.20
6437 74.2700 2383.00 2428.73 48.82
6438 74.2800 2348.00 2420.99 48.46
6439 74.2900 2329.00 2413.96 48.26
6440 74.3000 2402.00 2407.76 49.01
6441 74.3100 2421.00 2402.40 49.20
6442 74.3200 2376.00 2397.97 48.74
6443 74.3300 2447.00 2394.53 49.47
6444 74.3400 2440.00 2392.10 49.40
6445 74.3500 2365.00 2390.72 48.63
6446 74.3600 2406.00 2390.39 49.05
6447 74.3700 2445.00 2391.16 49.45
6448 74.3800 2424.00 2393.01 49.23
6449 74.3900 2312.00 2395.98 48.08
6450 74.4000 2401.00 2400.04 49.00
6451 74.4100 2438.00 2405.17 49.38
6452 74.4200 2430.00 2411.31 49.29
6453 74.4300 2493.00 2418.34 49.93
6454 74.4400 2495.00 2426.05 49.95
6455 74.4500 2433.00 2434.26 49.33
6456 74.4600 2486.00 2442.64 49.86
6457 74.4700 2495.00 2450.85 49.95
6458 74.4800 2483.00 2458.66 49.83
6459 74.4900 2536.00 2465.84 50.36
6460 74.5000 2445.00 2472.20 49.45
6461 74.5100 2451.00 2477.55 49.51
6462 74.5200 2470.00 2481.62 49.70
6463 74.5300 2561.00 2484.15 50.61
6464 74.5400 2482.00 2485.01 49.82
6465 74.5500 2519.00 2484.31 50.19
6466 74.5600 2547.00 2482.53 50.47
6467 74.5700 2448.00 2480.43 49.48
6468 74.5800 2510.00 2478.91 50.10
6469 74.5900 2406.00 2478.84 49.05
6470 74.6000 2557.00 2480.96 50.57
6471 74.6100 2453.00 2485.80 49.53
6472 74.6200 2460.00 2493.68 49.60
6473 74.6300 2439.00 2504.79 49.39
6474 74.6400 2545.00 2518.54 50.45
6475 74.6500 2483.00 2534.54 49.83
6476 74.6600 2546.00 2551.88 50.46
6477 74.6700 2594.00 2569.37 50.93
6478 74.6800 2557.00 2585.54 50.57
6479 74.6900 2540.00 2598.79 50.40
6480 74.7000 2572.00 2607.66 50.71
6481 74.7100 2620.00 2611.13 51.19
6482 74.7200 2590.00 2608.88 50.89
6483 74.7300 2509.00 2601.32 50.09
6484 74.7400 2581.00 2589.32 50.80
6485 74.7500 2588.00 2574.02 50.87
6486 74.7600 2619.00 2556.54 51.18
6487 74.7700 2608.00 2538.05 51.07
6488 74.7800 2600.00 2519.60 50.99
6489 74.7900 2535.00 2502.29 50.35
6490 74.8000 2471.00 2486.93 49.71
6491 74.8100 2536.00 2474.17 50.36
6492 74.8200 2424.00 2464.39 49.23
6493 74.8300 2504.00 2457.91 50.04
6494 74.8400 2445.00 2454.54 49.45
6495 74.8500 2391.00 2454.21 48.90
6496 74.8600 2426.00 2456.60 49.25
6497 74.8700 2474.00 2461.26 49.74
6498 74.8800 2416.00 2467.74 49.15
6499 74.8900 2423.00 2475.38 49.22
6500 74.9000 2580.00 2483.48 50.79
6501 74.9100 2448.00 2491.33 49.48
6502 74.9200 2486.00 2498.29 49.86
6503 74.9300 2590.00 2503.97 50.89
6504 74.9400 2536.00 2508.26 50.36
6505 74.9500 2567.00 2511.32 50.67
6506 74.9600 2640.00 2513.26 51.38
6507 74.9700 2532.00 2514.61 50.32
6508 74.9800 2521.00 2515.26 50.21
6509 74.9900 2514.00 2515.05 50.14
6510 75.0000 2593.00 2513.63 50.92
6511 75.0100 2555.00 2510.59 50.55
6512 75.0200 2538.00 2505.55 50.38
6513 75.0300 2506.00 2498.38 50.06
6514 75.0400 2556.00 2489.33 50.56
6515 75.0500 2480.00 2478.92 49.80
6516 75.0600 2458.00 2467.83 49.58
6517 75.0700 2544.00 2456.75 50.44
6518 75.0800 2396.00 2446.31 48.95
6519 75.0900 2423.00 2436.98 49.22
6520 75.1000 2475.00 2429.23 49.75
6521 75.1100 2423.00 2423.37 49.22
6522 75.1200 2416.00 2419.37 49.15
6523 75.1300 2407.00 2417.88 49.06
6524 75.1400 2456.00 2418.71 49.56
6525 75.1500 2414.00 2421.79 49.13
6526 75.1600 2452.00 2427.00 49.52
6527 75.1700 2414.00 2434.08 49.13
6528 75.1800 2461.00 2442.51 49.61
6529 75.1900 2524.00 2452.10 50.24
6530 75.2000 2459.00 2462.10 49.59
6531 75.2100 2460.00 2471.76 49.60
6532 75.2200 2472.00 2480.23 49.72
6533 75.2300 2543.00 2486.65 50.43
6534 75.2400 2387.00 2490.25 48.86
6535 75.2500 2598.00 2490.52 50.97
6536 75.2600 2438.00 2487.35 49.38
6537 75.2700 2537.00 2481.12 50.37
6538 75.2800 2424.00 2472.48 49.23
6539 75.2900 2428.00 2462.27 49.27
6540 75.3000 2365.00 2451.31 48.63
6541 75.3100 2395.00 2440.30 48.94
6542 75.3200 2402.00 2429.84 49.01
6543 75.3300 2404.00 2420.22 49.03
6544 75.3400 2372.00 2412.01 48.70
6545 75.3500 2428.00 2405.28 49.27
6546 75.3600 2385.00 2400.09 48.84
6547 75.3700 2351.00 2396.44 48.49
6548 75.3800 2399.00 2394.23 48.98
6549 75.3900 2382.00 2393.32 48.81
6550 75.4000 2372.00 2393.48 48.70
6551 75.4100 2412.00 2394.55 49.11
6552 75.4200 2465.00 2396.26 49.65
6553 75.4300 2471.00 2398.29 49.71
6554 75.4400 2487.00 2400.36 49.87
6555 75.4500 2412.00 2402.15 49.11
6556 75.4600 2345.00 2403.39 48.43
6557 75.4700 2419.00 2403.84 49.18
6558 75.4800 2415.00 2403.39 49.14
6559 75.4900 2405.00 2402.06 49.04
6560 75.5000 2356.00 2400.02 48.54
6561 75.5100 2319.00 2397.47 48.16
6562 75.5200 2427.00 2394.65 49.26
6563 75.5300 2403.00 2391.77 49.02
6564 75.5400 2354.00 2388.99 48.52
6565 75.5500 2319.00 2386.43 48.16
6566 75.5600 2359.00 2384.16 48.57
6567 75.5700 2258.00 2382.22 47.52
6568 75.5800 2342.00 2380.64 48.39
6569 75.5900 2384.00 2379.41 48.83
6570 75.6000 2404.00 2378.53 49.03
6571 75.6100 2409.00 2378.03 49.08
6572 75.6200 2391.00 2377.95 48.90
6573 75.6300 2378.00 2378.31 48.76
6574 75.6400 2457.00 2379.32 49.57
6575 75.6500 2335.00 2381.02 48.32
6576 75.6600 2408.00 2383.59 49.07
6577 75.6700 2451.00 2387.10 49.51
6578 75.6800 2258.00 2391.70 47.52
6579 75.6900 2383.00 2397.51 48.82
6580 75.7000 2345.00 2404.57 48.43
6581 75.7100 2439.00 2412.74 49.39
6582 75.7200 2362.00 2422.14 48.60
6583 75.7300 2361.00 2432.45 48.59
6584 75.7400 2438.00 2443.31 49.38
6585 75.7500 2512.00 2454.24 50.12
6586 75.7600 2440.00 2464.65 49.40
6587 75.7700 2522.00 2473.78 50.22
6588 75.7800 2454.00 2480.82 49.54
6589 75.7900 2476.00 2485.06 49.76
6590 75.8000 2406.00 2486.02 49.05
6591 75.8100 2466.00 2483.61 49.66
6592 75.8200 2467.00 2478.19 49.67
6593 75.8300 2438.00 2470.44 49.38
6594 75.8400 2449.00 2461.19 49.49
6595 75.8500 2415.00 2451.23 49.14
6596 75.8600 2452.00 2441.35 49.52
6597 75.8700 2428.00 2432.11 49.27
6598 75.8800 2396.00 2423.74 48.95
6599 75.8900 2442.00 2417.06 49.42
6600 75.9000 2473.00 2412.04 49.73
6601 75.9100 2303.00 2408.77 47.99
6602 75.9200 2403.00 2407.23 49.02
6603 75.9300 2375.00 2407.27 48.73
6604 75.9400 2321.00 2408.80 48.18
6605 75.9500 2460.00 2411.48 49.60
6606 75.9600 2468.00 2414.99 49.68
6607 75.9700 2311.00 2418.91 48.07
6608 75.9800 2436.00 2422.82 49.36
6609 75.9900 2393.00 2426.27 48.92
6610 76.0000 2466.00 2428.79 49.66
6611 76.0100 2388.00 2430.01 48.87
6612 76.0200 2388.00 2429.67 48.87
6613 76.0300 2410.00 2427.70 49.09
6614 76.0400 2436.00 2424.26 49.36
6615 76.0500 2474.00 2419.67 49.74
6616 76.0600 2395.00 2414.31 48.94
6617 76.0700 2410.00 2408.57 49.09
6618 76.0800 2419.00 2402.80 49.18
6619 76.0900 2436.00 2397.24 49.36
6620 76.1000 2393.00 2391.99 48.92
6621 76.1100 2366.00 2387.42 48.64
6622 76.1200 2424.00 2383.47 49.23
6623 76.1300 2376.00 2380.17 48.74
6624 76.1400 2317.00 2377.49 48.14
6625 76.1500 2335.00 2375.38 48.32
6626 76.1600 2347.00 2373.76 48.45
6627 76.1700 2332.00 2372.55 48.29
6628 76.1800 2367.00 2371.65 48.65
6629 76.1900 2366.00 2370.98 48.64
6630 76.2000 2278.00 2370.33 47.73
6631 76.2100 2369.00 2369.91 48.67
6632 76.2200 2399.00 2369.55 48.98
6633 76.2300 2470.00 2369.22 49.70
6634 76.2400 2351.00 2368.91 48.49
6635 76.2500 2301.00 2368.62 47.97
6636 76.2600 2357.00 2368.35 48.55
6637 76.2700 2432.00 2368.09 49.32
6638 76.2800 2292.00 2367.82 47.87
6639 76.2900 2296.00 2367.56 47.92
6640 76.3000 2493.00 2367.30 49.93
6641 76.3100 2384.00 2367.02 48.83
6642 76.3200 2350.00 2366.75 48.48
6643 76.3300 2335.00 2366.48 48.32
6644 76.3400 2269.00 2366.23 47.63
6645 76.3500 2400.00 2366.00 48.99
6646 76.3600 2352.00 2365.81 48.50
6647 76.3700 2431.00 2365.65 49.31
6648 76.3800 2316.00 2365.53 48.12
6649 76.3900 2332.00 2365.46 48.29
6650 76.4000 2387.00 2365.44 48.86
6651 76.4100 2403.00 2365.47 49.02
6652 76.4200 2341.00 2365.50 48.38
6653 76.4300 2423.00 2365.57 49.22
6654 76.4400 2407.00 2365.82 49.06
6655 76.4500 2279.00 2366.17 47.74
6656 76.4600 2337.00 2366.62 48.34
6657 76.4700 2364.00 2367.22 48.62
6658 76.4800 2375.00 2367.97 48.73
6659 76.4900 2435.00 2368.90 49.35
6660 76.5000 2447.00 2370.03 49.47
6661 76.5100 2440.00 2371.37 49.40
6662 76.5200 2370.00 2372.95 48.68
6663 76.5300 2406.00 2374.74 49.05
6664 76.5400 2385.00 2376.75 48.84
6665 76.5500 2402.00 2378.92 49.01
6666 76.5600 2353.00 2381.21 48.51
6667 76.5700 2351.00 2383.52 48.49
6668 76.5800 2340.00 2385.74 48.37
6669 76.5900 2456.00 2387.72 49.56
6670 76.6000 2330.00 2389.32 48.27
6671 76.6100 2380.00 2390.37 48.79
6672 76.6200 2429.00 2390.76 49.28
6673 76.6300 2416.00 2390.47 49.15
6674 76.6400 2332.00 2389.53 48.29
6675 76.6500 2363.00 2388.06 48.61
6676 76.6600 2318.00 2386.30 48.15
6677 76.6700 2295.00 2384.39 47.91
6678 76.6800 2421.00 2382.52 49.20
6679 76.6900 2402.00 2380.81 49.01
6680 76.7000 2390.00 2379.42 48.89
6681 76.7100 2269.00 2378.43 47.63
6682 76.7200 2335.00 2377.91 48.32
6683 76.7300 2368.00 2377.95 48.66
6684 76.7400 2341.00 2378.56 48.38
6685 76.7500 2361.00 2379.77 48.59
6686 76.7600 2366.00 2381.71 48.64
6687 76.7700 2439.00 2384.02 49.39
6688 76.7800 2455.00 2386.77 49.55
6689 76.7900 2377.00 2389.85 48.75
6690 76.8000 2402.00 2393.12 49.01
6691 76.8100 2404.00 2396.45 49.03
6692 76.8200 2418.00 2399.48 49.17
6693 76.8300 2364.00 2402.02 48.62
6694 76.8400 2478.00 2403.84 49.78
6695 76.8500 2458.00 2404.72 49.58
6696 76.8600 2410.00 2404.56 49.09
6697 76.8700 2255.00 2403.38 47.49
6698 76.8800 2333.00 2401.31 48.30
6699 76.8900 2398.00 2398.57 48.97
6700 76.9000 2419.00 2395.41 49.18
6701 76.9100 2401.00 2392.09 49.00
6702 76.9200 2321.00 2388.77 48.18
6703 76.9300 2408.00 2385.65 49.07
6704 76.9400 2379.00 2382.84 48.78
6705 76.9500 2397.00 2380.43 48.96
6706 76.9600 2501.00 2378.49 50.01
6707 76.9700 2436.00 2377.03 49.36
6708 76.9800 2403.00 2376.05 49.02
6709 76.9900 2366.00 2375.38 48.64
6710 77.0000 2371.00 2375.25 48.69
6711 77.0100 2419.00 2375.48 49.18
6712 77.0200 2312.00 2375.98 48.08
6713 77.0300 2339.00 2376.67 48.36
6714 77.0400 2317.00 2377.46 48.14
6715 77.0500 2346.00 2378.26 48.44
6716 77.0600 2323.00 2378.94 48.20
6717 77.0700 2349.00 2379.43 48.47
6718 77.0800 2350.00 2379.62 48.48
6719 77.0900 2397.00 2379.48 48.96
6720 77.1000 2336.00 2379.00 48.33
6721 77.1100 2390.00 2378.24 48.89
6722 77.1200 2282.00 2377.25 47.77
6723 77.1300 2328.00 2376.16 48.25
6724 77.1400 2411.00 2374.97 49.10
6725 77.1500 2346.00 2373.78 48.44
6726 77.1600 2387.00 2372.64 48.86
6727 77.1700 2344.00 2371.59 48.41
6728 77.1800 2337.00 2370.65 48.34
6729 77.1900 2220.00 2369.83 47.12
6730 77.2000 2373.00 2369.15 48.71
6731 77.2100 2330.00 2368.51 48.27
6732 77.2200 2342.00 2368.07 48.39
6733 77.2300 2390.00 2367.72 48.89
6734 77.2400 2356.00 2367.45 48.54
6735 77.2500 2324.00 2367.26 48.21
6736 77.2600 2344.00 2367.13 48.41
6737 77.2700 2323.00 2367.04 48.20
6738 77.2800 2360.00 2366.99 48.58
6739 77.2900 2362.00 2366.96 48.60
6740 77.3000 2290.00 2366.95 47.85
6741 77.3100 2352.00 2366.97 48.50
6742 77.3200 2345.00 2366.99 48.43
6743 77.3300 2437.00 2367.02 49.37
6744 77.3400 2342.00 2367.06 48.39
6745 77.3500 2352.00 2367.10 48.50
6746 77.3600 2292.00 2367.15 47.87
6747 77.3700 2316.00 2367.21 48.12
6748 77.3800 2334.00 2367.28 48.31
6749 77.3900 2418.00 2367.35 49.17
6750 77.4000 2357.00 2367.43 48.55
6751 77.4100 2490.00 2367.51 49.90
6752 77.4200 2375.00 2367.61 48.73
6753 77.4300 2386.00 2367.71 48.85
6754 77.4400 2446.00 2367.82 49.46
6755 77.4500 2340.00 2367.93 48.37
6756 77.4600 2304.00 2368.06 48.00
6757 77.4700 2252.00 2368.20 47.46
6758 77.4800 2316.00 2368.35 48.12
6759 77.4900 2322.00 2368.52 48.19
6760 77.5000 2403.00 2368.70 49.02
6761 77.5100 2362.00 2368.91 48.60
6762 77.5200 2347.00 2369.14 48.45
6763 77.5300 2367.00 2369.41 48.65
6764 77.5400 2308.00 2369.72 48.04
6765 77.5500 2360.00 2370.07 48.58
6766 77.5600 2462.00 2370.49 49.62
6767 77.5700 2330.00 2370.98 48.27
6768 77.5800 2335.00 2371.58 48.32
6769 77.5900 2411.00 2372.30 49.10
6770 77.6000 2425.00 2373.17 49.24
6771 77.6100 2344.00 2374.25 48.41
6772 77.6200 2384.00 2375.57 48.83
6773 77.6300 2414.00 2377.20 49.13
6774 77.6400 2398.00 2379.22 48.97
6775 77.6500 2378.00 2381.68 48.76
6776 77.6600 2391.00 2384.69 48.90
6777 77.6700 2331.00 2388.31 48.28
6778 77.6800 2400.00 2392.62 48.99
6779 77.6900 2281.00 2397.69 47.76
6780 77.7000 2421.00 2403.54 49.20
6781 77.7100 2436.00 2410.16 49.36
6782 77.7200 2488.00 2417.49 49.88
6783 77.7300 2469.00 2425.41 49.69
6784 77.7400 2455.00 2433.70 49.55
6785 77.7500 2440.00 2442.07 49.40
6786 77.7600 2400.00 2450.15 48.99
6787 77.7700 2352.00 2457.91 48.50
6788 77.7800 2454.00 2464.11 49.54
6789 77.7900 2466.00 2468.62 49.66
6790 77.8000 2413.00 2471.05 49.12
6791 77.8100 2450.00 2471.12 49.50
6792 77.8200 2399.00 2468.98 48.98
6793 77.8300 2442.00 2464.57 49.42
6794 77.8400 2474.00 2458.56 49.74
6795 77.8500 2436.00 2451.46 49.36
6796 77.8600 2504.00 2443.83 50.04
6797 77.8700 2361.00 2436.20 48.59
6798 77.8800 2439.00 2428.99 49.39
6799 77.8900 2454.00 2422.53 49.54
6800 77.9000 2453.00 2417.16 49.53
6801 77.9100 2428.00 2412.89 49.27
6802 77.9200 2422.00 2409.89 49.21
6803 77.9300 2430.00 2408.31 49.29
6804 77.9400 2348.00 2407.83 48.46
6805 77.9500 2380.00 2408.49 48.79
6806 77.9600 2456.00 2410.14 49.56
6807 77.9700 2480.00 2412.59 49.80
6808 77.9800 2433.00 2415.62 49.33
6809 77.9900 2394.00 2418.97 48.93
6810 78.0000 2436.00 2422.37 49.36
6811 78.0100 2401.00 2425.55 49.00
6812 78.0200 2438.00 2428.23 49.38
6813 78.0300 2547.00 2430.17 50.47
6814 78.0400 2351.00 2431.22 48.49
6815 78.0500 2443.00 2431.33 49.43
6816 78.0600 2378.00 2430.59 48.76
6817 78.0700 2318.00 2429.12 48.15
6818 78.0800 2460.00 2427.17 49.60
6819 78.0900 2396.00 2424.85 48.95
6820 78.1000 2449.00 2422.28 49.49
6821 78.1100 2441.00 2419.54 49.41
6822 78.1200 2327.00 2416.68 48.24
6823 78.1300 2495.00 2413.62 49.95
6824 78.1400 2406.00 2410.45 49.05
6825 78.1500 2288.00 2407.23 47.83
6826 78.1600 2385.00 2404.07 48.84
6827 78.1700 2421.00 2401.09 49.20
6828 78.1800 2387.00 2398.41 48.86
6829 78.1900 2372.00 2396.12 48.70
6830 78.2000 2464.00 2394.29 49.64
6831 78.2100 2578.00 2392.97 50.77
6832 78.2200 2479.00 2392.17 49.79
6833 78.2300 2374.00 2391.89 48.72
6834 78.2400 2321.00 2392.10 48.18
6835 78.2500 2436.00 2392.74 49.36
6836 78.2600 2406.00 2393.72 49.05
6837 78.2700 2407.00 2394.94 49.06
6838 78.2800 2370.00 2396.27 48.68
6839 78.2900 2375.00 2397.56 48.73
6840 78.3000 2446.00 2398.64 49.46
6841 78.3100 2388.00 2399.44 48.87
6842 78.3200 2444.00 2399.86 49.44
6843 78.3300 2420.00 2399.85 49.19
6844 78.3400 2393.00 2399.44 48.92
6845 78.3500 2481.00 2398.63 49.81
6846 78.3600 2471.00 2397.48 49.71
6847 78.3700 2424.00 2396.05 49.23
6848 78.3800 2465.00 2394.42 49.65
6849 78.3900 2413.00 2392.69 49.12
6850 78.4000 2388.00 2390.96 48.87
6851 78.4100 2393.00 2389.49 48.92
6852 78.4200 2443.00 2388.04 49.43
6853 78.4300 2302.00 2386.82 47.98
6854 78.4400 2318.00 2385.88 48.15
6855 78.4500 2293.00 2385.21 47.89
6856 78.4600 2376.00 2384.82 48.74
6857 78.4700 2319.00 2384.69 48.16
6858 78.4800 2372.00 2384.97 48.70
6859 78.4900 2437.00 2385.25 49.37
6860 78.5000 2411.00 2385.69 49.10
6861 78.5100 2384.00 2386.15 48.83
6862 78.5200 2363.00 2386.60 48.61
6863 78.5300 2415.00 2386.98 49.14
6864 78.5400 2387.00 2387.26 48.86
6865 78.5500 2339.00 2387.40 48.36
6866 78.5600 2403.00 2387.42 49.02
6867 78.5700 2418.00 2387.37 49.17
6868 78.5800 2331.00 2387.28 48.28
6869 78.5900 2357.00 2387.24 48.55
6870 78.6000 2367.00 2387.30 48.65
6871 78.6100 2334.00 2387.54 48.31
6872 78.6200 2500.00 2388.04 50.00
6873 78.6300 2380.00 2388.90 48.79
6874 78.6400 2341.00 2390.22 48.38
6875 78.6500 2409.00 2392.14 49.08
6876 78.6600 2308.00 2394.81 48.04
6877 78.6700 2421.00 2398.42 49.20
6878 78.6800 2449.00 2403.16 49.49
6879 78.6900 2468.00 2409.26 49.68
6880 78.7000 2365.00 2416.95 48.63
6881 78.7100 2422.00 2426.43 49.21
6882 78.7200 2414.00 2437.86 49.13
6883 78.7300 2451.00 2451.36 49.51
6884 78.7400 2467.00 2466.92 49.67
6885 78.7500 2494.00 2484.39 49.94
6886 78.7600 2509.00 2503.54 50.09
6887 78.7700 2481.00 2523.87 49.81
6888 78.7800 2517.00 2544.80 50.17
6889 78.7900 2667.00 2565.40 51.64
6890 78.8000 2618.00 2584.76 51.17
6891 78.8100 2536.00 2601.72 50.36
6892 78.8200 2513.00 2615.09 50.13
6893 78.8300 2547.00 2623.87 50.47
6894 78.8400 2596.00 2627.49 50.95
6895 78.8500 2699.00 2625.94 51.95
6896 78.8600 2504.00 2619.83 50.04
6897 78.8700 2670.00 2610.18 51.67
6898 78.8800 2547.00 2598.14 50.47
6899 78.8900 2590.00 2584.78 50.89
6900 78.9000 2570.00 2571.06 50.70
6901 78.9100 2437.00 2557.66 49.37
6902 78.9200 2505.00 2545.14 50.05
6903 78.9300 2561.00 2533.91 50.61
6904 78.9400 2490.00 2524.23 49.90
6905 78.9500 2529.00 2516.36 50.29
6906 78.9600 2480.00 2510.51 49.80
6907 78.9700 2388.00 2506.87 48.87
6908 78.9800 2520.00 2505.57 50.20
6909 78.9900 2624.00 2506.63 51.22
6910 79.0000 2480.00 2510.00 49.80
6911 79.0100 2511.00 2515.43 50.11
6912 79.0200 2529.00 2522.65 50.29
6913 79.0300 2593.00 2530.93 50.92
6914 79.0400 2642.00 2539.93 51.40
6915 79.0500 2535.00 2548.86 50.35
6916 79.0600 2560.00 2556.96 50.60
6917 79.0700 2470.00 2563.59 49.70
6918 79.0800 2573.00 2568.33 50.72
6919 79.0900 2570.00 2570.95 50.70
6920 79.1000 2589.00 2571.40 50.88
6921 79.1100 2565.00 2569.72 50.65
6922 79.1200 2531.00 2565.84 50.31
6923 79.1300 2531.00 2559.78 50.31
6924 79.1400 2474.00 2551.62 49.74
6925 79.1500 2435.00 2541.56 49.35
6926 79.1600 2471.00 2529.95 49.71
6927 79.1700 2404.00 2517.29 49.03
6928 79.1800 2478.00 2504.09 49.78
6929 79.1900 2494.00 2490.84 49.94
6930 79.2000 2468.00 2478.03 49.68
6931 79.2100 2516.00 2466.04 50.16
6932 79.2200 2452.00 2455.22 49.52
6933 79.2300 2332.00 2445.78 48.29
6934 79.2400 2501.00 2437.86 50.01
6935 79.2500 2410.00 2431.57 49.09
6936 79.2600 2373.00 2426.89 48.71
6937 79.2700 2457.00 2423.73 49.57
6938 79.2800 2485.00 2422.11 49.85
6939 79.2900 2431.00 2421.85 49.31
6940 79.3000 2452.00 2422.80 49.52
6941 79.3100 2520.00 2424.82 50.20
6942 79.3200 2448.00 2427.72 49.48
6943 79.3300 2511.00 2431.33 50.11
6944 79.3400 2428.00 2435.48 49.27
6945 79.3500 2413.00 2440.00 49.12
6946 79.3600 2461.00 2444.75 49.61
6947 79.3700 2400.00 2449.67 48.99
6948 79.3800 2427.00 2454.85 49.26
6949 79.3900 2456.00 2460.39 49.56
6950 79.4000 2519.00 2466.52 50.19
6951 79.4100 2432.00 2473.41 49.32
6952 79.4200 2519.00 2481.20 50.19
6953 79.4300 2497.00 2489.90 49.97
6954 79.4400 2534.00 2499.38 50.34
6955 79.4500 2550.00 2509.33 50.50
6956 79.4600 2579.00 2519.30 50.78
6957 79.4700 2521.00 2528.64 50.21
6958 79.4800 2509.00 2536.60 50.09
6959 79.4900 2516.00 2542.41 50.16
6960 79.5000 2532.00 2545.36 50.32
6961 79.5100 2545.00 2545.00 50.45
6962 79.5200 2476.00 2541.21 49.76
6963 79.5300 2478.00 2534.25 49.78
6964 79.5400 2534.00 2524.68 50.34
6965 79.5500 2484.00 2513.24 49.84
6966 79.5600 2482.00 2500.77 49.82
6967 79.5700 2431.00 2488.02 49.31
6968 79.5800 2449.00 2475.70 49.49
6969 79.5900 2505.00 2464.35 50.05
6970 79.6000 2456.00 2454.38 49.56
6971 79.6100 2465.00 2446.16 49.65
6972 79.6200 2480.00 2439.85 49.80
6973 79.6300 2443.00 2435.53 49.43
6974 79.6400 2457.00 2433.19 49.57
6975 79.6500 2384.00 2432.70 48.83
6976 79.6600 2484.00 2433.88 49.84
6977 79.6700 2388.00 2436.46 48.87
6978 79.6800 2508.00 2440.12 50.08
6979 79.6900 2393.00 2444.48 48.92
6980 79.7000 2512.00 2449.10 50.12
6981 79.7100 2415.00 2453.50 49.14
6982 79.7200 2405.00 2457.20 49.04
6983 79.7300 2422.00 2459.76 49.21
6984 79.7400 2490.00 2460.80 49.90
6985 79.7500 2422.00 2460.13 49.21
6986 79.7600 2421.00 2457.74 49.20
6987 79.7700 2424.00 2453.80 49.23
6988 79.7800 2406.00 2448.58 49.05
6989 79.7900 2460.00 2442.51 49.60
6990 79.8000 2420.00 2435.93 49.19
6991 79.8100 2448.00 2429.20 49.48
6992 79.8200 2404.00 2422.67 49.03
6993 79.8300 2318.00 2416.47 48.15
6994 79.8400 2388.00 2410.81 48.87
6995 79.8500 2358.00 2405.82 48.56
6996 79.8600 2386.00 2401.55 48.85
6997 79.8700 2406.00 2398.03 49.05
6998 79.8800 2440.00 2395.26 49.40
6999 79.8900 2408.00 2393.21 49.07
7000 79.9000 2467.00 2391.84 49.67
7001 79.9100 2331.00 2391.11 48.28
7002 79.9200 2465.00 2390.99 49.65
7003 79.9300 2406.00 2391.42 49.05
7004 79.9400 2394.00 2392.38 48.93
7005 79.9500 2519.00 2393.82 50.19
7006 79.9600 2422.00 2395.71 49.21
7007 79.9700 2384.00 2398.00 48.83
7008 79.9800 2512.00 2400.65 50.12
7009 79.9900 2395.00 2403.57 48.94
7010 80.0000 2374.00 2406.68 48.72
7011 80.0100 2424.00 2409.88 49.23
7012 80.0200 2393.00 2413.02 48.92
7013 80.0300 2411.00 2415.96 49.10
7014 80.0400 2383.00 2418.58 48.82
7015 80.0500 2360.00 2420.75 48.58
7016 80.0600 2395.00 2422.46 48.94
7017 80.0700 2389.00 2423.66 48.88
7018 80.0800 2321.00 2424.56 48.18
7019 80.0900 2414.00 2424.97 49.13
7020 80.1000 2426.00 2425.06 49.25
7021 80.1100 2509.00 2424.82 50.09
7022 80.1200 2353.00 2424.23 48.51
7023 80.1300 2403.00 2423.25 49.02
7024 80.1400 2382.00 2421.85 48.81
7025 80.1500 2433.00 2420.06 49.33
7026 80.1600 2403.00 2417.95 49.02
7027 80.1700 2458.00 2415.66 49.58
7028 80.1800 2359.00 2413.34 48.57
7029 80.1900 2441.00 2411.09 49.41
7030 80.2000 2453.00 2409.14 49.53
7031 80.2100 2448.00 2407.55 49.48
7032 80.2200 2408.00 2406.37 49.07
7033 80.2300 2349.00 2405.63 48.47
7034 80.2400 2385.00 2405.34 48.84
7035 80.2500 2510.00 2405.46 50.10
7036 80.2600 2415.00 2405.93 49.14
7037 80.2700 2314.00 2406.65 48.10
7038 80.2800 2357.00 2407.56 48.55
7039 80.2900 2336.00 2408.53 48.33
7040 80.3000 2355.00 2409.52 48.53
7041 80.3100 2404.00 2410.46 49.03
7042 80.3200 2403.00 2411.38 49.02
7043 80.3300 2427.00 2412.10 49.26
7044 80.3400 2342.00 2412.62 48.39
7045 80.3500 2395.00 2412.85 48.94
7046 80.3600 2410.00 2412.72 49.09
7047 80.3700 2367.00 2412.13 48.65
7048 80.3800 2353.00 2411.04 48.51
7049 80.3900 2450.00 2409.37 49.50
7050 80.4000 2497.00 2407.38 49.97
7051 80.4100 2307.00 2405.09 48.03
7052 80.4200 2485.00 2402.61 49.85
7053 80.4300 2381.00 2400.06 48.80
7054 80.4400 2365.00 2397.59 48.63
7055 80.4500 2485.00 2395.27 49.85
7056 80.4600 2381.00 2393.23 48.80
7057 80.4700 2390.00 2391.39 48.89
7058 80.4800 2365.00 2389.84 48.63
7059 80.4900 2400.00 2388.61 48.99
7060 80.5000 2441.00 2387.69 49.41
7061 80.5100 2380.00 2387.09 48.79
7062 80.5200 2416.00 2386.78 49.15
7063 80.5300 2380.00 2386.76 48.79
7064 80.5400 2423.00 2386.99 49.22
7065 80.5500 2396.00 2387.43 48.95
7066 80.5600 2360.00 2388.06 48.58
7067 80.5700 2338.00 2388.83 48.35
7068 80.5800 2480.00 2389.70 49.80
7069 80.5900 2302.00 2390.62 47.98
7070 80.6000 2372.00 2391.54 48.70
7071 80.6100 2409.00 2392.40 49.08
7072 80.6200 2384.00 2393.17 48.83
7073 80.6300 2414.00 2393.76 49.13
7074 80.6400 2380.00 2394.24 48.79
7075 80.6500 2385.00 2394.57 48.84
7076 80.6600 2425.00 2394.66 49.24
7077 80.6700 2427.00 2394.53 49.26
7078 80.6800 2345.00 2394.16 48.43
7079 80.6900 2422.00 2393.59 49.21
7080 80.7000 2369.00 2392.84 48.67
7081 80.7100 2437.00 2391.96 49.37
7082 80.7200 2459.00 2391.01 49.59
7083 80.7300 2383.00 2390.05 48.82
7084 80.7400 2486.00 2389.12 49.86
7085 80.7500 2451.00 2388.27 49.51
7086 80.7600 2425.00 2387.40 49.24
7087 80.7700 2430.00 2386.77 49.29
7088 80.7800 2355.00 2386.20 48.53
7089 80.7900 2474.00 2385.86 49.74
7090 80.8000 2374.00 2385.67 48.72
7091 80.8100 2422.00 2385.63 49.21
7092 80.8200 2450.00 2385.73 49.50
7093 80.8300 2395.00 2385.95 48.94
7094 80.8400 2350.00 2386.29 48.48
7095 80.8500 2432.00 2386.72 49.32
7096 80.8600 2410.00 2387.23 49.09
7097 80.8700 2397.00 2387.79 48.96
7098 80.8800 2449.00 2388.39 49.49
7099 80.8900 2338.00 2389.00 48.35
7100 80.9000 2414.00 2389.61 49.13
7101 80.9100 2459.00 2390.21 49.59
7102 80.9200 2463.00 2390.81 49.63
7103 80.9300 2383.00 2391.42 48.82
7104 80.9400 2465.00 2392.10 49.65
7105 80.9500 2414.00 2392.89 49.13
7106 80.9600 2370.00 2393.86 48.68
7107 80.9700 2407.00 2395.08 49.06
7108 80.9800 2354.00 2396.61 48.52
7109 80.9900 2329.00 2398.50 48.26
7110 81.0000 2427.00 2400.74 49.26
7111 81.0100 2486.00 2403.46 49.86
7112 81.0200 2329.00 2406.60 48.26
7113 81.0300 2441.00 2410.07 49.41
7114 81.0400 2421.00 2413.89 49.20
7115 81.0500 2517.00 2417.91 50.17
7116 81.0600 2522.00 2422.00 50.22
7117 81.0700 2503.00 2425.96 50.03
7118 81.0800 2420.00 2429.58 49.19
7119 81.0900 2492.00 2432.66 49.92
7120 81.1000 2517.00 2434.97 50.17
7121 81.1100 2413.00 2436.36 49.12
7122 81.1200 2544.00 2436.80 50.44
7123 81.1300 2457.00 2436.37 49.57
7124 81.1400 2377.00 2435.26 48.75
7125 81.1500 2427.00 2433.78 49.26
7126 81.1600 2516.00 2432.24 50.16
7127 81.1700 2464.00 2430.99 49.64
7128 81.1800 2512.00 2430.39 50.12
7129 81.1900 2493.00 2430.80 49.93
7130 81.2000 2416.00 2432.58 49.15
7131 81.2100 2483.00 2436.10 49.83
7132 81.2200 2426.00 2441.71 49.25
7133 81.2300 2436.00 2449.77 49.36
7134 81.2400 2495.00 2460.58 49.95
7135 81.2500 2513.00 2474.38 50.13
7136 81.2600 2461.00 2491.31 49.61
7137 81.2700 2550.00 2511.38 50.50
7138 81.2800 2637.00 2534.46 51.35
7139 81.2900 2600.00 2560.15 50.99
7140 81.3000 2676.00 2587.90 51.73
7141 81.3100 2558.00 2616.90 50.58
7142 81.3200 2600.00 2645.96 50.99
7143 81.3300 2691.00 2673.84 51.87
7144 81.3400 2644.00 2698.91 51.42
7145 81.3500 2656.00 2719.48 51.54
7146 81.3600 2693.00 2733.82 51.89
7147 81.3700 2716.00 2740.66 52.12
7148 81.3800 2598.00 2739.40 50.97
7149 81.3900 2711.00 2730.27 52.07
7150 81.4000 2635.00 2714.34 51.33
7151 81.4100 2575.00 2693.19 50.74
7152 81.4200 2582.00 2668.57 50.81
7153 81.4300 2631.00 2642.38 51.29
7154 81.4400 2546.00 2616.07 50.46
7155 81.4500 2450.00 2591.02 49.50
7156 81.4600 2540.00 2568.26 50.40
7157 81.4700 2513.00 2548.56 50.13
7158 81.4800 2589.00 2532.49 50.88
7159 81.4900 2535.00 2520.33 50.35
7160 81.5000 2429.00 2512.18 49.28
7161 81.5100 2570.00 2507.97 50.70
7162 81.5200 2533.00 2507.47 50.33
7163 81.5300 2540.00 2510.30 50.40
7164 81.5400 2500.00 2516.04 50.00
7165 81.5500 2517.00 2524.15 50.17
7166 81.5600 2568.00 2533.99 50.68
7167 81.5700 2526.00 2544.85 50.26
7168 81.5800 2642.00 2555.95 51.40
7169 81.5900 2600.00 2566.39 50.99
7170 81.6000 2641.00 2575.36 51.39
7171 81.6100 2570.00 2581.89 50.70
7172 81.6200 2617.00 2585.42 51.16
7173 81.6300 2521.00 2585.73 50.21
7174 81.6400 2673.00 2582.95 51.70
7175 81.6500 2579.00 2577.48 50.78
7176 81.6600 2549.00 2569.88 50.49
7177 81.6700 2536.00 2560.73 50.36
7178 81.6800 2517.00 2550.46 50.17
7179 81.6900 2549.00 2539.39 50.49
7180 81.7000 2563.00 2527.79 50.63
7181 81.7100 2471.00 2515.85 49.71
7182 81.7200 2519.00 2503.81 50.19
7183 81.7300 2517.00 2491.90 50.17
7184 81.7400 2423.00 2480.35 49.22
7185 81.7500 2433.00 2469.41 49.33
7186 81.7600 2488.00 2459.24 49.88
7187 81.7700 2475.00 2449.97 49.75
7188 81.7800 2394.00 2441.68 48.93
7189 81.7900 2390.00 2434.42 48.89
7190 81.8000 2421.00 2428.18 49.20
7191 81.8100 2495.00 2422.98 49.95
7192 81.8200 2397.00 2418.79 48.96
7193 81.8300 2365.00 2415.56 48.63
7194 81.8400 2298.00 2413.23 47.94
7195 81.8500 2406.00 2411.72 49.05
7196 81.8600 2389.00 2410.95 48.88
7197 81.8700 2436.00 2410.82 49.36
7198 81.8800 2460.00 2411.22 49.60
7199 81.8900 2364.00 2412.00 48.62
7200 81.9000 2388.00 2413.04 48.87
7201 81.9100 2424.00 2414.18 49.23
7202 81.9200 2444.00 2415.27 49.44
7203 81.9300 2409.00 2416.13 49.08
7204 81.9400 2358.00 2416.62 48.56
7205 81.9500 2398.00 2416.61 48.97
7206 81.9600 2408.00 2416.03 49.07
7207 81.9700 2394.00 2414.92 48.93
7208 81.9800 2351.00 2413.31 48.49
7209 81.9900 2393.00 2411.33 48.92
7210 82.0000 2464.00 2409.10 49.64
7211 82.0100 2334.00 2406.73 48.31
7212 82.0200 2366.00 2404.33 48.64
7213 82.0300 2385.00 2402.00 48.84
7214 82.0400 2266.00 2399.80 47.60
7215 82.0500 2396.00 2397.78 48.95
7216 82.0600 2376.00 2395.96 48.74
7217 82.0700 2478.00 2394.36 49.78
7218 82.0800 2342.00 2392.99 48.39
7219 82.0900 2401.00 2391.83 49.00
7220 82.1000 2406.00 2390.88 49.05
7221 82.1100 2474.00 2390.10 49.74
7222 82.1200 2433.00 2389.47 49.33
7223 82.1300 2436.00 2388.97 49.36
7224 82.1400 2463.00 2388.58 49.63
7225 82.1500 2459.00 2388.27 49.59
7226 82.1600 2387.00 2388.03 48.86
7227 82.1700 2437.00 2387.84 49.37
7228 82.1800 2321.00 2387.69 48.18
7229 82.1900 2306.00 2387.58 48.02
7230 82.2000 2318.00 2387.49 48.15
7231 82.2100 2402.00 2387.41 49.01
7232 82.2200 2477.00 2387.36 49.77
7233 82.2300 2329.00 2387.31 48.26
7234 82.2400 2376.00 2387.29 48.74
7235 82.2500 2378.00 2387.27 48.76
7236 82.2600 2480.00 2387.26 49.80
7237 82.2700 2285.00 2387.26 47.80
7238 82.2800 2379.00 2387.26 48.78
7239 82.2900 2338.00 2387.34 48.35
7240 82.3000 2435.00 2387.37 49.35
7241 82.3100 2397.00 2387.40 48.96
7242 82.3200 2344.00 2387.44 48.41
7243 82.3300 2389.00 2387.49 48.88
7244 82.3400 2399.00 2387.55 48.98
7245 82.3500 2316.00 2387.62 48.12
7246 82.3600 2325.00 2387.70 48.22
7247 82.3700 2324.00 2387.79 48.21
7248 82.3800 2408.00 2387.90 49.07
7249 82.3900 2407.00 2388.01 49.06
7250 82.4000 2371.00 2388.15 48.69
7251 82.4100 2366.00 2388.24 48.64
7252 82.4200 2309.00 2388.42 48.05
7253 82.4300 2334.00 2388.63 48.31
7254 82.4400 2315.00 2388.88 48.11
7255 82.4500 2373.00 2389.18 48.71
7256 82.4600 2350.00 2389.56 48.48
7257 82.4700 2398.00 2390.03 48.97
7258 82.4800 2348.00 2390.62 48.46
7259 82.4900 2461.00 2391.37 49.61
7260 82.5000 2438.00 2392.33 49.38
7261 82.5100 2381.00 2393.57 48.80
7262 82.5200 2356.00 2395.10 48.54
7263 82.5300 2309.00 2397.00 48.05
7264 82.5400 2347.00 2399.34 48.45
7265 82.5500 2372.00 2402.16 48.70
7266 82.5600 2417.00 2405.51 49.16
7267 82.5700 2402.00 2409.40 49.01
7268 82.5800 2448.00 2413.84 49.48
7269 82.5900 2401.00 2418.79 49.00
7270 82.6000 2440.00 2424.17 49.40
7271 82.6100 2553.00 2429.85 50.53
7272 82.6200 2438.00 2435.67 49.38
7273 82.6300 2455.00 2441.40 49.55
7274 82.6400 2453.00 2446.78 49.53
7275 82.6500 2506.00 2451.50 50.06
7276 82.6600 2521.00 2455.23 50.21
7277 82.6700 2463.00 2457.70 49.63
7278 82.6800 2503.00 2458.30 50.03
7279 82.6900 2449.00 2457.76 49.49
7280 82.7000 2417.00 2455.73 49.16
7281 82.7100 2562.00 2452.43 50.62
7282 82.7200 2503.00 2448.17 50.03
7283 82.7300 2467.00 2443.27 49.67
7284 82.7400 2459.00 2438.07 49.59
7285 82.7500 2365.00 2432.87 48.63
7286 82.7600 2471.00 2427.92 49.71
7287 82.7700 2376.00 2423.41 48.74
7288 82.7800 2341.00 2419.51 48.38
7289 82.7900 2366.00 2416.34 48.64
7290 82.8000 2455.00 2413.97 49.55
7291 82.8100 2437.00 2412.43 49.37
7292 82.8200 2517.00 2411.70 50.17
7293 82.8300 2421.00 2411.77 49.20
7294 82.8400 2428.00 2412.57 49.27
7295 82.8500 2395.00 2413.98 48.94
7296 82.8600 2507.00 2415.90 50.07
7297 82.8700 2506.00 2418.19 50.06
7298 82.8800 2447.00 2420.68 49.47
7299 82.8900 2375.00 2423.18 48.73
7300 82.9000 2457.00 2425.50 49.57
7301 82.9100 2435.00 2427.45 49.35
7302 82.9200 2317.00 2428.89 48.14
7303 82.9300 2437.00 2429.36 49.37
7304 82.9400 2404.00 2429.38 49.03
7305 82.9500 2455.00 2428.47 49.55
7306 82.9600 2372.00 2426.84 48.70
7307 82.9700 2421.00 2424.61 49.20
7308 82.9800 2487.00 2421.97 49.87
7309 82.9900 2361.00 2418.99 48.59
7310 83.0000 2388.00 2415.86 48.87
7311 83.0100 2393.00 2412.73 48.92
7312 83.0200 2403.00 2409.63 49.02
7313 83.0300 2379.00 2406.79 48.78
7314 83.0400 2446.00 2404.21 49.46
7315 83.0500 2382.00 2401.92 48.81
7316 83.0600 2388.00 2399.94 48.87
7317 83.0700 2407.00 2398.26 49.06
7318 83.0800 2325.00 2396.90 48.22
7319 83.0900 2424.00 2395.81 49.23
7320 83.1000 2536.00 2394.98 50.36
7321 83.1100 2363.00 2394.38 48.61
7322 83.1200 2493.00 2393.96 49.93
7323 83.1300 2459.00 2393.71 49.59
7324 83.1400 2430.00 2393.58 49.29
7325 83.1500 2427.00 2393.56 49.26
7326 83.1600 2353.00 2393.62 48.51
7327 83.1700 2414.00 2393.74 49.13
7328 83.1800 2458.00 2393.89 49.58
7329 83.1900 2434.00 2394.06 49.34
7330 83.2000 2479.00 2394.23 49.79
7331 83.2100 2378.00 2394.39 48.76
7332 83.2200 2438.00 2394.53 49.38
7333 83.2300 2353.00 2394.65 48.51
7334 83.2400 2379.00 2394.75 48.78
7335 83.2500 2490.00 2394.85 49.90
7336 83.2600 2472.00 2394.96 49.72
7337 83.2700 2433.00 2395.05 49.33
7338 83.2800 2292.00 2395.21 47.87
7339 83.2900 2486.00 2395.41 49.86
7340 83.3000 2310.00 2395.64 48.06
7341 83.3100 2437.00 2395.91 49.37
7342 83.3200 2466.00 2396.21 49.66
7343 83.3300 2285.00 2396.53 47.80
7344 83.3400 2386.00 2396.86 48.85
7345 83.3500 2434.00 2397.17 49.34
7346 83.3600 2419.00 2397.45 49.18
7347 83.3700 2473.00 2397.69 49.73
7348 83.3800 2378.00 2397.89 48.76
7349 83.3900 2407.00 2398.07 49.06
7350 83.4000 2363.00 2398.24 48.61
7351 83.4100 2344.00 2398.44 48.41
7352 83.4200 2428.00 2398.73 49.27
7353 83.4300 2398.00 2399.15 48.97
7354 83.4400 2384.00 2399.75 48.83
7355 83.4500 2397.00 2400.59 48.96
7356 83.4600 2438.00 2401.72 49.38
7357 83.4700 2426.00 2403.19 49.25
7358 83.4800 2471.00 2405.03 49.71
7359 83.4900 2409.00 2407.26 49.08
7360 83.5000 2470.00 2409.89 49.70
7361 83.5100 2416.00 2412.90 49.15
7362 83.5200 2440.00 2416.25 49.40
7363 83.5300 2460.00 2419.87 49.60
7364 83.5400 2468.00 2423.65 49.68
7365 83.5500 2526.00 2427.46 50.26
7366 83.5600 2526.00 2431.15 50.26
7367 83.5700 2351.00 2434.51 48.49
7368 83.5800 2408.00 2437.34 49.07
7369 83.5900 2400.00 2439.44 48.99
7370 83.6000 2470.00 2440.62 49.70
7371 83.6100 2368.00 2440.79 48.66
7372 83.6200 2468.00 2439.95 49.68
7373 83.6300 2384.00 2438.20 48.83
7374 83.6400 2432.00 2435.72 49.32
7375 83.6500 2500.00 2432.72 50.00
7376 83.6600 2412.00 2429.41 49.11
7377 83.6700 2403.00 2426.00 49.02
7378 83.6800 2433.00 2422.66 49.33
7379 83.6900 2397.00 2419.53 48.96
7380 83.7000 2379.00 2416.74 48.78
7381 83.7100 2378.00 2414.38 48.76
7382 83.7200 2423.00 2412.51 49.22
7383 83.7300 2376.00 2411.16 48.74
7384 83.7400 2356.00 2410.34 48.54
7385 83.7500 2399.00 2410.04 48.98
7386 83.7600 2479.00 2410.23 49.79
7387 83.7700 2370.00 2410.86 48.68
7388 83.7800 2388.00 2411.86 48.87
7389 83.7900 2540.00 2413.18 50.40
7390 83.8000 2399.00 2414.71 48.98
7391 83.8100 2511.00 2416.38 50.11
7392 83.8200 2516.00 2418.08 50.16
7393 83.8300 2354.00 2419.72 48.52
7394 83.8400 2357.00 2421.22 48.55
7395 83.8500 2438.00 2422.49 49.38
7396 83.8600 2413.00 2423.51 49.12
7397 83.8700 2441.00 2424.31 49.41
7398 83.8800 2482.00 2424.96 49.82
7399 83.8900 2492.00 2425.60 49.92
7400 83.9000 2429.00 2426.39 49.28
7401 83.9100 2435.00 2427.49 49.35
7402 83.9200 2533.00 2429.05 50.33
7403 83.9300 2465.00 2431.21 49.65
7404 83.9400 2430.00 2434.09 49.29
7405 83.9500 2384.00 2437.73 48.83
7406 83.9600 2438.00 2442.18 49.38
7407 83.9700 2463.00 2447.39 49.63
7408 83.9800 2427.00 2453.28 49.26
7409 83.9900 2452.00 2459.70 49.52
7410 84.0000 2441.00 2466.39 49.41
7411 84.0100 2510.00 2473.17 50.10
7412 84.0200 2490.00 2479.64 49.90
7413 84.0300 2440.00 2485.55 49.40
7414 84.0400 2496.00 2490.52 49.96
7415 84.0500 2491.00 2494.28 49.91
7416 84.0600 2521.00 2496.71 50.21
7417 84.0700 2464.00 2497.39 49.64
7418 84.0800 2449.00 2496.37 49.49
7419 84.0900 2524.00 2493.69 50.24
7420 84.1000 2529.00 2489.53 50.29
7421 84.1100 2452.00 2484.18 49.52
7422 84.1200 2493.00 2478.00 49.93
7423 84.1300 2439.00 2471.35 49.39
7424 84.1400 2454.00 2464.62 49.54
7425 84.1500 2435.00 2458.11 49.35
7426 84.1600 2419.00 2452.08 49.18
7427 84.1700 2408.00 2446.75 49.07
7428 84.1800 2473.00 2442.26 49.73
7429 84.1900 2473.00 2438.71 49.73
7430 84.2000 2462.00 2436.16 49.62
7431 84.2100 2391.00 2434.60 48.90
7432 84.2200 2480.00 2434.00 49.80
7433 84.2300 2471.00 2434.28 49.71
7434 84.2400 2440.00 2435.31 49.40
7435 84.2500 2374.00 2436.95 48.72
7436 84.2600 2407.00 2438.99 49.06
7437 84.2700 2363.00 2441.25 48.61
7438 84.2800 2511.00 2443.54 50.11
7439 84.2900 2465.00 2445.64 49.65
7440 84.3000 2469.00 2447.34 49.69
7441 84.3100 2424.00 2448.80 49.23
7442 84.3200 2382.00 2449.28 48.81
7443 84.3300 2455.00 2448.98 49.55
7444 84.3400 2395.00 2447.89 48.94
7445 84.3500 2457.00 2446.10 49.57
7446 84.3600 2489.00 2443.54 49.89
7447 84.3700 2435.00 2440.43 49.35
7448 84.3800 2577.00 2436.93 50.76
7449 84.3900 2454.00 2433.23 49.54
7450 84.4000 2377.00 2429.46 48.75
7451 84.4100 2455.00 2425.76 49.55
7452 84.4200 2447.00 2422.22 49.47
7453 84.4300 2409.00 2418.93 49.08
7454 84.4400 2397.00 2415.93 48.96
7455 84.4500 2468.00 2413.25 49.68
7456 84.4600 2421.00 2410.91 49.20
7457 84.4700 2283.00 2408.90 47.78
7458 84.4800 2417.00 2407.20 49.16
7459 84.4900 2428.00 2405.79 49.27
7460 84.5000 2379.00 2404.63 48.78
7461 84.5100 2346.00 2403.70 48.44
7462 84.5200 2356.00 2402.96 48.54
7463 84.5300 2333.00 2402.38 48.30
7464 84.5400 2428.00 2401.93 49.27
7465 84.5500 2382.00 2401.57 48.81
7466 84.5600 2437.00 2401.30 49.37
7467 84.5700 2361.00 2401.10 48.59
7468 84.5800 2446.00 2400.96 49.46
7469 84.5900 2481.00 2400.85 49.81
7470 84.6000 2358.00 2400.77 48.56
7471 84.6100 2430.00 2400.72 49.29
7472 84.6200 2450.00 2400.69 49.50
7473 84.6300 2374.00 2400.67 48.72
7474 84.6400 2427.00 2400.67 49.26
7475 84.6500 2416.00 2400.69 49.15
7476 84.6600 2476.00 2400.71 49.76
7477 84.6700 2431.00 2400.74 49.31
7478 84.6800 2442.00 2400.79 49.42
7479 84.6900 2547.00 2400.84 50.47
7480 84.7000 2453.00 2400.90 49.53
7481 84.7100 2404.00 2400.98 49.03
7482 84.7200 2403.00 2401.06 49.02
7483 84.7300 2405.00 2401.16 49.04
7484 84.7400 2351.00 2401.28 48.49
7485 84.7500 2357.00 2401.42 48.55
7486 84.7600 2331.00 2401.58 48.28
7487 84.7700 2364.00 2401.78 48.62
7488 84.7800 2475.00 2402.02 49.75
7489 84.7900 2373.00 2402.30 48.71
7490 84.8000 2402.00 2402.63 49.01
7491 84.8100 2295.00 2403.03 47.91
7492 84.8200 2383.00 2403.50 48.82
7493 84.8300 2366.00 2404.04 48.64
7494 84.8400 2456.00 2404.67 49.56
7495 84.8500 2424.00 2405.38 49.23
7496 84.8600 2520.00 2406.17 50.20
7497 84.8700 2385.00 2407.03 48.84
7498 84.8800 2386.00 2407.95 48.85
7499 84.8900 2490.00 2408.91 49.90
7500 84.9000 2458.00 2409.89 49.58
7501 84.9100 2411.00 2410.86 49.10
7502 84.9200 2417.00 2411.77 49.16
7503 84.9300 2254.00 2412.59 47.48
7504 84.9400 2415.00 2413.28 49.14
7505 84.9500 2434.00 2413.78 49.34
7506 84.9600 2497.00 2414.04 49.97
7507 84.9700 2308.00 2414.14 48.04
7508 84.9800 2394.00 2414.04 48.93
7509 84.9900 2443.00 2413.79 49.43
7510 85.0000 2461.00 2413.41 49.61
7511 85.0100 2386.00 2412.96 48.85
7512 85.0200 2477.00 2412.50 49.77
7513 85.0300 2467.00 2412.03 49.67
7514 85.0400 2342.00 2411.60 48.39
7515 85.0500 2442.00 2411.23 49.42
7516 85.0600 2464.00 2410.95 49.64
7517 85.0700 2411.00 2410.76 49.10
7518 85.0800 2386.00 2410.67 48.85
7519 85.0900 2491.00 2410.68 49.91
7520 85.1000 2512.00 2410.80 50.12
7521 85.1100 2451.00 2411.02 49.51
7522 85.1200 2476.00 2411.34 49.76
7523 85.1300 2434.00 2411.76 49.34
7524 85.1400 2393.00 2412.26 48.92
7525 85.1500 2397.00 2412.85 48.96
7526 85.1600 2419.00 2413.52 49.18
7527 85.1700 2370.00 2414.25 48.68
7528 85.1800 2299.00 2415.04 47.95
7529 85.1900 2466.00 2415.89 49.66
7530 85.2000 2384.00 2416.79 48.83
7531 85.2100 2412.00 2417.76 49.11
7532 85.2200 2442.00 2418.80 49.42
7533 85.2300 2459.00 2420.02 49.59
7534 85.2400 2427.00 2421.46 49.26
7535 85.2500 2371.00 2423.23 48.69
7536 85.2600 2524.00 2425.44 50.24
7537 85.2700 2362.00 2428.26 48.60
7538 85.2800 2444.00 2431.85 49.44
7539 85.2900 2492.00 2436.36 49.92
7540 85.3000 2520.00 2442.00 50.20
7541 85.3100 2418.00 2448.92 49.17
7542 85.3200 2492.00 2457.29 49.92
7543 85.3300 2541.00 2467.23 50.41
7544 85.3400 2497.00 2478.83 49.97
7545 85.3500 2466.00 2492.10 49.66
7546 85.3600 2478.00 2506.94 49.78
7547 85.3700 2549.00 2523.23 50.49
7548 85.3800 2619.00 2540.72 51.18
7549 85.3900 2614.00 2558.90 51.13
7550 85.4000 2657.00 2577.21 51.55
7551 85.4100 2597.00 2595.14 50.96
7552 85.4200 2699.00 2611.82 51.95
7553 85.4300 2728.00 2626.46 52.23
7554 85.4400 2702.00 2638.31 51.98
7555 85.4500 2747.00 2646.60 52.41
7556 85.4600 2738.00 2651.00 52.33
7557 85.4700 2686.00 2651.18 51.83
7558 85.4800 2686.00 2647.12 51.83
7559 85.4900 2590.00 2639.11 50.89
7560 85.5000 2642.00 2627.72 51.40
7561 85.5100 2546.00 2613.69 50.46
7562 85.5200 2591.00 2597.95 50.90
7563 85.5300 2613.00 2581.35 51.12
7564 85.5400 2566.00 2564.76 50.66
7565 85.5500 2521.00 2548.90 50.21
7566 85.5600 2550.00 2534.38 50.50
7567 85.5700 2471.00 2521.65 49.71
7568 85.5800 2512.00 2511.06 50.12
7569 85.5900 2478.00 2502.82 49.78
7570 85.6000 2479.00 2497.01 49.79
7571 85.6100 2534.00 2493.63 50.34
7572 85.6200 2530.00 2492.56 50.30
7573 85.6300 2638.00 2493.60 51.36
7574 85.6400 2461.00 2496.47 49.61
7575 85.6500 2509.00 2500.82 50.09
7576 85.6600 2585.00 2506.22 50.84
7577 85.6700 2510.00 2512.22 50.10
7578 85.6800 2501.00 2518.32 50.01
7579 85.6900 2543.00 2523.99 50.43
7580 85.7000 2647.00 2528.74 51.45
7581 85.7100 2516.00 2532.10 50.16
7582 85.7200 2510.00 2533.81 50.10
7583 85.7300 2583.00 2533.60 50.82
7584 85.7400 2554.00 2531.41 50.54
7585 85.7500 2474.00 2527.27 49.74
7586 85.7600 2541.00 2521.38 50.41
7587 85.7700 2476.00 2514.07 49.76
7588 85.7800 2460.00 2505.70 49.60
7589 85.7900 2496.00 2496.71 49.96
7590 85.8000 2514.00 2487.45 50.14
7591 85.8100 2489.00 2478.26 49.89
7592 85.8200 2502.00 2469.43 50.02
7593 85.8300 2457.00 2461.15 49.57
7594 85.8400 2557.00 2453.55 50.57
7595 85.8500 2463.00 2446.74 49.63
7596 85.8600 2417.00 2440.75 49.16
7597 85.8700 2420.00 2435.57 49.19
7598 85.8800 2520.00 2431.17 50.20
7599 85.8900 2410.00 2427.50 49.09
7600 85.9000 2348.00 2424.48 48.46
7601 85.9100 2433.00 2422.02 49.33
7602 85.9200 2403.00 2420.04 49.02
7603 85.9300 2409.00 2418.47 49.08
7604 85.9400 2371.00 2417.23 48.69
7605 85.9500 2417.00 2416.26 49.16
7606 85.9600 2396.00 2415.66 48.95
7607 85.9700 2454.00 2415.06 49.54
7608 85.9800 2411.00 2414.59 49.10
7609 85.9900 2424.00 2414.22 49.23
7610 86.0000 2531.00 2413.93 50.31
7611 86.0100 2456.00 2413.70 49.56
7612 86.0200 2437.00 2413.52 49.37
7613 86.0300 2368.00 2413.37 48.66
7614 86.0400 2467.00 2413.26 49.67
7615 86.0500 2344.00 2413.17 48.41
7616 86.0600 2423.00 2413.10 49.22
7617 86.0700 2346.00 2413.05 48.44
7618 86.0800 2249.00 2413.01 47.42
7619 86.0900 2425.00 2412.98 49.24
7620 86.1000 2442.00 2412.96 49.42
7621 86.1100 2525.00 2412.94 50.25
7622 86.1200 2435.00 2412.93 49.35
7623 86.1300 2396.00 2412.92 48.95
7624 86.1400 2450.00 2412.92 49.50
7625 86.1500 2490.00 2412.92 49.90
7626 86.1600 2402.00 2412.93 49.01
7627 86.1700 2415.00 2412.96 49.14
7628 86.1800 2391.00 2412.99 48.90
7629 86.1900 2389.00 2413.05 48.88
7630 86.2000 2401.00 2413.12 49.00
7631 86.2100 2391.00 2413.23 48.90
7632 86.2200 2361.00 2413.37 48.59
7633 86.2300 2366.00 2413.63 48.64
7634 86.2400 2489.00 2413.86 49.89
7635 86.2500 2393.00 2414.15 48.92
7636 86.2600 2418.00 2414.52 49.17
7637 86.2700 2406.00 2414.96 49.05
7638 86.2800 2412.00 2415.49 49.11
7639 86.2900 2370.00 2416.12 48.68
7640 86.3000 2445.00 2416.85 49.45
7641 86.3100 2319.00 2417.69 48.16
7642 86.3200 2453.00 2418.65 49.53
7643 86.3300 2382.00 2419.70 48.81
7644 86.3400 2392.00 2420.84 48.91
7645 86.3500 2391.00 2422.06 48.90
7646 86.3600 2449.00 2423.34 49.49
7647 86.3700 2414.00 2424.62 49.13
7648 86.3800 2420.00 2425.89 49.19
7649 86.3900 2436.00 2427.08 49.36
7650 86.4000 2456.00 2428.14 49.56
7651 86.4100 2466.00 2429.04 49.66
7652 86.4200 2478.00 2429.72 49.78
7653 86.4300 2416.00 2430.16 49.15
7654 86.4400 2378.00 2430.37 48.76
7655 86.4500 2430.00 2430.38 49.29
7656 86.4600 2492.00 2430.24 49.92
7657 86.4700 2445.00 2430.01 49.45
7658 86.4800 2463.00 2429.78 49.63
7659 86.4900 2415.00 2429.63 49.14
7660 86.5000 2452.00 2429.63 49.52
7661 86.5100 2556.00 2429.85 50.56
7662 86.5200 2414.00 2430.36 49.13
7663 86.5300 2492.00 2431.23 49.92
7664 86.5400 2381.00 2432.47 48.80
7665 86.5500 2450.00 2434.12 49.50
7666 86.5600 2587.00 2436.22 50.86
7667 86.5700 2458.00 2438.76 49.58
7668 86.5800 2501.00 2441.71 50.01
7669 86.5900 2367.00 2445.03 48.65
7670 86.6000 2481.00 2448.64 49.81
7671 86.6100 2418.00 2452.42 49.17
7672 86.6200 2445.00 2456.27 49.45
7673 86.6300 2521.00 2460.01 50.21
7674 86.6400 2463.00 2463.47 49.63
7675 86.6500 2437.00 2466.43 49.37
7676 86.6600 2511.00 2468.74 50.11
7677 86.6700 2566.00 2470.22 50.66
7678 86.6800 2482.00 2470.82 49.82
7679 86.6900 2502.00 2470.50 50.02
7680 86.7000 2482.00 2469.34 49.82
7681 86.7100 2450.00 2467.46 49.50
7682 86.7200 2467.00 2465.01 49.67
7683 86.7300 2448.00 2462.27 49.48
7684 86.7400 2376.00 2459.16 48.74
7685 86.7500 2548.00 2455.93 50.48
7686 86.7600 2397.00 2452.71 48.96
7687 86.7700 2333.00 2449.70 48.30
7688 86.7800 2446.00 2446.85 49.46
7689 86.7900 2446.00 2444.33 49.46
7690 86.8000 2461.00 2442.19 49.61
7691 86.8100 2402.00 2440.49 49.01
7692 86.8200 2469.00 2439.25 49.69
7693 86.8300 2365.00 2438.37 48.63
7694 86.8400 2452.00 2438.07 49.52
7695 86.8500 2443.00 2438.20 49.43
7696 86.8600 2437.00 2438.71 49.37
7697 86.8700 2327.00 2439.37 48.24
7698 86.8800 2483.00 2440.44 49.83
7699 86.8900 2466.00 2441.67 49.66
7700 86.9000 2420.00 2442.95 49.19
7701 86.9100 2441.00 2444.18 49.41
7702 86.9200 2470.00 2445.24 49.70
7703 86.9300 2438.00 2446.02 49.38
7704 86.9400 2415.00 2446.47 49.14
7705 86.9500 2469.00 2446.54 49.69
7706 86.9600 2474.00 2446.22 49.74
7707 86.9700 2471.00 2445.55 49.71
7708 86.9800 2479.00 2444.59 49.79
7709 86.9900 2439.00 2443.40 49.39
7710 87.0000 2522.00 2442.04 50.22
7711 87.0100 2425.00 2440.57 49.24
7712 87.0200 2414.00 2439.05 49.13
7713 87.0300 2473.00 2437.50 49.73
7714 87.0400 2388.00 2436.15 48.87
7715 87.0500 2402.00 2434.70 49.01
7716 87.0600 2548.00 2433.35 50.48
7717 87.0700 2384.00 2432.12 48.83
7718 87.0800 2433.00 2431.05 49.33
7719 87.0900 2395.00 2430.14 48.94
7720 87.1000 2402.00 2429.34 49.01
7721 87.1100 2514.00 2428.79 50.14
7722 87.1200 2443.00 2428.43 49.43
7723 87.1300 2394.00 2428.27 48.93
7724 87.1400 2385.00 2428.22 48.84
7725 87.1500 2468.00 2428.47 49.68
7726 87.1600 2446.00 2428.96 49.46
7727 87.1700 2452.00 2429.72 49.52
7728 87.1800 2512.00 2430.77 50.12
7729 87.1900 2504.00 2432.19 50.04
7730 87.2000 2413.00 2434.02 49.12
7731 87.2100 2401.00 2436.34 49.00
7732 87.2200 2466.00 2439.24 49.66
7733 87.2300 2381.00 2442.79 48.80
7734 87.2400 2456.00 2447.10 49.56
7735 87.2500 2536.00 2452.23 50.36
7736 87.2600 2425.00 2458.32 49.24
7737 87.2700 2431.00 2465.26 49.31
7738 87.2800 2516.00 2473.13 50.16
7739 87.2900 2561.00 2481.84 50.61
7740 87.3000 2449.00 2491.31 49.49
7741 87.3100 2504.00 2501.37 50.04
7742 87.3200 2548.00 2511.75 50.48
7743 87.3300 2523.00 2522.16 50.23
7744 87.3400 2517.00 2532.24 50.17
7745 87.3500 2495.00 2541.52 49.95
7746 87.3600 2537.00 2549.53 50.37
7747 87.3700 2527.00 2555.76 50.27
7748 87.3800 2573.00 2559.77 50.72
7749 87.3900 2622.00 2561.27 51.21
7750 87.4000 2584.00 2560.14 50.83
7751 87.4100 2557.00 2556.51 50.57
7752 87.4200 2554.00 2550.71 50.54
7753 87.4300 2508.00 2543.22 50.08
7754 87.4400 2464.00 2534.55 49.64
7755 87.4500 2470.00 2525.23 49.70
7756 87.4600 2446.00 2515.73 49.46
7757 87.4700 2478.00 2506.48 49.78
7758 87.4800 2513.00 2497.83 50.13
7759 87.4900 2457.00 2490.06 49.57
7760 87.5000 2454.00 2483.41 49.54
7761 87.5100 2406.00 2478.04 49.05
7762 87.5200 2497.00 2474.03 49.97
7763 87.5300 2461.00 2471.46 49.61
7764 87.5400 2485.00 2470.30 49.85
7765 87.5500 2378.00 2470.51 48.76
7766 87.5600 2509.00 2471.98 50.09
7767 87.5700 2440.00 2474.59 49.40
7768 87.5800 2489.00 2478.14 49.89
7769 87.5900 2511.00 2482.45 50.11
7770 87.6000 2483.00 2487.28 49.83
7771 87.6100 2558.00 2492.34 50.58
7772 87.6200 2594.00 2497.36 50.93
7773 87.6300 2490.00 2502.01 49.90
7774 87.6400 2534.00 2505.98 50.34
7775 87.6500 2559.00 2508.96 50.59
7776 87.6600 2558.00 2510.74 50.58
7777 87.6700 2478.00 2511.21 49.78
7778 87.6800 2522.00 2510.31 50.22
7779 87.6900 2519.00 2508.17 50.19
7780 87.7000 2498.00 2505.01 49.98
7781 87.7100 2477.00 2501.25 49.77
7782 87.7200 2385.00 2497.00 48.84
7783 87.7300 2466.00 2492.52 49.66
7784 87.7400 2533.00 2488.15 50.33
7785 87.7500 2430.00 2484.19 49.29
7786 87.7600 2459.00 2480.82 49.59
7787 87.7700 2452.00 2478.22 49.52
7788 87.7800 2517.00 2476.51 50.17
7789 87.7900 2449.00 2475.75 49.49
7790 87.8000 2507.00 2475.95 50.07
7791 87.8100 2424.00 2477.08 49.23
7792 87.8200 2448.00 2479.04 49.48
7793 87.8300 2447.00 2481.69 49.47
7794 87.8400 2526.00 2484.85 50.26
7795 87.8500 2536.00 2488.33 50.36
7796 87.8600 2428.00 2491.86 49.27
7797 87.8700 2509.00 2495.16 50.09
7798 87.8800 2477.00 2497.96 49.77
7799 87.8900 2517.00 2500.00 50.17
7800 87.9000 2545.00 2501.07 50.45
7801 87.9100 2502.00 2501.06 50.02
7802 87.9200 2519.00 2499.96 50.19
7803 87.9300 2475.00 2497.87 49.75
7804 87.9400 2521.00 2494.93 50.21
7805 87.9500 2481.00 2491.36 49.81
7806 87.9600 2558.00 2487.37 50.58
7807 87.9700 2461.00 2483.18 49.61
7808 87.9800 2485.00 2478.97 49.85
7809 87.9900 2543.00 2474.93 50.43
7810 88.0000 2488.00 2471.26 49.88
7811 88.0100 2426.00 2468.08 49.25
7812 88.0200 2532.00 2465.55 50.32
7813 88.0300 2569.00 2463.77 50.69
7814 88.0400 2497.00 2462.82 49.97
7815 88.0500 2472.00 2462.77 49.72
7816 88.0600 2472.00 2463.65 49.72
7817 88.0700 2498.00 2465.46 49.98
7818 88.0800 2523.00 2468.20 50.23
7819 88.0900 2509.00 2471.77 50.09
7820 88.1000 2524.00 2476.19 50.24
7821 88.1100 2413.00 2481.30 49.12
7822 88.1200 2465.00 2486.97 49.65
7823 88.1300 2461.00 2493.01 49.61
7824 88.1400 2506.00 2499.22 50.06
7825 88.1500 2529.00 2505.34 50.29
7826 88.1600 2531.00 2511.11 50.31
7827 88.1700 2481.00 2516.25 49.81
7828 88.1800 2446.00 2520.53 49.46
7829 88.1900 2553.00 2523.70 50.53
7830 88.2000 2516.00 2525.61 50.16
7831 88.2100 2538.00 2526.17 50.38
7832 88.2200 2602.00 2525.39 51.01
7833 88.2300 2502.00 2523.38 50.02
7834 88.2400 2497.00 2520.36 49.97
7835 88.2500 2606.00 2516.62 51.05
7836 88.2600 2571.00 2512.51 50.71
7837 88.2700 2532.00 2508.38 50.32
7838 88.2800 2483.00 2504.57 49.83
7839 88.2900 2489.00 2501.39 49.89
7840 88.3000 2502.00 2499.10 50.02
7841 88.3100 2445.00 2497.91 49.45
7842 88.3200 2507.00 2497.97 50.07
7843 88.3300 2444.00 2499.36 49.44
7844 88.3400 2487.00 2502.12 49.87
7845 88.3500 2525.00 2506.18 50.25
7846 88.3600 2508.00 2511.45 50.08
7847 88.3700 2524.00 2517.72 50.24
7848 88.3800 2515.00 2524.78 50.15
7849 88.3900 2538.00 2532.30 50.38
7850 88.4000 2524.00 2539.88 50.24
7851 88.4100 2526.00 2547.13 50.26
7852 88.4200 2550.00 2553.58 50.50
7853 88.4300 2532.00 2558.78 50.32
7854 88.4400 2583.00 2562.37 50.82
7855 88.4500 2586.00 2564.07 50.85
7856 88.4600 2621.00 2563.88 51.20
7857 88.4700 2564.00 2561.63 50.64
7858 88.4800 2440.00 2557.60 49.40
7859 88.4900 2543.00 2552.05 50.43
7860 88.5000 2485.00 2545.28 49.85
7861 88.5100 2449.00 2537.66 49.49
7862 88.5200 2488.00 2529.55 49.88
7863 88.5300 2470.00 2521.28 49.70
7864 88.5400 2468.00 2513.21 49.68
7865 88.5500 2641.00 2505.61 51.39
7866 88.5600 2490.00 2498.71 49.90
7867 88.5700 2523.00 2492.70 50.23
7868 88.5800 2423.00 2487.71 49.22
7869 88.5900 2544.00 2483.81 50.44
7870 88.6000 2465.00 2481.04 49.65
7871 88.6100 2420.00 2479.36 49.19
7872 88.6200 2383.00 2478.73 48.82
7873 88.6300 2570.00 2479.05 50.70
7874 88.6400 2495.00 2480.22 49.95
7875 88.6500 2403.00 2482.08 49.02
7876 88.6600 2571.00 2484.48 50.71
7877 88.6700 2500.00 2487.25 50.00
7878 88.6800 2547.00 2490.21 50.47
7879 88.6900 2462.00 2493.18 49.62
7880 88.7000 2583.00 2495.99 50.82
7881 88.7100 2435.00 2498.51 49.35
7882 88.7200 2528.00 2500.74 50.28
7883 88.7300 2504.00 2502.56 50.04
7884 88.7400 2586.00 2504.14 50.85
7885 88.7500 2520.00 2505.63 50.20
7886 88.7600 2479.00 2507.27 49.79
7887 88.7700 2530.00 2509.29 50.30
7888 88.7800 2484.00 2511.90 49.84
7889 88.7900 2508.00 2515.27 50.08
7890 88.8000 2533.00 2519.54 50.33
7891 88.8100 2481.00 2524.74 49.81
7892 88.8200 2639.00 2530.86 51.37
7893 88.8300 2542.00 2537.62 50.42
7894 88.8400 2470.00 2545.15 49.70
7895 88.8500 2509.00 2553.04 50.09
7896 88.8600 2641.00 2560.90 51.39
7897 88.8700 2618.00 2568.34 51.17
7898 88.8800 2582.00 2574.87 50.81
7899 88.8900 2648.00 2580.01 51.46
7900 88.9000 2565.00 2583.30 50.65
7901 88.9100 2615.00 2584.44 51.14
7902 88.9200 2595.00 2583.25 50.94
7903 88.9300 2548.00 2579.76 50.48
7904 88.9400 2618.00 2574.21 51.17
7905 88.9500 2623.00 2566.96 51.22
7906 88.9600 2532.00 2558.43 50.32
7907 88.9700 2525.00 2549.11 50.25
7908 88.9800 2605.00 2539.42 51.04
7909 88.9900 2557.00 2529.75 50.57
7910 89.0000 2453.00 2520.52 49.53
7911 89.0100 2543.00 2511.93 50.43
7912 89.0200 2530.00 2504.26 50.30
7913 89.0300 2509.00 2497.70 50.09
7914 89.0400 2556.00 2492.37 50.56
7915 89.0500 2513.00 2488.35 50.13
7916 89.0600 2486.00 2485.64 49.86
7917 89.0700 2449.00 2484.23 49.49
7918 89.0800 2564.00 2484.04 50.64
7919 89.0900 2467.00 2484.97 49.67
7920 89.1000 2517.00 2486.86 50.17
7921 89.1100 2411.00 2489.46 49.10
7922 89.1200 2518.00 2492.74 50.18
7923 89.1300 2457.00 2496.38 49.57
7924 89.1400 2410.00 2500.11 49.09
7925 89.1500 2501.00 2503.70 50.01
7926 89.1600 2524.00 2506.86 50.24
7927 89.1700 2587.00 2509.33 50.86
7928 89.1800 2440.00 2510.87 49.40
7929 89.1900 2517.00 2511.31 50.17
7930 89.2000 2525.00 2510.60 50.25
7931 89.2100 2497.00 2508.72 49.97
7932 89.2200 2451.00 2505.81 49.51
7933 89.2300 2507.00 2502.03 50.07
7934 89.2400 2521.00 2497.58 50.21
7935 89.2500 2465.00 2492.71 49.65
7936 89.2600 2493.00 2487.59 49.93
7937 89.2700 2524.00 2482.41 50.24
7938 89.2800 2433.00 2477.33 49.33
7939 89.2900 2514.00 2472.48 50.14
7940 89.3000 2393.00 2467.93 48.92
7941 89.3100 2422.00 2463.77 49.21
7942 89.3200 2414.00 2460.03 49.13
7943 89.3300 2324.00 2456.74 48.21
7944 89.3400 2463.00 2453.89 49.63
7945 89.3500 2444.00 2451.38 49.44
7946 89.3600 2454.00 2449.34 49.54
7947 89.3700 2473.00 2447.65 49.73
7948 89.3800 2437.00 2446.28 49.37
7949 89.3900 2459.00 2445.18 49.59
7950 89.4000 2457.00 2444.30 49.57
7951 89.4100 2528.00 2443.62 50.28
7952 89.4200 2358.00 2443.09 48.56
7953 89.4300 2406.00 2442.70 49.05
7954 89.4400 2442.00 2442.42 49.42
7955 89.4500 2325.00 2442.23 48.22
7956 89.4600 2571.00 2442.12 50.71
7957 89.4700 2524.00 2442.07 50.24
7958 89.4800 2462.00 2442.08 49.62
7959 89.4900 2441.00 2442.16 49.41
7960 89.5000 2437.00 2442.28 49.37
7961 89.5100 2476.00 2442.46 49.76
7962 89.5200 2433.00 2442.70 49.33
7963 89.5300 2377.00 2443.00 48.75
7964 89.5400 2401.00 2443.35 49.00
7965 89.5500 2382.00 2443.76 48.81
7966 89.5600 2438.00 2444.21 49.38
7967 89.5700 2386.00 2444.72 48.85
7968 89.5800 2420.00 2445.26 49.19
7969 89.5900 2418.00 2445.83 49.17
7970 89.6000 2421.00 2446.43 49.20
7971 89.6100 2457.00 2447.02 49.57
7972 89.6200 2430.00 2447.60 49.29
7973 89.6300 2441.00 2448.11 49.41
7974 89.6400 2474.00 2448.68 49.74
7975 89.6500 2415.00 2449.11 49.14
7976 89.6600 2395.00 2449.46 48.94
7977 89.6700 2466.00 2449.75 49.66
7978 89.6800 2363.00 2449.90 48.61
7979 89.6900 2472.00 2450.09 49.72
7980 89.7000 2415.00 2450.28 49.14
7981 89.7100 2506.00 2450.53 50.06
7982 89.7200 2379.00 2450.87 48.78
7983 89.7300 2483.00 2451.38 49.83
7984 89.7400 2457.00 2452.11 49.57
7985 89.7500 2346.00 2453.12 48.44
7986 89.7600 2535.00 2454.49 50.35
7987 89.7700 2452.00 2456.27 49.52
7988 89.7800 2377.00 2458.52 48.75
7989 89.7900 2425.00 2461.30 49.24
7990 89.8000 2571.00 2464.64 50.71
7991 89.8100 2494.00 2468.57 49.94
7992 89.8200 2478.00 2473.19 49.78
7993 89.8300 2463.00 2478.26 49.63
7994 89.8400 2504.00 2483.84 50.04
7995 89.8500 2493.00 2489.83 49.93
7996 89.8600 2565.00 2496.11 50.65
7997 89.8700 2522.00 2502.51 50.22
7998 89.8800 2494.00 2508.84 49.94
7999 89.8900 2530.00 2514.86 50.30
8000 89.9000 2486.00 2520.29 49.86
8001 89.9100 2519.00 2524.85 50.19
8002 89.9200 2510.00 2528.30 50.10
8003 89.9300 2524.00 2530.38 50.24
8004 89.9400 2532.00 2530.97 50.32
8005 89.9500 2488.00 2530.02 49.88
8006 89.9600 2464.00 2527.60 49.64
8007 89.9700 2482.00 2524.09 49.82
8008 89.9800 2537.00 2519.51 50.37
8009 89.9900 2461.00 2514.25 49.61
8010 90.0000 2450.00 2508.63 49.50
8011 90.0100 2452.00 2502.91 49.52
8012 90.0200 2598.00 2497.31 50.97
8013 90.0300 2458.00 2492.07 49.58
8014 90.0400 2355.00 2487.36 48.53
8015 90.0500 2418.00 2483.29 49.17
8016 90.0600 2484.00 2479.98 49.84
8017 90.0700 2575.00 2477.50 50.74
8018 90.0800 2493.00 2475.88 49.93
8019 90.0900 2432.00 2475.13 49.32
8020 90.1000 2471.00 2475.22 49.71
8021 90.1100 2426.00 2476.10 49.25
8022 90.1200 2453.00 2477.69 49.53
8023 90.1300 2466.00 2479.89 49.66
8024 90.1400 2467.00 2482.59 49.67
8025 90.1500 2607.00 2485.64 51.06
8026 90.1600 2483.00 2488.96 49.83
8027 90.1700 2508.00 2492.23 50.08
8028 90.1800 2527.00 2495.34 50.27
8029 90.1900 2528.00 2498.05 50.28
8030 90.2000 2601.00 2500.26 51.00
8031 90.2100 2511.00 2501.78 50.11
8032 90.2200 2494.00 2502.48 49.94
8033 90.2300 2474.00 2502.33 49.74
8034 90.2400 2476.00 2501.37 49.76
8035 90.2500 2530.00 2499.69 50.30
8036 90.2600 2521.00 2497.47 50.21
8037 90.2700 2529.00 2494.87 50.29
8038 90.2800 2432.00 2492.08 49.32
8039 90.2900 2368.00 2489.26 48.66
8040 90.3000 2432.00 2486.57 49.32
8041 90.3100 2452.00 2484.10 49.52
8042 90.3200 2461.00 2481.94 49.61
8043 90.3300 2509.00 2480.15 50.09
8044 90.3400 2519.00 2478.76 50.19
8045 90.3500 2501.00 2477.75 50.01
8046 90.3600 2453.00 2477.10 49.53
8047 90.3700 2449.00 2476.74 49.49
8048 90.3800 2414.00 2476.49 49.13
8049 90.3900 2428.00 2476.48 49.27
8050 90.4000 2498.00 2476.47 49.98
8051 90.4100 2480.00 2476.43 49.80
8052 90.4200 2432.00 2476.24 49.32
8053 90.4300 2399.00 2475.85 48.98
8054 90.4400 2444.00 2475.25 49.44
8055 90.4500 2489.00 2474.43 49.89
8056 90.4600 2508.00 2473.41 50.08
8057 90.4700 2415.00 2472.24 49.14
8058 90.4800 2438.00 2470.94 49.38
8059 90.4900 2466.00 2469.56 49.66
8060 90.5000 2473.00 2468.13 49.73
8061 90.5100 2500.00 2466.68 50.00
8062 90.5200 2405.00 2465.26 49.04
8063 90.5300 2392.00 2463.90 48.91
8064 90.5400 2431.00 2462.63 49.31
8065 90.5500 2476.00 2461.50 49.76
8066 90.5600 2454.00 2460.53 49.54
8067 90.5700 2479.00 2459.74 49.79
8068 90.5800 2443.00 2459.14 49.43
8069 90.5900 2444.00 2458.73 49.44
8070 90.6000 2391.00 2458.52 48.90
8071 90.6100 2489.00 2458.48 49.89
8072 90.6200 2499.00 2458.60 49.99
8073 90.6300 2494.00 2458.86 49.94
8074 90.6400 2453.00 2459.22 49.53
8075 90.6500 2520.00 2459.65 50.20
8076 90.6600 2380.00 2460.12 48.79
8077 90.6700 2428.00 2460.52 49.27
8078 90.6800 2435.00 2460.92 49.35
8079 90.6900 2455.00 2461.23 49.55
8080 90.7000 2384.00 2461.42 48.83
8081 90.7100 2475.00 2461.47 49.75
8082 90.7200 2363.00 2461.37 48.61
8083 90.7300 2411.00 2461.13 49.10
8084 90.7400 2556.00 2460.76 50.56
8085 90.7500 2500.00 2460.31 50.00
8086 90.7600 2479.00 2459.80 49.79
8087 90.7700 2513.00 2459.28 50.13
8088 90.7800 2473.00 2458.77 49.73
8089 90.7900 2463.00 2458.30 49.63
8090 90.8000 2454.00 2457.91 49.54
8091 90.8100 2514.00 2457.61 50.14
8092 90.8200 2456.00 2457.45 49.56
8093 90.8300 2483.00 2457.43 49.83
8094 90.8400 2393.00 2457.58 48.92
8095 90.8500 2412.00 2457.94 49.11
8096 90.8600 2474.00 2458.53 49.74
8097 90.8700 2520.00 2459.39 50.20
8098 90.8800 2459.00 2460.54 49.59
8099 90.8900 2378.00 2462.03 48.76
8100 90.9000 2482.00 2463.89 49.82
8101 90.9100 2396.00 2466.15 48.95
8102 90.9200 2407.00 2468.85 49.06
8103 90.9300 2415.00 2472.01 49.14
8104 90.9400 2447.00 2475.67 49.47
8105 90.9500 2560.00 2479.83 50.60
8106 90.9600 2456.00 2484.48 49.56
8107 90.9700 2575.00 2489.61 50.74
8108 90.9800 2462.00 2495.19 49.62
8109 90.9900 2541.00 2501.16 50.41
8110 91.0000 2493.00 2507.44 49.93
8111 91.0100 2474.00 2513.94 49.74
8112 91.0200 2489.00 2520.52 49.89
8113 91.0300 2563.00 2527.05 50.63
8114 91.0400 2502.00 2533.36 50.02
8115 91.0500 2564.00 2539.32 50.64
8116 91.0600 2490.00 2544.80 49.90
8117 91.0700 2553.00 2549.74 50.53
8118 91.0800 2545.00 2554.11 50.45
8119 91.0900 2504.00 2557.93 50.04
8120 91.1000 2586.00 2561.19 50.85
8121 91.1100 2481.00 2563.93 49.81
8122 91.1200 2621.00 2566.12 51.20
8123 91.1300 2537.00 2567.73 50.37
8124 91.1400 2551.00 2568.73 50.51
8125 91.1500 2527.00 2569.05 50.27
8126 91.1600 2480.00 2568.68 49.80
8127 91.1700 2513.00 2567.66 50.13
8128 91.1800 2513.00 2566.03 50.13
8129 91.1900 2586.00 2563.88 50.85
8130 91.2000 2463.00 2561.30 49.63
8131 91.2100 2556.00 2558.44 50.56
8132 91.2200 2564.00 2555.44 50.64
8133 91.2300 2423.00 2552.49 49.22
8134 91.2400 2528.00 2549.79 50.28
8135 91.2500 2518.00 2547.55 50.18
8136 91.2600 2577.00 2545.93 50.76
8137 91.2700 2530.00 2545.09 50.30
8138 91.2800 2548.00 2545.13 50.48
8139 91.2900 2566.00 2546.09 50.66
8140 91.3000 2493.00 2547.98 49.93
8141 91.3100 2509.00 2550.71 50.09
8142 91.3200 2524.00 2554.17 50.24
8143 91.3300 2559.00 2558.20 50.59
8144 91.3400 2527.00 2562.59 50.27
8145 91.3500 2572.00 2567.15 50.71
8146 91.3600 2713.00 2571.57 52.09
8147 91.3700 2524.00 2575.66 50.24
8148 91.3800 2584.00 2579.20 50.83
8149 91.3900 2532.00 2581.95 50.32
8150 91.4000 2597.00 2583.74 50.96
8151 91.4100 2692.00 2584.46 51.88
8152 91.4200 2619.00 2584.04 51.18
8153 91.4300 2573.00 2582.50 50.72
8154 91.4400 2541.00 2579.83 50.41
8155 91.4500 2536.00 2576.36 50.36
8156 91.4600 2623.00 2572.16 51.22
8157 91.4700 2513.00 2567.40 50.13
8158 91.4800 2535.00 2562.24 50.35
8159 91.4900 2524.00 2556.81 50.24
8160 91.5000 2540.00 2551.26 50.40
8161 91.5100 2559.00 2545.71 50.59
8162 91.5200 2525.00 2540.22 50.25
8163 91.5300 2519.00 2534.89 50.19
8164 91.5400 2555.00 2529.80 50.55
8165 91.5500 2520.00 2525.02 50.20
8166 91.5600 2601.00 2520.60 51.00
8167 91.5700 2456.00 2516.59 49.56
8168 91.5800 2521.00 2513.04 50.21
8169 91.5900 2537.00 2509.97 50.37
8170 91.6000 2477.00 2507.40 49.77
8171 91.6100 2428.00 2505.32 49.27
8172 91.6200 2497.00 2503.70 49.97
8173 91.6300 2524.00 2502.57 50.24
8174 91.6400 2559.00 2501.71 50.59
8175 91.6500 2467.00 2501.10 49.67
8176 91.6600 2479.00 2500.64 49.79
8177 91.6700 2448.00 2500.22 49.48
8178 91.6800 2544.00 2499.73 50.44
8179 91.6900 2467.00 2499.08 49.67
8180 91.7000 2496.00 2498.19 49.96
8181 91.7100 2531.00 2497.08 50.31
8182 91.7200 2456.00 2495.68 49.56
8183 91.7300 2519.00 2494.01 50.19
8184 91.7400 2430.00 2492.26 49.29
8185 91.7500 2528.00 2490.45 50.28
8186 91.7600 2506.00 2488.63 50.06
8187 91.7700 2451.00 2486.89 49.51
8188 91.7800 2472.00 2485.26 49.72
8189 91.7900 2534.00 2483.80 50.34
8190 91.8000 2554.00 2482.52 50.54
8191 91.8100 2460.00 2481.43 49.60
8192 91.8200 2447.00 2480.55 49.47
8193 91.8300 2463.00 2479.85 49.63
8194 91.8400 2441.00 2479.33 49.41
8195 91.8500 2543.00 2478.96 50.43
8196 91.8600 2453.00 2478.72 49.53
8197 91.8700 2535.00 2478.60 50.35
8198 91.8800 2452.00 2478.58 49.52
8199 91.8900 2496.00 2478.65 49.96
8200 91.9000 2532.00 2478.77 50.32
8201 91.9100 2412.00 2478.91 49.11
8202 91.9200 2523.00 2479.05 50.23
8203 91.9300 2498.00 2479.12 49.98
8204 91.9400 2519.00 2479.12 50.19
8205 91.9500 2461.00 2478.99 49.61
8206 91.9600 2483.00 2478.72 49.83
8207 91.9700 2489.00 2478.30 49.89
8208 91.9800 2556.00 2477.70 50.56
8209 91.9900 2443.00 2476.94 49.43
8210 92.0000 2468.00 2476.05 49.68
8211 92.0100 2536.00 2475.05 50.36
8212 92.0200 2547.00 2473.96 50.47
8213 92.0300 2481.00 2472.83 49.81
8214 92.0400 2567.00 2471.68 50.67
8215 92.0500 2449.00 2470.53 49.49
8216 92.0600 2514.00 2469.44 50.14
8217 92.0700 2471.00 2468.39 49.71
8218 92.0800 2423.00 2467.43 49.22
8219 92.0900 2601.00 2466.57 51.00
8220 92.1000 2464.00 2465.85 49.64
8221 92.1100 2455.00 2465.31 49.55
8222 92.1200 2452.00 2464.88 49.52
8223 92.1300 2447.00 2464.61 49.47
8224 92.1400 2481.00 2464.50 49.81
8225 92.1500 2398.00 2464.54 48.97
8226 92.1600 2525.00 2464.73 50.25
8227 92.1700 2365.00 2465.22 48.63
8228 92.1800 2518.00 2465.67 50.18
8229 92.1900 2485.00 2466.23 49.85
8230 92.2000 2506.00 2466.87 50.06
8231 92.2100 2317.00 2467.57 48.14
8232 92.2200 2452.00 2468.31 49.52
8233 92.2300 2411.00 2469.04 49.10
8234 92.2400 2452.00 2469.76 49.52
8235 92.2500 2473.00 2470.44 49.73
8236 92.2600 2469.00 2471.05 49.69
8237 92.2700 2549.00 2471.64 50.49
8238 92.2800 2499.00 2472.09 49.99
8239 92.2900 2534.00 2472.43 50.34
8240 92.3000 2485.00 2472.67 49.85
8241 92.3100 2413.00 2472.79 49.12
8242 92.3200 2500.00 2472.80 50.00
8243 92.3300 2512.00 2472.68 50.12
8244 92.3400 2465.00 2472.44 49.65
8245 92.3500 2496.00 2472.07 49.96
8246 92.3600 2475.00 2471.59 49.75
8247 92.3700 2451.00 2471.01 49.51
8248 92.3800 2510.00 2470.35 50.10
8249 92.3900 2506.00 2469.66 50.06
8250 92.4000 2522.00 2468.97 50.22
8251 92.4100 2413.00 2468.30 49.12
8252 92.4200 2439.00 2467.70 49.39
8253 92.4300 2462.00 2467.19 49.62
8254 92.4400 2534.00 2466.79 50.34
8255 92.4500 2446.00 2466.54 49.46
8256 92.4600 2421.00 2466.44 49.20
8257 92.4700 2463.00 2466.52 49.63
8258 92.4800 2456.00 2466.78 49.56
8259 92.4900 2429.00 2467.22 49.28
8260 92.5000 2462.00 2467.85 49.62
8261 92.5100 2512.00 2468.65 50.12
8262 92.5200 2412.00 2469.63 49.11
8263 92.5300 2436.00 2470.75 49.36
8264 92.5400 2524.00 2472.01 50.24
8265 92.5500 2499.00 2473.36 49.99
8266 92.5600 2455.00 2474.77 49.55
8267 92.5700 2449.00 2476.21 49.49
8268 92.5800 2483.00 2477.62 49.83
8269 92.5900 2413.00 2478.90 49.12
8270 92.6000 2660.00 2480.13 51.58
8271 92.6100 2404.00 2481.21 49.03
8272 92.6200 2542.00 2482.10 50.42
8273 92.6300 2516.00 2482.80 50.16
8274 92.6400 2421.00 2483.34 49.20
8275 92.6500 2444.00 2483.69 49.44
8276 92.6600 2494.00 2483.91 49.94
8277 92.6700 2498.00 2484.06 49.98
8278 92.6800 2422.00 2484.12 49.21
8279 92.6900 2418.00 2484.26 49.17
8280 92.7000 2490.00 2484.45 49.90
8281 92.7100 2562.00 2484.73 50.62
8282 92.7200 2519.00 2485.11 50.19
8283 92.7300 2493.00 2485.61 49.93
8284 92.7400 2485.00 2486.17 49.85
8285 92.7500 2559.00 2486.88 50.59
8286 92.7600 2444.00 2487.68 49.44
8287 92.7700 2479.00 2488.54 49.79
8288 92.7800 2531.00 2489.44 50.31
8289 92.7900 2475.00 2490.39 49.75
8290 92.8000 2454.00 2491.39 49.54
8291 92.8100 2446.00 2492.48 49.46
8292 92.8200 2399.00 2493.68 48.98
8293 92.8300 2494.00 2495.03 49.94
8294 92.8400 2457.00 2496.58 49.57
8295 92.8500 2548.00 2498.34 50.48
8296 92.8600 2443.00 2500.34 49.43
8297 92.8700 2456.00 2502.56 49.56
8298 92.8800 2614.00 2504.98 51.13
8299 92.8900 2488.00 2507.52 49.88
8300 92.9000 2572.00 2510.20 50.71
8301 92.9100 2500.00 2512.90 50.00
8302 92.9200 2474.00 2515.54 49.74
8303 92.9300 2492.00 2518.06 49.92
8304 92.9400 2534.00 2520.30 50.34
8305 92.9500 2457.00 2522.27 49.57
8306 92.9600 2456.00 2523.83 49.56
8307 92.9700 2584.00 2524.88 50.83
8308 92.9800 2471.00 2525.32 49.71
8309 92.9900 2506.00 2525.16 50.06
8310 93.0000 2491.00 2524.35 49.91
8311 93.0100 2465.00 2522.95 49.65
8312 93.0200 2485.00 2521.04 49.85
8313 93.0300 2552.00 2518.74 50.52
8314 93.0400 2501.00 2516.14 50.01
8315 93.0500 2475.00 2513.41 49.75
8316 93.0600 2536.00 2510.65 50.36
8317 93.0700 2434.00 2507.96 49.34
8318 93.0800 2521.00 2505.43 50.21
8319 93.0900 2583.00 2503.11 50.82
8320 93.1000 2504.00 2501.11 50.04
8321 93.1100 2417.00 2499.50 49.16
8322 93.1200 2494.00 2498.29 49.94
8323 93.1300 2536.00 2497.55 50.36
8324 93.1400 2554.00 2497.28 50.54
8325 93.1500 2551.00 2497.51 50.51
8326 93.1600 2474.00 2498.21 49.74
8327 93.1700 2458.00 2499.35 49.58
8328 93.1800 2579.00 2500.90 50.78
8329 93.1900 2564.00 2502.78 50.64
8330 93.2000 2580.00 2504.93 50.79
8331 93.2100 2552.00 2507.28 50.52
8332 93.2200 2537.00 2509.71 50.37
8333 93.2300 2528.00 2512.14 50.28
8334 93.2400 2492.00 2514.46 49.92
8335 93.2500 2595.00 2516.63 50.94
8336 93.2600 2520.00 2518.57 50.20
8337 93.2700 2517.00 2520.23 50.17
8338 93.2800 2546.00 2521.58 50.46
8339 93.2900 2558.00 2522.64 50.58
8340 93.3000 2643.00 2523.45 51.41
8341 93.3100 2633.00 2524.07 51.31
8342 93.3200 2451.00 2524.57 49.51
8343 93.3300 2462.00 2525.06 49.62
8344 93.3400 2580.00 2525.63 50.79
8345 93.3500 2536.00 2526.35 50.36
8346 93.3600 2447.00 2527.31 49.47
8347 93.3700 2534.00 2528.57 50.34
8348 93.3800 2628.00 2530.17 51.26
8349 93.3900 2532.00 2532.17 50.32
8350 93.4000 2409.00 2534.60 49.08
8351 93.4100 2512.00 2537.51 50.12
8352 93.4200 2517.00 2540.90 50.17
8353 93.4300 2581.00 2544.79 50.80
8354 93.4400 2615.00 2549.17 51.14
8355 93.4500 2557.00 2554.00 50.57
8356 93.4600 2517.00 2559.22 50.17
8357 93.4700 2625.00 2564.73 51.23
8358 93.4800 2524.00 2570.42 50.24
8359 93.4900 2536.00 2576.15 50.36
8360 93.5000 2504.00 2581.74 50.04
8361 93.5100 2593.00 2587.00 50.92
8362 93.5200 2601.00 2591.70 51.00
8363 93.5300 2614.00 2595.56 51.13
8364 93.5400 2552.00 2598.32 50.52
8365 93.5500 2678.00 2599.76 51.75
8366 93.5600 2603.00 2599.71 51.02
8367 93.5700 2584.00 2598.11 50.83
8368 93.5800 2592.00 2595.01 50.91
8369 93.5900 2555.00 2590.57 50.55
8370 93.6000 2592.00 2585.06 50.91
8371 93.6100 2500.00 2578.74 50.00
8372 93.6200 2616.00 2571.91 51.15
8373 93.6300 2583.00 2564.84 50.82
8374 93.6400 2575.00 2557.79 50.74
8375 93.6500 2566.00 2550.98 50.66
8376 93.6600 2494.00 2544.55 49.94
8377 93.6700 2530.00 2538.68 50.30
8378 93.6800 2569.00 2533.45 50.69
8379 93.6900 2492.00 2528.92 49.92
8380 93.7000 2541.00 2525.15 50.41
8381 93.7100 2581.00 2522.15 50.80
8382 93.7200 2423.00 2519.93 49.22
8383 93.7300 2536.00 2518.43 50.36
8384 93.7400 2454.00 2517.63 49.54
8385 93.7500 2453.00 2517.45 49.53
8386 93.7600 2495.00 2517.83 49.95
8387 93.7700 2495.00 2518.66 49.95
8388 93.7800 2522.00 2519.94 50.22
8389 93.7900 2676.00 2521.38 51.73
8390 93.8000 2511.00 2523.07 50.11
8391 93.8100 2477.00 2524.66 49.77
8392 93.8200 2543.00 2526.13 50.43
8393 93.8300 2488.00 2527.33 49.88
8394 93.8400 2640.00 2528.12 51.38
8395 93.8500 2514.00 2528.38 50.14
8396 93.8600 2570.00 2527.99 50.70
8397 93.8700 2462.00 2526.91 49.62
8398 93.8800 2588.00 2525.16 50.87
8399 93.8900 2627.00 2522.73 51.25
8400 93.9000 2435.00 2519.75 49.35
8401 93.9100 2544.00 2516.32 50.44
8402 93.9200 2415.00 2512.58 49.14
8403 93.9300 2494.00 2508.67 49.94
8404 93.9400 2587.00 2504.70 50.86
8405 93.9500 2535.00 2500.77 50.35
8406 93.9600 2545.00 2496.98 50.45
8407 93.9700 2597.00 2493.39 50.96
8408 93.9800 2561.00 2490.06 50.61
8409 93.9900 2426.00 2487.03 49.25
8410 94.0000 2532.00 2484.35 50.32
8411 94.0100 2416.00 2482.01 49.15
8412 94.0200 2472.00 2480.04 49.72
8413 94.0300 2489.00 2478.42 49.89
8414 94.0400 2434.00 2477.16 49.34
8415 94.0500 2509.00 2476.24 50.09
8416 94.0600 2497.00 2475.65 49.97
8417 94.0700 2438.00 2475.37 49.38
8418 94.0800 2441.00 2475.39 49.41
8419 94.0900 2515.00 2475.70 50.15
8420 94.1000 2513.00 2476.26 50.13
8421 94.1100 2470.00 2477.07 49.70
8422 94.1200 2513.00 2478.10 50.13
8423 94.1300 2433.00 2479.34 49.33
8424 94.1400 2447.00 2480.74 49.47
8425 94.1500 2642.00 2482.28 51.40
8426 94.1600 2473.00 2483.92 49.73
8427 94.1700 2456.00 2485.60 49.56
8428 94.1800 2443.00 2487.28 49.43
8429 94.1900 2544.00 2488.88 50.44
8430 94.2000 2496.00 2490.37 49.96
8431 94.2100 2500.00 2491.66 50.00
8432 94.2200 2453.00 2492.68 49.53
8433 94.2300 2523.00 2493.38 50.23
8434 94.2400 2441.00 2493.71 49.41
8435 94.2500 2513.00 2493.66 50.13
8436 94.2600 2537.00 2493.23 50.37
8437 94.2700 2533.00 2492.46 50.33
8438 94.2800 2498.00 2491.40 49.98
8439 94.2900 2393.00 2490.13 48.92
8440 94.3000 2456.00 2488.73 49.56
8441 94.3100 2575.00 2487.26 50.74
8442 94.3200 2395.00 2485.79 48.94
8443 94.3300 2541.00 2484.40 50.41
8444 94.3400 2497.00 2483.13 49.97
8445 94.3500 2462.00 2482.03 49.62
8446 94.3600 2493.00 2481.13 49.93
8447 94.3700 2506.00 2480.49 50.06
8448 94.3800 2396.00 2480.11 48.95
8449 94.3900 2551.00 2480.01 50.51
8450 94.4000 2478.00 2480.18 49.78
8451 94.4100 2489.00 2480.62 49.89
8452 94.4200 2559.00 2481.32 50.59
8453 94.4300 2531.00 2482.24 50.31
8454 94.4400 2529.00 2483.36 50.29
8455 94.4500 2466.00 2484.63 49.66
8456 94.4600 2511.00 2486.00 50.11
8457 94.4700 2573.00 2487.42 50.72
8458 94.4800 2503.00 2488.81 50.03
8459 94.4900 2518.00 2490.13 50.18
8460 94.5000 2592.00 2491.29 50.91
8461 94.5100 2537.00 2492.24 50.37
8462 94.5200 2457.00 2492.91 49.57
8463 94.5300 2446.00 2493.27 49.46
8464 94.5400 2423.00 2493.28 49.22
8465 94.5500 2518.00 2492.95 50.18
8466 94.5600 2422.00 2492.29 49.21
8467 94.5700 2436.00 2491.28 49.36
8468 94.5800 2489.00 2490.09 49.89
8469 94.5900 2548.00 2488.72 50.48
8470 94.6000 2451.00 2487.24 49.51
8471 94.6100 2518.00 2485.70 50.18
8472 94.6200 2447.00 2484.16 49.47
8473 94.6300 2493.00 2482.66 49.93
8474 94.6400 2583.00 2481.25 50.82
8475 94.6500 2353.00 2479.95 48.51
8476 94.6600 2456.00 2478.80 49.56
8477 94.6700 2520.00 2477.80 50.20
8478 94.6800 2484.00 2476.99 49.84
8479 94.6900 2399.00 2476.34 48.98
8480 94.7000 2512.00 2475.88 50.12
8481 94.7100 2449.00 2475.57 49.49
8482 94.7200 2486.00 2475.43 49.86
8483 94.7300 2497.00 2475.43 49.97
8484 94.7400 2456.00 2475.55 49.56
8485 94.7500 2460.00 2475.77 49.60
8486 94.7600 2485.00 2476.08 49.85
8487 94.7700 2457.00 2476.45 49.57
8488 94.7800 2462.00 2476.85 49.62
8489 94.7900 2547.00 2477.28 50.47
8490 94.8000 2464.00 2477.69 49.64
8491 94.8100 2541.00 2478.06 50.41
8492 94.8200 2477.00 2478.39 49.77
8493 94.8300 2505.00 2478.65 50.05
8494 94.8400 2536.00 2478.84 50.36
8495 94.8500 2473.00 2478.99 49.73
8496 94.8600 2546.00 2479.11 50.46
8497 94.8700 2524.00 2479.22 50.24
8498 94.8800 2499.00 2479.32 49.99
8499 94.8900 2448.00 2479.51 49.48
8500 94.9000 2466.00 2479.80 49.66
8501 94.9100 2519.00 2480.24 50.19
8502 94.9200 2508.00 2480.87 50.08
8503 94.9300 2439.00 2481.74 49.39
8504 94.9400 2501.00 2482.90 50.01
8505 94.9500 2426.00 2484.40 49.25
8506 94.9600 2528.00 2486.29 50.28
8507 94.9700 2417.00 2488.62 49.16
8508 94.9800 2506.00 2491.42 50.06
8509 94.9900 2586.00 2494.71 50.85
8510 95.0000 2444.00 2498.54 49.44
8511 95.0100 2565.00 2502.91 50.65
8512 95.0200 2526.00 2507.83 50.26
8513 95.0300 2414.00 2513.25 49.13
8514 95.0400 2486.00 2519.14 49.86
8515 95.0500 2564.00 2525.45 50.64
8516 95.0600 2559.00 2532.04 50.59
8517 95.0700 2559.00 2538.85 50.59
8518 95.0800 2601.00 2545.70 51.00
8519 95.0900 2657.00 2552.44 51.55
8520 95.1000 2588.00 2558.87 50.87
8521 95.1100 2591.00 2564.81 50.90
8522 95.1200 2684.00 2570.07 51.81
8523 95.1300 2656.00 2574.50 51.54
8524 95.1400 2597.00 2577.98 50.96
8525 95.1500 2640.00 2580.42 51.38
8526 95.1600 2641.00 2581.69 51.39
8527 95.1700 2603.00 2582.01 51.02
8528 95.1800 2671.00 2581.25 51.68
8529 95.1900 2541.00 2579.44 50.41
8530 95.2000 2601.00 2576.63 51.00
8531 95.2100 2634.00 2572.89 51.32
8532 95.2200 2608.00 2568.37 51.07
8533 95.2300 2584.00 2563.23 50.83
8534 95.2400 2626.00 2557.65 51.24
8535 95.2500 2582.00 2551.88 50.81
8536 95.2600 2593.00 2546.09 50.92
8537 95.2700 2519.00 2540.50 50.19
8538 95.2800 2462.00 2535.26 49.62
8539 95.2900 2508.00 2530.51 50.08
8540 95.3000 2598.00 2526.35 50.97
8541 95.3100 2561.00 2522.87 50.61
8542 95.3200 2548.00 2520.11 50.48
8543 95.3300 2449.00 2518.10 49.49
8544 95.3400 2584.00 2516.81 50.83
8545 95.3500 2448.00 2516.23 49.48
8546 95.3600 2508.00 2516.29 50.08
8547 95.3700 2512.00 2516.91 50.12
8548 95.3800 2475.00 2518.02 49.75
8549 95.3900 2644.00 2519.48 51.42
8550 95.4000 2587.00 2521.18 50.86
8551 95.4100 2537.00 2522.99 50.37
8552 95.4200 2573.00 2524.77 50.72
8553 95.4300 2552.00 2526.43 50.52
8554 95.4400 2604.00 2527.80 51.03
8555 95.4500 2462.00 2528.84 49.62
8556 95.4600 2598.00 2529.48 50.97
8557 95.4700 2505.00 2529.61 50.05
8558 95.4800 2626.00 2529.34 51.24
8559 95.4900 2563.00 2528.59 50.63
8560 95.5000 2512.00 2527.36 50.12
8561 95.5100 2603.00 2525.64 51.02
8562 95.5200 2513.00 2523.48 50.13
8563 95.5300 2520.00 2520.91 50.20
8564 95.5400 2429.00 2518.01 49.28
8565 95.5500 2614.00 2514.86 51.13
8566 95.5600 2553.00 2511.54 50.53
8567 95.5700 2521.00 2508.15 50.21
8568 95.5800 2493.00 2504.77 49.93
8569 95.5900 2519.00 2501.46 50.19
8570 95.6000 2496.00 2498.30 49.96
8571 95.6100 2478.00 2495.32 49.78
8572 95.6200 2527.00 2492.55 50.27
8573 95.6300 2506.00 2490.02 50.06
8574 95.6400 2441.00 2487.74 49.41
8575 95.6500 2506.00 2485.71 50.06
8576 95.6600 2387.00 2484.07 48.86
8577 95.6700 2535.00 2482.52 50.35
8578 95.6800 2494.00 2481.19 49.94
8579 95.6900 2437.00 2480.05 49.37
8580 95.7000 2518.00 2479.09 50.18
8581 95.7100 2487.00 2478.34 49.87
8582 95.7200 2530.00 2477.68 50.30
8583 95.7300 2489.00 2477.12 49.89
8584 95.7400 2486.00 2476.65 49.86
8585 95.7500 2503.00 2476.27 50.03
8586 95.7600 2415.00 2475.95 49.14
8587 95.7700 2476.00 2475.69 49.76
8588 95.7800 2421.00 2475.47 49.20
8589 95.7900 2442.00 2475.29 49.42
8590 95.8000 2410.00 2475.15 49.09
8591 95.8100 2366.00 2475.04 48.64
8592 95.8200 2460.00 2474.96 49.60
8593 95.8300 2517.00 2474.90 50.17
8594 95.8400 2475.00 2474.86 49.75
8595 95.8500 2462.00 2474.84 49.62
8596 95.8600 2454.00 2474.82 49.54
8597 95.8700 2470.00 2474.85 49.70
8598 95.8800 2478.00 2474.98 49.78
8599 95.8900 2430.00 2475.06 49.29
8600 95.9000 2432.00 2475.18 49.32
8601 95.9100 2443.00 2475.34 49.43
8602 95.9200 2520.00 2475.53 50.20
8603 95.9300 2518.00 2475.79 50.18
8604 95.9400 2488.00 2476.10 49.88
8605 95.9500 2440.00 2476.50 49.40
8606 95.9600 2533.00 2476.95 50.33
8607 95.9700 2528.00 2477.49 50.28
8608 95.9800 2416.00 2478.12 49.15
8609 95.9900 2522.00 2478.85 50.22
8610 96.0000 2436.00 2479.69 49.36
8611 96.0100 2577.00 2480.64 50.76
8612 96.0200 2518.00 2481.69 50.18
8613 96.0300 2535.00 2482.84 50.35
8614 96.0400 2409.00 2484.08 49.08
8615 96.0500 2470.00 2485.39 49.70
8616 96.0600 2549.00 2486.77 50.49
8617 96.0700 2447.00 2488.17 49.47
8618 96.0800 2415.00 2489.56 49.14
8619 96.0900 2530.00 2490.92 50.30
8620 96.1000 2410.00 2492.20 49.09
8621 96.1100 2601.00 2493.35 51.00
8622 96.1200 2527.00 2494.32 50.27
8623 96.1300 2509.00 2495.09 50.09
8624 96.1400 2507.00 2495.58 50.07
8625 96.1500 2486.00 2495.82 49.86
8626 96.1600 2511.00 2495.78 50.11
8627 96.1700 2453.00 2495.44 49.53
8628 96.1800 2448.00 2494.87 49.48
8629 96.1900 2517.00 2494.09 50.17
8630 96.2000 2452.00 2493.13 49.52
8631 96.2100 2446.00 2492.05 49.46
8632 96.2200 2407.00 2490.89 49.06
8633 96.2300 2467.00 2489.71 49.67
8634 96.2400 2529.00 2488.53 50.29
8635 96.2500 2439.00 2487.40 49.39
8636 96.2600 2579.00 2486.35 50.78
8637 96.2700 2457.00 2485.41 49.57
8638 96.2800 2473.00 2484.58 49.73
8639 96.2900 2380.00 2483.90 48.79
8640 96.3000 2476.00 2483.45 49.76
8641 96.3100 2465.00 2483.08 49.65
8642 96.3200 2529.00 2482.85 50.29
8643 96.3300 2518.00 2482.84 50.18
8644 96.3400 2583.00 2482.90 50.82
8645 96.3500 2525.00 2483.10 50.25
8646 96.3600 2481.00 2483.41 49.81
8647 96.3700 2420.00 2483.82 49.19
8648 96.3800 2433.00 2484.31 49.33
8649 96.3900 2474.00 2484.86 49.74
8650 96.4000 2460.00 2485.43 49.60
8651 96.4100 2470.00 2486.02 49.70
8652 96.4200 2453.00 2486.58 49.53
8653 96.4300 2492.00 2487.10 49.92
8654 96.4400 2444.00 2487.54 49.44
8655 96.4500 2436.00 2487.89 49.36
8656 96.4600 2530.00 2488.11 50.30
8657 96.4700 2500.00 2488.22 50.00
8658 96.4800 2526.00 2488.19 50.26
8659 96.4900 2414.00 2488.04 49.13
8660 96.5000 2495.00 2487.78 49.95
8661 96.5100 2456.00 2487.43 49.56
8662 96.5200 2463.00 2487.03 49.63
8663 96.5300 2475.00 2486.56 49.75
8664 96.5400 2508.00 2486.06 50.08
8665 96.5500 2565.00 2485.57 50.65
8666 96.5600 2529.00 2485.09 50.29
8667 96.5700 2387.00 2484.65 48.86
8668 96.5800 2446.00 2484.26 49.46
8669 96.5900 2458.00 2483.94 49.58
8670 96.6000 2505.00 2483.70 50.05
8671 96.6100 2415.00 2483.54 49.14
8672 96.6200 2470.00 2483.48 49.70
8673 96.6300 2513.00 2483.51 50.13
8674 96.6400 2535.00 2483.64 50.35
8675 96.6500 2501.00 2483.87 50.01
8676 96.6600 2550.00 2484.20 50.50
8677 96.6700 2508.00 2484.62 50.08
8678 96.6800 2530.00 2485.13 50.30
8679 96.6900 2493.00 2485.73 49.93
8680 96.7000 2499.00 2486.39 49.99
8681 96.7100 2444.00 2487.11 49.44
8682 96.7200 2517.00 2487.88 50.17
8683 96.7300 2554.00 2488.68 50.54
8684 96.7400 2477.00 2489.51 49.77
8685 96.7500 2532.00 2490.33 50.32
8686 96.7600 2481.00 2491.14 49.81
8687 96.7700 2569.00 2491.86 50.69
8688 96.7800 2575.00 2492.61 50.74
8689 96.7900 2442.00 2493.33 49.42
8690 96.8000 2503.00 2494.01 50.03
8691 96.8100 2461.00 2494.68 49.61
8692 96.8200 2559.00 2495.37 50.59
8693 96.8300 2433.00 2496.12 49.33
8694 96.8400 2417.00 2496.91 49.16
8695 96.8500 2407.00 2497.94 49.06
8696 96.8600 2520.00 2499.21 50.20
8697 96.8700 2516.00 2500.78 50.16
8698 96.8800 2553.00 2502.73 50.53
8699 96.8900 2534.00 2505.11 50.34
8700 96.9000 2532.00 2507.99 50.32
8701 96.9100 2531.00 2511.41 50.31
8702 96.9200 2589.00 2515.41 50.88
8703 96.9300 2576.00 2520.01 50.75
8704 96.9400 2561.00 2525.22 50.61
8705 96.9500 2635.00 2531.15 51.33
8706 96.9600 2537.00 2537.49 50.37
8707 96.9700 2584.00 2544.30 50.83
8708 96.9800 2454.00 2551.48 49.54
8709 96.9900 2580.00 2558.91 50.79
8710 97.0000 2624.00 2566.43 51.22
8711 97.0100 2601.00 2573.84 51.00
8712 97.0200 2564.00 2580.96 50.64
8713 97.0300 2688.00 2587.56 51.85
8714 97.0400 2617.00 2593.41 51.16
8715 97.0500 2632.00 2598.30 51.30
8716 97.0600 2646.00 2602.04 51.44
8717 97.0700 2592.00 2604.47 50.91
8718 97.0800 2615.00 2605.52 51.14
8719 97.0900 2547.00 2605.15 50.47
8720 97.1000 2581.00 2603.51 50.80
8721 97.1100 2514.00 2600.72 50.14
8722 97.1200 2602.00 2597.01 51.01
8723 97.1300 2662.00 2592.64 51.59
8724 97.1400 2572.00 2587.86 50.71
8725 97.1500 2529.00 2582.97 50.29
8726 97.1600 2579.00 2578.15 50.78
8727 97.1700 2560.00 2573.70 50.60
8728 97.1800 2588.00 2569.76 50.87
8729 97.1900 2498.00 2566.48 49.98
8730 97.2000 2548.00 2563.97 50.48
8731 97.2100 2614.00 2562.28 51.13
8732 97.2200 2571.00 2561.45 50.71
8733 97.2300 2634.00 2561.45 51.32
8734 97.2400 2617.00 2562.26 51.16
8735 97.2500 2602.00 2563.77 51.01
8736 97.2600 2571.00 2565.88 50.71
8737 97.2700 2528.00 2568.56 50.28
8738 97.2800 2571.00 2571.47 50.71
8739 97.2900 2556.00 2574.54 50.56
8740 97.3000 2559.00 2577.58 50.59
8741 97.3100 2631.00 2580.44 51.29
8742 97.3200 2494.00 2582.94 49.94
8743 97.3300 2499.00 2584.94 49.99
8744 97.3400 2568.00 2586.35 50.68
8745 97.3500 2507.00 2587.08 50.07
8746 97.3600 2602.00 2587.09 51.01
8747 97.3700 2533.00 2586.35 50.33
8748 97.3800 2672.00 2584.87 51.69
8749 97.3900 2532.00 2582.65 50.32
8750 97.4000 2531.00 2579.74 50.31
8751 97.4100 2615.00 2576.21 51.14
8752 97.4200 2621.00 2572.17 51.20
8753 97.4300 2520.00 2567.75 50.20
8754 97.4400 2549.00 2563.08 50.49
8755 97.4500 2454.00 2558.35 49.54
8756 97.4600 2583.00 2553.69 50.82
8757 97.4700 2570.00 2549.26 50.70
8758 97.4800 2582.00 2545.17 50.81
8759 97.4900 2478.00 2541.54 49.78
8760 97.5000 2589.00 2538.46 50.88
8761 97.5100 2410.00 2535.99 49.09
8762 97.5200 2560.00 2534.16 50.60
8763 97.5300 2538.00 2533.01 50.38
8764 97.5400 2523.00 2532.54 50.23
8765 97.5500 2577.00 2532.73 50.76
8766 97.5600 2449.00 2533.54 49.49
8767 97.5700 2545.00 2534.94 50.45
8768 97.5800 2577.00 2536.84 50.76
8769 97.5900 2542.00 2539.18 50.42
8770 97.6000 2575.00 2541.86 50.74
8771 97.6100 2467.00 2544.78 49.67
8772 97.6200 2544.00 2547.82 50.44
8773 97.6300 2541.00 2550.92 50.41
8774 97.6400 2508.00 2553.87 50.08
8775 97.6500 2505.00 2556.63 50.05
8776 97.6600 2592.00 2559.05 50.91
8777 97.6700 2502.00 2561.06 50.02
8778 97.6800 2534.00 2562.58 50.34
8779 97.6900 2514.00 2563.54 50.14
8780 97.7000 2619.00 2563.90 51.18
8781 97.7100 2537.00 2563.62 50.37
8782 97.7200 2573.00 2562.71 50.72
8783 97.7300 2560.00 2561.22 50.60
8784 97.7400 2621.00 2559.22 51.20
8785 97.7500 2553.00 2556.82 50.53
8786 97.7600 2461.00 2554.16 49.61
8787 97.7700 2539.00 2551.36 50.39
8788 97.7800 2553.00 2548.56 50.53
8789 97.7900 2599.00 2545.87 50.98
8790 97.8000 2449.00 2543.38 49.49
8791 97.8100 2544.00 2541.19 50.44
8792 97.8200 2506.00 2539.35 50.06
8793 97.8300 2500.00 2537.86 50.00
8794 97.8400 2456.00 2536.77 49.56
8795 97.8500 2557.00 2536.04 50.57
8796 97.8600 2581.00 2535.68 50.80
8797 97.8700 2517.00 2535.59 50.17
8798 97.8800 2548.00 2535.72 50.48
8799 97.8900 2590.00 2536.02 50.89
8800 97.9000 2562.00 2536.40 50.62
8801 97.9100 2500.00 2536.78 50.00
8802 97.9200 2554.00 2537.12 50.54
8803 97.9300 2539.00 2537.36 50.39
8804 97.9400 2572.00 2537.48 50.71
8805 97.9500 2536.00 2537.48 50.36
8806 97.9600 2558.00 2537.33 50.58
8807 97.9700 2520.00 2537.06 50.20
8808 97.9800 2502.00 2536.66 50.02
8809 97.9900 2474.00 2536.12 49.74
8810 98.0000 2443.00 2535.46 49.43
8811 98.0100 2465.00 2534.64 49.65
8812 98.0200 2475.00 2533.67 49.75
8813 98.0300 2551.00 2532.52 50.51
8814 98.0400 2602.00 2531.21 51.01
8815 98.0500 2583.00 2529.74 50.82
8816 98.0600 2496.00 2528.12 49.96
8817 98.0700 2484.00 2526.40 49.84
8818 98.0800 2468.00 2524.62 49.68
8819 98.0900 2550.00 2522.84 50.50
8820 98.1000 2475.00 2521.09 49.75
8821 98.1100 2513.00 2519.45 50.13
8822 98.1200 2489.00 2517.92 49.89
8823 98.1300 2469.00 2516.53 49.69
8824 98.1400 2469.00 2515.32 49.69
8825 98.1500 2491.00 2514.29 49.91
8826 98.1600 2561.00 2513.43 50.61
8827 98.1700 2524.00 2512.73 50.24
8828 98.1800 2421.00 2512.18 49.20
8829 98.1900 2526.00 2511.75 50.26
8830 98.2000 2519.00 2511.47 50.19
8831 98.2100 2562.00 2511.17 50.62
8832 98.2200 2398.00 2510.88 48.97
8833 98.2300 2566.00 2510.56 50.66
8834 98.2400 2488.00 2510.18 49.88
8835 98.2500 2542.00 2509.71 50.42
8836 98.2600 2525.00 2509.14 50.25
8837 98.2700 2474.00 2508.48 49.74
8838 98.2800 2478.00 2507.73 49.78
8839 98.2900 2467.00 2506.91 49.67
8840 98.3000 2466.00 2506.03 49.66
8841 98.3100 2512.00 2505.12 50.12
8842 98.3200 2448.00 2504.21 49.48
8843 98.3300 2541.00 2503.30 50.41
8844 98.3400 2520.00 2502.44 50.20
8845 98.3500 2460.00 2501.64 49.60
8846 98.3600 2580.00 2500.92 50.79
8847 98.3700 2464.00 2500.29 49.64
8848 98.3800 2459.00 2499.79 49.59
8849 98.3900 2386.00 2499.42 48.85
8850 98.4000 2502.00 2499.20 50.02
8851 98.4100 2599.00 2499.19 50.98
8852 98.4200 2456.00 2499.35 49.56
8853 98.4300 2490.00 2499.73 49.90
8854 98.4400 2437.00 2500.44 49.37
8855 98.4500 2504.00 2501.36 50.04
8856 98.4600 2506.00 2502.60 50.06
8857 98.4700 2423.00 2504.20 49.22
8858 98.4800 2585.00 2506.19 50.84
8859 98.4900 2537.00 2508.62 50.37
8860 98.5000 2534.00 2511.54 50.34
8861 98.5100 2554.00 2514.99 50.54
8862 98.5200 2486.00 2518.98 49.86
8863 98.5300 2586.00 2523.55 50.85
8864 98.5400 2532.00 2528.69 50.32
8865 98.5500 2577.00 2534.42 50.76
8866 98.5600 2593.00 2540.68 50.92
8867 98.5700 2575.00 2547.44 50.74
8868 98.5800 2561.00 2554.61 50.61
8869 98.5900 2650.00 2562.10 51.48
8870 98.6000 2579.00 2569.78 50.78
8871 98.6100 2585.00 2577.47 50.84
8872 98.6200 2548.00 2585.03 50.48
8873 98.6300 2559.00 2592.22 50.59
8874 98.6400 2618.00 2598.83 51.17
8875 98.6500 2683.00 2604.61 51.80
8876 98.6600 2600.00 2609.34 50.99
8877 98.6700 2664.00 2612.80 51.61
8878 98.6800 2586.00 2614.86 50.85
8879 98.6900 2591.00 2615.42 50.90
8880 98.7000 2537.00 2614.52 50.37
8881 98.7100 2526.00 2612.23 50.26
8882 98.7200 2589.00 2608.76 50.88
8883 98.7300 2556.00 2604.29 50.56
8884 98.7400 2566.00 2599.10 50.66
8885 98.7500 2572.00 2593.45 50.71
8886 98.7600 2596.00 2587.56 50.95
8887 98.7700 2606.00 2581.58 51.05
8888 98.7800 2630.00 2575.83 51.28
8889 98.7900 2647.00 2570.40 51.45
8890 98.8000 2592.00 2565.50 50.91
8891 98.8100 2526.00 2561.09 50.26
8892 98.8200 2634.00 2557.33 51.32
8893 98.8300 2595.00 2554.24 50.94
8894 98.8400 2480.00 2551.84 49.80
8895 98.8500 2569.00 2550.15 50.69
8896 98.8600 2601.00 2549.14 51.00
8897 98.8700 2516.00 2548.79 50.16
8898 98.8800 2537.00 2549.08 50.37
8899 98.8900 2496.00 2549.97 49.96
8900 98.9000 2535.00 2551.42 50.35
8901 98.9100 2623.00 2553.37 51.22
8902 98.9200 2601.00 2555.78 51.00
8903 98.9300 2490.00 2558.56 49.90
8904 98.9400 2563.00 2561.63 50.63
8905 98.9500 2528.00 2564.87 50.28
8906 98.9600 2574.00 2568.18 50.73
8907 98.9700 2548.00 2571.42 50.48
8908 98.9800 2615.00 2574.44 51.14
8909 98.9900 2691.00 2577.11 51.87
8910 99.0000 2553.00 2579.23 50.53
8911 99.0100 2641.00 2580.71 51.39
8912 99.0200 2642.00 2581.39 51.40
8913 99.0300 2513.00 2581.32 50.13
8914 99.0400 2618.00 2580.43 51.17
8915 99.0500 2583.00 2578.74 50.82
8916 99.0600 2506.00 2576.30 50.06
8917 99.0700 2622.00 2573.21 51.21
8918 99.0800 2610.00 2569.57 51.09
8919 99.0900 2606.00 2565.50 51.05
8920 99.1000 2626.00 2561.11 51.24
8921 99.1100 2591.00 2556.50 50.90
8922 99.1200 2484.00 2551.85 49.84
8923 99.1300 2501.00 2547.23 50.01
8924 99.1400 2586.00 2542.73 50.85
8925 99.1500 2495.00 2538.42 49.95
8926 99.1600 2383.00 2534.34 48.82
8927 99.1700 2503.00 2530.53 50.03
8928 99.1800 2422.00 2527.01 49.21
8929 99.1900 2491.00 2523.79 49.91
8930 99.2000 2581.00 2520.88 50.80
8931 99.2100 2538.00 2518.26 50.38
8932 99.2200 2495.00 2515.95 49.95
8933 99.2300 2487.00 2513.92 49.87
8934 99.2400 2467.00 2512.17 49.67
8935 99.2500 2660.00 2510.69 51.58
8936 99.2600 2439.00 2509.46 49.39
8937 99.2700 2624.00 2508.48 51.22
8938 99.2800 2520.00 2507.73 50.20
8939 99.2900 2570.00 2507.19 50.70
8940 99.3000 2503.00 2506.84 50.03
8941 99.3100 2552.00 2506.66 50.52
8942 99.3200 2463.00 2506.69 49.63
8943 99.3300 2495.00 2506.78 49.95
8944 99.3400 2557.00 2506.97 50.57
8945 99.3500 2509.00 2507.23 50.09
8946 99.3600 2487.00 2507.51 49.87
8947 99.3700 2486.00 2507.83 49.86
8948 99.3800 2510.00 2508.13 50.10
8949 99.3900 2559.00 2508.39 50.59
8950 99.4000 2514.00 2508.58 50.14
8951 99.4100 2396.00 2508.71 48.95
8952 99.4200 2468.00 2508.77 49.68
8953 99.4300 2523.00 2508.69 50.23
8954 99.4400 2443.00 2508.61 49.43
8955 99.4500 2535.00 2508.47 50.35
8956 99.4600 2642.00 2508.29 51.40
8957 99.4700 2546.00 2508.08 50.46
8958 99.4800 2502.00 2507.83 50.02
8959 99.4900 2548.00 2507.56 50.48
8960 99.5000 2497.00 2507.25 49.97
8961 99.5100 2542.00 2506.91 50.42
8962 99.5200 2437.00 2506.53 49.37
8963 99.5300 2503.00 2506.10 50.03
8964 99.5400 2463.00 2505.63 49.63
8965 99.5500 2527.00 2505.11 50.27
8966 99.5600 2477.00 2504.57 49.77
8967 99.5700 2592.00 2504.00 50.91
8968 99.5800 2469.00 2503.45 49.69
8969 99.5900 2511.00 2502.92 50.11
8970 99.6000 2515.00 2502.44 50.15
8971 99.6100 2503.00 2502.04 50.03
8972 99.6200 2417.00 2501.76 49.16
8973 99.6300 2520.00 2501.57 50.20
8974 99.6400 2520.00 2501.59 50.20
8975 99.6500 2495.00 2501.79 49.95
8976 99.6600 2549.00 2502.24 50.49
8977 99.6700 2580.00 2503.02 50.79
8978 99.6800 2418.00 2503.97 49.17
8979 99.6900 2510.00 2505.22 50.10
8980 99.7000 2577.00 2506.76 50.76
8981 99.7100 2572.00 2508.61 50.71
8982 99.7200 2625.00 2510.77 51.23
8983 99.7300 2540.00 2513.21 50.40
8984 99.7400 2494.00 2515.90 49.94
8985 99.7500 2506.00 2518.81 50.06
8986 99.7600 2534.00 2521.89 50.34
8987 99.7700 2517.00 2525.04 50.17
8988 99.7800 2529.00 2528.24 50.29
8989 99.7900 2523.00 2531.37 50.23
8990 99.8000 2562.00 2534.34 50.62
8991 99.8100 2566.00 2537.03 50.66
8992 99.8200 2546.00 2539.34 50.46
8993 99.8300 2531.00 2541.16 50.31
8994 99.8400 2502.00 2542.39 50.02
8995 99.8500 2572.00 2542.98 50.71
8996 99.8600 2475.00 2542.89 49.75
8997 99.8700 2539.00 2542.12 50.39
8998 99.8800 2538.00 2540.71 50.38
8999 99.8900 2555.00 2538.75 50.55
9000 99.9000 0.00 0.00 0.00
loop_
_refln_index_h
_refln_index_k
_refln_index_l
_refln_F_squared_calc
_refln_F_squared_meas
_refln_observed_status
_refln_d_spacing
0 2 0 12500.11 12400.28 o 6.599311
0 1 1 15516.07 15356.35 o 5.814124
1 0 1 18244.68 19000.01 o 5.501696
2 0 0 21582.26 23533.11 o 5.214103
1 2 1 1569.15 1845.82 o 4.225805
2 2 0 469.82 484.57 o 4.091217
2 1 1 6788.12 6395.34 o 3.881784
0 3 1 3658.96 3350.24 o 3.639239
0 4 0 171.39 193.70 < 3.299656
0 0 2 24386.53 25585.79 o 3.238172
3 0 1 25149.08 26622.85 o 3.062785
1 1 2 4548.72 4779.16 o 3.010963
2 3 1 22.15 16.04 < 2.984237
0 2 2 0.39 0.27 < 2.907062
1 4 1 6518.64 6305.52 o 2.829740
2 4 0 163117.09 158367.69 o 2.788243
3 2 1 25.14 24.98 o 2.778164
2 0 2 156601.69 152607.03 o 2.750848
4 0 0 161249.88 160583.14 o 2.607052
2 2 2 14921.83 13839.43 o 2.539089
1 3 2 3896.59 3641.28 o 2.530010
0 5 1 11468.97 11546.72 o 2.444468
4 2 0 103.07 103.80 < 2.424704
4 1 1 663.50 444.47 < 2.378849
3 1 2 9.86 3.17 < 2.332096
0 4 2 11304.88 7035.04 o 2.311165
3 4 1 644.01 772.37 o 2.244790
2 5 1 39317.28 40876.41 o 2.213308
0 6 0 20274.99 18539.73 o 2.199770
0 1 3 36646.93 38551.07 o 2.130472
4 3 1 700.46 640.82 o 2.119351
1 0 3 1763.19 1479.76 < 2.113960
2 4 2 268.95 216.84 < 2.112902
3 3 2 5847.06 6820.24 o 2.086089
4 4 0 38675.09 39359.83 o 2.045609
1 6 1 5675.43 5750.95 o 2.042552
4 0 2 2485.21 3041.65 o 2.030704
2 6 0 1287.60 1448.16 o 2.026780
1 2 3 331.56 356.41 o 2.013194
1 5 2 5201.05 6156.96 o 2.007752
5 0 1 1271.30 800.14 < 1.985236
2 1 3 16231.57 13727.76 o 1.972192
4 2 2 3707.31 4129.74 o 1.940892
0 3 3 3020.32 3221.80 o 1.938041
5 2 1 1098.70 895.86 < 1.901079
3 0 3 23133.81 19659.07 o 1.833899
0 6 2 7183.75 6268.78 o 1.819620
2 3 3 622.55 533.14 o 1.816612
0 7 1 3539.43 3176.12 o 1.810353
3 6 1 5007.41 5454.14 o 1.786691
4 5 1 41371.71 41872.71 o 1.783209
1 4 3 212.34 209.50 o 1.779994
3 2 3 4765.52 4288.76 o 1.766942
3 5 2 6566.51 6398.49 o 1.763259
5 1 2 3046.74 3026.33 o 1.738150
6 0 0 496.60 493.28 o 1.738034
4 4 2 89483.58 94639.97 o 1.729431
2 6 2 8029.60 7430.08 o 1.718009
2 7 1 275.01 172.12 < 1.710203
5 4 1 9136.50 7121.95 o 1.701087
4 6 0 2622.33 1682.40 < 1.681243
6 2 0 2135.51 1354.47 < 1.680723
0 5 3 57788.83 51572.66 o 1.671113
6 1 1 6610.07 5518.52 o 1.665223
0 8 0 117826.91 114184.34 o 1.649828
4 1 3 5398.26 5242.45 o 1.649691
5 3 2 212.89 110.92 < 1.628826
0 0 4 105785.36 106101.45 o 1.619086
1 7 2 2908.68 2455.46 o 1.609884
3 4 3 6030.88 3737.44 o 1.602960
2 5 3 31009.53 32516.81 o 1.591378
1 1 4 36.68 38.86 o 1.588291
1 8 1 5709.01 3465.88 o 1.580302
2 8 0 115.01 119.78 o 1.572964
0 2 4 17593.72 18594.45 o 1.572453
6 3 1 127.86 110.45 o 1.568355
4 3 3 6465.01 4294.87 o 1.555358
2 0 4 18637.20 15342.71 o 1.546254
6 4 0 76414.96 78228.64 o 1.537754
6 0 2 82852.73 91967.04 o 1.531393
1 6 3 2211.05 1957.34 o 1.524229
2 2 4 4886.71 5698.92 o 1.505482
1 3 4 473.59 508.57 o 1.503582
5 0 3 6573.26 6727.65 o 1.499962
4 6 2 11253.04 10988.85 o 1.492119
6 2 2 1411.92 1391.28 o 1.491755
4 7 1 1074.90 1010.04 o 1.486996
3 7 2 1275.18 935.79 < 1.475369
5 6 1 1763.78 1227.83 < 1.473800
0 8 2 2.80 1.63 < 1.470026
5 2 3 2026.45 1578.04 < 1.462656
5 5 2 113.99 100.92 < 1.460565
3 1 4 64.48 53.66 < 1.458695
0 4 4 1345.92 1071.81 o 1.453531
3 8 1 8310.27 6397.03 o 1.452500
7 0 1 26906.31 20579.69 o 1.451829
0 9 1 40861.65 32677.03 o 1.430302
0 7 3 1536.84 1693.78 o 1.420110
7 2 1 896.12 820.11 o 1.417921
6 5 1 31659.38 28557.90 o 1.416490
2 8 2 15105.86 13480.88 o 1.414870
3 6 3 7984.95 7274.98 o 1.408602
4 5 3 68972.87 61432.25 o 1.406893
2 4 4 27547.26 24802.28 o 1.400144
4 8 0 14515.46 14640.66 o 1.394121
3 3 4 3471.24 2968.99 o 1.392258
6 4 2 6321.45 4296.55 o 1.389082
2 9 1 22317.67 19666.38 o 1.379347
4 0 4 35082.04 35898.77 o 1.375424
2 7 3 6574.18 6695.94 o 1.370198
1 5 4 673.92 596.59 o 1.368226
5 4 3 6051.84 4920.55 o 1.365497
6 6 0 7347.83 6072.28 o 1.363739
6 1 3 6614.50 6868.90 o 1.346737
4 2 4 10222.39 10548.07 o 1.346490
7 1 2 3.41 3.53 o 1.346329
7 4 1 422.80 525.37 < 1.328883
1 9 2 1784.81 1136.16 < 1.325072
0 10 0 8471.35 7330.30 < 1.319862
0 6 4 9653.89 10158.97 o 1.303963
8 0 0 119809.27 126042.76 o 1.303526
1 8 3 694.69 669.73 o 1.300613
6 3 3 381.65 283.64 < 1.293928
7 3 2 3208.47 2442.22 < 1.293567
0 1 5 2511.29 1508.27 < 1.289076
1 0 5 6471.46 5928.51 o 1.285392
5 7 2 2219.51 2074.35 o 1.284018
1 10 1 356.19 330.15 o 1.283446
3 5 4 8529.72 8360.68 o 1.282747
4 8 2 12255.35 12052.08 o 1.280491
2 10 0 11799.19 11945.61 o 1.279506
8 2 0 2734.42 2740.69 o 1.278817
5 1 4 2711.48 2760.41 o 1.272981
8 1 1 9505.36 8739.16 o 1.271950
4 4 4 17074.92 15586.94 o 1.269545
5 8 1 842.12 760.38 o 1.268857
2 6 4 7919.39 8403.21 o 1.265005
1 2 5 6917.75 5495.83 o 1.261681
6 6 2 1279.72 780.10 < 1.256829
4 9 1 12786.06 9907.52 o 1.253979
6 7 1 1034.41 814.23 o 1.253763
2 1 5 1465.58 1158.25 o 1.251400
4 7 3 2.60 1.19 < 1.247094
3 9 2 129.11 63.25 < 1.246983
0 3 5 2734.92 1672.70 < 1.242538
5 6 3 3087.40 2806.14 < 1.239278
5 3 4 211.64 151.00 o 1.228105
8 3 1 280.02 210.52 o 1.227179
3 8 3 8844.29 6668.05 o 1.226534
7 0 3 2137.96 1623.99 o 1.226130
0 10 2 6908.77 5204.28 < 1.222234
1 7 4 1423.48 1177.71 < 1.219925
3 0 5 787.56 657.49 o 1.213743
0 9 3 47525.98 39656.15 o 1.213080
8 4 0 664.85 572.35 o 1.212352
3 10 1 153.72 130.24 o 1.212105
7 6 1 5121.31 4429.38 o 1.211715
8 0 2 17663.96 15031.55 o 1.209227
2 3 5 123.68 103.69 o 1.208692
7 2 3 205.35 181.96 o 1.205499
6 5 3 12116.43 10713.94 o 1.204619
7 5 2 6117.68 5411.45 o 1.204328
1 4 5 3713.73 2244.19 < 1.197722
6 8 0 3960.54 2313.43 < 1.196573
3 2 5 1584.89 995.38 < 1.193722
2 10 2 1200.10 876.21 < 1.189978
8 2 2 211.74 158.29 < 1.189425
6 0 4 10813.91 11424.55 o 1.184688
2 9 3 38941.13 32189.02 o 1.181525
0 11 1 1943.05 1631.98 o 1.179797
4 10 0 11432.03 11141.36 o 1.177554
4 6 4 5768.36 6264.77 o 1.166222
6 2 4 5241.46 5615.56 o 1.166048
0 5 5 2555.34 2013.07 < 1.162825
3 7 4 453.33 695.76 < 1.158172
0 8 4 15117.14 9804.97 < 1.155582
4 1 5 554.92 359.92 < 1.155535
5 5 4 419.88 354.98 o 1.150970
2 11 1 3448.46 2916.49 o 1.150708
8 5 1 10245.74 8600.09 o 1.150207
7 4 3 27.93 23.19 o 1.149343
9 0 1 3087.16 3693.97 < 1.140579
3 4 5 2.37 2.49 < 1.139122
8 4 2 17974.45 19340.68 o 1.135387
2 5 5 20908.76 22446.99 o 1.134943
2 8 4 11.43 9.81 < 1.128207
5 9 2 1574.62 1621.99 < 1.124924
9 2 1 449.87 461.66 < 1.123916
6 8 2 9107.61 8501.21 < 1.122395
4 3 5 100.42 93.56 < 1.121657
8 6 0 2030.13 1811.04 < 1.121422
1 10 3 552.42 491.07 < 1.119565
1 11 2 173.00 144.22 < 1.118627
6 4 4 23548.58 19321.21 o 1.115001
8 1 3 3328.58 2880.41 o 1.111910
5 8 3 2865.18 2389.17 o 1.109842
1 6 5 6582.92 5489.27 o 1.109812
4 10 2 11413.25 10290.99 o 1.106654
6 9 1 16715.41 13299.74 o 1.104411
5 0 5 696.39 681.45 o 1.100339
0 12 0 6577.12 6510.84 o 1.099885
4 9 3 14984.26 14729.56 o 1.099845
6 7 3 4840.63 4767.99 o 1.099699
7 7 2 306.24 295.45 o 1.099477
5 10 1 710.26 689.82 o 1.099118
7 1 4 835.00 828.91 < 1.092524
7 8 1 12056.98 8377.40 o 1.089914
9 1 2 1539.45 1169.85 < 1.087244
5 2 5 3600.97 2290.48 < 1.085356
8 3 3 98.07 70.67 < 1.081628
1 9 4 20.35 14.29 < 1.081073
0 0 6 31971.67 21819.78 o 1.079391
1 12 1 7850.53 5600.29 o 1.078543
9 4 1 6536.28 4907.96 o 1.077994
2 12 0 23024.68 19580.72 o 1.076202
4 11 1 2250.89 1929.98 o 1.074858
3 10 3 1818.73 1238.66 < 1.071264
7 6 3 1408.01 1001.77 < 1.070995
3 11 2 458.01 386.74 < 1.070442
1 1 6 9.01 7.73 < 1.070120
0 7 5 2559.90 2241.31 < 1.067627
0 2 6 5628.94 3929.62 < 1.065236
7 3 4 2250.23 1237.08 < 1.063758
3 6 5 1372.69 786.59 < 1.062711
4 5 5 9347.16 5316.24 < 1.061977
8 6 2 2266.19 2143.38 o 1.059676
9 3 2 331.31 277.72 o 1.058883
5 7 4 2470.42 2168.84 o 1.058429
8 7 1 2997.59 2592.96 o 1.057836
2 0 6 38865.91 33354.16 o 1.056980
4 8 4 1587.34 1362.97 o 1.056451
6 10 0 11219.41 10489.46 < 1.051129
0 11 3 3281.30 2980.00 < 1.048765
2 7 5 36.74 35.24 < 1.045926
5 4 5 128.23 157.67 o 1.043830
2 2 6 8702.11 10601.94 o 1.043678
6 6 4 8070.39 9589.97 o 1.043045
1 3 6 33.90 40.28 o 1.043045
10 0 0 2184.55 2614.86 o 1.042821
0 12 2 1668.97 1693.11 o 1.041448
3 9 4 8.03 7.99 < 1.037396
6 1 5 2909.47 2364.56 < 1.035378
3 12 1 2161.36 1754.58 < 1.035161
10 2 0 1520.50 1856.32 < 1.030040
2 11 3 2389.57 2241.25 o 1.028173
8 5 3 16804.69 15646.22 o 1.027816
3 1 6 1492.03 1381.10 o 1.027706
10 1 1 2591.77 2050.65 o 1.026441
0 4 6 20267.46 16082.78 o 1.025895
0 10 4 107.69 83.85 o 1.023016
8 8 0 22205.32 17246.50 o 1.022804
2 12 2 3270.62 2586.47 o 1.021276
9 0 3 1808.39 1266.76 < 1.020928
8 0 4 46512.80 38999.10 o 1.015352
1 8 5 3465.73 2882.18 o 1.013973
4 12 0 178.88 154.80 o 1.013390
9 6 1 812.20 662.00 o 1.012562
7 5 4 3440.70 2875.62 o 1.012446
6 3 5 301.95 259.87 < 1.010796
9 2 3 2217.12 1879.11 < 1.008927
9 5 2 306.93 287.52 < 1.008240
2 4 6 9793.81 8643.51 < 1.006597
