#------------------------------------------------------------------------------
#$Date: 2016-02-13 21:28:24 +0200 (Sat, 13 Feb 2016) $
#$Revision: 176429 $
#$URL: svn://www.crystallography.net/cod/cif/7/03/48/7034871.cif $
#------------------------------------------------------------------------------
#
# This file is available in the Crystallography Open Database (COD),
# http://www.crystallography.net/
#
# All data on this site have been placed in the public domain by the
# contributors.
#
data_7034871
loop_
_publ_author_name
'Dong, Yongkwan'
'Eckert, Brian'
'Wang, Hsin'
'Zeng, Xiaoyu'
'Tritt, Terry M.'
'Nolas, George S.'
_publ_section_title
;
 Synthesis, crystal structure, and transport properties of
 Cu2.2Zn0.8SnSe4-xTex (0.1 &#x2264; x &#x2264; 0.4).
;
_journal_issue                   19
_journal_name_full
'Dalton transactions (Cambridge, England : 2003)'
_journal_page_first              9014
_journal_page_last               9019
_journal_paper_doi               10.1039/c5dt00910c
_journal_volume                  44
_journal_year                    2015
_chemical_formula_sum            'Cu2.2 Se3.8 Sn Te0.2 Zn0.79'
_chemical_formula_weight         635.56
_chemical_name_systematic        ' ?'
_space_group_IT_number           121
_symmetry_cell_setting           tetragonal
_symmetry_space_group_name_Hall  'I -4 2'
_symmetry_space_group_name_H-M   'I -4 2 m'
_audit_creation_date             2014-12-15T14:33
_audit_creation_method           'from EXP file using GSAS2CIF'
_audit_update_record
' 2014-12-15T14:33  Initial CIF as created by GSAS2CIF'
_cell_angle_alpha                90.0
_cell_angle_beta                 90.0
_cell_angle_gamma                90.0
_cell_formula_units_Z            2
_cell_length_a                   5.69703(19)
_cell_length_b                   5.69703
_cell_length_c                   11.3608(7)
_cell_volume                     368.73(3)
_computing_structure_refinement  GSAS
_diffrn_radiation_polarisn_ratio 0.87
_diffrn_radiation_probe          x-ray
_exptl_absorpt_correction_T_max  1.18724
_exptl_absorpt_correction_T_min  1.18344
_exptl_absorpt_process_details
;   GSAS Absorption/surface roughness correction: function number 0
 Debye-Scherrer absorption correction
Term (= MU.r/wave) =    -0.64220E-01
Correction is not refined.
;
_pd_block_id
2014-12-15T14:33|SE38TE02|Se38Te02.cif|Bruker_D8
_pd_calc_method                  'Rietveld Refinement'
_pd_instr_location               ' ?'
_pd_meas_2theta_range_inc        0.01998
_pd_meas_2theta_range_max        100.00214
_pd_meas_2theta_range_min        15.0
_pd_meas_number_of_points        4256
_pd_phase_name
'from E:/USF/USF data/PXRD/YD143/refinements/Se38Te02/Se38Te02.cel'
_pd_proc_2theta_range_inc        0.01998
_pd_proc_2theta_range_max        100.00214
_pd_proc_2theta_range_min        15.0
_pd_proc_info_datetime           2014-12-15T14:33:46
_pd_proc_info_excluded_regions   ' ?'
_pd_proc_ls_background_function
;   GSAS Background function number 2 with  3 terms.
 Cosine Fourier series
      1:    3398.36     2:   -629.213     3:    553.628    
;
_pd_proc_ls_peak_cutoff          0.00100
_pd_proc_ls_profile_function
;
 CW Profile function number 3 with  19 terms
 Pseudovoigt profile coefficients as parameterized in
 P. Thompson, D.E. Cox & J.B. Hastings (1987). J. Appl. Cryst.,20,79-83.
 Asymmetry correction of L.W. Finger, D.E. Cox & A. P. Jephcoat (1994).
 J. Appl. Cryst.,27,892-900.
 Peak tails are ignored  where the intensity is below 0.0010 times the peak
   Aniso. broadening axis   0.0   0.0   1.0
;
_pd_proc_ls_prof_R_factor        0.0572
_pd_proc_ls_prof_wR_expected     0.0164
_pd_proc_ls_prof_wR_factor       0.0804
_pd_proc_number_of_points        4256
_pd_spec_mounting                ' ?'
_refine_ls_goodness_of_fit_all   4.91
_refine_ls_matrix_type           full
_refine_ls_number_parameters     9
_refine_ls_number_restraints     0
_refine_ls_R_Fsqd_factor         0.12490
_refine_ls_shift/su_max          0.02
_refine_ls_shift/su_mean         0.01
_reflns_d_resolution_high        1.007
_reflns_d_resolution_low         5.680
_reflns_limit_h_max              5
_reflns_limit_h_min              0
_reflns_limit_k_max              4
_reflns_limit_k_min              0
_reflns_limit_l_max              11
_reflns_limit_l_min              0
_reflns_number_total             149
_cod_data_source_file            c5dt00910c3.cif
_cod_data_source_block           SE38TE02_publ
_cod_depositor_comments
;
The following automatic conversions were performed:

'_geom_bond_publ_flag' value 'N' changed to 'n' according to
/usr/data/users/saulius/crontab/automatic-downloads/rss-feeds/RSC/lib/dictionaries/cif_core.dic
dictionary named 'cif_core.dic' version 2.4.2 from 2011-04-26 (42
times).

'_geom_angle_publ_flag' value 'N' changed to 'n' according to
/usr/data/users/saulius/crontab/automatic-downloads/rss-feeds/RSC/lib/dictionaries/cif_core.dic
dictionary named 'cif_core.dic' version 2.4.2 from 2011-04-26 (132
times).

Automatic conversion script
Id: cif_fix_values 3271 2015-04-21 07:52:19Z andrius 

 Adding full bibliography for 7034870--7034873.cif.
;
_cod_original_cell_volume        368.729(26)
_cod_original_formula_sum        'Cu2.20 Se3.80 Sn Te0.20 Zn0.79'
_cod_database_code               7034871
#BEGIN Tags that were not found in dictionaries:
_gsas_exptl_extinct_corr_t_min   1.00000
_gsas_exptl_extinct_corr_t_max   1.00000
#END Tags that were not found in dictionaries
loop_
_symmetry_equiv_pos_site_id
_symmetry_equiv_pos_as_xyz
1 +x,+y,+z
2 +y,-x,-z
3 -x,-y,+z
4 -y,+x,-z
5 -x,+y,-z
6 +y,+x,+z
7 +x,-y,-z
8 -y,-x,+z
101 +x+1/2,+y+1/2,+z+1/2
102 +y+1/2,-x+1/2,-z+1/2
103 -x+1/2,-y+1/2,+z+1/2
104 -y+1/2,+x+1/2,-z+1/2
105 -x+1/2,+y+1/2,-z+1/2
106 +y+1/2,+x+1/2,+z+1/2
107 +x+1/2,-y+1/2,-z+1/2
108 -y+1/2,-x+1/2,+z+1/2
loop_
_atom_site_type_symbol
_atom_site_label
_atom_site_fract_x
_atom_site_fract_y
_atom_site_fract_z
_atom_site_occupancy
_atom_site_thermal_displace_type
_atom_site_U_iso_or_equiv
_atom_site_symmetry_multiplicity
Cu Cu1 0.0 0.5 0.25 1.0 Uiso 0.03029 4
Cu Cu2 0.0 0.0 0.0 0.20003 Uiso 0.0464 2
Zn Zn 0.0 0.0 0.0 0.78917 Uiso 0.04639 2
Sn Sn 0.0 0.0 0.5 1.0 Uiso 0.02812 2
Se Se 0.24202 0.24202 0.12904 0.9505 Uiso 0.01853 8
Te Te 0.24202 0.24202 0.12904 0.0495 Uiso 0.01853 8
loop_
_atom_type_symbol
_atom_type_number_in_cell
_atom_type_scat_dispersion_real
_atom_type_scat_dispersion_imag
_atom_type_scat_Cromer_Mann_a1
_atom_type_scat_Cromer_Mann_a2
_atom_type_scat_Cromer_Mann_a3
_atom_type_scat_Cromer_Mann_a4
_atom_type_scat_Cromer_Mann_b1
_atom_type_scat_Cromer_Mann_b2
_atom_type_scat_Cromer_Mann_b3
_atom_type_scat_Cromer_Mann_b4
_atom_type_scat_Cromer_Mann_c
_atom_type_scat_source
Cu 4.4 0.000 0.000 13.3380 3.58280 7.16760 0.24700 5.61580 11.3966 1.67350
64.8126 1.19100 International_Tables_Vol_C
Zn 1.578 0.000 0.000 14.0743 3.26550 7.03180 0.23330 5.16520 10.3163 2.41000
58.7097 1.30410 International_Tables_Vol_C
Sn 2.0 0.000 0.000 19.1889 5.83030 19.1005 0.50310 4.45850 26.8909 2.46630
83.9571 4.78210 International_Tables_Vol_C
Se 7.604 0.000 0.000 17.0006 2.40980 5.81960 0.27260 3.97310 15.2372 4.35430
43.8163 2.84090 International_Tables_Vol_C
Te 0.396 0.000 0.000 19.9644 4.81742 19.0138 0.42088 6.14487 28.5284 2.52390
70.8403 4.35200 International_Tables_Vol_C
loop_
_diffrn_radiation_wavelength
_diffrn_radiation_wavelength_wt
_diffrn_radiation_type
_diffrn_radiation_wavelength_id
1.540600 1.000 K\a~1~ 1
1.544400 0.500 K\a~2~ 2
loop_
_geom_angle_atom_site_label_1
_geom_angle_atom_site_label_2
_geom_angle_atom_site_label_3
_geom_angle
_geom_angle_site_symmetry_1
_geom_angle_site_symmetry_3
_geom_angle_publ_flag
Se Cu1 Se 111.419(4) 1_555 3_565 n
Se Cu1 Se 108.5064(19) 1_555 102_455 n
Se Cu1 Se 108.5064(19) 1_555 104_555 n
Se Cu1 Te 0.0 1_555 1_555 n
Se Cu1 Te 111.419(4) 1_555 3_565 n
Se Cu1 Te 108.5064(19) 1_555 102_455 n
Se Cu1 Te 108.5064(19) 1_555 104_555 n
Se Cu1 Se 108.5064(19) 3_565 102_455 n
Se Cu1 Se 108.5064(19) 3_565 104_555 n
Se Cu1 Te 111.419(4) 3_565 1_555 n
Se Cu1 Te 0.0 3_565 3_565 n
Se Cu1 Te 108.5064(19) 3_565 102_455 n
Se Cu1 Te 108.5064(19) 3_565 104_555 n
Se Cu1 Se 111.419(4) 102_455 104_555 n
Se Cu1 Te 108.5064(19) 102_455 1_555 n
Se Cu1 Te 108.5064(19) 102_455 3_565 n
Se Cu1 Te 0.0 102_455 102_455 n
Se Cu1 Te 111.419(4) 102_455 104_555 n
Se Cu1 Te 108.5064(19) 104_555 1_555 n
Se Cu1 Te 108.5064(19) 104_555 3_565 n
Se Cu1 Te 111.419(4) 104_555 102_455 n
Se Cu1 Te 0.0 104_555 104_555 n
Te Cu1 Te 111.419(4) 1_555 3_565 n
Te Cu1 Te 108.5064(19) 1_555 102_455 n
Te Cu1 Te 108.5064(19) 1_555 104_555 n
Te Cu1 Te 108.5064(19) 3_565 102_455 n
Te Cu1 Te 108.5064(19) 3_565 104_555 n
Te Cu1 Te 111.419(4) 102_455 104_555 n
Se Cu2 Se 111.1685(21) 1_555 2_555 n
Se Cu2 Se 106.128(4) 1_555 3_555 n
Se Cu2 Se 111.1685(21) 1_555 4_555 n
Se Cu2 Te 0.0 1_555 1_555 n
Se Cu2 Te 111.1685(21) 1_555 2_555 n
Se Cu2 Te 106.128(4) 1_555 3_555 n
Se Cu2 Te 111.1685(21) 1_555 4_555 n
Se Cu2 Se 111.1685(21) 2_555 3_555 n
Se Cu2 Se 106.128(4) 2_555 4_555 n
Se Cu2 Te 111.1685(21) 2_555 1_555 n
Se Cu2 Te 0.0 2_555 2_555 n
Se Cu2 Te 111.1685(21) 2_555 3_555 n
Se Cu2 Te 106.128(4) 2_555 4_555 n
Se Cu2 Se 111.1685(21) 3_555 4_555 n
Se Cu2 Te 106.128(4) 3_555 1_555 n
Se Cu2 Te 111.1685(21) 3_555 2_555 n
Se Cu2 Te 0.0 3_555 3_555 n
Se Cu2 Te 111.1685(21) 3_555 4_555 n
Se Cu2 Te 111.1685(21) 4_555 1_555 n
Se Cu2 Te 106.128(4) 4_555 2_555 n
Se Cu2 Te 111.1685(21) 4_555 3_555 n
Se Cu2 Te 0.0 4_555 4_555 n
Te Cu2 Te 111.1685(21) 1_555 2_555 n
Te Cu2 Te 106.128(4) 1_555 3_555 n
Te Cu2 Te 111.1685(21) 1_555 4_555 n
Te Cu2 Te 111.1685(21) 2_555 3_555 n
Te Cu2 Te 106.128(4) 2_555 4_555 n
Te Cu2 Te 111.1685(21) 3_555 4_555 n
Se Zn Se 111.1685(21) 1_555 2_555 n
Se Zn Se 106.128(4) 1_555 3_555 n
Se Zn Se 111.1685(21) 1_555 4_555 n
Se Zn Te 0.0 1_555 1_555 n
Se Zn Te 111.1685(21) 1_555 2_555 n
Se Zn Te 106.128(4) 1_555 3_555 n
Se Zn Te 111.1685(21) 1_555 4_555 n
Se Zn Se 111.1685(21) 2_555 3_555 n
Se Zn Se 106.128(4) 2_555 4_555 n
Se Zn Te 111.1685(21) 2_555 1_555 n
Se Zn Te 0.0 2_555 2_555 n
Se Zn Te 111.1685(21) 2_555 3_555 n
Se Zn Te 106.128(4) 2_555 4_555 n
Se Zn Se 111.1685(21) 3_555 4_555 n
Se Zn Te 106.128(4) 3_555 1_555 n
Se Zn Te 111.1685(21) 3_555 2_555 n
Se Zn Te 0.0 3_555 3_555 n
Se Zn Te 111.1685(21) 3_555 4_555 n
Se Zn Te 111.1685(21) 4_555 1_555 n
Se Zn Te 106.128(4) 4_555 2_555 n
Se Zn Te 111.1685(21) 4_555 3_555 n
Se Zn Te 0.0 4_555 4_555 n
Te Zn Te 111.1685(21) 1_555 2_555 n
Te Zn Te 106.128(4) 1_555 3_555 n
Te Zn Te 111.1685(21) 1_555 4_555 n
Te Zn Te 111.1685(21) 2_555 3_555 n
Te Zn Te 106.128(4) 2_555 4_555 n
Te Zn Te 111.1685(21) 3_555 4_555 n
Se Sn Se 109.4031(20) 101_445 102_455 n
Se Sn Se 109.608(4) 101_445 103_555 n
Se Sn Se 109.4031(20) 101_445 104_545 n
Se Sn Te 0.0 101_445 101_445 n
Se Sn Te 109.4031(20) 101_445 102_455 n
Se Sn Te 109.608(4) 101_445 103_555 n
Se Sn Te 109.4031(20) 101_445 104_545 n
Se Sn Se 109.4031(20) 102_455 103_555 n
Se Sn Se 109.608(4) 102_455 104_545 n
Se Sn Te 109.4031(20) 102_455 101_445 n
Se Sn Te 0.0 102_455 102_455 n
Se Sn Te 109.4031(20) 102_455 103_555 n
Se Sn Te 109.608(4) 102_455 104_545 n
Se Sn Se 109.4031(20) 103_555 104_545 n
Se Sn Te 109.608(4) 103_555 101_445 n
Se Sn Te 109.4031(20) 103_555 102_455 n
Se Sn Te 0.0 103_555 103_555 n
Se Sn Te 109.4031(20) 103_555 104_545 n
Se Sn Te 109.4031(20) 104_545 101_445 n
Se Sn Te 109.608(4) 104_545 102_455 n
Se Sn Te 109.4031(20) 104_545 103_555 n
Se Sn Te 0.0 104_545 104_545 n
Te Sn Te 109.4031(20) 101_445 102_455 n
Te Sn Te 109.608(4) 101_445 103_555 n
Te Sn Te 109.4031(20) 101_445 104_545 n
Te Sn Te 109.4031(20) 102_455 103_555 n
Te Sn Te 109.608(4) 102_455 104_545 n
Te Sn Te 109.4031(20) 103_555 104_545 n
Cu1 Se Cu1 111.333(4) 1_555 6_555 n
Cu1 Se Cu2 111.0765(19) 1_555 1_555 n
Cu1 Se Zn 111.0765(19) 1_555 1_555 n
Cu1 Se Sn 107.6498(20) 1_555 101_554 n
Cu1 Se Cu2 111.0765(19) 6_555 1_555 n
Cu1 Se Zn 111.0765(19) 6_555 1_555 n
Cu1 Se Sn 107.6498(20) 6_555 101_554 n
Cu2 Se Zn 0.0 1_555 1_555 n
Cu2 Se Sn 107.868(4) 1_555 101_554 n
Zn Se Sn 107.868(4) 1_555 101_554 n
Cu1 Te Cu1 111.333(4) 1_555 6_555 n
Cu1 Te Cu2 111.0765(19) 1_555 1_555 n
Cu1 Te Zn 111.0765(19) 1_555 1_555 n
Cu1 Te Sn 107.6498(20) 1_555 101_554 n
Cu1 Te Cu2 111.0765(19) 6_555 1_555 n
Cu1 Te Zn 111.0765(19) 6_555 1_555 n
Cu1 Te Sn 107.6498(20) 6_555 101_554 n
Cu2 Te Zn 0.0 1_555 1_555 n
Cu2 Te Sn 107.868(4) 1_555 101_554 n
Zn Te Sn 107.868(4) 1_555 101_554 n
loop_
_geom_bond_atom_site_label_1
_geom_bond_atom_site_label_2
_geom_bond_distance
_geom_bond_site_symmetry_2
_geom_bond_publ_flag
Cu1 Se 2.43919(7) 1_555 n
Cu1 Se 2.43919(7) 3_565 n
Cu1 Se 2.43919(7) 102_455 n
Cu1 Se 2.43919(7) 104_555 n
Cu1 Te 2.43919(7) 1_555 n
Cu1 Te 2.43919(7) 3_565 n
Cu1 Te 2.43919(7) 102_455 n
Cu1 Te 2.43919(7) 104_555 n
Cu2 Se 2.43955(8) 1_555 n
Cu2 Se 2.43955(8) 2_555 n
Cu2 Se 2.43955(8) 3_555 n
Cu2 Se 2.43955(8) 4_555 n
Cu2 Te 2.43955(8) 1_555 n
Cu2 Te 2.43955(8) 2_555 n
Cu2 Te 2.43955(8) 3_555 n
Cu2 Te 2.43955(8) 4_555 n
Zn Se 2.43955(8) 1_555 n
Zn Se 2.43955(8) 2_555 n
Zn Se 2.43955(8) 3_555 n
Zn Se 2.43955(8) 4_555 n
Zn Te 2.43955(8) 1_555 n
Zn Te 2.43955(8) 2_555 n
Zn Te 2.43955(8) 3_555 n
Zn Te 2.43955(8) 4_555 n
Sn Se 2.54345(8) 101_445 n
Sn Se 2.54345(8) 102_455 n
Sn Se 2.54345(8) 103_555 n
Sn Se 2.54345(8) 104_545 n
Sn Te 2.54345(8) 101_445 n
Sn Te 2.54345(8) 102_455 n
Sn Te 2.54345(8) 103_555 n
Sn Te 2.54345(8) 104_545 n
Se Cu1 2.43919(7) 1_555 n
Se Cu1 2.43919(7) 6_555 n
Se Cu2 2.43955(8) 1_555 n
Se Zn 2.43955(8) 1_555 n
Se Sn 2.54345(8) 101_554 n
Te Cu1 2.43919(7) 1_555 n
Te Cu1 2.43919(7) 6_555 n
Te Cu2 2.43955(8) 1_555 n
Te Zn 2.43955(8) 1_555 n
Te Sn 2.54345(8) 101_554 n
loop_
_pd_meas_counts_total
_pd_proc_ls_weight
_pd_proc_intensity_bkg_calc
_pd_calc_intensity_total
4029.0 0.0002482 3270.04272 3275.96899
4059.0 0.0002464 3269.90649 3276.22192
4029.0 0.0002482 3269.77002 3276.51416
4047.0 0.0002471 3269.63354 3276.85132
4048.0 0.0002470 3269.49658 3277.23975
4017.0 0.0002489 3269.35962 3277.68726
3980.0 0.0002513 3269.22241 3278.20239
4115.0 0.0002430 3269.08521 3278.79663
3911.0 0.0002557 3268.94800 3279.48340
4024.0 0.0002485 3268.81030 3280.27832
3969.0 0.0002520 3268.67236 3281.20166
4033.0 0.0002480 3268.53467 3282.27686
4061.0 0.0002462 3268.39648 3283.53491
4058.0 0.0002464 3268.25806 3285.01367
3944.0 0.0002535 3268.11987 3286.76245
3872.0 0.0002583 3267.98120 3288.84595
4073.0 0.0002455 3267.84253 3291.35254
3986.0 0.0002509 3267.70386 3294.41748
3967.0 0.0002521 3267.56470 3298.26123
3901.0 0.0002563 3267.42554 3303.28223
4006.0 0.0002496 3267.28613 3310.21899
3867.0 0.0002586 3267.14673 3320.41431
4004.0 0.0002498 3267.00708 3336.15918
3991.0 0.0002506 3266.86743 3360.97827
4029.0 0.0002482 3266.72729 3399.64087
3999.0 0.0002501 3266.58716 3457.49902
4128.0 0.0002422 3266.44702 3539.04590
4244.0 0.0002356 3266.30640 3645.58301
4090.0 0.0002445 3266.16577 3772.44458
4273.0 0.0002340 3266.02490 3905.79517
4325.0 0.0002312 3265.88428 4020.41431
4382.0 0.0002282 3265.74292 4085.12451
4509.0 0.0002218 3265.60205 4080.15112
4414.0 0.0002266 3265.46045 4009.33521
4171.0 0.0002398 3265.31909 3894.28320
4151.0 0.0002409 3265.17725 3762.84521
4161.0 0.0002403 3265.03540 3638.18994
3911.0 0.0002557 3264.89331 3533.64087
3947.0 0.0002534 3264.75122 3455.40308
4025.0 0.0002484 3264.60913 3398.45581
3989.0 0.0002507 3264.46631 3360.16162
3933.0 0.0002543 3264.32397 3336.26196
3903.0 0.0002562 3264.18115 3320.35376
3860.0 0.0002591 3264.03809 3309.93115
4015.0 0.0002491 3263.89502 3302.76807
3969.0 0.0002520 3263.75171 3297.53662
3835.0 0.0002608 3263.60840 3293.49707
3856.0 0.0002593 3263.46484 3290.24683
3760.0 0.0002660 3263.32104 3287.55933
3891.0 0.0002570 3263.17725 3285.29907
3810.0 0.0002625 3263.03320 3283.37549
3868.0 0.0002585 3262.88916 3281.72534
3847.0 0.0002599 3262.74487 3280.29858
3918.0 0.0002552 3262.60010 3279.05859
3883.0 0.0002575 3262.45557 3277.97485
3919.0 0.0002552 3262.31079 3277.02344
3872.0 0.0002583 3262.16577 3276.18579
3964.0 0.0002523 3262.02075 3275.44580
3885.0 0.0002574 3261.87549 3274.79053
3927.0 0.0002546 3261.72998 3274.20996
3823.0 0.0002616 3261.58447 3273.69482
3881.0 0.0002577 3261.43872 3273.23804
3804.0 0.0002629 3261.29272 3272.83398
3861.0 0.0002590 3261.14673 3272.47778
3860.0 0.0002591 3261.00073 3272.16553
3824.0 0.0002615 3260.85449 3271.89331
3780.0 0.0002646 3260.70776 3271.65894
3807.0 0.0002627 3260.56128 3271.45923
3866.0 0.0002587 3260.41455 3271.29419
3925.0 0.0002548 3260.26758 3271.16089
3911.0 0.0002557 3260.12036 3271.05933
3778.0 0.0002647 3259.97314 3270.98828
3797.0 0.0002634 3259.82568 3270.94751
3736.0 0.0002677 3259.67822 3270.93750
3759.0 0.0002660 3259.53052 3270.95825
3821.0 0.0002617 3259.38257 3271.00977
3790.0 0.0002639 3259.23462 3271.09399
3733.0 0.0002679 3259.08643 3271.21118
3855.0 0.0002594 3258.93799 3271.36353
3873.0 0.0002582 3258.78955 3271.55225
3720.0 0.0002688 3258.64087 3271.78003
3821.0 0.0002617 3258.49219 3272.04907
3745.0 0.0002670 3258.34326 3272.36279
3681.0 0.0002717 3258.19409 3272.72388
3737.0 0.0002676 3258.04468 3273.13672
3727.0 0.0002683 3257.89575 3273.60669
3789.0 0.0002639 3257.74609 3274.13867
3845.0 0.0002601 3257.59619 3274.73901
3781.0 0.0002645 3257.44629 3275.41479
3840.0 0.0002604 3257.29663 3276.17407
3767.0 0.0002655 3257.14624 3277.02783
3690.0 0.0002710 3256.99609 3277.98608
3803.0 0.0002630 3256.84546 3279.06250
3846.0 0.0002600 3256.69507 3280.27344
3795.0 0.0002635 3256.54419 3281.63574
3787.0 0.0002641 3256.39331 3283.17236
3784.0 0.0002643 3256.24243 3284.90894
3765.0 0.0002656 3256.09106 3286.87549
3620.0 0.0002762 3255.93970 3289.11011
3702.0 0.0002701 3255.78833 3291.65747
3820.0 0.0002618 3255.63647 3294.57251
3881.0 0.0002577 3255.48486 3297.92310
3694.0 0.0002707 3255.33276 3301.79297
3849.0 0.0002598 3255.18091 3306.28711
3832.0 0.0002610 3255.02832 3311.53760
3748.0 0.0002668 3254.87598 3317.71558
3857.0 0.0002593 3254.72363 3325.04126
3800.0 0.0002632 3254.57080 3333.81470
3961.0 0.0002525 3254.41797 3344.46265
3927.0 0.0002546 3254.26489 3357.66235
3809.0 0.0002625 3254.11182 3374.61279
3874.0 0.0002581 3253.95874 3397.61768
3957.0 0.0002527 3253.80518 3431.19165
3991.0 0.0002506 3253.65137 3483.70801
4050.0 0.0002469 3253.49780 3569.29590
4072.0 0.0002456 3253.34375 3708.63940
4270.0 0.0002342 3253.18994 3926.89526
4557.0 0.0002194 3253.03564 4246.87256
4716.0 0.0002120 3252.88135 4677.25000
5189.0 0.0001927 3252.72681 5197.77441
5362.0 0.0001865 3252.57227 5741.80664
5863.0 0.0001706 3252.41748 6187.43896
6237.0 0.0001603 3252.26245 6396.52051
6306.0 0.0001586 3252.10742 6308.92529
5933.0 0.0001685 3251.95239 5968.20654
5231.0 0.0001912 3251.79688 5474.06201
4724.0 0.0002117 3251.64136 4943.92480
4249.0 0.0002353 3251.48584 4469.30225
3908.0 0.0002559 3251.32983 4093.94238
3758.0 0.0002661 3251.17383 3823.32471
3772.0 0.0002651 3251.01782 3642.67114
3685.0 0.0002714 3250.86157 3527.83154
3761.0 0.0002659 3250.70508 3456.82104
3792.0 0.0002637 3250.54858 3412.25073
3728.0 0.0002682 3250.39209 3382.87720
3704.0 0.0002700 3250.23511 3362.12988
3599.0 0.0002779 3250.07813 3346.47192
3754.0 0.0002664 3249.92090 3334.06470
3611.0 0.0002769 3249.76367 3323.91846
3601.0 0.0002777 3249.60620 3315.46021
3766.0 0.0002655 3249.44873 3308.31348
3660.0 0.0002732 3249.29102 3302.21436
3679.0 0.0002718 3249.13306 3296.96460
3500.0 0.0002857 3248.97510 3292.40967
3574.0 0.0002798 3248.81689 3288.43018
3616.0 0.0002765 3248.65869 3284.92993
3685.0 0.0002714 3248.50000 3281.83301
3657.0 0.0002734 3248.34155 3279.07715
3555.0 0.0002813 3248.18286 3276.61157
3544.0 0.0002822 3248.02393 3274.39502
3689.0 0.0002711 3247.86475 3272.39307
3643.0 0.0002745 3247.70557 3270.57690
3637.0 0.0002750 3247.54639 3268.92212
3561.0 0.0002808 3247.38696 3267.40894
3580.0 0.0002793 3247.22729 3266.01978
3651.0 0.0002739 3247.06738 3264.73999
3632.0 0.0002753 3246.90771 3263.55713
3621.0 0.0002762 3246.74756 3262.45996
3489.0 0.0002866 3246.58740 3261.43945
3564.0 0.0002806 3246.42700 3260.48779
3623.0 0.0002760 3246.26660 3259.59692
3566.0 0.0002804 3246.10596 3258.76147
3563.0 0.0002807 3245.94507 3257.97583
3497.0 0.0002860 3245.78442 3257.23511
3558.0 0.0002811 3245.62329 3256.53491
3605.0 0.0002774 3245.46191 3255.87207
3587.0 0.0002788 3245.30078 3255.24243
3457.0 0.0002893 3245.13916 3254.64355
3613.0 0.0002768 3244.97778 3254.07300
3520.0 0.0002841 3244.81592 3253.52783
3600.0 0.0002778 3244.65405 3253.00659
3485.0 0.0002869 3244.49194 3252.50659
3494.0 0.0002862 3244.32959 3252.02661
3509.0 0.0002850 3244.16748 3251.56519
3452.0 0.0002897 3244.00488 3251.12061
3574.0 0.0002798 3243.84229 3250.69165
3437.0 0.0002910 3243.67944 3250.27710
3392.0 0.0002948 3243.51660 3249.87646
3611.0 0.0002769 3243.35352 3249.48779
3430.0 0.0002915 3243.19043 3249.11108
3461.0 0.0002889 3243.02686 3248.74512
3526.0 0.0002836 3242.86353 3248.38916
3421.0 0.0002923 3242.69995 3248.04272
3415.0 0.0002928 3242.53613 3247.70483
3543.0 0.0002822 3242.37231 3247.37524
3395.0 0.0002946 3242.20825 3247.05322
3494.0 0.0002862 3242.04395 3246.73877
3493.0 0.0002863 3241.87964 3246.43091
3398.0 0.0002943 3241.71509 3246.12939
3555.0 0.0002813 3241.55054 3245.83398
3499.0 0.0002858 3241.38599 3245.54395
3502.0 0.0002856 3241.22095 3245.25928
3391.0 0.0002949 3241.05591 3244.97974
3417.0 0.0002927 3240.89087 3244.70435
3468.0 0.0002884 3240.72534 3244.43384
3451.0 0.0002898 3240.56006 3244.16724
3391.0 0.0002949 3240.39429 3243.90479
3442.0 0.0002905 3240.22876 3243.64600
3367.0 0.0002970 3240.06274 3243.39063
3478.0 0.0002875 3239.89673 3243.13867
3496.0 0.0002860 3239.73071 3242.88965
3409.0 0.0002933 3239.56421 3242.64404
3459.0 0.0002891 3239.39771 3242.40063
3377.0 0.0002961 3239.23145 3242.16064
3487.0 0.0002868 3239.06470 3241.92285
3427.0 0.0002918 3238.89771 3239.85864
3390.0 0.0002950 3238.73071 3239.66870
3424.0 0.0002921 3238.56348 3238.56567
3402.0 0.0002939 3238.39624 3238.39844
3417.0 0.0002927 3238.22876 3238.23096
3375.0 0.0002963 3238.06128 3238.06348
3450.0 0.0002899 3237.89380 3237.89575
3305.0 0.0003026 3237.72583 3237.72778
3466.0 0.0002885 3237.55786 3237.55981
3383.0 0.0002956 3237.38989 3237.39185
3327.0 0.0003006 3237.22144 3237.22363
3449.0 0.0002899 3237.05298 3237.05518
3318.0 0.0003014 3236.88477 3236.88647
3293.0 0.0003037 3236.71582 3236.71802
3241.0 0.0003085 3236.54712 3236.54907
3311.0 0.0003020 3236.37842 3236.38013
3382.0 0.0002957 3236.20923 3236.21118
3449.0 0.0002899 3236.04004 3236.04199
3329.0 0.0003004 3235.87061 3235.87256
3325.0 0.0003008 3235.70117 3235.70313
3316.0 0.0003016 3235.53149 3235.53345
3319.0 0.0003013 3235.36182 3235.36377
3405.0 0.0002937 3235.19189 3235.19385
3289.0 0.0003040 3235.02173 3235.02368
3310.0 0.0003021 3234.85156 3234.85352
3281.0 0.0003048 3234.68115 3234.68335
3422.0 0.0002922 3234.51099 3234.51294
3299.0 0.0003031 3234.34033 3234.34229
3240.0 0.0003086 3234.16968 3234.17163
3363.0 0.0002974 3233.99878 3234.00073
3288.0 0.0003041 3233.82788 3233.82959
3357.0 0.0002979 3233.65674 3233.65845
3301.0 0.0003029 3233.48535 3233.48730
3325.0 0.0003008 3233.31396 3233.31592
3311.0 0.0003020 3233.14258 3233.14429
3330.0 0.0003003 3232.97095 3232.97266
3357.0 0.0002979 3232.79907 3232.80103
3303.0 0.0003028 3232.62720 3232.62891
3377.0 0.0002961 3232.45508 3232.45679
3465.0 0.0002886 3232.28271 3232.28467
3349.0 0.0002986 3232.11060 3232.11230
3299.0 0.0003031 3231.93799 3231.93994
3373.0 0.0002965 3231.76538 3231.76709
3355.0 0.0002981 3231.59277 3231.59448
3294.0 0.0003036 3231.41992 3231.42163
3358.0 0.0002978 3231.24683 3231.24854
3418.0 0.0002926 3231.07349 3231.07544
3457.0 0.0002893 3230.90039 3230.90210
3365.0 0.0002972 3230.72705 3230.72876
3368.0 0.0002969 3230.55322 3230.55518
3429.0 0.0002916 3230.37988 3230.38135
3363.0 0.0002974 3230.20581 3230.20752
3453.0 0.0002896 3230.03198 3230.03369
3388.0 0.0002952 3229.85791 3229.85962
3419.0 0.0002925 3229.68359 3229.68530
3415.0 0.0002928 3229.50928 3229.51099
3354.0 0.0002982 3229.33472 3229.33643
3454.0 0.0002895 3229.16016 3229.16187
3507.0 0.0002851 3228.98535 3228.98706
3413.0 0.0002930 3228.81055 3228.81226
3329.0 0.0003004 3228.63525 3228.63721
3521.0 0.0002840 3228.46021 3228.46216
3390.0 0.0002950 3228.28491 3228.28662
3431.0 0.0002915 3228.10962 3228.11133
3444.0 0.0002904 3227.93384 3227.93579
3387.0 0.0002952 3227.75854 3227.76001
3442.0 0.0002905 3227.58252 3227.58423
3549.0 0.0002818 3227.40649 3227.40845
3381.0 0.0002958 3227.23047 3227.23218
3497.0 0.0002860 3227.05420 3227.05591
3396.0 0.0002945 3226.87793 3226.87964
3478.0 0.0002875 3226.70166 3226.70313
3408.0 0.0002934 3226.52490 3226.52661
3479.0 0.0002874 3226.34814 3226.34985
3398.0 0.0002943 3226.17139 3226.17285
3444.0 0.0002904 3225.99438 3225.99609
3467.0 0.0002884 3225.81714 3225.81885
3513.0 0.0002847 3225.63989 3225.64160
3589.0 0.0002786 3225.46240 3225.46411
3497.0 0.0002860 3225.28491 3225.28662
3487.0 0.0002868 3225.10742 3226.33154
3568.0 0.0002803 3224.92944 3226.18970
3611.0 0.0002769 3224.75171 3226.04956
3548.0 0.0002818 3224.57373 3226.52344
3599.0 0.0002779 3224.39551 3226.40454
3687.0 0.0002712 3224.21729 3226.28857
3700.0 0.0002703 3224.03857 3226.17505
3756.0 0.0002662 3223.85986 3226.06470
3646.0 0.0002743 3223.68140 3225.95728
3773.0 0.0002650 3223.50269 3225.85327
3660.0 0.0002732 3223.32373 3225.75293
3791.0 0.0002638 3223.14453 3225.65649
3679.0 0.0002718 3222.96533 3225.56445
3726.0 0.0002684 3222.78589 3225.47656
3751.0 0.0002666 3222.60669 3225.39355
3592.0 0.0002784 3222.42700 3225.31567
3594.0 0.0002782 3222.24731 3225.24341
3420.0 0.0002924 3222.06738 3225.17725
3484.0 0.0002870 3221.88745 3225.11743
3523.0 0.0002838 3221.70752 3225.06470
3315.0 0.0003017 3221.52710 3225.01929
3345.0 0.0002990 3221.34668 3224.98193
3285.0 0.0003044 3221.16626 3224.95386
3379.0 0.0002959 3220.98560 3224.93506
3373.0 0.0002965 3220.80493 3224.92700
3342.0 0.0002992 3220.62378 3224.93018
3378.0 0.0002960 3220.44287 3224.94604
3352.0 0.0002983 3220.26196 3224.97534
3302.0 0.0003028 3220.08057 3225.01978
3360.0 0.0002976 3219.89917 3225.08057
3376.0 0.0002962 3219.71753 3225.15967
3274.0 0.0003054 3219.53613 3225.25879
3358.0 0.0002978 3219.35425 3225.37964
3175.0 0.0003150 3219.17236 3225.52539
3169.0 0.0003156 3218.99023 3225.69824
3282.0 0.0003047 3218.80835 3225.90161
3349.0 0.0002986 3218.62598 3226.13916
3232.0 0.0003094 3218.44360 3226.41479
3192.0 0.0003133 3218.26099 3226.73340
3240.0 0.0003086 3218.07837 3227.10059
3135.0 0.0003190 3217.89551 3227.52271
3295.0 0.0003035 3217.71289 3228.00806
3289.0 0.0003040 3217.52954 3228.56445
3220.0 0.0003106 3217.34644 3229.20361
3183.0 0.0003142 3217.16309 3229.93750
3183.0 0.0003142 3216.97974 3230.78198
3258.0 0.0003069 3216.79639 3231.75488
3347.0 0.0002988 3216.61255 3232.87891
3240.0 0.0003086 3216.42871 3234.18164
3113.0 0.0003212 3216.24487 3235.69580
3288.0 0.0003041 3216.06079 3237.46484
3275.0 0.0003053 3215.87671 3239.54150
3245.0 0.0003082 3215.69263 3241.99341
3174.0 0.0003151 3215.50806 3244.90747
3312.0 0.0003019 3215.32349 3248.39771
3330.0 0.0003003 3215.13867 3252.61572
3333.0 0.0003000 3214.95410 3257.76367
3212.0 0.0003113 3214.76929 3264.12939
3329.0 0.0003004 3214.58398 3272.14673
3257.0 0.0003070 3214.39893 3282.55859
3297.0 0.0003033 3214.21387 3296.82568
3182.0 0.0003143 3214.02832 3318.03857
3267.0 0.0003061 3213.84302 3352.50000
3452.0 0.0002897 3213.65698 3411.62793
3462.0 0.0002889 3213.47144 3512.61963
3663.0 0.0002730 3213.28564 3675.27905
3796.0 0.0002634 3213.09937 3913.16943
4006.0 0.0002496 3212.91333 4219.47363
4232.0 0.0002363 3212.72729 4547.49805
4157.0 0.0002406 3212.54077 4796.69580
4491.0 0.0002227 3212.35425 4869.68408
4424.0 0.0002260 3212.16772 4771.35107
4023.0 0.0002486 3211.98071 4557.00439
3748.0 0.0002668 3211.79395 4272.22070
3578.0 0.0002795 3211.60693 3980.92480
3431.0 0.0002915 3211.41992 3737.54175
3247.0 0.0003080 3211.23267 3560.24243
3199.0 0.0003126 3211.04541 3442.89697
3220.0 0.0003106 3210.85791 3370.26831
3204.0 0.0003121 3210.67017 3326.70532
3309.0 0.0003022 3210.48267 3300.15552
3151.0 0.0003174 3210.29468 3282.92456
3130.0 0.0003195 3210.10669 3270.78735
3178.0 0.0003147 3209.91870 3261.62476
3075.0 0.0003252 3209.73047 3254.38721
3149.0 0.0003176 3209.54224 3248.51099
3175.0 0.0003150 3209.35352 3243.65234
3047.0 0.0003282 3209.16504 3239.58276
3133.0 0.0003192 3208.97656 3236.13306
3094.0 0.0003232 3208.78784 3233.17798
3058.0 0.0003270 3208.59888 3230.62378
3218.0 0.0003108 3208.40967 3228.39600
3185.0 0.0003140 3208.22046 3226.43774
3125.0 0.0003200 3208.03149 3224.70337
3047.0 0.0003282 3207.84180 3223.15747
3265.0 0.0003063 3207.65234 3221.77002
3137.0 0.0003188 3207.46289 3220.51709
3117.0 0.0003208 3207.27295 3219.37964
3205.0 0.0003120 3207.08301 3218.34155
3124.0 0.0003201 3206.89331 3217.38916
3110.0 0.0003215 3206.70313 3216.51172
3035.0 0.0003295 3206.51294 3215.69922
3081.0 0.0003246 3206.32251 3214.94409
3098.0 0.0003228 3206.13184 3214.23901
3179.0 0.0003146 3205.94141 3213.57837
3036.0 0.0003294 3205.75073 3212.95776
3131.0 0.0003194 3205.55981 3212.37207
3041.0 0.0003288 3205.36890 3211.81812
3026.0 0.0003305 3205.17798 3211.29175
3085.0 0.0003241 3204.98682 3210.79102
2997.0 0.0003337 3204.79541 3210.31274
2977.0 0.0003359 3204.60400 3209.85547
3090.0 0.0003236 3204.41260 3209.41699
3086.0 0.0003240 3204.22095 3208.99512
3089.0 0.0003237 3204.02905 3208.58862
3083.0 0.0003244 3203.83716 3208.19653
3127.0 0.0003198 3203.64502 3207.81665
3096.0 0.0003230 3203.45313 3207.44897
3119.0 0.0003206 3203.26099 3207.09180
3084.0 0.0003243 3203.06836 3206.74487
3033.0 0.0003297 3202.87622 3206.40674
3074.0 0.0003253 3202.68335 3206.07690
2941.0 0.0003400 3202.49072 3205.75488
3104.0 0.0003222 3202.29785 3205.43994
3018.0 0.0003313 3202.10522 3205.13159
3078.0 0.0003249 3201.91187 3204.82935
3066.0 0.0003262 3201.71875 3204.53296
3117.0 0.0003208 3201.52563 3204.24170
3020.0 0.0003311 3201.33203 3203.95532
3012.0 0.0003320 3201.13867 3203.67383
3037.0 0.0003293 3200.94507 3203.39624
3053.0 0.0003275 3200.75146 3203.12280
3027.0 0.0003304 3200.55737 3202.85303
3072.0 0.0003255 3200.36353 3202.58691
3003.0 0.0003330 3200.16968 3202.32349
2990.0 0.0003344 3199.97534 3202.06372
3077.0 0.0003250 3199.78101 3201.80664
2971.0 0.0003366 3199.58667 3201.55225
3103.0 0.0003223 3199.39209 3201.30005
3143.0 0.0003182 3199.19751 3199.84741
3120.0 0.0003205 3199.00269 3199.63379
2941.0 0.0003400 3198.80786 3198.80884
3025.0 0.0003306 3198.61304 3198.61377
2950.0 0.0003390 3198.41772 3198.41870
3044.0 0.0003285 3198.22266 3198.22339
3132.0 0.0003193 3198.02710 3198.02808
3143.0 0.0003182 3197.83179 3197.83276
2910.0 0.0003436 3197.63623 3197.63721
2950.0 0.0003390 3197.44043 3197.44141
3020.0 0.0003311 3197.24487 3197.24561
3124.0 0.0003201 3197.04907 3197.04980
3063.0 0.0003265 3196.85303 3196.85376
2982.0 0.0003353 3196.65674 3196.65771
3149.0 0.0003176 3196.46045 3196.46143
3165.0 0.0003160 3196.26416 3196.26514
3032.0 0.0003298 3196.06787 3196.06860
3085.0 0.0003241 3195.87109 3195.87207
3063.0 0.0003265 3195.67456 3195.67554
2951.0 0.0003389 3195.47778 3195.47876
3052.0 0.0003277 3195.28101 3195.28174
3060.0 0.0003268 3195.08398 3195.08472
2976.0 0.0003360 3194.88696 3194.88770
3042.0 0.0003287 3194.68945 3194.69043
3003.0 0.0003330 3194.49243 3194.49316
3011.0 0.0003321 3194.29492 3194.29565
2987.0 0.0003348 3194.09741 3194.09814
3064.0 0.0003264 3193.89941 3193.90039
3103.0 0.0003223 3193.70190 3193.70264
3013.0 0.0003319 3193.50391 3193.50464
3023.0 0.0003308 3193.30591 3193.30664
3116.0 0.0003209 3193.10791 3193.10864
3132.0 0.0003193 3192.90967 3192.91040
3086.0 0.0003240 3192.71118 3192.71216
3001.0 0.0003332 3192.51294 3192.51367
2906.0 0.0003441 3192.31421 3192.31494
3100.0 0.0003226 3192.11548 3192.11646
3147.0 0.0003178 3191.91699 3191.91748
3064.0 0.0003264 3191.71777 3191.71875
2957.0 0.0003382 3191.51904 3191.51978
3144.0 0.0003181 3191.32007 3191.32080
3016.0 0.0003316 3191.12061 3191.12158
3031.0 0.0003299 3190.92139 3190.92212
3021.0 0.0003310 3190.72217 3190.72266
3203.0 0.0003122 3190.52246 3190.52319
3016.0 0.0003316 3190.32300 3190.32373
3225.0 0.0003101 3190.12329 3190.12378
3141.0 0.0003184 3189.92334 3189.92407
3270.0 0.0003058 3189.72314 3189.72412
3226.0 0.0003100 3189.52319 3189.52393
3286.0 0.0003043 3189.32300 3189.32373
3267.0 0.0003061 3189.12280 3189.12354
3375.0 0.0002963 3188.92236 3188.92310
3293.0 0.0003037 3188.72192 3188.72266
2989.0 0.0003346 3188.52124 3188.52197
3147.0 0.0003178 3188.32080 3188.32129
3055.0 0.0003273 3188.11987 3188.12061
3061.0 0.0003267 3187.91895 3187.91968
3069.0 0.0003258 3187.71802 3187.71851
2968.0 0.0003369 3187.51685 3187.51758
3061.0 0.0003267 3187.31567 3187.31616
2983.0 0.0003352 3187.11426 3187.11475
3007.0 0.0003326 3186.91260 3186.91333
3011.0 0.0003321 3186.71118 3186.71191
3023.0 0.0003308 3186.50952 3186.51025
3046.0 0.0003283 3186.30762 3186.30835
2952.0 0.0003388 3186.10596 3186.10645
3010.0 0.0003322 3185.90405 3185.90454
3063.0 0.0003265 3185.70190 3185.70239
2976.0 0.0003360 3185.49976 3185.50024
3012.0 0.0003320 3185.29736 3185.29810
3025.0 0.0003306 3185.09497 3185.09570
3127.0 0.0003198 3184.89258 3184.89307
3038.0 0.0003292 3184.68994 3184.69043
3003.0 0.0003330 3184.48730 3184.48779
3012.0 0.0003320 3184.28442 3184.28491
3021.0 0.0003310 3184.08154 3184.08203
3060.0 0.0003268 3183.87866 3183.87915
2994.0 0.0003340 3183.67554 3183.67603
3069.0 0.0003258 3183.47217 3183.47266
3066.0 0.0003262 3183.26880 3183.26929
3010.0 0.0003322 3183.06519 3183.06592
3059.0 0.0003269 3182.86206 3182.86230
3069.0 0.0003258 3182.65820 3182.65869
3031.0 0.0003299 3182.45459 3182.45508
3101.0 0.0003225 3182.25073 3182.25122
2996.0 0.0003338 3182.04663 3182.04712
3034.0 0.0003296 3181.84277 3181.84326
3023.0 0.0003308 3181.63843 3181.63892
2970.0 0.0003367 3181.43433 3181.43481
3084.0 0.0003243 3181.22998 3181.23047
2951.0 0.0003389 3181.02563 3181.02588
2967.0 0.0003370 3180.82104 3180.82129
3016.0 0.0003316 3180.61621 3180.61670
3006.0 0.0003327 3180.41138 3180.41187
2938.0 0.0003404 3180.20654 3180.20703
3068.0 0.0003259 3180.00171 3180.00195
3101.0 0.0003225 3179.79663 3179.79712
3006.0 0.0003327 3179.59155 3179.59180
3001.0 0.0003332 3179.38623 3179.38647
3133.0 0.0003192 3179.18091 3179.18115
3085.0 0.0003241 3178.97534 3248.99731
3024.0 0.0003307 3178.76978 3250.51074
3056.0 0.0003272 3178.56396 3252.08813
3096.0 0.0003230 3178.35840 3288.22046
3139.0 0.0003186 3178.15259 3290.77832
3038.0 0.0003292 3177.94629 3293.44165
3013.0 0.0003319 3177.74048 3296.21533
3070.0 0.0003257 3177.53418 3299.10620
3172.0 0.0003153 3177.32788 3302.12012
3067.0 0.0003261 3177.12158 3305.26392
3020.0 0.0003311 3176.91504 3308.54321
3034.0 0.0003296 3176.70850 3311.96753
3212.0 0.0003113 3176.50195 3315.54395
3123.0 0.0003202 3176.29517 3319.28101
3036.0 0.0003294 3176.08838 3323.18799
3034.0 0.0003296 3175.88110 3327.27612
3081.0 0.0003246 3175.67432 3331.55371
3002.0 0.0003331 3175.46704 3336.03369
3007.0 0.0003326 3175.26001 3340.72900
3092.0 0.0003234 3175.05225 3345.65186
3036.0 0.0003294 3174.84521 3350.81665
3068.0 0.0003259 3174.63745 3356.23877
3114.0 0.0003211 3174.42993 3361.93701
3090.0 0.0003236 3174.22217 3367.92651
3225.0 0.0003101 3174.01416 3374.22803
3158.0 0.0003167 3173.80640 3380.86450
3133.0 0.0003192 3173.59839 3387.85767
3261.0 0.0003067 3173.39014 3395.23169
3259.0 0.0003068 3173.18188 3403.01611
3249.0 0.0003078 3172.97363 3411.24194
3263.0 0.0003065 3172.76514 3419.93823
3230.0 0.0003096 3172.55664 3429.14355
3343.0 0.0002991 3172.34814 3438.89795
3457.0 0.0002893 3172.13940 3449.24414
3618.0 0.0002764 3171.93066 3460.22827
3703.0 0.0002701 3171.72144 3471.90601
3750.0 0.0002667 3171.51270 3484.33423
3901.0 0.0002563 3171.30347 3497.57544
4096.0 0.0002441 3171.09424 3511.70337
4083.0 0.0002449 3170.88501 3526.79907
3992.0 0.0002505 3170.67578 3542.94995
4002.0 0.0002499 3170.46631 3560.25317
4105.0 0.0002436 3170.25659 3578.82397
4222.0 0.0002369 3170.04712 3598.78516
4184.0 0.0002390 3169.83740 3620.27515
4335.0 0.0002307 3169.62744 3643.45435
4432.0 0.0002256 3169.41724 3668.50732
4541.0 0.0002202 3169.20728 3695.63525
4629.0 0.0002160 3168.99731 3725.06836
4810.0 0.0002079 3168.78711 3757.08105
5195.0 0.0001925 3168.57666 3791.97778
5468.0 0.0001829 3168.36621 3830.10742
5640.0 0.0001773 3168.15576 3871.88525
6047.0 0.0001654 3167.94507 3917.80005
6199.0 0.0001613 3167.73462 3968.38867
6437.0 0.0001554 3167.52368 4024.31763
6555.0 0.0001526 3167.31274 4086.37085
6636.0 0.0001507 3167.10156 4155.46191
6337.0 0.0001578 3166.89063 4234.21289
6070.0 0.0001647 3166.67944 4320.93506
5975.0 0.0001674 3166.46826 4418.75244
5832.0 0.0001715 3166.25708 4530.32861
5552.0 0.0001801 3166.04565 4656.61572
5699.0 0.0001755 3165.83398 4801.36572
5793.0 0.0001726 3165.62256 4968.32568
5786.0 0.0001728 3165.41064 5162.23828
6056.0 0.0001651 3165.19873 5389.23877
6408.0 0.0001561 3164.98706 5657.33789
6883.0 0.0001453 3164.77490 5976.87061
7268.0 0.0001376 3164.56274 6361.89551
7693.0 0.0001300 3164.35083 6831.53516
8181.0 0.0001222 3164.13843 7412.22266
8773.0 0.0001140 3163.92603 8141.56152
9684.0 0.0001033 3163.71362 9075.57910
10788.0 0.0000927 3163.50098 10303.30957
12552.0 0.0000797 3163.28857 11985.03418
15707.0 0.0000637 3163.07593 14446.16113
20807.0 0.0000481 3162.86304 18361.51953
28147.0 0.0000355 3162.65015 24987.25781
40652.0 0.0000246 3162.43701 36204.41406
56213.0 0.0000178 3162.22388 53988.63281
74607.0 0.0000134 3162.01074 78837.11719
94179.0 0.0000106 3161.79761 105994.09375
117324.0 8.52e-6 3161.58423 121695.06250
130145.0 7.68e-6 3161.37085 117902.16406
116142.0 8.61e-6 3161.15723 106026.97656
86361.0 0.0000116 3160.94360 93265.64063
71218.0 0.0000140 3160.72998 75927.32031
60912.0 0.0000164 3160.51611 55843.61328
40206.0 0.0000249 3160.30249 38998.01172
23194.0 0.0000431 3160.08838 27231.63281
16482.0 0.0000607 3159.87427 19741.42383
13075.0 0.0000765 3159.66016 15171.86523
11441.0 0.0000874 3159.44604 12348.61133
9914.0 0.0001009 3159.23169 10497.38379
9008.0 0.0001110 3159.01733 9192.38867
8297.0 0.0001205 3158.80273 8219.20898
7872.0 0.0001270 3158.58813 7466.80176
7120.0 0.0001404 3158.37354 6871.12354
6460.0 0.0001548 3158.15894 6391.39844
6004.0 0.0001666 3157.94385 5999.27490
5626.0 0.0001777 3157.72900 5674.64404
5219.0 0.0001916 3157.51392 5402.91992
4978.0 0.0002009 3157.29907 5173.24854
4763.0 0.0002100 3157.08374 4977.38086
4464.0 0.0002240 3156.86841 4808.98145
4500.0 0.0002222 3156.65308 4663.23877
4298.0 0.0002327 3156.43774 4536.26221
4119.0 0.0002428 3156.22217 4424.98145
4183.0 0.0002391 3156.00659 4326.96045
4044.0 0.0002473 3155.79077 4240.22021
3961.0 0.0002525 3155.57520 4163.11865
4001.0 0.0002499 3155.35913 4094.33325
3862.0 0.0002589 3155.14331 4032.76953
3825.0 0.0002614 3154.92700 3977.50293
3881.0 0.0002577 3154.71094 3927.76221
3715.0 0.0002692 3154.49487 3882.91553
3719.0 0.0002689 3154.27856 3842.43140
3691.0 0.0002709 3154.06226 3805.85229
3799.0 0.0002632 3153.84570 3772.81177
3690.0 0.0002710 3153.62915 3743.00806
3642.0 0.0002746 3153.41284 3716.19116
3749.0 0.0002667 3153.19580 3692.17114
3686.0 0.0002713 3152.97900 3670.81836
3549.0 0.0002818 3152.76221 3652.06128
3515.0 0.0002845 3152.54517 3635.88525
3663.0 0.0002730 3152.32813 3622.35913
3728.0 0.0002682 3152.11108 3611.64551
3480.0 0.0002874 3151.89380 3604.02808
3549.0 0.0002818 3151.67651 3599.96777
3555.0 0.0002813 3151.45923 3600.18042
3625.0 0.0002759 3151.24170 3605.76587
3556.0 0.0002812 3151.02417 3618.47266
3549.0 0.0002818 3150.80664 3641.27222
3736.0 0.0002677 3150.58887 3679.79834
3730.0 0.0002681 3150.37109 3745.58667
3712.0 0.0002694 3150.15332 3861.41064
4022.0 0.0002486 3149.93530 4065.41309
4317.0 0.0002316 3149.71729 4406.18555
4526.0 0.0002209 3149.49902 4914.67627
5147.0 0.0001943 3149.28101 5513.14893
5545.0 0.0001803 3149.06274 5874.25977
5885.0 0.0001699 3148.84424 5757.76709
5649.0 0.0001770 3148.62598 5472.45410
5187.0 0.0001928 3148.40723 5240.62402
4858.0 0.0002058 3148.18872 4928.05127
4473.0 0.0002236 3147.97021 4503.75830
4234.0 0.0002362 3147.75122 4126.70361
3819.0 0.0002618 3147.53247 3861.14014
3658.0 0.0002734 3147.31348 3690.79150
3599.0 0.0002779 3147.09473 3584.37769
3416.0 0.0002927 3146.87573 3515.92749
3371.0 0.0002966 3146.65625 3468.85205
3359.0 0.0002977 3146.43726 3434.16187
3371.0 0.0002966 3146.21777 3407.26611
3362.0 0.0002974 3145.99854 3385.68579
3326.0 0.0003007 3145.77905 3367.92505
3268.0 0.0003060 3145.55957 3353.01074
3313.0 0.0003018 3145.33984 3340.27148
3270.0 0.0003058 3145.12012 3329.22656
3328.0 0.0003005 3144.90015 3319.52515
3268.0 0.0003060 3144.68042 3310.91333
3356.0 0.0002980 3144.46045 3303.19092
3291.0 0.0003039 3144.24048 3296.20776
3268.0 0.0003060 3144.02051 3289.84546
3270.0 0.0003058 3143.80029 3284.01221
3154.0 0.0003171 3143.58008 3209.01929
3164.0 0.0003161 3143.35962 3205.67358
3126.0 0.0003199 3143.13916 3202.61353
3224.0 0.0003102 3142.91870 3164.82666
3242.0 0.0003085 3142.69824 3163.05688
3279.0 0.0003050 3142.47754 3161.44653
3255.0 0.0003072 3142.25684 3159.97363
3233.0 0.0003093 3142.03589 3158.62061
3159.0 0.0003166 3141.81494 3157.37280
3138.0 0.0003187 3141.59424 3156.21729
3238.0 0.0003088 3141.37329 3155.14380
3224.0 0.0003102 3141.15210 3154.14282
3147.0 0.0003178 3140.93091 3153.20605
3119.0 0.0003206 3140.70996 3152.32690
3128.0 0.0003197 3140.48828 3151.49902
3173.0 0.0003152 3140.26685 3150.71729
3111.0 0.0003214 3140.04541 3149.97754
3171.0 0.0003154 3139.82397 3149.27539
3093.0 0.0003233 3139.60254 3148.60693
3105.0 0.0003221 3139.38086 3147.96948
3127.0 0.0003198 3139.15894 3147.36011
3107.0 0.0003219 3138.93726 3146.77661
3130.0 0.0003195 3138.71509 3146.21606
3092.0 0.0003234 3138.49316 3145.67700
3162.0 0.0003163 3138.27124 3145.15771
3261.0 0.0003067 3138.04907 3144.65625
3187.0 0.0003138 3137.82690 3144.17139
3245.0 0.0003082 3137.60449 3143.70190
3042.0 0.0003287 3137.38208 3143.24634
3213.0 0.0003112 3137.15967 3142.80396
3135.0 0.0003190 3136.93726 3142.37378
3103.0 0.0003223 3136.71460 3141.95483
3061.0 0.0003267 3136.49194 3141.54614
3178.0 0.0003147 3136.26929 3141.14697
3122.0 0.0003203 3136.04663 3140.75684
3163.0 0.0003162 3135.82349 3140.37549
2980.0 0.0003356 3135.60059 3140.00146
3292.0 0.0003038 3135.37769 3139.63501
3208.0 0.0003117 3135.15454 3139.27539
3206.0 0.0003119 3134.93140 3138.92188
3126.0 0.0003199 3134.70801 3138.57471
3244.0 0.0003083 3134.48486 3138.23291
3171.0 0.0003154 3134.26172 3137.89673
3221.0 0.0003105 3134.03809 3137.56519
3189.0 0.0003136 3133.81445 3137.23853
3074.0 0.0003253 3133.59106 3136.91626
3165.0 0.0003160 3133.36743 3136.59790
3210.0 0.0003115 3133.14355 3136.28345
3106.0 0.0003220 3132.91992 3135.97314
3136.0 0.0003189 3132.69604 3135.66577
3092.0 0.0003234 3132.47217 3135.36206
3139.0 0.0003186 3132.24805 3135.06128
3122.0 0.0003203 3132.02417 3134.77954
3082.0 0.0003245 3131.79980 3134.48486
3115.0 0.0003210 3131.57568 3134.19287
3095.0 0.0003231 3131.35132 3133.90356
3118.0 0.0003207 3131.12720 3133.62451
3030.0 0.0003300 3130.90259 3133.34009
2999.0 0.0003334 3130.67822 3131.53198
2895.0 0.0003454 3130.45361 3131.28760
3083.0 0.0003244 3130.22900 3131.04443
3092.0 0.0003234 3130.00415 3130.84131
3045.0 0.0003284 3129.77954 3129.84961
3011.0 0.0003321 3129.55469 3129.62671
2964.0 0.0003374 3129.32983 3129.40405
3014.0 0.0003318 3129.10498 3129.20093
2962.0 0.0003376 3128.87988 3128.97900
3084.0 0.0003243 3128.65479 3128.75708
2978.0 0.0003358 3128.42944 3128.53516
3084.0 0.0003243 3128.20435 3128.31323
3036.0 0.0003294 3127.97900 3128.09155
3029.0 0.0003301 3127.75366 3127.86987
3089.0 0.0003237 3127.52808 3127.64819
3031.0 0.0003299 3127.30273 3127.42676
2953.0 0.0003386 3127.07715 3127.20557
3046.0 0.0003283 3126.85156 3126.98438
2986.0 0.0003349 3126.62598 3126.76318
3028.0 0.0003303 3126.40015 3126.54272
3059.0 0.0003269 3126.17432 3126.32202
2965.0 0.0003373 3125.94824 3126.10156
3048.0 0.0003281 3125.72241 3125.88159
3050.0 0.0003279 3125.49634 3125.66162
3007.0 0.0003326 3125.27026 3125.44238
2971.0 0.0003366 3125.04419 3125.22290
3000.0 0.0003333 3124.81787 3125.00415
2991.0 0.0003343 3124.59155 3124.78613
3038.0 0.0003292 3124.36523 3124.56763
2983.0 0.0003352 3124.13892 3124.35059
3036.0 0.0003294 3123.91235 3124.13354
3097.0 0.0003229 3123.68579 3123.91724
2960.0 0.0003378 3123.45923 3123.70166
3035.0 0.0003295 3123.23242 3123.48657
3004.0 0.0003329 3123.00586 3123.27246
2958.0 0.0003381 3122.77905 3123.05933
3050.0 0.0003279 3122.55225 3122.84717
3072.0 0.0003255 3122.32520 3122.63623
2937.0 0.0003405 3122.09814 3122.42627
2988.0 0.0003347 3121.87109 3122.21777
2881.0 0.0003471 3121.64404 3122.01074
2919.0 0.0003426 3121.41699 3121.80566
3006.0 0.0003327 3121.18970 3121.60278
2956.0 0.0003383 3120.96240 3121.40186
2968.0 0.0003369 3120.73511 3121.20386
2979.0 0.0003357 3120.50757 3121.00830
2927.0 0.0003416 3120.28003 3120.81665
2992.0 0.0003342 3120.05249 3120.62866
3020.0 0.0003311 3119.82495 3120.44507
3018.0 0.0003313 3119.59717 3120.26685
3009.0 0.0003323 3119.36938 3120.09473
2970.0 0.0003367 3119.14185 3119.92969
3002.0 0.0003331 3118.91406 3119.77295
2974.0 0.0003362 3118.68604 3119.62720
3112.0 0.0003213 3118.45801 3119.49316
2965.0 0.0003373 3118.22998 3119.37427
3197.0 0.0003128 3118.00195 3119.27393
3049.0 0.0003280 3117.77368 3119.19604
3045.0 0.0003284 3117.54541 3119.14697
3004.0 0.0003329 3117.31714 3119.13477
2942.0 0.0003399 3117.08887 3119.17041
3044.0 0.0003285 3116.86060 3119.26904
2985.0 0.0003350 3116.63208 3119.45313
3023.0 0.0003308 3116.40356 3119.75537
3073.0 0.0003254 3116.17480 3120.22729
2995.0 0.0003339 3115.94629 3120.95068
3017.0 0.0003315 3115.71777 3122.06812
3000.0 0.0003333 3115.48877 3123.85596
2959.0 0.0003380 3115.26001 3126.90967
2961.0 0.0003377 3115.03125 3132.46899
3012.0 0.0003320 3114.80225 3142.62549
2935.0 0.0003407 3114.57324 3159.16504
2947.0 0.0003393 3114.34424 3176.11987
2962.0 0.0003376 3114.11523 3175.97876
3006.0 0.0003327 3113.88599 3166.91650
3017.0 0.0003315 3113.65674 3166.38989
2916.0 0.0003429 3113.42749 3172.53320
3038.0 0.0003292 3113.19800 3170.53491
3028.0 0.0003303 3112.96875 3157.96460
2988.0 0.0003347 3112.73950 3146.10010
2917.0 0.0003428 3112.50977 3139.52002
2934.0 0.0003408 3112.28027 3135.43481
2929.0 0.0003414 3112.05054 3130.17651
2937.0 0.0003405 3111.82104 3124.78394
2984.0 0.0003351 3111.59106 3120.77515
2910.0 0.0003436 3111.36157 3118.08105
2965.0 0.0003373 3111.13159 3116.26587
2933.0 0.0003409 3110.90186 3114.98169
2930.0 0.0003413 3110.67163 3114.01147
2935.0 0.0003407 3110.44189 3113.23608
2928.0 0.0003415 3110.21191 3112.58911
2957.0 0.0003382 3109.98169 3112.03149
2969.0 0.0003368 3109.75146 3111.53882
2915.0 0.0003431 3109.52124 3111.09473
2964.0 0.0003374 3109.29102 3110.68750
2906.0 0.0003441 3109.06055 3110.30884
2930.0 0.0003413 3108.83008 3109.95361
2804.0 0.000357 3108.59985 3109.61597
2921.0 0.0003423 3108.36938 3109.29346
2906.0 0.0003441 3108.13867 3108.98242
2948.0 0.0003392 3107.90820 3108.68213
2905.0 0.0003442 3107.67749 3108.38989
3004.0 0.0003329 3107.44678 3108.10474
2865.0 0.0003490 3107.21606 3107.82544
2910.0 0.0003436 3106.98535 3107.55127
2893.0 0.0003457 3106.75439 3107.28223
2973.0 0.0003364 3106.52344 3107.01636
2909.0 0.0003438 3106.29248 3106.75366
2861.0 0.0003495 3106.06152 3106.49438
2830.0 0.000353 3105.83032 3106.23730
2810.0 0.000356 3105.59937 3105.98242
2857.0 0.0003500 3105.36792 3105.72925
2921.0 0.0003423 3105.13672 3105.47852
2854.0 0.0003504 3104.90552 3105.22876
2771.0 0.000361 3104.67432 3104.98047
2974.0 0.0003362 3104.44287 3104.73364
2854.0 0.0003504 3104.21118 3104.48755
2878.0 0.0003475 3103.97974 3104.24268
2848.0 0.000351 3103.74854 3103.99902
2871.0 0.0003483 3103.51660 3103.75562
2996.0 0.0003338 3103.28516 3103.51318
2916.0 0.0003429 3103.05347 3103.27148
2799.0 0.000357 3102.82178 3103.03052
2818.0 0.000355 3102.58984 3102.78979
2858.0 0.0003499 3102.35815 3102.54956
2790.0 0.000358 3102.12622 3102.31006
2919.0 0.0003426 3101.89429 3102.07080
2865.0 0.0003490 3101.66211 3101.83179
2922.0 0.0003422 3101.43018 3101.59302
2827.0 0.000354 3101.19824 3101.35498
3057.0 0.0003271 3100.96606 3101.11694
2898.0 0.0003451 3100.73389 3100.87939
2922.0 0.0003422 3100.50171 3100.64209
2800.0 0.000357 3100.26929 3100.40479
2833.0 0.000353 3100.03711 3100.16772
2915.0 0.0003431 3099.80444 3099.93115
2904.0 0.0003444 3099.57202 3099.69434
3044.0 0.0003285 3099.33984 3099.45776
2960.0 0.0003378 3099.10718 3099.22168
2895.0 0.0003454 3098.87451 3098.98511
2944.0 0.0003397 3098.64185 3098.74902
2780.0 0.000360 3098.40942 3098.51318
2804.0 0.000357 3098.17651 3098.27710
2867.0 0.0003488 3097.94385 3098.04175
2890.0 0.0003460 3097.71094 3097.80566
2966.0 0.0003372 3097.47827 3097.57007
2877.0 0.0003476 3097.24512 3097.33447
2877.0 0.0003476 3097.01221 3097.09912
2935.0 0.0003407 3096.77954 3096.86377
2892.0 0.0003458 3096.54639 3096.62842
2857.0 0.0003500 3096.31323 3096.39307
2802.0 0.000357 3096.08008 3096.15771
2861.0 0.0003495 3095.84692 3095.92261
2787.0 0.000359 3095.61377 3095.68726
2820.0 0.000355 3095.38062 3095.45215
2872.0 0.0003482 3095.14722 3095.21680
2839.0 0.000352 3094.91382 3094.98169
2848.0 0.000351 3094.68042 3094.74658
2852.0 0.0003506 3094.44678 3094.51172
2921.0 0.0003423 3094.21338 3094.27661
2782.0 0.000359 3093.97998 3094.02539
2900.0 0.0003448 3093.74609 3093.79028
2967.0 0.0003370 3093.51270 3093.55591
2945.0 0.0003396 3093.27881 3093.32129
2796.0 0.000358 3093.04541 3093.04346
2831.0 0.000353 3092.81177 3092.80957
2847.0 0.000351 3092.57764 3092.57593
2827.0 0.000354 3092.34399 3092.34204
2945.0 0.0003396 3092.10986 3092.10815
2869.0 0.0003486 3091.87622 3091.87427
2858.0 0.0003499 3091.64209 3091.64014
2802.0 0.000357 3091.40820 3091.40625
2837.0 0.000352 3091.17407 3091.17212
2860.0 0.0003497 3090.93994 3090.93799
2945.0 0.0003396 3090.70581 3090.70386
2824.0 0.000354 3090.47168 3090.46973
2807.0 0.000356 3090.23730 3090.23560
2859.0 0.0003498 3090.00317 3090.00122
2750.0 0.000364 3089.76880 3089.76685
2942.0 0.0003399 3089.53467 3089.53247
2938.0 0.0003404 3089.30005 3089.29834
2828.0 0.000354 3089.06567 3090.02856
2850.0 0.000351 3088.83130 3089.81763
2884.0 0.0003467 3088.59668 3089.60742
2887.0 0.0003464 3088.36206 3089.39819
2900.0 0.0003448 3088.12769 3089.18970
2980.0 0.0003356 3087.89282 3089.46924
2894.0 0.0003455 3087.65845 3089.27490
2916.0 0.0003429 3087.42358 3089.08228
2971.0 0.0003366 3087.18872 3088.89087
2865.0 0.0003490 3086.95410 3088.70117
2825.0 0.000354 3086.71924 3088.51343
2950.0 0.0003390 3086.48438 3088.32764
3014.0 0.0003318 3086.24951 3088.14331
3016.0 0.0003316 3086.01465 3087.96167
2987.0 0.0003348 3085.77954 3087.78198
3103.0 0.0003223 3085.54443 3087.60498
3133.0 0.0003192 3085.30933 3087.43018
3217.0 0.0003108 3085.07446 3087.25781
3264.0 0.0003064 3084.83911 3087.08862
3326.0 0.0003007 3084.60400 3086.92236
3185.0 0.0003140 3084.36890 3086.75903
3031.0 0.0003299 3084.13354 3086.59912
3031.0 0.0003299 3083.89844 3086.44287
3055.0 0.0003273 3083.66309 3086.29053
3054.0 0.0003274 3083.42773 3086.14233
2997.0 0.0003337 3083.19214 3085.99829
3007.0 0.0003326 3082.95679 3085.85913
2855.0 0.0003503 3082.72144 3085.72485
2927.0 0.0003416 3082.48584 3085.59570
2857.0 0.0003500 3082.25024 3085.47241
2948.0 0.0003392 3082.01465 3085.35547
2960.0 0.0003378 3081.77905 3085.24512
2884.0 0.0003467 3081.54346 3085.14185
2879.0 0.0003473 3081.30786 3085.04639
2968.0 0.0003369 3081.07202 3084.95874
2880.0 0.0003472 3080.83618 3084.88062
2836.0 0.000353 3080.60059 3084.81201
2758.0 0.000363 3080.36475 3084.75415
2809.0 0.000356 3080.12891 3084.70728
2897.0 0.0003452 3079.89282 3084.67334
2847.0 0.000351 3079.65698 3084.65308
2887.0 0.0003464 3079.42114 3084.64746
2807.0 0.000356 3079.18481 3084.65796
2784.0 0.000359 3078.94873 3084.68677
2864.0 0.0003492 3078.71289 3086.56445
2773.0 0.000361 3078.47681 3086.67871
2848.0 0.000351 3078.24048 3086.81836
2942.0 0.0003399 3078.00439 3086.98657
2856.0 0.0003501 3077.76807 3087.18530
2802.0 0.000357 3077.53198 3088.33984
2800.0 0.000357 3077.29565 3088.63428
2819.0 0.000355 3077.05957 3088.97266
2840.0 0.000352 3076.82300 3089.36035
2856.0 0.0003501 3076.58667 3089.80273
2825.0 0.000354 3076.35034 3090.30737
2887.0 0.0003464 3076.11401 3090.88159
2864.0 0.0003492 3075.87744 3091.53687
2828.0 0.000354 3075.64087 3092.28223
2839.0 0.000352 3075.40454 3093.13208
2814.0 0.000355 3075.16772 3094.10327
2929.0 0.0003414 3074.93140 3095.21387
2871.0 0.0003483 3074.69458 3096.48804
2887.0 0.0003464 3074.45801 3097.95386
2823.0 0.000354 3074.22119 3099.64746
2914.0 0.0003432 3073.98462 3101.61157
2919.0 0.0003426 3073.74780 3103.90137
2888.0 0.0003463 3073.51099 3106.58740
2870.0 0.0003484 3073.27441 3109.75806
2818.0 0.000355 3073.03735 3113.52979
2983.0 0.0003352 3072.80054 3118.05713
2970.0 0.0003367 3072.56372 3123.54639
2952.0 0.0003388 3072.32666 3130.27808
2869.0 0.0003486 3072.08984 3138.65186
2913.0 0.0003433 3071.85278 3149.25610
2929.0 0.0003414 3071.61572 3163.04761
2887.0 0.0003464 3071.37891 3181.77612
2981.0 0.0003355 3071.14160 3208.88696
3040.0 0.0003289 3070.90454 3251.03540
3077.0 0.0003250 3070.66748 3319.68506
3270.0 0.0003058 3070.43018 3431.06226
3354.0 0.0002982 3070.19312 3601.91650
3557.0 0.0002811 3069.95605 3839.23511
3782.0 0.0002644 3069.71875 4119.16748
4108.0 0.0002434 3069.48120 4351.89844
4275.0 0.0002339 3069.24414 4412.12744
4133.0 0.0002420 3069.00684 4310.27100
3950.0 0.0002532 3068.76953 4176.95313
3734.0 0.0002678 3068.53198 4075.76221
3765.0 0.0002656 3068.29468 3968.77319
3669.0 0.0002726 3068.05713 3809.77368
3408.0 0.0002934 3067.81982 3628.24341
3171.0 0.0003154 3067.58228 3471.07202
3126.0 0.0003199 3067.34473 3354.35791
3111.0 0.0003214 3067.10718 3275.18579
2932.0 0.0003411 3066.86963 3224.39575
2941.0 0.0003400 3066.63208 3192.33960
2944.0 0.0003397 3066.39429 3171.55518
2921.0 0.0003423 3066.15674 3157.34253
2864.0 0.0003492 3065.91919 3147.11963
2935.0 0.0003407 3065.68164 3139.52881
2847.0 0.000351 3065.44385 3133.83179
2886.0 0.0003465 3065.20605 3129.59131
2895.0 0.0003454 3064.96826 3126.52490
2956.0 0.0003383 3064.73047 3124.44092
2869.0 0.0003486 3064.49268 3123.21411
2839.0 0.000352 3064.25488 3122.76587
2875.0 0.0003478 3064.01709 3123.05420
2908.0 0.0003439 3063.77905 3124.07275
2932.0 0.0003411 3063.54102 3125.84375
3010.0 0.0003322 3063.30322 3128.42041
2960.0 0.0003378 3063.06519 3131.89355
2966.0 0.0003372 3062.82739 3136.39453
2987.0 0.0003348 3062.58911 3142.10547
3019.0 0.0003312 3062.35132 3149.28174
2984.0 0.0003351 3062.11328 3158.27393
3023.0 0.0003308 3061.87524 3169.56689
2954.0 0.0003385 3061.63721 3183.85107
3075.0 0.0003252 3061.39893 3202.17993
2992.0 0.0003342 3061.16089 3226.30469
3079.0 0.0003248 3060.92285 3259.50146
3177.0 0.0003148 3060.68433 3308.27417
3180.0 0.0003145 3060.44629 3385.06909
3246.0 0.0003081 3060.20825 3510.79297
3597.0 0.0002780 3059.96973 3714.29565
3797.0 0.0002634 3059.73169 4024.55322
4402.0 0.0002272 3059.49316 4453.19678
5065.0 0.0001974 3059.25488 4962.64990
5791.0 0.0001727 3059.01685 5413.93115
6207.0 0.0001611 3058.77832 5590.24023
5917.0 0.0001690 3058.54004 5453.08691
5209.0 0.0001920 3058.30151 5206.77881
4812.0 0.0002078 3058.06299 5000.65674
4540.0 0.0002203 3057.82471 4809.92285
4519.0 0.0002213 3057.58618 4542.53613
4312.0 0.0002319 3057.34766 4210.28809
3559.0 0.0002810 3057.10938 3897.37354
3313.0 0.0003018 3056.87085 3650.51099
3179.0 0.0003146 3056.63232 3474.99902
3146.0 0.0003179 3056.39380 3358.57471
3031.0 0.0003299 3056.15527 3284.06348
3073.0 0.0003254 3055.91675 3235.99731
3007.0 0.0003326 3055.67798 3203.44849
3004.0 0.0003329 3055.43945 3179.93604
3021.0 0.0003310 3055.20068 3161.97681
2947.0 0.0003393 3054.96216 3147.72607
2907.0 0.0003440 3054.72339 3136.13843
2951.0 0.0003389 3054.48486 3126.55762
2890.0 0.0003460 3054.24609 3118.52979
2813.0 0.000355 3054.00732 3111.72510
2866.0 0.0003489 3053.76855 3105.89893
2816.0 0.000355 3053.53003 3100.86523
2911.0 0.0003435 3053.29102 3096.47876
2894.0 0.0003455 3053.05225 3092.62720
2829.0 0.000353 3052.81348 3089.22144
2820.0 0.000355 3052.57471 3086.19141
2799.0 0.000357 3052.33594 3083.47778
2842.0 0.000352 3052.09717 3081.03491
2816.0 0.000355 3051.85815 3078.82422
2863.0 0.0003493 3051.61938 3076.81396
2779.0 0.000360 3051.38037 3074.97632
2798.0 0.000357 3051.14160 3073.29126
2737.0 0.000365 3050.90259 3071.73853
2866.0 0.0003489 3050.66357 3070.30200
2826.0 0.000354 3050.42480 3069.44141
2914.0 0.0003432 3050.18555 3068.20972
2793.0 0.000358 3049.94653 3067.05981
2809.0 0.000356 3049.70776 3065.98242
2865.0 0.0003490 3049.46851 3064.00708
2800.0 0.000357 3049.22949 3063.31226
2915.0 0.0003431 3048.99048 3062.43970
2749.0 0.000364 3048.75171 3061.61426
2820.0 0.000355 3048.51245 3060.34595
2842.0 0.000352 3048.27344 3059.61401
2708.0 0.000369 3048.03418 3058.91772
2795.0 0.000358 3047.79517 3058.25366
2863.0 0.0003493 3047.55615 3057.61890
2822.0 0.000354 3047.31689 3057.01147
2861.0 0.0003495 3047.07788 3056.42896
2932.0 0.0003411 3046.83887 3055.86938
2757.0 0.000363 3046.59937 3055.33105
2873.0 0.0003481 3046.36035 3054.81250
2909.0 0.0003438 3046.12109 3054.31226
2857.0 0.0003500 3045.88184 3053.82886
2830.0 0.000353 3045.64282 3053.36157
2785.0 0.000359 3045.40356 3052.90942
2872.0 0.0003482 3045.16431 3052.47095
2839.0 0.000352 3044.92480 3052.04517
2730.0 0.000366 3044.68579 3051.63184
2826.0 0.000354 3044.44653 3051.23071
2895.0 0.0003454 3044.20728 3050.84009
2796.0 0.000358 3043.96777 3050.45996
2882.0 0.0003470 3043.72876 3050.08984
2768.0 0.000361 3043.48950 3049.72925
2824.0 0.000354 3043.25000 3049.37744
2877.0 0.0003476 3043.01074 3049.03491
2709.0 0.000369 3042.77148 3048.69995
2849.0 0.000351 3042.53198 3048.37378
2850.0 0.000351 3042.29272 3048.05566
2847.0 0.000351 3042.05322 3047.74487
2815.0 0.000355 3041.81372 3047.44165
2739.0 0.000365 3041.57446 3047.14575
2809.0 0.000356 3041.33496 3046.85693
2759.0 0.000362 3041.09595 3046.57568
2757.0 0.000363 3040.85620 3046.30151
2811.0 0.000356 3040.61694 3046.03467
2867.0 0.0003488 3040.37744 3045.77466
2833.0 0.000353 3040.13794 3045.52222
2848.0 0.000351 3039.89868 3045.27661
2891.0 0.0003459 3039.65918 3045.03833
2883.0 0.0003469 3039.41968 3044.80859
2735.0 0.000366 3039.18018 3044.58594
2871.0 0.0003483 3038.94092 3042.52832
2821.0 0.000354 3038.70142 3042.36548
2713.0 0.000369 3038.46191 3042.21021
2745.0 0.000364 3038.22241 3042.06250
2845.0 0.000351 3037.98291 3040.99048
2931.0 0.0003412 3037.74341 3040.88208
2877.0 0.0003476 3037.50391 3040.78223
2824.0 0.000354 3037.26440 3040.69189
2815.0 0.000355 3037.02490 3040.61230
2943.0 0.0003398 3036.78540 3040.54370
2834.0 0.000353 3036.54590 3040.48779
2876.0 0.0003477 3036.30615 3040.44580
2938.0 0.0003404 3036.06689 3040.41870
2967.0 0.0003370 3035.82739 3040.40894
2856.0 0.0003501 3035.58789 3040.41724
2854.0 0.0003504 3035.34814 3040.44629
2935.0 0.0003407 3035.10864 3040.49829
2880.0 0.0003472 3034.86890 3040.57642
2823.0 0.000354 3034.62939 3040.68311
2890.0 0.0003460 3034.38989 3040.82251
2808.0 0.000356 3034.15039 3040.99854
2841.0 0.000352 3033.91064 3041.21582
2869.0 0.0003486 3033.67139 3041.48096
2836.0 0.000353 3033.43164 3041.79980
2831.0 0.000353 3033.19189 3042.18115
2831.0 0.000353 3032.95239 3042.63306
2757.0 0.000363 3032.71289 3043.16870
2900.0 0.0003448 3032.47339 3043.80103
2909.0 0.0003438 3032.23389 3044.54688
2859.0 0.0003498 3031.99414 3045.42676
2745.0 0.000364 3031.75464 3046.46606
2852.0 0.0003506 3031.51514 3047.69678
2784.0 0.000359 3031.27539 3049.15796
2815.0 0.000355 3031.03589 3050.90063
2835.0 0.000353 3030.79614 3052.99072
2751.0 0.000364 3030.55664 3055.51343
2866.0 0.0003489 3030.31689 3058.58423
2897.0 0.0003452 3030.07739 3062.36694
2737.0 0.000365 3029.83789 3067.11230
2808.0 0.000356 3029.59814 3073.23779
2913.0 0.0003433 3029.35864 3081.49731
2945.0 0.0003396 3029.11890 3093.26758
2890.0 0.0003460 3028.87939 3110.92969
2858.0 0.0003499 3028.63989 3138.19946
2830.0 0.000353 3028.40015 3180.06592
2789.0 0.000359 3028.16064 3241.89087
3048.0 0.0003281 3027.92114 3327.50415
3118.0 0.0003207 3027.68140 3436.21118
3209.0 0.0003116 3027.44165 3557.88330
3266.0 0.0003062 3027.20215 3666.26465
3449.0 0.0002899 3026.96265 3723.61816
3694.0 0.0002707 3026.72314 3714.71533
3560.0 0.0002809 3026.48340 3666.12183
3381.0 0.0002958 3026.24390 3610.94019
3194.0 0.0003131 3026.00439 3558.30981
3323.0 0.0003009 3025.76489 3497.00366
3353.0 0.0002982 3025.52515 3419.39600
3202.0 0.0003123 3025.28564 3335.38672
3073.0 0.0003254 3025.04590 3259.01685
2941.0 0.0003400 3024.80640 3197.19067
2861.0 0.0003495 3024.56689 3150.79834
2946.0 0.0003394 3024.32739 3117.85693
2854.0 0.0003504 3024.08765 3095.30762
2786.0 0.000359 3023.84814 3080.05762
2878.0 0.0003475 3023.60864 3069.55151
2907.0 0.0003440 3023.36914 3061.99780
2832.0 0.000353 3023.12964 3056.28076
2826.0 0.000354 3022.89014 3051.75293
2816.0 0.000355 3022.65063 3048.04590
2841.0 0.000352 3022.41089 3044.94092
2709.0 0.000369 3022.17139 3042.29932
2711.0 0.000369 3021.93188 3040.02393
2653.0 0.000377 3021.69238 3038.04297
2851.0 0.000351 3021.45313 3036.30200
2854.0 0.0003504 3021.21338 3034.75952
2808.0 0.000356 3020.97388 3033.38135
2797.0 0.000358 3020.73462 3032.14111
2880.0 0.0003472 3020.49512 3031.01733
2743.0 0.000365 3020.25562 3029.99316
2805.0 0.000357 3020.01587 3029.05322
2853.0 0.0003505 3019.77661 3028.18652
2791.0 0.000358 3019.53711 3027.38306
2741.0 0.000365 3019.29761 3026.63452
2851.0 0.000351 3019.05835 3025.93408
2767.0 0.000361 3018.81885 3025.27563
2887.0 0.0003464 3018.57935 3024.65454
2754.0 0.000363 3018.34009 3024.06641
2840.0 0.000352 3018.10059 3023.50732
2777.0 0.000360 3017.86108 3022.97437
2811.0 0.000356 3017.62158 3022.46460
2803.0 0.000357 3017.38208 3021.97583
2808.0 0.000356 3017.14282 3021.50586
2806.0 0.000356 3016.90356 3021.05273
2827.0 0.000354 3016.66431 3020.61499
2708.0 0.000369 3016.42480 3020.19116
2820.0 0.000355 3016.18555 3019.78003
2776.0 0.000360 3015.94604 3019.38037
2795.0 0.000358 3015.70679 3018.99121
2740.0 0.000365 3015.46753 3018.61157
2796.0 0.000358 3015.22803 3018.24097
2907.0 0.0003440 3014.98877 3017.87817
2684.0 0.000373 3014.74976 3017.52295
2872.0 0.0003482 3014.51025 3017.17456
2760.0 0.000362 3014.27100 3016.83252
2774.0 0.000360 3014.03174 3016.49609
2824.0 0.000354 3013.79272 3016.16553
2928.0 0.0003415 3013.55322 3015.83960
2909.0 0.0003438 3013.31421 3015.51831
2840.0 0.000352 3013.07495 3015.20166
2704.0 0.000370 3012.83569 3014.88892
2797.0 0.000358 3012.59644 3014.57983
2750.0 0.000364 3012.35718 3014.27417
2749.0 0.000364 3012.11816 3013.97192
2756.0 0.000363 3011.87891 3013.67285
2795.0 0.000358 3011.63989 3013.37646
2782.0 0.000359 3011.40063 3013.08301
2775.0 0.000360 3011.16162 3012.79199
2680.0 0.000373 3010.92261 3012.50317
2827.0 0.000354 3010.68335 3012.21680
2819.0 0.000355 3010.44434 3011.93237
2750.0 0.000364 3010.20508 3011.65015
2800.0 0.000357 3009.96606 3011.36963
2848.0 0.000351 3009.72729 3011.09082
2862.0 0.0003494 3009.48828 3010.81372
2738.0 0.000365 3009.24902 3010.53833
2836.0 0.000353 3009.01025 3010.26440
2774.0 0.000360 3008.77124 3009.99170
2832.0 0.000353 3008.53223 3009.72046
2737.0 0.000365 3008.29321 3009.45044
2858.0 0.0003499 3008.05420 3009.18188
2922.0 0.0003422 3007.81543 3008.91406
2922.0 0.0003422 3007.57642 3008.64746
2841.0 0.000352 3007.33765 3008.38208
2979.0 0.0003357 3007.09863 3008.11768
2951.0 0.0003389 3006.85986 3007.85425
2968.0 0.0003369 3006.62109 3007.59155
3011.0 0.0003321 3006.38208 3007.32959
3037.0 0.0003293 3006.14331 3007.06860
2920.0 0.0003425 3005.90454 3006.80859
2929.0 0.0003414 3005.66602 3006.54907
2915.0 0.0003431 3005.42700 3006.29053
2866.0 0.0003489 3005.18823 3006.03247
2818.0 0.000355 3004.94946 3005.77490
2744.0 0.000364 3004.71094 3005.51831
2930.0 0.0003413 3004.47217 3005.26196
2829.0 0.000353 3004.23340 3005.00635
2789.0 0.000359 3003.99463 3004.75122
2801.0 0.000357 3003.75635 3004.49683
2801.0 0.000357 3003.51758 3003.77319
2821.0 0.000354 3003.27905 3003.52905
2823.0 0.000354 3003.04053 3003.28516
2803.0 0.000357 3002.80176 3003.53149
2922.0 0.0003422 3002.56323 3003.29785
2873.0 0.0003481 3002.32471 3002.83105
2869.0 0.0003486 3002.08618 3002.60327
2790.0 0.000358 3001.84766 3002.82715
2768.0 0.000361 3001.60913 3002.85132
2777.0 0.000360 3001.37085 3002.63916
2804.0 0.000357 3001.13232 3002.42773
2823.0 0.000354 3000.89380 3002.21777
2740.0 0.000365 3000.65552 3002.23096
2703.0 0.000370 3000.41724 3002.02734
2897.0 0.0003452 3000.17871 3001.82471
2873.0 0.0003481 2999.94043 3001.62354
2781.0 0.000360 2999.70215 3001.42358
2860.0 0.0003497 2999.46387 3001.22485
2715.0 0.000368 2999.22559 3001.02783
2893.0 0.0003457 2998.98730 3000.83203
2805.0 0.000357 2998.74927 3000.63818
2809.0 0.000356 2998.51074 3000.44556
2824.0 0.000354 2998.27271 3000.25439
2774.0 0.000360 2998.03467 3000.06543
2905.0 0.0003442 2997.79639 2999.87817
2824.0 0.000354 2997.55835 2999.69312
2855.0 0.0003503 2997.32031 2999.51001
2863.0 0.0003493 2997.08228 2999.32861
2830.0 0.000353 2996.84399 2999.14966
2748.0 0.000364 2996.60596 2998.97314
2818.0 0.000355 2996.36816 2998.79932
2831.0 0.000353 2996.12988 2998.62842
2812.0 0.000356 2995.89233 2998.45996
2781.0 0.000360 2995.65405 2998.29443
2860.0 0.0003497 2995.41626 2998.13184
2898.0 0.0003451 2995.17822 2997.97314
2799.0 0.000357 2994.94043 2997.81763
2823.0 0.000354 2994.70264 2997.66577
2802.0 0.000357 2994.46484 2997.51831
2793.0 0.000358 2994.22705 2997.37427
2889.0 0.0003461 2993.98926 2997.23535
2758.0 0.000363 2993.75146 2997.10059
2717.0 0.000368 2993.51392 2996.97144
2783.0 0.000359 2993.27612 2996.84741
2740.0 0.000365 2993.03833 2996.72900
2804.0 0.000357 2992.80078 2996.61670
2849.0 0.000351 2992.56323 2996.51147
2823.0 0.000354 2992.32568 2996.41211
2801.0 0.000357 2992.08813 2996.32104
2798.0 0.000357 2991.85059 2996.23779
2894.0 0.0003455 2991.61304 2996.16309
2725.0 0.000367 2991.37549 2996.09790
2797.0 0.000358 2991.13818 2996.04248
2864.0 0.0003492 2990.90063 2995.99780
2792.0 0.000358 2990.66309 2995.96484
2917.0 0.0003428 2990.42603 2995.94482
2894.0 0.0003455 2990.18848 2995.93774
2814.0 0.000355 2989.95117 2995.94604
2798.0 0.000357 2989.71387 2995.96997
2799.0 0.000357 2989.47656 2996.01196
2869.0 0.0003486 2989.23950 2996.07300
2884.0 0.0003467 2989.00220 2996.15454
2874.0 0.0003479 2988.76514 2996.25928
2887.0 0.0003464 2988.52783 2996.38916
2802.0 0.000357 2988.29077 2996.54712
2766.0 0.000362 2988.05347 2996.73486
2797.0 0.000358 2987.81641 2996.95703
2788.0 0.000359 2987.57959 2997.21631
2820.0 0.000355 2987.34253 2997.51733
2852.0 0.0003506 2987.10571 2997.86499
2784.0 0.000359 2986.86865 2998.26416
2879.0 0.0003473 2986.63184 2998.72192
2809.0 0.000356 2986.39478 2999.24512
2839.0 0.000352 2986.15796 2999.84326
2820.0 0.000355 2985.92139 3000.52490
2933.0 0.0003409 2985.68433 3001.30273
2815.0 0.000355 2985.44775 3002.18994
2877.0 0.0003476 2985.21069 3003.20337
2921.0 0.0003423 2984.97412 3004.36353
2860.0 0.0003497 2984.73755 3005.69214
2755.0 0.000363 2984.50073 3007.21875
2825.0 0.000354 2984.26416 3008.97876
2913.0 0.0003433 2984.02759 3011.01343
2893.0 0.0003457 2983.79102 3013.37769
2880.0 0.0003472 2983.55469 3016.13892
2821.0 0.000354 2983.31812 3019.37964
2861.0 0.0003495 2983.08179 3023.21655
2887.0 0.0003464 2982.84521 3027.81055
2913.0 0.0003433 2982.60889 3033.39453
2977.0 0.0003359 2982.37256 3040.35986
2931.0 0.0003412 2982.13623 3049.35547
2880.0 0.0003472 2981.89990 3061.50513
2970.0 0.0003367 2981.66357 3078.64160
2997.0 0.0003337 2981.42749 3103.55005
3104.0 0.0003222 2981.19141 3140.11084
3045.0 0.0003284 2980.95508 3192.97876
3075.0 0.0003252 2980.71899 3266.83740
3187.0 0.0003138 2980.48291 3365.26001
3225.0 0.0003101 2980.24683 3488.55762
3445.0 0.0002903 2980.01099 3630.83789
3717.0 0.0002690 2979.77490 3776.68506
4067.0 0.0002459 2979.53882 3902.77173
4247.0 0.0002355 2979.30298 4015.19043
4064.0 0.0002461 2979.06738 4069.48584
3922.0 0.0002550 2978.83130 4092.34229
4049.0 0.0002470 2978.59570 4078.90918
4143.0 0.0002414 2978.35986 4025.33521
3964.0 0.0002523 2978.12402 3950.26855
3732.0 0.0002680 2977.88843 3846.57178
3629.0 0.0002756 2977.65283 3739.26709
3474.0 0.0002879 2977.41724 3633.54468
3480.0 0.0002874 2977.18140 3529.01709
3440.0 0.0002907 2976.94604 3428.92871
3196.0 0.0003129 2976.71069 3339.89673
3177.0 0.0003148 2976.47510 3280.66064
3113.0 0.0003212 2976.23950 3223.31519
2994.0 0.0003340 2976.00439 3180.39209
3112.0 0.0003213 2975.76880 3149.26587
3132.0 0.0003193 2975.53369 3127.21533
3006.0 0.0003327 2975.29834 3111.78857
2951.0 0.0003389 2975.06299 3108.15552
2906.0 0.0003441 2974.82813 3100.56152
2903.0 0.0003445 2974.59253 3095.04321
2965.0 0.0003373 2974.35767 3090.94775
2964.0 0.0003374 2974.12256 3087.87036
3041.0 0.0003288 2973.88745 3085.55859
3038.0 0.0003292 2973.65234 3083.85376
3000.0 0.0003333 2973.41748 3082.64673
3047.0 0.0003282 2973.18237 3081.85962
2941.0 0.0003400 2972.94751 3081.43579
3090.0 0.0003236 2972.71289 3081.32788
3070.0 0.0003257 2972.47803 3081.50171
3140.0 0.0003185 2972.24316 3081.92896
3105.0 0.0003221 2972.00854 3082.58667
3164.0 0.0003161 2971.77393 3083.45801
3257.0 0.0003070 2971.53906 3084.53027
3255.0 0.0003072 2971.30469 3085.79028
3268.0 0.0003060 2971.07007 3087.23145
3301.0 0.0003029 2970.83569 3088.84717
3216.0 0.0003109 2970.60083 3090.63477
3117.0 0.0003208 2970.36646 3092.59009
3247.0 0.0003080 2970.13208 3094.71338
3350.0 0.0002985 2969.89771 3097.00439
3175.0 0.0003150 2969.66357 3099.46509
3291.0 0.0003039 2969.42920 3102.09644
3185.0 0.0003140 2969.19507 3104.90405
3185.0 0.0003140 2968.96069 3107.89355
3249.0 0.0003078 2968.72656 3111.06641
3153.0 0.0003172 2968.49268 3114.43262
3214.0 0.0003111 2968.25830 3118.00024
3235.0 0.0003091 2968.02466 3121.77344
3159.0 0.0003166 2967.79053 3125.76685
3190.0 0.0003135 2967.55664 3129.98779
3203.0 0.0003122 2967.32275 3134.45117
3208.0 0.0003117 2967.08887 3139.16797
3266.0 0.0003062 2966.85498 3144.15088
3289.0 0.0003040 2966.62134 3149.42090
3216.0 0.0003109 2966.38770 3154.99219
3316.0 0.0003016 2966.15405 3160.88110
3178.0 0.0003147 2965.92041 3167.11230
3247.0 0.0003080 2965.68652 3173.71143
3208.0 0.0003117 2965.45313 3180.69482
3321.0 0.0003011 2965.21973 3188.09717
3319.0 0.0003013 2964.98608 3195.95020
3261.0 0.0003067 2964.75293 3204.27783
3283.0 0.0003046 2964.51953 3213.12354
3263.0 0.0003065 2964.28613 3222.53125
3394.0 0.0002946 2964.05298 3232.53369
3348.0 0.0002987 2963.81982 3243.19214
3278.0 0.0003051 2963.58667 3254.55005
3415.0 0.0002928 2963.35352 3266.67969
3432.0 0.0002914 2963.12036 3279.64282
3363.0 0.0002974 2962.88745 3293.50659
3467.0 0.0002884 2962.65430 3308.36963
3300.0 0.0003030 2962.42139 3324.31812
3405.0 0.0002937 2962.18872 3341.44873
3350.0 0.0002985 2961.95581 3359.89209
3513.0 0.0002847 2961.72314 3379.78784
3530.0 0.0002833 2961.49048 3401.26196
3612.0 0.0002769 2961.25781 3424.50562
3596.0 0.0002781 2961.02490 3449.72217
3521.0 0.0002840 2960.79248 3477.10376
3648.0 0.0002741 2960.56006 3506.93896
3719.0 0.0002689 2960.32739 3539.49341
3669.0 0.0002726 2960.09497 3575.14038
3868.0 0.0002585 2959.86255 3614.26050
3756.0 0.0002662 2959.63013 3657.29443
3778.0 0.0002647 2959.39795 3704.82617
3862.0 0.0002589 2959.16577 3757.47437
3990.0 0.0002506 2958.93359 3815.96509
4046.0 0.0002472 2958.70142 3881.24072
4224.0 0.0002367 2958.46924 3954.40601
4270.0 0.0002342 2958.23730 4036.67603
4480.0 0.0002232 2958.00537 4129.71143
4581.0 0.0002183 2957.77344 4235.50244
4846.0 0.0002064 2957.54150 4356.33984
4841.0 0.0002066 2957.30957 4495.44336
5130.0 0.0001949 2957.07788 4656.68750
5669.0 0.0001764 2956.84595 4845.73340
5763.0 0.0001735 2956.61426 5070.06836
6283.0 0.0001592 2956.38257 5343.15820
6681.0 0.0001497 2956.15112 5685.56641
7096.0 0.0001409 2955.91943 6131.96143
7508.0 0.0001332 2955.68799 6738.38574
8168.0 0.0001224 2955.45679 7594.22559
9065.0 0.0001103 2955.22534 8824.36328
9760.0 0.0001025 2954.99390 10591.52930
11132.0 0.0000898 2954.76270 13083.91211
13178.0 0.0000759 2954.53149 16484.40625
16867.0 0.0000593 2954.30029 20914.33984
22283.0 0.0000449 2954.06909 26368.28125
30241.0 0.0000331 2953.83813 32598.26758
39400.0 0.0000254 2953.60742 39038.94141
46482.0 0.0000215 2953.37622 44995.29688
49111.0 0.0000204 2953.14526 49934.40234
53117.0 0.0000188 2952.91455 53449.96094
61716.0 0.0000162 2952.68384 54985.95313
66577.0 0.0000150 2952.45288 54209.25391
60212.0 0.0000166 2952.22217 51497.84375
47253.0 0.0000212 2951.99170 47657.01172
38018.0 0.0000263 2951.76123 43377.18750
35063.0 0.0000285 2951.53076 38956.77344
35184.0 0.0000284 2951.30005 34329.69141
34178.0 0.0000293 2951.06982 29446.88672
27616.0 0.0000362 2950.83936 24562.09766
19177.0 0.0000521 2950.60913 20072.55664
13832.0 0.0000723 2950.37915 16247.92676
11316.0 0.0000884 2950.14868 13164.04688
9610.0 0.0001041 2949.91870 10786.36035
8694.0 0.0001150 2949.68872 9015.61523
7756.0 0.0001289 2949.45850 7732.57813
7239.0 0.0001381 2949.22876 6816.67432
6761.0 0.0001479 2948.99878 6161.09814
6227.0 0.0001606 2948.76904 5683.17871
5860.0 0.0001706 2948.53906 5323.51904
5374.0 0.0001861 2948.30957 5042.29883
5380.0 0.0001859 2948.07959 4814.61230
4987.0 0.0002005 2947.85034 4625.38818
4748.0 0.0002106 2947.62085 4464.86182
4735.0 0.0002112 2947.39111 4326.79492
4502.0 0.0002221 2947.16187 4207.02881
4322.0 0.0002314 2946.93237 4102.25098
4201.0 0.0002380 2946.70288 4009.99414
4072.0 0.0002456 2946.47363 3928.41626
4122.0 0.0002426 2946.24487 3855.91260
4119.0 0.0002428 2946.01563 3791.10449
3770.0 0.0002653 2945.78638 3732.93701
3820.0 0.0002618 2945.55737 3680.55249
3862.0 0.0002589 2945.32837 3633.22656
3732.0 0.0002680 2945.09961 3590.28247
3706.0 0.0002698 2944.87061 3551.39014
3731.0 0.0002680 2944.64209 3515.75562
3546.0 0.0002820 2944.41333 3483.13647
3600.0 0.0002778 2944.18457 3453.19360
3568.0 0.0002803 2943.95605 3425.67139
3529.0 0.0002834 2943.72754 3400.28906
3581.0 0.0002793 2943.49902 3376.82227
3472.0 0.0002880 2943.27075 3355.17920
3576.0 0.0002796 2943.04224 3335.02148
3598.0 0.0002779 2942.81396 3316.29102
3477.0 0.0002876 2942.58569 3298.83643
3284.0 0.0003045 2942.35767 3282.55249
3397.0 0.0002944 2942.12964 3267.34229
3388.0 0.0002952 2941.90161 3253.09717
3354.0 0.0002982 2941.67334 3239.74365
3320.0 0.0003012 2941.44580 3227.21289
3271.0 0.0003057 2941.21802 3215.42944
3249.0 0.0003078 2940.98999 3204.33154
3307.0 0.0003024 2940.76221 3193.87842
3333.0 0.0003000 2940.53467 3184.01050
3222.0 0.0003104 2940.30688 3174.68164
3262.0 0.0003066 2940.07959 3165.86304
3294.0 0.0003036 2939.85205 3157.50781
3289.0 0.0003040 2939.62476 3149.59033
3262.0 0.0003066 2939.39746 3142.07300
3225.0 0.0003101 2939.17017 3134.93115
3238.0 0.0003088 2938.94287 3128.14404
3267.0 0.0003061 2938.71582 3121.68115
3289.0 0.0003040 2938.48877 3115.94556
3158.0 0.0003167 2938.26147 3110.08545
3237.0 0.0003089 2938.03491 3104.49121
3142.0 0.0003183 2937.80786 3099.14941
3233.0 0.0003093 2937.58105 3094.04688
3139.0 0.0003186 2937.35449 3089.16504
3167.0 0.0003158 2937.12744 3084.49048
3183.0 0.0003142 2936.90112 3080.22852
3170.0 0.0003155 2936.67432 3075.94287
3149.0 0.0003176 2936.44800 3071.83081
3124.0 0.0003201 2936.22144 3067.88745
3137.0 0.0003188 2935.99536 3064.09912
3157.0 0.0003168 2935.76880 3060.46045
3015.0 0.0003317 2935.54272 3056.96069
3136.0 0.0003189 2935.31665 3053.59424
3104.0 0.0003222 2935.09033 3050.35522
3155.0 0.0003170 2934.86426 3047.23462
3188.0 0.0003137 2934.63843 3044.22852
3128.0 0.0003197 2934.41260 3041.33154
3170.0 0.0003155 2934.18677 3038.53735
3117.0 0.0003208 2933.96094 3035.83984
3083.0 0.0003244 2933.73535 3033.23755
3114.0 0.0003211 2933.50977 3030.72461
3001.0 0.0003332 2933.28418 3028.29565
3114.0 0.0003211 2933.05884 3025.95044
3048.0 0.0003281 2932.83350 3023.68115
3126.0 0.0003199 2932.60815 3021.48853
3164.0 0.0003161 2932.38281 3019.36670
3153.0 0.0003172 2932.15771 3017.31274
3094.0 0.0003232 2931.93237 3015.32617
3064.0 0.0003264 2931.70752 3013.40234
3009.0 0.0003323 2931.48242 3011.53906
3111.0 0.0003214 2931.25757 3009.73560
3124.0 0.0003201 2931.03271 3007.98926
3084.0 0.0003243 2930.80786 3006.29614
3060.0 0.0003268 2930.58325 3004.65771
3163.0 0.0003162 2930.35864 3003.07007
2999.0 0.0003334 2930.13403 3001.53149
2989.0 0.0003346 2929.90967 3000.04297
2991.0 0.0003343 2929.68530 2998.60083
3033.0 0.0003297 2929.46069 2997.20435
3115.0 0.0003210 2929.23657 2995.85425
3050.0 0.0003279 2929.01221 2994.54810
3103.0 0.0003223 2928.78833 2993.28613
3107.0 0.0003219 2928.56421 2992.06665
3174.0 0.0003151 2928.34009 2990.88867
3036.0 0.0003294 2928.11621 2989.75488
3141.0 0.0003184 2927.89233 2988.66284
3042.0 0.0003287 2927.66846 2987.61353
3074.0 0.0003253 2927.44507 2986.60742
3097.0 0.0003229 2927.22144 2985.64453
2991.0 0.0003343 2926.99780 2984.72559
2978.0 0.0003358 2926.77441 2960.94409
3011.0 0.0003321 2926.55103 2960.51392
2974.0 0.0003362 2926.32764 2960.12280
3084.0 0.0003243 2926.10449 2959.77368
3021.0 0.0003310 2925.88135 2959.46924
2959.0 0.0003380 2925.65820 2959.21460
3055.0 0.0003273 2925.43530 2933.36084
2958.0 0.0003381 2925.21216 2933.64893
2914.0 0.0003432 2924.98926 2933.99316
2987.0 0.0003348 2924.76660 2934.40381
2915.0 0.0003431 2924.54370 2934.89209
3013.0 0.0003319 2924.32129 2935.47217
3031.0 0.0003299 2924.09863 2936.16504
3026.0 0.0003305 2923.87598 2936.99854
3032.0 0.0003298 2923.65356 2938.01538
3052.0 0.0003277 2923.43140 2939.28394
3000.0 0.0003333 2923.20898 2940.91504
3035.0 0.0003295 2922.98682 2943.08008
3089.0 0.0003237 2922.76465 2946.04443
2867.0 0.0003488 2922.54248 2950.17871
2990.0 0.0003344 2922.32080 2955.95459
2992.0 0.0003342 2922.09888 2963.92603
3174.0 0.0003151 2921.87720 2974.63232
3088.0 0.0003238 2921.65527 2988.52246
3108.0 0.0003218 2921.43359 3005.79370
3236.0 0.0003090 2921.21216 3026.23755
3204.0 0.0003121 2920.99048 3049.04199
3274.0 0.0003054 2920.76929 3072.52222
3260.0 0.0003067 2920.54785 3094.51904
3210.0 0.0003115 2920.32666 3113.87500
3301.0 0.0003029 2920.10547 3131.56104
3190.0 0.0003135 2919.88452 3149.56860
3293.0 0.0003037 2919.66333 3168.63892
3229.0 0.0003097 2919.44238 3186.76245
3234.0 0.0003092 2919.22144 3199.27490
3188.0 0.0003137 2919.00073 3201.28394
3373.0 0.0002965 2918.78003 3191.50366
3234.0 0.0003092 2918.55957 3173.42041
3184.0 0.0003141 2918.33887 3152.19312
3157.0 0.0003168 2918.11841 3131.31689
3111.0 0.0003214 2917.89795 3111.61475
3025.0 0.0003306 2917.67749 3092.12720
3168.0 0.0003157 2917.45752 3071.89429
3091.0 0.0003235 2917.23730 3051.31592
3085.0 0.0003241 2917.01733 3031.83325
2994.0 0.0003340 2916.79736 3014.80200
2947.0 0.0003393 2916.57739 3000.92529
3131.0 0.0003194 2916.35767 2990.43408
3031.0 0.0003299 2916.13770 2983.31250
3046.0 0.0003283 2915.91821 2979.44629
3055.0 0.0003273 2915.69873 2978.82056
2994.0 0.0003340 2915.47900 2981.78882
3047.0 0.0003282 2915.25952 2988.78271
3114.0 0.0003211 2915.04053 3001.13599
3073.0 0.0003254 2914.82104 3020.66821
3047.0 0.0003282 2914.60181 3049.60449
3133.0 0.0003192 2914.38306 3090.17651
3097.0 0.0003229 2914.16406 3144.06934
3183.0 0.0003142 2913.94507 3211.57910
3205.0 0.0003120 2913.72632 3290.50806
3409.0 0.0002933 2913.50757 3375.56934
3683.0 0.0002715 2913.28882 3456.85303
3800.0 0.0002632 2913.07031 3520.09644
3962.0 0.0002524 2912.85181 3552.24194
3641.0 0.0002746 2912.63306 3550.28809
3462.0 0.0002889 2912.41504 3523.70996
3414.0 0.0002929 2912.19653 3485.91357
3372.0 0.0002966 2911.97876 3445.62231
3447.0 0.0002901 2911.76050 3404.20166
3558.0 0.0002811 2911.54248 3358.15112
3475.0 0.0002878 2911.32446 3304.54883
3256.0 0.0003071 2911.10669 3245.23364
3164.0 0.0003161 2910.88892 3185.58862
3059.0 0.0003269 2910.67163 3130.59302
3156.0 0.0003169 2910.45386 3083.05981
3145.0 0.0003180 2910.23633 3044.01904
3066.0 0.0003262 2910.01904 3013.35718
3023.0 0.0003308 2909.80176 2990.14136
3030.0 0.0003300 2909.58447 2973.07495
2974.0 0.0003362 2909.36719 2960.76709
2902.0 0.0003446 2909.15039 2951.89795
2936.0 0.0003406 2908.93359 2945.41504
3075.0 0.0003252 2908.71655 2940.52637
2985.0 0.0003350 2908.49976 2936.69702
2873.0 0.0003481 2908.28320 2933.58325
2967.0 0.0003370 2908.06641 2930.96729
2934.0 0.0003408 2907.84985 2928.71948
3038.0 0.0003292 2907.63354 2926.75488
2876.0 0.0003477 2907.41724 2925.01685
2863.0 0.0003493 2907.20117 2923.46460
2891.0 0.0003459 2906.98486 2922.07007
2895.0 0.0003454 2906.76904 2920.80713
2864.0 0.0003492 2906.55273 2919.65796
2931.0 0.0003412 2906.33691 2918.60718
2964.0 0.0003374 2906.12109 2917.64063
2955.0 0.0003384 2905.90552 2916.74707
3096.0 0.0003230 2905.68970 2915.91895
3017.0 0.0003315 2905.47412 2915.14722
3010.0 0.0003322 2905.25879 2914.42529
2956.0 0.0003383 2905.04346 2913.74854
3066.0 0.0003262 2904.82837 2913.11157
2961.0 0.0003377 2904.61304 2912.51001
3004.0 0.0003329 2904.39795 2911.93994
2935.0 0.0003407 2904.18311 2911.39941
2925.0 0.0003419 2903.96826 2910.88452
2915.0 0.0003431 2903.75317 2910.39355
2946.0 0.0003394 2903.53857 2909.92310
2961.0 0.0003377 2903.32397 2909.47339
2984.0 0.0003351 2903.10938 2909.04102
2859.0 0.0003498 2902.89502 2908.62646
3027.0 0.0003304 2902.68066 2908.22632
2948.0 0.0003392 2902.46631 2907.84082
2929.0 0.0003414 2902.25220 2907.46851
2894.0 0.0003455 2902.03809 2907.10889
2993.0 0.0003341 2901.82422 2906.76123
2866.0 0.0003489 2901.61011 2906.42407
2959.0 0.0003380 2901.39648 2906.09741
2904.0 0.0003444 2901.18262 2905.78076
2916.0 0.0003429 2900.96924 2905.47412
2904.0 0.0003444 2900.75586 2905.17627
2997.0 0.0003337 2900.54224 2904.88745
2922.0 0.0003422 2900.32886 2904.60693
2888.0 0.0003463 2900.11572 2904.33569
2946.0 0.0003394 2899.90259 2904.07227
2892.0 0.0003458 2899.68945 2903.81738
2895.0 0.0003454 2899.47656 2903.57104
2969.0 0.0003368 2899.26367 2903.33276
2896.0 0.0003453 2899.05103 2903.10376
3069.0 0.0003258 2898.83813 2902.88257
3097.0 0.0003229 2898.62573 2902.67114
2895.0 0.0003454 2898.41333 2902.46948
2888.0 0.0003463 2898.20093 2902.27686
2920.0 0.0003425 2897.98877 2902.09521
2884.0 0.0003467 2897.77637 2901.92505
2841.0 0.000352 2897.56421 2901.76733
2873.0 0.0003481 2897.35229 2901.62183
2812.0 0.000356 2897.14038 2901.49097
3019.0 0.0003312 2896.92871 2901.37549
2770.0 0.000361 2896.71704 2901.27759
2823.0 0.000354 2896.50537 2901.19971
2795.0 0.000358 2896.29370 2901.14282
2942.0 0.0003399 2896.08252 2901.11157
2843.0 0.000352 2895.87109 2901.10693
2886.0 0.0003465 2895.65991 2901.05786
2938.0 0.0003404 2895.44873 2901.12524
2937.0 0.0003405 2895.23755 2901.23608
2984.0 0.0003351 2895.02686 2901.39868
2928.0 0.0003415 2894.81592 2901.62183
2877.0 0.0003476 2894.60498 2901.92090
2977.0 0.0003359 2894.39478 2902.13257
2878.0 0.0003475 2894.18408 2902.65210
2877.0 0.0003476 2893.97363 2903.34351
2888.0 0.0003463 2893.76318 2904.28369
2840.0 0.000352 2893.55322 2905.60254
2967.0 0.0003370 2893.34277 2907.50391
2898.0 0.0003451 2893.13281 2910.28784
2911.0 0.0003435 2892.92285 2914.30664
2872.0 0.0003482 2892.71313 2920.22217
2983.0 0.0003352 2892.50342 2928.55103
3046.0 0.0003283 2892.29370 2939.82593
2956.0 0.0003383 2892.08423 2954.38062
2973.0 0.0003364 2891.87476 2972.20337
2989.0 0.0003346 2891.66528 2992.69897
3027.0 0.0003304 2891.45605 3014.47778
3086.0 0.0003240 2891.24707 3035.16260
3117.0 0.0003208 2891.03809 3051.42285
3187.0 0.0003138 2890.82910 3060.16089
3018.0 0.0003313 2890.62012 3060.48779
3073.0 0.0003254 2890.41138 3054.35718
2998.0 0.0003336 2890.20288 3044.93481
3028.0 0.0003303 2889.99438 3034.56055
3043.0 0.0003286 2889.78589 3023.97729
2960.0 0.0003378 2889.57764 3012.61768
3012.0 0.0003320 2889.36914 2999.57593
3012.0 0.0003320 2889.16113 2984.82495
3068.0 0.0003259 2888.95313 2969.35718
2987.0 0.0003348 2888.74536 2954.46436
2988.0 0.0003347 2888.53760 2940.65601
2991.0 0.0003343 2888.32959 2929.24097
2967.0 0.0003370 2888.12207 2919.91919
2935.0 0.0003407 2887.91455 2912.59106
2965.0 0.0003373 2887.70728 2907.00659
2928.0 0.0003415 2887.49976 2902.84692
2960.0 0.0003378 2887.29272 2899.78564
2879.0 0.0003473 2887.08569 2897.31006
2853.0 0.0003505 2886.87866 2910.00806
2885.0 0.0003466 2886.67188 2908.92822
2947.0 0.0003393 2886.46484 2908.10571
2930.0 0.0003413 2886.25830 2907.46167
2912.0 0.0003434 2886.05176 2906.94434
2859.0 0.0003498 2885.84546 2906.52368
2919.0 0.0003426 2885.63892 2913.58545
2888.0 0.0003463 2885.43262 2920.60522
2956.0 0.0003383 2885.22656 2920.63721
2939.0 0.0003403 2885.02075 2920.72339
2963.0 0.0003375 2884.81445 2920.85791
2965.0 0.0003373 2884.60889 2921.03662
2882.0 0.0003470 2884.40308 2921.25708
2902.0 0.0003446 2884.19751 2921.51611
2960.0 0.0003378 2883.99194 2925.56152
2980.0 0.0003356 2883.78638 2925.95996
2951.0 0.0003389 2883.58130 2926.39380
2961.0 0.0003377 2883.37598 2926.86377
3121.0 0.0003204 2883.17090 2927.36841
3173.0 0.0003152 2882.96606 2927.90747
3136.0 0.0003189 2882.76123 2928.48145
3148.0 0.0003177 2882.55640 2929.09033
3051.0 0.0003278 2882.35181 2929.73438
3096.0 0.0003230 2882.14722 2930.41382
3171.0 0.0003154 2881.94263 2931.12964
3108.0 0.0003218 2881.73853 2931.88281
3020.0 0.0003311 2881.53442 2932.67310
3009.0 0.0003323 2881.33008 2933.50293
3060.0 0.0003268 2881.12622 2934.37378
3097.0 0.0003229 2880.92236 2935.28516
3078.0 0.0003249 2880.71851 2936.23975
3083.0 0.0003244 2880.51465 2937.23926
3159.0 0.0003166 2880.31128 2938.28394
3146.0 0.0003179 2880.10767 2939.37744
3117.0 0.0003208 2879.90454 2940.54785
3124.0 0.0003201 2879.70142 2941.74390
3135.0 0.0003190 2879.49829 2942.99438
3219.0 0.0003107 2879.29517 2944.56592
3282.0 0.0003047 2879.09204 2945.93677
3371.0 0.0002966 2878.88940 2947.37061
3204.0 0.0003121 2878.68677 2948.86841
3380.0 0.0002959 2878.48438 2950.44873
3144.0 0.0003181 2878.28174 2952.08887
3283.0 0.0003046 2878.07935 2953.80298
3177.0 0.0003148 2877.87720 2955.72949
3259.0 0.0003068 2877.67480 2957.61011
3280.0 0.0003049 2877.47314 2959.57837
3233.0 0.0003093 2877.27124 2961.64111
3154.0 0.0003171 2877.06934 2963.80078
3144.0 0.0003181 2876.86768 2966.06494
3149.0 0.0003176 2876.66602 2968.43994
3151.0 0.0003174 2876.46484 2970.93018
3192.0 0.0003133 2876.26318 2973.54419
3132.0 0.0003193 2876.06201 2976.28955
3124.0 0.0003201 2875.86108 2979.17285
3071.0 0.0003256 2875.66016 2982.20435
2999.0 0.0003334 2875.45898 2985.39380
3117.0 0.0003208 2875.25830 2988.74854
3218.0 0.0003108 2875.05786 2992.28271
2991.0 0.0003343 2874.85693 2996.00879
3160.0 0.0003165 2874.65674 2999.93579
3080.0 0.0003247 2874.45654 3004.08179
3045.0 0.0003284 2874.25635 3008.46240
3186.0 0.0003139 2874.05591 3013.08984
3179.0 0.0003146 2873.85596 3017.98877
3256.0 0.0003071 2873.65649 3023.17334
3129.0 0.0003196 2873.45654 3028.67139
3131.0 0.0003194 2873.25684 3034.50464
3160.0 0.0003165 2873.05737 3040.69702
3253.0 0.0003074 2872.85815 3047.28345
3183.0 0.0003142 2872.65869 3054.29492
3190.0 0.0003135 2872.45947 3061.76270
3271.0 0.0003057 2872.26050 3069.73169
3183.0 0.0003142 2872.06152 3078.25000
3086.0 0.0003240 2871.86279 3087.35620
3190.0 0.0003135 2871.66431 3097.11304
3317.0 0.0003015 2871.46533 3107.58643
3357.0 0.0002979 2871.26709 3118.83301
3358.0 0.0002978 2871.06860 3130.94434
3239.0 0.0003087 2870.87036 3143.99609
3292.0 0.0003038 2870.67236 3158.10156
3353.0 0.0002982 2870.47437 3173.36816
3271.0 0.0003057 2870.27637 3189.91577
3340.0 0.0002994 2870.07861 3207.91016
3426.0 0.0002919 2869.88110 3227.51172
3481.0 0.0002873 2869.68359 3248.90601
3557.0 0.0002811 2869.48608 3272.33862
3406.0 0.0002936 2869.28882 3298.06445
3470.0 0.0002882 2869.09155 3326.37305
3573.0 0.0002799 2868.89453 3357.64478
3632.0 0.0002753 2868.69751 3392.31494
3766.0 0.0002655 2868.50073 3430.84326
3736.0 0.0002677 2868.30420 3473.86523
3721.0 0.0002687 2868.10742 3522.12817
3881.0 0.0002577 2867.91113 3576.46997
3912.0 0.0002556 2867.71460 3637.98047
4271.0 0.0002341 2867.51855 3708.35229
4304.0 0.0002323 2867.32227 3789.64526
4469.0 0.0002238 2867.12646 3884.94751
4578.0 0.0002184 2866.93042 3999.01636
4838.0 0.0002067 2866.73462 4139.56787
5098.0 0.0001962 2866.53931 4318.53564
5373.0 0.0001861 2866.34375 4554.10156
5481.0 0.0001824 2866.14844 4873.43457
5813.0 0.0001720 2865.95313 5313.72998
6092.0 0.0001641 2865.75806 5921.68213
6415.0 0.0001559 2865.56299 6752.65283
6988.0 0.0001431 2865.36792 7863.52686
7634.0 0.0001310 2865.17310 9301.13184
8923.0 0.0001121 2864.97852 11095.08008
11003.0 0.0000909 2864.78418 13237.34180
14027.0 0.0000713 2864.58960 15673.26758
18978.0 0.0000527 2864.39551 18274.27148
25722.0 0.0000389 2864.20117 20822.59180
32498.0 0.0000308 2864.00732 23034.01758
33943.0 0.0000295 2863.81323 24654.98633
28341.0 0.0000353 2863.61938 25618.37305
21782.0 0.0000459 2863.42578 26073.23438
19382.0 0.0000516 2863.23218 26234.57031
21015.0 0.0000476 2863.03882 26214.60938
25405.0 0.0000394 2862.84570 25959.58398
30944.0 0.0000323 2862.65234 25307.09375
33125.0 0.0000302 2862.45947 24132.47656
28396.0 0.0000352 2862.26660 22472.67578
20500.0 0.0000488 2862.07373 20519.01367
15312.0 0.0000653 2861.88086 18499.14453
12826.0 0.0000780 2861.68848 16563.92188
12321.0 0.0000812 2861.49609 14770.40039
12912.0 0.0000774 2861.30371 13107.54590
13083.0 0.0000764 2861.11133 11558.95410
11928.0 0.0000838 2860.91968 10135.56250
9641.0 0.0001037 2860.72729 8865.18066
7551.0 0.0001324 2860.53540 7770.67676
6688.0 0.0001495 2860.34399 6856.13916
5908.0 0.0001693 2860.15234 6109.84473
5388.0 0.0001856 2859.96094 5513.12207
5007.0 0.0001997 2859.76978 5045.07129
4919.0 0.0002033 2859.57861 4683.17285
4586.0 0.0002181 2859.38745 4406.58350
4379.0 0.0002284 2859.19653 4196.96729
4255.0 0.0002350 2859.00586 4038.38818
4151.0 0.0002409 2858.81519 3918.68921
3969.0 0.0002520 2858.62451 3828.65039
3867.0 0.0002586 2858.43408 3761.94824
3734.0 0.0002678 2858.24390 3714.20459
3804.0 0.0002629 2858.05371 3682.17090
3858.0 0.0002592 2857.86353 3663.12793
3811.0 0.0002624 2857.67383 3654.16162
3675.0 0.0002721 2857.48389 3651.75928
3766.0 0.0002655 2857.29443 3651.61230
3883.0 0.0002575 2857.10498 3648.66699
3924.0 0.0002548 2856.91553 3637.95337
3894.0 0.0002568 2856.72607 3616.55762
3716.0 0.0002691 2856.53687 3585.35449
3748.0 0.0002668 2856.34814 3548.05249
3625.0 0.0002759 2856.15918 3508.69775
3497.0 0.0002860 2855.97046 3469.65649
3652.0 0.0002738 2855.78174 3431.35938
3552.0 0.0002815 2855.59326 3392.82739
3447.0 0.0002901 2855.40503 3352.87305
3343.0 0.0002991 2855.21655 3311.53589
3421.0 0.0002923 2855.02856 3270.22827
3186.0 0.0003139 2854.84082 3230.74512
3148.0 0.0003177 2854.65259 3194.51733
3321.0 0.0003011 2854.46509 3162.31201
3284.0 0.0003045 2854.27759 3134.32983
3129.0 0.0003196 2854.08984 3110.43774
3054.0 0.0003274 2853.90259 3090.29932
3082.0 0.0003245 2853.71558 3073.39331
3038.0 0.0003292 2853.52856 3059.16699
3175.0 0.0003150 2853.34180 3047.09644
3179.0 0.0003146 2853.15503 3036.69043
3038.0 0.0003292 2852.96826 3027.56860
3032.0 0.0003298 2852.78149 3019.42334
3149.0 0.0003176 2852.59521 3012.03979
3149.0 0.0003176 2852.40918 3005.26733
2988.0 0.0003347 2852.22290 2998.99243
3016.0 0.0003316 2852.03687 2993.14258
3039.0 0.0003291 2851.85107 2987.66577
3106.0 0.0003220 2851.66553 2982.51611
3141.0 0.0003184 2851.47949 2977.65918
3062.0 0.0003266 2851.29419 2973.07520
3045.0 0.0003284 2851.10889 2968.73560
3170.0 0.0003155 2850.92383 2964.61890
3094.0 0.0003232 2850.73853 2960.71313
3123.0 0.0003202 2850.55371 2956.99756
3017.0 0.0003315 2850.36890 2953.46240
3125.0 0.0003200 2850.18408 2950.09058
3012.0 0.0003320 2849.99951 2946.87231
3004.0 0.0003329 2849.81543 2943.79980
3096.0 0.0003230 2849.63110 2940.86011
3044.0 0.0003285 2849.44678 2938.04590
3042.0 0.0003287 2849.26294 2935.35181
2953.0 0.0003386 2849.07935 2932.76709
2909.0 0.0003438 2848.89526 2930.28540
2932.0 0.0003411 2848.71167 2927.90381
2975.0 0.0003361 2848.52832 2925.61401
2984.0 0.0003351 2848.34497 2923.41138
3124.0 0.0003201 2848.16187 2921.29175
2908.0 0.0003439 2847.97876 2919.25073
3016.0 0.0003316 2847.79565 2917.28369
2936.0 0.0003406 2847.61328 2915.38672
2873.0 0.0003481 2847.43042 2913.55713
2838.0 0.000352 2847.24805 2911.79199
2829.0 0.000353 2847.06543 2910.08618
2966.0 0.0003372 2846.88354 2908.43896
2973.0 0.0003364 2846.70142 2906.84790
2937.0 0.0003405 2846.51929 2905.30859
2870.0 0.0003484 2846.33740 2903.81958
2844.0 0.000352 2846.15601 2902.38037
2915.0 0.0003431 2845.97437 2900.98755
2878.0 0.0003475 2845.79272 2899.63916
2821.0 0.000354 2845.61182 2898.33545
2887.0 0.0003464 2845.43042 2897.07275
2981.0 0.0003355 2845.24927 2895.85059
2849.0 0.000351 2845.06860 2894.66895
2917.0 0.0003428 2844.88794 2893.52466
2895.0 0.0003454 2844.70752 2892.41992
2832.0 0.000353 2844.52686 2891.35156
2792.0 0.000358 2844.34668 2890.32031
2912.0 0.0003434 2844.16675 2889.32617
2771.0 0.000361 2843.98657 2888.36841
2890.0 0.0003460 2843.80664 2887.44824
2857.0 0.0003500 2843.62695 2886.56641
2913.0 0.0003433 2843.44727 2885.72339
2890.0 0.0003460 2843.26782 2884.92163
2935.0 0.0003407 2843.08862 2884.16479
2857.0 0.0003500 2842.90942 2883.45679
2819.0 0.000355 2842.73022 2882.80444
2937.0 0.0003405 2842.55151 2867.69824
2782.0 0.000359 2842.37280 2867.45239
2863.0 0.0003493 2842.19409 2867.31689
2851.0 0.000351 2842.01563 2867.33765
2865.0 0.0003490 2841.83716 2867.58228
2740.0 0.000365 2841.65894 2868.14087
2851.0 0.000351 2841.48096 2861.63135
2991.0 0.0003343 2841.30298 2856.06299
2852.0 0.0003506 2841.12549 2858.57837
2804.0 0.000357 2840.94775 2861.92261
2765.0 0.000362 2840.77026 2866.17090
2929.0 0.0003414 2840.59302 2871.31836
2827.0 0.000354 2840.41577 2877.24731
2854.0 0.0003504 2840.23877 2879.93774
2944.0 0.0003397 2840.06177 2886.44409
2853.0 0.0003505 2839.88501 2892.25122
2840.0 0.000352 2839.70825 2896.51904
2796.0 0.000358 2839.53198 2898.59521
2867.0 0.0003488 2839.35571 2898.40161
2897.0 0.0003452 2839.17944 2896.46167
2911.0 0.0003435 2839.00317 2893.54443
2800.0 0.000357 2838.82715 2890.26953
2861.0 0.0003495 2838.65186 2886.91406
2872.0 0.0003482 2838.47583 2883.43091
2907.0 0.0003440 2838.30054 2879.60229
2791.0 0.000358 2838.12524 2875.27490
2801.0 0.000357 2837.95020 2870.52979
2828.0 0.000354 2837.77490 2865.64697
2895.0 0.0003454 2837.60010 2860.94092
2778.0 0.000360 2837.42529 2856.63379
2889.0 0.0003461 2837.25073 2852.84961
2857.0 0.0003500 2837.07642 2849.63989
2817.0 0.000355 2836.90186 2846.99243
2860.0 0.0003497 2836.72778 2844.86304
2886.0 0.0003465 2836.55396 2843.15308
2794.0 0.000358 2836.37988 2841.83765
2852.0 0.0003506 2836.20630 2840.81128
2853.0 0.0003505 2836.03247 2839.80469
2855.0 0.0003503 2835.85913 2839.15356
2766.0 0.000362 2835.68579 2838.61230
2852.0 0.0003506 2835.51270 2838.14771
2896.0 0.0003453 2835.33984 2837.72412
2824.0 0.000354 2835.16675 2837.35352
2834.0 0.000353 2834.99414 2837.01123
2867.0 0.0003488 2834.82153 2836.56055
2789.0 0.000359 2834.64917 2836.29639
2807.0 0.000356 2834.47681 2836.07227
2828.0 0.000354 2834.30469 2835.80176
2885.0 0.0003466 2834.13281 2835.54199
2765.0 0.000362 2833.96094 2835.29199
2821.0 0.000354 2833.78931 2835.05005
2858.0 0.0003499 2833.61768 2834.81470
2800.0 0.000357 2833.44629 2834.58594
2805.0 0.000357 2833.27539 2834.36279
2890.0 0.0003460 2833.10425 2834.17456
2781.0 0.000360 2832.93311 2833.96143
2805.0 0.000357 2832.76245 2833.75195
2761.0 0.000362 2832.59180 2833.54614
2757.0 0.000363 2832.42114 2833.34375
2806.0 0.000356 2832.25098 2833.14478
2785.0 0.000359 2832.08057 2832.94824
2734.0 0.000366 2831.91064 2832.75439
2859.0 0.0003498 2831.74072 2832.56226
2774.0 0.000360 2831.57129 2832.37231
2812.0 0.000356 2831.40161 2832.18457
2719.0 0.000368 2831.23218 2831.99854
2740.0 0.000365 2831.06274 2831.81445
2811.0 0.000356 2830.89380 2831.63184
2846.0 0.000351 2830.72461 2831.45044
2711.0 0.000369 2830.55591 2831.27075
2784.0 0.000359 2830.38696 2831.09253
2767.0 0.000361 2830.21875 2830.91479
2681.0 0.000373 2830.05005 2830.73877
2845.0 0.000351 2829.88184 2830.56396
2847.0 0.000351 2829.71387 2830.39014
2812.0 0.000356 2829.54590 2830.21753
2848.0 0.000351 2829.37842 2830.04565
2841.0 0.000352 2829.21069 2829.87476
2800.0 0.000357 2829.04321 2829.70532
2897.0 0.0003452 2828.87598 2829.53613
2730.0 0.000366 2828.70850 2829.36792
2782.0 0.000359 2828.54150 2829.20068
2760.0 0.000362 2828.37476 2829.03467
2745.0 0.000364 2828.20801 2828.86938
2830.0 0.000353 2828.04150 2828.70483
2846.0 0.000351 2827.87524 2828.54077
2800.0 0.000357 2827.70898 2828.37769
2741.0 0.000365 2827.54272 2828.21558
2789.0 0.000359 2827.37695 2828.05396
2863.0 0.0003493 2827.21118 2827.89380
2768.0 0.000361 2827.04565 2827.73438
2742.0 0.000365 2826.88013 2827.57520
2716.0 0.000368 2826.71460 2827.41724
2688.0 0.000372 2826.54956 2827.26050
2844.0 0.000352 2826.38452 2827.10376
2724.0 0.000367 2826.21973 2826.94897
2693.0 0.000371 2826.05493 2826.79395
2769.0 0.000361 2825.89038 2826.64038
2711.0 0.000369 2825.72607 2826.48804
2891.0 0.0003459 2825.56177 2826.33643
2799.0 0.000357 2825.39771 2826.18652
2819.0 0.000355 2825.23364 2826.03687
2797.0 0.000358 2825.07007 2825.88867
2918.0 0.0003427 2824.90649 2825.74146
2816.0 0.000355 2824.74292 2825.59521
2805.0 0.000357 2824.57983 2825.45093
2807.0 0.000356 2824.41650 2825.30737
2675.0 0.000374 2824.25342 2825.16528
2840.0 0.000352 2824.09058 2825.02441
2823.0 0.000354 2823.92822 2824.88525
2742.0 0.000365 2823.76563 2824.74805
2819.0 0.000355 2823.60327 2824.61206
2817.0 0.000355 2823.44092 2824.47803
2781.0 0.000360 2823.27881 2824.34619
2833.0 0.000353 2823.11694 2824.21606
2771.0 0.000361 2822.95532 2824.08862
2764.0 0.000362 2822.79370 2823.96313
2786.0 0.000359 2822.63232 2823.84033
2790.0 0.000358 2822.47119 2823.72046
2861.0 0.0003495 2822.31006 2823.60327
2806.0 0.000356 2822.14893 2823.48950
2809.0 0.000356 2821.98828 2823.37939
2769.0 0.000361 2821.82764 2823.27319
2839.0 0.000352 2821.66699 2823.17114
2809.0 0.000356 2821.50684 2823.07446
2797.0 0.000358 2821.34668 2822.98315
2901.0 0.0003447 2821.18677 2822.89795
2769.0 0.000361 2821.02686 2822.82080
2819.0 0.000355 2820.86743 2822.75269
2777.0 0.000360 2820.70776 2822.69653
2718.0 0.000368 2820.54834 2822.65576
2778.0 0.000360 2820.38916 2822.82227
2747.0 0.000364 2820.23022 2822.83228
2862.0 0.0003494 2820.07153 2822.88013
2697.0 0.000371 2819.91260 2822.97656
2697.0 0.000371 2819.75415 2823.13525
2702.0 0.000370 2819.59570 2823.36914
2811.0 0.000356 2819.43750 2823.69116
2754.0 0.000363 2819.27930 2824.10889
2833.0 0.000353 2819.12158 2824.71680
2808.0 0.000356 2818.96387 2825.32129
2920.0 0.0003425 2818.80615 2825.99341
2751.0 0.000364 2818.64868 2826.69434
2817.0 0.000355 2818.49170 2827.36646
2835.0 0.000353 2818.33447 2827.93701
2928.0 0.0003415 2818.17749 2828.33984
2857.0 0.0003500 2818.02100 2828.54858
2710.0 0.000369 2817.86426 2828.59229
2804.0 0.000357 2817.70776 2828.54297
2860.0 0.0003497 2817.55127 2828.43433
2803.0 0.000357 2817.39526 2828.39868
2758.0 0.000363 2817.23926 2828.42432
2771.0 0.000361 2817.08374 2828.52075
2833.0 0.000353 2816.92822 2828.69800
2883.0 0.0003469 2816.77246 2828.99268
2865.0 0.0003490 2816.61719 2829.48438
2767.0 0.000361 2816.46191 2830.28271
2827.0 0.000354 2816.30713 2831.58765
2786.0 0.000359 2816.15234 2833.57642
2796.0 0.000358 2815.99756 2836.46729
2713.0 0.000369 2815.84326 2840.48877
2789.0 0.000359 2815.68872 2845.86450
2805.0 0.000357 2815.53467 2852.76538
2757.0 0.000363 2815.38062 2861.27441
2803.0 0.000357 2815.22681 2871.35742
2745.0 0.000364 2815.07324 2882.80591
2868.0 0.0003487 2814.91992 2895.16968
2805.0 0.000357 2814.76636 2907.74097
2876.0 0.0003477 2814.61304 2919.53271
2895.0 0.0003454 2814.46021 2929.48218
2906.0 0.0003441 2814.30762 2936.95654
2957.0 0.0003382 2814.15479 2942.11499
2844.0 0.000352 2814.00220 2945.83105
2878.0 0.0003475 2813.84985 2949.10376
2931.0 0.0003412 2813.69775 2952.51733
2914.0 0.0003432 2813.54565 2955.97803
2869.0 0.0003486 2813.39404 2958.67993
2941.0 0.0003400 2813.24243 2959.35400
2893.0 0.0003457 2813.09082 2956.84399
2911.0 0.0003435 2812.93945 2950.78516
2983.0 0.0003352 2812.78833 2941.85742
2912.0 0.0003434 2812.63745 2931.32935
2867.0 0.0003488 2812.48633 2920.43750
2851.0 0.000351 2812.33569 2910.01807
2796.0 0.000358 2812.18530 2900.37744
2907.0 0.0003440 2812.03516 2891.42236
2803.0 0.000357 2811.88477 2882.86328
2790.0 0.000358 2811.73511 2874.45532
2868.0 0.0003487 2811.58496 2866.21118
2770.0 0.000361 2811.43555 2858.32300
2775.0 0.000360 2811.28589 2851.03467
2858.0 0.0003499 2811.13672 2844.51709
2741.0 0.000365 2810.98755 2838.83960
2777.0 0.000360 2810.83862 2834.01294
2816.0 0.000355 2810.68970 2829.99780
2757.0 0.000363 2810.54102 2826.71924
2784.0 0.000359 2810.39233 2824.08496
2747.0 0.000364 2810.24438 2821.99438
2776.0 0.000360 2810.09619 2820.34302
2862.0 0.0003494 2809.94824 2819.03394
2777.0 0.000360 2809.80054 2817.98779
2693.0 0.000371 2809.65283 2817.13403
2705.0 0.000370 2809.50537 2816.42407
2784.0 0.000359 2809.35815 2815.81738
2655.0 0.000377 2809.21094 2815.28979
2746.0 0.000364 2809.06396 2814.82202
2776.0 0.000360 2808.91724 2814.40161
2884.0 0.0003467 2808.77051 2814.01929
2832.0 0.000353 2808.62402 2813.66943
2692.0 0.000371 2808.47803 2813.34814
2745.0 0.000364 2808.33179 2813.05127
2730.0 0.000366 2808.18579 2812.77588
2792.0 0.000358 2808.04004 2812.52124
2749.0 0.000364 2807.89478 2812.28491
2807.0 0.000356 2807.74927 2812.06494
2788.0 0.000359 2807.60400 2811.86133
2824.0 0.000354 2807.45898 2811.67261
2713.0 0.000369 2807.31396 2811.49756
2850.0 0.000351 2807.16919 2811.33667
2799.0 0.000357 2807.02490 2811.18945
2722.0 0.000367 2806.88062 2811.05493
2822.0 0.000354 2806.73633 2810.93384
2636.0 0.000379 2806.59229 2810.82568
2738.0 0.000365 2806.44849 2810.73047
2656.0 0.000377 2806.30469 2810.64990
2836.0 0.000353 2806.16138 2810.58252
2822.0 0.000354 2806.01807 2810.53076
2698.0 0.000371 2805.87476 2810.49438
2839.0 0.000352 2805.73193 2810.47437
2727.0 0.000367 2805.58911 2810.47192
2611.0 0.000383 2805.44629 2810.48901
2707.0 0.000369 2805.30396 2810.52637
2834.0 0.000353 2805.16162 2810.58691
2707.0 0.000369 2805.01953 2810.67285
2672.0 0.000374 2804.87769 2810.78662
2834.0 0.000353 2804.73584 2810.93091
2671.0 0.000374 2804.59448 2811.11060
2778.0 0.000360 2804.45288 2811.32886
2613.0 0.000383 2804.31177 2811.59253
2789.0 0.000359 2804.17065 2811.90747
2775.0 0.000360 2804.02979 2812.28149
2702.0 0.000370 2803.88916 2812.72632
2807.0 0.000356 2803.74854 2813.25513
2791.0 0.000358 2803.60815 2813.88940
2781.0 0.000360 2803.46802 2814.65869
2788.0 0.000359 2803.32813 2815.60718
2841.0 0.000352 2803.18799 2816.80420
2815.0 0.000355 2803.04858 2818.35181
2729.0 0.000366 2802.90894 2820.40283
2749.0 0.000364 2802.76978 2823.17017
2854.0 0.0003504 2802.63086 2826.94067
2700.0 0.000370 2802.49170 2832.08398
2792.0 0.000358 2802.35303 2839.03467
2747.0 0.000364 2802.21436 2848.25903
2741.0 0.000365 2802.07617 2860.22095
2803.0 0.000357 2801.93750 2875.27734
2771.0 0.000361 2801.79980 2893.59546
2763.0 0.000362 2801.66187 2915.07861
2755.0 0.000363 2801.52393 2939.24365
2824.0 0.000354 2801.38647 2965.06787
2865.0 0.0003490 2801.24927 2990.96289
2985.0 0.0003350 2801.11206 3014.64160
3143.0 0.0003182 2800.97510 3033.34106
3176.0 0.0003149 2800.83838 3044.69434
3151.0 0.0003174 2800.70190 3047.75610
2977.0 0.0003359 2800.56519 3043.56763
2911.0 0.0003435 2800.42896 3034.48291
2885.0 0.0003466 2800.29272 3022.97046
2912.0 0.0003434 2800.15698 3010.71997
2887.0 0.0003464 2800.02124 2998.38989
2975.0 0.0003361 2799.88574 2985.70752
2914.0 0.0003432 2799.75049 2971.88965
2976.0 0.0003360 2799.61499 2956.32935
2893.0 0.0003457 2799.48022 2939.14502
2879.0 0.0003473 2799.34546 2921.10547
2760.0 0.000362 2799.21069 2903.23242
2772.0 0.000361 2799.07642 2886.41772
2760.0 0.000362 2798.94214 2871.21143
2821.0 0.000354 2798.80786 2858.35352
2793.0 0.000358 2798.67407 2847.10449
2657.0 0.000376 2798.54004 2837.82666
2762.0 0.000362 2798.40674 2830.38867
2869.0 0.0003486 2798.27344 2824.50391
2722.0 0.000367 2798.14014 2819.93799
2689.0 0.000372 2798.00684 2816.42725
2734.0 0.000366 2797.87427 2813.72266
2671.0 0.000374 2797.74146 2811.62427
2804.0 0.000357 2797.60913 2810.17236
2691.0 0.000372 2797.47681 2808.83276
2650.0 0.000377 2797.34473 2807.73047
2691.0 0.000372 2797.21289 2806.78174
2675.0 0.000374 2797.08105 2805.95459
2697.0 0.000371 2796.94922 2805.22144
2789.0 0.000359 2796.81812 2804.56299
2793.0 0.000358 2796.68677 2803.96436
2782.0 0.000359 2796.55591 2803.41748
2643.0 0.000378 2796.42505 2802.91333
2725.0 0.000367 2796.29443 2802.44702
2736.0 0.000365 2796.16406 2802.01416
2765.0 0.000362 2796.03369 2801.60962
2794.0 0.000358 2795.90356 2801.23071
2750.0 0.000364 2795.77368 2800.80493
2701.0 0.000370 2795.64404 2800.47070
2811.0 0.000356 2795.51440 2800.15430
2686.0 0.000372 2795.38501 2799.85498
2859.0 0.0003498 2795.25586 2799.57007
2773.0 0.000361 2795.12671 2799.29858
2673.0 0.000374 2794.99805 2799.03979
2773.0 0.000361 2794.86938 2798.79224
2772.0 0.000361 2794.74097 2798.51978
2779.0 0.000360 2794.61279 2798.23218
2705.0 0.000370 2794.48462 2798.01440
2731.0 0.000366 2794.35669 2797.80444
2810.0 0.000356 2794.22900 2797.60181
2721.0 0.000368 2794.10156 2797.40601
2775.0 0.000360 2793.97412 2797.21680
2768.0 0.000361 2793.84717 2797.03369
2751.0 0.000364 2793.71997 2796.85571
2773.0 0.000361 2793.59326 2796.65405
2711.0 0.000369 2793.46704 2796.48730
2740.0 0.000365 2793.34033 2796.32495
2780.0 0.000360 2793.21411 2796.16772
2847.0 0.000351 2793.08813 2796.01489
2751.0 0.000364 2792.96240 2795.86597
2782.0 0.000359 2792.83667 2795.72144
2698.0 0.000371 2792.71118 2795.58032
2817.0 0.000355 2792.58594 2795.44263
2772.0 0.000361 2792.46094 2795.30884
2779.0 0.000360 2792.33594 2795.17920
2830.0 0.000353 2792.21143 2795.05273
2855.0 0.0003503 2792.08691 2794.92969
2757.0 0.000363 2791.96240 2794.80981
2752.0 0.000363 2791.83838 2794.69385
2768.0 0.000361 2791.71436 2794.58008
2711.0 0.000369 2791.59058 2794.47046
2756.0 0.000363 2791.46704 2794.36426
2822.0 0.000354 2791.34375 2794.26147
2833.0 0.000353 2791.22046 2794.16162
2688.0 0.000372 2791.09741 2794.06543
2764.0 0.000362 2790.97461 2793.97290
2852.0 0.0003506 2790.85181 2793.88330
2810.0 0.000356 2790.72949 2793.79761
2733.0 0.000366 2790.60718 2793.71533
2740.0 0.000365 2790.48511 2793.63745
2850.0 0.000351 2790.36328 2793.56323
2697.0 0.000371 2790.24146 2793.49292
2786.0 0.000359 2790.12012 2793.42700
2730.0 0.000366 2789.99878 2793.36523
2759.0 0.000362 2789.87769 2793.30811
2802.0 0.000357 2789.75684 2793.25562
2823.0 0.000354 2789.63599 2793.20825
2616.0 0.000382 2789.51563 2793.16602
2801.0 0.000357 2789.39502 2793.12891
2685.0 0.000372 2789.27490 2793.09766
2785.0 0.000359 2789.15503 2793.07275
2755.0 0.000363 2789.03516 2794.28369
2704.0 0.000370 2788.91553 2794.28784
2750.0 0.000364 2788.79614 2794.29980
2680.0 0.000373 2788.67700 2794.31958
2851.0 0.000351 2788.55786 2794.34912
2734.0 0.000366 2788.43921 2794.38672
2662.0 0.000376 2788.32031 2794.43408
2718.0 0.000368 2788.20190 2794.49243
2779.0 0.000360 2788.08374 2797.70825
2740.0 0.000365 2787.96558 2798.44971
2772.0 0.000361 2787.84766 2798.60107
2687.0 0.000372 2787.73022 2798.76831
2966.0 0.0003372 2787.61255 2798.95142
2751.0 0.000364 2787.49536 2799.15234
2834.0 0.000353 2787.37817 2799.37305
2819.0 0.000355 2787.26123 2799.61475
2760.0 0.000362 2787.14453 2799.87915
2859.0 0.0003498 2787.02808 2801.73730
2784.0 0.000359 2786.91187 2802.07715
2731.0 0.000366 2786.79565 2802.44873
2884.0 0.0003467 2786.67969 2802.85278
2827.0 0.000354 2786.56396 2803.29395
2796.0 0.000358 2786.44849 2803.77563
2708.0 0.000369 2786.33301 2804.30298
2815.0 0.000355 2786.21777 2804.88013
2719.0 0.000368 2786.10303 2805.51294
2787.0 0.000359 2785.98828 2806.20776
2828.0 0.000354 2785.87354 2806.97388
2730.0 0.000366 2785.75928 2807.81958
2812.0 0.000356 2785.64478 2808.75537
2789.0 0.000359 2785.53101 2809.79468
2749.0 0.000364 2785.41724 2810.95410
2700.0 0.000370 2785.30347 2812.25488
2783.0 0.000359 2785.19019 2813.72388
2801.0 0.000357 2785.07690 2815.40210
2730.0 0.000366 2784.96387 2817.34521
2765.0 0.000362 2784.85107 2819.63721
2784.0 0.000359 2784.73853 2822.40405
2836.0 0.000353 2784.62598 2825.83374
2826.0 0.000354 2784.51367 2830.19238
2841.0 0.000352 2784.40161 2835.67261
2799.0 0.000357 2784.28979 2843.16406
2838.0 0.000352 2784.17822 2853.11694
2864.0 0.0003492 2784.06665 2866.31787
2902.0 0.0003446 2783.95532 2883.64331
2777.0 0.000360 2783.84448 2905.95190
2837.0 0.000352 2783.73340 2934.04224
2963.0 0.0003375 2783.62280 2968.40771
2972.0 0.0003365 2783.51221 3009.09033
2929.0 0.0003414 2783.40210 3055.77832
2927.0 0.0003416 2783.29199 3107.09595
3072.0 0.0003255 2783.18213 3160.87109
3160.0 0.0003165 2783.07251 3213.70215
3466.0 0.0002885 2782.96313 3261.04565
3662.0 0.0002731 2782.85376 3297.90015
3543.0 0.0002822 2782.74463 3320.21729
3566.0 0.0002804 2782.63574 3326.69751
3280.0 0.0003049 2782.52710 3319.41113
3147.0 0.0003178 2782.41846 3302.51611
3057.0 0.0003271 2782.31006 3280.42993
3098.0 0.0003228 2782.20215 3256.39136
3183.0 0.0003142 2782.09424 3231.99683
3244.0 0.0003083 2781.98657 3207.13477
3347.0 0.0002988 2781.87891 3180.61426
3361.0 0.0002975 2781.77173 3151.15063
3130.0 0.0003195 2781.66455 3118.35327
3020.0 0.0003311 2781.55762 3083.13916
2979.0 0.0003357 2781.45093 3047.20117
2938.0 0.0003404 2781.34448 3012.24683
2868.0 0.0003487 2781.23828 2979.64063
2802.0 0.000357 2781.13208 2950.33154
2769.0 0.000361 2781.02612 2924.78003
2888.0 0.0003463 2780.92041 2903.13818
2903.0 0.0003445 2780.81519 2885.32349
2828.0 0.000354 2780.70972 2871.01587
2804.0 0.000357 2780.60449 2859.80591
2832.0 0.000353 2780.49976 2851.19995
2863.0 0.0003493 2780.39502 2844.71558
2743.0 0.000365 2780.29053 2839.90186
2807.0 0.000356 2780.18628 2836.36328
2848.0 0.000351 2780.08203 2833.78442
2789.0 0.000359 2779.97827 2831.92236
2771.0 0.000361 2779.87451 2830.59253
2859.0 0.0003498 2779.77100 2829.66821
2839.0 0.000352 2779.66772 2829.05957
2841.0 0.000352 2779.56470 2828.70654
2943.0 0.0003398 2779.46167 2828.56860
2711.0 0.000369 2779.35913 2828.61914
2749.0 0.000364 2779.25659 2828.83911
2871.0 0.0003483 2779.15430 2829.21826
2779.0 0.000360 2779.05200 2829.74683
2938.0 0.0003404 2778.95044 2830.42163
2888.0 0.0003463 2778.84863 2831.23877
2927.0 0.0003416 2778.74731 2832.19922
2799.0 0.000357 2778.64575 2833.30322
2893.0 0.0003457 2778.54492 2834.55322
2814.0 0.000355 2778.44409 2835.95313
2877.0 0.0003476 2778.34326 2837.50977
2946.0 0.0003394 2778.24268 2839.22900
2887.0 0.0003464 2778.14258 2841.11938
2878.0 0.0003475 2778.04248 2843.19385
2916.0 0.0003429 2777.94263 2845.46021
2901.0 0.0003447 2777.84302 2847.93579
2864.0 0.0003492 2777.74341 2850.63696
2973.0 0.0003364 2777.64429 2853.59888
2987.0 0.0003348 2777.54517 2856.80835
2860.0 0.0003497 2777.44653 2860.30542
2899.0 0.0003449 2777.34790 2864.12207
2998.0 0.0003336 2777.24951 2868.28906
2975.0 0.0003361 2777.15112 2872.84106
2908.0 0.0003439 2777.05322 2877.96338
2868.0 0.0003487 2776.95532 2883.43042
2967.0 0.0003370 2776.85791 2889.43311
3013.0 0.0003319 2776.76050 2896.04126
3018.0 0.0003313 2776.66309 2903.34961
2996.0 0.0003338 2776.56641 2911.42529
3011.0 0.0003321 2776.46948 2920.40356
2936.0 0.0003406 2776.37280 2930.44165
3053.0 0.0003275 2776.27637 2941.72607
3120.0 0.0003205 2776.18018 2954.61572
3018.0 0.0003313 2776.08447 2969.37598
3122.0 0.0003203 2775.98853 2986.63745
3148.0 0.0003177 2775.89307 3007.27686
3248.0 0.0003079 2775.79761 3032.52783
3257.0 0.0003070 2775.70264 3064.22070
3275.0 0.0003053 2775.60767 3104.86304
3291.0 0.0003039 2775.51294 3157.80054
3401.0 0.0002940 2775.41846 3227.40503
3392.0 0.0002948 2775.32397 3318.86987
3413.0 0.0002930 2775.22998 3438.01880
3673.0 0.0002723 2775.13623 3591.01807
3657.0 0.0002734 2775.04224 3783.54565
3822.0 0.0002616 2774.94897 4019.69263
3909.0 0.0002558 2774.85571 4301.21484
4210.0 0.0002375 2774.76270 4626.75293
4637.0 0.0002157 2774.66968 4989.83594
5312.0 0.0001883 2774.57690 5379.26709
6303.0 0.0001587 2774.48462 5776.30176
7394.0 0.0001352 2774.39233 6155.60400
8430.0 0.0001186 2774.30029 6485.95410
8511.0 0.0001175 2774.20850 6738.49951
7701.0 0.0001299 2774.11694 6898.11914
6620.0 0.0001511 2774.02563 6972.06982
5830.0 0.0001715 2773.93433 6986.36670
5429.0 0.0001842 2773.84351 6973.53760
5264.0 0.0001900 2773.75244 6959.79199
5543.0 0.0001804 2773.66211 6958.30518
6159.0 0.0001624 2773.57178 6967.26123
6728.0 0.0001486 2773.48145 6971.17627
7068.0 0.0001415 2773.39160 6945.60010
6965.0 0.0001436 2773.30200 6865.84717
6911.0 0.0001447 2773.21240 6717.00537
6660.0 0.0001502 2773.12305 6500.47119
6357.0 0.0001573 2773.03394 6232.91211
5626.0 0.0001777 2772.94507 5938.96436
5020.0 0.0001992 2772.85620 5642.22803
4495.0 0.0002225 2772.76782 5360.64307
4264.0 0.0002345 2772.67969 5104.10938
4177.0 0.0002394 2772.59155 4874.43408
4216.0 0.0002372 2772.50366 4667.71729
4314.0 0.0002318 2772.41602 4476.87012
4419.0 0.0002263 2772.32861 4295.28857
4449.0 0.0002248 2772.24146 4120.10547
4273.0 0.0002340 2772.15454 3952.54883
4097.0 0.0002441 2772.06763 3795.36890
3691.0 0.0002709 2771.98096 3651.35425
3530.0 0.0002833 2771.89478 3522.47046
3309.0 0.0003022 2771.80859 3409.29175
3244.0 0.0003083 2771.72266 3311.84570
3188.0 0.0003137 2771.63696 3229.35376
3189.0 0.0003136 2771.55127 3160.72729
3098.0 0.0003228 2771.46631 3104.51660
3187.0 0.0003138 2771.38110 3058.98901
3085.0 0.0003241 2771.29614 3022.42822
3053.0 0.0003275 2771.21143 2993.16235
3061.0 0.0003267 2771.12695 2969.64355
3039.0 0.0003291 2771.04272 2950.56665
2985.0 0.0003350 2770.95874 2934.89453
2951.0 0.0003389 2770.87500 2921.78003
2898.0 0.0003451 2770.79150 2910.60522
2964.0 0.0003374 2770.70801 2900.92627
2916.0 0.0003429 2770.62476 2892.40479
2903.0 0.0003445 2770.54175 2884.81909
2951.0 0.0003389 2770.45898 2877.99316
2932.0 0.0003411 2770.37646 2871.80884
2786.0 0.000359 2770.29419 2866.17798
2934.0 0.0003408 2770.21191 2861.02319
2849.0 0.000351 2770.13013 2855.88013
2872.0 0.0003482 2770.04858 2851.52905
2788.0 0.000359 2769.96704 2847.48584
2843.0 0.000352 2769.88574 2843.76709
2899.0 0.0003449 2769.80493 2840.32080
2870.0 0.0003484 2769.72388 2837.11816
2767.0 0.000361 2769.64331 2834.13574
2869.0 0.0003486 2769.56299 2831.35669
2764.0 0.000362 2769.48267 2828.76196
2772.0 0.000361 2769.40259 2826.12964
2695.0 0.000371 2769.32300 2823.86035
2790.0 0.000358 2769.24316 2821.71875
2760.0 0.000362 2769.16406 2819.72168
2806.0 0.000356 2769.08472 2817.84399
2803.0 0.000357 2769.00610 2816.07739
2859.0 0.0003498 2768.92725 2814.41528
2774.0 0.000360 2768.84888 2812.84814
2902.0 0.0003446 2768.77075 2811.37061
2738.0 0.000365 2768.69263 2809.97632
2776.0 0.000360 2768.61475 2808.66016
2712.0 0.000369 2768.53711 2807.41675
2807.0 0.000356 2768.45996 2806.24219
2746.0 0.000364 2768.38257 2805.13257
2849.0 0.000351 2768.30566 2804.08325
2832.0 0.000353 2768.22900 2803.09326
2805.0 0.000357 2768.15234 2802.15698
2774.0 0.000360 2768.07617 2801.27344
2769.0 0.000361 2768.00000 2800.44043
2788.0 0.000359 2767.92407 2799.65503
2861.0 0.0003495 2767.84839 2798.93799
2765.0 0.000362 2767.77319 2798.24316
2790.0 0.000358 2767.69775 2797.59204
2820.0 0.000355 2767.62305 2796.98291
2723.0 0.000367 2767.54810 2796.41479
2773.0 0.000361 2767.47363 2795.88696
2710.0 0.000369 2767.39917 2795.39966
2751.0 0.000364 2767.32495 2794.95166
2760.0 0.000362 2767.25122 2794.54370
2780.0 0.000360 2767.17749 2794.17676
2853.0 0.0003505 2767.10376 2793.86108
2863.0 0.0003493 2767.03052 2793.66504
2799.0 0.000357 2766.95776 2793.42432
2709.0 0.000369 2766.88477 2793.22852
2760.0 0.000362 2766.81226 2793.07983
2777.0 0.000360 2766.73975 2792.98047
2755.0 0.000363 2766.66772 2792.93408
2828.0 0.000354 2766.59570 2792.94531
2813.0 0.000355 2766.52393 2793.02124
2781.0 0.000360 2766.45239 2793.16895
2807.0 0.000356 2766.38110 2793.39893
2717.0 0.000368 2766.31006 2793.77246
2777.0 0.000360 2766.23901 2794.22290
2883.0 0.0003469 2766.16846 2794.82349
2801.0 0.000357 2766.09814 2795.61646
2822.0 0.000354 2766.02808 2796.66284
2763.0 0.000362 2765.95801 2798.03979
2779.0 0.000360 2765.88843 2799.85376
2774.0 0.000360 2765.81885 2802.23877
2725.0 0.000367 2765.74951 2805.36475
2814.0 0.000355 2765.68042 2809.43286
2867.0 0.0003488 2765.61157 2814.66772
2891.0 0.0003459 2765.54272 2821.32129
2802.0 0.000357 2765.47437 2829.63525
2809.0 0.000356 2765.40601 2839.81226
2800.0 0.000357 2765.33813 2851.99731
2821.0 0.000354 2765.27026 2866.21240
2835.0 0.000353 2765.20288 2882.29028
2799.0 0.000357 2765.13550 2899.90283
2887.0 0.0003464 2765.06836 2918.52905
2905.0 0.0003442 2765.00146 2937.45752
2919.0 0.0003426 2764.93481 2955.85522
2888.0 0.0003463 2764.86841 2972.63208
2980.0 0.0003356 2764.80200 2986.50977
3089.0 0.0003237 2764.73608 2996.18750
3126.0 0.0003199 2764.67041 3000.83301
3167.0 0.0003158 2764.60498 3000.50488
3017.0 0.0003315 2764.53931 2996.14917
2990.0 0.0003344 2764.47437 2989.19092
2896.0 0.0003453 2764.40942 2981.00806
2931.0 0.0003412 2764.34473 2972.65430
2886.0 0.0003465 2764.28052 2964.74585
2911.0 0.0003435 2764.21606 2957.46436
3029.0 0.0003301 2764.15210 2950.69165
3052.0 0.0003277 2764.08838 2944.24487
3034.0 0.0003296 2764.02466 2938.16138
3019.0 0.0003312 2763.96118 2932.88623
2843.0 0.000352 2763.89819 2929.20166
2874.0 0.0003479 2763.83545 2927.96826
2953.0 0.0003386 2763.77271 2929.92017
2919.0 0.0003426 2763.71021 2935.55176
2884.0 0.0003467 2763.64819 2945.07202
2994.0 0.0003340 2763.58594 2958.38135
3047.0 0.0003282 2763.52417 2975.06299
3026.0 0.0003305 2763.46265 2994.30249
3111.0 0.0003214 2763.40161 3014.90161
3023.0 0.0003308 2763.34033 3035.45825
3107.0 0.0003219 2763.27930 3054.70239
3052.0 0.0003277 2763.21875 3071.92871
2987.0 0.0003348 2763.15845 3087.23633
2896.0 0.0003453 2763.09814 3101.15308
2935.0 0.0003407 2763.03809 3114.05591
3018.0 0.0003313 2762.97852 3125.72437
3071.0 0.0003256 2762.91895 3135.10254
3157.0 0.0003168 2762.85962 3140.54077
3408.0 0.0002934 2762.80054 3140.33960
3396.0 0.0002945 2762.74170 3133.53540
3238.0 0.0003088 2762.68286 3120.38159
3158.0 0.0003167 2762.62451 3102.28174
3035.0 0.0003295 2762.56641 3081.22070
2927.0 0.0003416 2762.50854 3059.06274
2838.0 0.000352 2762.45068 3037.13623
2945.0 0.0003396 2762.39331 3016.09180
2903.0 0.0003445 2762.33594 2995.89209
2952.0 0.0003388 2762.27881 2976.11792
2913.0 0.0003433 2762.22217 2956.35938
2979.0 0.0003357 2762.16577 2933.12842
2921.0 0.0003423 2762.10913 2913.42896
2854.0 0.0003504 2762.05322 2894.41162
2857.0 0.0003500 2761.99731 2876.57080
2895.0 0.0003454 2761.94141 2860.29785
2867.0 0.0003488 2761.88574 2845.78711
2810.0 0.000356 2761.83081 2833.12061
2858.0 0.0003499 2761.77563 2822.27612
2780.0 0.000360 2761.72095 2813.14502
2845.0 0.000351 2761.66626 2803.91504
2719.0 0.000368 2761.61182 2797.76880
2802.0 0.000357 2761.55786 2792.81006
2787.0 0.000359 2761.50391 2788.83838
2705.0 0.000370 2761.45044 2785.66943
2746.0 0.000364 2761.39697 2783.12988
2796.0 0.000358 2761.34375 2781.07690
2740.0 0.000365 2761.29077 2779.39648
2817.0 0.000355 2761.23804 2777.99731
2767.0 0.000361 2761.18555 2776.81201
2754.0 0.000363 2761.13306 2775.78833
2783.0 0.000359 2761.08130 2774.89307
2780.0 0.000360 2761.02954 2774.10034
2840.0 0.000352 2760.97778 2773.39136
2910.0 0.0003436 2760.92651 2772.75098
2805.0 0.000357 2760.87524 2772.17334
2825.0 0.000354 2760.82446 2771.64771
2798.0 0.000357 2760.77368 2773.09399
2799.0 0.000357 2760.72314 2772.68457
2785.0 0.000359 2760.67310 2772.31470
2849.0 0.000351 2760.62305 2771.98071
2750.0 0.000364 2760.57300 2771.68042
2858.0 0.0003499 2760.52368 2775.25830
2725.0 0.000367 2760.47412 2775.06958
2705.0 0.000370 2760.42529 2774.91089
2944.0 0.0003397 2760.37622 2774.77905
2880.0 0.0003472 2760.32788 2774.67480
2838.0 0.000352 2760.27930 2775.55298
2742.0 0.000365 2760.23120 2775.51465
2814.0 0.000355 2760.18335 2775.50195
2947.0 0.0003393 2760.13550 2775.51636
2766.0 0.000362 2760.08813 2775.55737
2830.0 0.000353 2760.04102 2777.54028
2755.0 0.000363 2759.99390 2777.66748
2819.0 0.000355 2759.94702 2777.82813
2832.0 0.000353 2759.90039 2778.02637
2849.0 0.000351 2759.85400 2778.26929
2811.0 0.000356 2759.80786 2778.56348
2843.0 0.000352 2759.76245 2778.92188
2882.0 0.0003470 2759.71655 2779.36011
2795.0 0.000358 2759.67114 2779.89917
2828.0 0.000354 2759.62598 2780.56714
2796.0 0.000358 2759.58130 2781.39819
2798.0 0.000357 2759.53638 2782.43384
2829.0 0.000353 2759.49194 2783.72168
2852.0 0.0003506 2759.44751 2785.48584
2794.0 0.000358 2759.40381 2787.43164
2703.0 0.000370 2759.35986 2789.78149
2735.0 0.000366 2759.31641 2792.79736
2855.0 0.0003503 2759.27295 2796.07910
2833.0 0.000353 2759.22998 2799.86841
2913.0 0.0003433 2759.18701 2804.17529
2804.0 0.000357 2759.14429 2808.98340
2767.0 0.000361 2759.10205 2814.25879
2837.0 0.000352 2759.05981 2819.92749
2812.0 0.000356 2759.01807 2826.00879
2922.0 0.0003422 2758.97607 2832.28711
2964.0 0.0003374 2758.93506 2838.89478
2943.0 0.0003398 2758.89380 2846.09082
2895.0 0.0003454 2758.85278 2853.83496
2835.0 0.000353 2758.81177 2862.33643
2820.0 0.000355 2758.77124 2871.55859
2873.0 0.0003481 2758.73120 2881.23022
2901.0 0.0003447 2758.69092 2890.83789
2946.0 0.0003394 2758.65112 2899.62744
2868.0 0.0003487 2758.61157 2906.68140
3051.0 0.0003278 2758.57202 2911.12476
3024.0 0.0003307 2758.53296 2912.46265
3010.0 0.0003322 2758.49414 2910.77393
3057.0 0.0003271 2758.45557 2906.68726
2944.0 0.0003397 2758.41699 2901.08691
2886.0 0.0003465 2758.37891 2894.82715
2916.0 0.0003429 2758.34082 2888.51221
2816.0 0.000355 2758.30322 2882.46118
2945.0 0.0003396 2758.26563 2876.70068
2975.0 0.0003361 2758.22852 2871.02832
2970.0 0.0003367 2758.19165 2865.15112
2962.0 0.0003376 2758.15454 2858.83960
3011.0 0.0003321 2758.11816 2852.05127
2912.0 0.0003434 2758.08179 2844.95117
2892.0 0.0003458 2758.04565 2837.83032
2887.0 0.0003464 2758.00977 2830.96533
2869.0 0.0003486 2757.97437 2824.57861
2757.0 0.000363 2757.93872 2818.82764
2803.0 0.000357 2757.90381 2813.78906
2834.0 0.000353 2757.86890 2809.49976
2900.0 0.0003448 2757.83423 2805.94849
2844.0 0.000352 2757.79980 2803.09814
2854.0 0.0003504 2757.76538 2800.88599
2739.0 0.000365 2757.73169 2799.23608
2687.0 0.000372 2757.69775 2798.06470
2818.0 0.000355 2757.66431 2797.29102
2792.0 0.000358 2757.63110 2796.83887
2848.0 0.000351 2757.59814 2796.64551
2870.0 0.0003484 2757.56519 2796.65649
2789.0 0.000359 2757.53271 2796.81030
2864.0 0.0003492 2757.50024 2797.11328
2844.0 0.000352 2757.46826 2797.52441
2786.0 0.000359 2757.43652 2798.02661
2725.0 0.000367 2757.40479 2798.61108
2869.0 0.0003486 2757.37354 2799.13086
2792.0 0.000358 2757.34229 2799.85913
2839.0 0.000352 2757.31128 2800.65356
2799.0 0.000357 2757.28076 2801.51416
2952.0 0.0003388 2757.25049 2802.43091
2775.0 0.000360 2757.22021 2803.42358
2832.0 0.000353 2757.19019 2804.48340
2966.0 0.0003372 2757.16064 2805.61279
2802.0 0.000357 2757.13110 2806.81152
2862.0 0.0003494 2757.10156 2808.08472
2892.0 0.0003458 2757.07275 2809.36768
2774.0 0.000360 2757.04395 2810.79883
2940.0 0.0003401 2757.01563 2812.31470
2830.0 0.000353 2756.98706 2813.91895
2783.0 0.000359 2756.95923 2815.61572
2909.0 0.0003438 2756.93140 2817.41284
2835.0 0.000353 2756.90381 2819.31421
2946.0 0.0003394 2756.87646 2821.32764
2852.0 0.0003506 2756.84937 2823.45898
2863.0 0.0003493 2756.82251 2825.71704
2920.0 0.0003425 2756.79590 2828.11182
2975.0 0.0003361 2756.76953 2830.65210
2882.0 0.0003470 2756.74341 2833.34692
2950.0 0.0003390 2756.71753 2836.08032
2898.0 0.0003451 2756.69165 2839.12964
2888.0 0.0003463 2756.66650 2842.37207
2888.0 0.0003463 2756.64111 2845.86792
2964.0 0.0003374 2756.61646 2849.55591
2969.0 0.0003368 2756.59131 2853.53125
2863.0 0.0003493 2756.56714 2857.74121
2954.0 0.0003385 2756.54272 2862.24487
3046.0 0.0003283 2756.51880 2866.91089
3023.0 0.0003308 2756.49487 2872.03369
2932.0 0.0003411 2756.47144 2877.61206
2909.0 0.0003438 2756.44824 2883.62280
3054.0 0.0003274 2756.42529 2890.10889
3030.0 0.0003300 2756.40259 2897.17944
2919.0 0.0003426 2756.37988 2904.77563
2967.0 0.0003370 2756.35767 2913.02222
3011.0 0.0003321 2756.33569 2922.01196
3055.0 0.0003273 2756.31372 2931.71948
3010.0 0.0003322 2756.29199 2942.44312
3055.0 0.0003273 2756.27075 2954.21851
3089.0 0.0003237 2756.24951 2967.22119
3084.0 0.0003243 2756.22876 2981.67358
3061.0 0.0003267 2756.20801 2997.84131
3202.0 0.0003123 2756.18774 3016.13647
3203.0 0.0003122 2756.16772 3037.10034
3187.0 0.0003138 2756.14771 3061.46997
3265.0 0.0003063 2756.12793 3090.30518
3345.0 0.0002990 2756.10864 3125.03491
3331.0 0.0003002 2756.08936 3167.64795
3433.0 0.0002913 2756.07031 3220.70898
3420.0 0.0002924 2756.05176 3287.48950
3472.0 0.0002880 2756.03320 3372.13306
3616.0 0.0002765 2756.01514 3479.58301
3537.0 0.0002827 2755.99707 3615.30737
3757.0 0.0002662 2755.97949 3785.52954
3815.0 0.0002621 2755.96191 3996.60181
3933.0 0.0002543 2755.94458 4254.18701
4043.0 0.0002473 2755.92749 4563.52979
4262.0 0.0002346 2755.91089 4927.45801
4742.0 0.0002109 2755.89429 5346.63379
5286.0 0.0001892 2755.87793 5817.16553
6123.0 0.0001633 2755.86182 6329.78564
7509.0 0.0001332 2755.84619 6869.83057
8914.0 0.0001122 2755.83057 7416.16113
9202.0 0.0001087 2755.81519 7944.42139
8789.0 0.0001138 2755.80005 8431.85449
8275.0 0.0001208 2755.78540 8858.49121
8926.0 0.0001120 2755.77075 9207.32324
10401.0 0.0000961 2755.75659 9462.12402
12197.0 0.0000820 2755.74243 9607.33984
12774.0 0.0000783 2755.72827 9634.30078
11497.0 0.0000870 2755.71484 9548.31836
9840.0 0.0001016 2755.70166 9368.69336
8702.0 0.0001149 2755.68848 9122.41113
8153.0 0.0001227 2755.67554 8834.54395
7376.0 0.0001356 2755.66260 8524.51953
6737.0 0.0001484 2755.65039 8204.42871
6547.0 0.0001527 2755.63818 7880.72217
6937.0 0.0001442 2755.62622 7554.05762
7601.0 0.0001316 2755.61475 7219.93408
7966.0 0.0001255 2755.60303 6873.29297
7520.0 0.0001330 2755.59204 6513.07129
6548.0 0.0001527 2755.58105 6144.62305
5579.0 0.0001792 2755.57056 5779.02686
4910.0 0.0002037 2755.55981 5429.52295
4436.0 0.0002254 2755.54980 5106.70459
4236.0 0.0002361 2755.53979 4818.05225
4046.0 0.0002472 2755.53003 4567.90039
4004.0 0.0002498 2755.52051 4356.89063
3943.0 0.0002536 2755.51123 4183.69336
3850.0 0.0002597 2755.50244 4044.55957
3958.0 0.0002527 2755.49365 3934.39746
4100.0 0.0002439 2755.48511 3847.03613
4080.0 0.0002451 2755.47705 3775.93237
3922.0 0.0002550 2755.46875 3715.27319
3884.0 0.0002575 2755.46118 3660.54443
3800.0 0.0002632 2755.45361 3608.87354
3721.0 0.0002687 2755.44629 3559.10864
3518.0 0.0002843 2755.43945 3511.39038
3486.0 0.0002869 2755.43262 3466.27490
3376.0 0.0002962 2755.42603 3424.24658
3377.0 0.0002961 2755.41968 3385.35522
3522.0 0.0002839 2755.41357 3348.99951
3499.0 0.0002858 2755.40771 3314.19800
3408.0 0.0002934 2755.40234 3279.88257
3473.0 0.0002879 2755.39697 3245.17603
3423.0 0.0002921 2755.39209 3209.66504
3336.0 0.0002998 2755.38721 3173.44116
3267.0 0.0003061 2755.38257 3137.12524
3086.0 0.0003240 2755.37817 3101.58716
3138.0 0.0003187 2755.37402 3067.64014
3073.0 0.0003254 2755.37036 3036.05371
3123.0 0.0003202 2755.36670 3007.14111
3151.0 0.0003174 2755.36328 2981.19189
2895.0 0.0003454 2755.36035 2958.16431
3083.0 0.0003244 2755.35742 2938.20996
2904.0 0.0003444 2755.35498 2921.02563
2949.0 0.0003391 2755.35254 2906.35767
2989.0 0.0003346 2755.35034 2893.92285
3044.0 0.0003285 2755.34839 2883.39282
2999.0 0.0003334 2755.34692 2874.46875
2961.0 0.0003377 2755.34546 2866.85596
2963.0 0.0003375 2755.34424 2860.30908
2980.0 0.0003356 2755.34375 2854.65527
2963.0 0.0003375 2755.34302 2849.59912
2996.0 0.0003338 2755.34253 2845.13354
2909.0 0.0003438 2755.34253 2841.10986
2995.0 0.0003339 2755.34277 2837.44727
2900.0 0.0003448 2755.34277 2834.08521
3020.0 0.0003311 2755.34351 2830.98315
2835.0 0.000353 2755.34448 2828.10376
2968.0 0.0003369 2755.34546 2825.42163
2965.0 0.0003373 2755.34692 2822.91895
2800.0 0.000357 2755.34839 2820.57520
2963.0 0.0003375 2755.35034 2818.37988
2851.0 0.000351 2755.35254 2816.31909
2902.0 0.0003446 2755.35474 2814.38354
2848.0 0.000351 2755.35718 2812.56592
2931.0 0.0003412 2755.36011 2810.85669
2777.0 0.000360 2755.36328 2809.24829
2820.0 0.000355 2755.36670 2807.73804
2958.0 0.0003381 2755.37012 2806.31812
2890.0 0.0003460 2755.37402 2804.98584
2825.0 0.000354 2755.37817 2803.73633
2931.0 0.0003412 2755.38257 2802.56689
2784.0 0.000359 2755.38721 2801.56006
2829.0 0.000353 2755.39209 2800.54517
2785.0 0.000359 2755.39697 2799.60376
2891.0 0.0003459 2755.40234 2798.73633
2849.0 0.000351 2755.40796 2797.94482
2897.0 0.0003452 2755.41382 2797.25659
2849.0 0.000351 2755.41968 2796.62622
2873.0 0.0003481 2755.42603 2796.08618
2942.0 0.0003399 2755.43262 2795.64868
2832.0 0.000353 2755.43970 2795.33154
2813.0 0.000355 2755.44653 2795.16162
2840.0 0.000352 2755.45386 2795.17163
2908.0 0.0003439 2755.46167 2795.45410
2784.0 0.000359 2755.46948 2795.98242
2914.0 0.0003432 2755.47729 2796.87402
2874.0 0.0003479 2755.48584 2798.21655
2912.0 0.0003434 2755.49438 2800.10986
2856.0 0.0003501 2755.50317 2802.67432
2837.0 0.000352 2755.51245 2805.98486
2849.0 0.000351 2755.52173 2810.14917
2845.0 0.000351 2755.53101 2815.23315
2915.0 0.0003431 2755.54126 2821.27588
2820.0 0.000355 2755.55127 2828.25635
2816.0 0.000355 2755.56152 2836.08862
2842.0 0.000352 2755.57202 2844.61475
2806.0 0.000356 2755.58276 2853.56909
2888.0 0.0003463 2755.59399 2862.58276
2905.0 0.0003442 2755.60522 2871.21094
2821.0 0.000354 2755.61694 2878.98364
2754.0 0.000363 2755.62866 2885.48975
2850.0 0.000351 2755.64087 2890.50415
2894.0 0.0003455 2755.65308 2894.01245
2840.0 0.000352 2755.66577 2896.20166
2892.0 0.0003458 2755.67847 2897.39526
2821.0 0.000354 2755.69165 2897.91675
2808.0 0.000356 2755.70483 2897.97583
2798.0 0.000357 2755.71851 2897.58472
2805.0 0.000357 2755.73242 2896.55981
2752.0 0.000363 2755.74634 2894.59644
2819.0 0.000355 2755.76099 2891.41211
2839.0 0.000352 2755.77539 2886.88110
2946.0 0.0003394 2755.79028 2881.08936
2906.0 0.0003441 2755.80542 2874.30884
2936.0 0.0003406 2755.82080 2866.91406
2882.0 0.0003470 2755.83618 2859.28149
2853.0 0.0003505 2755.85229 2851.72925
2885.0 0.0003466 2755.86816 2844.48267
2803.0 0.000357 2755.88477 2837.62915
2852.0 0.0003506 2755.90137 2831.16211
2864.0 0.0003492 2755.91821 2825.02832
2818.0 0.000355 2755.93530 2819.16138
2903.0 0.0003445 2755.95264 2813.55640
2851.0 0.000351 2755.97046 2808.24512
2729.0 0.000366 2755.98828 2803.29272
2814.0 0.000355 2756.00635 2798.75708
2787.0 0.000359 2756.02466 2794.66846
2834.0 0.000353 2756.04346 2791.03833
2800.0 0.000357 2756.06226 2787.85742
2813.0 0.000355 2756.08130 2785.10132
2759.0 0.000362 2756.10083 2782.73706
2792.0 0.000358 2756.12036 2780.73022
2826.0 0.000354 2756.14014 2779.03906
2812.0 0.000356 2756.16040 2777.62158
2788.0 0.000359 2756.18091 2776.43799
2878.0 0.0003475 2756.20142 2775.44946
2871.0 0.0003483 2756.22241 2774.62061
2858.0 0.0003499 2756.24365 2773.91968
2880.0 0.0003472 2756.26489 2773.32178
2856.0 0.0003501 2756.28687 2772.80493
2812.0 0.000356 2756.30859 2772.35229
2776.0 0.000360 2756.33081 2770.03076
2887.0 0.0003464 2756.35327 2769.69580
2774.0 0.000360 2756.37598 2769.39453
2922.0 0.0003422 2756.39893 2769.12085
2761.0 0.000362 2756.42212 2768.87207
2806.0 0.000356 2756.44556 2764.78638
2813.0 0.000355 2756.46924 2764.65015
2824.0 0.000354 2756.49316 2764.50684
2815.0 0.000355 2756.51733 2764.37695
2758.0 0.000363 2756.54199 2764.26050
2866.0 0.0003489 2756.56665 2764.15698
2817.0 0.000355 2756.59180 2763.11206
2797.0 0.000358 2756.61670 2763.04175
2804.0 0.000357 2756.64258 2762.98145
2745.0 0.000364 2756.66821 2762.93042
2728.0 0.000367 2756.69409 2762.88843
2867.0 0.0003488 2756.72021 2760.94580
2846.0 0.000351 2756.74707 2760.95654
2951.0 0.0003389 2756.77368 2760.96387
2828.0 0.000354 2756.80054 2760.97900
2799.0 0.000357 2756.82813 2761.00024
2813.0 0.000355 2756.85547 2761.03052
2765.0 0.000362 2756.88330 2761.06763
2818.0 0.000355 2756.91138 2761.11182
2813.0 0.000355 2756.93945 2761.16357
2828.0 0.000354 2756.96826 2761.22290
2738.0 0.000365 2756.99683 2761.29077
2909.0 0.0003438 2757.02612 2761.36694
2900.0 0.0003448 2757.05542 2761.45044
2690.0 0.000372 2757.08496 2761.37061
2777.0 0.000360 2757.11475 2761.47583
2857.0 0.0003500 2757.14478 2761.37451
2718.0 0.000368 2757.17505 2761.50244
2821.0 0.000354 2757.20581 2761.64331
2863.0 0.0003493 2757.23657 2761.79590
2911.0 0.0003435 2757.26758 2761.96143
2887.0 0.0003464 2757.29907 2762.14209
2841.0 0.000352 2757.33057 2762.33887
2807.0 0.000356 2757.36255 2762.55371
2853.0 0.0003505 2757.39453 2762.70166
2822.0 0.000354 2757.42725 2762.96069
2768.0 0.000361 2757.45972 2763.24658
2857.0 0.0003500 2757.49268 2763.45581
2839.0 0.000352 2757.52588 2763.81201
2834.0 0.000353 2757.55933 2764.21460
2839.0 0.000352 2757.59277 2764.67676
2849.0 0.000351 2757.62695 2765.21631
2840.0 0.000352 2757.66113 2765.85742
2786.0 0.000359 2757.69531 2766.63477
2867.0 0.0003488 2757.73022 2767.59180
2892.0 0.0003458 2757.76514 2768.78784
2794.0 0.000358 2757.80029 2770.29565
2844.0 0.000352 2757.83569 2772.19946
2895.0 0.0003454 2757.87158 2774.60132
2884.0 0.0003467 2757.90747 2777.60938
2793.0 0.000358 2757.94360 2781.32935
2848.0 0.000351 2757.98022 2785.86206
2886.0 0.0003465 2758.01709 2791.28271
2812.0 0.000356 2758.05396 2797.63721
2852.0 0.0003506 2758.09131 2804.91235
2851.0 0.000351 2758.12891 2813.03125
2947.0 0.0003393 2758.16675 2821.84668
2950.0 0.0003390 2758.20459 2831.10620
2901.0 0.0003447 2758.24292 2840.44214
2948.0 0.0003392 2758.28149 2849.38086
2990.0 0.0003344 2758.32031 2857.33472
3081.0 0.0003246 2758.35938 2863.67529
3072.0 0.0003255 2758.39868 2867.89673
2989.0 0.0003346 2758.43823 2869.76001
2825.0 0.000354 2758.47827 2869.39966
2827.0 0.000354 2758.51831 2867.26904
2947.0 0.0003393 2758.55859 2863.97388
2989.0 0.0003346 2758.59937 2860.10498
2845.0 0.000351 2758.64038 2856.11133
2903.0 0.0003445 2758.68115 2852.26782
2943.0 0.0003398 2758.72266 2848.65601
2985.0 0.0003350 2758.76440 2845.20068
2856.0 0.0003501 2758.80615 2841.70825
2920.0 0.0003425 2758.84839 2837.94727
2944.0 0.0003397 2758.89087 2833.76318
2866.0 0.0003489 2758.93359 2829.14771
2930.0 0.0003413 2758.97632 2824.24365
2802.0 0.000357 2759.01978 2819.29712
2785.0 0.000359 2759.06323 2814.59814
2895.0 0.0003454 2759.10693 2810.40576
2883.0 0.0003469 2759.15088 2806.95557
2863.0 0.0003493 2759.19507 2804.45654
2814.0 0.000355 2759.23975 2803.08496
2887.0 0.0003464 2759.28442 2802.99927
2864.0 0.0003492 2759.32935 2804.33472
2829.0 0.000353 2759.37476 2807.19775
2880.0 0.0003472 2759.42041 2811.65381
2855.0 0.0003503 2759.46606 2817.72827
2865.0 0.0003490 2759.51221 2825.38037
2945.0 0.0003396 2759.55835 2834.49194
2934.0 0.0003408 2759.60498 2844.87012
2948.0 0.0003392 2759.65186 2856.21069
2788.0 0.000359 2759.69897 2868.06348
2975.0 0.0003361 2759.74634 2879.86328
3067.0 0.0003261 2759.79395 2890.90576
2944.0 0.0003397 2759.84180 2900.41797
3059.0 0.0003269 2759.88989 2907.74463
2969.0 0.0003368 2759.93823 2912.48535
3047.0 0.0003282 2759.98706 2914.61865
3050.0 0.0003279 2760.03589 2914.43872
2978.0 0.0003358 2760.08521 2912.40723
3025.0 0.0003306 2760.13452 2909.00195
2939.0 0.0003403 2760.18433 2904.64648
2977.0 0.0003359 2760.23438 2899.69141
2913.0 0.0003433 2760.28442 2894.33545
2957.0 0.0003382 2760.33496 2888.78271
2951.0 0.0003389 2760.38550 2882.97144
2963.0 0.0003375 2760.43652 2876.73999
2964.0 0.0003374 2760.48804 2870.05371
2948.0 0.0003392 2760.53931 2862.84839
2979.0 0.0003357 2760.59131 2855.20117
2988.0 0.0003347 2760.64331 2847.26538
2908.0 0.0003439 2760.69556 2839.22290
2936.0 0.0003406 2760.74829 2831.22461
2867.0 0.0003488 2760.80103 2823.38745
2865.0 0.0003490 2760.85400 2815.91455
2886.0 0.0003465 2760.90723 2808.94409
2841.0 0.000352 2760.96094 2802.54614
2880.0 0.0003472 2761.01489 2796.82593
2836.0 0.000353 2761.06885 2791.79590
2889.0 0.0003461 2761.12329 2787.45117
2793.0 0.000358 2761.17822 2783.75464
2810.0 0.000356 2761.23291 2780.65234
2787.0 0.000359 2761.28809 2778.08521
2851.0 0.000351 2761.34375 2775.97998
2777.0 0.000360 2761.39941 2774.24805
2825.0 0.000354 2761.45532 2772.86523
2770.0 0.000361 2761.51147 2771.75146
2777.0 0.000360 2761.56787 2770.85327
2706.0 0.000370 2761.62476 2770.12646
2798.0 0.000357 2761.68188 2769.53589
2825.0 0.000354 2761.73901 2769.05200
2794.0 0.000358 2761.79663 2768.65112
2829.0 0.000353 2761.85449 2768.31714
2792.0 0.000358 2761.91235 2768.03638
2819.0 0.000355 2761.97070 2767.91577
2950.0 0.0003390 2762.02930 2767.71606
2885.0 0.0003466 2762.08813 2767.54614
2726.0 0.000367 2762.14722 2767.40259
2793.0 0.000358 2762.20654 2767.28320
2771.0 0.000361 2762.26611 2767.18506
2757.0 0.000363 2762.32617 2767.10718
2780.0 0.000360 2762.38623 2767.04785
2793.0 0.000358 2762.44678 2767.00684
2827.0 0.000354 2762.50732 2766.98267
2747.0 0.000364 2762.56836 2766.97705
2861.0 0.0003495 2762.62964 2766.98950
2874.0 0.0003479 2762.69116 2767.07983
2782.0 0.000359 2762.75269 2767.13428
2801.0 0.000357 2762.81470 2767.21313
2807.0 0.000356 2762.87695 2767.32275
2814.0 0.000355 2762.93945 2767.46899
2903.0 0.0003445 2763.00220 2767.66162
2777.0 0.000360 2763.06519 2767.91333
2878.0 0.0003475 2763.12866 2768.24170
2827.0 0.000354 2763.19214 2768.66577
2799.0 0.000357 2763.25610 2769.21045
2838.0 0.000352 2763.32007 2769.90210
2896.0 0.0003453 2763.38452 2770.77197
2872.0 0.0003482 2763.44897 2771.84595
2854.0 0.0003504 2763.51392 2773.15186
2917.0 0.0003428 2763.57910 2774.70972
2718.0 0.000368 2763.64453 2776.52686
2775.0 0.000360 2763.71021 2778.60278
2771.0 0.000361 2763.77612 2780.91406
2943.0 0.0003398 2763.84229 2783.41919
2883.0 0.0003469 2763.90869 2786.05029
2909.0 0.0003438 2763.97534 2788.71240
2947.0 0.0003393 2764.04248 2791.27295
2874.0 0.0003479 2764.10962 2793.57886
2944.0 0.0003397 2764.17725 2795.45874
2823.0 0.000354 2764.24487 2796.76270
2957.0 0.0003382 2764.31299 2797.41187
2920.0 0.0003425 2764.38159 2797.41846
2856.0 0.0003501 2764.44995 2796.88867
2836.0 0.000353 2764.51880 2795.98193
2911.0 0.0003435 2764.58789 2794.86475
2896.0 0.0003453 2764.65723 2793.67358
2896.0 0.0003453 2764.72681 2792.50317
2995.0 0.0003339 2764.79688 2791.39771
2804.0 0.000357 2764.86694 2790.35083
2897.0 0.0003452 2764.93726 2789.32227
2924.0 0.0003420 2765.00806 2788.24731
2910.0 0.0003436 2765.07910 2787.06128
2931.0 0.0003412 2765.15039 2785.72656
2844.0 0.000352 2765.22144 2784.24902
2927.0 0.0003416 2765.29346 2782.66846
2848.0 0.000351 2765.36523 2781.04248
2834.0 0.000353 2765.43774 2779.43457
2833.0 0.000353 2765.51025 2777.89282
2764.0 0.000362 2765.58301 2776.45679
2846.0 0.000351 2765.65601 2775.14990
2871.0 0.0003483 2765.72949 2773.98779
2886.0 0.0003465 2765.80298 2772.97729
2753.0 0.000363 2765.87671 2772.11499
2902.0 0.0003446 2765.95093 2771.39624
2836.0 0.000353 2766.02539 2770.80786
2920.0 0.0003425 2766.10010 2770.33667
2764.0 0.000362 2766.17505 2769.96606
2816.0 0.000355 2766.25000 2769.68115
2858.0 0.0003499 2766.32544 2769.46606
2871.0 0.0003483 2766.40137 2769.30688
2844.0 0.000352 2766.47729 2769.19214
2835.0 0.000353 2766.55347 2769.11255
2846.0 0.000351 2766.62988 2769.06055
2948.0 0.0003392 2766.70679 2769.02856
2867.0 0.0003488 2766.78394 2769.01245
2877.0 0.0003476 2766.86108 2769.00928
2837.0 0.000352 2766.93848 2769.01758
2837.0 0.000352 2767.01636 2769.03296
2818.0 0.000355 2767.09473 2769.05591
2828.0 0.000354 2767.17310 2769.08496
2844.0 0.000352 2767.25171 2769.11938
2898.0 0.0003451 2767.33032 2773.36426
2960.0 0.0003378 2767.40967 2773.45630
2850.0 0.000351 2767.48926 2773.55396
2831.0 0.000353 2767.56860 2773.65601
2917.0 0.0003428 2767.64868 2773.76245
2856.0 0.0003501 2767.72900 2773.87183
2834.0 0.000353 2767.80957 2773.98633
2899.0 0.0003449 2767.89014 2774.10352
2859.0 0.0003498 2767.97119 2776.32520
2693.0 0.000371 2768.05249 2776.47412
2856.0 0.0003501 2768.13403 2776.62769
2857.0 0.0003500 2768.21582 2776.78442
2854.0 0.0003504 2768.29785 2776.94580
2948.0 0.0003392 2768.38037 2779.22485
2787.0 0.000359 2768.46289 2779.41821
2855.0 0.0003503 2768.54590 2779.61548
2925.0 0.0003419 2768.62891 2779.81714
2904.0 0.0003444 2768.71240 2780.02368
2853.0 0.0003505 2768.79614 2780.23242
2863.0 0.0003493 2768.88013 2780.44678
2872.0 0.0003482 2768.96436 2781.63354
2882.0 0.0003470 2769.04883 2781.86963
2763.0 0.000362 2769.13354 2782.10986
2972.0 0.0003365 2769.21851 2782.35571
2879.0 0.0003473 2769.30371 2782.60596
2853.0 0.0003505 2769.38916 2782.86108
2860.0 0.0003497 2769.47510 2783.12085
2920.0 0.0003425 2769.56104 2783.38599
2864.0 0.0003492 2769.64746 2783.65698
2927.0 0.0003416 2769.73413 2783.93237
2873.0 0.0003481 2769.82104 2784.21436
2764.0 0.000362 2769.90820 2784.46436
2830.0 0.000353 2769.99561 2784.75781
2851.0 0.000351 2770.08325 2785.05762
2832.0 0.000353 2770.17114 2785.36377
2921.0 0.0003423 2770.25928 2785.67651
2881.0 0.0003471 2770.34790 2785.99609
2967.0 0.0003370 2770.43677 2786.32227
2974.0 0.0003362 2770.52563 2786.65601
2924.0 0.0003420 2770.61475 2786.99756
2883.0 0.0003469 2770.70459 2787.34668
2848.0 0.000351 2770.79419 2787.70410
2822.0 0.000354 2770.88428 2788.06934
2908.0 0.0003439 2770.97461 2788.44458
2895.0 0.0003454 2771.06543 2788.82910
2830.0 0.000353 2771.15625 2789.22290
2816.0 0.000355 2771.24731 2789.62695
2864.0 0.0003492 2771.33887 2790.04175
2799.0 0.000357 2771.43042 2790.46802
2827.0 0.000354 2771.52222 2790.90625
2871.0 0.0003483 2771.61450 2791.35742
2907.0 0.0003440 2771.70703 2791.82080
2973.0 0.0003364 2771.80005 2792.29956
2909.0 0.0003438 2771.89282 2792.79248
2897.0 0.0003452 2771.98608 2793.21460
2950.0 0.0003390 2772.07983 2793.74194
2872.0 0.0003482 2772.17334 2794.28638
2895.0 0.0003454 2772.26782 2794.85059
2887.0 0.0003464 2772.36206 2795.43604
2867.0 0.0003488 2772.45654 2796.01782
2908.0 0.0003439 2772.55127 2796.64990
2878.0 0.0003475 2772.64673 2797.30859
2890.0 0.0003460 2772.74219 2797.99585
2869.0 0.0003486 2772.83765 2798.71460
2826.0 0.000354 2772.93359 2799.46973
2851.0 0.000351 2773.03003 2800.22070
2812.0 0.000356 2773.12646 2801.06104
2825.0 0.000354 2773.22339 2801.95532
2826.0 0.000354 2773.32031 2802.91260
2933.0 0.0003409 2773.41772 2803.94873
2954.0 0.0003385 2773.51514 2805.06885
2935.0 0.0003407 2773.61304 2806.32642
2822.0 0.000354 2773.71094 2807.74341
2913.0 0.0003433 2773.80957 2809.36694
2923.0 0.0003421 2773.90820 2811.25610
2947.0 0.0003393 2774.00708 2813.48853
2914.0 0.0003432 2774.10620 2816.15332
2900.0 0.0003448 2774.20557 2819.35840
2907.0 0.0003440 2774.30518 2823.22510
2956.0 0.0003383 2774.40527 2827.87573
2902.0 0.0003446 2774.50562 2833.43774
3009.0 0.0003323 2774.60620 2840.02832
2916.0 0.0003429 2774.70703 2847.72437
2923.0 0.0003421 2774.80811 2856.58374
2973.0 0.0003364 2774.90918 2866.59009
2943.0 0.0003398 2775.01074 2877.67505
2931.0 0.0003412 2775.11279 2889.67090
3022.0 0.0003309 2775.21484 2902.30762
2992.0 0.0003342 2775.31738 2915.21680
3070.0 0.0003257 2775.41992 2927.87964
3178.0 0.0003147 2775.52271 2939.65210
3104.0 0.0003222 2775.62598 2949.82104
3341.0 0.0002993 2775.72974 2957.69922
3253.0 0.0003074 2775.83325 2962.78882
3174.0 0.0003151 2775.93726 2964.97046
3041.0 0.0003288 2776.04175 2964.52856
3063.0 0.0003265 2776.14624 2962.06274
3017.0 0.0003315 2776.25122 2958.30103
3015.0 0.0003317 2776.35596 2953.93335
2955.0 0.0003384 2776.46143 2949.48950
2928.0 0.0003415 2776.56689 2945.30664
2968.0 0.0003369 2776.67285 2941.52051
3096.0 0.0003230 2776.77930 2938.07153
2999.0 0.0003334 2776.88574 2934.75342
3065.0 0.0003263 2776.99243 2931.27393
3128.0 0.0003197 2777.09912 2927.35156
3141.0 0.0003184 2777.20630 2922.82129
3114.0 0.0003211 2777.31421 2917.69434
3056.0 0.0003272 2777.42188 2912.25586
2963.0 0.0003375 2777.52979 2906.57495
2939.0 0.0003403 2777.63818 2900.92310
3004.0 0.0003329 2777.74658 2895.59009
2966.0 0.0003372 2777.85547 2890.75513
2909.0 0.0003438 2777.96460 2886.55225
3023.0 0.0003308 2778.07397 2883.05957
2858.0 0.0003499 2778.18359 2880.32593
3049.0 0.0003280 2778.29370 2878.36035
2988.0 0.0003347 2778.40381 2877.15405
2994.0 0.0003340 2778.51440 2876.67554
3058.0 0.0003270 2778.62500 2876.87524
3111.0 0.0003214 2778.73608 2877.69971
2939.0 0.0003403 2778.84717 2879.15430
2929.0 0.0003414 2778.95874 2881.09399
2963.0 0.0003375 2779.07056 2883.46460
2979.0 0.0003357 2779.18262 2886.26001
2975.0 0.0003361 2779.29517 2889.44556
2935.0 0.0003407 2779.40771 2893.00366
3119.0 0.0003206 2779.52075 2896.91992
2995.0 0.0003339 2779.63379 2901.19141
2992.0 0.0003342 2779.74731 2905.80273
3053.0 0.0003275 2779.86108 2910.80664
2937.0 0.0003405 2779.97510 2916.19775
3048.0 0.0003281 2780.08911 2922.00684
3003.0 0.0003330 2780.20386 2928.25977
3017.0 0.0003315 2780.31836 2934.98999
3188.0 0.0003137 2780.43359 2942.24609
3099.0 0.0003227 2780.54883 2950.06885
3093.0 0.0003233 2780.66455 2958.53662
3041.0 0.0003288 2780.78052 2967.68213
3155.0 0.0003170 2780.89673 2977.59619
3164.0 0.0003161 2781.01294 2988.36450
3184.0 0.0003141 2781.12964 3000.09839
3160.0 0.0003165 2781.24634 3013.02954
3164.0 0.0003161 2781.36353 3027.17236
3168.0 0.0003157 2781.48145 3042.83203
3218.0 0.0003108 2781.59888 3060.31616
3360.0 0.0002976 2781.71704 3080.02759
3335.0 0.0002999 2781.83521 3102.53613
3376.0 0.0002962 2781.95386 3128.61597
3386.0 0.0002953 2782.07251 3159.27905
3461.0 0.0002889 2782.19189 3195.88721
3539.0 0.0002826 2782.31128 3240.18652
3576.0 0.0002796 2782.43066 3294.47559
3536.0 0.0002828 2782.55078 3361.49683
3656.0 0.0002735 2782.67090 3444.67822
3719.0 0.0002689 2782.79126 3547.94263
3850.0 0.0002597 2782.91211 3675.57422
3858.0 0.0002592 2783.03320 3832.18530
3976.0 0.0002515 2783.15430 4022.62134
4014.0 0.0002491 2783.27563 4251.09375
4263.0 0.0002346 2783.39771 4521.53125
4344.0 0.0002302 2783.51978 4836.39063
4486.0 0.0002229 2783.64233 5196.60889
4977.0 0.0002009 2783.76465 5600.78369
5409.0 0.0001849 2783.88745 6045.20605
6053.0 0.0001652 2784.01074 6522.94482
6818.0 0.0001467 2784.13403 7022.62646
8411.0 0.0001189 2784.25781 7528.51025
10203.0 0.0000980 2784.38184 8020.05713
11974.0 0.0000835 2784.50610 8474.27637
12718.0 0.0000786 2784.63037 8867.59766
11782.0 0.0000849 2784.75537 9182.77734
10205.0 0.0000980 2784.88062 9412.11621
8842.0 0.0001131 2785.00586 9559.45215
7790.0 0.0001284 2785.13135 9636.62598
7785.0 0.0001285 2785.25732 9657.73340
8136.0 0.0001229 2785.38330 9633.92285
8824.0 0.0001133 2785.50977 9571.38867
9664.0 0.0001035 2785.63623 9472.30957
10319.0 0.0000969 2785.76343 9337.33594
10078.0 0.0000992 2785.89063 9167.27734
9969.0 0.0001003 2786.01807 8963.96777
9818.0 0.0001019 2786.14575 8728.98633
9439.0 0.0001059 2786.27393 8464.23438
8371.0 0.0001195 2786.40234 8172.67285
7215.0 0.0001386 2786.53076 7859.78906
6409.0 0.0001560 2786.65942 7532.86816
5851.0 0.0001709 2786.78882 7200.41260
5671.0 0.0001763 2786.91821 6868.70215
5824.0 0.0001717 2787.04761 6541.80957
6032.0 0.0001658 2787.17773 6221.16162
6146.0 0.0001627 2787.30786 5907.29541
5851.0 0.0001709 2787.43823 5600.87695
5391.0 0.0001855 2787.56909 5304.64648
4940.0 0.0002024 2787.70020 5021.96973
4432.0 0.0002256 2787.83130 4756.91162
4210.0 0.0002375 2787.96265 4512.81299
4047.0 0.0002471 2788.09473 4291.54785
3720.0 0.0002688 2788.22681 4094.01538
3778.0 0.0002647 2788.35913 3919.87061
3660.0 0.0002732 2788.49170 3768.24805
3560.0 0.0002809 2788.62476 3637.63940
3456.0 0.0002894 2788.75806 3526.28052
3457.0 0.0002893 2788.89136 3432.06226
3419.0 0.0002925 2789.02515 3353.00659
3359.0 0.0002977 2789.15894 3286.98413
3318.0 0.0003014 2789.29321 3232.07739
3394.0 0.0002946 2789.42798 3186.47339
3292.0 0.0003038 2789.56274 3148.55884
3404.0 0.0002938 2789.69775 3116.88770
3292.0 0.0003038 2789.83301 3090.27173
3222.0 0.0003104 2789.96875 3067.65723
3233.0 0.0003093 2790.10474 3048.25854
3079.0 0.0003248 2790.24072 3031.43311
3153.0 0.0003172 2790.37720 3016.65576
3114.0 0.0003211 2790.51392 3003.54883
3124.0 0.0003201 2790.65063 2991.79736
3064.0 0.0003264 2790.78809 2981.17822
3076.0 0.0003251 2790.92578 2971.51416
3103.0 0.0003223 2791.06323 2962.67651
3084.0 0.0003243 2791.20142 2954.54688
3038.0 0.0003292 2791.33960 2947.05078
3043.0 0.0003286 2791.47827 2940.11035
3005.0 0.0003328 2791.61719 2933.67261
3091.0 0.0003235 2791.75635 2927.69238
3027.0 0.0003304 2791.89575 2922.12158
2978.0 0.0003358 2792.03540 2916.92920
2965.0 0.0003373 2792.17554 2912.07813
2971.0 0.0003366 2792.31567 2907.54297
2961.0 0.0003377 2792.45630 2903.29932
3044.0 0.0003285 2792.59692 2899.32422
3031.0 0.0003299 2792.73804 2895.59497
3042.0 0.0003287 2792.87939 2892.09619
2963.0 0.0003375 2793.02100 2888.80933
2930.0 0.0003413 2793.16284 2885.71948
2890.0 0.0003460 2793.30518 2882.81396
3068.0 0.0003259 2793.44727 2880.08154
2983.0 0.0003352 2793.59009 2877.50781
2982.0 0.0003353 2793.73291 2875.08667
2966.0 0.0003372 2793.87598 2872.80542
2890.0 0.0003460 2794.01953 2870.65771
2963.0 0.0003375 2794.16333 2868.63647
2963.0 0.0003375 2794.30737 2866.73242
2893.0 0.0003457 2794.45190 2864.94189
2962.0 0.0003376 2794.59619 2863.25757
2971.0 0.0003366 2794.74121 2861.67578
2960.0 0.0003378 2794.88623 2860.19189
2915.0 0.0003431 2795.03174 2858.80273
2937.0 0.0003405 2795.17725 2857.50293
2905.0 0.0003442 2795.32300 2856.29297
3039.0 0.0003291 2795.46924 2855.16870
3041.0 0.0003288 2795.61597 2854.12866
3012.0 0.0003320 2795.76270 2853.17456
2917.0 0.0003428 2795.90991 2852.30688
3026.0 0.0003305 2796.05688 2851.52856
2955.0 0.0003384 2796.20459 2850.84424
2919.0 0.0003426 2796.35254 2850.26196
3001.0 0.0003332 2796.50049 2849.79419
2904.0 0.0003444 2796.64868 2849.45581
2889.0 0.0003461 2796.79736 2849.26880
2889.0 0.0003461 2796.94629 2849.26025
2855.0 0.0003503 2797.09546 2849.46411
2934.0 0.0003408 2797.24512 2849.92212
2921.0 0.0003423 2797.39478 2850.67993
3016.0 0.0003316 2797.54468 2851.67383
2967.0 0.0003370 2797.69507 2853.19385
2979.0 0.0003357 2797.84570 2855.17554
2932.0 0.0003411 2797.99634 2857.66699
3007.0 0.0003326 2798.14771 2860.70581
2949.0 0.0003391 2798.29907 2864.31396
2915.0 0.0003431 2798.45068 2868.48975
3010.0 0.0003322 2798.60254 2873.20581
2979.0 0.0003357 2798.75464 2878.40430
2964.0 0.0003374 2798.90723 2883.98413
2934.0 0.0003408 2799.05981 2889.80103
2939.0 0.0003403 2799.21289 2895.65869
3057.0 0.0003271 2799.36621 2901.26123
3053.0 0.0003275 2799.51978 2906.44580
2967.0 0.0003370 2799.67334 2910.88159
3044.0 0.0003285 2799.82764 2914.35767
2997.0 0.0003337 2799.98218 2916.80225
3077.0 0.0003250 2800.13672 2918.32471
2970.0 0.0003367 2800.29126 2919.21094
2955.0 0.0003384 2800.44678 2919.85864
2957.0 0.0003382 2800.60205 2920.70093
2907.0 0.0003440 2800.75781 2922.14331
3051.0 0.0003278 2800.91357 2924.52539
2982.0 0.0003353 2801.07007 2928.10278
2922.0 0.0003422 2801.22656 2933.03174
3008.0 0.0003324 2801.38354 2939.37769
2993.0 0.0003341 2801.54028 2947.10059
2984.0 0.0003351 2801.69775 2956.08472
3115.0 0.0003210 2801.85547 2967.58716
3032.0 0.0003298 2802.01343 2978.53369
3018.0 0.0003313 2802.17139 2990.10840
3117.0 0.0003208 2802.32983 3002.05566
3204.0 0.0003121 2802.48853 3014.02466
3275.0 0.0003053 2802.64746 3026.28442
3380.0 0.0002959 2802.80688 3036.84497
3334.0 0.0002999 2802.96606 3045.84277
3190.0 0.0003135 2803.12622 3052.81299
3056.0 0.0003272 2803.28613 3057.54761
3094.0 0.0003232 2803.44653 3060.19922
3016.0 0.0003316 2803.60718 3061.23242
3070.0 0.0003257 2803.76807 3061.26953
3123.0 0.0003202 2803.92920 3060.91211
3087.0 0.0003239 2804.09058 3061.32910
3083.0 0.0003244 2804.25220 3062.00708
3088.0 0.0003238 2804.41455 3062.23364
3213.0 0.0003112 2804.57642 3062.46484
3074.0 0.0003253 2804.73901 3062.25562
3249.0 0.0003078 2804.90186 3061.38452
3208.0 0.0003117 2805.06494 3058.52661
3237.0 0.0003089 2805.22803 3053.56323
3195.0 0.0003130 2805.39185 3046.30908
3190.0 0.0003135 2805.55566 3036.93604
3206.0 0.0003119 2805.71973 3025.90601
3005.0 0.0003328 2805.88403 3013.83276
3015.0 0.0003317 2806.04883 3001.33813
3065.0 0.0003263 2806.21411 2989.04346
3021.0 0.0003310 2806.37915 2977.11499
2914.0 0.0003432 2806.54468 2966.21606
2933.0 0.0003409 2806.71021 2955.73999
3046.0 0.0003283 2806.87646 2946.00024
2914.0 0.0003432 2807.04272 2936.89966
3076.0 0.0003251 2807.20947 2928.28613
3102.0 0.0003224 2807.37622 2920.02539
3002.0 0.0003331 2807.54321 2912.02051
2948.0 0.0003392 2807.71069 2904.26489
2975.0 0.0003361 2807.87866 2896.79663
2900.0 0.0003448 2808.04639 2889.70093
2861.0 0.0003495 2808.21460 2883.05737
2874.0 0.0003479 2808.38330 2876.91992
2964.0 0.0003374 2808.55176 2871.38550
2932.0 0.0003411 2808.72095 2866.36060
2939.0 0.0003403 2808.89038 2861.89795
2826.0 0.000354 2809.05981 2857.98242
2929.0 0.0003414 2809.22974 2854.59131
2962.0 0.0003376 2809.39990 2851.68530
2926.0 0.0003418 2809.57031 2849.22754
2976.0 0.0003360 2809.74072 2847.17090
2953.0 0.0003386 2809.91187 2845.47095
2899.0 0.0003449 2810.08325 2839.88623
2882.0 0.0003470 2810.25439 2838.80762
2806.0 0.000356 2810.42627 2837.94824
2844.0 0.000352 2810.59839 2837.27515
2997.0 0.0003337 2810.77051 2836.75317
2878.0 0.0003475 2810.94312 2836.35889
2968.0 0.0003369 2811.11597 2836.06836
2914.0 0.0003432 2811.28906 2833.77515
2921.0 0.0003423 2811.46265 2833.67017
2903.0 0.0003445 2811.63623 2833.63037
2941.0 0.0003400 2811.81006 2833.64648
2907.0 0.0003440 2811.98462 2833.71606
2904.0 0.0003444 2812.15869 2831.72754
2947.0 0.0003393 2812.33350 2831.92285
3016.0 0.0003316 2812.50854 2832.17090
2902.0 0.0003446 2812.68384 2832.47339
2806.0 0.000356 2812.85938 2832.83740
2796.0 0.000358 2813.03540 2833.27100
2943.0 0.0003398 2813.21143 2833.78442
2954.0 0.0003385 2813.38770 2834.39063
2953.0 0.0003386 2813.56445 2834.06689
2820.0 0.000355 2813.74146 2834.92505
2760.0 0.000362 2813.91846 2835.93335
2894.0 0.0003455 2814.09595 2837.11768
2894.0 0.0003455 2814.27368 2838.50830
2920.0 0.0003425 2814.45166 2840.13281
3013.0 0.0003319 2814.62988 2842.02441
2853.0 0.0003505 2814.80859 2844.21704
2941.0 0.0003400 2814.98730 2846.74390
2898.0 0.0003451 2815.16650 2849.63574
3007.0 0.0003326 2815.34595 2852.92432
2857.0 0.0003500 2815.52539 2856.62744
2906.0 0.0003441 2815.70557 2860.76147
3022.0 0.0003309 2815.88574 2865.31909
2902.0 0.0003446 2816.06616 2870.27612
2927.0 0.0003416 2816.24683 2875.58862
2824.0 0.000354 2816.42798 2881.20483
2985.0 0.0003350 2816.60913 2887.07202
3031.0 0.0003299 2816.79077 2893.13989
2902.0 0.0003446 2816.97266 2899.37061
3007.0 0.0003326 2817.15454 2905.71509
2914.0 0.0003432 2817.33691 2912.09668
2975.0 0.0003361 2817.51953 2918.37207
2996.0 0.0003338 2817.70239 2924.33618
2989.0 0.0003346 2817.88550 2929.70044
2972.0 0.0003365 2818.06909 2934.13965
3161.0 0.0003164 2818.25293 2937.34033
3062.0 0.0003266 2818.43677 2939.08911
3061.0 0.0003267 2818.62109 2939.32690
3096.0 0.0003230 2818.80566 2938.17480
3005.0 0.0003328 2818.99023 2935.89648
3043.0 0.0003286 2819.17529 2932.82983
2869.0 0.0003486 2819.36084 2929.31299
2965.0 0.0003373 2819.54614 2925.65063
2918.0 0.0003427 2819.73218 2922.06372
2964.0 0.0003374 2819.91846 2918.69385
2955.0 0.0003384 2820.10498 2915.59204
2924.0 0.0003420 2820.29150 2912.72461
3049.0 0.0003280 2820.47827 2909.98169
2957.0 0.0003382 2820.66577 2907.22144
3004.0 0.0003329 2820.85327 2904.29541
3102.0 0.0003224 2821.04102 2901.10645
2997.0 0.0003337 2821.22925 2897.63403
3027.0 0.0003304 2821.41748 2893.93237
2846.0 0.000351 2821.60596 2890.10815
3021.0 0.0003310 2821.79517 2886.28442
2944.0 0.0003397 2821.98413 2882.57861
2863.0 0.0003493 2822.17334 2879.08813
2936.0 0.0003406 2822.36304 2875.88647
2845.0 0.000351 2822.55298 2873.01880
2893.0 0.0003457 2822.74341 2870.52002
2823.0 0.000354 2822.93384 2868.39917
2944.0 0.0003397 2823.12451 2866.65723
2836.0 0.000353 2823.31567 2865.28442
2854.0 0.0003504 2823.50708 2864.26123
2980.0 0.0003356 2823.69849 2863.55859
2941.0 0.0003400 2823.89038 2863.14722
3004.0 0.0003329 2824.08252 2862.99536
2979.0 0.0003357 2824.27490 2863.07056
2934.0 0.0003408 2824.46777 2863.34351
2979.0 0.0003357 2824.66040 2863.78564
2956.0 0.0003383 2824.85376 2864.37524
2873.0 0.0003481 2825.04736 2865.09326
2896.0 0.0003453 2825.24121 2865.92358
2880.0 0.0003472 2825.43506 2866.85596
2845.0 0.000351 2825.62939 2867.87891
2850.0 0.000351 2825.82397 2868.99219
2929.0 0.0003414 2826.01880 2870.18750
2947.0 0.0003393 2826.21411 2871.46631
2931.0 0.0003412 2826.40942 2872.82837
2968.0 0.0003369 2826.60498 2874.27563
2951.0 0.0003389 2826.80078 2875.80737
2951.0 0.0003389 2826.99707 2877.43042
2903.0 0.0003445 2827.19336 2879.14771
2880.0 0.0003472 2827.39014 2880.96484
2996.0 0.0003338 2827.58740 2882.88721
2861.0 0.0003495 2827.78467 2884.92065
3000.0 0.0003333 2827.98193 2887.07373
3012.0 0.0003320 2828.17969 2889.35278
2950.0 0.0003390 2828.37817 2891.76929
2864.0 0.0003492 2828.57642 2894.33301
3002.0 0.0003331 2828.77515 2897.05396
2984.0 0.0003351 2828.97412 2899.94482
2928.0 0.0003415 2829.17310 2903.02100
2956.0 0.0003383 2829.37256 2906.29712
2921.0 0.0003423 2829.57251 2909.79297
2982.0 0.0003353 2829.77222 2913.52832
2987.0 0.0003348 2829.97266 2917.52563
2945.0 0.0003396 2830.17285 2921.80859
2943.0 0.0003398 2830.37402 2926.41357
2910.0 0.0003436 2830.57495 2931.37231
3007.0 0.0003326 2830.77637 2936.73486
3126.0 0.0003199 2830.97803 2942.55249
3030.0 0.0003300 2831.17969 2948.89209
3227.0 0.0003099 2831.38208 2955.84863
3064.0 0.0003264 2831.58447 2963.53149
3024.0 0.0003307 2831.78687 2972.10083
3044.0 0.0003285 2831.98999 2981.75537
3210.0 0.0003115 2832.19312 2992.76147
3118.0 0.0003207 2832.39697 3005.46167
3200.0 0.0003125 2832.60059 3020.32324
3233.0 0.0003093 2832.80444 3037.90942
3202.0 0.0003123 2833.00903 3058.96875
3255.0 0.0003072 2833.21338 3084.38501
3185.0 0.0003140 2833.41846 3115.22925
3250.0 0.0003077 2833.62354 3152.73047
3235.0 0.0003091 2833.82886 3198.30640
3390.0 0.0002950 2834.03467 3253.52148
3375.0 0.0002963 2834.24072 3319.95557
3463.0 0.0002888 2834.44678 3399.19824
3560.0 0.0002809 2834.65308 3492.67212
3485.0 0.0002869 2834.85986 3601.70361
3632.0 0.0002753 2835.06689 3727.04492
3756.0 0.0002662 2835.27441 3869.16284
3927.0 0.0002546 2835.48193 4027.66919
4058.0 0.0002464 2835.68970 4201.40088
4371.0 0.0002288 2835.89771 4388.09033
4869.0 0.0002054 2836.10620 4584.54688
5376.0 0.0001860 2836.31470 4785.85156
5864.0 0.0001705 2836.52368 4986.07861
6562.0 0.0001524 2836.73291 5177.84766
6819.0 0.0001466 2836.94238 5353.44727
6662.0 0.0001501 2837.15210 5505.85547
6359.0 0.0001573 2837.36206 5630.30518
6097.0 0.0001640 2837.57227 5724.95801
6100.0 0.0001639 2837.78296 5790.82959
6336.0 0.0001578 2837.99390 5831.21191
6196.0 0.0001614 2838.20459 5850.64941
5799.0 0.0001724 2838.41626 5854.29932
5330.0 0.0001876 2838.62769 5847.43848
5096.0 0.0001962 2838.83960 5834.79932
4943.0 0.0002023 2839.05200 5820.53467
5191.0 0.0001926 2839.26416 5806.41650
5389.0 0.0001856 2839.47681 5791.97998
5680.0 0.0001761 2839.68994 5774.28613
5983.0 0.0001671 2839.90308 5748.55322
6252.0 0.0001599 2840.11646 5709.27539
6130.0 0.0001631 2840.33032 5651.84766
6104.0 0.0001638 2840.54419 5573.89746
6037.0 0.0001656 2840.75879 5475.69141
5883.0 0.0001700 2840.97314 5360.07861
5423.0 0.0001844 2841.18823 5231.20850
5132.0 0.0001949 2841.40332 5094.01172
4709.0 0.0002124 2841.61865 4953.25195
4357.0 0.0002295 2841.83423 4813.54248
4185.0 0.0002389 2842.05029 4678.22607
4085.0 0.0002448 2842.26636 4549.89355
4039.0 0.0002476 2842.48291 4429.63037
4179.0 0.0002393 2842.69971 4317.50293
3982.0 0.0002511 2842.91675 4212.54150
4099.0 0.0002440 2843.13403 4113.29736
4034.0 0.0002479 2843.35156 4018.14331
4159.0 0.0002404 2843.56909 3926.16431
3990.0 0.0002506 2843.78735 3837.02710
3871.0 0.0002583 2844.00586 3751.09619
3729.0 0.0002682 2844.22461 3669.25195
3605.0 0.0002774 2844.44336 3592.07446
3403.0 0.0002939 2844.66235 3520.45825
3303.0 0.0003028 2844.88184 3454.70850
3403.0 0.0002939 2845.10156 3394.98438
3281.0 0.0003048 2845.32178 3341.15625
3285.0 0.0003044 2845.54175 3292.91479
3375.0 0.0002963 2845.76245 3249.74805
3311.0 0.0003020 2845.98315 3211.16748
3227.0 0.0003099 2846.20410 3176.61060
3291.0 0.0003039 2846.42529 3145.63745
3053.0 0.0003275 2846.64697 3118.01147
3039.0 0.0003291 2846.86890 3093.17261
3019.0 0.0003312 2847.09106 3070.98999
3049.0 0.0003280 2847.31348 3051.22461
3053.0 0.0003275 2847.53589 3033.70044
3092.0 0.0003234 2847.75903 3018.12549
2965.0 0.0003373 2847.98242 3004.33350
2999.0 0.0003334 2848.20557 2992.15698
2906.0 0.0003441 2848.42920 2981.35498
3032.0 0.0003298 2848.65332 2971.79565
3034.0 0.0003296 2848.87769 2963.34131
2995.0 0.0003339 2849.10229 2955.86353
2987.0 0.0003348 2849.32715 2949.28662
3090.0 0.0003236 2849.55225 2943.42285
2879.0 0.0003473 2849.77734 2938.22095
2868.0 0.0003487 2850.00317 2933.65576
2959.0 0.0003380 2850.22925 2929.51953
2865.0 0.0003490 2850.45508 2925.80933
2976.0 0.0003360 2850.68140 2922.46436
2881.0 0.0003471 2850.90820 2919.43701
2912.0 0.0003434 2851.13525 2916.67920
2964.0 0.0003374 2851.36255 2914.15479
3041.0 0.0003288 2851.59009 2911.83618
2967.0 0.0003370 2851.81763 2909.71582
2871.0 0.0003483 2852.04590 2907.73389
2985.0 0.0003350 2852.27393 2905.89282
2909.0 0.0003438 2852.50269 2904.17676
2971.0 0.0003366 2852.73145 2902.57544
2827.0 0.000354 2852.96069 2901.09644
2998.0 0.0003336 2853.18994 2899.69458
2846.0 0.000351 2853.41968 2898.37866
2979.0 0.0003357 2853.64941 2897.14502
2885.0 0.0003466 2853.87964 2895.98535
2927.0 0.0003416 2854.11035 2894.89648
2972.0 0.0003365 2854.34082 2893.87207
2816.0 0.000355 2854.57202 2892.90918
3008.0 0.0003324 2854.80298 2892.00195
2908.0 0.0003439 2855.03442 2891.14844
2987.0 0.0003348 2855.26636 2890.34351
2979.0 0.0003357 2855.49854 2889.58765
2983.0 0.0003352 2855.73071 2888.87524
2876.0 0.0003477 2855.96338 2888.20337
2871.0 0.0003483 2856.19629 2887.57227
2931.0 0.0003412 2856.42920 2886.96191
2957.0 0.0003382 2856.66284 2886.40161
2867.0 0.0003488 2856.89624 2885.87573
2831.0 0.000353 2857.13037 2885.37939
2790.0 0.000358 2857.36450 2884.91357
2736.0 0.000365 2857.59888 2884.47583
2796.0 0.000358 2857.83374 2884.06421
2894.0 0.0003455 2858.06860 2883.67822
2858.0 0.0003499 2858.30396 2883.31714
2867.0 0.0003488 2858.53955 2882.97729
2878.0 0.0003475 2858.77515 2882.59570
2886.0 0.0003465 2859.01147 2882.30029
2855.0 0.0003503 2859.24756 2882.02319
2848.0 0.000351 2859.48438 2881.75903
2874.0 0.0003479 2859.72119 2881.51953
2825.0 0.000354 2859.95850 2881.29785
2867.0 0.0003488 2860.19556 2881.11426
2764.0 0.000362 2860.43335 2880.92505
2843.0 0.000352 2860.67139 2880.75122
2878.0 0.0003475 2860.90942 2880.59033
2945.0 0.0003396 2861.14795 2880.44385
2819.0 0.000355 2861.38672 2880.31104
2812.0 0.000356 2861.62573 2880.19116
2825.0 0.000354 2861.86499 2880.05103
2777.0 0.000360 2862.10474 2879.95508
2828.0 0.000354 2862.34424 2879.87085
2888.0 0.0003463 2862.58447 2879.79736
2834.0 0.000353 2862.82471 2879.73438
2834.0 0.000353 2863.06543 2879.68140
2800.0 0.000357 2863.30615 2879.63867
2968.0 0.0003369 2863.54736 2879.60474
2811.0 0.000356 2863.78882 2879.59106
2923.0 0.0003421 2864.03052 2879.57520
2781.0 0.000360 2864.27222 2879.56836
2942.0 0.0003399 2864.51465 2879.56909
2897.0 0.0003452 2864.75708 2879.57861
2828.0 0.000354 2864.99976 2879.59521
2904.0 0.0003444 2865.24268 2879.61890
2863.0 0.0003493 2865.48608 2879.65063
2785.0 0.000359 2865.72949 2879.68896
2850.0 0.000351 2865.97363 2879.73462
2842.0 0.000352 2866.21753 2879.78711
2973.0 0.0003364 2866.46191 2879.84570
2892.0 0.0003458 2866.70654 2879.91016
2799.0 0.000357 2866.95142 2879.98169
2838.0 0.000352 2867.19629 2880.05762
2846.0 0.000351 2867.44189 2880.14136
2913.0 0.0003433 2867.68774 2880.22998
2848.0 0.000351 2867.93335 2880.32422
2770.0 0.000361 2868.17944 2880.42358
2764.0 0.000362 2868.42603 2880.52905
2901.0 0.0003447 2868.67310 2880.63940
2761.0 0.000362 2868.91992 2880.75513
2795.0 0.000358 2869.16699 2880.87622
2871.0 0.0003483 2869.41479 2881.00244
2859.0 0.0003498 2869.66235 2881.13208
2764.0 0.000362 2869.91040 2881.26782
2827.0 0.000354 2870.15869 2881.40894
2825.0 0.000354 2870.40747 2881.55420
2937.0 0.0003405 2870.65625 2881.70386
2764.0 0.000362 2870.90527 2881.85815
2791.0 0.000358 2871.15479 2882.01733
2790.0 0.000358 2871.40430 2882.18188
2869.0 0.0003486 2871.65430 2882.35059
2809.0 0.000356 2871.90454 2882.52344
2864.0 0.0003492 2872.15503 2882.70068
2906.0 0.0003441 2872.40552 2882.88330
2876.0 0.0003477 2872.65649 2883.06958
2813.0 0.000355 2872.90796 2883.26221
2801.0 0.000357 2873.15942 2883.45776
2778.0 0.000360 2873.41113 2883.65869
2900.0 0.0003448 2873.66333 2883.86401
2854.0 0.0003504 2873.91553 2884.07520
2791.0 0.000358 2874.16797 2884.29028
2756.0 0.000363 2874.42090 2884.51025
2768.0 0.000361 2874.67407 2884.73608
2734.0 0.000366 2874.92725 2884.96558
2774.0 0.000360 2875.18115 2885.20142
2895.0 0.0003454 2875.43506 2885.44165
2818.0 0.000355 2875.68896 2885.68823
2719.0 0.000368 2875.94336 2885.94043
2861.0 0.0003495 2876.19824 2886.19849
2803.0 0.000357 2876.45313 2886.46191
2691.0 0.000372 2876.70825 2886.73218
2910.0 0.0003436 2876.96362 2887.00830
2859.0 0.0003498 2877.21948 2887.29126
2802.0 0.000357 2877.47559 2887.58130
2842.0 0.000352 2877.73169 2887.87891
2902.0 0.0003446 2877.98853 2888.18262
2782.0 0.000359 2878.24512 2888.49487
2925.0 0.0003419 2878.50220 2888.81592
2907.0 0.0003440 2878.75952 2889.14600
2802.0 0.000357 2879.01733 2889.48486
2880.0 0.0003472 2879.27490 2889.83301
2870.0 0.0003484 2879.53320 2890.19238
2918.0 0.0003427 2879.79150 2890.56177
2918.0 0.0003427 2880.05029 2890.94360
2766.0 0.000362 2880.30908 2891.33813
2778.0 0.000360 2880.56812 2891.74512
2865.0 0.0003490 2880.82788 2892.16870
2773.0 0.000361 2881.08740 2892.60522
2825.0 0.000354 2881.34741 2893.06030
2808.0 0.000356 2881.60767 2893.53394
2828.0 0.000354 2881.86816 2894.02759
2822.0 0.000354 2882.12891 2894.54419
2844.0 0.000352 2882.38989 2893.62769
2843.0 0.000352 2882.65088 2894.21289
2851.0 0.000351 2882.91284 2894.82959
2910.0 0.0003436 2883.17456 2895.48364
2890.0 0.0003460 2883.43677 2896.17920
2796.0 0.000358 2883.69897 2896.20190
2799.0 0.000357 2883.96143 2897.01489
2806.0 0.000356 2884.22437 2897.89795
2851.0 0.000351 2884.48755 2898.86694
2826.0 0.000354 2884.75098 2899.93921
2842.0 0.000352 2885.01440 2901.13550
2956.0 0.0003383 2885.27832 2902.48413
2806.0 0.000356 2885.54248 2904.01514
2836.0 0.000353 2885.80713 2905.76831
2846.0 0.000351 2886.07202 2907.05762
2871.0 0.0003483 2886.33691 2908.68652
2804.0 0.000357 2886.60205 2911.40015
2874.0 0.0003479 2886.86743 2914.54004
2825.0 0.000354 2887.13330 2918.16382
2942.0 0.0003399 2887.39917 2921.97021
2910.0 0.0003436 2887.66553 2926.74194
2929.0 0.0003414 2887.93213 2932.15942
2884.0 0.0003467 2888.19897 2938.27148
2863.0 0.0003493 2888.46582 2945.10449
2912.0 0.0003434 2888.73315 2952.68530
2956.0 0.0003383 2889.00073 2961.01660
2890.0 0.0003460 2889.26880 2970.08081
2830.0 0.000353 2889.53687 2979.72339
2929.0 0.0003414 2889.80542 2990.07837
2984.0 0.0003351 2890.07373 3000.54639
3059.0 0.0003269 2890.34277 3011.68164
3026.0 0.0003305 2890.61206 3022.91870
2990.0 0.0003344 2890.88159 3034.06299
3093.0 0.0003233 2891.15112 3044.96558
3181.0 0.0003144 2891.42114 3055.58594
3193.0 0.0003132 2891.69116 3065.96338
3038.0 0.0003292 2891.96191 3076.23364
3033.0 0.0003297 2892.23267 3086.52710
3155.0 0.0003170 2892.50342 3096.92480
3114.0 0.0003211 2892.77466 3107.41431
3229.0 0.0003097 2893.04639 3117.82764
3137.0 0.0003188 2893.31787 3127.87598
3187.0 0.0003138 2893.59009 3137.10522
3213.0 0.0003112 2893.86230 3145.16650
3141.0 0.0003184 2894.13501 3151.69312
3146.0 0.0003179 2894.40771 3156.29272
3062.0 0.0003266 2894.68066 3158.96045
3081.0 0.0003246 2894.95435 3159.79370
3231.0 0.0003095 2895.22778 3158.99658
3088.0 0.0003238 2895.50195 3156.82178
3119.0 0.0003206 2895.77588 3153.52905
3173.0 0.0003152 2896.05029 3149.34473
3144.0 0.0003181 2896.32495 3144.45898
2937.0 0.0003405 2896.59961 3139.01611
3212.0 0.0003113 2896.87500 3133.10010
3100.0 0.0003226 2897.15039 3126.73486
3106.0 0.0003220 2897.42627 3119.87231
3157.0 0.0003168 2897.70215 3112.44434
3112.0 0.0003213 2897.97827 3104.37158
3102.0 0.0003224 2898.25488 3095.65259
2960.0 0.0003378 2898.53174 3086.29932
2989.0 0.0003346 2898.80835 3076.51196
2921.0 0.0003423 2899.08569 3066.40552
2882.0 0.0003470 2899.36328 3056.24146
2997.0 0.0003337 2899.64111 3046.20142
2851.0 0.000351 2899.91919 3036.43237
2896.0 0.0003453 2900.19751 3027.02002
2864.0 0.0003492 2900.47607 3018.01025
2963.0 0.0003375 2900.75488 3009.41016
2951.0 0.0003389 2901.03369 3001.21069
2952.0 0.0003388 2901.31323 2993.40356
2813.0 0.000355 2901.59277 2985.97534
2910.0 0.0003436 2901.87280 2978.91968
3005.0 0.0003328 2902.15283 2972.23193
2846.0 0.000351 2902.43311 2965.93408
2815.0 0.000355 2902.71387 2960.04639
2911.0 0.0003435 2902.99487 2954.60742
2830.0 0.000353 2903.27612 2949.61646
2810.0 0.000356 2903.55737 2945.09644
2922.0 0.0003422 2903.83887 2941.03784
2871.0 0.0003483 2904.12085 2937.43604
2782.0 0.000359 2904.40332 2934.26440
2887.0 0.0003464 2904.68555 2931.49902
2828.0 0.000354 2904.96826 2929.11182
2834.0 0.000353 2905.25122 2927.06738
2907.0 0.0003440 2905.53442 2925.33472
2861.0 0.0003495 2905.81812 2923.87842
2899.0 0.0003449 2906.10181 2922.66968
2815.0 0.000355 2906.38599 2921.67334
2908.0 0.0003439 2906.67017 2920.86401
2869.0 0.0003486 2906.95459 2920.21362
2885.0 0.0003466 2907.23926 2919.69849
2882.0 0.0003470 2907.52417 2919.29858
2834.0 0.000353 2907.80981 2918.99585
2858.0 0.0003499 2908.09521 2918.77686
2821.0 0.000354 2908.38110 2918.62866
2900.0 0.0003448 2908.66724 2918.54102
2834.0 0.000353 2908.95337 2918.50830
2903.0 0.0003445 2909.23999 2918.52734
2866.0 0.0003489 2909.52710 2918.59229
2760.0 0.000362 2909.81396 2918.70532
2830.0 0.000353 2910.10156 2918.86743
2917.0 0.0003428 2910.38892 2919.08130
2847.0 0.000351 2910.67676 2919.35425
2780.0 0.000360 2910.96509 2919.69238
2874.0 0.0003479 2911.25342 2920.10620
2889.0 0.0003461 2911.54199 2920.60669
2948.0 0.0003392 2911.83105 2921.20825
2750.0 0.000364 2912.12012 2921.92310
2856.0 0.0003501 2912.40942 2922.76831
2875.0 0.0003478 2912.69922 2923.75781
2897.0 0.0003452 2912.98926 2924.90308
2733.0 0.000366 2913.27930 2926.21606
2783.0 0.000359 2913.56982 2927.70215
2870.0 0.0003484 2913.86060 2929.36353
2879.0 0.0003473 2914.15161 2931.19531
2789.0 0.000359 2914.44287 2933.18286
2842.0 0.000352 2914.73413 2935.30249
2902.0 0.0003446 2915.02612 2937.52344
2870.0 0.0003484 2915.31787 2939.79590
2840.0 0.000352 2915.61035 2942.53345
2875.0 0.0003478 2915.90283 2944.72388
2914.0 0.0003432 2916.19580 2946.74731
2861.0 0.0003495 2916.48877 2948.50879
2865.0 0.0003490 2916.78198 2949.92261
2954.0 0.0003385 2917.07544 2950.91772
2806.0 0.000356 2917.36938 2951.46997
2844.0 0.000352 2917.66333 2951.59326
2887.0 0.0003464 2917.95752 2951.34595
2840.0 0.000352 2918.25220 2950.81641
2894.0 0.0003455 2918.54688 2951.01514
2792.0 0.000358 2918.84204 2950.21851
2822.0 0.000354 2919.13770 2949.40942
2817.0 0.000355 2919.43311 2948.64551
2880.0 0.0003472 2919.72876 2947.96484
2841.0 0.000352 2920.02515 2947.38257
2840.0 0.000352 2920.32129 2946.89771
2875.0 0.0003478 2920.61816 2946.72192
2867.0 0.0003488 2920.91479 2946.35010
2851.0 0.000351 2921.21191 2945.97046
2795.0 0.000358 2921.50952 2945.53564
2924.0 0.0003420 2921.80713 2945.00635
2879.0 0.0003473 2922.10474 2944.36255
2843.0 0.000352 2922.40308 2943.60278
2930.0 0.0003413 2922.70142 2942.74609
2905.0 0.0003442 2923.00000 2941.82178
2852.0 0.0003506 2923.29907 2940.86621
2814.0 0.000355 2923.59814 2940.36963
2740.0 0.000365 2923.89771 2939.44922
2877.0 0.0003476 2924.19751 2938.58154
2845.0 0.000351 2924.49756 2937.78320
2920.0 0.0003425 2924.79761 2937.06812
2826.0 0.000354 2925.09790 2936.44312
2851.0 0.000351 2925.39844 2935.91064
2831.0 0.000353 2925.69971 2935.47314
2750.0 0.000364 2926.00073 2935.12817
2843.0 0.000352 2926.30249 2934.87036
2856.0 0.0003501 2926.60400 2934.69458
2771.0 0.000361 2926.90601 2934.59204
2853.0 0.0003505 2927.20825 2934.55664
2836.0 0.000353 2927.51074 2934.57739
2846.0 0.000351 2927.81348 2934.64868
2821.0 0.000354 2928.11621 2934.76221
2903.0 0.0003445 2928.41992 2934.91064
2793.0 0.000358 2928.72314 2935.08838
2889.0 0.0003461 2929.02686 2935.29004
2816.0 0.000355 2929.33081 2935.51221
2811.0 0.000356 2929.63525 2935.75024
2828.0 0.000354 2929.93970 2936.00195
2932.0 0.0003411 2930.24438 2936.26514
2847.0 0.000351 2930.54956 2936.53760
2751.0 0.000364 2930.85474 2936.81885
2812.0 0.000356 2931.16016 2937.10596
2738.0 0.000365 2931.46606 2937.40063
2920.0 0.0003425 2931.77222 2937.70093
2826.0 0.000354 2932.07837 2938.00586
2885.0 0.0003466 2932.38501 2938.31689
2830.0 0.000353 2932.69165 2938.63062
2774.0 0.000360 2932.99878 2938.94995
2798.0 0.000357 2933.30591 2939.27295
2806.0 0.000356 2933.61377 2939.59961
2828.0 0.000354 2933.92139 2939.93115
2826.0 0.000354 2934.22974 2940.26587
2917.0 0.0003428 2934.53784 2940.60474
2826.0 0.000354 2934.84644 2940.94604
2792.0 0.000358 2935.15527 2941.29175
2819.0 0.000355 2935.46436 2941.64136
2918.0 0.0003427 2935.77368 2941.99365
2794.0 0.000358 2936.08325 2942.34985
2752.0 0.000363 2936.39307 2942.70923
2764.0 0.000362 2936.70313 2943.07275
2975.0 0.0003361 2937.01343 2943.43921
2821.0 0.000354 2937.32397 2943.80859
2784.0 0.000359 2937.63477 2944.18335
2933.0 0.0003409 2937.94604 2944.56104
2806.0 0.000356 2938.25732 2944.94238
2934.0 0.0003408 2938.56909 2945.32764
2824.0 0.000354 2938.88086 2945.71631
2880.0 0.0003472 2939.19287 2946.10864
2772.0 0.000361 2939.50537 2946.50684
2834.0 0.000353 2939.81787 2946.90771
2892.0 0.0003458 2940.13062 2947.31348
2953.0 0.0003386 2940.44385 2947.72339
2843.0 0.000352 2940.75708 2948.13916
2827.0 0.000354 2941.07080 2948.55835
2842.0 0.000352 2941.38452 2948.98340
2850.0 0.000351 2941.69873 2949.41431
2746.0 0.000364 2942.01294 2949.84985
2876.0 0.0003477 2942.32788 2950.29126
2904.0 0.0003444 2942.64258 2950.73853
2836.0 0.000353 2942.95752 2951.19263
2733.0 0.000366 2943.27295 2951.65308
2870.0 0.0003484 2943.58862 2952.12085
2828.0 0.000354 2943.90454 2952.59619
2814.0 0.000355 2944.22070 2953.07959
2802.0 0.000357 2944.53687 2953.56885
2826.0 0.000354 2944.85352 2954.06982
2780.0 0.000360 2945.17041 2954.57983
2939.0 0.0003403 2945.48755 2955.10059
2905.0 0.0003442 2945.80493 2955.63110
2865.0 0.0003490 2946.12231 2956.17480
2926.0 0.0003418 2946.44019 2956.73120
2830.0 0.000353 2946.75854 2957.30200
2812.0 0.000356 2947.07690 2957.88696
2803.0 0.000357 2947.39551 2958.48926
2882.0 0.0003470 2947.71411 2959.03711
2824.0 0.000354 2948.03345 2959.68164
2834.0 0.000353 2948.35278 2960.35474
2816.0 0.000355 2948.67236 2961.05322
2873.0 0.0003481 2948.99243 2961.78540
2874.0 0.0003479 2949.31226 2962.55615
2832.0 0.000353 2949.63281 2963.37915
2941.0 0.0003400 2949.95337 2964.26172
2800.0 0.000357 2950.27441 2965.21924
2922.0 0.0003422 2950.59546 2966.27002
2910.0 0.0003436 2950.91675 2967.43335
2934.0 0.0003408 2951.23828 2968.59985
2869.0 0.0003486 2951.56006 2970.07495
2917.0 0.0003428 2951.88208 2971.75708
2958.0 0.0003381 2952.20459 2973.68579
2886.0 0.0003465 2952.52734 2975.86768
2927.0 0.0003416 2952.85010 2978.42163
2948.0 0.0003392 2953.17334 2981.36475
2873.0 0.0003481 2953.49634 2984.73218
2850.0 0.000351 2953.82007 2988.53174
2945.0 0.0003396 2954.14404 2992.87354
2774.0 0.000360 2954.46802 2997.73608
2935.0 0.0003407 2954.79224 3003.12671
2940.0 0.0003401 2955.11694 3008.99805
2841.0 0.000352 2955.44189 3015.38647
2844.0 0.000352 2955.76709 3022.19751
2982.0 0.0003353 2956.09229 3029.26904
2973.0 0.0003364 2956.41748 3036.61084
2971.0 0.0003366 2956.74365 3043.99585
3034.0 0.0003296 2957.06958 3051.21729
2962.0 0.0003376 2957.39600 3058.04346
3135.0 0.0003190 2957.72241 3064.21606
3018.0 0.0003313 2958.04956 3069.48535
3044.0 0.0003285 2958.37646 3073.65283
3084.0 0.0003243 2958.70386 3076.59668
2917.0 0.0003428 2959.03125 3078.37036
2989.0 0.0003346 2959.35889 3079.09106
2872.0 0.0003482 2959.68701 3078.99243
2916.0 0.0003429 2960.01563 3078.35376
2990.0 0.0003344 2960.34399 3077.43384
2885.0 0.0003466 2960.67261 3076.50928
2870.0 0.0003484 2961.00171 3075.75659
2899.0 0.0003449 2961.33105 3075.25122
2921.0 0.0003423 2961.66064 3075.04858
2957.0 0.0003382 2961.99023 3075.11597
2953.0 0.0003386 2962.32031 3075.35425
2994.0 0.0003340 2962.65063 3075.60889
3043.0 0.0003286 2962.98096 3075.68555
3038.0 0.0003292 2963.31201 3075.38281
3028.0 0.0003303 2963.64307 3074.52368
2971.0 0.0003366 2963.97412 3072.99731
2926.0 0.0003418 2964.30566 3070.77246
2957.0 0.0003382 2964.63745 3067.91553
2929.0 0.0003414 2964.96948 3064.55420
2934.0 0.0003408 2965.30176 3060.86304
3016.0 0.0003316 2965.63428 3057.02124
2826.0 0.000354 2965.96680 3053.19653
2913.0 0.0003433 2966.29980 3049.52246
2960.0 0.0003378 2966.63306 3046.10107
2915.0 0.0003431 2966.96631 3043.01221
2924.0 0.0003420 2967.30005 3040.27710
2966.0 0.0003372 2967.63403 3037.91479
3018.0 0.0003313 2967.96826 3035.90967
2928.0 0.0003415 2968.30249 3034.23047
2841.0 0.000352 2968.63721 3032.83521
2952.0 0.0003388 2968.97217 3031.68188
2844.0 0.000352 2969.30762 3030.73633
2909.0 0.0003438 2969.64307 3029.97974
2890.0 0.0003460 2969.97852 3029.40698
2814.0 0.000355 2970.31421 3029.02588
2846.0 0.000351 2970.65063 3028.84668
3001.0 0.0003332 2970.98706 3028.88550
2850.0 0.000351 2971.32349 3029.15698
2960.0 0.0003378 2971.66040 3029.67334
2957.0 0.0003382 2971.99731 3030.44946
2854.0 0.0003504 2972.33496 3031.49438
2924.0 0.0003420 2972.67261 3032.82446
2940.0 0.0003401 2973.01074 3034.45532
2945.0 0.0003396 2973.34839 3036.40479
2879.0 0.0003473 2973.68701 3038.70239
2934.0 0.0003408 2974.02539 3041.37695
2930.0 0.0003413 2974.36450 3044.47437
3059.0 0.0003269 2974.70337 3048.04883
2929.0 0.0003414 2975.04272 3052.17163
2994.0 0.0003340 2975.38208 3056.93262
2899.0 0.0003449 2975.72168 3062.45166
2951.0 0.0003389 2976.06201 3068.86914
2921.0 0.0003423 2976.40234 3076.35913
3083.0 0.0003244 2976.74292 3085.13135
3065.0 0.0003263 2977.08350 3095.42383
3031.0 0.0003299 2977.42480 3107.52808
2977.0 0.0003359 2977.76587 3121.74829
3038.0 0.0003292 2978.10718 3138.44580
3057.0 0.0003271 2978.44897 3157.98901
3024.0 0.0003307 2978.79102 3180.76953
3114.0 0.0003211 2979.13306 3207.17261
3205.0 0.0003120 2979.47583 3237.61816
3217.0 0.0003108 2979.81836 3272.45068
3150.0 0.0003175 2980.16138 3312.04102
3237.0 0.0003089 2980.50464 3356.64966
3223.0 0.0003103 2980.84814 3406.47144
3347.0 0.0002988 2981.19165 3461.55786
3462.0 0.0002889 2981.53540 3521.85718
3632.0 0.0002753 2981.87964 3587.12915
3772.0 0.0002651 2982.22412 3656.82324
3864.0 0.0002588 2982.56885 3730.12671
4047.0 0.0002471 2982.91357 3805.90112
4231.0 0.0002364 2983.25879 3882.87964
4156.0 0.0002406 2983.60376 3959.53833
4064.0 0.0002461 2983.94946 4034.59595
4018.0 0.0002489 2984.29565 4106.93945
3846.0 0.0002600 2984.64160 4175.88086
3879.0 0.0002578 2984.98804 4241.02393
3889.0 0.0002571 2985.33447 4302.17529
4011.0 0.0002493 2985.68115 4358.82861
4287.0 0.0002333 2986.02832 4410.12793
4623.0 0.0002163 2986.37573 4454.64697
4826.0 0.0002072 2986.72290 4490.44189
5200.0 0.0001923 2987.07080 4515.49609
5378.0 . . .
loop_
_refln_index_h
_refln_index_k
_refln_index_l
_pd_refln_wavelength_id
_refln_observed_status
_refln_F_squared_meas
_refln_F_squared_calc
_refln_phase_calc
_refln_d_spacing
_gsas_i100_meas
0 0 2 1 o 5325.561 657.423 0.00 5.68041 4.25
0 0 2 2 o 5310.184 657.423 0.00 5.68041 2.11
1 0 1 1 o 2495.550 841.404 -180.00 5.09260 6.70
1 0 1 2 o 2463.362 841.404 -180.00 5.09260 3.29
1 1 0 1 o 1221.220 1324.570 0.00 4.02841 1.25
1 1 0 2 o 558.015 1324.570 0.00 4.02841 0.37
1 1 2 1 o 106692.02 103366.42 -45.66 3.28597 100.00
1 1 2 2 o 104897.29 103366.42 -45.66 3.28597 48.86
1 0 3 1 o 1764.089 1875.636 -180.00 3.15375 1.94
1 0 3 2 o 1732.068 1875.636 -180.00 3.15375 0.95
0 0 4 1 o -78.008 34.274 180.00 2.84020 0.00
0 0 4 2 o -78.008 34.274 180.00 2.84020 0.00
2 0 0 1 o -78.105 34.316 180.00 2.84852 0.00
2 0 0 2 o -78.105 34.316 180.00 2.84852 0.00
2 0 2 1 o -440.412 1628.690 0.00 2.54630 0.00
2 0 2 2 o -440.412 1628.690 0.00 2.54630 0.00
2 1 1 1 o 452.740 1799.304 -159.16 2.48604 0.85
2 1 1 2 o -7.810 1799.304 -159.16 2.48604 0.16
1 1 4 1 o -317.022 1185.893 36.38 2.32127 0.00
1 1 4 2 o -317.022 1185.893 36.38 2.32127 0.00
2 1 3 1 o -202.370 707.505 -151.81 2.11390 0.00
1 0 5 1 o -264.161 1342.502 180.00 2.11050 0.00
2 1 3 2 o -108.032 707.505 -151.81 2.11390 0.04
1 0 5 2 o -29.098 1342.502 180.00 2.11050 0.05
2 0 4 1 o 137345.69 130995.29 0.00 2.01126 48.37
2 0 4 2 o 135620.58 130995.29 0.00 2.01126 23.74
2 2 0 1 o 132489.98 131252.56 0.00 2.01421 23.32
2 2 0 2 o 137927.50 131252.56 0.00 2.01421 12.12
2 2 2 1 o 750.572 243.553 -6.70 1.89839 0.33
2 2 2 2 o 488.770 243.553 -6.70 1.89839 0.12
0 0 6 1 o 4391.522 2721.776 0.00 1.89347 0.41
0 0 6 2 o 4017.603 2721.776 0.00 1.89347 0.19
3 0 1 1 o 3133.534 2296.577 180.00 1.87303 1.13
3 0 1 2 o 3186.405 2296.577 180.00 1.87303 0.57
3 1 0 1 o 737.501 498.113 0.00 1.80156 0.31
3 1 0 2 o 857.244 498.113 0.00 1.80156 0.17
3 1 2 1 o 57374.54 52439.36 47.50 1.71726 29.86
1 1 6 1 o 56254.16 52252.13 47.51 1.71361 14.56
3 1 2 2 o 56257.36 52439.36 47.50 1.71726 14.55
1 1 6 2 o 55064.61 52252.13 47.51 1.71361 7.08
3 0 3 1 o 111.746 75.130 180.00 1.69753 0.06
2 1 5 1 o 892.132 699.276 149.50 1.69577 0.58
3 0 3 2 o 116.409 75.130 180.00 1.69753 0.03
2 1 5 2 o 887.831 699.276 149.50 1.69577 0.29
2 2 4 1 o -117.157 237.222 179.37 1.64299 0.00
2 2 4 2 o -117.157 237.222 179.37 1.64299 0.00
2 0 6 1 o -30.592 11.444 180.00 1.57688 0.00
2 0 6 2 o -30.592 11.444 180.00 1.57688 0.00
3 2 1 1 o -104.267 239.330 131.92 1.56501 0.00
3 2 1 2 o -104.267 239.330 131.92 1.56501 0.00
1 0 7 1 o -160.908 407.588 -180.00 1.56087 0.00
1 0 7 2 o -160.908 407.588 -180.00 1.56087 0.00
3 1 4 1 o -226.456 705.660 -36.30 1.52132 0.00
3 1 4 2 o -226.456 705.660 -36.30 1.52132 0.00
3 2 3 1 o 1520.317 1938.537 167.15 1.45823 0.72
3 0 5 1 o 94.758 139.257 180.00 1.45711 0.04
3 2 3 2 o 1473.005 1938.537 167.15 1.45823 0.35
3 0 5 2 o 68.291 139.257 180.00 1.45711 0.02
0 0 8 1 o 69046.73 73921.49 0.00 1.42010 3.11
4 0 0 1 o 76476.91 74406.28 0.00 1.42426 7.00
0 0 8 2 o 72097.67 73921.49 0.00 1.42010 1.63
4 0 0 2 o 69957.98 74406.28 0.00 1.42426 3.16
4 0 2 1 o 84.684 120.387 0.00 1.38150 0.04
2 2 6 1 o 1571.144 1597.657 2.06 1.37959 0.36
4 0 2 2 o 129.509 120.387 0.00 1.38150 0.03
2 2 6 2 o 1711.965 1597.657 2.06 1.37959 0.19
4 1 1 1 o 836.166 827.123 133.67 1.37163 0.36
2 1 7 1 o 1024.714 1003.941 164.96 1.36884 0.45
4 1 1 2 o 841.963 827.123 133.67 1.37163 0.18
2 1 7 2 o 984.978 1003.941 164.96 1.36884 0.21
3 3 0 1 o 766.637 430.833 0.00 1.34280 0.09
3 3 0 2 o 719.053 430.833 0.00 1.34280 0.04
1 1 8 1 o 1700.179 1126.457 -57.83 1.33932 0.33
1 1 8 2 o 1863.319 1126.457 -57.83 1.33932 0.18
3 3 2 1 o 33608.523 30930.178 -50.03 1.30679 5.35
3 1 6 1 o 33739.156 30834.109 -50.03 1.30518 10.73
3 3 2 2 o 32627.438 30930.178 -50.03 1.30679 2.58
3 1 6 2 o 31662.881 30834.109 -50.03 1.30518 4.99
4 1 3 1 o 1313.029 1150.783 148.42 1.29803 0.50
3 2 5 1 o 1699.894 1431.323 -163.53 1.29724 0.64
4 1 3 2 o 1532.445 1150.783 148.42 1.29803 0.29
3 2 5 2 o 1975.323 1431.323 -163.53 1.29724 0.36
4 2 0 1 o 617.251 493.649 180.00 1.27390 0.12
4 0 4 1 o 564.331 493.648 180.00 1.27315 0.11
2 0 8 1 o 602.434 493.613 180.00 1.27092 0.12
4 2 0 2 o 614.327 493.649 180.00 1.27390 0.06
4 0 4 2 o 689.603 493.648 180.00 1.27315 0.07
2 0 8 2 o 935.836 493.613 180.00 1.27092 0.09
4 2 2 1 o 1759.722 508.551 6.66 1.24302 0.63
4 2 2 2 o 1444.106 508.551 6.66 1.24302 0.26
3 0 7 1 o 3389.490 1513.309 180.00 1.23378 0.56
1 0 9 1 o 949.437 376.371 180.00 1.23242 0.17
3 0 7 2 o 3803.626 1513.309 180.00 1.23378 0.31
1 0 9 2 o 1217.187 376.371 180.00 1.23242 0.11
3 3 4 1 o 2582.820 318.028 45.40 1.21397 0.42
3 3 4 2 o 3274.508 318.028 45.40 1.21397 0.26
4 1 5 1 o 2392.104 1046.653 -142.80 1.18058 0.74
4 1 5 2 o 2171.904 1046.653 -142.80 1.18058 0.34
4 2 4 1 o 51845.88 45419.11 -0.07 1.16233 13.89
2 2 8 1 o 49355.07 45217.15 -0.07 1.16064 6.57
4 2 4 2 o 48229.61 45419.11 -0.07 1.16233 6.40
2 2 8 2 o 46904.31 45217.15 -0.07 1.16064 3.10
5 0 1 1 o 20.636 0.906 180.00 1.13372 0.01
4 3 1 1 o 2206.361 1391.883 -152.99 1.13372 0.66
4 0 6 1 o 2066.421 1005.101 0.00 1.13821 0.33
0 0 10 1 o 343.714 254.349 180.00 1.13608 0.01
4 3 1 2 o 2160.730 1391.883 -152.99 1.13372 0.32
5 0 1 2 o 19.531 0.906 180.00 1.13372 0.00
4 0 6 2 o 1742.591 1005.101 0.00 1.13821 0.14
3 2 7 2 o 178.393 89.790 -135.04 1.13214 0.03
0 0 10 2 o 329.780 254.349 180.00 1.13608 0.00
3 2 7 1 o 161.759 89.790 -135.04 1.13214 0.06
2 1 9 1 o 1097.223 691.700 -157.55 1.13110 0.34
2 1 9 2 o 1285.446 691.700 -157.55 1.13110 0.20
5 1 0 1 o 676.330 225.571 0.00 1.11728 0.12
3 1 8 1 o 1386.311 697.940 61.33 1.11527 0.41
5 1 0 2 o 535.022 225.571 0.00 1.11728 0.05
3 1 8 2 o 1392.269 697.940 61.33 1.11527 0.21
5 1 2 1 o 22189.693 19416.539 -52.23 1.09628 5.56
3 3 6 1 o 21154.088 19444.561 52.09 1.09533 2.64
5 1 2 2 o 19851.695 19416.539 -52.23 1.09628 2.46
1 1 10 1 o 19617.715 19250.477 -52.25 1.09343 2.43
3 3 6 2 o 19429.645 19444.561 52.09 1.09533 1.20
5 0 3 1 o 1705.704 1744.850 180.00 1.09109 0.25
4 3 3 1 o 265.632 272.385 -118.32 1.09109 0.09
1 1 10 2 o 18956.367 19250.477 -52.25 1.09343 1.16
5 0 3 2 o 1788.547 1744.850 180.00 1.09109 0.13
4 3 3 2 o 279.923 272.385 -118.32 1.09109 0.04
4 2 6 1 o -7.517 18.369 -150.01 1.05695 0.00
2 0 10 1 o 438.953 1556.486 0.00 1.05525 0.09
4 2 6 2 o 6.053 18.369 -150.01 1.05695 0.00
5 2 1 1 o 745.509 1510.540 -168.71 1.05336 0.22
2 0 10 2 o 628.447 1556.486 0.00 1.05525 0.06
4 1 7 1 o 113.170 385.637 -141.31 1.05209 0.05
3 0 9 1 o 116.790 796.229 -180.00 1.05125 0.03
5 2 1 2 o 67.757 1510.540 -168.71 1.05336 0.02
4 1 7 2 o -73.865 385.637 -141.31 1.05209 0.00
3 0 9 2 o -107.510 796.229 -180.00 1.05125 0.00
5 1 4 1 o -103.067 223.540 44.25 1.03973 0.00
5 1 4 2 o -103.067 223.540 44.25 1.03973 0.00
5 2 3 1 o -19.082 42.826 -86.65 1.01890 0.00
4 3 5 1 o -43.975 353.307 121.04 1.01852 0.00
5 0 5 1 o -99.766 1202.458 -180.00 1.01852 0.00
5 2 3 2 o -19.082 42.826 -86.65 1.01890 0.00
1 0 11 1 o -94.675 549.942 -180.00 1.01624 0.00
5 0 5 2 o -99.766 1202.458 -180.00 1.01852 0.00
4 3 5 2 o -43.975 353.307 121.04 1.01852 0.00
1 0 11 2 o -94.675 549.942 -180.00 1.01624 0.00
4 4 0 1 o 21102.264 29000.434 0.00 1.00710 1.16
