#------------------------------------------------------------------------------
#$Date: 2016-02-13 21:28:24 +0200 (Sat, 13 Feb 2016) $
#$Revision: 176429 $
#$URL: svn://www.crystallography.net/cod/cif/7/03/48/7034873.cif $
#------------------------------------------------------------------------------
#
# This file is available in the Crystallography Open Database (COD),
# http://www.crystallography.net/
#
# All data on this site have been placed in the public domain by the
# contributors.
#
data_7034873
loop_
_publ_author_name
'Dong, Yongkwan'
'Eckert, Brian'
'Wang, Hsin'
'Zeng, Xiaoyu'
'Tritt, Terry M.'
'Nolas, George S.'
_publ_section_title
;
 Synthesis, crystal structure, and transport properties of
 Cu2.2Zn0.8SnSe4-xTex (0.1 &#x2264; x &#x2264; 0.4).
;
_journal_issue                   19
_journal_name_full
'Dalton transactions (Cambridge, England : 2003)'
_journal_page_first              9014
_journal_page_last               9019
_journal_paper_doi               10.1039/c5dt00910c
_journal_volume                  44
_journal_year                    2015
_chemical_formula_sum            'Cu2.2 Se3.9 Sn Te0.1 Zn0.78'
_chemical_formula_weight         630.41
_chemical_name_systematic        ' ?'
_space_group_IT_number           121
_symmetry_cell_setting           tetragonal
_symmetry_space_group_name_Hall  'I -4 2'
_symmetry_space_group_name_H-M   'I -4 2 m'
_audit_creation_date             2014-12-15T14:17
_audit_creation_method           'from EXP file using GSAS2CIF'
_audit_update_record
' 2014-12-15T14:17  Initial CIF as created by GSAS2CIF'
_cell_angle_alpha                90.0
_cell_angle_beta                 90.0
_cell_angle_gamma                90.0
_cell_formula_units_Z            2
_cell_length_a                   5.68351(11)
_cell_length_b                   5.68351
_cell_length_c                   11.3311(4)
_cell_volume                     366.020(15)
_computing_structure_refinement  GSAS
_diffrn_radiation_polarisn_ratio 0.87
_diffrn_radiation_probe          x-ray
_exptl_absorpt_correction_T_max  1.00000
_exptl_absorpt_correction_T_min  1.00000
_exptl_absorpt_process_details
;   GSAS Absorption/surface roughness correction: function number 0
 No correction is applied.
;
_pd_block_id
2014-12-15T14:17|SE37_OLD|SE37_old.cif|Bruker_D8
_pd_calc_method                  'Rietveld Refinement'
_pd_instr_location               ' ?'
_pd_meas_2theta_range_inc        0.01998
_pd_meas_2theta_range_max        100.00214
_pd_meas_2theta_range_min        15.0
_pd_meas_number_of_points        4256
_pd_phase_name
'from E:/USF/USF data/PXRD/YD143/refinements/Se37Te03/Se37Te03.cel'
_pd_proc_2theta_range_inc        0.01998
_pd_proc_2theta_range_max        101.17866
_pd_proc_2theta_range_min        16.17652
_pd_proc_info_datetime           2014-12-15T14:17:23
_pd_proc_info_excluded_regions   ' ?'
_pd_proc_ls_background_function
;   GSAS Background function number 2 with  3 terms.
 Cosine Fourier series
      1:    3566.61     2:   -870.114     3:    787.328    
;
_pd_proc_ls_peak_cutoff          0.00100
_pd_proc_ls_profile_function
;
 CW Profile function number 3 with  19 terms
 Pseudovoigt profile coefficients as parameterized in
 P. Thompson, D.E. Cox & J.B. Hastings (1987). J. Appl. Cryst.,20,79-83.
 Asymmetry correction of L.W. Finger, D.E. Cox & A. P. Jephcoat (1994).
 J. Appl. Cryst.,27,892-900.
 Peak tails are ignored  where the intensity is below 0.0010 times the peak
   Aniso. broadening axis   0.0   0.0   1.0
;
_pd_proc_ls_prof_R_factor        0.0434
_pd_proc_ls_prof_wR_expected     0.0163
_pd_proc_ls_prof_wR_factor       0.0598
_pd_proc_number_of_points        4256
_pd_spec_mounting                ' ?'
_refine_ls_goodness_of_fit_all   3.68
_refine_ls_matrix_type           full
_refine_ls_number_parameters     11
_refine_ls_number_restraints     0
_refine_ls_R_Fsqd_factor         0.10796
_refine_ls_shift/su_max          0.10
_refine_ls_shift/su_mean         0.03
_reflns_d_resolution_high        1.003
_reflns_d_resolution_low         5.666
_reflns_limit_h_max              5
_reflns_limit_h_min              0
_reflns_limit_k_max              4
_reflns_limit_k_min              0
_reflns_limit_l_max              11
_reflns_limit_l_min              0
_reflns_number_total             150
_cod_data_source_file            c5dt00910c4.cif
_cod_data_source_block           SE37_OLD_publ
_cod_depositor_comments
;
The following automatic conversions were performed:

'_geom_bond_publ_flag' value 'N' changed to 'n' according to
/usr/data/users/saulius/crontab/automatic-downloads/rss-feeds/RSC/lib/dictionaries/cif_core.dic
dictionary named 'cif_core.dic' version 2.4.2 from 2011-04-26 (42
times).

'_geom_angle_publ_flag' value 'N' changed to 'n' according to
/usr/data/users/saulius/crontab/automatic-downloads/rss-feeds/RSC/lib/dictionaries/cif_core.dic
dictionary named 'cif_core.dic' version 2.4.2 from 2011-04-26 (132
times).

Automatic conversion script
Id: cif_fix_values 3271 2015-04-21 07:52:19Z andrius 

 Adding full bibliography for 7034870--7034873.cif.
;
_cod_original_cell_volume        366.021(18)
_cod_original_formula_sum        'Cu2.20 Se3.90 Sn Te0.10 Zn0.78'
_cod_database_code               7034873
#BEGIN Tags that were not found in dictionaries:
_gsas_exptl_extinct_corr_t_min   1.00000
_gsas_exptl_extinct_corr_t_max   1.00000
#END Tags that were not found in dictionaries
loop_
_symmetry_equiv_pos_site_id
_symmetry_equiv_pos_as_xyz
1 +x,+y,+z
2 +y,-x,-z
3 -x,-y,+z
4 -y,+x,-z
5 -x,+y,-z
6 +y,+x,+z
7 +x,-y,-z
8 -y,-x,+z
101 +x+1/2,+y+1/2,+z+1/2
102 +y+1/2,-x+1/2,-z+1/2
103 -x+1/2,-y+1/2,+z+1/2
104 -y+1/2,+x+1/2,-z+1/2
105 -x+1/2,+y+1/2,-z+1/2
106 +y+1/2,+x+1/2,+z+1/2
107 +x+1/2,-y+1/2,-z+1/2
108 -y+1/2,-x+1/2,+z+1/2
loop_
_atom_site_type_symbol
_atom_site_label
_atom_site_fract_x
_atom_site_fract_y
_atom_site_fract_z
_atom_site_occupancy
_atom_site_thermal_displace_type
_atom_site_U_iso_or_equiv
_atom_site_symmetry_multiplicity
Cu Cu1 0.0 0.5 0.25 1.0 Uiso 0.02908 4
Zn ZN 0.0 0.0 0.0 0.7838 Uiso 0.03789 2
Cu Cu2 0.0 0.0 0.0 0.1998 Uiso 0.03789 2
Sn Sn 0.0 0.0 0.5 1.0 Uiso 0.02788 2
Se Se 0.24234 0.24234 0.12908 0.9751 Uiso 0.01931 8
Te Te 0.24234 0.24234 0.12908 0.0249 Uiso 0.01932 8
loop_
_atom_type_symbol
_atom_type_number_in_cell
_atom_type_scat_dispersion_real
_atom_type_scat_dispersion_imag
_atom_type_scat_Cromer_Mann_a1
_atom_type_scat_Cromer_Mann_a2
_atom_type_scat_Cromer_Mann_a3
_atom_type_scat_Cromer_Mann_a4
_atom_type_scat_Cromer_Mann_b1
_atom_type_scat_Cromer_Mann_b2
_atom_type_scat_Cromer_Mann_b3
_atom_type_scat_Cromer_Mann_b4
_atom_type_scat_Cromer_Mann_c
_atom_type_scat_source
Cu 4.4 0.000 0.000 13.3380 3.58280 7.16760 0.24700 5.61580 11.3966 1.67350
64.8126 1.19100 International_Tables_Vol_C
Zn 1.568 0.000 0.000 14.0743 3.26550 7.03180 0.23330 5.16520 10.3163 2.41000
58.7097 1.30410 International_Tables_Vol_C
Sn 2.0 0.000 0.000 19.1889 5.83030 19.1005 0.50310 4.45850 26.8909 2.46630
83.9571 4.78210 International_Tables_Vol_C
Se 7.801 0.000 0.000 17.0006 2.40980 5.81960 0.27260 3.97310 15.2372 4.35430
43.8163 2.84090 International_Tables_Vol_C
Te 0.199 0.000 0.000 19.9644 4.81742 19.0138 0.42088 6.14487 28.5284 2.52390
70.8403 4.35200 International_Tables_Vol_C
loop_
_diffrn_radiation_wavelength
_diffrn_radiation_wavelength_wt
_diffrn_radiation_type
_diffrn_radiation_wavelength_id
1.540600 1.000 K\a~1~ 1
1.544400 0.500 K\a~2~ 2
loop_
_geom_angle_atom_site_label_1
_geom_angle_atom_site_label_2
_geom_angle_atom_site_label_3
_geom_angle
_geom_angle_site_symmetry_1
_geom_angle_site_symmetry_3
_geom_angle_publ_flag
Se Cu1 Se 111.4452(21) 1_555 3_565 n
Se Cu1 Se 108.4934(10) 1_555 102_455 n
Se Cu1 Se 108.4934(10) 1_555 104_555 n
Se Cu1 Te 0.0 1_555 1_555 n
Se Cu1 Te 111.4452(21) 1_555 3_565 n
Se Cu1 Te 108.4934(10) 1_555 102_455 n
Se Cu1 Te 108.4934(10) 1_555 104_555 n
Se Cu1 Se 108.4934(10) 3_565 102_455 n
Se Cu1 Se 108.4934(10) 3_565 104_555 n
Se Cu1 Te 111.4452(21) 3_565 1_555 n
Se Cu1 Te 0.0 3_565 3_565 n
Se Cu1 Te 108.4934(10) 3_565 102_455 n
Se Cu1 Te 108.4934(10) 3_565 104_555 n
Se Cu1 Se 111.4452(21) 102_455 104_555 n
Se Cu1 Te 108.4934(10) 102_455 1_555 n
Se Cu1 Te 108.4934(10) 102_455 3_565 n
Se Cu1 Te 0.0 102_455 102_455 n
Se Cu1 Te 111.4452(21) 102_455 104_555 n
Se Cu1 Te 108.4934(10) 104_555 1_555 n
Se Cu1 Te 108.4934(10) 104_555 3_565 n
Se Cu1 Te 111.4452(21) 104_555 102_455 n
Se Cu1 Te 0.0 104_555 104_555 n
Te Cu1 Te 111.4452(21) 1_555 3_565 n
Te Cu1 Te 108.4934(10) 1_555 102_455 n
Te Cu1 Te 108.4934(10) 1_555 104_555 n
Te Cu1 Te 108.4934(10) 3_565 102_455 n
Te Cu1 Te 108.4934(10) 3_565 104_555 n
Te Cu1 Te 111.4452(21) 102_455 104_555 n
Se ZN Se 111.1327(11) 1_555 2_555 n
Se ZN Se 106.1971(22) 1_555 3_555 n
Se ZN Se 111.1327(11) 1_555 4_555 n
Se ZN Te 0.0 1_555 1_555 n
Se ZN Te 111.1327(11) 1_555 2_555 n
Se ZN Te 106.1971(22) 1_555 3_555 n
Se ZN Te 111.1327(11) 1_555 4_555 n
Se ZN Se 111.1327(11) 2_555 3_555 n
Se ZN Se 106.1971(22) 2_555 4_555 n
Se ZN Te 111.1327(11) 2_555 1_555 n
Se ZN Te 0.0 2_555 2_555 n
Se ZN Te 111.1327(11) 2_555 3_555 n
Se ZN Te 106.1971(22) 2_555 4_555 n
Se ZN Se 111.1327(11) 3_555 4_555 n
Se ZN Te 106.1971(22) 3_555 1_555 n
Se ZN Te 111.1327(11) 3_555 2_555 n
Se ZN Te 0.0 3_555 3_555 n
Se ZN Te 111.1327(11) 3_555 4_555 n
Se ZN Te 111.1327(11) 4_555 1_555 n
Se ZN Te 106.1971(22) 4_555 2_555 n
Se ZN Te 111.1327(11) 4_555 3_555 n
Se ZN Te 0.0 4_555 4_555 n
Te ZN Te 111.1327(11) 1_555 2_555 n
Te ZN Te 106.1971(22) 1_555 3_555 n
Te ZN Te 111.1327(11) 1_555 4_555 n
Te ZN Te 111.1327(11) 2_555 3_555 n
Te ZN Te 106.1971(22) 2_555 4_555 n
Te ZN Te 111.1327(11) 3_555 4_555 n
Se Cu2 Se 111.1327(11) 1_555 2_555 n
Se Cu2 Se 106.1971(22) 1_555 3_555 n
Se Cu2 Se 111.1327(11) 1_555 4_555 n
Se Cu2 Te 0.0 1_555 1_555 n
Se Cu2 Te 111.1327(11) 1_555 2_555 n
Se Cu2 Te 106.1971(22) 1_555 3_555 n
Se Cu2 Te 111.1327(11) 1_555 4_555 n
Se Cu2 Se 111.1327(11) 2_555 3_555 n
Se Cu2 Se 106.1971(22) 2_555 4_555 n
Se Cu2 Te 111.1327(11) 2_555 1_555 n
Se Cu2 Te 0.0 2_555 2_555 n
Se Cu2 Te 111.1327(11) 2_555 3_555 n
Se Cu2 Te 106.1971(22) 2_555 4_555 n
Se Cu2 Se 111.1327(11) 3_555 4_555 n
Se Cu2 Te 106.1971(22) 3_555 1_555 n
Se Cu2 Te 111.1327(11) 3_555 2_555 n
Se Cu2 Te 0.0 3_555 3_555 n
Se Cu2 Te 111.1327(11) 3_555 4_555 n
Se Cu2 Te 111.1327(11) 4_555 1_555 n
Se Cu2 Te 106.1971(22) 4_555 2_555 n
Se Cu2 Te 111.1327(11) 4_555 3_555 n
Se Cu2 Te 0.0 4_555 4_555 n
Te Cu2 Te 111.1327(11) 1_555 2_555 n
Te Cu2 Te 106.1971(22) 1_555 3_555 n
Te Cu2 Te 111.1327(11) 1_555 4_555 n
Te Cu2 Te 111.1327(11) 2_555 3_555 n
Te Cu2 Te 106.1971(22) 2_555 4_555 n
Te Cu2 Te 111.1327(11) 3_555 4_555 n
Se Sn Se 109.4372(11) 101_445 102_455 n
Se Sn Se 109.5393(22) 101_445 103_555 n
Se Sn Se 109.4372(11) 101_445 104_545 n
Se Sn Te 0.0 101_445 101_445 n
Se Sn Te 109.4372(11) 101_445 102_455 n
Se Sn Te 109.5393(22) 101_445 103_555 n
Se Sn Te 109.4372(11) 101_445 104_545 n
Se Sn Se 109.4372(11) 102_455 103_555 n
Se Sn Se 109.5393(22) 102_455 104_545 n
Se Sn Te 109.4372(11) 102_455 101_445 n
Se Sn Te 0.0 102_455 102_455 n
Se Sn Te 109.4372(11) 102_455 103_555 n
Se Sn Te 109.5393(22) 102_455 104_545 n
Se Sn Se 109.4372(11) 103_555 104_545 n
Se Sn Te 109.5393(22) 103_555 101_445 n
Se Sn Te 109.4372(11) 103_555 102_455 n
Se Sn Te 0.0 103_555 103_555 n
Se Sn Te 109.4372(11) 103_555 104_545 n
Se Sn Te 109.4372(11) 104_545 101_445 n
Se Sn Te 109.5393(22) 104_545 102_455 n
Se Sn Te 109.4372(11) 104_545 103_555 n
Se Sn Te 0.0 104_545 104_545 n
Te Sn Te 109.4372(11) 101_445 102_455 n
Te Sn Te 109.5393(22) 101_445 103_555 n
Te Sn Te 109.4372(11) 101_445 104_545 n
Te Sn Te 109.4372(11) 102_455 103_555 n
Te Sn Te 109.5393(22) 102_455 104_545 n
Te Sn Te 109.4372(11) 103_555 104_545 n
Cu1 Se Cu1 111.3663(21) 1_555 6_555 n
Cu1 Se ZN 111.0023(11) 1_555 1_555 n
Cu1 Se Cu2 111.0023(11) 1_555 1_555 n
Cu1 Se Sn 107.7112(11) 1_555 101_554 n
Cu1 Se ZN 111.0023(11) 6_555 1_555 n
Cu1 Se Cu2 111.0023(11) 6_555 1_555 n
Cu1 Se Sn 107.7112(11) 6_555 101_554 n
ZN Se Cu2 0.0 1_555 1_555 n
ZN Se Sn 107.8682(22) 1_555 101_554 n
Cu2 Se Sn 107.8682(22) 1_555 101_554 n
Cu1 Te Cu1 111.3663(21) 1_555 6_555 n
Cu1 Te ZN 111.0023(11) 1_555 1_555 n
Cu1 Te Cu2 111.0023(11) 1_555 1_555 n
Cu1 Te Sn 107.7112(11) 1_555 101_554 n
Cu1 Te ZN 111.0023(11) 6_555 1_555 n
Cu1 Te Cu2 111.0023(11) 6_555 1_555 n
Cu1 Te Sn 107.7112(11) 6_555 101_554 n
ZN Te Cu2 0.0 1_555 1_555 n
ZN Te Sn 107.8682(22) 1_555 101_554 n
Cu2 Te Sn 107.8682(22) 1_555 101_554 n
loop_
_geom_bond_atom_site_label_1
_geom_bond_atom_site_label_2
_geom_bond_distance
_geom_bond_site_symmetry_2
_geom_bond_publ_flag
Cu1 Se 2.43291(4) 1_555 n
Cu1 Se 2.43291(4) 3_565 n
Cu1 Se 2.43291(4) 102_455 n
Cu1 Se 2.43291(4) 104_555 n
Cu1 Te 2.43291(4) 1_555 n
Cu1 Te 2.43291(4) 3_565 n
Cu1 Te 2.43291(4) 102_455 n
Cu1 Te 2.43291(4) 104_555 n
ZN Se 2.43582(4) 1_555 n
ZN Se 2.43582(4) 2_555 n
ZN Se 2.43582(4) 3_555 n
ZN Se 2.43582(4) 4_555 n
ZN Te 2.43582(4) 1_555 n
ZN Te 2.43582(4) 2_555 n
ZN Te 2.43582(4) 3_555 n
ZN Te 2.43582(4) 4_555 n
Cu2 Se 2.43582(4) 1_555 n
Cu2 Se 2.43582(4) 2_555 n
Cu2 Se 2.43582(4) 3_555 n
Cu2 Se 2.43582(4) 4_555 n
Cu2 Te 2.43582(4) 1_555 n
Cu2 Te 2.43582(4) 2_555 n
Cu2 Te 2.43582(4) 3_555 n
Cu2 Te 2.43582(4) 4_555 n
Sn Se 2.53537(4) 101_445 n
Sn Se 2.53537(4) 102_455 n
Sn Se 2.53537(4) 103_555 n
Sn Se 2.53537(4) 104_545 n
Sn Te 2.53537(4) 101_445 n
Sn Te 2.53537(4) 102_455 n
Sn Te 2.53537(4) 103_555 n
Sn Te 2.53537(4) 104_545 n
Se Cu1 2.43291(4) 1_555 n
Se Cu1 2.43291(4) 6_555 n
Se ZN 2.43582(4) 1_555 n
Se Cu2 2.43582(4) 1_555 n
Se Sn 2.53537(4) 101_554 n
Te Cu1 2.43291(4) 1_555 n
Te Cu1 2.43291(4) 6_555 n
Te ZN 2.43582(4) 1_555 n
Te Cu2 2.43582(4) 1_555 n
Te Sn 2.53537(4) 101_554 n
loop_
_pd_meas_counts_total
_pd_proc_ls_weight
_pd_proc_intensity_bkg_calc
_pd_calc_intensity_total
4514.0 0.0002215 3407.99048 3414.64575
4402.0 0.0002272 3407.79443 3414.93872
4421.0 0.0002262 3407.59814 3415.28735
4364.0 0.0002291 3407.40161 3415.69946
4439.0 0.0002253 3407.20483 3416.18628
4507.0 0.0002219 3407.00757 3416.75952
4385.0 0.0002281 3406.81055 3417.43506
4399.0 0.0002273 3406.61279 3418.23071
4467.0 0.0002239 3406.41528 3419.17090
4403.0 0.0002271 3406.21729 3420.28467
4374.0 0.0002286 3406.01904 3421.61182
4543.0 0.0002201 3405.82080 3423.20874
4479.0 0.0002233 3405.62207 3425.16553
4530.0 0.0002208 3405.42334 3427.63623
4381.0 0.0002283 3405.22437 3430.90796
4429.0 0.0002258 3405.02490 3435.51392
4344.0 0.0002302 3404.82520 3442.42188
4524.0 0.0002210 3404.62573 3453.28223
4405.0 0.0002270 3404.42578 3470.67700
4305.0 0.0002323 3404.22534 3498.25220
4352.0 0.0002298 3404.02490 3540.49463
4353.0 0.0002297 3403.82422 3601.99878
4497.0 0.0002224 3403.62354 3686.10645
4528.0 0.0002208 3403.42236 3793.07764
4599.0 0.0002174 3403.22095 3918.29590
4569.0 0.0002189 3403.01929 4050.66431
4620.0 0.0002165 3402.81763 4172.12402
4634.0 0.0002158 3402.61548 4259.63379
4714.0 0.0002121 3402.41333 4292.84863
4640.0 0.0002155 3402.21094 4264.10645
4774.0 0.0002095 3402.00830 4181.45996
4500.0 0.0002222 3401.80518 4063.62500
4654.0 0.0002149 3401.60205 3932.46851
4659.0 0.0002146 3401.39868 3806.32837
4558.0 0.0002194 3401.19507 3697.06885
4393.0 0.0002276 3400.99121 3611.76416
4418.0 0.0002263 3400.78711 3547.26318
4320.0 0.0002315 3400.58301 3503.14551
4405.0 0.0002270 3400.37842 3473.32593
4399.0 0.0002273 3400.17358 3454.20142
4380.0 0.0002283 3399.96875 3442.07104
4250.0 0.0002353 3399.76343 3434.24268
4319.0 0.0002315 3399.55835 3428.95728
4313.0 0.0002319 3399.35254 3425.15454
4323.0 0.0002313 3399.14673 3422.23950
4173.0 0.0002396 3398.94067 3419.88794
4333.0 0.0002308 3398.73438 3417.92358
4175.0 0.0002395 3398.52759 3416.24805
4215.0 0.0002372 3398.32104 3414.79688
4319.0 0.0002315 3398.11401 3413.53027
4319.0 0.0002315 3397.90674 3412.41577
4207.0 0.0002377 3397.69946 3411.43042
4307.0 0.0002322 3397.49170 3410.55420
4285.0 0.0002334 3397.28394 3409.77197
4288.0 0.0002332 3397.07568 3409.07178
4273.0 0.0002340 3396.86743 3408.44238
4194.0 0.0002384 3396.65894 3407.87622
4201.0 0.0002380 3396.45020 3407.36597
4220.0 0.0002370 3396.24121 3406.90552
4197.0 0.0002383 3396.03198 3406.48999
4298.0 0.0002327 3395.82275 3406.11597
4131.0 0.0002421 3395.61304 3405.77979
4309.0 0.0002321 3395.40308 3405.47900
4187.0 0.0002388 3395.19312 3405.21069
4193.0 0.0002385 3394.98267 3404.97412
4118.0 0.0002428 3394.77222 3404.76709
4202.0 0.0002380 3394.56152 3404.58911
4101.0 0.0002438 3394.35059 3404.43945
4136.0 0.0002418 3394.13916 3404.31763
4271.0 0.0002341 3393.92798 3404.22339
4174.0 0.0002396 3393.71631 3404.15723
4225.0 0.0002367 3393.50439 3404.11914
4149.0 0.0002410 3393.29248 3404.11035
4025.0 0.0002484 3393.07983 3404.13086
4174.0 0.0002396 3392.86768 3404.18311
4131.0 0.0002421 3392.65503 3404.26758
4151.0 0.0002409 3392.44189 3404.38672
4165.0 0.0002401 3392.22876 3404.54272
4062.0 0.0002462 3392.01538 3404.73755
4215.0 0.0002372 3391.80151 3404.97485
4179.0 0.0002393 3391.58789 3405.25806
4201.0 0.0002380 3391.37378 3405.59033
4098.0 0.0002440 3391.15967 3405.97681
4116.0 0.0002430 3390.94507 3406.42334
4063.0 0.0002461 3390.73022 3406.93579
4162.0 0.0002403 3390.51538 3407.52051
4128.0 0.0002422 3390.30029 3408.18604
4181.0 0.0002392 3390.08496 3408.94263
4173.0 0.0002396 3389.86938 3409.80029
4162.0 0.0002403 3389.65381 3410.77271
4191.0 0.0002386 3389.43774 3411.87598
4132.0 0.0002420 3389.22144 3413.12598
4179.0 0.0002393 3389.00513 3414.54492
4306.0 0.0002322 3388.78833 3416.15918
4200.0 0.0002381 3388.57129 3417.99731
4164.0 0.0002402 3388.35425 3420.09717
4080.0 0.0002451 3388.13696 3422.50220
4148.0 0.0002411 3387.91943 3425.26685
4259.0 0.0002348 3387.70166 3428.45728
4183.0 0.0002391 3387.48364 3432.15601
4175.0 0.0002395 3387.26563 3436.46973
4190.0 0.0002387 3387.04712 3441.53613
4276.0 0.0002339 3386.82861 3447.55200
4347.0 0.0002300 3386.60962 3454.82129
4340.0 0.0002304 3386.39063 3463.87231
4216.0 0.0002372 3386.17139 3475.70483
4276.0 0.0002339 3385.95190 3492.24951
4162.0 0.0002403 3385.73242 3517.16309
4403.0 0.0002271 3385.51245 3556.92432
4329.0 0.0002310 3385.29224 3622.07788
4516.0 0.0002214 3385.07202 3727.91211
4437.0 0.0002254 3384.85132 3893.14453
4804.0 0.0002082 3384.63062 4138.71875
4914.0 0.0002035 3384.40967 4477.96924
5126.0 0.0001951 3384.18848 4911.53955
5301.0 0.0001886 3383.96704 5416.46533
5573.0 0.0001794 3383.74561 5940.98096
5809.0 0.0001721 3383.52368 6403.15039
5945.0 0.0001682 3383.30151 6705.52734
6058.0 0.0001651 3383.07910 6775.23535
6163.0 0.0001623 3382.85669 6600.56445
6092.0 0.0001641 3382.63403 6228.24561
5787.0 0.0001728 3382.41089 5739.42822
5530.0 0.0001808 3382.18799 5221.94434
4976.0 0.0002010 3381.96460 4744.80566
4588.0 0.0002180 3381.74097 4348.13428
4533.0 0.0002206 3381.51733 4045.09155
4268.0 0.0002343 3381.29346 3829.89111
4075.0 0.0002454 3381.06934 3686.16992
4109.0 0.0002434 3380.84473 3594.63794
4101.0 0.0002438 3380.62036 3537.89258
4092.0 0.0002444 3380.39526 3502.64868
4064.0 0.0002461 3380.17041 3479.99048
4088.0 0.0002446 3379.94531 3464.48169
4044.0 0.0002473 3379.71973 3453.07446
4069.0 0.0002458 3379.49414 3444.13892
4040.0 0.0002475 3379.26807 3436.82202
4023.0 0.0002486 3379.04199 3430.66260
4003.0 0.0002498 3378.81567 3425.38525
3925.0 0.0002548 3378.58911 3420.81348
3946.0 0.0002534 3378.36255 3416.81738
4017.0 0.0002489 3378.13550 3413.30005
4021.0 0.0002487 3377.90845 3410.18384
3936.0 0.0002541 3377.68115 3407.40601
4003.0 0.0002498 3377.45337 3404.91699
4032.0 0.0002480 3377.22583 3402.67432
4057.0 0.0002465 3376.99780 3400.64355
3909.0 0.0002558 3376.76978 3398.79663
3925.0 0.0002548 3376.54126 3397.10913
3935.0 0.0002541 3376.31274 3395.56104
3965.0 0.0002522 3376.08398 3394.13501
4008.0 0.0002495 3375.85474 3392.81689
3955.0 0.0002528 3375.62549 3391.59326
4017.0 0.0002489 3375.39600 3390.45459
3895.0 0.0002567 3375.16650 3389.39038
3898.0 0.0002565 3374.93652 3388.39331
4001.0 0.0002499 3374.70654 3387.45630
3852.0 0.0002596 3374.47607 3386.57324
3847.0 0.0002599 3374.24561 3385.73853
3931.0 0.0002544 3374.01514 3384.94751
3877.0 0.0002579 3373.78394 3384.19629
3889.0 0.0002571 3373.55298 3383.48096
3787.0 0.0002641 3373.32153 3382.79834
3876.0 0.0002580 3373.09009 3382.14551
3827.0 0.0002613 3372.85840 3381.52002
3999.0 0.0002501 3372.62646 3380.91943
3827.0 0.0002613 3372.39429 3380.34131
3837.0 0.0002606 3372.16211 3379.78442
3866.0 0.0002587 3371.92944 3379.24658
3894.0 0.0002568 3371.69678 3378.72632
3861.0 0.0002590 3371.46387 3378.22266
3776.0 0.0002648 3371.23047 3377.73413
3771.0 0.0002652 3370.99707 3377.25952
3842.0 0.0002603 3370.76343 3376.79761
3806.0 0.0002627 3370.52954 3376.34790
3798.0 0.0002633 3370.29565 3375.90918
3993.0 0.0002504 3370.06152 3375.48120
3850.0 0.0002597 3369.82715 3375.06250
3807.0 0.0002627 3369.59253 3374.65308
3772.0 0.0002651 3369.35767 3374.25171
3803.0 0.0002630 3369.12256 3373.85840
3759.0 0.0002660 3368.88745 3373.47241
3887.0 0.0002573 3368.65186 3373.09351
3812.0 0.0002623 3368.41626 3372.72070
3771.0 0.0002652 3368.18042 3372.35425
3827.0 0.0002613 3367.94434 3371.99316
3714.0 0.0002693 3367.70825 3371.63745
3775.0 0.0002649 3367.47144 3371.28662
3817.0 0.0002620 3367.23486 3370.94043
3773.0 0.0002650 3366.99829 3370.59912
3783.0 0.0002643 3366.76099 3370.26147
3766.0 0.0002655 3366.52368 3369.92798
3681.0 0.0002717 3366.28613 3369.59839
3690.0 0.0002710 3366.04858 3369.27197
3792.0 0.0002637 3365.81079 3368.94897
3785.0 0.0002642 3365.57275 3368.62915
3725.0 0.0002685 3365.33423 3368.31226
3658.0 0.0002734 3365.09570 3367.99805
3721.0 0.0002687 3364.85718 3367.68628
3627.0 0.0002757 3364.61841 3367.37744
3734.0 0.0002678 3364.37915 3367.07056
3770.0 0.0002653 3364.13989 3365.04053
3751.0 0.0002666 3363.90039 3364.77905
3627.0 0.0002757 3363.66064 3363.65454
3699.0 0.0002703 3363.42065 3363.41455
3757.0 0.0002662 3363.18066 3363.17432
3764.0 0.0002657 3362.94043 3362.93408
3722.0 0.0002687 3362.69971 3362.69360
3740.0 0.0002674 3362.45923 3362.45288
3692.0 0.0002709 3362.21826 3362.21191
3765.0 0.0002656 3361.97705 3361.97095
3653.0 0.0002737 3361.73584 3361.72949
3648.0 0.0002741 3361.49438 3361.48804
3791.0 0.0002638 3361.25269 3361.24634
3702.0 0.0002701 3361.01074 3361.00439
3689.0 0.0002711 3360.76855 3360.76221
3790.0 0.0002639 3360.52637 3360.52002
3790.0 0.0002639 3360.28369 3360.27734
3553.0 0.0002815 3360.04126 3360.03467
3640.0 0.0002747 3359.79834 3359.79175
3719.0 0.0002689 3359.55493 3359.54858
3637.0 0.0002750 3359.31177 3359.30542
3619.0 0.0002763 3359.06812 3359.06177
3657.0 0.0002734 3358.82446 3358.81812
3594.0 0.0002782 3358.58057 3358.57422
3638.0 0.0002749 3358.33643 3358.33008
3622.0 0.0002761 3358.09229 3358.08569
3599.0 0.0002779 3357.84790 3357.84131
3625.0 0.0002759 3357.60303 3357.59644
3700.0 0.0002703 3357.35840 3357.35156
3608.0 0.0002772 3357.11304 3357.10669
3672.0 0.0002723 3356.86792 3356.86133
3706.0 0.0002698 3356.62231 3356.61572
3573.0 0.0002799 3356.37671 3356.37012
3543.0 0.0002822 3356.13086 3356.12427
3695.0 0.0002706 3355.88477 3355.87817
3704.0 0.0002700 3355.63843 3355.63184
3701.0 0.0002702 3355.39209 3355.38525
3579.0 0.0002794 3355.14551 3355.13867
3583.0 0.0002791 3354.89844 3354.89185
3641.0 0.0002746 3354.65161 3354.64478
3566.0 0.0002804 3354.40430 3354.39746
3570.0 0.0002801 3354.15674 3354.15015
3708.0 0.0002697 3353.90918 3353.90234
3641.0 0.0002746 3353.66138 3353.65454
3635.0 0.0002751 3353.41333 3353.40649
3654.0 0.0002737 3353.16504 3353.15845
3775.0 0.0002649 3352.91650 3352.90991
3647.0 0.0002742 3352.66821 3352.66138
3732.0 0.0002680 3352.41943 3352.41260
3725.0 0.0002685 3352.17017 3352.16333
3649.0 0.0002740 3351.92114 3351.91431
3703.0 0.0002701 3351.67188 3351.66479
3725.0 0.0002685 3351.42236 3351.41528
3796.0 0.0002634 3351.17236 3351.16553
3682.0 0.0002716 3350.92261 3350.91553
3905.0 0.0002561 3350.67236 3350.66528
3808.0 0.0002626 3350.42212 3350.41504
3832.0 0.0002610 3350.17139 3350.16455
3721.0 0.0002687 3349.92065 3349.91382
3679.0 0.0002718 3349.66992 3349.66260
3641.0 0.0002746 3349.41870 3349.41162
3757.0 0.0002662 3349.16724 3349.16016
3754.0 0.0002664 3348.91577 3348.90869
3708.0 0.0002697 3348.66431 3348.65698
3753.0 0.0002665 3348.41211 3348.40527
3701.0 0.0002702 3348.16016 3348.15308
3730.0 0.0002681 3347.90771 3347.90063
3782.0 0.0002644 3347.65552 3348.50977
3742.0 0.0002672 3347.40283 3348.27808
3689.0 0.0002711 3347.15015 3348.46875
3720.0 0.0002688 3346.89697 3348.24854
3747.0 0.0002669 3346.64355 3348.02979
3715.0 0.0002692 3346.39014 3347.81177
3610.0 0.0002770 3346.13672 3347.59497
3732.0 0.0002680 3345.88281 3347.37964
3785.0 0.0002642 3345.62891 3347.16528
3722.0 0.0002687 3345.37476 3346.95264
3746.0 0.0002670 3345.12036 3346.74146
3803.0 0.0002630 3344.86572 3346.53149
3723.0 0.0002686 3344.61108 3346.32373
3826.0 0.0002614 3344.35596 3346.11768
3835.0 0.0002608 3344.10107 3345.91333
3923.0 0.0002549 3343.84570 3345.71118
3873.0 0.0002582 3343.59033 3345.51099
3875.0 0.0002581 3343.33472 3345.31323
3906.0 0.0002560 3343.07861 3345.11816
3867.0 0.0002586 3342.82275 3344.92554
3963.0 0.0002523 3342.56641 3344.73560
4013.0 0.0002492 3342.30981 3344.54883
3939.0 0.0002539 3342.05322 3344.36523
3913.0 0.0002556 3341.79663 3344.18506
4030.0 0.0002481 3341.53931 3344.00854
4039.0 0.0002476 3341.28223 3343.83569
3845.0 0.0002601 3341.02490 3343.66748
3993.0 0.0002504 3340.76733 3343.50366
3953.0 0.0002530 3340.50952 3343.34448
3848.0 0.0002599 3340.25171 3343.19092
3790.0 0.0002639 3339.99341 3343.04248
3857.0 0.0002593 3339.73535 3342.90063
3698.0 0.0002704 3339.47681 3342.76514
3750.0 0.0002667 3339.21802 3342.63672
3806.0 0.0002627 3338.95923 3342.51611
3574.0 0.0002798 3338.70020 3342.40381
3694.0 0.0002707 3338.44092 3342.30078
3662.0 0.0002731 3338.18164 3342.20728
3662.0 0.0002731 3337.92188 3342.12451
3634.0 0.0002752 3337.66211 3342.05322
3602.0 0.0002776 3337.40210 3341.99512
3512.0 0.0002847 3337.14209 3341.95093
3509.0 0.0002850 3336.88159 3341.92188
3511.0 0.0002848 3336.62109 3341.90991
3571.0 0.0002800 3336.36035 3341.91626
3594.0 0.0002782 3336.09937 3341.94336
3588.0 0.0002787 3335.83838 3341.99292
3551.0 0.0002816 3335.57715 3342.06812
3499.0 0.0002858 3335.31567 3342.17090
3440.0 0.0002907 3335.05396 3342.30469
3523.0 0.0002838 3334.79248 3342.47388
3545.0 0.0002821 3334.53027 3342.68213
3544.0 0.0002822 3334.26807 3342.93433
3514.0 0.0002846 3334.00586 3343.23657
3448.0 0.0002900 3333.74316 3343.59521
3377.0 0.0002961 3333.48047 3344.01831
3445.0 0.0002903 3333.21753 3344.51465
3410.0 0.0002933 3332.95435 3345.09595
3520.0 0.0002841 3332.69116 3345.77417
3318.0 0.0003014 3332.42773 3346.56519
3369.0 0.0002968 3332.16406 3347.48779
3545.0 0.0002821 3331.90039 3348.56494
3370.0 0.0002967 3331.63623 3349.82397
3364.0 0.0002973 3331.37207 3351.29907
3455.0 0.0002894 3331.10767 3353.03271
3315.0 0.0003017 3330.84326 3355.07935
3335.0 0.0002999 3330.57837 3357.50732
3409.0 0.0002933 3330.31348 3360.40942
3426.0 0.0002919 3330.04858 3363.91992
3451.0 0.0002898 3329.78345 3368.25366
3440.0 0.0002907 3329.51782 3373.79639
3473.0 0.0002879 3329.25244 3381.29858
3378.0 0.0002960 3328.98633 3392.22998
3580.0 0.0002793 3328.72021 3409.33472
3617.0 0.0002765 3328.45435 3437.35693
3611.0 0.0002769 3328.18799 3483.61816
3655.0 0.0002736 3327.92139 3557.91089
3691.0 0.0002709 3327.65479 3671.03638
3825.0 0.0002614 3327.38794 3831.66504
3904.0 0.0002561 3327.12085 4041.62646
4049.0 0.0002470 3326.85352 4290.85303
4094.0 0.0002443 3326.58618 4552.99170
4228.0 0.0002365 3326.31860 4783.67676
4257.0 0.0002349 3326.05103 4930.03955
4240.0 0.0002358 3325.78296 4957.70215
4347.0 0.0002300 3325.51489 4868.22607
4276.0 0.0002339 3325.24658 4686.47998
4051.0 0.0002469 3324.97803 4448.74414
3893.0 0.0002569 3324.70947 4197.09424
3733.0 0.0002679 3324.44067 3966.68213
3617.0 0.0002765 3324.17163 3777.30664
3493.0 0.0002863 3323.90259 3634.47754
3288.0 0.0003041 3323.63330 3534.20630
3388.0 0.0002952 3323.36353 3467.87964
3331.0 0.0003002 3323.09399 3425.85645
3316.0 0.0003016 3322.82422 3399.73145
3421.0 0.0002923 3322.55396 3383.27637
3320.0 0.0003012 3322.28369 3372.42139
3342.0 0.0002992 3322.01343 3364.74536
3217.0 0.0003108 3321.74292 3358.92090
3317.0 0.0003015 3321.47192 3354.25098
3249.0 0.0003078 3321.20117 3350.36719
3328.0 0.0003005 3320.92993 3347.06250
3345.0 0.0002990 3320.65869 3344.20801
3183.0 0.0003142 3320.38745 3341.71753
3324.0 0.0003008 3320.11572 3339.52368
3342.0 0.0002992 3319.84399 3337.57642
3222.0 0.0003104 3319.57202 3335.83521
3268.0 0.0003060 3319.30005 3334.26807
3358.0 0.0002978 3319.02759 3332.84863
3277.0 0.0003052 3318.75513 3331.55469
3336.0 0.0002998 3318.48242 3330.36987
3297.0 0.0003033 3318.20972 3329.27808
3378.0 0.0002960 3317.93677 3328.26782
3195.0 0.0003130 3317.66357 3327.32813
3276.0 0.0003053 3317.39014 3326.45044
3289.0 0.0003040 3317.11670 3325.62744
3256.0 0.0003071 3316.84302 3324.85229
3298.0 0.0003032 3316.56909 3324.12012
3232.0 0.0003094 3316.29492 3323.42603
3318.0 0.0003014 3316.02100 3322.76514
3246.0 0.0003081 3315.74634 3322.13477
3221.0 0.0003105 3315.47192 3321.53198
3250.0 0.0003077 3315.19727 3320.95313
3222.0 0.0003104 3314.92236 3320.39673
3233.0 0.0003093 3314.64746 3319.85986
3358.0 0.0002978 3314.37207 3319.34131
3250.0 0.0003077 3314.09644 3318.83911
3279.0 0.0003050 3313.82104 3318.35205
3266.0 0.0003062 3313.54541 3317.87842
3226.0 0.0003100 3313.26953 3317.41748
3301.0 0.0003029 3312.99341 3316.96753
3250.0 0.0003077 3312.71704 3316.52856
3234.0 0.0003092 3312.44092 3316.09888
3148.0 0.0003177 3312.16431 3315.67798
3161.0 0.0003164 3311.88745 3315.26563
3150.0 0.0003175 3311.61060 3314.86060
3267.0 0.0003061 3311.33350 3314.46216
3181.0 0.0003144 3311.05615 3314.07056
3316.0 0.0003016 3310.77881 3313.68506
3191.0 0.0003134 3310.50146 3313.30469
3339.0 0.0002995 3310.22339 3312.92969
3140.0 0.0003185 3309.94556 3312.55933
3196.0 0.0003129 3309.66748 3312.19385
3272.0 0.0003056 3309.38916 3311.83228
3256.0 0.0003071 3309.11108 3311.47437
3342.0 0.0002992 3308.83228 3311.12012
3166.0 0.0003159 3308.55347 3310.76953
3279.0 0.0003050 3308.27466 3310.42212
3123.0 0.0003202 3307.99561 3310.07715
3176.0 0.0003149 3307.71631 3309.73560
3222.0 0.0003104 3307.43701 3309.39600
3259.0 0.0003068 3307.15723 3309.05933
3193.0 0.0003132 3306.87744 3308.72461
3201.0 0.0003124 3306.59766 3308.39258
3260.0 0.0003067 3306.31763 3308.06201
3242.0 0.0003085 3306.03735 3307.73340
3217.0 0.0003108 3305.75684 3307.40698
3149.0 0.0003176 3305.47632 3307.08203
3173.0 0.0003152 3305.19580 3306.75879
3138.0 0.0003187 3304.91479 3306.43677
3161.0 0.0003164 3304.63379 3306.11646
3173.0 0.0003152 3304.35254 3305.79736
3089.0 0.0003237 3304.07104 3305.47949
3191.0 0.0003134 3303.78955 3305.16260
3274.0 0.0003054 3303.50806 3304.84717
3345.0 0.0002990 3303.22583 3303.67407
3266.0 0.0003062 3302.94385 3303.38086
3149.0 0.0003176 3302.66187 3303.08789
3231.0 0.0003095 3302.37939 3302.36938
3220.0 0.0003106 3302.09692 3302.08691
3113.0 0.0003212 3301.81421 3301.80420
3112.0 0.0003213 3301.53149 3301.52148
3022.0 0.0003309 3301.24829 3301.23853
3247.0 0.0003080 3300.96533 3300.95532
3284.0 0.0003045 3300.68188 3300.67188
3184.0 0.0003141 3300.39844 3300.38843
3132.0 0.0003193 3300.11475 3300.10474
3119.0 0.0003206 3299.83081 3299.82104
3139.0 0.0003186 3299.54688 3299.53687
3188.0 0.0003137 3299.26270 3299.25269
3059.0 0.0003269 3298.97852 3298.96851
3174.0 0.0003151 3298.69409 3298.68408
3316.0 0.0003016 3298.40942 3298.39941
3280.0 0.0003049 3298.12476 3298.11450
3200.0 0.0003125 3297.83984 3297.82959
3108.0 0.0003218 3297.55469 3297.54443
3164.0 0.0003161 3297.26953 3297.25928
3210.0 0.0003115 3296.98389 3296.97388
3164.0 0.0003161 3296.69849 3296.68823
3166.0 0.0003159 3296.41260 3296.40259
3176.0 0.0003149 3296.12695 3296.11670
3152.0 0.0003173 3295.84082 3295.83057
3213.0 0.0003112 3295.55444 3295.54419
3207.0 0.0003118 3295.26831 3295.25806
3265.0 0.0003063 3294.98169 3294.97144
3323.0 0.0003009 3294.69507 3294.68481
3274.0 0.0003054 3294.40845 3294.39795
3142.0 0.0003183 3294.12134 3294.11084
3183.0 0.0003142 3293.83423 3293.82373
3302.0 0.0003028 3293.54688 3293.53638
3192.0 0.0003133 3293.25952 3293.24902
3265.0 0.0003063 3292.97192 3292.96143
3425.0 0.0002920 3292.68408 3292.67358
3478.0 0.0002875 3292.39624 3292.38574
3358.0 0.0002978 3292.10815 3292.09766
3330.0 0.0003003 3291.81982 3291.80933
3378.0 0.0002960 3291.53149 3291.52100
3345.0 0.0002990 3291.24292 3291.23242
3338.0 0.0002996 3290.95435 3290.94360
3187.0 0.0003138 3290.66528 3290.65479
3257.0 0.0003070 3290.37646 3290.36572
3136.0 0.0003189 3290.08740 3290.07666
3122.0 0.0003203 3289.79785 3289.78735
3144.0 0.0003181 3289.50830 3289.49780
3062.0 0.0003266 3289.21899 3289.20825
3044.0 0.0003285 3288.92920 3288.91846
3145.0 0.0003180 3288.63916 3288.62842
3170.0 0.0003155 3288.34888 3288.33838
3138.0 0.0003187 3288.05884 3288.04810
3138.0 0.0003187 3287.76855 3287.75757
3119.0 0.0003206 3287.47778 3287.46704
3100.0 0.0003226 3287.18726 3287.17651
3080.0 0.0003247 3286.89624 3286.88550
3183.0 0.0003142 3286.60547 3286.59448
3165.0 0.0003160 3286.31421 3286.30347
3138.0 0.0003187 3286.02295 3286.01196
3079.0 0.0003248 3285.73145 3285.72070
3125.0 0.0003200 3285.43994 3285.42896
3144.0 0.0003181 3285.14819 3285.13721
3097.0 0.0003229 3284.85596 3284.84521
3152.0 0.0003173 3284.56421 3284.55322
3153.0 0.0003172 3284.27197 3284.26099
3201.0 0.0003124 3283.97974 3283.96875
3160.0 0.0003165 3283.68701 3283.67603
3102.0 0.0003224 3283.39429 3283.38354
3276.0 0.0003053 3283.10156 3283.09058
3072.0 0.0003255 3282.80859 3282.79761
3164.0 0.0003161 3282.51538 3282.50439
3089.0 0.0003237 3282.22241 3340.29663
3051.0 0.0003278 3281.92896 3341.20679
3181.0 0.0003144 3281.63525 3342.15503
3204.0 0.0003121 3281.34180 3371.84741
3247.0 0.0003080 3281.04810 3373.46753
3309.0 0.0003022 3280.75391 3375.14941
3241.0 0.0003085 3280.45972 3376.89526
3165.0 0.0003160 3280.16528 3378.70752
3225.0 0.0003101 3279.87109 3380.58911
3223.0 0.0003103 3279.57642 3382.54395
3203.0 0.0003122 3279.28149 3384.57422
3169.0 0.0003156 3278.98682 3386.68408
3172.0 0.0003153 3278.69165 3388.87769
3115.0 0.0003210 3278.39648 3391.15771
3281.0 0.0003048 3278.10132 3393.52905
3129.0 0.0003196 3277.80591 3395.99585
3110.0 0.0003215 3277.51025 3398.56348
3184.0 0.0003141 3277.21436 3401.23560
3207.0 0.0003118 3276.91870 3404.01782
3137.0 0.0003188 3276.62231 3406.91626
3152.0 0.0003173 3276.32617 3409.93628
3221.0 0.0003105 3276.02979 3413.08423
3051.0 0.0003278 3275.73340 3416.36743
3112.0 0.0003213 3275.43677 3419.79224
3103.0 0.0003223 3275.14014 3423.36597
3081.0 0.0003246 3274.84302 3427.09741
3137.0 0.0003188 3274.54614 3430.99536
3051.0 0.0003278 3274.24878 3435.06909
3078.0 0.0003249 3273.95142 3439.32788
3107.0 0.0003219 3273.65381 3443.78296
3190.0 0.0003135 3273.35620 3448.44580
3172.0 0.0003153 3273.05859 3453.32788
3149.0 0.0003176 3272.76074 3458.44312
3085.0 0.0003241 3272.46240 3463.80664
3083.0 0.0003244 3272.16431 3469.43140
3077.0 0.0003250 3271.86597 3475.33496
3050.0 0.0003279 3271.56763 3481.53638
3215.0 0.0003110 3271.26880 3488.05371
3211.0 0.0003114 3270.96997 3494.90698
3197.0 0.0003128 3270.67114 3502.11987
3180.0 0.0003145 3270.37207 3509.71875
3166.0 0.0003159 3270.07300 3517.72559
3288.0 0.0003041 3269.77344 3526.17236
3226.0 0.0003100 3269.47412 3535.09131
3272.0 0.0003056 3269.17456 3544.51587
3253.0 0.0003074 3268.87476 3554.48193
3356.0 0.0002980 3268.57471 3565.03247
3485.0 0.0002869 3268.27466 3576.21509
3330.0 0.0003003 3267.97437 3588.07422
3629.0 0.0002756 3267.67432 3600.66675
3640.0 0.0002747 3267.37378 3614.05469
3792.0 0.0002637 3267.07300 3628.30273
3723.0 0.0002686 3266.77246 3643.48267
3798.0 0.0002633 3266.47144 3659.68042
3861.0 0.0002590 3266.17041 3676.98389
3930.0 0.0002545 3265.86938 3695.49194
3984.0 0.0002510 3265.56787 3715.31958
3930.0 0.0002545 3265.26660 3736.59521
3967.0 0.0002521 3264.96484 3760.73486
3955.0 0.0002528 3264.66309 3785.36841
3891.0 0.0002570 3264.36133 3811.93213
3882.0 0.0002576 3264.05933 3841.25537
3907.0 0.0002560 3263.75708 3872.32104
3916.0 0.0002554 3263.45483 3906.01074
3928.0 0.0002546 3263.15259 3942.63086
3942.0 0.0002537 3262.85010 3982.52124
4160.0 0.0002404 3262.54736 4026.07324
4258.0 0.0002349 3262.24463 4073.75610
4111.0 0.0002432 3261.94165 4126.09717
4257.0 0.0002349 3261.63843 4183.71094
4329.0 0.0002310 3261.33545 4247.32813
4539.0 0.0002203 3261.03198 4317.82520
4625.0 0.0002162 3260.72852 4396.17822
4644.0 0.0002153 3260.42505 4483.61182
4912.0 0.0002036 3260.12109 4581.58008
5051.0 0.0001980 3259.81714 4691.81641
5126.0 0.0001951 3259.51318 4816.41699
5204.0 0.0001922 3259.20898 4957.97852
5300.0 0.0001887 3258.90454 5119.72852
5484.0 0.0001823 3258.60010 5305.55371
5763.0 0.0001735 3258.29565 5520.48389
5947.0 0.0001682 3257.99097 5770.95801
6423.0 0.0001557 3257.68628 6065.43311
6685.0 0.0001496 3257.38110 6415.72803
7298.0 0.0001370 3257.07593 6839.91699
7932.0 0.0001261 3256.77075 7368.37598
8698.0 0.0001150 3256.46558 8055.35742
9732.0 0.0001028 3256.15991 9001.47461
11217.0 0.0000892 3255.85425 10386.68652
13494.0 0.0000741 3255.54858 12510.22559
17425.0 0.0000574 3255.24268 15820.54590
23108.0 0.0000433 3254.93677 20906.04492
30276.0 0.0000330 3254.63062 28405.96875
39352.0 0.0000254 3254.32446 38830.14844
50792.0 0.0000197 3254.01807 52303.04688
64732.0 0.0000154 3253.71118 68248.57813
79895.0 0.0000125 3253.40454 85015.38281
95148.0 0.0000105 3253.09766 99633.50000
106681.0 9.37e-6 3252.79102 108577.05469
111139.0 9.00e-6 3252.48389 109995.60938
110154.0 9.08e-6 3252.17651 104727.82031
102195.0 9.79e-6 3251.86938 94484.01563
83901.0 0.0000119 3251.56177 80764.89063
65094.0 0.0000154 3251.25415 65505.83203
51298.0 0.0000195 3250.94653 50880.67188
38142.0 0.0000262 3250.63867 38370.29297
25974.0 0.0000385 3250.33081 28534.23438
18421.0 0.0000543 3250.02271 21291.20898
14573.0 0.0000686 3249.71436 16230.06250
11624.0 0.0000860 3249.40601 12828.46582
10021.0 0.0000998 3249.09741 10590.12695
8917.0 0.0001121 3248.78906 9111.31836
8005.0 0.0001249 3248.48022 8104.41602
7159.0 0.0001397 3248.17139 7384.12402
6746.0 0.0001482 3247.86230 6839.95068
6032.0 0.0001658 3247.55322 6409.15088
5822.0 0.0001718 3247.24390 6056.46094
5437.0 0.0001839 3246.93457 5761.50684
5052.0 0.0001979 3246.62500 5511.24121
4864.0 0.0002056 3246.31543 5296.73047
4727.0 0.0002116 3246.00562 5111.44531
4527.0 0.0002209 3245.69580 4950.35498
4424.0 0.0002260 3245.38574 4809.45605
4401.0 0.0002272 3245.07593 4685.53174
4252.0 0.0002352 3244.76538 4576.06445
4095.0 0.0002442 3244.45508 4478.91797
4123.0 0.0002425 3244.14453 4392.35449
4134.0 0.0002419 3243.83398 4314.95654
3876.0 0.0002580 3243.52344 4245.54297
4081.0 0.0002450 3243.21240 4183.10449
3834.0 0.0002608 3242.90137 4126.81738
3862.0 0.0002589 3242.59009 4075.98755
3793.0 0.0002636 3242.27905 4030.01978
3816.0 0.0002621 3241.96777 3988.41553
3845.0 0.0002601 3241.65601 3950.76782
3740.0 0.0002674 3241.34448 3916.73975
3687.0 0.0002712 3241.03296 3886.04590
3664.0 0.0002729 3240.72095 3858.47461
3693.0 0.0002708 3240.40894 3833.86963
3695.0 0.0002706 3240.09692 3812.13159
3666.0 0.0002728 3239.78467 3793.22876
3565.0 0.0002805 3239.47217 3777.22485
3540.0 0.0002825 3239.15991 3764.31787
3541.0 0.0002824 3238.84717 3754.93970
3726.0 0.0002684 3238.53442 3749.97412
3474.0 0.0002879 3238.22168 3751.13110
3625.0 0.0002759 3237.90894 3761.53833
3664.0 0.0002729 3237.59570 3786.49414
3690.0 0.0002710 3237.28247 3834.05322
3736.0 0.0002677 3236.96924 3915.02344
3942.0 0.0002537 3236.65576 4041.63281
4073.0 0.0002455 3236.34229 4224.46875
4314.0 0.0002318 3236.02856 4467.88965
4526.0 0.0002209 3235.71484 4764.26074
4766.0 0.0002098 3235.40088 5086.56152
5184.0 0.0001929 3235.08667 5381.10303
5321.0 0.0001879 3234.77271 5576.80615
5311.0 0.0001883 3234.45850 5626.97217
5517.0 0.0001813 3234.14404 5541.54346
5249.0 0.0001905 3233.82959 5356.33643
5008.0 0.0001997 3233.51514 5098.66211
4625.0 0.0002162 3233.20044 4798.44385
4453.0 0.0002246 3232.88550 4496.93555
4070.0 0.0002457 3232.57056 4228.64258
3858.0 0.0002592 3232.25537 4010.11206
3744.0 0.0002671 3231.94019 3843.29907
3638.0 0.0002749 3231.62500 3722.06470
3543.0 0.0002822 3231.30933 3636.92090
3489.0 0.0002866 3230.99390 3578.09302
3395.0 0.0002946 3230.67798 3537.16455
3303.0 0.0003028 3230.36255 3507.77832
3527.0 0.0002835 3230.04639 3485.62622
3449.0 0.0002899 3229.73047 3468.02710
3351.0 0.0002984 3229.41431 3453.40552
3420.0 0.0002924 3229.09814 3440.85107
3397.0 0.0002944 3228.78174 3429.83496
3306.0 0.0003025 3228.46533 3420.02539
3414.0 0.0002929 3228.14893 3411.19531
3309.0 0.0003022 3227.83203 3403.17847
3308.0 0.0003023 3227.51538 3395.85181
3282.0 0.0003047 3227.19849 3389.11328
3306.0 0.0003025 3226.88135 3382.88110
3241.0 0.0003085 3226.56421 3377.09033
3268.0 0.0003060 3226.24707 3371.68701
3249.0 0.0003078 3225.92944 3366.62549
3297.0 0.0003033 3225.61206 3361.86548
3216.0 0.0003109 3225.29443 3357.37817
3268.0 0.0003060 3224.97681 3353.13354
3211.0 0.0003114 3224.65894 3349.10889
3245.0 0.0003082 3224.34106 3345.28320
3279.0 0.0003050 3224.02295 3341.64038
3250.0 0.0003077 3223.70483 3338.16333
3172.0 0.0003153 3223.38647 3334.83789
3238.0 0.0003088 3223.06812 3331.65405
3256.0 0.0003071 3222.74976 3328.60059
3228.0 0.0003098 3222.43091 3325.66699
3373.0 0.0002965 3222.11230 3265.14526
3218.0 0.0003108 3221.79370 3263.58447
3201.0 0.0003124 3221.47461 3262.08618
3294.0 0.0003036 3221.15552 3231.64722
3240.0 0.0003086 3220.83667 3230.84473
3216.0 0.0003109 3220.51709 3230.07446
3192.0 0.0003133 3220.19775 3229.33398
3263.0 0.0003065 3219.87842 3228.62036
3160.0 0.0003165 3219.55884 3227.93164
3169.0 0.0003156 3219.23901 3227.26563
3170.0 0.0003155 3218.91919 3226.62061
3163.0 0.0003162 3218.59937 3225.99438
3246.0 0.0003081 3218.27954 3225.38623
3270.0 0.0003058 3217.95923 3224.79443
3207.0 0.0003118 3217.63892 3224.21777
3214.0 0.0003111 3217.31860 3223.65503
3210.0 0.0003115 3216.99829 3223.10547
3144.0 0.0003181 3216.67773 3222.57959
3179.0 0.0003146 3216.35718 3222.05371
3193.0 0.0003132 3216.03638 3221.53784
3241.0 0.0003085 3215.71558 3221.03198
3123.0 0.0003202 3215.39453 3220.54077
3323.0 0.0003009 3215.07349 3220.05933
3279.0 0.0003050 3214.75220 3219.57935
3215.0 0.0003110 3214.43091 3219.10669
3155.0 0.0003170 3214.10938 3218.64111
3305.0 0.0003026 3213.78809 3218.18555
3296.0 0.0003034 3213.46631 3217.73242
3357.0 0.0002979 3213.14453 3217.28540
3347.0 0.0002988 3212.82275 3216.84375
3211.0 0.0003114 3212.50098 3216.40723
3312.0 0.0003019 3212.17896 3215.97559
3273.0 0.0003055 3211.85693 3215.54834
3196.0 0.0003129 3211.53467 3215.12573
3125.0 0.0003200 3211.21216 3214.70654
3117.0 0.0003208 3210.88989 3214.29175
3145.0 0.0003180 3210.56738 3213.88062
3087.0 0.0003239 3210.24463 3213.47314
3214.0 0.0003111 3209.92212 3213.06836
3101.0 0.0003225 3209.59912 3212.66699
3112.0 0.0003213 3209.27637 3212.26880
3144.0 0.0003181 3208.95313 3211.87305
3151.0 0.0003174 3208.62988 3211.47974
3110.0 0.0003215 3208.30664 3211.08960
3128.0 0.0003197 3207.98340 3210.70117
3076.0 0.0003251 3207.65991 3210.31592
2992.0 0.0003342 3207.33643 3209.93188
3111.0 0.0003214 3207.01270 3209.55029
3090.0 0.0003236 3206.68921 3209.17090
3164.0 0.0003161 3206.36523 3208.79370
2992.0 0.0003342 3206.04126 3208.41772
3011.0 0.0003321 3205.71704 3208.04370
3110.0 0.0003215 3205.39307 3207.67163
3095.0 0.0003231 3205.06885 3207.30078
3084.0 0.0003243 3204.74438 3206.93164
3119.0 0.0003206 3204.41992 3206.56372
3033.0 0.0003297 3204.09570 3206.19800
3131.0 0.0003194 3203.77100 3205.83276
3046.0 0.0003283 3203.44604 3204.19092
3080.0 0.0003247 3203.12134 3203.85400
3025.0 0.0003306 3202.79639 3203.51807
3138.0 0.0003187 3202.47144 3203.18237
3021.0 0.0003310 3202.14624 3202.21582
3042.0 0.0003287 3201.82104 3201.89355
3106.0 0.0003220 3201.49561 3201.57153
3061.0 0.0003267 3201.17017 3201.24951
3084.0 0.0003243 3200.84473 3200.92773
2980.0 0.0003356 3200.51904 3200.60620
3001.0 0.0003332 3200.19360 3200.28442
3097.0 0.0003229 3199.86768 3199.96289
3056.0 0.0003272 3199.54175 3199.64209
3030.0 0.0003300 3199.21582 3199.32080
3031.0 0.0003299 3198.88965 3199.00000
3065.0 0.0003263 3198.56348 3198.67944
3088.0 0.0003238 3198.23730 3198.35962
2998.0 0.0003336 3197.91089 3198.03931
2959.0 0.0003380 3197.58447 3197.71997
2933.0 0.0003409 3197.25806 3197.40088
3126.0 0.0003199 3196.93115 3197.08228
2952.0 0.0003388 3196.60449 3196.76416
3140.0 0.0003185 3196.27759 3196.44653
3056.0 0.0003272 3195.95093 3196.12988
3019.0 0.0003312 3195.62354 3195.81348
3079.0 0.0003248 3195.29663 3195.49829
2999.0 0.0003334 3194.96924 3195.18408
3041.0 0.0003288 3194.64209 3194.87134
2881.0 0.0003471 3194.31470 3194.55933
3016.0 0.0003316 3193.98730 3194.24902
3025.0 0.0003306 3193.65967 3193.94019
3047.0 0.0003282 3193.33203 3193.63354
3038.0 0.0003292 3193.00415 3193.32861
2992.0 0.0003342 3192.67627 3193.02637
2972.0 0.0003365 3192.34839 3192.72754
3015.0 0.0003317 3192.02051 3192.43140
3048.0 0.0003281 3191.69238 3192.13965
2980.0 0.0003356 3191.36426 3191.85278
2999.0 0.0003334 3191.03589 3191.57153
3062.0 0.0003266 3190.70752 3191.29688
3065.0 0.0003263 3190.37891 3191.03076
3062.0 0.0003266 3190.05054 3190.77466
3019.0 0.0003312 3189.72168 3190.53101
3102.0 0.0003224 3189.39307 3190.30298
2997.0 0.0003337 3189.06421 3190.09546
3047.0 0.0003282 3188.73511 3189.91626
3042.0 0.0003287 3188.40625 3189.77856
3047.0 0.0003282 3188.07739 3189.70825
2939.0 0.0003403 3187.74805 3189.75073
3130.0 0.0003195 3187.41870 3189.98242
3058.0 0.0003270 3187.08936 3190.51807
3111.0 0.0003214 3186.76001 3191.50684
3073.0 0.0003254 3186.43042 3193.10669
3048.0 0.0003281 3186.10083 3195.43433
3098.0 0.0003228 3185.77100 3198.49805
3099.0 0.0003227 3185.44141 3202.10767
2993.0 0.0003341 3185.11133 3205.76538
3018.0 0.0003313 3184.78149 3208.68066
3020.0 0.0003311 3184.45142 3210.24609
3069.0 0.0003258 3184.12134 3210.57959
2997.0 0.0003337 3183.79102 3210.13452
3075.0 0.0003252 3183.46094 3209.00415
3004.0 0.0003329 3183.13037 3206.97607
3059.0 0.0003269 3182.79980 3204.07861
3001.0 0.0003332 3182.46948 3200.74316
2951.0 0.0003389 3182.13867 3197.43970
3055.0 0.0003273 3181.80811 3194.38110
3021.0 0.0003310 3181.47729 3191.58130
2853.0 0.0003505 3181.14648 3189.06372
3013.0 0.0003319 3180.81519 3186.89575
3028.0 0.0003303 3180.48438 3185.10791
3024.0 0.0003307 3180.15332 3183.67065
2939.0 0.0003403 3179.82202 3182.52539
3122.0 0.0003203 3179.49072 3181.60767
3025.0 0.0003306 3179.15942 3180.85889
3037.0 0.0003293 3178.82788 3180.22974
3005.0 0.0003328 3178.49634 3179.68164
3010.0 0.0003322 3178.16455 3179.18774
2947.0 0.0003393 3177.83301 3178.72974
3013.0 0.0003319 3177.50146 3178.29590
3000.0 0.0003333 3177.16943 3177.87939
2909.0 0.0003438 3176.83740 3177.47583
3004.0 0.0003329 3176.50537 3177.08276
2870.0 0.0003484 3176.17334 3176.69775
2864.0 0.0003492 3175.84106 3176.31958
2917.0 0.0003428 3175.50903 3175.94678
2941.0 0.0003400 3175.17651 3175.57886
2948.0 0.0003392 3174.84399 3175.21484
2997.0 0.0003337 3174.51147 3174.85449
2877.0 0.0003476 3174.17896 3174.49634
3006.0 0.0003327 3173.84644 3174.14111
2978.0 0.0003358 3173.51343 3173.78784
3017.0 0.0003315 3173.18091 3173.43701
2952.0 0.0003388 3172.84790 3173.08716
2958.0 0.0003381 3172.51489 3172.73877
2975.0 0.0003361 3172.18188 3172.39209
2925.0 0.0003419 3171.84863 3172.04614
2932.0 0.0003411 3171.51538 3171.70117
2964.0 0.0003374 3171.18237 3171.35693
2935.0 0.0003407 3170.84888 3171.01367
2960.0 0.0003378 3170.51538 3170.67090
2851.0 0.000351 3170.18213 3170.32935
2872.0 0.0003482 3169.84839 3169.98730
2964.0 0.0003374 3169.51465 3169.64673
2926.0 0.0003418 3169.18115 3169.30640
2898.0 0.0003451 3168.84741 3168.96582
2865.0 0.0003490 3168.51343 3168.62622
3059.0 0.0003269 3168.17920 3168.28662
2978.0 0.0003358 3167.84521 3167.94702
2831.0 0.000353 3167.51123 3167.60864
2862.0 0.0003494 3167.17700 3167.26929
2915.0 0.0003431 3166.84277 3166.93091
2913.0 0.0003433 3166.50854 3166.59229
2838.0 0.000352 3166.17407 3166.25391
2872.0 0.0003482 3165.83936 3165.91577
2861.0 0.0003495 3165.50513 3165.57788
2832.0 0.000353 3165.17041 3165.23975
2928.0 0.0003415 3164.83569 3164.90210
2799.0 0.000357 3164.50098 3164.56470
2813.0 0.000355 3164.16602 3164.22681
2858.0 0.0003499 3163.83130 3163.88940
2939.0 0.0003403 3163.49609 3163.55176
2910.0 0.0003436 3163.16138 3163.21436
2881.0 0.0003471 3162.82617 3162.87720
2950.0 0.0003390 3162.49097 3162.53955
2856.0 0.0003501 3162.15576 3162.20239
2900.0 0.0003448 3161.82031 3161.86499
2947.0 0.0003393 3161.48486 3161.52759
2974.0 0.0003362 3161.14941 3161.19019
2936.0 0.0003406 3160.81396 3160.85303
2922.0 0.0003422 3160.47827 3160.51587
2967.0 0.0003370 3160.14258 3160.17847
2931.0 0.0003412 3159.80688 3159.84106
2909.0 0.0003438 3159.47095 3159.50415
2963.0 0.0003375 3159.13501 3159.16650
2895.0 0.0003454 3158.79907 3158.82935
2905.0 0.0003442 3158.46313 3158.49219
2898.0 0.0003451 3158.12720 3158.15454
2890.0 0.0003460 3157.79102 3157.81738
2957.0 0.0003382 3157.45459 3157.48022
2903.0 0.0003445 3157.11841 3157.14258
2890.0 0.0003460 3156.78223 3156.80518
2727.0 0.000367 3156.44556 3156.46777
2941.0 0.0003400 3156.10938 3156.13013
2898.0 0.0003451 3155.77271 3155.79272
2866.0 0.0003489 3155.43579 3155.45508
2875.0 0.0003478 3155.09937 3155.11768
2888.0 0.0003463 3154.76270 3154.78003
2872.0 0.0003482 3154.42554 3154.44214
2886.0 0.0003465 3154.08862 3154.10449
2861.0 0.0003495 3153.75171 3153.76685
2837.0 0.000352 3153.41479 3154.32642
2833.0 0.000353 3153.07764 3154.00757
2799.0 0.000357 3152.74048 3153.68872
2818.0 0.000355 3152.40332 3153.37012
2904.0 0.0003444 3152.06616 3153.04077
2943.0 0.0003398 3151.72876 3153.17554
2944.0 0.0003397 3151.39136 3152.86890
2848.0 0.000351 3151.05371 3152.56323
2885.0 0.0003466 3150.71631 3152.25195
2862.0 0.0003494 3150.37891 3151.94165
2922.0 0.0003422 3150.04126 3151.63940
2978.0 0.0003358 3149.70337 3151.33789
2942.0 0.0003399 3149.36548 3151.03784
2902.0 0.0003446 3149.02783 3150.73535
2834.0 0.000353 3148.68994 3150.43774
2886.0 0.0003465 3148.35181 3150.14209
2862.0 0.0003494 3148.01392 3149.84717
2850.0 0.000351 3147.67578 3149.55396
2834.0 0.000353 3147.33765 3149.26221
2913.0 0.0003433 3146.99951 3148.97241
3007.0 0.0003326 3146.66138 3148.68433
2937.0 0.0003405 3146.32275 3148.39795
2976.0 0.0003360 3145.98438 3148.11377
2947.0 0.0003393 3145.64600 3147.83130
2912.0 0.0003434 3145.30762 3147.55127
2959.0 0.0003380 3144.96899 3147.27344
2923.0 0.0003421 3144.63037 3146.99805
3038.0 0.0003292 3144.29175 3146.72534
3124.0 0.0003201 3143.95288 3146.45508
2963.0 0.0003375 3143.61401 3146.18774
3136.0 0.0003189 3143.27539 3145.92358
3180.0 0.0003145 3142.93652 3145.66260
3195.0 0.0003130 3142.59741 3145.40503
3321.0 0.0003011 3142.25830 3145.15112
3322.0 0.0003010 3141.91919 3144.90088
3281.0 0.0003048 3141.58008 3144.65479
3300.0 0.0003030 3141.24097 3144.41309
3242.0 0.0003085 3140.90161 3144.17603
3244.0 0.0003083 3140.56226 3143.94385
3101.0 0.0003225 3140.22290 3143.71680
3123.0 0.0003202 3139.88354 3143.49561
2994.0 0.0003340 3139.54395 3143.28052
2972.0 0.0003365 3139.20459 3143.07153
2873.0 0.0003481 3138.86499 3142.86963
2942.0 0.0003399 3138.52515 3144.25293
3034.0 0.0003296 3138.18555 3144.09863
2894.0 0.0003455 3137.84570 3143.95386
2891.0 0.0003459 3137.50610 3143.81958
2833.0 0.000353 3137.16626 3143.69629
2917.0 0.0003428 3136.82617 3144.37744
2864.0 0.0003492 3136.48633 3144.29492
2866.0 0.0003489 3136.14648 3144.22656
2828.0 0.000354 3135.80615 3144.17383
2900.0 0.0003448 3135.46606 3144.13770
2752.0 0.000363 3135.12598 3144.11963
2840.0 0.000352 3134.78564 3144.12109
2921.0 0.0003423 3134.44531 3144.14404
2837.0 0.000352 3134.10498 3144.18970
2910.0 0.0003436 3133.76465 3144.26123
2937.0 0.0003405 3133.42407 3144.36011
2835.0 0.000353 3133.08374 3144.48926
2816.0 0.000355 3132.74316 3144.65186
2821.0 0.000354 3132.40259 3144.85181
2918.0 0.0003427 3132.06177 3145.09180
2871.0 0.0003483 3131.72119 3145.37646
2843.0 0.000352 3131.38062 3145.71167
2914.0 0.0003432 3131.03979 3146.10229
2863.0 0.0003493 3130.69897 3146.55566
2910.0 0.0003436 3130.35791 3147.07837
2886.0 0.0003465 3130.01709 3147.67993
2827.0 0.000354 3129.67603 3148.37085
2827.0 0.000354 3129.33496 3149.16260
2856.0 0.0003501 3128.99390 3150.06958
2929.0 0.0003414 3128.65259 3151.10840
2935.0 0.0003407 3128.31177 3152.30005
2815.0 0.000355 3127.97021 3153.66772
2778.0 0.000360 3127.62915 3155.23999
2885.0 0.0003466 3127.28760 3157.05396
2935.0 0.0003407 3126.94629 3159.15015
2840.0 0.000352 3126.60498 3161.58496
2930.0 0.0003413 3126.26343 3164.42358
2857.0 0.0003500 3125.92212 3167.75024
2951.0 0.0003389 3125.58032 3171.67334
2930.0 0.0003413 3125.23877 3176.33374
2902.0 0.0003446 3124.89722 3181.92163
2918.0 0.0003427 3124.55542 3188.70850
2837.0 0.000352 3124.21362 3197.11890
2964.0 0.0003374 3123.87183 3207.87036
2904.0 0.0003444 3123.53027 3222.23682
2927.0 0.0003416 3123.18823 3242.47437
2985.0 0.0003350 3122.84619 3272.37964
3043.0 0.0003286 3122.50415 3317.71655
3214.0 0.0003111 3122.16235 3386.12500
3150.0 0.0003175 3121.82031 3486.01660
3309.0 0.0003022 3121.47827 3624.16113
3323.0 0.0003009 3121.13599 3801.95410
3541.0 0.0002824 3120.79370 4010.05908
3802.0 0.0002630 3120.45166 4220.51465
3940.0 0.0002538 3120.10938 4382.66260
4075.0 0.0002454 3119.76685 4448.20020
4047.0 0.0002471 3119.42480 4417.76514
3975.0 0.0002516 3119.08228 4333.42969
3902.0 0.0002563 3118.73975 4225.50244
3817.0 0.0002620 3118.39722 4094.45093
3686.0 0.0002713 3118.05469 3937.66479
3490.0 0.0002865 3117.71240 3772.07129
3454.0 0.0002895 3117.36963 3620.79272
3185.0 0.0003140 3117.02710 3496.49878
3189.0 0.0003136 3116.68433 3401.49609
3056.0 0.0003272 3116.34180 3332.77271
3129.0 0.0003196 3115.99902 3285.10010
3020.0 0.0003311 3115.65601 3252.90771
2927.0 0.0003416 3115.31323 3231.31714
2924.0 0.0003420 3114.97046 3216.62866
2958.0 0.0003381 3114.62744 3206.34595
2972.0 0.0003365 3114.28467 3198.93848
2960.0 0.0003378 3113.94165 3193.52515
2830.0 0.000353 3113.59863 3189.60425
2830.0 0.000353 3113.25537 3186.88794
3021.0 0.0003310 3112.91235 3185.20801
2896.0 0.0003453 3112.56934 3184.46484
2830.0 0.000353 3112.22583 3184.60889
2888.0 0.0003463 3111.88257 3185.62915
2965.0 0.0003373 3111.53955 3187.54932
2981.0 0.0003355 3111.19629 3190.43091
2910.0 0.0003436 3110.85278 3194.37573
2987.0 0.0003348 3110.50952 3199.53223
2919.0 0.0003426 3110.16626 3206.11060
2991.0 0.0003343 3109.82275 3214.40991
2948.0 0.0003392 3109.47925 3224.86011
3009.0 0.0003323 3109.13574 3238.12769
3022.0 0.0003309 3108.79224 3255.33374
3036.0 0.0003294 3108.44873 3278.48120
3059.0 0.0003269 3108.10498 3311.17871
3012.0 0.0003320 3107.76123 3359.65186
3163.0 0.0003162 3107.41772 3433.73877
3350.0 0.0002985 3107.07397 3547.02393
3324.0 0.0003008 3106.73022 3715.19189
3756.0 0.0002662 3106.38647 3951.93213
4049.0 0.0002470 3106.04272 4262.33105
4366.0 0.0002290 3105.69873 4632.86670
4823.0 0.0002073 3105.35498 5017.02441
5211.0 0.0001919 3105.01099 5323.97461
5386.0 0.0001857 3104.66699 5457.41064
5556.0 0.0001800 3104.32324 5408.57031
5317.0 0.0001881 3103.97925 5257.79980
4984.0 0.0002006 3103.63501 5071.09424
4708.0 0.0002124 3103.29102 4852.32764
4399.0 0.0002273 3102.94702 4585.92285
4123.0 0.0002425 3102.60278 4292.55811
3928.0 0.0002546 3102.25854 4015.74536
3558.0 0.0002811 3101.91431 3783.80469
3387.0 0.0002952 3101.57007 3604.21362
3201.0 0.0003124 3101.22583 3472.87207
3054.0 0.0003274 3100.88184 3380.89844
2935.0 0.0003407 3100.53735 3318.09302
3080.0 0.0003247 3100.19312 3275.27100
2977.0 0.0003359 3099.84863 3245.35522
2969.0 0.0003368 3099.50439 3223.52759
2953.0 0.0003386 3099.15967 3206.80542
2989.0 0.0003346 3098.81543 3193.45581
2891.0 0.0003459 3098.47070 3182.47607
2917.0 0.0003428 3098.12646 3173.26001
2925.0 0.0003419 3097.78174 3165.41260
2919.0 0.0003426 3097.43726 3158.65869
2923.0 0.0003421 3097.09277 3152.79395
2929.0 0.0003414 3096.74829 3147.65796
2835.0 0.000353 3096.40356 3143.12793
2783.0 0.000359 3096.05884 3139.10571
2847.0 0.000351 3095.71411 3135.51123
2810.0 0.000356 3095.36938 3132.27979
2816.0 0.000355 3095.02466 3129.35864
2869.0 0.0003486 3094.67993 3126.70557
2841.0 0.000352 3094.33521 3124.28320
2828.0 0.000354 3093.99023 3122.06226
2885.0 0.0003466 3093.64551 3120.01660
2863.0 0.0003493 3093.30078 3118.12549
2869.0 0.0003486 3092.95557 3116.36914
2811.0 0.000356 3092.61060 3115.34521
2810.0 0.000356 3092.26587 3113.82910
2805.0 0.000357 3091.92065 3112.40820
2734.0 0.000366 3091.57568 3111.07300
2807.0 0.000356 3091.23071 3109.81470
2731.0 0.000366 3090.88599 3108.93066
2795.0 0.000358 3090.54077 3107.80957
2901.0 0.0003447 3090.19556 3106.74561
2771.0 0.000361 3089.85059 3105.73340
2832.0 0.000353 3089.50537 3104.76807
2719.0 0.000368 3089.16040 3103.84570
2879.0 0.0003473 3088.81519 3102.96240
2838.0 0.000352 3088.46997 3102.11475
2869.0 0.0003486 3088.12451 3101.30103
2845.0 0.000351 3087.77954 3100.51758
2869.0 0.0003486 3087.43433 3099.76245
2849.0 0.000351 3087.08887 3099.03320
2944.0 0.0003397 3086.74365 3098.32861
2802.0 0.000357 3086.39844 3096.73267
2842.0 0.000352 3086.05298 3096.09009
2882.0 0.0003470 3085.70776 3095.46655
2822.0 0.000354 3085.36230 3094.86133
2805.0 0.000357 3085.01685 3094.27295
2880.0 0.0003472 3084.67163 3093.24951
2824.0 0.000354 3084.32617 3092.70093
2876.0 0.0003477 3083.98071 3092.16577
2863.0 0.0003493 3083.63525 3091.64429
2851.0 0.000351 3083.28979 3091.13525
2871.0 0.0003483 3082.94434 3090.63818
2901.0 0.0003447 3082.59863 3090.15210
2906.0 0.0003441 3082.25317 3089.67725
2802.0 0.000357 3081.90771 3089.21313
2806.0 0.000356 3081.56226 3088.75903
2770.0 0.000361 3081.21655 3088.31421
2800.0 0.000357 3080.87109 3087.87964
2789.0 0.000359 3080.52563 3087.45386
2764.0 0.000362 3080.17993 3087.03760
2768.0 0.000361 3079.83398 3086.63013
2790.0 0.000358 3079.48853 3086.23169
2784.0 0.000359 3079.14282 3085.84155
2822.0 0.000354 3078.79712 3085.46069
2821.0 0.000354 3078.45142 3085.08887
2828.0 0.000354 3078.10571 3084.72559
2845.0 0.000351 3077.76001 3084.37109
2831.0 0.000353 3077.41431 3084.02539
2838.0 0.000352 3077.06860 3083.68945
2838.0 0.000352 3076.72266 3083.36304
2865.0 0.0003490 3076.37695 3083.04590
2778.0 0.000360 3076.03125 3082.73926
2961.0 0.0003377 3075.68530 3082.44287
2754.0 0.000363 3075.33936 3082.15796
2774.0 0.000360 3074.99365 3081.88379
2857.0 0.0003500 3074.64795 3081.62207
2799.0 0.000357 3074.30225 3081.37329
2916.0 0.0003429 3073.95630 3081.13794
2902.0 0.0003446 3073.61035 3080.91675
3073.0 0.0003254 3073.26440 3080.71143
2884.0 0.0003467 3072.91846 3080.52271
2954.0 0.0003385 3072.57275 3080.35205
2951.0 0.0003389 3072.22681 3080.20068
2993.0 0.0003341 3071.88086 3080.07056
2888.0 0.0003463 3071.53491 3079.96362
2966.0 0.0003372 3071.18896 3079.88232
2906.0 0.0003441 3070.84302 3078.24731
2884.0 0.0003467 3070.49707 3078.25659
2908.0 0.0003439 3070.15112 3078.29883
2849.0 0.000351 3069.80493 3078.37793
2900.0 0.0003448 3069.45923 3077.70068
2829.0 0.000353 3069.11304 3077.88477
2782.0 0.000359 3068.76709 3078.12158
2920.0 0.0003425 3068.42114 3078.41772
2901.0 0.0003447 3068.07520 3078.78247
2887.0 0.0003464 3067.72900 3079.22534
2870.0 0.0003484 3067.38306 3079.75830
2893.0 0.0003457 3067.03711 3080.39551
2821.0 0.000354 3066.69092 3081.15454
2904.0 0.0003444 3066.34473 3082.05566
2941.0 0.0003400 3065.99902 3083.12402
2889.0 0.0003461 3065.65283 3084.39209
2852.0 0.0003506 3065.30664 3085.89746
2871.0 0.0003483 3064.96045 3087.68921
2888.0 0.0003463 3064.61475 3089.82959
2925.0 0.0003419 3064.26855 3092.39844
2918.0 0.0003427 3063.92236 3095.50024
2816.0 0.000355 3063.57642 3099.27808
2801.0 0.000357 3063.23022 3103.94092
2899.0 0.0003449 3062.88403 3109.81299
2945.0 0.0003396 3062.53809 3117.43237
2909.0 0.0003438 3062.19214 3127.73291
2896.0 0.0003453 3061.84595 3142.28760
2815.0 0.000355 3061.49976 3163.59180
2985.0 0.0003350 3061.15356 3195.21509
2997.0 0.0003337 3060.80762 3241.58691
2986.0 0.0003349 3060.46118 3307.17700
3132.0 0.0003193 3060.11523 3394.99097
3177.0 0.0003148 3059.76904 3504.19385
3310.0 0.0003021 3059.42285 3625.84155
3453.0 0.0002896 3059.07690 3737.15820
3422.0 0.0002922 3058.73071 3804.40991
3455.0 0.0002894 3058.38452 3809.16992
3468.0 0.0002884 3058.03857 3769.26294
3517.0 0.0002843 3057.69238 3715.05469
3348.0 0.0002987 3057.34619 3659.10791
3346.0 0.0002989 3057.00000 3594.44141
3217.0 0.0003108 3056.65430 3513.88452
3141.0 0.0003184 3056.30786 3425.05103
3093.0 0.0003233 3055.96167 3341.73291
2994.0 0.0003340 3055.61572 3272.11841
2952.0 0.0003388 3055.26953 3218.00000
2970.0 0.0003367 3054.92334 3177.94531
2924.0 0.0003420 3054.57739 3149.29590
2884.0 0.0003467 3054.23145 3129.15234
2998.0 0.0003336 3053.88525 3114.92725
2921.0 0.0003423 3053.53906 3104.62305
2900.0 0.0003448 3053.19287 3096.86670
2866.0 0.0003489 3052.84692 3090.78003
2875.0 0.0003478 3052.50073 3085.83252
2945.0 0.0003396 3052.15479 3081.70508
2836.0 0.000353 3051.80859 3078.19702
2844.0 0.000352 3051.46240 3075.17358
2782.0 0.000359 3051.11646 3072.53784
2892.0 0.0003458 3050.77026 3070.21899
2858.0 0.0003499 3050.42432 3068.16040
2768.0 0.000361 3050.07813 3066.31812
2729.0 0.000366 3049.73193 3064.65723
2712.0 0.000369 3049.38623 3063.15015
2677.0 0.000374 3049.04004 3061.77271
2824.0 0.000354 3048.69409 3060.50708
2794.0 0.000358 3048.34790 3059.33740
2908.0 0.0003439 3048.00195 3058.25122
2792.0 0.000358 3047.65601 3057.23706
2744.0 0.000364 3047.31006 3056.28613
2823.0 0.000354 3046.96387 3055.39063
2824.0 0.000354 3046.61768 3054.54370
2837.0 0.000352 3046.27197 3053.74048
2863.0 0.0003493 3045.92578 3052.97559
2870.0 0.0003484 3045.58008 3052.24487
2763.0 0.000362 3045.23389 3051.54468
2770.0 0.000361 3044.88794 3050.87183
2913.0 0.0003433 3044.54199 3050.22339
2688.0 0.000372 3044.19629 3049.59766
2765.0 0.000362 3043.85010 3048.99194
2822.0 0.000354 3043.50415 3048.40454
2827.0 0.000354 3043.15845 3047.83374
2840.0 0.000352 3042.81250 3047.27759
2809.0 0.000356 3042.46655 3046.73584
2856.0 0.0003501 3042.12061 3046.20630
2734.0 0.000366 3041.77490 3045.68823
2726.0 0.000367 3041.42896 3045.18091
2806.0 0.000356 3041.08325 3044.68335
2832.0 0.000353 3040.73730 3044.19482
2771.0 0.000361 3040.39136 3043.71460
2865.0 0.0003490 3040.04565 3043.24170
2783.0 0.000359 3039.69971 3042.77612
2795.0 0.000358 3039.35400 3042.31714
2798.0 0.000357 3039.00830 3041.86426
2799.0 0.000357 3038.66260 3041.41699
2869.0 0.0003486 3038.31689 3040.97510
2725.0 0.000367 3037.97119 3040.53809
2755.0 0.000363 3037.62524 3040.10571
2762.0 0.000362 3037.27954 3039.67749
2778.0 0.000360 3036.93408 3039.25342
2739.0 0.000365 3036.58838 3038.83301
2782.0 0.000359 3036.24268 3038.41602
2753.0 0.000363 3035.89697 3038.00269
2856.0 0.0003501 3035.55127 3037.59204
2822.0 0.000354 3035.20581 3037.18481
2809.0 0.000356 3034.86011 3036.77979
2783.0 0.000359 3034.51465 3036.37793
2792.0 0.000358 3034.16895 3035.97827
2798.0 0.000357 3033.82349 3035.58081
2675.0 0.000374 3033.47803 3035.18555
2771.0 0.000361 3033.13257 3034.79248
2788.0 0.000359 3032.78687 3034.40112
2760.0 0.000362 3032.44141 3034.01172
2844.0 0.000352 3032.09595 3033.62402
2869.0 0.0003486 3031.75049 3033.23828
2849.0 0.000351 3031.40503 3032.85400
2776.0 0.000360 3031.05957 3032.47119
2851.0 0.000351 3030.71436 3032.08936
2848.0 0.000351 3030.36890 3031.70972
3011.0 0.0003321 3030.02344 3031.33081
2908.0 0.0003439 3029.67822 3031.38403
3055.0 0.0003273 3029.33276 3031.01538
2956.0 0.0003383 3028.98755 3030.64771
2992.0 0.0003342 3028.64233 3030.28174
2926.0 0.0003418 3028.29712 3030.30518
2952.0 0.0003388 3027.95190 3029.94800
2909.0 0.0003438 3027.60669 3029.80884
2833.0 0.000353 3027.26147 3029.45825
2797.0 0.000358 3026.91626 3029.10962
2785.0 0.000359 3026.57104 3028.76221
2812.0 0.000356 3026.22607 3028.61084
2831.0 0.000353 3025.88086 3028.26904
2920.0 0.0003425 3025.53564 3027.92896
2778.0 0.000360 3025.19067 3027.59058
2769.0 0.000361 3024.84570 3026.64185
2876.0 0.0003477 3024.50049 3026.31860
2832.0 0.000353 3024.15552 3025.99634
2800.0 0.000357 3023.81055 3025.67505
2737.0 0.000365 3023.46558 3025.35498
2725.0 0.000367 3023.12085 3024.73169
2771.0 0.000361 3022.77588 3024.41992
2793.0 0.000358 3022.43091 3024.10938
2816.0 0.000355 3022.08618 3023.80005
2850.0 0.000351 3021.74121 3023.49170
2801.0 0.000357 3021.39648 3023.18481
2763.0 0.000362 3021.05151 3022.87915
2741.0 0.000365 3020.70679 3022.57471
2765.0 0.000362 3020.36230 3022.27148
2716.0 0.000368 3020.01733 3021.96997
2860.0 0.0003497 3019.67285 3021.66968
2769.0 0.000361 3019.32788 3021.37085
2798.0 0.000357 3018.98364 3021.07397
2768.0 0.000361 3018.63892 3020.77881
2804.0 0.000357 3018.29419 3020.48462
2765.0 0.000362 3017.94971 3020.19360
2833.0 0.000353 3017.60522 3019.90332
2783.0 0.000359 3017.26074 3019.61597
2719.0 0.000368 3016.91650 3019.32983
2829.0 0.000353 3016.57202 3019.04688
2897.0 0.0003452 3016.22729 3018.76587
2868.0 0.0003487 3015.88306 3018.48706
2920.0 0.0003425 3015.53882 3018.21094
2947.0 0.0003393 3015.19434 3017.93799
2878.0 0.0003475 3014.85010 3017.66748
2828.0 0.000354 3014.50610 3017.40015
2851.0 0.000351 3014.16162 3017.13599
2871.0 0.0003483 3013.81763 3016.87524
2811.0 0.000356 3013.47314 3016.61816
2778.0 0.000360 3013.12915 3016.36450
2667.0 0.000375 3012.78516 3016.11523
2774.0 0.000360 3012.44116 3015.86987
2820.0 0.000355 3012.09717 3015.62915
2774.0 0.000360 3011.75293 3015.39355
2706.0 0.000370 3011.40894 3015.16211
2821.0 0.000354 3011.06519 3014.93652
2742.0 0.000365 3010.72119 3014.71680
2877.0 0.0003476 3010.37720 3014.50244
2804.0 0.000357 3010.03345 3014.29517
2969.0 0.0003368 3009.68970 3014.09448
2875.0 0.0003478 3009.34570 3013.90112
2845.0 0.000351 3009.00220 3013.71606
2875.0 0.0003478 3008.65820 3013.53906
2805.0 0.000357 3008.31494 3013.37085
2827.0 0.000354 3007.97119 3013.21265
2776.0 0.000360 3007.62720 3013.06470
2871.0 0.0003483 3007.28394 3012.92798
2789.0 0.000359 3006.94043 3012.80298
2755.0 0.000363 3006.59668 3012.69116
2793.0 0.000358 3006.25342 3012.59351
2833.0 0.000353 3005.90991 3012.51074
2866.0 0.0003489 3005.56641 3012.44458
2760.0 0.000362 3005.22339 3012.39648
2810.0 0.000356 3004.87988 3012.36694
2791.0 0.000358 3004.53662 3012.35938
2766.0 0.000362 3004.19336 3012.37451
2861.0 0.0003495 3003.85010 3012.41479
2809.0 0.000356 3003.50708 3012.48291
2848.0 0.000351 3003.16382 3012.58105
2864.0 0.0003492 3002.82080 3012.71289
2897.0 0.0003452 3002.47778 3012.88184
2897.0 0.0003452 3002.13452 3013.09131
2809.0 0.000356 3001.79150 3013.34619
2845.0 0.000351 3001.44873 3013.65088
2897.0 0.0003452 3001.10596 3014.01245
2782.0 0.000359 3000.76270 3014.43652
2881.0 0.0003471 3000.42017 3014.93164
2855.0 0.0003503 3000.07739 3015.50562
3004.0 0.0003329 2999.73462 3016.17017
2736.0 0.000365 2999.39209 3016.93628
2786.0 0.000359 2999.04932 3017.81934
2827.0 0.000354 2998.70654 3018.83594
2855.0 0.0003503 2998.36401 3020.00610
2831.0 0.000353 2998.02148 3021.35352
2896.0 0.0003453 2997.67896 3022.90796
2837.0 0.000352 2997.33667 3024.70459
2802.0 0.000357 2996.99414 3026.78638
2867.0 0.0003488 2996.65161 3029.20532
2904.0 0.0003444 2996.30933 3032.02979
2810.0 0.000356 2995.96704 3035.34180
2855.0 0.0003503 2995.62500 3039.24561
2825.0 0.000354 2995.28271 3043.87964
2941.0 0.0003400 2994.94043 3049.42725
2889.0 0.0003461 2994.59839 3056.13086
2908.0 0.0003439 2994.25635 3064.35742
2892.0 0.0003458 2993.91431 3074.67285
2809.0 0.000356 2993.57227 3087.97876
2920.0 0.0003425 2993.23022 3105.80322
3026.0 0.0003305 2992.88843 3130.54980
3094.0 0.0003232 2992.54688 3165.84448
3134.0 0.0003191 2992.20483 3216.49731
3283.0 0.0003046 2991.86304 3288.06567
3202.0 0.0003123 2991.52148 3385.87549
3451.0 0.0002898 2991.17969 3526.27637
3476.0 0.0002877 2990.83813 3676.97510
3684.0 0.0002714 2990.49658 3831.66504
3845.0 0.0002601 2990.15503 3985.61768
4003.0 0.0002498 2989.81372 4064.45288
4037.0 0.0002477 2989.47217 4118.79834
3988.0 0.0002508 2989.13062 4149.80273
4035.0 0.0002478 2988.78955 4150.28906
3925.0 0.0002548 2988.44824 4100.99561
3816.0 0.0002621 2988.10693 4020.69263
3729.0 0.0002682 2987.76563 3906.69800
3674.0 0.0002722 2987.42456 3797.06787
3536.0 0.0002828 2987.08350 3696.53247
3430.0 0.0002915 2986.74243 3596.60620
3375.0 0.0002963 2986.40137 3496.43042
3188.0 0.0003137 2986.06030 3405.20752
3084.0 0.0003243 2985.71948 3330.01807
3133.0 0.0003192 2985.37866 3272.05005
3058.0 0.0003270 2985.03784 3229.13184
2954.0 0.0003385 2984.69727 3198.10718
3026.0 0.0003305 2984.35645 3175.94775
2959.0 0.0003380 2984.01587 3160.12500
2955.0 0.0003384 2983.67529 3148.66772
3020.0 0.0003311 2983.33472 3140.20776
3105.0 0.0003221 2982.99414 3133.84961
2977.0 0.0003359 2982.65381 3129.00757
3049.0 0.0003280 2982.31348 3125.32031
3105.0 0.0003221 2981.97314 3122.53857
3121.0 0.0003204 2981.63281 3120.49683
3055.0 0.0003273 2981.29272 3119.07129
3028.0 0.0003303 2980.95239 3118.16675
3092.0 0.0003234 2980.61206 3117.71338
3208.0 0.0003117 2980.27222 3117.65381
3099.0 0.0003227 2979.93237 3117.94507
3136.0 0.0003189 2979.59229 3118.55151
3226.0 0.0003100 2979.25244 3119.44629
3214.0 0.0003111 2978.91260 3120.60693
3152.0 0.0003173 2978.57275 3122.01782
3227.0 0.0003099 2978.23315 3123.66431
3319.0 0.0003013 2977.89355 3125.53857
3209.0 0.0003116 2977.55371 3127.63330
3229.0 0.0003097 2977.21411 3129.94238
3235.0 0.0003091 2976.87451 3132.46484
3223.0 0.0003103 2976.53540 3135.19824
3180.0 0.0003145 2976.19580 3138.14502
3240.0 0.0003086 2975.85645 3141.30786
3103.0 0.0003223 2975.51733 3144.68750
3243.0 0.0003084 2975.17798 3148.29272
3195.0 0.0003130 2974.83862 3152.12769
3193.0 0.0003132 2974.49976 3156.19849
3135.0 0.0003190 2974.16089 3160.51660
3190.0 0.0003135 2973.82153 3165.09326
3280.0 0.0003049 2973.48291 3169.93408
3194.0 0.0003131 2973.14404 3175.05640
3243.0 0.0003084 2972.80493 3180.47485
3328.0 0.0003005 2972.46631 3186.19995
3149.0 0.0003176 2972.12769 3192.25562
3251.0 0.0003076 2971.78906 3198.65283
3247.0 0.0003080 2971.45044 3205.42065
3228.0 0.0003098 2971.11182 3212.57764
3309.0 0.0003022 2970.77344 3220.14526
3335.0 0.0002999 2970.43506 3228.15820
3382.0 0.0002957 2970.09668 3236.64258
3454.0 0.0002895 2969.75854 3245.62646
3388.0 0.0002952 2969.42041 3255.15356
3375.0 0.0002963 2969.08203 3265.26416
3351.0 0.0002984 2968.74414 3275.99097
3364.0 0.0002973 2968.40625 3287.39160
3316.0 0.0003016 2968.06812 3299.52197
3375.0 0.0002963 2967.73022 3312.42505
3379.0 0.0002959 2967.39233 3326.17822
3366.0 0.0002971 2967.05444 3340.85669
3406.0 0.0002936 2966.71680 3356.52295
3543.0 0.0002822 2966.37915 3373.28296
3271.0 0.0003057 2966.04175 3391.21948
3454.0 0.0002895 2965.70410 3410.46045
3383.0 0.0002956 2965.36646 3431.12134
3387.0 0.0002952 2965.02930 3453.32910
3309.0 0.0003022 2964.69189 3477.26392
3568.0 0.0002803 2964.35474 3503.09082
3547.0 0.0002819 2964.01758 3530.99609
3576.0 0.0002796 2963.68042 3561.22949
3546.0 0.0002820 2963.34326 3594.05981
3517.0 0.0002843 2963.00635 3629.74512
3659.0 0.0002733 2962.66943 3668.65991
3543.0 0.0002822 2962.33252 3711.21289
3807.0 0.0002627 2961.99585 3757.81030
3822.0 0.0002616 2961.65894 3809.04199
3734.0 0.0002678 2961.32251 3865.48071
3792.0 0.0002637 2960.98584 3927.91675
3835.0 0.0002608 2960.64917 3997.19409
3995.0 0.0002503 2960.31274 4074.30591
3931.0 0.0002544 2959.97656 4160.56543
4070.0 0.0002457 2959.64014 4257.42822
4142.0 0.0002414 2959.30396 4366.64990
4384.0 0.0002281 2958.96777 4490.51807
4469.0 0.0002238 2958.63135 4631.81641
4623.0 0.0002163 2958.29541 4793.77148
4893.0 0.0002044 2957.95972 4980.81152
5230.0 0.0001912 2957.62354 5198.47559
5494.0 0.0001820 2957.28784 5453.55811
5946.0 0.0001682 2956.95215 5755.72607
6231.0 0.0001605 2956.61646 6117.53857
6567.0 0.0001523 2956.28101 6557.94238
7313.0 0.0001367 2955.94507 7105.31689
7797.0 0.0001283 2955.60986 7805.16260
8764.0 0.0001141 2955.27441 8732.73535
9849.0 0.0001015 2954.93896 10005.17969
11568.0 0.0000864 2954.60376 11793.88379
14064.0 0.0000711 2954.26855 14329.87207
17860.0 0.0000560 2953.93359 17880.40430
22802.0 0.0000439 2953.59863 22693.57227
28893.0 0.0000346 2953.26343 28864.61328
36228.0 0.0000276 2952.92847 36039.07422
43802.0 0.0000228 2952.59375 43201.76953
51340.0 0.0000195 2952.25928 49411.10547
57808.0 0.0000173 2951.92432 54723.33594
60269.0 0.0000166 2951.58984 59084.28125
61094.0 0.0000164 2951.25537 61075.08594
59962.0 0.0000167 2950.92090 59485.75781
56219.0 0.0000178 2950.58643 55149.83594
50459.0 0.0000198 2950.25195 49883.28125
45061.0 0.0000222 2949.91797 45050.71875
40099.0 0.0000249 2949.58374 40856.12500
35845.0 0.0000279 2949.24976 36430.17188
31562.0 0.0000317 2948.91553 31168.03906
26680.0 0.0000375 2948.58179 25610.08008
21201.0 0.0000472 2948.24780 20607.78125
17009.0 0.0000588 2947.91406 16564.41016
13942.0 0.0000717 2947.58032 13482.93652
12011.0 0.0000833 2947.24683 11213.99023
10242.0 0.0000976 2946.91333 9574.35547
9152.0 0.0001093 2946.57983 8388.82031
7953.0 0.0001257 2946.24658 7518.65771
7185.0 0.0001392 2945.91333 6861.09766
6587.0 0.0001518 2945.57983 6348.21094
6028.0 0.0001659 2945.24707 5936.52637
5746.0 0.0001740 2944.91357 5598.11914
5280.0 0.0001894 2944.58081 5315.37549
5119.0 0.0001954 2944.24805 5076.25293
4761.0 0.0002100 2943.91504 4871.84082
4537.0 0.0002204 2943.58228 4695.59277
4359.0 0.0002294 2943.24976 4542.68750
4164.0 0.0002402 2942.91724 4409.01465
4167.0 0.0002400 2942.58447 4291.42725
4115.0 0.0002430 2942.25220 4187.65283
3872.0 0.0002583 2941.91992 4095.31909
3914.0 0.0002555 2941.58740 4012.84863
3836.0 0.0002607 2941.25537 3938.96069
3746.0 0.0002670 2940.92334 3872.41357
3679.0 0.0002718 2940.59131 3812.31421
3696.0 0.0002706 2940.25952 3757.85059
3638.0 0.0002749 2939.92749 3708.44531
3551.0 0.0002816 2939.59595 3663.22510
3540.0 0.0002825 2939.26416 3621.82910
3559.0 0.0002810 2938.93262 3583.85059
3388.0 0.0002952 2938.60107 3548.93530
3491.0 0.0002865 2938.26953 3516.73682
3462.0 0.0002889 2937.93823 3486.96851
3366.0 0.0002971 2937.60693 3459.51538
3416.0 0.0002927 2937.27588 3433.94995
3486.0 0.0002869 2936.94458 3410.16919
3243.0 0.0003084 2936.61377 3388.03564
3439.0 0.0002908 2936.28271 3367.37329
3428.0 0.0002917 2935.95215 3348.07031
3321.0 0.0003011 2935.62134 3329.99170
3358.0 0.0002978 2935.29053 3313.04150
3305.0 0.0003026 2934.95996 3297.13354
3291.0 0.0003039 2934.62939 3282.16846
3288.0 0.0003041 2934.29907 3268.07837
3230.0 0.0003096 2933.96899 3254.80103
3292.0 0.0003038 2933.63867 3242.26440
3341.0 0.0002993 2933.30859 3230.41089
3272.0 0.0003056 2932.97852 3219.20337
3385.0 0.0002954 2932.64844 3208.58472
3385.0 0.0002954 2932.31836 3198.51025
3304.0 0.0003027 2931.98877 3188.95483
3272.0 0.0003056 2931.65918 3179.87036
3195.0 0.0003130 2931.32983 3171.23389
3345.0 0.0002990 2931.00000 3163.50439
3348.0 0.0002987 2930.67041 3155.67480
3182.0 0.0003143 2930.34131 3148.21240
3232.0 0.0003094 2930.01196 3141.08594
3223.0 0.0003103 2929.68262 3134.27881
3214.0 0.0003111 2929.35376 3127.77515
3087.0 0.0003239 2929.02490 3121.54956
3198.0 0.0003127 2928.69580 3115.83887
3154.0 0.0003171 2928.36719 3110.13525
3064.0 0.0003264 2928.03857 3104.66553
3185.0 0.0003140 2927.70996 3099.41528
3146.0 0.0003179 2927.38135 3094.37939
2994.0 0.0003340 2927.05273 3089.54028
3118.0 0.0003207 2926.72461 3084.88647
3138.0 0.0003187 2926.39648 3080.41406
2980.0 0.0003356 2926.06787 3076.10840
3001.0 0.0003332 2925.74023 3071.96411
3210.0 0.0003115 2925.41211 3067.96997
3092.0 0.0003234 2925.08423 3064.12085
3006.0 0.0003327 2924.75635 3060.40991
3086.0 0.0003240 2924.42896 3056.82813
3044.0 0.0003285 2924.10107 3053.37109
3034.0 0.0003296 2923.77368 3050.03418
3045.0 0.0003284 2923.44629 3046.81030
3139.0 0.0003186 2923.11890 3043.69263
3108.0 0.0003218 2922.79175 3040.68091
3024.0 0.0003307 2922.46460 3037.76709
2983.0 0.0003352 2922.13770 3034.94678
3088.0 0.0003238 2921.81079 3032.21997
2993.0 0.0003341 2921.48389 3029.57886
3060.0 0.0003268 2921.15747 3027.02271
2946.0 0.0003394 2920.83057 3024.54590
2983.0 0.0003352 2920.50415 3022.14648
3032.0 0.0003298 2920.17773 3019.82373
3036.0 0.0003294 2919.85132 3017.57202
2939.0 0.0003403 2919.52515 3015.38965
3007.0 0.0003326 2919.19897 3013.27637
3039.0 0.0003291 2918.87280 3011.22803
2926.0 0.0003418 2918.54688 3009.24268
3063.0 0.0003265 2918.22095 3007.32007
3077.0 0.0003250 2917.89551 3005.45850
3016.0 0.0003316 2917.56958 3003.65479
2916.0 0.0003429 2917.24414 3001.91064
2898.0 0.0003451 2916.91870 3000.22241
3073.0 0.0003254 2916.59302 2998.59033
3011.0 0.0003321 2916.26831 2997.01514
2960.0 0.0003378 2915.94312 2995.49390
3044.0 0.0003285 2915.61792 2994.02881
3081.0 0.0003246 2915.29297 2992.61865
2979.0 0.0003357 2914.96802 2977.38184
3018.0 0.0003313 2914.64331 2976.32495
2913.0 0.0003433 2914.31860 2975.31738
2936.0 0.0003406 2913.99390 2974.36353
2996.0 0.0003338 2913.66968 2944.42285
2933.0 0.0003409 2913.34546 2944.08325
2954.0 0.0003385 2913.02124 2936.88794
2995.0 0.0003339 2912.69702 2936.76782
2907.0 0.0003440 2912.37305 2936.70288
2997.0 0.0003337 2912.04907 2936.69873
3090.0 0.0003236 2911.72510 2922.32056
3063.0 0.0003265 2911.40137 2922.71289
2979.0 0.0003357 2911.07788 2923.18872
2997.0 0.0003337 2910.75439 2923.76294
3041.0 0.0003288 2910.43091 2924.45337
3026.0 0.0003305 2910.10791 2925.28076
3024.0 0.0003307 2909.78442 2926.27466
3022.0 0.0003309 2909.46143 2927.47070
3000.0 0.0003333 2909.13818 2928.91528
3026.0 0.0003305 2908.81567 2930.67285
2964.0 0.0003374 2908.49243 2932.83301
3039.0 0.0003291 2908.17017 2935.52661
3055.0 0.0003273 2907.84741 2938.96265
2976.0 0.0003360 2907.52490 2943.47339
3052.0 0.0003277 2907.20264 2949.57153
2972.0 0.0003365 2906.88062 2958.02124
3087.0 0.0003239 2906.55811 2969.83765
3031.0 0.0003299 2906.23633 2986.17358
3149.0 0.0003176 2905.91431 3008.11646
3308.0 0.0003023 2905.59253 3036.01245
3190.0 0.0003135 2905.27075 3068.13232
3139.0 0.0003186 2904.94922 3098.49878
3237.0 0.0003089 2904.62793 3118.50977
3248.0 0.0003079 2904.30640 3126.60181
3214.0 0.0003111 2903.98486 3132.39282
3173.0 0.0003152 2903.66406 3146.75659
3310.0 0.0003021 2903.34277 3173.96240
3277.0 0.0003052 2903.02197 3209.65723
3339.0 0.0002995 2902.70117 3239.69019
3313.0 0.0003018 2902.38037 3246.26685
3235.0 0.0003091 2902.05981 3224.48730
3167.0 0.0003158 2901.73950 3188.13818
3229.0 0.0003097 2901.41870 3154.08276
3087.0 0.0003239 2901.09888 3130.32227
3084.0 0.0003243 2900.77856 3115.47632
3188.0 0.0003137 2900.45825 3101.95068
3109.0 0.0003216 2900.13867 3082.49023
3051.0 0.0003278 2899.81860 3057.45972
3045.0 0.0003284 2899.49878 3032.43018
3037.0 0.0003293 2899.17944 3011.49438
2950.0 0.0003390 2898.85986 2995.84888
3136.0 0.0003189 2898.54053 2985.23218
2990.0 0.0003344 2898.22144 2978.95093
3075.0 0.0003252 2897.90210 2976.29321
3022.0 0.0003309 2897.58276 2976.76001
3079.0 0.0003248 2897.26416 2980.32935
3047.0 0.0003282 2896.94531 2986.88989
3108.0 0.0003218 2896.62671 2997.37524
3121.0 0.0003204 2896.30811 3013.32788
2970.0 0.0003367 2895.98950 3037.28296
3009.0 0.0003323 2895.67114 3072.90137
3026.0 0.0003305 2895.35303 3124.92017
3411.0 0.0002932 2895.03491 3197.89087
3490.0 0.0002865 2894.71704 3294.68823
3337.0 0.0002997 2894.39893 3411.56519
3659.0 0.0002733 2894.08130 3528.23608
3674.0 0.0002722 2893.76343 3602.57642
3679.0 0.0002718 2893.44604 3600.13843
3693.0 0.0002708 2893.12842 3538.47852
3644.0 0.0002744 2892.81128 3466.33618
3524.0 0.0002838 2892.49438 3415.51123
3475.0 0.0002878 2892.17700 3390.11792
3388.0 0.0002952 2891.86011 3372.10425
3337.0 0.0002997 2891.54321 3334.79614
3380.0 0.0002959 2891.22656 3270.34814
3342.0 0.0002992 2890.90991 3195.19409
3120.0 0.0003205 2890.59326 3126.63501
3146.0 0.0003179 2890.27710 3071.52832
3127.0 0.0003198 2889.96094 3029.95508
3055.0 0.0003273 2889.64478 2999.66602
3156.0 0.0003169 2889.32886 2977.90015
2995.0 0.0003339 2889.01294 2962.14551
2948.0 0.0003392 2888.69727 2950.46631
2975.0 0.0003361 2888.38159 2941.52808
3048.0 0.0003281 2888.06592 2934.44751
3051.0 0.0003278 2887.75049 2928.67822
2995.0 0.0003339 2887.43530 2923.87988
2919.0 0.0003426 2887.12012 2919.81934
2943.0 0.0003398 2886.80518 2916.34033
3002.0 0.0003331 2886.49048 2913.32300
2958.0 0.0003381 2886.17578 2910.68286
2881.0 0.0003471 2885.86108 2908.35229
2989.0 0.0003346 2885.54639 2906.27710
2892.0 0.0003458 2885.23193 2904.41553
2888.0 0.0003463 2884.91772 2902.73608
2853.0 0.0003505 2884.60352 2901.20898
2815.0 0.000355 2884.28955 2899.81323
2979.0 0.0003357 2883.97559 2898.53174
3032.0 0.0003298 2883.66187 2897.34766
2949.0 0.0003391 2883.34790 2896.24854
2891.0 0.0003459 2883.03467 2895.22412
2823.0 0.000354 2882.72144 2894.26660
2964.0 0.0003374 2882.40771 2893.36646
3031.0 0.0003299 2882.09473 2892.51855
2966.0 0.0003372 2881.78174 2891.71606
2967.0 0.0003370 2881.46899 2890.95654
2975.0 0.0003361 2881.15601 2890.23291
3006.0 0.0003327 2880.84326 2889.54321
3004.0 0.0003329 2880.53076 2888.88403
2808.0 0.000356 2880.21851 2888.25244
3007.0 0.0003326 2879.90601 2887.64697
2939.0 0.0003403 2879.59399 2887.06348
2820.0 0.000355 2879.28198 2886.50244
2941.0 0.0003400 2878.96997 2885.96045
2852.0 0.0003506 2878.65845 2885.43750
2904.0 0.0003444 2878.34668 2884.93115
2928.0 0.0003415 2878.03491 2884.44092
2908.0 0.0003439 2877.72363 2883.96606
3029.0 0.0003301 2877.41235 2883.50464
2903.0 0.0003445 2877.10132 2883.05762
2964.0 0.0003374 2876.79028 2882.62305
2973.0 0.0003364 2876.47949 2882.20068
2903.0 0.0003445 2876.16870 2881.79004
2968.0 0.0003369 2875.85815 2881.39136
2879.0 0.0003473 2875.54761 2881.00366
2845.0 0.000351 2875.23730 2880.62744
2954.0 0.0003385 2874.92725 2880.26221
2935.0 0.0003407 2874.61694 2879.90747
2894.0 0.0003455 2874.30713 2879.56421
2948.0 0.0003392 2873.99731 2879.23193
2927.0 0.0003416 2873.68750 2878.91089
2840.0 0.000352 2873.37793 2878.60181
2909.0 0.0003438 2873.06860 2878.30518
2897.0 0.0003452 2872.75928 2878.02100
2999.0 0.0003334 2872.45020 2877.75049
2836.0 0.000353 2872.14111 2877.49414
2867.0 0.0003488 2871.83228 2877.25269
2937.0 0.0003405 2871.52368 2877.02808
2885.0 0.0003466 2871.21484 2876.82104
2933.0 0.0003409 2870.90649 2876.63379
2976.0 0.0003360 2870.59790 2876.46899
2899.0 0.0003449 2870.28979 2876.32666
2899.0 0.0003449 2869.98193 2876.21265
2821.0 0.000354 2869.67383 2876.12817
2879.0 0.0003473 2869.36572 2876.07861
2813.0 0.000355 2869.05835 2876.06787
2846.0 0.000351 2868.75073 2875.99170
2842.0 0.000352 2868.44336 2876.08057
2859.0 0.0003498 2868.13623 2876.23047
2888.0 0.0003463 2867.82910 2876.45386
2933.0 0.0003409 2867.52197 2876.76245
2858.0 0.0003499 2867.21509 2877.17480
2846.0 0.000351 2866.90820 2877.65601
2809.0 0.000356 2866.60181 2878.15991
2830.0 0.000353 2866.29517 2879.04395
2759.0 0.000362 2865.98877 2880.16504
2937.0 0.0003405 2865.68286 2881.58862
2858.0 0.0003499 2865.37695 2883.40552
2815.0 0.000355 2865.07080 2885.75342
2818.0 0.000355 2864.76514 2888.74194
2934.0 0.0003408 2864.45972 2892.89893
2820.0 0.000355 2864.15405 2898.66992
2866.0 0.0003489 2863.84863 2906.88037
2841.0 0.000352 2863.54346 2918.72949
2953.0 0.0003386 2863.23853 2935.71216
3048.0 0.0003281 2862.93359 2959.44604
2947.0 0.0003393 2862.62866 2990.97949
2966.0 0.0003372 2862.32422 3029.12158
3059.0 0.0003269 2862.01978 3067.02002
2986.0 0.0003349 2861.71533 3090.17725
3069.0 0.0003258 2861.41089 3087.19263
3027.0 0.0003304 2861.10693 3064.85400
3097.0 0.0003229 2860.80298 3039.84155
3043.0 0.0003286 2860.49927 3022.74585
2890.0 0.0003460 2860.19556 3015.27881
2955.0 0.0003384 2859.89209 3012.23242
2952.0 0.0003388 2859.58887 3004.26123
2920.0 0.0003425 2859.28564 2986.22559
2879.0 0.0003473 2858.98218 2962.37231
2844.0 0.000352 2858.67944 2939.38428
2905.0 0.0003442 2858.37646 2919.94116
2896.0 0.0003453 2858.07397 2905.49707
2872.0 0.0003482 2857.77148 2894.85303
2959.0 0.0003380 2857.46924 2887.11353
2884.0 0.0003467 2857.16699 2881.44971
2947.0 0.0003393 2856.86475 2877.20361
2889.0 0.0003461 2856.56299 2873.91748
2863.0 0.0003493 2856.26099 2871.03735
2851.0 0.000351 2855.95947 2887.53833
2886.0 0.0003465 2855.65796 2886.04272
2983.0 0.0003352 2855.35669 2884.81494
2874.0 0.0003479 2855.05542 2883.79761
2910.0 0.0003436 2854.75439 2882.94922
2849.0 0.000351 2854.45361 2882.24048
2913.0 0.0003433 2854.15283 2881.64722
2966.0 0.0003372 2853.85229 2900.05859
2827.0 0.000354 2853.55176 2899.97949
2893.0 0.0003457 2853.25146 2899.98169
2995.0 0.0003339 2852.95142 2900.05615
2890.0 0.0003460 2852.65137 2900.19653
2931.0 0.0003412 2852.35132 2900.39697
2814.0 0.000355 2852.05151 2900.65308
2940.0 0.0003401 2851.75195 2905.74536
2971.0 0.0003366 2851.45264 2906.18896
2903.0 0.0003445 2851.15332 2906.68091
3046.0 0.0003283 2850.85425 2907.22241
2956.0 0.0003383 2850.55542 2907.81152
2966.0 0.0003372 2850.25659 2908.44702
2969.0 0.0003368 2849.95776 2909.12891
2934.0 0.0003408 2849.65918 2909.85742
3029.0 0.0003301 2849.36084 2910.63306
3018.0 0.0003313 2849.06250 2911.45532
3044.0 0.0003285 2848.76465 2912.32520
2961.0 0.0003377 2848.46655 2913.24438
3009.0 0.0003323 2848.16870 2914.21313
2968.0 0.0003369 2847.87109 2915.23242
3005.0 0.0003328 2847.57373 2916.30444
3093.0 0.0003233 2847.27612 2917.43042
3014.0 0.0003318 2846.97925 2918.61157
3047.0 0.0003282 2846.68213 2919.85034
3009.0 0.0003323 2846.38550 2921.14990
3023.0 0.0003308 2846.08862 2922.51025
3013.0 0.0003319 2845.79199 2923.96997
3048.0 0.0003281 2845.49561 2925.46411
3010.0 0.0003322 2845.19971 2927.02637
3284.0 0.0003045 2844.90332 2928.97778
3111.0 0.0003214 2844.60767 2930.69531
3174.0 0.0003151 2844.31177 2932.49365
3115.0 0.0003210 2844.01611 2934.37622
3262.0 0.0003066 2843.72046 2936.36255
3294.0 0.0003036 2843.42529 2938.42529
3256.0 0.0003071 2843.13013 2940.58521
3427.0 0.0002918 2842.83521 2943.00269
3295.0 0.0003035 2842.54028 2945.37427
3192.0 0.0003133 2842.24536 2947.86011
3297.0 0.0003033 2841.95117 2950.46338
3174.0 0.0003151 2841.65674 2953.19385
3225.0 0.0003101 2841.36230 2956.05762
3216.0 0.0003109 2841.06836 2959.06177
3198.0 0.0003127 2840.77417 2962.21558
3051.0 0.0003278 2840.48071 2965.52588
3159.0 0.0003166 2840.18726 2969.00488
3124.0 0.0003201 2839.89355 2972.66235
3025.0 0.0003306 2839.60034 2976.50684
3097.0 0.0003229 2839.30713 2980.55420
3064.0 0.0003264 2839.01440 2984.81616
3050.0 0.0003279 2838.72144 2989.30396
3078.0 0.0003249 2838.42871 2994.03784
3114.0 0.0003211 2838.13623 2999.03198
3002.0 0.0003331 2837.84424 3004.30298
2985.0 0.0003350 2837.55176 3009.87280
3001.0 0.0003332 2837.25977 3015.76563
3038.0 0.0003292 2836.96802 3021.99756
3127.0 0.0003198 2836.67651 3028.60059
3133.0 0.0003192 2836.38477 3035.60522
3028.0 0.0003303 2836.09351 3043.03369
3045.0 0.0003284 2835.80225 3050.92920
3055.0 0.0003273 2835.51123 3059.32178
3055.0 0.0003273 2835.22046 3068.26221
3215.0 0.0003110 2834.92969 3077.79175
3067.0 0.0003261 2834.63916 3087.95752
3134.0 0.0003191 2834.34863 3098.82642
3228.0 0.0003098 2834.05835 3110.45703
3170.0 0.0003155 2833.76855 3122.91504
3078.0 0.0003249 2833.47852 3136.28809
3167.0 0.0003158 2833.18872 3150.67114
3148.0 0.0003177 2832.89917 3166.14697
3110.0 0.0003215 2832.60986 3182.84399
3118.0 0.0003207 2832.32056 3200.89600
3225.0 0.0003101 2832.03149 3220.42944
3296.0 0.0003034 2831.74243 3241.63379
3273.0 0.0003055 2831.45386 3264.68188
3179.0 0.0003146 2831.16528 3289.81689
3273.0 0.0003055 2830.87671 3317.28320
3214.0 0.0003111 2830.58862 3347.36279
3374.0 0.0002964 2830.30029 3380.42969
3387.0 0.0002952 2830.01245 3416.87402
3425.0 0.0002920 2829.72461 3457.15137
3397.0 0.0002944 2829.43701 3501.86426
3446.0 0.0002902 2829.14966 3551.66528
3664.0 0.0002729 2828.86230 3607.33032
3478.0 0.0002875 2828.57520 3669.86694
3664.0 0.0002729 2828.28833 3740.47900
3847.0 0.0002599 2828.00171 3820.35400
3971.0 0.0002518 2827.71509 3911.69482
4076.0 0.0002453 2827.42847 4016.59814
4219.0 0.0002370 2827.14233 4137.74707
4356.0 0.0002296 2826.85596 4278.87842
4618.0 0.0002165 2826.57031 4444.50049
4661.0 0.0002145 2826.28442 4640.88623
4963.0 0.0002015 2825.99878 4876.10010
5220.0 0.0001916 2825.71338 5161.55908
5459.0 0.0001832 2825.42822 5513.90283
5726.0 0.0001746 2825.14331 5957.70361
6551.0 0.0001526 2824.85840 6530.70313
7174.0 0.0001394 2824.57349 7291.75879
8175.0 0.0001223 2824.28882 8328.18555
9471.0 0.0001056 2824.00464 9759.36621
11622.0 0.0000860 2823.72021 11738.87402
14826.0 0.0000674 2823.43604 14431.55078
18657.0 0.0000536 2823.15259 17938.41797
22363.0 0.0000447 2822.86865 22108.75195
26224.0 0.0000381 2822.58521 26148.18750
28393.0 0.0000352 2822.30176 28590.18359
29173.0 0.0000343 2822.01855 28585.36914
27828.0 0.0000359 2821.73560 27149.94922
26378.0 0.0000379 2821.45264 25988.24805
26136.0 0.0000383 2821.16992 26044.08594
26688.0 0.0000375 2820.88770 27273.59766
27310.0 0.0000366 2820.60522 28694.12305
27519.0 0.0000363 2820.32300 28726.59375
25995.0 0.0000385 2820.04102 26582.87891
22832.0 0.0000438 2819.75928 23146.71484
19288.0 0.0000518 2819.47754 19789.84570
16921.0 0.0000591 2819.19629 17234.34766
15073.0 0.0000663 2818.91479 15532.75293
14079.0 0.0000710 2818.63379 14336.24316
13116.0 0.0000762 2818.35278 13138.43848
11750.0 0.0000851 2818.07202 11683.00879
10279.0 0.0000973 2817.79150 10133.64941
9037.0 0.0001107 2817.51099 8739.03027
8040.0 0.0001244 2817.23071 7605.85840
7124.0 0.0001404 2816.95068 6728.05566
6396.0 0.0001563 2816.67065 6059.43262
5838.0 0.0001713 2816.39111 5551.32764
5490.0 0.0001821 2816.11182 5161.92920
5104.0 0.0001959 2815.83228 4858.48682
4881.0 0.0002049 2815.55298 4617.50977
4716.0 0.0002120 2815.27393 4423.02051
4472.0 0.0002236 2814.99512 4263.87549
4244.0 0.0002356 2814.71655 4132.84424
4158.0 0.0002405 2814.43823 4025.41406
3933.0 0.0002543 2814.15991 3938.63135
3749.0 0.0002667 2813.88184 3871.16309
3841.0 0.0002603 2813.60376 3822.46509
3698.0 0.0002704 2813.32593 3792.23779
3808.0 0.0002626 2813.04858 3779.12769
3644.0 0.0002744 2812.77100 3780.16992
3799.0 0.0002632 2812.49390 3790.03516
3732.0 0.0002680 2812.21704 3795.53613
3780.0 0.0002646 2811.93994 3775.14209
3649.0 0.0002740 2811.66309 3720.01025
3568.0 0.0002803 2811.38672 3647.54492
3540.0 0.0002825 2811.11060 3580.25024
3483.0 0.0002871 2810.83423 3528.54077
3462.0 0.0002889 2810.55835 3492.45605
3461.0 0.0002889 2810.28271 3464.87207
3322.0 0.0003010 2810.00732 3432.86792
3270.0 0.0003058 2809.73169 3387.09961
3324.0 0.0003008 2809.45630 3331.86963
3183.0 0.0003142 2809.18140 3277.62939
3136.0 0.0003189 2808.90649 3230.39990
3065.0 0.0003263 2808.63184 3191.34375
3006.0 0.0003327 2808.35742 3159.47217
3093.0 0.0003233 2808.08301 3133.27856
3046.0 0.0003283 2807.80884 3111.41821
3079.0 0.0003248 2807.53516 3092.80981
3060.0 0.0003268 2807.26147 3076.63037
3012.0 0.0003320 2806.98779 3062.30591
3078.0 0.0003249 2806.71436 3049.45679
2958.0 0.0003381 2806.44116 3037.79272
2952.0 0.0003388 2806.16797 3027.11353
3064.0 0.0003264 2805.89526 3017.28369
2997.0 0.0003337 2805.62280 3008.17725
2994.0 0.0003340 2805.35034 2999.71265
3027.0 0.0003304 2805.07788 2991.80591
2894.0 0.0003455 2804.80566 2984.40137
2985.0 0.0003350 2804.53418 2977.45068
2991.0 0.0003343 2804.26221 2970.90332
2896.0 0.0003453 2803.99072 2964.72534
3004.0 0.0003329 2803.71924 2958.88647
2894.0 0.0003455 2803.44824 2953.35498
2917.0 0.0003428 2803.17725 2948.10327
2904.0 0.0003444 2802.90649 2943.11646
2957.0 0.0003382 2802.63599 2938.37036
2912.0 0.0003434 2802.36548 2933.84570
3007.0 0.0003326 2802.09521 2929.53271
2943.0 0.0003398 2801.82520 2925.41089
2963.0 0.0003375 2801.55542 2921.47192
2967.0 0.0003370 2801.28564 2917.70020
3005.0 0.0003328 2801.01611 2914.08667
2952.0 0.0003388 2800.74707 2910.62305
2918.0 0.0003427 2800.47778 2907.29810
2909.0 0.0003438 2800.20898 2904.10327
2870.0 0.0003484 2799.94019 2901.03442
2862.0 0.0003494 2799.67188 2898.08105
2874.0 0.0003479 2799.40356 2895.23608
2889.0 0.0003461 2799.13550 2892.49854
2915.0 0.0003431 2798.86743 2889.85767
2911.0 0.0003435 2798.59961 2887.30933
2988.0 0.0003347 2798.33203 2884.85156
2764.0 0.000362 2798.06470 2882.47754
2856.0 0.0003501 2797.79761 2880.18213
2902.0 0.0003446 2797.53076 2877.96509
2978.0 0.0003358 2797.26392 2875.81934
2844.0 0.000352 2796.99731 2873.74365
2834.0 0.000353 2796.73096 2871.73340
2873.0 0.0003481 2796.46436 2869.78638
2894.0 0.0003455 2796.19849 2867.90063
2894.0 0.0003455 2795.93286 2866.07275
2957.0 0.0003382 2795.66699 2864.30029
2824.0 0.000354 2795.40161 2862.58252
2870.0 0.0003484 2795.13647 2860.91577
2848.0 0.000351 2794.87134 2859.29858
2930.0 0.0003413 2794.60645 2857.73022
2847.0 0.000351 2794.34180 2856.20947
2908.0 0.0003439 2794.07715 2854.73315
2879.0 0.0003473 2793.81299 2853.30249
2928.0 0.0003415 2793.54883 2851.91528
2761.0 0.000362 2793.28516 2850.57251
2820.0 0.000355 2793.02124 2849.27124
2880.0 0.0003472 2792.75781 2848.01367
2903.0 0.0003445 2792.49463 2846.79932
2819.0 0.000355 2792.23169 2845.62891
2774.0 0.000360 2791.96875 2844.50391
2863.0 0.0003493 2791.70605 2843.42700
2871.0 0.0003483 2791.44336 2842.40015
2791.0 0.000358 2791.18115 2822.41675
2848.0 0.000351 2790.91895 2821.83276
2890.0 0.0003460 2790.65723 2821.30737
2836.0 0.000353 2790.39551 2820.85107
2882.0 0.0003470 2790.13403 2820.47852
2818.0 0.000355 2789.87256 2820.20996
2914.0 0.0003432 2789.61133 2820.07422
2760.0 0.000362 2789.35059 2800.95630
2825.0 0.000354 2789.08984 2801.57300
2784.0 0.000359 2788.82935 2802.52441
2724.0 0.000367 2788.56909 2803.95776
2814.0 0.000355 2788.30884 2806.07324
2906.0 0.0003441 2788.04883 2809.12256
2818.0 0.000355 2787.78931 2813.38477
2882.0 0.0003470 2787.52954 2814.15796
2770.0 0.000361 2787.27051 2820.79590
2819.0 0.000355 2787.01147 2826.78833
2822.0 0.000354 2786.75244 2829.43115
2931.0 0.0003412 2786.49341 2827.38013
2745.0 0.000364 2786.23511 2822.49561
2832.0 0.000353 2785.97681 2817.61621
2808.0 0.000356 2785.71875 2814.32690
2795.0 0.000358 2785.46069 2812.89917
2799.0 0.000357 2785.20288 2812.71533
2772.0 0.000361 2784.94556 2812.34961
2872.0 0.0003482 2784.68823 2810.31445
2808.0 0.000356 2784.43115 2806.52051
2748.0 0.000364 2784.17407 2802.13843
2833.0 0.000353 2783.91748 2798.17017
2810.0 0.000356 2783.66113 2794.95483
2846.0 0.000351 2783.40479 2792.45728
2829.0 0.000353 2783.14868 2790.53345
2785.0 0.000359 2782.89282 2789.03931
2683.0 0.000373 2782.63721 2787.85229
2770.0 0.000361 2782.38159 2786.84839
2779.0 0.000360 2782.12622 2786.03467
2830.0 0.000353 2781.87134 2785.33228
2695.0 0.000371 2781.61646 2784.47852
2740.0 0.000365 2781.36182 2783.92798
2814.0 0.000355 2781.10742 2783.42578
2776.0 0.000360 2780.85303 2782.96118
2817.0 0.000355 2780.59912 2782.51025
2907.0 0.0003440 2780.34497 2782.10205
2756.0 0.000363 2780.09155 2781.71509
2768.0 0.000361 2779.83813 2781.18481
2770.0 0.000361 2779.58496 2780.87427
2749.0 0.000364 2779.33203 2780.60596
2853.0 0.0003505 2779.07935 2780.27686
2748.0 0.000364 2778.82642 2779.95679
2722.0 0.000367 2778.57422 2779.64453
2851.0 0.000351 2778.32202 2779.33911
2733.0 0.000366 2778.07007 2779.03931
2761.0 0.000362 2777.81836 2778.74512
2788.0 0.000359 2777.56689 2778.45483
2856.0 0.0003501 2777.31567 2778.20508
2728.0 0.000367 2777.06421 2777.92334
2839.0 0.000352 2776.81323 2777.64526
2766.0 0.000362 2776.56274 2777.36987
2796.0 0.000358 2776.31226 2777.09717
2759.0 0.000362 2776.06201 2776.82666
2870.0 0.0003484 2775.81177 2776.55933
2879.0 0.0003473 2775.56226 2776.29321
2817.0 0.000355 2775.31226 2776.02905
2798.0 0.000357 2775.06274 2775.76733
2808.0 0.000356 2774.81372 2775.50684
2749.0 0.000364 2774.56445 2775.24780
2725.0 0.000367 2774.31592 2774.99097
2782.0 0.000359 2774.06714 2774.73438
2792.0 0.000358 2773.81885 2774.48022
2695.0 0.000371 2773.57080 2774.22656
2704.0 0.000370 2773.32251 2773.97437
2801.0 0.000357 2773.07520 2773.72339
2775.0 0.000360 2772.82739 2773.47363
2822.0 0.000354 2772.58008 2773.22437
2875.0 0.0003478 2772.33301 2772.97632
2734.0 0.000366 2772.08618 2772.72974
2728.0 0.000367 2771.83960 2772.48340
2777.0 0.000360 2771.59277 2772.23853
2848.0 0.000351 2771.34668 2771.99438
2815.0 0.000355 2771.10059 2771.75146
2746.0 0.000364 2770.85474 2771.50952
2753.0 0.000363 2770.60913 2771.26782
2818.0 0.000355 2770.36377 2771.02710
2811.0 0.000356 2770.11890 2770.78833
2873.0 0.0003481 2769.87354 2770.54932
2689.0 0.000372 2769.62915 2770.31177
2629.0 0.000380 2769.38452 2770.07471
2731.0 0.000366 2769.13989 2769.83838
2694.0 0.000371 2768.89624 2769.60400
2877.0 0.0003476 2768.65210 2769.36963
2844.0 0.000352 2768.40820 2769.13672
2790.0 0.000358 2768.16479 2768.90454
2775.0 0.000360 2767.92188 2768.67358
2672.0 0.000374 2767.67871 2768.44312
2725.0 0.000367 2767.43604 2768.21387
2781.0 0.000360 2767.19336 2767.98584
2850.0 0.000351 2766.95093 2767.75854
2779.0 0.000360 2766.70874 2767.53320
2770.0 0.000361 2766.46704 2767.30835
2721.0 0.000368 2766.22534 2767.08496
2744.0 0.000364 2765.98389 2766.86255
2767.0 0.000361 2765.74243 2766.64136
2696.0 0.000371 2765.50146 2766.42188
2788.0 0.000359 2765.26074 2766.20386
2811.0 0.000356 2765.01978 2765.98730
2746.0 0.000364 2764.77954 2765.77246
2719.0 0.000368 2764.53955 2765.55908
2708.0 0.000369 2764.29932 2765.34790
2665.0 0.000375 2764.05981 2765.13770
2767.0 0.000361 2763.82007 2764.92993
2838.0 0.000352 2763.58105 2764.72412
2679.0 0.000373 2763.34180 2764.52100
2714.0 0.000368 2763.10278 2764.31982
2714.0 0.000368 2762.86450 2764.12134
2872.0 0.0003482 2762.62598 2763.92554
2795.0 0.000358 2762.38794 2763.73242
2751.0 0.000364 2762.14990 2763.54297
2766.0 0.000362 2761.91211 2763.35645
2806.0 0.000356 2761.67432 2763.17383
2731.0 0.000366 2761.43750 2762.99536
2694.0 0.000371 2761.20020 2762.82129
2789.0 0.000359 2760.96313 2762.65210
2747.0 0.000364 2760.72681 2762.48877
2740.0 0.000365 2760.49023 2762.33081
2729.0 0.000366 2760.25415 2762.18042
2787.0 0.000359 2760.01831 2762.03687
2826.0 0.000354 2759.78247 2761.90234
2728.0 0.000367 2759.54688 2761.77734
2847.0 0.000351 2759.31177 2761.66382
2768.0 0.000361 2759.07642 2761.56323
2743.0 0.000365 2758.84180 2761.47876
2748.0 0.000364 2758.60718 2761.67773
2722.0 0.000367 2758.37280 2761.63647
2736.0 0.000365 2758.13867 2761.62354
2792.0 0.000358 2757.90479 2761.64380
2739.0 0.000365 2757.67090 2761.70776
2744.0 0.000364 2757.43750 2761.82764
2672.0 0.000374 2757.20435 2762.02417
2841.0 0.000352 2756.97119 2762.32471
2670.0 0.000375 2756.73853 2762.89990
2715.0 0.000368 2756.50610 2763.53955
2653.0 0.000377 2756.27344 2764.43579
2780.0 0.000360 2756.04126 2765.64136
2708.0 0.000369 2755.80957 2767.14917
2776.0 0.000360 2755.57788 2768.75610
2809.0 0.000356 2755.34668 2769.95557
2890.0 0.0003460 2755.11523 2770.20898
2817.0 0.000355 2754.88452 2769.56665
2759.0 0.000362 2754.65356 2768.63354
2663.0 0.000376 2754.42310 2767.91797
2848.0 0.000351 2754.19287 2767.70459
2647.0 0.000378 2753.96265 2767.96973
2739.0 0.000365 2753.73291 2768.56299
2939.0 0.0003403 2753.50342 2769.17651
2794.0 0.000358 2753.27393 2769.52661
2792.0 0.000358 2753.04492 2769.65649
2719.0 0.000368 2752.81592 2769.86353
2729.0 0.000366 2752.58716 2770.45435
2794.0 0.000358 2752.35864 2771.57153
2778.0 0.000360 2752.13062 2773.32153
2828.0 0.000354 2751.90234 2775.84766
2742.0 0.000365 2751.67480 2779.36597
2809.0 0.000356 2751.44751 2784.21948
2827.0 0.000354 2751.21973 2790.90356
2785.0 0.000359 2750.99292 2800.09058
2836.0 0.000353 2750.76611 2812.60840
2864.0 0.0003492 2750.53955 2829.16235
2948.0 0.0003392 2750.31323 2849.47437
2870.0 0.0003484 2750.08716 2870.43872
2908.0 0.0003439 2749.86108 2884.89355
2884.0 0.0003467 2749.63550 2886.48242
2921.0 0.0003423 2749.41016 2877.76123
2882.0 0.0003470 2749.18481 2867.46460
2852.0 0.0003506 2748.95996 2862.26465
2831.0 0.000353 2748.73535 2864.83911
2780.0 0.000360 2748.51074 2875.31055
2961.0 0.0003377 2748.28638 2891.28101
2934.0 0.0003408 2748.06250 2906.58301
2896.0 0.0003453 2747.83862 2912.65234
2923.0 0.0003421 2747.61523 2904.57690
2884.0 0.0003467 2747.39160 2885.64233
2846.0 0.000351 2747.16870 2864.00464
2773.0 0.000361 2746.94580 2845.88501
2846.0 0.000351 2746.72314 2833.57886
2717.0 0.000368 2746.50073 2826.88379
2819.0 0.000355 2746.27881 2824.04736
2680.0 0.000373 2746.05688 2821.84692
2801.0 0.000357 2745.83521 2816.74561
2795.0 0.000358 2745.61377 2807.85034
2778.0 0.000360 2745.39258 2797.35547
2854.0 0.0003504 2745.17163 2787.63110
2787.0 0.000359 2744.95093 2779.63428
2723.0 0.000367 2744.73047 2773.38208
2680.0 0.000373 2744.51025 2768.55469
2700.0 0.000370 2744.29004 2764.81274
2747.0 0.000364 2744.07056 2761.87476
2766.0 0.000362 2743.85083 2759.52246
2575.0 0.000388 2743.63159 2757.60278
2641.0 0.000379 2743.41260 2756.00610
2719.0 0.000368 2743.19385 2754.65503
2789.0 0.000359 2742.97510 2753.49316
2741.0 0.000365 2742.75684 2752.48413
2676.0 0.000374 2742.53882 2751.59619
2692.0 0.000371 2742.32080 2750.80762
2629.0 0.000380 2742.10327 2750.10229
2645.0 0.000378 2741.88599 2749.46606
2716.0 0.000368 2741.66895 2748.88989
2713.0 0.000369 2741.45215 2748.36377
2687.0 0.000372 2741.23535 2747.88159
2731.0 0.000366 2741.01904 2747.43848
2692.0 0.000371 2740.80273 2747.02905
2746.0 0.000364 2740.58691 2746.65088
2743.0 0.000365 2740.37134 2746.30029
2667.0 0.000375 2740.15576 2745.97485
2619.0 0.000382 2739.94043 2745.67236
2682.0 0.000373 2739.72559 2745.39258
2582.0 0.000387 2739.51074 2745.13281
2626.0 0.000381 2739.29639 2744.89307
2656.0 0.000377 2739.08228 2744.67188
2755.0 0.000363 2738.86816 2744.46924
2635.0 0.000380 2738.65454 2744.28564
2677.0 0.000374 2738.44116 2744.11938
2748.0 0.000364 2738.22754 2743.97144
2657.0 0.000376 2738.01465 2743.84326
2658.0 0.000376 2737.80200 2743.73413
2639.0 0.000379 2737.58936 2743.64478
2684.0 0.000373 2737.37720 2743.57764
2620.0 0.000382 2737.16504 2743.53174
2768.0 0.000361 2736.95337 2743.51074
2719.0 0.000368 2736.74170 2743.51538
2697.0 0.000371 2736.53052 2743.54858
2650.0 0.000377 2736.31958 2743.61230
2725.0 0.000367 2736.10864 2743.70996
2686.0 0.000372 2735.89819 2743.84521
2641.0 0.000379 2735.68774 2744.02271
2663.0 0.000376 2735.47778 2744.24707
2687.0 0.000372 2735.26807 2744.52441
2603.0 0.000384 2735.05835 2744.86206
2581.0 0.000387 2734.84912 2745.26880
2779.0 0.000360 2734.63989 2745.75537
2692.0 0.000371 2734.43140 2746.33350
2800.0 0.000357 2734.22266 2747.01904
2727.0 0.000367 2734.01416 2747.83081
2594.0 0.000386 2733.80615 2748.79102
2704.0 0.000370 2733.59839 2749.92969
2622.0 0.000381 2733.39063 2751.28271
2713.0 0.000369 2733.18359 2752.89478
2638.0 0.000379 2732.97632 2754.82593
2782.0 0.000359 2732.76953 2757.15356
2593.0 0.000386 2732.56299 2759.97607
2706.0 0.000370 2732.35669 2763.43115
2719.0 0.000368 2732.15063 2767.70166
2720.0 0.000368 2731.94482 2773.05151
2676.0 0.000374 2731.73901 2779.84668
2701.0 0.000370 2731.53369 2788.61792
2718.0 0.000368 2731.32861 2800.14258
2704.0 0.000370 2731.12354 2815.51758
2772.0 0.000361 2730.91919 2836.24609
2792.0 0.000358 2730.71484 2864.30737
3015.0 0.0003317 2730.51074 2901.81934
2906.0 0.0003441 2730.30688 2949.83350
2908.0 0.0003439 2730.10327 3004.99683
2948.0 0.0003392 2729.89990 3054.19971
3014.0 0.0003318 2729.69702 3076.14624
2971.0 0.0003366 2729.49414 3060.57983
2987.0 0.0003348 2729.29126 3021.63672
2949.0 0.0003391 2729.08911 2981.48877
2914.0 0.0003432 2728.88696 2952.97559
2915.0 0.0003431 2728.68530 2939.53638
2820.0 0.000355 2728.48389 2939.08496
2931.0 0.0003412 2728.28247 2944.60425
2891.0 0.0003459 2728.08130 2944.16943
2909.0 0.0003438 2727.88062 2928.19092
2834.0 0.000353 2727.67993 2899.01880
2880.0 0.0003472 2727.47974 2866.58911
2802.0 0.000357 2727.27954 2837.96021
2803.0 0.000357 2727.07983 2815.19873
2681.0 0.000373 2726.88037 2798.32666
2747.0 0.000364 2726.68115 2785.20142
2732.0 0.000366 2726.48193 2775.21143
2672.0 0.000374 2726.28320 2767.54150
2732.0 0.000366 2726.08472 2761.49194
2734.0 0.000366 2725.88647 2756.65430
2686.0 0.000372 2725.68848 2752.71045
2718.0 0.000368 2725.49072 2749.44458
2744.0 0.000364 2725.29321 2746.69775
2730.0 0.000366 2725.09595 2744.60986
2744.0 0.000364 2724.89893 2742.60229
2646.0 0.000378 2724.70239 2740.85791
2717.0 0.000368 2724.50610 2739.34180
2644.0 0.000378 2724.30957 2737.98657
2747.0 0.000364 2724.11377 2736.77856
2646.0 0.000378 2723.91797 2735.69385
2660.0 0.000376 2723.72266 2734.71240
2738.0 0.000365 2723.52734 2733.82056
2640.0 0.000379 2723.33228 2733.00513
2577.0 0.000388 2723.13770 2732.25391
2715.0 0.000368 2722.94360 2731.56104
2738.0 0.000365 2722.74927 2730.91821
2707.0 0.000369 2722.55542 2730.31860
2741.0 0.000365 2722.36182 2729.75757
2668.0 0.000375 2722.16821 2729.14429
2642.0 0.000379 2721.97534 2728.64917
2635.0 0.000380 2721.78247 2728.18140
2725.0 0.000367 2721.58984 2727.73730
2695.0 0.000371 2721.39746 2727.31543
2749.0 0.000364 2721.20557 2726.91382
2632.0 0.000380 2721.01343 2726.52930
2734.0 0.000366 2720.82227 2726.16211
2685.0 0.000372 2720.63086 2725.76611
2726.0 0.000367 2720.43994 2725.35449
2727.0 0.000367 2720.24902 2725.02905
2826.0 0.000354 2720.05859 2724.71606
2741.0 0.000365 2719.86841 2724.41309
2689.0 0.000372 2719.67822 2724.12061
2663.0 0.000376 2719.48853 2723.83691
2681.0 0.000373 2719.29907 2723.56201
2767.0 0.000361 2719.10986 2723.29468
2703.0 0.000370 2718.92090 2722.99927
2784.0 0.000359 2718.73242 2722.74731
2775.0 0.000360 2718.54395 2722.50244
2640.0 0.000379 2718.35571 2722.26367
2669.0 0.000375 2718.16797 2722.03101
2740.0 0.000365 2717.98022 2721.80469
2683.0 0.000373 2717.79297 2721.58301
2689.0 0.000372 2717.60596 2721.36694
2548.0 0.000392 2717.41919 2721.15698
2794.0 0.000358 2717.23242 2720.95117
2736.0 0.000365 2717.04614 2720.75073
2649.0 0.000378 2716.86011 2720.55420
2777.0 0.000360 2716.67456 2720.36304
2695.0 0.000371 2716.48877 2720.17627
2629.0 0.000380 2716.30371 2719.99414
2727.0 0.000367 2716.11865 2719.81616
2707.0 0.000369 2715.93384 2719.64282
2784.0 0.000359 2715.74951 2719.47437
2726.0 0.000367 2715.56543 2719.30957
2694.0 0.000371 2715.38159 2719.14990
2663.0 0.000376 2715.19775 2718.99414
2680.0 0.000373 2715.01440 2718.84351
2770.0 0.000361 2714.83130 2718.69727
2662.0 0.000376 2714.64844 2718.55591
2708.0 0.000369 2714.46606 2718.41968
2713.0 0.000369 2714.28369 2718.28784
2799.0 0.000357 2714.10181 2718.16113
2738.0 0.000365 2713.91968 2718.03979
2746.0 0.000364 2713.73828 2717.92358
2743.0 0.000365 2713.55688 2717.81299
2684.0 0.000373 2713.37622 2717.70874
2704.0 0.000370 2713.19531 2717.61035
2711.0 0.000369 2713.01489 2717.51831
2722.0 0.000367 2712.83496 2717.43262
2704.0 0.000370 2712.65503 2717.35400
2696.0 0.000371 2712.47534 2717.28320
2734.0 0.000366 2712.29614 2717.22021
2686.0 0.000372 2712.11670 2718.82837
2657.0 0.000376 2711.93823 2718.80444
2657.0 0.000376 2711.75952 2718.79053
2602.0 0.000384 2711.58130 2718.78638
2762.0 0.000362 2711.40332 2718.79346
2731.0 0.000366 2711.22534 2718.81250
2809.0 0.000356 2711.04785 2718.84375
2774.0 0.000360 2710.87061 2723.16406
2723.0 0.000367 2710.69385 2723.28833
2699.0 0.000371 2710.51709 2724.25903
2642.0 0.000379 2710.34106 2724.43066
2741.0 0.000365 2710.16479 2724.62207
2710.0 0.000369 2709.98901 2724.83472
2699.0 0.000371 2709.81348 2725.07129
2747.0 0.000364 2709.63818 2725.33325
2750.0 0.000364 2709.46313 2725.62256
2839.0 0.000352 2709.28833 2728.07471
2706.0 0.000370 2709.11353 2728.46021
2675.0 0.000374 2708.93970 2728.88208
2827.0 0.000354 2708.76538 2729.34424
2787.0 0.000359 2708.59180 2729.85132
2687.0 0.000372 2708.41846 2730.40747
2749.0 0.000364 2708.24561 2731.01904
2771.0 0.000361 2708.07275 2731.69019
2748.0 0.000364 2707.90015 2732.43042
2697.0 0.000371 2707.72778 2733.24707
2717.0 0.000368 2707.55566 2734.14795
2745.0 0.000364 2707.38403 2735.14697
2723.0 0.000367 2707.21265 2736.25635
2798.0 0.000357 2707.04126 2737.49170
2746.0 0.000364 2706.87036 2738.87109
2886.0 0.0003465 2706.69971 2740.41821
2802.0 0.000357 2706.52954 2742.15894
2737.0 0.000365 2706.35938 2744.12573
2781.0 0.000360 2706.18970 2746.35962
2724.0 0.000367 2706.02002 2748.91016
2784.0 0.000359 2705.85083 2751.83960
2746.0 0.000364 2705.68188 2755.22290
2734.0 0.000366 2705.51294 2759.16260
2787.0 0.000359 2705.34448 2763.78516
2904.0 0.0003444 2705.17651 2768.98755
2706.0 0.000370 2705.00854 2775.52783
2840.0 0.000352 2704.84106 2783.43384
2728.0 0.000367 2704.67358 2793.09839
2803.0 0.000357 2704.50659 2805.08569
2920.0 0.0003425 2704.33984 2820.18799
2834.0 0.000353 2704.17334 2839.49609
2755.0 0.000363 2704.00708 2864.60352
2882.0 0.0003470 2703.84131 2897.59326
2945.0 0.0003396 2703.67554 2941.64331
3141.0 0.0003184 2703.51025 3000.22998
3071.0 0.0003256 2703.34521 3076.31250
3253.0 0.0003074 2703.18018 3168.67773
3307.0 0.0003024 2703.01538 3263.97388
3503.0 0.0002855 2702.85132 3331.74878
3507.0 0.0002851 2702.68726 3341.81689
3399.0 0.0002942 2702.52368 3296.96021
3417.0 0.0002927 2702.36035 3229.36450
3189.0 0.0003136 2702.19727 3167.61011
3185.0 0.0003140 2702.03418 3125.24341
3244.0 0.0003083 2701.87183 3106.11523
3138.0 0.0003187 2701.70947 3107.25269
3252.0 0.0003075 2701.54736 3117.49854
3194.0 0.0003131 2701.38550 3117.71826
3292.0 0.0003038 2701.22412 3092.79712
3251.0 0.0003076 2701.06299 3046.15649
3239.0 0.0003087 2700.90186 2992.72412
3024.0 0.0003307 2700.74146 2943.53687
2956.0 0.0003383 2700.58105 2902.64795
2839.0 0.000352 2700.42090 2870.36108
2797.0 0.000358 2700.26123 2845.54883
2825.0 0.000354 2700.10181 2826.65259
2758.0 0.000363 2699.94238 2812.20996
2829.0 0.000353 2699.78369 2801.07886
2744.0 0.000364 2699.62500 2792.42456
2769.0 0.000361 2699.46655 2785.62915
2819.0 0.000355 2699.30835 2780.25391
2717.0 0.000368 2699.15088 2775.99097
2759.0 0.000362 2698.99316 2772.60474
2862.0 0.0003494 2698.83594 2769.93091
2800.0 0.000357 2698.67920 2767.83984
2725.0 0.000367 2698.52246 2766.23633
2726.0 0.000367 2698.36597 2765.04834
2753.0 0.000363 2698.20996 2764.21875
2822.0 0.000354 2698.05420 2763.70313
2807.0 0.000356 2697.89868 2763.46997
2778.0 0.000360 2697.74341 2763.49121
2770.0 0.000361 2697.58862 2763.74731
2761.0 0.000362 2697.43384 2764.22363
2851.0 0.000351 2697.27930 2764.90869
2770.0 0.000361 2697.12524 2765.79663
2764.0 0.000362 2696.97144 2766.88135
2733.0 0.000366 2696.81812 2768.16187
2758.0 0.000363 2696.66479 2769.64038
2830.0 0.000353 2696.51196 2771.31738
2754.0 0.000363 2696.35913 2773.20068
2787.0 0.000359 2696.20654 2775.29468
2787.0 0.000359 2696.05469 2777.61133
2836.0 0.000353 2695.90283 2780.16187
2824.0 0.000354 2695.75146 2782.95947
2864.0 0.0003492 2695.60010 2786.02271
2796.0 0.000358 2695.44922 2789.36963
2751.0 0.000364 2695.29834 2793.02124
2846.0 0.000351 2695.14819 2797.03760
2955.0 0.0003384 2694.99829 2801.38794
2783.0 0.000359 2694.84839 2806.13208
2854.0 0.0003504 2694.69873 2811.31494
2925.0 0.0003419 2694.54956 2816.98267
2828.0 0.000354 2694.40088 2823.18213
2938.0 0.0003404 2694.25195 2830.17773
2816.0 0.000355 2694.10352 2837.64380
2899.0 0.0003449 2693.95557 2845.86328
2833.0 0.000353 2693.80786 2854.93140
2909.0 0.0003438 2693.66040 2864.96997
2848.0 0.000351 2693.51318 2876.09375
2942.0 0.0003399 2693.36621 2888.47217
2918.0 0.0003427 2693.21973 2902.28809
2768.0 0.000361 2693.07349 2917.78027
2876.0 0.0003477 2692.92725 2935.23047
2952.0 0.0003388 2692.78149 2955.05298
2882.0 0.0003470 2692.63599 2977.48413
3058.0 0.0003270 2692.49097 3003.14404
3208.0 0.0003117 2692.34619 3032.64355
3151.0 0.0003174 2692.20166 3066.82227
3227.0 0.0003099 2692.05737 3106.73462
3241.0 0.0003085 2691.91333 3153.67749
3078.0 0.0003249 2691.76953 3209.47021
3231.0 0.0003095 2691.62622 3276.40552
3313.0 0.0003018 2691.48315 3357.71704
3302.0 0.0003028 2691.34033 3457.71899
3554.0 0.0002814 2691.19800 3582.37378
3682.0 0.0002716 2691.05542 3740.41650
3851.0 0.0002597 2690.91357 3943.38330
4126.0 0.0002424 2690.77197 4207.91992
4521.0 0.0002212 2690.63062 4556.69922
4921.0 0.0002032 2690.48950 5017.80176
5576.0 0.0001793 2690.34863 5616.90723
6277.0 0.0001593 2690.20850 6354.42871
7045.0 0.0001419 2690.06812 7148.56738
7417.0 0.0001348 2689.92822 7779.50391
7620.0 0.0001312 2689.78857 7980.55029
7463.0 0.0001340 2689.64917 7702.54736
7094.0 0.0001410 2689.51050 7185.19482
6671.0 0.0001499 2689.37158 6706.17725
6630.0 0.0001508 2689.23340 6414.60742
6377.0 0.0001568 2689.09521 6354.26465
6496.0 0.0001539 2688.95728 6517.62793
6834.0 0.0001463 2688.81982 6852.32129
7147.0 0.0001399 2688.68237 7238.86035
7086.0 0.0001411 2688.54565 7510.32422
7196.0 0.0001390 2688.40894 7551.87354
6729.0 0.0001486 2688.27246 7342.13135
6440.0 0.0001553 2688.13647 6908.03711
6035.0 0.0001657 2688.00073 6342.35840
5430.0 0.0001842 2687.86548 5780.82715
5094.0 0.0001963 2687.73022 5321.01514
4880.0 0.0002049 2687.59521 4995.54785
4674.0 0.0002139 2687.46069 4799.25830
4622.0 0.0002164 2687.32642 4707.25537
4486.0 0.0002229 2687.19263 4673.35596
4421.0 0.0002262 2687.05859 4626.32813
4366.0 0.0002290 2686.92529 4500.37598
4205.0 0.0002378 2686.79248 4289.85791
3991.0 0.0002506 2686.65967 4045.67944
3897.0 0.0002566 2686.52710 3817.90527
3722.0 0.0002687 2686.39502 3627.79712
3443.0 0.0002904 2686.26294 3476.49609
3467.0 0.0002884 2686.13159 3357.80103
3371.0 0.0002966 2686.00024 3264.24951
3318.0 0.0003014 2685.86914 3189.68188
3232.0 0.0003094 2685.73853 3129.48901
3125.0 0.0003200 2685.60815 3080.14160
3132.0 0.0003193 2685.47803 3039.17188
3005.0 0.0003328 2685.34814 3004.69556
3083.0 0.0003244 2685.21875 2975.37354
3093.0 0.0003233 2685.08960 2950.19360
3013.0 0.0003319 2684.96045 2928.35815
2932.0 0.0003411 2684.83203 2909.28076
2977.0 0.0003359 2684.70386 2892.50293
2987.0 0.0003348 2684.57593 2877.64185
2883.0 0.0003469 2684.44800 2864.40088
2869.0 0.0003486 2684.32080 2852.55444
2830.0 0.000353 2684.19360 2841.89673
2748.0 0.000364 2684.06665 2832.26392
2912.0 0.0003434 2683.94019 2823.53369
2873.0 0.0003481 2683.81421 2815.58276
2766.0 0.000362 2683.68848 2807.82446
2797.0 0.000358 2683.56274 2801.17871
2845.0 0.000351 2683.43750 2795.07495
2702.0 0.000370 2683.31250 2789.42505
2868.0 0.0003487 2683.18774 2784.23364
2781.0 0.000360 2683.06348 2779.42920
2749.0 0.000364 2682.93945 2774.97607
2809.0 0.000356 2682.81567 2770.83521
2797.0 0.000358 2682.69214 2766.98047
2718.0 0.000368 2682.56885 2763.13818
2754.0 0.000363 2682.44629 2759.78442
2774.0 0.000360 2682.32373 2756.64624
2820.0 0.000355 2682.20142 2753.69336
2769.0 0.000361 2682.07935 2750.93701
2833.0 0.000353 2681.95776 2748.34863
2751.0 0.000364 2681.83643 2745.91675
2797.0 0.000358 2681.71533 2743.62744
2738.0 0.000365 2681.59473 2741.47266
2694.0 0.000371 2681.47412 2739.44116
2794.0 0.000358 2681.35425 2737.52588
2695.0 0.000371 2681.23438 2735.71948
2817.0 0.000355 2681.11499 2734.01294
2747.0 0.000364 2680.99561 2732.40210
2682.0 0.000373 2680.87695 2730.88208
2720.0 0.000368 2680.75830 2729.44653
2692.0 0.000371 2680.63989 2728.08984
2694.0 0.000371 2680.52197 2726.81152
2706.0 0.000370 2680.40430 2725.60522
2815.0 0.000355 2680.28687 2724.46777
2703.0 0.000370 2680.16992 2723.43188
2863.0 0.0003493 2680.05298 2722.42627
2779.0 0.000360 2679.93652 2721.48438
2757.0 0.000363 2679.82056 2720.60181
2734.0 0.000366 2679.70459 2719.77930
2687.0 0.000372 2679.58911 2719.01563
2809.0 0.000356 2679.47412 2718.30884
2756.0 0.000363 2679.35889 2717.65942
2755.0 0.000363 2679.24463 2717.06836
2715.0 0.000368 2679.13013 2716.53491
2759.0 0.000362 2679.01611 2716.07666
2759.0 0.000362 2678.90259 2715.78931
2780.0 0.000360 2678.78931 2715.43896
2706.0 0.000370 2678.67603 2715.15332
2711.0 0.000369 2678.56348 2714.93555
2750.0 0.000364 2678.45093 2714.78955
2620.0 0.000382 2678.33862 2714.72168
2770.0 0.000361 2678.22681 2714.73633
2681.0 0.000373 2678.11548 2714.84180
2795.0 0.000358 2678.00415 2715.04810
2818.0 0.000355 2677.89331 2715.36548
2773.0 0.000361 2677.78271 2715.87134
2829.0 0.000353 2677.67261 2716.45728
2738.0 0.000365 2677.56274 2717.20581
2740.0 0.000365 2677.45288 2718.14575
2848.0 0.000351 2677.34351 2719.30786
2599.0 0.000385 2677.23462 2720.73389
2673.0 0.000374 2677.12573 2722.47949
2655.0 0.000377 2677.01733 2724.61304
2790.0 0.000358 2676.90942 2727.22583
2763.0 0.000362 2676.80151 2730.44165
2731.0 0.000366 2676.69409 2734.41943
2745.0 0.000364 2676.58691 2739.38208
2757.0 0.000363 2676.47998 2745.62183
2764.0 0.000362 2676.37354 2753.53784
2729.0 0.000366 2676.26709 2763.61987
2752.0 0.000363 2676.16138 2776.38965
2797.0 0.000358 2676.05566 2792.20972
2864.0 0.0003492 2675.95044 2810.83984
2893.0 0.0003457 2675.84546 2831.30859
2874.0 0.0003479 2675.74072 2853.05908
2962.0 0.0003376 2675.63647 2877.57520
2842.0 0.000352 2675.53247 2907.37036
2960.0 0.0003378 2675.42871 2942.20679
3022.0 0.0003309 2675.32520 2975.34424
3052.0 0.0003277 2675.22217 2994.27295
3083.0 0.0003244 2675.11938 2990.32983
3002.0 0.0003331 2675.01685 2968.05908
3014.0 0.0003318 2674.91455 2939.83862
2933.0 0.0003409 2674.81299 2915.01147
2965.0 0.0003373 2674.71143 2897.54126
2854.0 0.0003504 2674.61011 2888.69800
2906.0 0.0003441 2674.50928 2888.16504
2857.0 0.0003500 2674.40869 2893.07520
2932.0 0.0003411 2674.30835 2897.34790
2990.0 0.0003344 2674.20850 2894.16895
2769.0 0.000361 2674.10889 2881.77661
2846.0 0.000351 2674.00928 2864.91040
2899.0 0.0003449 2673.91040 2849.67310
2840.0 0.000352 2673.81177 2839.69360
2783.0 0.000359 2673.71338 2836.28467
2920.0 0.0003425 2673.61523 2839.88696
2862.0 0.0003494 2673.51758 2850.89526
2874.0 0.0003479 2673.41992 2869.83569
2914.0 0.0003432 2673.32300 2896.70825
3012.0 0.0003320 2673.22632 2929.37549
3061.0 0.0003267 2673.12988 2961.17896
2954.0 0.0003385 2673.03369 2981.71533
2926.0 0.0003418 2672.93774 2984.86523
2960.0 0.0003378 2672.84204 2976.15161
3128.0 0.0003197 2672.74707 2967.72510
3025.0 0.0003306 2672.65210 2969.16089
3029.0 0.0003301 2672.55737 2984.85303
3229.0 0.0003097 2672.46313 3014.56079
3214.0 0.0003111 2672.36914 3052.42749
3312.0 0.0003019 2672.27563 3084.98633
3116.0 0.0003209 2672.18237 3095.09814
3178.0 0.0003147 2672.08936 3074.81885
3037.0 0.0003293 2671.99683 3032.72192
3067.0 0.0003261 2671.90430 2985.12915
2987.0 0.0003348 2671.81250 2944.34155
2896.0 0.0003453 2671.72070 2915.44385
2984.0 0.0003351 2671.62939 2898.69336
2960.0 0.0003378 2671.53833 2891.59302
2960.0 0.0003378 2671.44751 2888.94434
2879.0 0.0003473 2671.35693 2883.27734
2913.0 0.0003433 2671.26685 2868.75488
3023.0 0.0003308 2671.17700 2841.44019
2874.0 0.0003479 2671.08765 2815.82202
2908.0 0.0003439 2670.99829 2792.07788
2844.0 0.000352 2670.90942 2772.23389
2835.0 0.000353 2670.82104 2756.36108
2797.0 0.000358 2670.73267 2743.83008
2886.0 0.0003465 2670.64502 2733.92505
2722.0 0.000367 2670.55737 2726.00659
2753.0 0.000363 2670.47021 2719.60229
2799.0 0.000357 2670.38330 2712.07935
2760.0 0.000362 2670.29663 2707.74292
2714.0 0.000368 2670.21021 2704.10156
2756.0 0.000363 2670.12451 2701.00879
2704.0 0.000370 2670.03882 2698.35718
2764.0 0.000362 2669.95361 2696.06421
2730.0 0.000366 2669.86841 2694.06543
2727.0 0.000367 2669.78394 2692.31030
2681.0 0.000373 2669.69946 2690.76074
2713.0 0.000369 2669.61548 2689.38501
2765.0 0.000362 2669.53174 2688.15674
2812.0 0.000356 2669.44849 2687.05737
2694.0 0.000371 2669.36548 2686.06860
2742.0 0.000365 2669.28271 2685.17651
2742.0 0.000365 2669.20020 2684.36987
2735.0 0.000366 2669.11816 2686.31348
2764.0 0.000362 2669.03638 2685.68677
2660.0 0.000376 2668.95508 2685.12134
2791.0 0.000358 2668.87378 2684.61230
2726.0 0.000367 2668.79297 2684.15576
2718.0 0.000368 2668.71265 2683.74585
2796.0 0.000358 2668.63257 2688.76050
2762.0 0.000362 2668.55273 2688.50903
2763.0 0.000362 2668.47314 2688.29858
2736.0 0.000365 2668.39404 2688.12744
2860.0 0.0003497 2668.31519 2689.32617
2700.0 0.000370 2668.23682 2689.24854
2770.0 0.000361 2668.15845 2689.20825
2750.0 0.000364 2668.08081 2689.20703
2778.0 0.000360 2668.00293 2689.24390
2796.0 0.000358 2667.92578 2689.32080
2742.0 0.000365 2667.84888 2692.11499
2775.0 0.000360 2667.77246 2692.31274
2873.0 0.0003481 2667.69604 2692.55688
2788.0 0.000359 2667.62036 2692.93652
2786.0 0.000359 2667.54468 2693.28979
2768.0 0.000361 2667.46948 2693.70483
2785.0 0.000359 2667.39453 2694.29419
2698.0 0.000371 2667.31982 2694.85986
2706.0 0.000370 2667.24561 2695.51587
2828.0 0.000354 2667.17188 2696.27979
2850.0 0.000351 2667.09790 2697.17041
2700.0 0.000370 2667.02490 2698.21265
2858.0 0.0003499 2666.95166 2699.65747
2725.0 0.000367 2666.87915 2701.11768
2819.0 0.000355 2666.80688 2702.86768
2805.0 0.000357 2666.73486 2705.25513
2679.0 0.000373 2666.66309 2707.85352
2766.0 0.000362 2666.59180 2711.07495
2680.0 0.000373 2666.52075 2715.10669
2806.0 0.000356 2666.45020 2720.17188
2749.0 0.000364 2666.37988 2726.48438
2763.0 0.000362 2666.30957 2734.07642
2854.0 0.0003504 2666.23999 2742.44482
2760.0 0.000362 2666.17090 2750.23999
2738.0 0.000365 2666.10181 2755.64502
2802.0 0.000357 2666.03320 2757.97339
2945.0 0.0003396 2665.96460 2758.64819
2890.0 0.0003460 2665.89673 2760.00781
2865.0 0.0003490 2665.82910 2763.88110
2933.0 0.0003409 2665.76147 2771.37769
2741.0 0.000365 2665.69434 2783.21265
2921.0 0.0003423 2665.62793 2799.83032
2892.0 0.0003458 2665.56128 2820.85938
2820.0 0.000355 2665.49512 2843.98706
2902.0 0.0003446 2665.42944 2863.92480
2967.0 0.0003370 2665.36401 2873.52783
2890.0 0.0003460 2665.29907 2868.74780
3007.0 0.0003326 2665.23438 2852.70093
2892.0 0.0003458 2665.16992 2832.82739
2844.0 0.000352 2665.10571 2815.25244
2828.0 0.000354 2665.04224 2802.77954
2843.0 0.000352 2664.97852 2795.99561
2901.0 0.0003447 2664.91553 2794.34448
2918.0 0.0003427 2664.85278 2796.29736
2858.0 0.0003499 2664.79028 2798.97412
2824.0 0.000354 2664.72827 2798.50562
2978.0 0.0003358 2664.66650 2792.34375
2872.0 0.0003482 2664.60498 2781.43799
2774.0 0.000360 2664.54395 2768.90015
2741.0 0.000365 2664.48315 2757.29565
2788.0 0.000359 2664.42285 2747.69556
2839.0 0.000352 2664.36279 2740.17188
2821.0 0.000354 2664.30298 2734.41602
2776.0 0.000360 2664.24365 2730.06274
2834.0 0.000353 2664.18433 2726.78467
2741.0 0.000365 2664.12549 2724.32935
2813.0 0.000355 2664.06714 2722.51147
2954.0 0.0003385 2664.00903 2721.19116
2787.0 0.000359 2663.95142 2720.26660
2846.0 0.000351 2663.89380 2719.66284
2884.0 0.0003467 2663.83667 2719.32251
2860.0 0.0003497 2663.78003 2719.20337
2800.0 0.000357 2663.72363 2719.27466
2798.0 0.000357 2663.66748 2719.47974
2842.0 0.000352 2663.61182 2719.86353
2814.0 0.000355 2663.55640 2720.37891
2763.0 0.000362 2663.50098 2721.01660
2847.0 0.000351 2663.44653 2721.76685
2804.0 0.000357 2663.39209 2722.62524
2781.0 0.000360 2663.33789 2723.38965
2809.0 0.000356 2663.28394 2724.45288
2787.0 0.000359 2663.23071 2725.61548
2852.0 0.0003506 2663.17749 2726.86084
2744.0 0.000364 2663.12476 2728.24829
2848.0 0.000351 2663.07251 2729.70776
2800.0 0.000357 2663.02051 2731.29663
2775.0 0.000360 2662.96875 2732.96143
2752.0 0.000363 2662.91724 2734.73511
2759.0 0.000362 2662.86621 2736.52002
2810.0 0.000356 2662.81543 2738.52319
2804.0 0.000357 2662.76489 2740.64771
2746.0 0.000364 2662.71484 2742.89966
2664.0 0.000375 2662.66528 2745.28784
2945.0 0.0003396 2662.61572 2747.83374
2820.0 0.000355 2662.56665 2750.54370
2744.0 0.000364 2662.51807 2753.38721
2824.0 0.000354 2662.46973 2756.41943
2858.0 0.0003499 2662.42163 2759.61743
2915.0 0.0003431 2662.37378 2763.01465
2764.0 0.000362 2662.32642 2766.62012
2847.0 0.000351 2662.27954 2770.45459
2804.0 0.000357 2662.23267 2774.37280
2815.0 0.000355 2662.18652 2778.71509
2926.0 0.0003418 2662.14063 2783.34595
2951.0 0.0003389 2662.09473 2788.30054
2835.0 0.000353 2662.04956 2793.57373
2902.0 0.0003446 2662.00439 2799.21533
2907.0 0.0003440 2661.95972 2805.25928
2950.0 0.0003390 2661.91553 2811.73560
2863.0 0.0003493 2661.87134 2818.48804
2849.0 0.000351 2661.82788 2825.89746
2927.0 0.0003416 2661.78467 2833.96265
2946.0 0.0003394 2661.74146 2842.67310
2829.0 0.000353 2661.69897 2852.08911
2958.0 0.0003381 2661.65674 2862.29810
3019.0 0.0003312 2661.61475 2873.38672
2971.0 0.0003366 2661.57300 2885.45117
2908.0 0.0003439 2661.53174 2898.62402
2977.0 0.0003359 2661.49097 2913.03906
3001.0 0.0003332 2661.45044 2928.74585
2938.0 0.0003404 2661.41016 2946.15479
3037.0 0.0003293 2661.37012 2965.37793
3051.0 0.0003278 2661.33057 2986.66724
2961.0 0.0003377 2661.29126 3010.34814
3028.0 0.0003303 2661.25244 3036.80542
3086.0 0.0003240 2661.21387 3066.45703
3144.0 0.0003181 2661.17578 3099.87573
3073.0 0.0003254 2661.13770 3137.74561
3223.0 0.0003103 2661.10034 3180.84473
3238.0 0.0003088 2661.06299 3230.25586
3282.0 0.0003047 2661.02637 3287.22339
3245.0 0.0003082 2660.98975 3353.44922
3402.0 0.0002939 2660.95361 3431.02148
3570.0 0.0002801 2660.91772 3522.63770
3629.0 0.0002756 2660.88232 3631.98926
3642.0 0.0002746 2660.84717 3763.81396
3817.0 0.0002620 2660.81250 3924.40088
4014.0 0.0002491 2660.77808 4122.38574
4129.0 0.0002422 2660.74390 4369.21533
4650.0 0.0002151 2660.71021 4679.30566
4916.0 0.0002034 2660.67676 5070.91162
5543.0 0.0001804 2660.64380 5562.97363
6128.0 0.0001632 2660.61084 6165.96533
6983.0 0.0001432 2660.57861 6865.79199
7646.0 0.0001308 2660.54663 7598.81543
8164.0 0.0001225 2660.51489 8263.72363
9005.0 0.0001110 2660.48340 8797.51953
9157.0 0.0001092 2660.45239 9251.88770
9772.0 0.0001023 2660.42163 9734.06934
10414.0 0.0000960 2660.39136 10261.22461
10625.0 0.0000941 2660.36133 10688.39941
10476.0 0.0000955 2660.33179 10797.74805
10258.0 0.0000975 2660.30249 10508.25098
9569.0 0.0001045 2660.27344 9964.21777
8808.0 0.0001135 2660.24487 9375.51465
8327.0 0.0001201 2660.21655 8853.46875
7892.0 0.0001267 2660.18872 8412.69531
7935.0 0.0001260 2660.16113 8056.39893
7718.0 0.0001296 2660.13379 7810.10547
7680.0 0.0001302 2660.10693 7674.30322
7564.0 0.0001322 2660.08032 7576.86475
7459.0 0.0001341 2660.05420 7390.92773
6906.0 0.0001448 2660.02832 7026.86475
6427.0 0.0001556 2660.00269 6512.35254
5738.0 0.0001743 2659.97754 5952.78223
5344.0 0.0001871 2659.95288 5438.18506
4782.0 0.0002091 2659.92847 5009.36328
4638.0 0.0002156 2659.90430 4671.17480
4415.0 0.0002265 2659.88062 4413.22949
4383.0 0.0002282 2659.85718 4222.47803
4293.0 0.0002329 2659.83398 4087.24658
4277.0 0.0002338 2659.81128 3996.51001
4070.0 0.0002457 2659.78906 3938.22437
4111.0 0.0002432 2659.76685 3897.50659
4207.0 0.0002377 2659.74512 3858.85107
3986.0 0.0002509 2659.72363 3811.26099
3991.0 0.0002506 2659.70288 3748.85547
3959.0 0.0002526 2659.68213 3670.66528
3616.0 0.0002765 2659.66187 3583.49658
3740.0 0.0002674 2659.64185 3499.53540
3598.0 0.0002779 2659.62231 3429.02197
3553.0 0.0002815 2659.60303 3376.19507
3589.0 0.0002786 2659.58398 3339.79761
3435.0 0.0002911 2659.56543 3314.59009
3406.0 0.0002936 2659.54712 3293.12207
3381.0 0.0002958 2659.52930 3268.80859
3391.0 0.0002949 2659.51172 3237.52148
3291.0 0.0003039 2659.49463 3197.37915
3342.0 0.0002992 2659.47778 3149.56030
3206.0 0.0003119 2659.46143 3098.91138
3186.0 0.0003139 2659.44531 3050.94824
3102.0 0.0003224 2659.42944 3008.86670
3006.0 0.0003327 2659.41382 2973.17651
3031.0 0.0003299 2659.39893 2943.35669
3091.0 0.0003235 2659.38403 2918.41040
2993.0 0.0003341 2659.36987 2897.40894
2925.0 0.0003419 2659.35547 2879.37793
3017.0 0.0003315 2659.34204 2863.94873
2870.0 0.0003484 2659.32861 2850.50879
2933.0 0.0003409 2659.31567 2838.67480
3018.0 0.0003313 2659.30298 2828.16089
2919.0 0.0003426 2659.29077 2818.75513
2861.0 0.0003495 2659.27881 2810.27637
2864.0 0.0003492 2659.26709 2802.64551
2895.0 0.0003454 2659.25610 2795.64185
2864.0 0.0003492 2659.24487 2789.22729
2860.0 0.0003497 2659.23462 2783.27051
2861.0 0.0003495 2659.22437 2777.83252
2955.0 0.0003384 2659.21436 2772.80005
2860.0 0.0003497 2659.20483 2768.13306
2836.0 0.000353 2659.19580 2763.78882
2795.0 0.000358 2659.18701 2759.73828
2925.0 0.0003419 2659.17871 2755.95679
2839.0 0.000352 2659.17065 2752.41553
2934.0 0.0003408 2659.16260 2749.09619
2804.0 0.000357 2659.15527 2745.98218
2912.0 0.0003434 2659.14844 2743.05493
2794.0 0.000358 2659.14160 2740.29956
2875.0 0.0003478 2659.13550 2737.70801
2815.0 0.000355 2659.12915 2735.26440
2884.0 0.0003467 2659.12354 2732.96240
2764.0 0.000362 2659.11841 2730.79004
2808.0 0.000356 2659.11328 2728.74194
2840.0 0.000352 2659.10889 2726.81226
2825.0 0.000354 2659.10474 2724.99219
2907.0 0.0003440 2659.10083 2723.27930
2888.0 0.0003463 2659.09741 2721.77734
2849.0 0.000351 2659.09399 2720.26587
2848.0 0.000351 2659.09131 2718.85083
2833.0 0.000353 2659.08887 2717.53003
2804.0 0.000357 2659.08667 2716.30225
2708.0 0.000369 2659.08496 2715.19897
2770.0 0.000361 2659.08374 2714.15869
2814.0 0.000355 2659.08276 2713.21436
2816.0 0.000355 2659.08179 2712.36914
2785.0 0.000359 2659.08154 2711.62939
2894.0 0.0003455 2659.08154 2711.00146
2793.0 0.000358 2659.08203 2710.55151
2669.0 0.000375 2659.08252 2710.18188
2745.0 0.000364 2659.08374 2709.96680
2710.0 0.000369 2659.08521 2709.92847
2848.0 0.000351 2659.08691 2710.09619
2806.0 0.000356 2659.08911 2710.51465
2779.0 0.000360 2659.09180 2711.25342
2885.0 0.0003466 2659.09448 2712.35327
2791.0 0.000358 2659.09766 2713.93066
2746.0 0.000364 2659.10107 2716.11597
2760.0 0.000362 2659.10522 2719.07959
2885.0 0.0003466 2659.10938 2723.03564
2765.0 0.000362 2659.11377 2728.21509
2700.0 0.000370 2659.11914 2734.81665
2708.0 0.000369 2659.12451 2742.82544
2812.0 0.000356 2659.12988 2751.75928
2748.0 0.000364 2659.13599 2760.43848
2764.0 0.000362 2659.14233 2767.29712
2882.0 0.0003470 2659.14917 2771.20313
2948.0 0.0003392 2659.15625 2771.85400
2788.0 0.000359 2659.16357 2769.62183
2811.0 0.000356 2659.17163 2765.62842
2839.0 0.000352 2659.17969 2761.64502
2815.0 0.000355 2659.18823 2759.32300
2908.0 0.0003439 2659.19702 2759.54443
2823.0 0.000354 2659.20630 2762.26416
2806.0 0.000356 2659.21606 2766.41284
2794.0 0.000358 2659.22607 2769.95166
2725.0 0.000367 2659.23633 2770.62573
2818.0 0.000355 2659.24707 2767.36182
2799.0 0.000357 2659.25806 2760.76440
2736.0 0.000365 2659.26929 2752.29956
2747.0 0.000364 2659.28101 2743.47583
2825.0 0.000354 2659.29321 2735.51147
2778.0 0.000360 2659.30566 2729.11084
2753.0 0.000363 2659.31836 2724.45068
2779.0 0.000360 2659.33154 2721.29810
2825.0 0.000354 2659.34521 2719.07959
2700.0 0.000370 2659.35913 2716.95825
2878.0 0.0003475 2659.37329 2714.17603
2627.0 0.000381 2659.38794 2710.52246
2769.0 0.000361 2659.40259 2706.38501
2765.0 0.000362 2659.41797 2702.31909
2769.0 0.000361 2659.43384 2698.68628
2802.0 0.000357 2659.44995 2695.59595
2769.0 0.000361 2659.46606 2693.02490
2737.0 0.000365 2659.48291 2690.89307
2756.0 0.000363 2659.50024 2689.11792
2698.0 0.000371 2659.51758 2687.62500
2720.0 0.000368 2659.53540 2686.35742
2754.0 0.000363 2659.55371 2685.26611
2742.0 0.000365 2659.57227 2684.31836
2722.0 0.000367 2659.59106 2683.48682
2743.0 0.000365 2659.61035 2682.74805
2740.0 0.000365 2659.62988 2682.08984
2719.0 0.000368 2659.64990 2681.49634
2791.0 0.000358 2659.67017 2680.95972
2766.0 0.000362 2659.69092 2680.47144
2787.0 0.000359 2659.71191 2680.02490
2777.0 0.000360 2659.73340 2676.92383
2720.0 0.000368 2659.75537 2676.58203
2782.0 0.000359 2659.77734 2676.26880
2804.0 0.000357 2659.79980 2675.98022
2740.0 0.000365 2659.82275 2675.71558
2800.0 0.000357 2659.84595 2670.08350
2720.0 0.000368 2659.86963 2669.93042
2789.0 0.000359 2659.89355 2669.79468
2819.0 0.000355 2659.91772 2669.67212
2816.0 0.000355 2659.94238 2669.56494
2759.0 0.000362 2659.96753 2668.11987
2787.0 0.000359 2659.99292 2668.05518
2857.0 0.0003500 2660.01855 2668.00317
2742.0 0.000365 2660.04468 2667.96240
2803.0 0.000357 2660.07104 2667.93164
2780.0 0.000360 2660.09790 2667.91187
2662.0 0.000376 2660.12524 2665.23315
2780.0 0.000360 2660.15259 2665.26855
2847.0 0.000351 2660.18042 2665.31396
2747.0 0.000364 2660.20898 2665.36792
2754.0 0.000363 2660.23730 2665.43188
2801.0 0.000357 2660.26636 2665.50513
2632.0 0.000380 2660.29565 2665.58862
2668.0 0.000375 2660.32568 2665.68188
2767.0 0.000361 2660.35547 2665.78540
2857.0 0.0003500 2660.38599 2665.90063
2690.0 0.000372 2660.41675 2666.02710
2834.0 0.000353 2660.44800 2666.16602
2773.0 0.000361 2660.47949 2666.31689
2746.0 0.000364 2660.51147 2666.48242
2792.0 0.000358 2660.54370 2666.66284
2811.0 0.000356 2660.57617 2666.85864
2839.0 0.000352 2660.60938 2667.07251
2740.0 0.000365 2660.64258 2667.30444
2719.0 0.000368 2660.67651 2667.55811
2808.0 0.000356 2660.71045 2667.83398
2723.0 0.000367 2660.74487 2668.13550
2758.0 0.000363 2660.77954 2668.46460
2768.0 0.000361 2660.81470 2668.82520
2729.0 0.000366 2660.85034 2669.22192
2893.0 0.0003457 2660.88623 2669.65747
2792.0 0.000358 2660.92236 2670.13867
2821.0 0.000354 2660.95898 2670.67090
2905.0 0.0003442 2660.99609 2671.26196
2771.0 0.000361 2661.03320 2671.92114
2819.0 0.000355 2661.07129 2672.65918
2759.0 0.000362 2661.10913 2673.48901
2762.0 0.000362 2661.14746 2674.42920
2829.0 0.000353 2661.18628 2675.49585
2734.0 0.000366 2661.22534 2676.71729
2825.0 0.000354 2661.26489 2678.12476
2813.0 0.000355 2661.30493 2679.75781
2712.0 0.000369 2661.34521 2681.66797
2748.0 0.000364 2661.38574 2683.92505
2772.0 0.000361 2661.42676 2686.61475
2770.0 0.000361 2661.46802 2689.85742
2799.0 0.000357 2661.50977 2693.80981
2745.0 0.000364 2661.55176 2698.67285
2746.0 0.000364 2661.59424 2704.63135
2818.0 0.000355 2661.63721 2712.20435
2793.0 0.000358 2661.68018 2721.70630
2749.0 0.000364 2661.72363 2733.15894
2755.0 0.000363 2661.76758 2747.80200
2759.0 0.000362 2661.81201 2765.17090
2865.0 0.0003490 2661.85669 2784.22339
2886.0 0.0003465 2661.90161 2802.19531
2878.0 0.0003475 2661.94702 2814.69141
2933.0 0.0003409 2661.99268 2817.74927
2844.0 0.000352 2662.03882 2811.01563
2969.0 0.0003368 2662.08521 2798.13599
2897.0 0.0003452 2662.13208 2783.88452
2891.0 0.0003459 2662.17920 2771.66699
2849.0 0.000351 2662.22681 2763.05029
2874.0 0.0003479 2662.27466 2758.42407
2852.0 0.0003506 2662.32300 2757.51099
2861.0 0.0003495 2662.37158 2759.44897
2905.0 0.0003442 2662.42065 2762.59961
2856.0 0.0003501 2662.47021 2764.51904
2882.0 0.0003470 2662.51978 2762.84009
2970.0 0.0003367 2662.57007 2756.80273
2850.0 0.000351 2662.62061 2747.73218
2834.0 0.000353 2662.67139 2737.80908
2886.0 0.0003465 2662.72266 2728.68604
2895.0 0.0003454 2662.77417 2721.11353
2664.0 0.000375 2662.82617 2715.24780
2824.0 0.000354 2662.87866 2710.96924
2758.0 0.000363 2662.93115 2708.08105
2889.0 0.0003461 2662.98438 2706.41211
2871.0 0.0003483 2663.03784 2705.84375
2769.0 0.000361 2663.09131 2706.31860
2804.0 0.000357 2663.14575 2707.84839
2834.0 0.000353 2663.19995 2710.50903
2814.0 0.000355 2663.25488 2714.45996
2908.0 0.0003439 2663.31030 2719.93091
2842.0 0.000352 2663.36597 2727.24463
2786.0 0.000359 2663.42188 2736.77979
2847.0 0.000351 2663.47827 2748.91138
2839.0 0.000352 2663.53516 2763.85107
2885.0 0.0003466 2663.59204 2781.21948
2909.0 0.0003438 2663.64966 2799.46240
2994.0 0.0003340 2663.70752 2815.47461
2955.0 0.0003384 2663.76587 2825.41235
2997.0 0.0003337 2663.82422 2827.18286
3012.0 0.0003320 2663.88330 2822.25415
2901.0 0.0003447 2663.94238 2814.26953
2798.0 0.000357 2664.00220 2806.23145
2941.0 0.0003400 2664.06250 2799.20605
2840.0 0.000352 2664.12256 2793.09082
2774.0 0.000360 2664.18359 2787.89648
2977.0 0.0003359 2664.24463 2784.12842
2800.0 0.000357 2664.30640 2782.01196
2829.0 0.000353 2664.36816 2780.69995
2836.0 0.000353 2664.43066 2778.37866
2872.0 0.0003482 2664.49316 2773.45190
2825.0 0.000354 2664.55615 2765.82959
2967.0 0.0003370 2664.61938 2756.82910
2778.0 0.000360 2664.68311 2747.86035
2767.0 0.000361 2664.74731 2739.47827
2894.0 0.0003455 2664.81177 2731.63452
2794.0 0.000358 2664.87671 2723.85718
2831.0 0.000353 2664.94189 2716.36987
2796.0 0.000358 2665.00757 2709.50732
2853.0 0.0003505 2665.07349 2703.53589
2800.0 0.000357 2665.13989 2698.51099
2829.0 0.000353 2665.20654 2694.36548
2809.0 0.000356 2665.27368 2690.96338
2792.0 0.000358 2665.34106 2688.17090
2730.0 0.000366 2665.40894 2685.86914
2817.0 0.000355 2665.47705 2683.92847
2837.0 0.000352 2665.54565 2682.33057
2804.0 0.000357 2665.61450 2681.04517
2692.0 0.000371 2665.68384 2679.87500
2750.0 0.000364 2665.75366 2678.90112
2787.0 0.000359 2665.82349 2678.06567
2849.0 0.000351 2665.89404 2677.34619
2758.0 0.000363 2665.96484 2676.72363
2734.0 0.000366 2666.03613 2676.18481
2812.0 0.000356 2666.10742 2675.71924
2865.0 0.0003490 2666.17944 2675.31470
2862.0 0.0003494 2666.25171 2674.92285
2793.0 0.000358 2666.32422 2674.62305
2777.0 0.000360 2666.39746 2674.36670
2842.0 0.000352 2666.47070 2674.13452
2857.0 0.0003500 2666.54443 2673.95361
2840.0 0.000352 2666.61865 2673.80615
2757.0 0.000363 2666.69312 2673.68921
2794.0 0.000358 2666.76807 2673.60181
2848.0 0.000351 2666.84326 2673.54199
2776.0 0.000360 2666.91895 2673.51074
2762.0 0.000362 2666.99512 2673.50610
2765.0 0.000362 2667.07129 2673.51416
2773.0 0.000361 2667.14795 2673.56494
2773.0 0.000361 2667.22510 2673.64502
2760.0 0.000362 2667.30249 2673.75586
2682.0 0.000373 2667.38062 2673.89941
2729.0 0.000366 2667.45850 2674.08008
2733.0 0.000366 2667.53711 2674.30103
2735.0 0.000366 2667.61621 2674.56787
2798.0 0.000357 2667.69580 2674.88794
2874.0 0.0003479 2667.77539 2675.26953
2724.0 0.000367 2667.85547 2675.72534
2908.0 0.0003439 2667.93579 2676.26978
2793.0 0.000358 2668.01660 2676.92310
2747.0 0.000364 2668.09814 2677.71216
2778.0 0.000360 2668.17944 2678.67017
2832.0 0.000353 2668.26147 2679.84424
2737.0 0.000365 2668.34399 2681.29346
2698.0 0.000371 2668.42651 2683.09180
2846.0 0.000351 2668.50977 2685.33350
2777.0 0.000360 2668.59302 2688.12622
2854.0 0.0003504 2668.67700 2691.58521
2836.0 0.000353 2668.76123 2695.79272
2743.0 0.000365 2668.84570 2700.71802
2824.0 0.000354 2668.93066 2706.08765
2938.0 0.0003404 2669.01587 2711.19287
2795.0 0.000358 2669.10181 2714.91553
2899.0 0.0003449 2669.18774 2716.19189
2877.0 0.0003476 2669.27441 2714.75684
2815.0 0.000355 2669.36108 2711.39551
2863.0 0.0003493 2669.44800 2707.34351
2894.0 0.0003455 2669.53589 2703.60352
2810.0 0.000356 2669.62378 2700.72876
2850.0 0.000351 2669.71191 2698.91089
2819.0 0.000355 2669.80078 2698.13599
2695.0 0.000371 2669.88989 2698.24829
2939.0 0.0003403 2669.97925 2698.91626
2924.0 0.0003420 2670.06909 2699.59741
2795.0 0.000358 2670.15918 2699.62476
2891.0 0.0003459 2670.24976 2698.51758
2866.0 0.0003489 2670.34058 2696.29883
2882.0 0.0003470 2670.43213 2693.42871
2815.0 0.000355 2670.52393 2690.44458
2764.0 0.000362 2670.61572 2687.70825
2875.0 0.0003478 2670.70825 2685.36694
2850.0 0.000351 2670.80127 2683.43750
2805.0 0.000357 2670.89429 2686.82251
2814.0 0.000355 2670.98779 2685.62378
2834.0 0.000353 2671.08179 2684.67627
2889.0 0.0003461 2671.17603 2683.92920
2953.0 0.0003386 2671.27075 2683.33887
2806.0 0.000356 2671.36597 2682.87549
2812.0 0.000356 2671.46118 2682.51001
2813.0 0.000355 2671.55713 2682.22534
2812.0 0.000356 2671.65332 2684.45703
2841.0 0.000352 2671.74976 2684.31519
2772.0 0.000361 2671.84668 2684.21777
2788.0 0.000359 2671.94409 2684.15649
2866.0 0.0003489 2672.04199 2684.12671
2735.0 0.000366 2672.14014 2686.61182
2801.0 0.000357 2672.23828 2686.65918
2750.0 0.000364 2672.33716 2686.72607
2785.0 0.000359 2672.43628 2686.81201
2791.0 0.000358 2672.53613 2686.91382
2857.0 0.0003500 2672.63599 2687.03052
2794.0 0.000358 2672.73633 2687.16016
2739.0 0.000365 2672.83691 2687.30298
2869.0 0.0003486 2672.93799 2688.68921
2792.0 0.000358 2673.03955 2688.86572
2802.0 0.000357 2673.14160 2689.05200
2856.0 0.0003501 2673.24365 2689.24707
2855.0 0.0003503 2673.34619 2689.45142
2770.0 0.000361 2673.44922 2689.66357
2819.0 0.000355 2673.55249 2689.88330
2755.0 0.000363 2673.65625 2690.11084
2876.0 0.0003477 2673.76025 2690.34595
2806.0 0.000356 2673.86475 2690.58862
2874.0 0.0003479 2673.96973 2690.83789
2911.0 0.0003435 2674.07495 2691.09302
2914.0 0.0003432 2674.18066 2691.35645
2777.0 0.000360 2674.28662 2691.62549
2818.0 0.000355 2674.39307 2691.90137
2808.0 0.000356 2674.49976 2692.18384
2741.0 0.000365 2674.60669 2692.47314
2836.0 0.000353 2674.71436 2692.76880
2835.0 0.000353 2674.82202 2693.07104
2847.0 0.000351 2674.93042 2693.37891
2746.0 0.000364 2675.03906 2693.69458
2859.0 0.0003498 2675.14795 2693.89795
2823.0 0.000354 2675.25732 2694.22803
2781.0 0.000360 2675.36743 2694.56519
2787.0 0.000359 2675.47754 2694.90942
2806.0 0.000356 2675.58789 2695.26050
2772.0 0.000361 2675.69897 2695.61865
2828.0 0.000354 2675.81006 2695.98462
2771.0 0.000361 2675.92163 2696.35767
2885.0 0.0003466 2676.03369 2696.73828
2811.0 0.000356 2676.14624 2697.12744
2832.0 0.000353 2676.25879 2697.52466
2855.0 0.0003503 2676.37207 2697.87061
2766.0 0.000362 2676.48560 2698.28491
2816.0 0.000355 2676.59961 2698.70898
2709.0 0.000369 2676.71387 2699.14136
2802.0 0.000357 2676.82837 2699.58350
2797.0 0.000358 2676.94360 2700.03589
2768.0 0.000361 2677.05908 2700.49780
2824.0 0.000354 2677.17505 2700.97046
2827.0 0.000354 2677.29126 2701.45386
2822.0 0.000354 2677.40747 2701.94873
2791.0 0.000358 2677.52466 2702.45532
2736.0 0.000365 2677.64185 2702.97412
2808.0 0.000356 2677.75952 2703.50562
2812.0 0.000356 2677.87793 2704.04980
2869.0 0.0003486 2677.99609 2704.60938
2816.0 0.000355 2678.11499 2705.18262
2864.0 0.0003492 2678.23413 2705.77148
2813.0 0.000355 2678.35400 2706.37622
2924.0 0.0003420 2678.47388 2706.99829
2862.0 0.0003494 2678.59424 2707.63818
2924.0 0.0003420 2678.71484 2708.29639
2897.0 0.0003452 2678.83618 2708.97583
2803.0 0.000357 2678.95752 2709.67578
2808.0 0.000356 2679.07959 2710.39844
2860.0 0.0003497 2679.20190 2711.03516
2790.0 0.000358 2679.32446 2711.80908
2875.0 0.0003478 2679.44751 2712.61011
2801.0 0.000357 2679.57080 2713.44116
2804.0 0.000357 2679.69458 2714.30322
2915.0 0.0003431 2679.81885 2715.16724
2861.0 0.0003495 2679.94336 2716.10205
2879.0 0.0003473 2680.06836 2717.07690
2871.0 0.0003483 2680.19360 2718.09644
2749.0 0.000364 2680.31934 2719.16431
2872.0 0.0003482 2680.44531 2720.28540
2746.0 0.000364 2680.57178 2721.41089
2813.0 0.000355 2680.69873 2722.65796
2781.0 0.000360 2680.82593 2723.97778
2896.0 0.0003453 2680.95337 2725.38013
2922.0 0.0003422 2681.08130 2726.87671
2872.0 0.0003482 2681.20972 2728.46143
2894.0 0.0003455 2681.33838 2730.18408
2843.0 0.000352 2681.46777 2732.04834
2923.0 0.0003421 2681.59717 2734.07324
2820.0 0.000355 2681.72681 2736.29077
2845.0 0.000351 2681.85718 2738.73340
2836.0 0.000353 2681.98779 2741.44946
2764.0 0.000362 2682.11890 2744.49487
2821.0 0.000354 2682.25024 2747.94385
2910.0 0.0003436 2682.38208 2751.89648
2827.0 0.000354 2682.51440 2756.47607
2934.0 0.0003408 2682.64673 2761.84131
2812.0 0.000356 2682.77979 2768.19800
2846.0 0.000351 2682.91284 2775.79980
2899.0 0.0003449 2683.04663 2785.06592
2876.0 0.0003477 2683.18066 2796.07886
2865.0 0.0003490 2683.31519 2809.38672
2958.0 0.0003381 2683.44995 2825.03760
3063.0 0.0003265 2683.58521 2843.03027
2973.0 0.0003364 2683.72070 2862.54077
3082.0 0.0003245 2683.85669 2881.61694
3004.0 0.0003329 2683.99316 2897.02856
2996.0 0.0003338 2684.12964 2905.33740
3110.0 0.0003215 2684.26685 2904.87769
3083.0 0.0003244 2684.40454 2897.07666
2899.0 0.0003449 2684.54224 2885.44702
3001.0 0.0003332 2684.68042 2873.51685
3016.0 0.0003316 2684.81909 2863.77222
2939.0 0.0003403 2684.95825 2857.09399
3084.0 0.0003243 2685.09741 2853.95850
3076.0 0.0003251 2685.23755 2854.08350
2996.0 0.0003338 2685.37769 2856.85718
3090.0 0.0003236 2685.51807 2861.07520
2895.0 0.0003454 2685.65894 2864.93164
2947.0 0.0003393 2685.80029 2866.43188
3073.0 0.0003254 2685.94214 2864.33447
2930.0 0.0003413 2686.08398 2858.87036
2961.0 0.0003377 2686.22656 2851.47095
2993.0 0.0003341 2686.36938 2843.76587
2873.0 0.0003481 2686.51245 2836.88623
2930.0 0.0003413 2686.65601 2831.38550
2949.0 0.0003391 2686.80005 2827.31641
2955.0 0.0003384 2686.94458 2824.62573
2948.0 0.0003392 2687.08936 2823.15039
2860.0 0.0003497 2687.23438 2822.72070
2937.0 0.0003405 2687.37964 2823.18018
2991.0 0.0003343 2687.52563 2824.40210
2997.0 0.0003337 2687.67212 2826.28369
2968.0 0.0003369 2687.81885 2828.74438
2939.0 0.0003403 2687.96582 2831.72998
2879.0 0.0003473 2688.11304 2835.19702
3031.0 0.0003299 2688.26099 2839.12500
2971.0 0.0003366 2688.40918 2843.49414
2963.0 0.0003375 2688.55762 2848.30640
3018.0 0.0003313 2688.70679 2853.55762
2858.0 0.0003499 2688.85596 2859.26636
2981.0 0.0003355 2689.00562 2865.44604
2917.0 0.0003428 2689.15601 2872.11816
2921.0 0.0003423 2689.30615 2879.26953
3004.0 0.0003329 2689.45728 2887.01831
3084.0 0.0003243 2689.60840 2895.35693
2987.0 0.0003348 2689.76001 2904.34131
2963.0 0.0003375 2689.91211 2914.02051
2932.0 0.0003411 2690.06470 2924.45532
3019.0 0.0003312 2690.21729 2935.71069
3071.0 0.0003256 2690.37061 2947.87695
3019.0 0.0003312 2690.52393 2961.03467
3047.0 0.0003282 2690.67798 2975.30176
2959.0 0.0003380 2690.83252 2990.79199
2986.0 0.0003349 2690.98706 3007.63623
3130.0 0.0003195 2691.14209 3025.98975
3130.0 0.0003195 2691.29736 3046.05933
3096.0 0.0003230 2691.45337 3068.05981
3093.0 0.0003233 2691.60962 3092.23096
3172.0 0.0003153 2691.76636 3118.86816
3236.0 0.0003090 2691.92310 3148.29907
3307.0 0.0003024 2692.08057 3180.96240
3222.0 0.0003104 2692.23828 3217.31079
3312.0 0.0003019 2692.39648 3257.96460
3398.0 0.0002943 2692.55493 3303.61060
3390.0 0.0002950 2692.71387 3355.10986
3439.0 0.0002908 2692.87329 3413.49219
3541.0 0.0002824 2693.03296 3480.10303
3598.0 0.0002779 2693.19312 3556.64648
3637.0 0.0002750 2693.35352 3645.21729
3635.0 0.0002751 2693.51440 3748.53833
3904.0 0.0002561 2693.67554 3870.04712
3918.0 0.0002552 2693.83716 4014.34717
4125.0 0.0002424 2693.99927 4187.00098
4361.0 0.0002293 2694.16162 4395.34375
4351.0 0.0002298 2694.32446 4648.12256
4740.0 0.0002110 2694.48755 4955.92334
5099.0 0.0001961 2694.65112 5330.72998
5493.0 0.0001820 2694.81494 5785.79346
6343.0 0.0001577 2694.97900 6332.16602
6810.0 0.0001468 2695.14380 6975.42432
7814.0 0.0001280 2695.30908 7704.40381
8900.0 0.0001124 2695.47461 8477.97852
10038.0 0.0000996 2695.64014 9212.42969
10508.0 0.0000952 2695.80640 9791.70508
10670.0 0.0000937 2695.97290 10114.57227
10672.0 0.0000937 2696.14014 10160.17773
10067.0 0.0000993 2696.30737 10008.60938
9544.0 0.0001048 2696.47510 9789.70215
9419.0 0.0001062 2696.64331 9612.83887
9416.0 0.0001062 2696.81177 9530.84863
9362.0 0.0001068 2696.98071 9535.84277
9619.0 0.0001040 2697.14990 9576.79199
9575.0 0.0001044 2697.31982 9591.82422
9649.0 0.0001036 2697.48975 9542.39355
9519.0 0.0001051 2697.66016 9420.58008
9198.0 0.0001087 2697.83081 9225.55566
9036.0 0.0001107 2698.00220 8945.25684
8614.0 0.0001161 2698.17383 8572.35449
7972.0 0.0001254 2698.34570 8129.86182
7651.0 0.0001307 2698.51807 7668.75732
7157.0 0.0001397 2698.69067 7242.42480
7042.0 0.0001420 2698.86401 6880.84912
6700.0 0.0001493 2699.03760 6584.85596
6486.0 0.0001542 2699.21167 6329.90039
6306.0 0.0001586 2699.38574 6079.80078
6063.0 0.0001649 2699.56055 5805.91406
5626.0 0.0001777 2699.73560 5503.29443
5111.0 0.0001957 2699.91089 5187.88867
4838.0 0.0002067 2700.08691 4882.71973
4636.0 0.0002157 2700.26318 4604.73682
4330.0 0.0002309 2700.43945 4361.67578
4158.0 0.0002405 2700.61646 4153.93994
4003.0 0.0002498 2700.79395 3978.69897
4023.0 0.0002486 2700.97168 3831.40796
3842.0 0.0002603 2701.14990 3707.66479
3851.0 0.0002597 2701.32813 3603.42920
3728.0 0.0002682 2701.50708 3515.08789
3540.0 0.0002825 2701.68652 3439.80884
3609.0 0.0002771 2701.86621 3375.13086
3500.0 0.0002857 2702.04614 3319.17236
3491.0 0.0002865 2702.22681 3270.39453
3288.0 0.0003041 2702.40747 3227.59375
3455.0 0.0002894 2702.58862 3189.75684
3396.0 0.0002945 2702.77026 3156.14209
3311.0 0.0003020 2702.95239 3126.09302
3254.0 0.0003073 2703.13477 3099.11792
3207.0 0.0003118 2703.31738 3074.80103
3189.0 0.0003136 2703.50073 3052.80615
3122.0 0.0003203 2703.68408 3032.83276
3031.0 0.0003299 2703.86816 3014.62866
3192.0 0.0003133 2704.05225 2997.99658
3083.0 0.0003244 2704.23706 2982.75952
2999.0 0.0003334 2704.42212 2968.77197
3071.0 0.0003256 2704.60767 2955.88916
3041.0 0.0003288 2704.79346 2944.00854
2862.0 0.0003494 2704.97974 2933.02002
2915.0 0.0003431 2705.16626 2922.84229
3093.0 0.0003233 2705.35327 2913.39795
2991.0 0.0003343 2705.54053 2904.62476
2997.0 0.0003337 2705.72827 2896.45557
3027.0 0.0003304 2705.91650 2888.84277
2881.0 0.0003471 2706.10522 2881.73315
3006.0 0.0003327 2706.29395 2875.08887
2927.0 0.0003416 2706.48340 2868.87524
2962.0 0.0003376 2706.67310 2863.05298
2935.0 0.0003407 2706.86304 2857.59814
2955.0 0.0003384 2707.05347 2852.47583
3023.0 0.0003308 2707.24463 2847.66699
2948.0 0.0003392 2707.43579 2843.14893
2994.0 0.0003340 2707.62720 2838.90308
2962.0 0.0003376 2707.81909 2834.90649
3029.0 0.0003301 2708.01172 2831.14893
2835.0 0.000353 2708.20459 2827.61133
2877.0 0.0003476 2708.39771 2824.28223
2966.0 0.0003372 2708.59131 2821.14844
2814.0 0.000355 2708.78516 2818.20190
2864.0 0.0003492 2708.97974 2815.43018
2873.0 0.0003481 2709.17432 2812.82617
2878.0 0.0003475 2709.36938 2810.37988
2851.0 0.000351 2709.56494 2808.08569
2944.0 0.0003397 2709.76074 2805.93970
2903.0 0.0003445 2709.95679 2803.93384
2911.0 0.0003435 2710.15356 2802.06494
2902.0 0.0003446 2710.35059 2800.32959
2911.0 0.0003435 2710.54810 2798.72534
2815.0 0.000355 2710.74585 2797.24951
2790.0 0.000358 2710.94409 2795.90430
2815.0 0.000355 2711.14258 2794.68701
2874.0 0.0003479 2711.34155 2793.60132
2885.0 0.0003466 2711.54077 2792.64819
2939.0 0.0003403 2711.74048 2791.83423
2942.0 0.0003399 2711.94092 2791.16553
2818.0 0.000355 2712.14136 2790.65088
2764.0 0.000362 2712.34229 2790.30225
2871.0 0.0003483 2712.54321 2790.13477
2830.0 0.000353 2712.74512 2790.17041
2866.0 0.0003489 2712.94727 2790.43384
2833.0 0.000353 2713.14941 2790.96362
2868.0 0.0003487 2713.35229 2791.80273
2824.0 0.000354 2713.55542 2793.01099
2952.0 0.0003388 2713.75903 2794.66211
2904.0 0.0003444 2713.96313 2796.84888
2983.0 0.0003352 2714.16772 2801.46558
2835.0 0.000353 2714.37207 2805.09131
2845.0 0.000351 2714.57739 2809.64502
2857.0 0.0003500 2714.78296 2815.27588
2937.0 0.0003405 2714.98877 2822.12793
2885.0 0.0003466 2715.19507 2831.15283
2909.0 0.0003438 2715.40186 2840.49072
2938.0 0.0003404 2715.60889 2850.59814
2883.0 0.0003469 2715.81641 2860.57788
2960.0 0.0003378 2716.02417 2869.02905
3023.0 0.0003308 2716.23242 2874.39722
2934.0 0.0003408 2716.44116 2875.75659
2969.0 0.0003368 2716.64990 2873.41748
2931.0 0.0003412 2716.85938 2868.77246
2903.0 0.0003445 2717.06909 2864.45386
2883.0 0.0003469 2717.27930 2860.96411
2943.0 0.0003398 2717.48975 2858.24536
2921.0 0.0003423 2717.70093 2857.87231
2940.0 0.0003401 2717.91211 2859.91016
3031.0 0.0003299 2718.12378 2864.80542
2945.0 0.0003396 2718.33569 2871.48218
2873.0 0.0003481 2718.54834 2879.99829
2961.0 0.0003377 2718.76123 2889.77124
3057.0 0.0003271 2718.97461 2900.21606
2995.0 0.0003339 2719.18823 2911.08447
3017.0 0.0003315 2719.40210 2922.62915
3100.0 0.0003226 2719.61670 2935.41724
3030.0 0.0003300 2719.83130 2949.78247
3108.0 0.0003218 2720.04639 2964.71338
3081.0 0.0003246 2720.26221 2978.45972
3120.0 0.0003205 2720.47827 2988.59717
3071.0 0.0003256 2720.69434 2991.85278
3091.0 0.0003235 2720.91113 2988.18384
3165.0 0.0003160 2721.12817 2979.42822
3201.0 0.0003124 2721.34570 2968.71143
3012.0 0.0003320 2721.56372 2958.98877
3057.0 0.0003271 2721.78174 2952.23193
3073.0 0.0003254 2722.00073 2949.37720
3062.0 0.0003266 2722.21973 2950.58008
3134.0 0.0003191 2722.43896 2955.48633
3085.0 0.0003241 2722.65894 2963.33179
3034.0 0.0003296 2722.87915 2972.84692
3113.0 0.0003212 2723.09961 2981.70850
3203.0 0.0003122 2723.32056 2987.00977
3082.0 0.0003245 2723.54199 2985.96851
3103.0 0.0003223 2723.76367 2977.46411
3098.0 0.0003228 2723.98584 2962.74561
3130.0 0.0003195 2724.20850 2944.60132
3017.0 0.0003315 2724.43140 2925.94971
3014.0 0.0003318 2724.65454 2908.81616
2926.0 0.0003418 2724.87842 2894.22607
3034.0 0.0003296 2725.10229 2882.43311
2898.0 0.0003451 2725.32690 2873.26245
2971.0 0.0003366 2725.55176 2866.33496
3022.0 0.0003309 2725.77686 2861.16113
2994.0 0.0003340 2726.00244 2857.07666
2988.0 0.0003347 2726.22852 2853.21240
2957.0 0.0003382 2726.45483 2848.67383
2956.0 0.0003383 2726.68164 2842.89331
2916.0 0.0003429 2726.90869 2835.90918
2923.0 0.0003421 2727.13623 2828.24121
2875.0 0.0003478 2727.36426 2820.55664
2915.0 0.0003431 2727.59253 2813.36694
2880.0 0.0003472 2727.82129 2806.94897
2879.0 0.0003473 2728.05029 2801.38135
2917.0 0.0003428 2728.27979 2796.63965
2940.0 0.0003401 2728.50977 2792.63794
2813.0 0.000355 2728.73999 2789.28394
2808.0 0.000356 2728.97070 2786.48022
2805.0 0.000357 2729.20166 2784.13477
2880.0 0.0003472 2729.43311 2782.17676
2842.0 0.000352 2729.66479 2780.53784
2837.0 0.000352 2729.89697 2779.16602
2860.0 0.0003497 2730.12964 2778.01904
2910.0 0.0003436 2730.36255 2777.06104
2765.0 0.000362 2730.59619 2776.26392
2884.0 0.0003467 2730.82983 2775.60742
2904.0 0.0003444 2731.06396 2775.07251
2858.0 0.0003499 2731.29834 2774.64722
2846.0 0.000351 2731.53345 2774.32080
2883.0 0.0003469 2731.76855 2774.08276
2722.0 0.000367 2732.00415 2773.92969
2765.0 0.000362 2732.24023 2773.85327
2925.0 0.0003419 2732.47681 2773.85254
2873.0 0.0003481 2732.71338 2773.92480
2842.0 0.000352 2732.95068 2774.06689
2937.0 0.0003405 2733.18823 2774.28076
2849.0 0.000351 2733.42627 2774.56592
2790.0 0.000358 2733.66479 2774.92700
2811.0 0.000356 2733.90332 2775.36304
2843.0 0.000352 2734.14258 2775.88306
2854.0 0.0003504 2734.38208 2776.49170
2747.0 0.000364 2734.62207 2777.20117
2825.0 0.000354 2734.86206 2772.99463
2801.0 0.000357 2735.10303 2773.99170
2872.0 0.0003482 2735.34399 2775.13379
2841.0 0.000352 2735.58569 2776.44312
2706.0 0.000370 2735.82739 2777.95264
2796.0 0.000358 2736.06958 2779.69556
2768.0 0.000361 2736.31226 2781.71875
2874.0 0.0003479 2736.55518 2784.07104
2850.0 0.000351 2736.79858 2784.31567
2883.0 0.0003469 2737.04248 2787.52368
2869.0 0.0003486 2737.28662 2791.23413
2884.0 0.0003467 2737.53101 2795.48462
2920.0 0.0003425 2737.77588 2800.27075
2975.0 0.0003361 2738.02148 2803.00586
2781.0 0.000360 2738.26709 2808.52466
2830.0 0.000353 2738.51318 2814.00244
2892.0 0.0003458 2738.75952 2819.17090
2985.0 0.0003350 2739.00635 2823.94580
2844.0 0.000352 2739.25391 2828.57739
2834.0 0.000353 2739.50146 2833.56421
2919.0 0.0003426 2739.74951 2839.46924
2881.0 0.0003471 2739.99805 2845.47510
2961.0 0.0003377 2740.24683 2854.24097
2949.0 0.0003391 2740.49585 2864.29614
3017.0 0.0003315 2740.74536 2874.91333
2926.0 0.0003418 2740.99561 2884.80005
2998.0 0.0003336 2741.24561 2892.27490
3093.0 0.0003233 2741.49658 2895.84912
2950.0 0.0003390 2741.74756 2894.91479
2956.0 0.0003383 2741.99902 2890.05762
3006.0 0.0003327 2742.25098 2882.68433
2900.0 0.0003448 2742.50317 2874.37476
2892.0 0.0003458 2742.75586 2866.44019
2873.0 0.0003481 2743.00903 2859.75146
2957.0 0.0003382 2743.26245 2854.78955
2856.0 0.0003501 2743.51611 2851.69507
2929.0 0.0003414 2743.77051 2850.34766
2940.0 0.0003401 2744.02490 2850.36792
2873.0 0.0003481 2744.28003 2851.10278
3021.0 0.0003310 2744.53540 2851.66846
2951.0 0.0003389 2744.79102 2851.14893
3000.0 0.0003333 2745.04712 2848.93774
3019.0 0.0003312 2745.30396 2845.01489
2886.0 0.0003465 2745.56055 2839.89404
2884.0 0.0003467 2745.81812 2834.29443
2863.0 0.0003493 2746.07568 2828.84302
2908.0 0.0003439 2746.33374 2823.92334
2830.0 0.000353 2746.59229 2819.71606
2909.0 0.0003438 2746.85132 2816.25977
2919.0 0.0003426 2747.11035 2813.51514
2828.0 0.000354 2747.36987 2811.40942
2760.0 0.000362 2747.62988 2809.85986
2818.0 0.000355 2747.89038 2808.79028
2828.0 0.000354 2748.15088 2808.12842
2842.0 0.000352 2748.41211 2807.81299
2888.0 0.0003463 2748.67358 2807.79150
2913.0 0.0003433 2748.93555 2808.02124
2863.0 0.0003493 2749.19775 2808.46777
2844.0 0.000352 2749.46045 2809.10571
2844.0 0.000352 2749.72363 2809.91479
2816.0 0.000355 2749.98730 2810.87744
2884.0 0.0003467 2750.25098 2811.98438
2912.0 0.0003434 2750.51514 2813.22656
2803.0 0.000357 2750.77979 2814.60034
2876.0 0.0003477 2751.04492 2816.10010
2818.0 0.000355 2751.31055 2817.72510
2907.0 0.0003440 2751.57593 2819.47510
2864.0 0.0003492 2751.84229 2821.35132
2812.0 0.000356 2752.10889 2823.35669
2936.0 0.0003406 2752.37573 2825.49414
2808.0 0.000356 2752.64307 2827.76904
2825.0 0.000354 2752.91064 2830.18408
2833.0 0.000353 2753.17896 2832.74927
2877.0 0.0003476 2753.44727 2835.46997
2837.0 0.000352 2753.71631 2838.35767
2899.0 0.0003449 2753.98535 2841.41992
2925.0 0.0003419 2754.25513 2844.66919
2814.0 0.000355 2754.52515 2848.11621
2901.0 0.0003447 2754.79541 2851.77881
2862.0 0.0003494 2755.06616 2855.66968
2839.0 0.000352 2755.33740 2859.80933
2990.0 0.0003344 2755.60889 2864.21753
2820.0 0.000355 2755.88086 2868.91357
2877.0 0.0003476 2756.15332 2873.92700
2803.0 0.000357 2756.42578 2879.28125
3055.0 0.0003273 2756.69922 2885.01489
3004.0 0.0003329 2756.97266 2891.15967
2893.0 0.0003457 2757.24658 2897.75659
2893.0 0.0003457 2757.52075 2904.84717
2803.0 0.000357 2757.79541 2912.49121
3028.0 0.0003303 2758.07031 2920.74121
2982.0 0.0003353 2758.34570 2929.67090
2934.0 0.0003408 2758.62183 2939.35620
3108.0 0.0003218 2758.89795 2949.88477
3041.0 0.0003288 2759.17432 2961.35400
2964.0 0.0003374 2759.45117 2973.89575
2905.0 0.0003442 2759.72852 2987.63696
3078.0 0.0003249 2760.00635 3002.75708
3044.0 0.0003285 2760.28467 3019.44678
3038.0 0.0003292 2760.56274 3037.92285
3070.0 0.0003257 2760.84180 3058.49268
3165.0 0.0003160 2761.12109 3081.47778
3010.0 0.0003322 2761.40063 3107.32690
3083.0 0.0003244 2761.68091 3136.56104
3166.0 0.0003159 2761.96118 3169.84277
3158.0 0.0003167 2762.24219 3207.98486
3244.0 0.0003083 2762.52319 3252.06763
3253.0 0.0003074 2762.80469 3303.34009
3258.0 0.0003069 2763.08691 3363.52783
3379.0 0.0002959 2763.36890 3434.37891
3469.0 0.0002883 2763.65186 3518.26758
3465.0 0.0002886 2763.93481 3617.81006
3561.0 0.0002808 2764.21826 3736.04126
3756.0 0.0002662 2764.50244 3876.26294
3935.0 0.0002541 2764.78638 4041.62451
4163.0 0.0002402 2765.07129 4234.78662
4524.0 0.0002210 2765.35620 4456.77979
4599.0 0.0002174 2765.64160 4705.79395
5084.0 0.0001967 2765.92749 4974.19678
5479.0 0.0001825 2766.21362 5246.72461
5698.0 0.0001755 2766.50024 5500.16895
5967.0 0.0001676 2766.78711 5708.16602
6067.0 0.0001648 2767.07446 5850.95508
6161.0 0.0001623 2767.36230 5924.58203
6256.0 0.0001598 2767.65015 5940.25586
6066.0 0.0001649 2767.93872 5915.68018
5835.0 0.0001714 2768.22754 5865.40137
5923.0 0.0001688 2768.51709 5798.94434
5763.0 0.0001735 2768.80664 5725.59570
5481.0 0.0001824 2769.09644 5658.01758
5579.0 0.0001792 2769.38696 5610.96045
5508.0 0.0001816 2769.67773 5596.36963
5651.0 0.0001770 2769.96924 5618.49170
5683.0 0.0001760 2770.26050 5671.69629
5762.0 0.0001736 2770.55249 5740.15088
5955.0 0.0001679 2770.84473 5800.78271
5977.0 0.0001673 2771.13770 5829.25977
5954.0 0.0001680 2771.43091 5807.38574
5815.0 0.0001720 2771.72412 5728.63965
5598.0 0.0001786 2772.01782 5598.58008
5451.0 0.0001835 2772.31226 5430.33203
5167.0 0.0001935 2772.60693 5239.79980
4977.0 0.0002009 2772.90186 5041.85010
4769.0 0.0002097 2773.19727 4849.98975
4640.0 0.0002155 2773.49292 4675.14160
4378.0 0.0002284 2773.78931 4524.25830
4365.0 0.0002291 2774.08594 4400.21533
4434.0 0.0002255 2774.38257 4301.33643
4419.0 0.0002263 2774.67993 4222.68896
4340.0 0.0002304 2774.97778 4156.79639
4304.0 0.0002323 2775.27563 4095.03467
4159.0 0.0002404 2775.57422 4029.26099
4097.0 0.0002441 2775.87305 3954.03955
4003.0 0.0002498 2776.17236 3868.87036
3753.0 0.0002665 2776.47217 3777.13745
3841.0 0.0002603 2776.77222 3684.52856
3663.0 0.0002730 2777.07227 3596.38452
3631.0 0.0002754 2777.37305 3516.17285
3452.0 0.0002897 2777.67432 3445.42651
3328.0 0.0003005 2777.97583 3384.23877
3296.0 0.0003034 2778.27783 3331.63110
3275.0 0.0003053 2778.58008 3286.09155
3224.0 0.0003102 2778.88281 3245.78906
3318.0 0.0003014 2779.18555 3209.19775
3141.0 0.0003184 2779.48926 3175.27246
3142.0 0.0003183 2779.79321 3143.50000
3189.0 0.0003136 2780.09741 3114.26196
3069.0 0.0003258 2780.40186 3087.58179
3156.0 0.0003169 2780.70703 3063.50952
3120.0 0.0003205 2781.01221 3042.00757
3014.0 0.0003318 2781.31787 3022.87305
3062.0 0.0003266 2781.62402 3005.88818
3073.0 0.0003254 2781.93066 2990.80566
3021.0 0.0003310 2782.23755 2977.38647
2943.0 0.0003398 2782.54468 2965.42163
3016.0 0.0003316 2782.85254 2954.70703
2924.0 0.0003420 2783.16064 2945.08252
2840.0 0.000352 2783.46875 2936.40381
2902.0 0.0003446 2783.77759 2928.51660
2969.0 0.0003368 2784.08691 2921.37476
2911.0 0.0003435 2784.39648 2914.86450
2924.0 0.0003420 2784.70654 2908.90137
2908.0 0.0003439 2785.01660 2903.42578
2825.0 0.000354 2785.32739 2898.38379
2828.0 0.000354 2785.63867 2893.72925
2846.0 0.000351 2785.94995 2889.42041
2889.0 0.0003461 2786.26196 2885.42578
2936.0 0.0003406 2786.57397 2881.71289
2884.0 0.0003467 2786.88672 2878.25806
2871.0 0.0003483 2787.19971 2875.03955
2886.0 0.0003465 2787.51318 2872.03369
2777.0 0.000360 2787.82666 2869.22607
2824.0 0.000354 2788.14111 2866.59912
2780.0 0.000360 2788.45557 2864.13770
2864.0 0.0003492 2788.77051 2861.83057
2761.0 0.000362 2789.08569 2859.66724
2829.0 0.000353 2789.40161 2857.63501
2886.0 0.0003465 2789.71753 2855.72607
2928.0 0.0003415 2790.03394 2853.93066
2936.0 0.0003406 2790.35083 2852.27319
2861.0 0.0003495 2790.66821 2850.68286
2738.0 0.000365 2790.98560 2849.18579
2785.0 0.000359 2791.30371 2847.77441
2865.0 0.0003490 2791.62183 2846.44531
2875.0 0.0003478 2791.94067 2845.19043
2899.0 0.0003449 2792.26001 2844.00830
2869.0 0.0003486 2792.57935 2842.89404
2852.0 0.0003506 2792.89941 2841.84204
2868.0 0.0003487 2793.21924 2840.84961
2954.0 0.0003385 2793.54004 2839.91406
2916.0 0.0003429 2793.86108 2839.03003
2918.0 0.0003427 2794.18262 2838.19775
2871.0 0.0003483 2794.50391 2837.41260
2816.0 0.000355 2794.82642 2836.67261
2923.0 0.0003421 2795.14868 2835.97412
2800.0 0.000357 2795.47192 2835.33301
2842.0 0.000352 2795.79517 2834.71533
2878.0 0.0003475 2796.11890 2834.13232
2853.0 0.0003505 2796.44287 2833.58521
2823.0 0.000354 2796.76709 2833.07080
2831.0 0.000353 2797.09204 2832.58740
2818.0 0.000355 2797.41724 2832.13428
2793.0 0.000358 2797.74292 2831.70972
2762.0 0.000362 2798.06885 2831.31250
2883.0 0.0003469 2798.39526 2830.94141
2791.0 0.000358 2798.72168 2830.59546
2843.0 0.000352 2799.04907 2830.27368
2832.0 0.000353 2799.37671 2829.97461
2832.0 0.000353 2799.70459 2829.69678
2980.0 0.0003356 2800.03271 2829.44019
2815.0 0.000355 2800.36133 2829.18262
2920.0 0.0003425 2800.69043 2828.96655
2780.0 0.000360 2801.01978 2828.76807
2797.0 0.000358 2801.34961 2828.58862
2855.0 0.0003503 2801.67944 2828.42505
2787.0 0.000359 2802.01025 2828.27832
2900.0 0.0003448 2802.34106 2828.14868
2840.0 0.000352 2802.67212 2828.03296
2841.0 0.000352 2803.00415 2827.93188
2865.0 0.0003490 2803.33618 2827.84595
2766.0 0.000362 2803.66846 2827.77393
2801.0 0.000357 2804.00122 2827.63232
2784.0 0.000359 2804.33423 2827.58618
2851.0 0.000351 2804.66821 2827.55371
2783.0 0.000359 2805.00195 2827.52197
2791.0 0.000358 2805.33643 2827.51318
2774.0 0.000360 2805.67090 2827.51514
2812.0 0.000356 2806.00610 2827.52832
2839.0 0.000352 2806.34155 2827.55225
2819.0 0.000355 2806.67725 2827.58691
2788.0 0.000359 2807.01343 2827.63110
2711.0 0.000369 2807.35010 2827.68481
2747.0 0.000364 2807.68726 2827.74878
2832.0 0.000353 2808.02441 2827.82227
2886.0 0.0003465 2808.36206 2827.90430
2830.0 0.000353 2808.70044 2827.95386
2821.0 0.000354 2809.03906 2828.05469
2770.0 0.000361 2809.37744 2828.16260
2729.0 0.000366 2809.71680 2828.28027
2733.0 0.000366 2810.05640 2828.40503
2736.0 0.000365 2810.39648 2828.53857
2848.0 0.000351 2810.73706 2828.67969
2818.0 0.000355 2811.07788 2828.82813
2749.0 0.000364 2811.41870 2828.98462
2811.0 0.000356 2811.76025 2829.14893
2751.0 0.000364 2812.10229 2829.32031
2792.0 0.000358 2812.44458 2829.49878
2773.0 0.000361 2812.78735 2829.68530
2845.0 0.000351 2813.13013 2829.87744
2717.0 0.000368 2813.47363 2830.07788
2856.0 0.0003501 2813.81738 2830.28540
2831.0 0.000353 2814.16138 2830.49976
2794.0 0.000358 2814.50610 2830.72046
2760.0 0.000362 2814.85107 2830.94946
2731.0 0.000366 2815.19629 2831.18481
2778.0 0.000360 2815.54199 2831.42749
2845.0 0.000351 2815.88794 2831.67603
2812.0 0.000356 2816.23462 2831.93311
2845.0 0.000351 2816.58130 2832.19629
2735.0 0.000366 2816.92871 2832.46729
2909.0 0.0003438 2817.27612 2832.74487
2806.0 0.000356 2817.62378 2833.03125
2751.0 0.000364 2817.97217 2833.32446
2800.0 0.000357 2818.32104 2833.62451
2795.0 0.000358 2818.66992 2833.93237
2741.0 0.000365 2819.01929 2834.24829
2769.0 0.000361 2819.36914 2834.57275
2762.0 0.000362 2819.71924 2834.90527
2794.0 0.000358 2820.07007 2835.24585
2718.0 0.000368 2820.42114 2835.59570
2727.0 0.000367 2820.77246 2835.95410
2784.0 0.000359 2821.12402 2836.32227
2693.0 0.000371 2821.47632 2836.69971
2722.0 0.000367 2821.82861 2837.08691
2799.0 0.000357 2822.18140 2837.48486
2843.0 0.000352 2822.53467 2837.89526
2787.0 0.000359 2822.88818 2838.31494
2841.0 0.000352 2823.24243 2838.74683
2802.0 0.000357 2823.59644 2839.19214
2782.0 0.000359 2823.95117 2839.65015
2758.0 0.000363 2824.30640 2840.12256
2799.0 0.000357 2824.66187 2840.61011
2754.0 0.000363 2825.01782 2841.11206
2855.0 0.0003503 2825.37402 2841.63135
2735.0 0.000366 2825.73047 2842.16919
2749.0 0.000364 2826.08740 2842.72876
2808.0 0.000356 2826.44482 2843.30591
2828.0 0.000354 2826.80273 2843.97168
2873.0 0.0003481 2827.16064 2844.59375
2809.0 0.000356 2827.51904 2845.24170
2772.0 0.000361 2827.87793 2845.91724
2791.0 0.000358 2828.23730 2846.62207
2813.0 0.000355 2828.59692 2847.35986
2783.0 0.000359 2828.95679 2848.13330
2780.0 0.000360 2829.31714 2848.94604
2714.0 0.000368 2829.67798 2849.80127
2835.0 0.000353 2830.03906 2850.70361
2801.0 0.000357 2830.40039 2851.65918
2775.0 0.000360 2830.76245 2852.67310
2798.0 0.000357 2831.12476 2853.75171
2743.0 0.000365 2831.48730 2854.90479
2802.0 0.000357 2831.85010 2856.14160
2792.0 0.000358 2832.21362 2857.47241
2867.0 0.0003488 2832.57739 2858.90991
2753.0 0.000363 2832.94141 2860.52490
2844.0 0.000352 2833.30591 2862.22778
2822.0 0.000354 2833.67041 2864.09229
2827.0 0.000354 2834.03589 2866.14917
2824.0 0.000354 2834.40161 2868.42725
2947.0 0.0003393 2834.76758 2870.96582
2907.0 0.0003440 2835.13379 2873.80371
2852.0 0.0003506 2835.50049 2876.99634
2758.0 0.000363 2835.86768 2880.59497
2892.0 0.0003458 2836.23486 2884.65942
2835.0 0.000353 2836.60303 2889.25244
2855.0 0.0003503 2836.97144 2894.44165
2885.0 0.0003466 2837.33984 2898.52051
2813.0 0.000355 2837.70874 2905.18823
2903.0 0.0003445 2838.07788 2912.76147
2815.0 0.000355 2838.44775 2921.38477
2854.0 0.0003504 2838.81787 2931.18726
2886.0 0.0003465 2839.18823 2941.31494
2858.0 0.0003499 2839.55933 2953.52881
2933.0 0.0003409 2839.93018 2966.68433
2950.0 0.0003390 2840.30200 2980.32568
2919.0 0.0003426 2840.67383 2993.73901
2928.0 0.0003415 2841.04614 3006.11719
2860.0 0.0003497 2841.41895 3016.82129
3008.0 0.0003324 2841.79224 3025.70435
3068.0 0.0003259 2842.16528 3033.20093
2865.0 0.0003490 2842.53906 3039.28711
2980.0 0.0003356 2842.91357 3046.67578
3051.0 0.0003278 2843.28833 3054.20215
3013.0 0.0003319 2843.66284 3063.71680
3141.0 0.0003184 2844.03833 3073.84424
3039.0 0.0003291 2844.41382 3083.13306
3174.0 0.0003151 2844.79004 3091.27881
3032.0 0.0003298 2845.16650 3096.83716
3132.0 0.0003193 2845.54321 3099.44531
3117.0 0.0003208 2845.92041 3099.43262
3011.0 0.0003321 2846.29785 3097.52661
3042.0 0.0003287 2846.67603 3094.44849
3040.0 0.0003289 2847.05444 3090.66846
3068.0 0.0003259 2847.43286 3086.31421
3066.0 0.0003262 2847.81201 3081.77026
3116.0 0.0003209 2848.19141 3077.11206
3044.0 0.0003285 2848.57080 3072.14087
3064.0 0.0003264 2848.95117 3067.90527
3001.0 0.0003332 2849.33179 3063.91553
3041.0 0.0003288 2849.71289 3059.80811
2976.0 0.0003360 2850.09399 3054.97070
2959.0 0.0003380 2850.47534 3048.75806
3047.0 0.0003282 2850.85742 3040.78247
3043.0 0.0003286 2851.23999 3031.12012
2944.0 0.0003397 2851.62256 3020.27979
2986.0 0.0003349 2852.00562 3009.01563
3043.0 0.0003286 2852.38916 2998.02930
2927.0 0.0003416 2852.77295 2987.77002
2981.0 0.0003355 2853.15723 2978.55396
2891.0 0.0003459 2853.54199 2970.31055
2959.0 0.0003380 2853.92700 2962.88989
2806.0 0.000356 2854.31201 2956.12280
2777.0 0.000360 2854.69775 2949.86206
2881.0 0.0003471 2855.08374 2944.49658
2883.0 0.0003469 2855.47070 2938.89795
2933.0 0.0003409 2855.85742 2933.44556
2802.0 0.000357 2856.24438 2928.05713
2879.0 0.0003473 2856.63208 2922.73315
2845.0 0.000351 2857.02002 2917.54639
2889.0 0.0003461 2857.40796 2912.61353
2754.0 0.000363 2857.79688 2908.04419
2823.0 0.000354 2858.18604 2903.91064
2900.0 0.0003448 2858.57544 2900.24170
2797.0 0.000358 2858.96533 2897.02710
2745.0 0.000364 2859.35522 2895.23315
2797.0 0.000358 2859.74585 2892.84619
2857.0 0.0003500 2860.13696 2890.80933
2716.0 0.000368 2860.52808 2889.07935
2753.0 0.000363 2860.91968 2887.61816
2708.0 0.000369 2861.31152 2886.38794
2832.0 0.000353 2861.70386 2885.61401
2701.0 0.000370 2862.09668 2884.76025
2783.0 0.000359 2862.48975 2884.05664
2773.0 0.000361 2862.88306 2883.48413
2807.0 0.000356 2863.27710 2883.02393
2836.0 0.000353 2863.67139 2882.66382
2855.0 0.0003503 2864.06592 2882.39136
2762.0 0.000362 2864.46094 2882.19824
2772.0 0.000361 2864.85620 2882.07666
2851.0 0.000351 2865.25171 2882.02124
2720.0 0.000368 2865.64795 2882.52124
2784.0 0.000359 2866.04443 2882.58887
2802.0 0.000357 2866.44092 2882.71362
2840.0 0.000352 2866.83838 2882.89380
2808.0 0.000356 2867.23584 2883.12939
2817.0 0.000355 2867.63354 2883.42041
2774.0 0.000360 2868.03223 2883.77002
2755.0 0.000363 2868.43042 2884.18286
2776.0 0.000360 2868.82959 2884.66382
2664.0 0.000375 2869.22900 2885.22046
2791.0 0.000358 2869.62866 2885.86353
2748.0 0.000364 2870.02881 2886.60352
2628.0 0.000381 2870.42896 2887.45508
2806.0 0.000356 2870.83008 2888.43799
2753.0 0.000363 2871.23120 2889.57373
2730.0 0.000366 2871.63281 2890.88452
2795.0 0.000358 2872.03442 2892.39551
2804.0 0.000357 2872.43701 2894.13428
2794.0 0.000358 2872.83960 2896.12744
2867.0 0.0003488 2873.24268 2898.39868
2957.0 0.0003382 2873.64624 2900.96436
2741.0 0.000365 2874.05005 2903.82666
2895.0 0.0003454 2874.45386 2906.95923
2852.0 0.0003506 2874.85840 2910.29590
2834.0 0.000353 2875.26343 2913.71265
2848.0 0.000351 2875.66846 2917.00195
2858.0 0.0003499 2876.07422 2919.89038
2897.0 0.0003452 2876.48022 2922.07813
2842.0 0.000352 2876.88647 2923.32520
2771.0 0.000361 2877.29297 2923.53979
2856.0 0.0003501 2877.69995 2922.81982
2844.0 0.000352 2878.10742 2921.42236
2895.0 0.0003454 2878.51538 2919.66284
2865.0 0.0003490 2878.92358 2917.83887
2789.0 0.000359 2879.33228 2916.17456
2799.0 0.000357 2879.74097 2914.81494
2779.0 0.000360 2880.15015 2913.83911
2738.0 0.000365 2880.56006 2913.26929
2802.0 0.000357 2880.96973 2913.08643
2688.0 0.000372 2881.37988 2913.22925
2895.0 0.0003454 2881.79077 2913.59497
2843.0 0.000352 2882.20190 2914.04248
2862.0 0.0003494 2882.61353 2914.39844
2821.0 0.000354 2883.02515 2914.49487
2844.0 0.000352 2883.43726 2914.21216
2791.0 0.000358 2883.84985 2913.51440
2884.0 0.0003467 2884.26270 2912.46069
2782.0 0.000359 2884.67603 2911.16650
2910.0 0.0003436 2885.08960 2909.77002
2820.0 0.000355 2885.50366 2908.38477
2770.0 0.000361 2885.91797 2907.09180
2743.0 0.000365 2886.33276 2905.93555
2856.0 0.0003501 2886.74780 2904.93945
2784.0 0.000359 2887.16309 2904.10669
2819.0 0.000355 2887.57910 2903.43628
2825.0 0.000354 2887.99512 2902.90576
2798.0 0.000357 2888.41162 2902.50684
2846.0 0.000351 2888.82837 2902.22388
2748.0 0.000364 2889.24561 2902.04248
2866.0 0.0003489 2889.66333 2901.94873
2720.0 0.000368 2890.08154 2901.93018
2769.0 0.000361 2890.49976 2901.97510
2931.0 0.0003412 2890.91870 2902.07471
2784.0 0.000359 2891.33740 2902.21997
2696.0 0.000371 2891.75708 2902.40454
2731.0 0.000366 2892.17700 2902.62183
2764.0 0.000362 2892.59717 2902.86719
2796.0 0.000358 2893.01733 2903.13672
2894.0 0.0003455 2893.43823 2903.42822
2774.0 0.000360 2893.85962 2903.73828
2868.0 0.0003487 2894.28125 2904.06763
2735.0 0.000366 2894.70337 2904.41235
2731.0 0.000366 2895.12549 2904.76709
2826.0 0.000354 2895.54834 2905.13403
2832.0 0.000353 2895.97144 2905.51318
2804.0 0.000357 2896.39453 2905.90137
2756.0 0.000363 2896.81836 2906.30127
2792.0 0.000358 2897.24268 2906.70776
2724.0 0.000367 2897.66724 2907.12402
2742.0 0.000365 2898.09204 2907.54785
2815.0 0.000355 2898.51709 2907.97900
2873.0 0.0003481 2898.94287 2908.41797
2812.0 0.000356 2899.36865 2908.86304
2771.0 0.000361 2899.79517 2909.31494
2855.0 0.0003503 2900.22168 2909.77319
2753.0 0.000363 2900.64868 2910.23828
2784.0 0.000359 2901.07593 2910.70923
2679.0 0.000373 2901.50391 2911.18481
2750.0 0.000364 2901.93188 2911.66846
2825.0 0.000354 2902.36035 2912.15625
2813.0 0.000355 2902.78931 2912.65039
2872.0 0.0003482 2903.21826 2913.14966
2774.0 0.000360 2903.64795 2913.65430
2806.0 0.000356 2904.07813 2914.16431
2787.0 0.000359 2904.50806 2914.69287
2832.0 0.000353 2904.93872 2915.21509
2907.0 0.0003440 2905.36987 2915.74316
2735.0 0.000366 2905.80127 2916.27588
2791.0 0.000358 2906.23267 2916.81519
2811.0 0.000356 2906.66504 2917.36011
2734.0 0.000366 2907.09741 2917.91138
2830.0 0.000353 2907.53003 2918.46753
2719.0 0.000368 2907.96313 2919.03223
2908.0 0.0003439 2908.39673 2919.60181
2837.0 0.000352 2908.83057 2920.17847
2742.0 0.000365 2909.26489 2920.76294
2858.0 0.0003499 2909.69946 2921.35425
2827.0 0.000354 2910.13452 2921.95215
2788.0 0.000359 2910.56958 2922.55884
2675.0 0.000374 2911.00537 2923.17358
2750.0 0.000364 2911.44141 2923.79614
2750.0 0.000364 2911.87793 2924.43433
2812.0 0.000356 2912.31421 2925.07520
2757.0 0.000363 2912.75171 2925.72559
2810.0 0.000356 2913.18872 2926.38672
2787.0 0.000359 2913.62671 2927.05933
2784.0 0.000359 2914.06494 2927.74243
2769.0 0.000361 2914.50317 2928.43750
2806.0 0.000356 2914.94214 2929.14551
2680.0 0.000373 2915.38159 2929.86816
2767.0 0.000361 2915.82104 2930.60376
2777.0 0.000360 2916.26099 2931.35693
2754.0 0.000363 2916.70117 2932.12573
2688.0 0.000372 2917.14209 2932.91333
2736.0 0.000365 2917.58301 2933.71851
2899.0 0.0003449 2918.02417 2934.54639
2808.0 0.000356 2918.46606 2935.39624
2774.0 0.000360 2918.90820 2936.27148
2827.0 0.000354 2919.35083 2937.17358
2833.0 0.000353 2919.79346 2938.10327
2801.0 0.000357 2920.23633 2939.06592
2739.0 0.000365 2920.67993 2940.06470
2711.0 0.000369 2921.12378 2941.10376
2867.0 0.0003488 2921.56812 2942.18628
2827.0 0.000354 2922.01245 2943.31714
2788.0 0.000359 2922.45752 2944.50391
2934.0 0.0003408 2922.90283 2945.75488
2717.0 0.000368 2923.34863 2947.07837
2727.0 0.000367 2923.79443 2948.48560
2758.0 0.000363 2924.24097 2949.99121
2800.0 0.000357 2924.68750 2951.60938
2885.0 0.0003466 2925.13452 2953.36377
2853.0 0.0003505 2925.58203 2955.27661
2815.0 0.000355 2926.02979 2957.37964
2825.0 0.000354 2926.47803 2959.70679
2786.0 0.000359 2926.92627 2962.29565
2715.0 0.000368 2927.37524 2965.19482
2846.0 0.000351 2927.82446 2968.44995
2801.0 0.000357 2928.27393 2972.12085
2716.0 0.000368 2928.72388 2976.26099
2729.0 0.000366 2929.17407 2980.92554
2737.0 0.000365 2929.62451 2986.16602
2775.0 0.000360 2930.07568 2992.02661
2792.0 0.000358 2930.52661 2998.52368
2815.0 0.000355 2930.97852 3005.64453
2925.0 0.0003419 2931.43066 3013.31421
2869.0 0.0003486 2931.88330 3021.37231
2898.0 0.0003451 2932.33545 3029.54102
2836.0 0.000353 2932.78882 3037.42163
2832.0 0.000353 2933.24219 3044.49146
2839.0 0.000352 2933.69580 3050.19629
2861.0 0.0003495 2934.15015 3054.07251
2882.0 0.0003470 2934.60449 3055.88818
3010.0 0.0003322 2935.05957 3055.76782
2956.0 0.0003383 2935.51440 3054.13940
2793.0 0.000358 2935.96997 3051.61841
2922.0 0.0003422 2936.42627 3048.83716
2938.0 0.0003404 2936.88232 3046.32983
2824.0 0.000354 2937.33887 3044.48877
2851.0 0.000351 2937.79565 3043.55444
2964.0 0.0003374 2938.25317 3043.63843
2917.0 0.0003428 2938.71069 3044.74072
2917.0 0.0003428 2939.16895 3046.75415
2903.0 0.0003445 2939.62744 3049.45557
2939.0 0.0003403 2940.08594 3052.50879
2852.0 0.0003506 2940.54468 3055.38550
2906.0 0.0003441 2941.00415 3057.74634
2907.0 0.0003440 2941.46411 3059.03589
2973.0 0.0003364 2941.92407 3058.94629
2976.0 0.0003360 2942.38452 3057.42651
2826.0 0.000354 2942.84546 3054.67651
2926.0 0.0003418 2943.30640 3051.09619
2849.0 0.000351 2943.76807 3047.12378
2973.0 0.0003364 2944.22998 3043.16602
2831.0 0.000353 2944.69238 3039.52100
2847.0 0.000351 2945.15479 3036.26587
2830.0 0.000353 2945.61768 3033.74854
2807.0 0.000356 2946.08081 3031.88574
2910.0 0.0003436 2946.54443 3030.66724
2836.0 0.000353 2947.00854 3030.04590
2735.0 0.000366 2947.47266 3029.90332
2951.0 0.0003389 2947.93726 3030.21558
2921.0 0.0003423 2948.40234 3030.82031
2890.0 0.0003460 2948.86792 3031.56299
2803.0 0.000357 2949.33325 3032.41382
2865.0 0.0003490 2949.79956 3033.28442
2826.0 0.000354 2950.26587 3034.18042
2961.0 0.0003377 2950.73267 3035.14844
2822.0 0.000354 2951.19971 3036.22314
2875.0 0.0003478 2951.66724 3037.54712
2858.0 0.0003499 2952.13501 3039.08276
2810.0 0.000356 2952.60327 3040.99878
2776.0 0.000360 2953.07178 3043.26270
2846.0 0.000351 2953.54053 3045.90259
2870.0 0.0003484 2954.00952 3048.93140
2852.0 0.0003506 2954.47900 3052.37134
2876.0 0.0003477 2954.94922 3056.24048
2855.0 0.0003503 2955.41895 3060.55713
2962.0 0.0003376 2955.88989 3065.34033
2839.0 0.000352 2956.36084 3070.65161
2847.0 0.000351 2956.83203 3076.52490
2855.0 0.0003503 2957.30371 3083.01343
2938.0 0.0003404 2957.77588 3090.18530
2858.0 0.0003499 2958.24780 3098.10254
2895.0 0.0003454 2958.72070 3106.91431
2997.0 0.0003337 2959.19360 3116.71753
3013.0 0.0003319 2959.66699 3127.67749
3022.0 0.0003309 2960.14063 3139.97388
2916.0 0.0003429 2960.61475 3153.82495
3040.0 0.0003289 2961.08911 3169.47876
2965.0 0.0003373 2961.56348 3187.23730
3042.0 0.0003287 2962.03857 3207.45142
3095.0 0.0003231 2962.51440 3230.49414
3089.0 0.0003237 2962.98999 3256.78882
3153.0 0.0003172 2963.46631 3286.77905
3133.0 0.0003192 2963.94263 3320.98438
3199.0 0.0003126 2964.41919 3359.87036
3210.0 0.0003115 2964.89648 3403.96460
3258.0 0.0003069 2965.37402 3453.67822
3339.0 0.0002995 2965.85205 3509.31421
3384.0 0.0002955 2966.33008 3570.90039
3598.0 0.0002779 2966.80859 3638.16455
3625.0 0.0002759 2967.28735 3710.14209
3896.0 0.0002567 2967.76685 3785.29053
3985.0 0.0002509 2968.24634 3861.25415
4079.0 0.0002452 2968.72656 3935.29248
4249.0 0.0002353 2969.20630 4004.84790
4131.0 0.0002421 2969.68701 4068.48706
4202.0 0.0002380 2970.16797 4126.43750
4286.0 0.0002333 2970.64917 4180.56104
4257.0 0.0002349 2971.13086 4233.73877
4178.0 0.0002393 2971.61255 4288.69580
4475.0 0.0002235 2972.09497 4347.00098
4561.0 0.0002193 2972.57739 4408.06934
4510.0 0.0002217 2973.06055 4469.03027
4696.0 0.0002129 2973.54419 4524.70801
4773.0 0.0002095 2974.02783 4568.65771
4664.0 0.0002144 2974.51196 4594.72754
4713.0 0.0002122 2974.99634 4598.95898
4691.0 0.0002132 2975.48071 4580.76855
4524.0 0.0002210 2975.96582 4542.91504
4414.0 0.0002266 2976.45142 4490.28613
4321.0 0.0002314 2976.93701 4428.30566
4197.0 0.0002383 2977.42310 4361.70166
4049.0 . . .
loop_
_refln_index_h
_refln_index_k
_refln_index_l
_pd_refln_wavelength_id
_refln_observed_status
_refln_F_squared_meas
_refln_F_squared_calc
_refln_phase_calc
_refln_d_spacing
_gsas_i100_meas
0 0 2 1 o 6120.616 654.965 0.00 5.66557 5.15
0 0 2 2 o 6217.955 654.965 0.00 5.66557 2.60
1 0 1 1 o 3229.678 866.442 180.00 5.08026 9.00
1 0 1 2 o 3315.550 866.442 180.00 5.08026 4.59
1 1 0 1 o 2767.302 1326.860 0.00 4.01885 2.57
1 1 0 2 o 2175.221 1326.860 0.00 4.01885 1.04
1 1 2 1 o 100845.94 102043.30 -45.16 3.27791 100.00
1 1 2 2 o 100700.63 102043.30 -45.16 3.27791 49.68
1 0 3 1 o 1318.897 1792.490 -180.00 3.14575 1.62
1 0 3 2 o 1196.505 1792.490 -180.00 3.14575 0.75
2 0 0 1 o -48.846 2.994 180.00 2.84175 0.00
2 0 0 2 o -48.846 2.994 180.00 2.84175 0.00
0 0 4 1 o -47.923 2.623 180.00 2.83279 0.00
0 0 4 2 o -47.923 2.623 180.00 2.83279 0.00
2 0 2 1 o -440.123 1667.146 0.00 2.54013 0.00
2 0 2 2 o -440.123 1667.146 0.00 2.54013 0.00
2 1 1 1 o -79.816 1676.708 -159.62 2.48011 0.25
2 1 1 2 o -287.239 1676.708 -159.62 2.48011 0.00
1 1 4 1 o -320.418 1219.536 35.46 2.31539 0.00
1 1 4 2 o -320.418 1219.536 35.46 2.31539 0.00
2 1 3 1 o -203.082 655.615 -152.44 2.10873 0.00
1 0 5 1 o -266.693 1234.857 180.00 2.10506 0.00
2 1 3 2 o -203.082 655.615 -152.44 2.10873 0.00
1 0 5 2 o -266.693 1234.857 180.00 2.10506 0.00
2 2 0 1 o 131680.41 129997.04 0.00 2.00942 24.60
2 0 4 1 o 131516.58 129660.89 0.00 2.00625 48.98
2 2 0 2 o 131616.23 129997.04 0.00 2.00942 12.23
2 0 4 2 o 131710.08 129660.89 0.00 2.00625 24.41
2 2 2 1 o 737.467 276.502 -5.69 1.89384 0.35
2 2 2 2 o 518.672 276.502 -5.69 1.89384 0.13
0 0 6 1 o 4261.620 2793.178 0.00 1.88852 0.42
0 0 6 2 o 3956.669 2793.178 0.00 1.88852 0.20
3 0 1 1 o 2938.473 2067.655 180.00 1.86857 1.13
3 0 1 2 o 3163.990 2067.655 180.00 1.86857 0.60
3 1 0 1 o 439.377 551.413 0.00 1.79728 0.23
3 1 0 2 o 405.982 551.413 0.00 1.79728 0.11
3 1 2 1 o 52921.69 51953.61 46.61 1.71315 29.02
1 1 6 1 o 51884.39 51701.88 46.59 1.70921 14.15
3 1 2 2 o 52070.88 51953.61 46.61 1.71315 14.19
1 1 6 2 o 52750.25 51701.88 46.59 1.70921 7.17
3 0 3 1 o 63.743 67.799 180.00 1.69342 0.05
2 1 5 1 o 592.678 623.735 149.59 1.69152 0.45
3 0 3 2 o 55.990 67.799 180.00 1.69342 0.02
2 1 5 2 o 549.925 623.735 149.59 1.69152 0.21
2 2 4 1 o 168.559 103.743 179.14 1.63896 0.07
2 2 4 2 o 160.241 103.743 179.14 1.63896 0.03
2 0 6 1 o -31.074 3.521 180.00 1.57287 0.00
2 0 6 2 o 3.501 3.521 180.00 1.57287 0.01
3 2 1 1 o 149.839 210.049 131.61 1.56129 0.13
3 2 1 2 o 48.135 210.049 131.61 1.56129 0.04
1 0 7 1 o 49.787 356.447 180.00 1.55682 0.05
1 0 7 2 o -160.278 356.447 180.00 1.55682 0.00
3 1 4 1 o -143.498 750.014 -34.57 1.51761 0.04
3 1 4 2 o -85.842 750.014 -34.57 1.51761 0.03
3 2 3 1 o 1978.689 1692.875 167.08 1.45472 0.97
3 0 5 1 o 157.056 118.133 180.00 1.45351 0.06
3 2 3 2 o 2111.271 1692.875 167.08 1.45472 0.51
3 0 5 2 o 164.110 118.133 180.00 1.45351 0.03
0 0 8 1 o 71078.66 73305.46 0.00 1.41639 3.41
4 0 0 1 o 73172.48 73971.52 0.00 1.42088 7.07
0 0 8 2 o 73679.08 73305.46 0.00 1.41639 1.76
4 0 0 2 o 72480.86 73971.52 0.00 1.42088 3.48
4 0 2 1 o 214.330 154.218 0.00 1.37820 0.08
2 2 6 1 o 2064.843 1682.183 1.81 1.37615 0.48
4 0 2 2 o 210.149 154.218 0.00 1.37820 0.04
2 2 6 2 o 1959.730 1682.183 1.81 1.37615 0.23
4 1 1 1 o 916.690 715.748 133.12 1.36836 0.41
2 1 7 1 o 1257.007 863.891 164.83 1.36536 0.57
4 1 1 2 o 1032.034 715.748 133.12 1.36836 0.23
2 1 7 2 o 1496.262 863.891 164.83 1.36536 0.33
3 3 0 1 o 1144.889 475.991 0.00 1.33962 0.13
3 3 0 2 o 933.182 475.991 0.00 1.33962 0.06
1 1 8 1 o 1986.182 1151.728 -55.53 1.33586 0.41
1 1 8 2 o 2153.612 1151.728 -55.53 1.33586 0.22
3 3 2 1 o 32134.553 30673.992 -48.78 1.30367 5.40
3 1 6 1 o 31780.803 30538.127 -48.76 1.30193 10.65
3 3 2 2 o 31908.244 30673.992 -48.78 1.30367 2.67
3 1 6 2 o 32543.186 30538.127 -48.76 1.30193 5.44
4 1 3 2 o 1389.422 987.946 148.03 1.29491 0.28
3 2 5 2 o 1768.145 1227.473 -163.30 1.29406 0.35
4 1 3 1 o 1272.278 987.946 148.03 1.29491 0.51
3 2 5 1 o 1622.024 1227.473 -163.30 1.29406 0.65
4 2 0 1 o 641.800 280.928 180.00 1.27087 0.13
4 0 4 1 o 653.505 278.888 180.00 1.27007 0.13
4 2 0 2 o 663.490 280.928 180.00 1.27087 0.07
2 0 8 1 o 648.351 272.726 180.00 1.26766 0.13
4 0 4 2 o 687.903 278.888 180.00 1.27007 0.07
2 0 8 2 o 908.410 272.726 180.00 1.26766 0.09
4 2 2 1 o 2139.133 568.164 5.66 1.24006 0.80
4 2 2 2 o 2176.449 568.164 5.66 1.24006 0.41
3 0 7 1 o 3910.929 1291.141 180.00 1.23068 0.69
1 0 9 1 o 1087.901 312.290 -180.00 1.22922 0.20
3 0 7 2 o 4455.832 1291.141 180.00 1.23068 0.39
1 0 9 2 o 1654.614 312.290 -180.00 1.22922 0.15
3 3 4 1 o 3178.011 358.863 41.29 1.21103 0.55
3 3 4 2 o 3812.786 358.863 41.29 1.21103 0.32
4 1 5 1 o 1976.586 889.959 -142.14 1.17770 0.66
4 1 5 2 o 1829.788 889.959 -142.14 1.17770 0.31
4 2 4 1 o 49947.02 45217.67 -0.06 1.15953 14.13
2 2 8 1 o 48987.35 44930.59 -0.06 1.15770 6.90
4 2 4 2 o 49404.13 45217.67 -0.06 1.15953 6.96
2 2 8 2 o 50121.02 44930.59 -0.06 1.15770 3.53
5 0 1 1 o 19.574 0.095 180.00 1.13102 0.01
4 3 1 1 o 1906.720 1180.407 -152.54 1.13102 0.61
4 0 6 1 o 1851.257 1077.054 0.00 1.13541 0.32
3 2 7 1 o 148.285 71.073 -132.22 1.12932 0.06
0 0 10 1 o 255.386 194.371 180.00 1.13311 0.01
4 3 1 2 o 1994.225 1180.407 -152.54 1.13102 0.32
5 0 1 2 o 21.921 0.095 180.00 1.13102 0.00
2 1 9 1 o 1011.846 577.036 -156.99 1.12820 0.34
4 0 6 2 o 1803.287 1077.054 0.00 1.13541 0.15
3 2 7 2 o 169.950 71.073 -132.22 1.12932 0.03
0 0 10 2 o 257.139 194.371 180.00 1.13311 0.00
2 1 9 2 o 1191.967 577.036 -156.99 1.12820 0.20
5 1 0 1 o 633.701 265.561 0.00 1.11463 0.12
3 1 8 1 o 1287.730 718.411 58.04 1.11246 0.41
5 1 0 2 o 543.573 265.561 0.00 1.11463 0.05
3 1 8 2 o 1334.668 718.411 58.04 1.11246 0.21
5 1 2 1 o 19754.219 19229.908 -50.66 1.09366 5.19
3 3 6 1 o 19664.617 19225.629 50.51 1.09264 2.58
5 1 2 2 o 19539.381 19229.908 -50.66 1.09366 2.56
1 1 10 1 o 19277.502 18985.896 -50.59 1.09059 2.52
3 3 6 2 o 19507.938 19225.629 50.51 1.09264 1.27
5 0 3 1 o 1535.183 1473.974 180.00 1.08848 0.24
4 3 3 1 o 239.083 228.455 -116.24 1.08848 0.08
1 1 10 2 o 19736.111 18985.896 -50.59 1.09059 1.29
5 0 3 2 o 1525.018 1473.974 180.00 1.08848 0.12
4 3 3 2 o 237.318 228.455 -116.24 1.08848 0.04
4 2 6 1 o -22.186 7.654 -136.13 1.05436 0.00
2 0 10 1 o 212.787 1621.855 0.00 1.05253 0.06
4 2 6 2 o -12.321 7.654 -136.13 1.05436 0.00
5 2 1 1 o 425.199 1269.708 -168.50 1.05085 0.15
2 0 10 2 o 470.685 1621.855 0.00 1.05253 0.05
4 1 7 1 o 58.273 316.911 -140.12 1.04949 0.04
3 0 9 1 o 63.507 657.946 180.00 1.04858 0.02
5 2 1 2 o 112.248 1269.708 -168.50 1.05085 0.03
4 1 7 2 o -75.649 316.911 -140.12 1.04949 0.00
3 0 9 2 o -112.049 657.946 180.00 1.04858 0.00
5 1 4 1 o -109.800 254.563 39.88 1.03722 0.00
5 1 4 2 o -109.800 254.563 39.88 1.03722 0.00
5 2 3 1 o -18.354 38.074 -80.71 1.01646 0.00
4 3 5 1 o -45.677 296.174 119.24 1.01605 0.00
5 0 5 1 o -107.928 1001.325 180.00 1.01605 0.00
5 2 3 2 o -18.354 38.074 -80.71 1.01646 0.00
1 0 11 1 o -98.087 449.798 -180.00 1.01359 0.00
5 0 5 2 o -107.928 1001.325 180.00 1.01605 0.00
4 3 5 2 o -45.677 296.174 119.24 1.01605 0.00
1 0 11 2 o -98.087 449.798 -180.00 1.01359 0.00
4 4 0 1 o 18571.354 28908.613 0.00 1.00471 1.05
4 0 8 1 o 20702.494 28674.318 0.00 1.00312 2.40
