#------------------------------------------------------------------------------
#$Date: 2016-02-13 21:28:24 +0200 (Sat, 13 Feb 2016) $
#$Revision: 176429 $
#$URL: svn://www.crystallography.net/cod/cif/7/03/48/7034870.cif $
#------------------------------------------------------------------------------
#
# This file is available in the Crystallography Open Database (COD),
# http://www.crystallography.net/
#
# All data on this site have been placed in the public domain by the
# contributors.
#
data_7034870
loop_
_publ_author_name
'Dong, Yongkwan'
'Eckert, Brian'
'Wang, Hsin'
'Zeng, Xiaoyu'
'Tritt, Terry M.'
'Nolas, George S.'
_publ_section_title
;
 Synthesis, crystal structure, and transport properties of
 Cu2.2Zn0.8SnSe4-xTex (0.1 &#x2264; x &#x2264; 0.4).
;
_journal_issue                   19
_journal_name_full
'Dalton transactions (Cambridge, England : 2003)'
_journal_page_first              9014
_journal_page_last               9019
_journal_paper_doi               10.1039/c5dt00910c
_journal_volume                  44
_journal_year                    2015
_chemical_formula_sum            'Cu2.2 Se3.69 Sn Te0.31 Zn0.8'
_chemical_formula_weight         641.72
_chemical_name_systematic        ' ?'
_space_group_IT_number           121
_symmetry_cell_setting           tetragonal
_symmetry_space_group_name_Hall  'I -4 2'
_symmetry_space_group_name_H-M   'I -4 2 m'
_audit_creation_date             2014-12-15T15:06
_audit_creation_method           'from EXP file using GSAS2CIF'
_audit_update_record
' 2014-12-15T15:06  Initial CIF as created by GSAS2CIF'
_cell_angle_alpha                90.0
_cell_angle_beta                 90.0
_cell_angle_gamma                90.0
_cell_formula_units_Z            2
_cell_length_a                   5.70846(32)
_cell_length_b                   5.70846
_cell_length_c                   11.3823(8)
_cell_volume                     370.91(3)
_computing_structure_refinement  GSAS
_diffrn_radiation_polarisn_ratio 0.87
_diffrn_radiation_probe          x-ray
_exptl_absorpt_correction_T_max  1.00311
_exptl_absorpt_correction_T_min  1.00311
_exptl_absorpt_process_details
;   GSAS Absorption/surface roughness correction: function number 0
 Debye-Scherrer absorption correction
Term (= MU.r/wave) =    -0.60779E-03
Correction is refined.
;
_pd_block_id
2014-12-15T15:06|SE36TE04_1|Se36Te04.cif|Bruker_D8
_pd_calc_method                  'Rietveld Refinement'
_pd_instr_location               ' ?'
_pd_meas_2theta_range_inc        0.01998
_pd_meas_2theta_range_max        100.00214
_pd_meas_2theta_range_min        15.0
_pd_meas_number_of_points        4256
_pd_phase_name
'from E:/USF/USF data/PXRD/YD143/refinements/Se36Te04/Se36Te04.cel'
_pd_proc_2theta_range_inc        0.01998
_pd_proc_2theta_range_max        100.00214
_pd_proc_2theta_range_min        15.0
_pd_proc_info_datetime           2014-12-15T15:06:06
_pd_proc_info_excluded_regions   ' ?'
_pd_proc_ls_background_function
;   GSAS Background function number 2 with  3 terms.
 Cosine Fourier series
      1:    3423.43     2:   -823.022     3:    713.478    
;
_pd_proc_ls_peak_cutoff          0.00050
_pd_proc_ls_profile_function
;
 CW Profile function number 3 with  19 terms
 Pseudovoigt profile coefficients as parameterized in
 P. Thompson, D.E. Cox & J.B. Hastings (1987). J. Appl. Cryst.,20,79-83.
 Asymmetry correction of L.W. Finger, D.E. Cox & A. P. Jephcoat (1994).
 J. Appl. Cryst.,27,892-900.
 Peak tails are ignored  where the intensity is below 0.0005 times the peak
   Aniso. broadening axis   0.0   0.0   1.0
;
_pd_proc_ls_prof_R_factor        0.0487
_pd_proc_ls_prof_wR_expected     0.0166
_pd_proc_ls_prof_wR_factor       0.0655
_pd_proc_number_of_points        4256
_pd_spec_mounting                ' ?'
_refine_ls_goodness_of_fit_all   3.95
_refine_ls_matrix_type           full
_refine_ls_number_parameters     18
_refine_ls_number_restraints     0
_refine_ls_R_Fsqd_factor         0.15988
_refine_ls_shift/su_max          1.19
_refine_ls_shift/su_mean         0.18
_reflns_d_resolution_high        1.008
_reflns_d_resolution_low         5.691
_reflns_limit_h_max              5
_reflns_limit_h_min              0
_reflns_limit_k_max              4
_reflns_limit_k_min              0
_reflns_limit_l_max              11
_reflns_limit_l_min              0
_reflns_number_total             151
_cod_data_source_file            c5dt00910c2.cif
_cod_data_source_block           SE36TE04_1_publ
_cod_depositor_comments
;
The following automatic conversions were performed:

'_geom_bond_publ_flag' value 'N' changed to 'n' according to
/usr/data/users/saulius/crontab/automatic-downloads/rss-feeds/RSC/lib/dictionaries/cif_core.dic
dictionary named 'cif_core.dic' version 2.4.2 from 2011-04-26 (42
times).

'_geom_angle_publ_flag' value 'N' changed to 'n' according to
/usr/data/users/saulius/crontab/automatic-downloads/rss-feeds/RSC/lib/dictionaries/cif_core.dic
dictionary named 'cif_core.dic' version 2.4.2 from 2011-04-26 (132
times).

Automatic conversion script
Id: cif_fix_values 3271 2015-04-21 07:52:19Z andrius 

 Adding full bibliography for 7034870--7034873.cif.
;
_cod_original_cell_volume        370.91(6)
_cod_original_formula_sum        'Cu2.20 Se3.69 Sn Te0.31 Zn0.80'
_cod_database_code               7034870
#BEGIN Tags that were not found in dictionaries:
_gsas_exptl_extinct_corr_t_min   1.00000
_gsas_exptl_extinct_corr_t_max   1.00000
#END Tags that were not found in dictionaries
loop_
_symmetry_equiv_pos_site_id
_symmetry_equiv_pos_as_xyz
1 +x,+y,+z
2 +y,-x,-z
3 -x,-y,+z
4 -y,+x,-z
5 -x,+y,-z
6 +y,+x,+z
7 +x,-y,-z
8 -y,-x,+z
101 +x+1/2,+y+1/2,+z+1/2
102 +y+1/2,-x+1/2,-z+1/2
103 -x+1/2,-y+1/2,+z+1/2
104 -y+1/2,+x+1/2,-z+1/2
105 -x+1/2,+y+1/2,-z+1/2
106 +y+1/2,+x+1/2,+z+1/2
107 +x+1/2,-y+1/2,-z+1/2
108 -y+1/2,-x+1/2,+z+1/2
loop_
_atom_site_type_symbol
_atom_site_label
_atom_site_fract_x
_atom_site_fract_y
_atom_site_fract_z
_atom_site_occupancy
_atom_site_thermal_displace_type
_atom_site_U_iso_or_equiv
_atom_site_symmetry_multiplicity
Cu Cu1 0.0 0.5 0.25 1.0 Uiso 0.0136(31) 4
Cu Cu2 0.0 0.0 0.0 0.19968 Uiso 0.048(4) 2
Zn Zn 0.0 0.0 0.0 0.8 Uiso 0.048(4) 2
Sn Sn 0.0 0.0 0.5 1.0 Uiso 0.0329(23) 2
Se Se 0.24255 0.24255 0.12923 0.9229 Uiso 0.0190(16) 8
Te Te 0.24255 0.24255 0.12923 0.07731 Uiso 0.0190(16) 8
loop_
_atom_type_symbol
_atom_type_number_in_cell
_atom_type_scat_dispersion_real
_atom_type_scat_dispersion_imag
_atom_type_scat_Cromer_Mann_a1
_atom_type_scat_Cromer_Mann_a2
_atom_type_scat_Cromer_Mann_a3
_atom_type_scat_Cromer_Mann_a4
_atom_type_scat_Cromer_Mann_b1
_atom_type_scat_Cromer_Mann_b2
_atom_type_scat_Cromer_Mann_b3
_atom_type_scat_Cromer_Mann_b4
_atom_type_scat_Cromer_Mann_c
_atom_type_scat_source
Cu 4.399 0.000 0.000 13.3380 3.58280 7.16760 0.24700 5.61580 11.3966 1.67350
64.8126 1.19100 International_Tables_Vol_C
Zn 1.6 0.000 0.000 14.0743 3.26550 7.03180 0.23330 5.16520 10.3163 2.41000
58.7097 1.30410 International_Tables_Vol_C
Sn 2.0 0.000 0.000 19.1889 5.83030 19.1005 0.50310 4.45850 26.8909 2.46630
83.9571 4.78210 International_Tables_Vol_C
Se 7.383 0.000 0.000 17.0006 2.40980 5.81960 0.27260 3.97310 15.2372 4.35430
43.8163 2.84090 International_Tables_Vol_C
Te 0.618 0.000 0.000 19.9644 4.81742 19.0138 0.42088 6.14487 28.5284 2.52390
70.8403 4.35200 International_Tables_Vol_C
loop_
_diffrn_radiation_wavelength
_diffrn_radiation_wavelength_wt
_diffrn_radiation_type
_diffrn_radiation_wavelength_id
1.540600 1.000 K\a~1~ 1
1.544400 0.500 K\a~2~ 2
loop_
_geom_angle_atom_site_label_1
_geom_angle_atom_site_label_2
_geom_angle_atom_site_label_3
_geom_angle
_geom_angle_site_symmetry_1
_geom_angle_site_symmetry_3
_geom_angle_publ_flag
Se Cu1 Se 111.505(5) 1_555 3_565 n
Se Cu1 Se 108.4641(24) 1_555 102_455 n
Se Cu1 Se 108.4641(24) 1_555 104_555 n
Se Cu1 Te 0.0 1_555 1_555 n
Se Cu1 Te 111.505(5) 1_555 3_565 n
Se Cu1 Te 108.4641(24) 1_555 102_455 n
Se Cu1 Te 108.4641(24) 1_555 104_555 n
Se Cu1 Se 108.4641(24) 3_565 102_455 n
Se Cu1 Se 108.4641(24) 3_565 104_555 n
Se Cu1 Te 111.505(5) 3_565 1_555 n
Se Cu1 Te 0.0 3_565 3_565 n
Se Cu1 Te 108.4641(24) 3_565 102_455 n
Se Cu1 Te 108.4641(24) 3_565 104_555 n
Se Cu1 Se 111.505(5) 102_455 104_555 n
Se Cu1 Te 108.4641(24) 102_455 1_555 n
Se Cu1 Te 108.4641(24) 102_455 3_565 n
Se Cu1 Te 0.0 102_455 102_455 n
Se Cu1 Te 111.505(5) 102_455 104_555 n
Se Cu1 Te 108.4641(24) 104_555 1_555 n
Se Cu1 Te 108.4641(24) 104_555 3_565 n
Se Cu1 Te 111.505(5) 104_555 102_455 n
Se Cu1 Te 0.0 104_555 104_555 n
Te Cu1 Te 111.505(5) 1_555 3_565 n
Te Cu1 Te 108.4641(24) 1_555 102_455 n
Te Cu1 Te 108.4641(24) 1_555 104_555 n
Te Cu1 Te 108.4641(24) 3_565 102_455 n
Te Cu1 Te 108.4641(24) 3_565 104_555 n
Te Cu1 Te 111.505(5) 102_455 104_555 n
Se Cu2 Se 111.1453(26) 1_555 2_555 n
Se Cu2 Se 106.173(5) 1_555 3_555 n
Se Cu2 Se 111.1453(26) 1_555 4_555 n
Se Cu2 Te 0.0 1_555 1_555 n
Se Cu2 Te 111.1453(26) 1_555 2_555 n
Se Cu2 Te 106.173(5) 1_555 3_555 n
Se Cu2 Te 111.1453(26) 1_555 4_555 n
Se Cu2 Se 111.1453(26) 2_555 3_555 n
Se Cu2 Se 106.173(5) 2_555 4_555 n
Se Cu2 Te 111.1453(26) 2_555 1_555 n
Se Cu2 Te 0.0 2_555 2_555 n
Se Cu2 Te 111.1453(26) 2_555 3_555 n
Se Cu2 Te 106.173(5) 2_555 4_555 n
Se Cu2 Se 111.1453(26) 3_555 4_555 n
Se Cu2 Te 106.173(5) 3_555 1_555 n
Se Cu2 Te 111.1453(26) 3_555 2_555 n
Se Cu2 Te 0.0 3_555 3_555 n
Se Cu2 Te 111.1453(26) 3_555 4_555 n
Se Cu2 Te 111.1453(26) 4_555 1_555 n
Se Cu2 Te 106.173(5) 4_555 2_555 n
Se Cu2 Te 111.1453(26) 4_555 3_555 n
Se Cu2 Te 0.0 4_555 4_555 n
Te Cu2 Te 111.1453(26) 1_555 2_555 n
Te Cu2 Te 106.173(5) 1_555 3_555 n
Te Cu2 Te 111.1453(26) 1_555 4_555 n
Te Cu2 Te 111.1453(26) 2_555 3_555 n
Te Cu2 Te 106.173(5) 2_555 4_555 n
Te Cu2 Te 111.1453(26) 3_555 4_555 n
Se Zn Se 111.1453(26) 1_555 2_555 n
Se Zn Se 106.173(5) 1_555 3_555 n
Se Zn Se 111.1453(26) 1_555 4_555 n
Se Zn Te 0.0 1_555 1_555 n
Se Zn Te 111.1453(26) 1_555 2_555 n
Se Zn Te 106.173(5) 1_555 3_555 n
Se Zn Te 111.1453(26) 1_555 4_555 n
Se Zn Se 111.1453(26) 2_555 3_555 n
Se Zn Se 106.173(5) 2_555 4_555 n
Se Zn Te 111.1453(26) 2_555 1_555 n
Se Zn Te 0.0 2_555 2_555 n
Se Zn Te 111.1453(26) 2_555 3_555 n
Se Zn Te 106.173(5) 2_555 4_555 n
Se Zn Se 111.1453(26) 3_555 4_555 n
Se Zn Te 106.173(5) 3_555 1_555 n
Se Zn Te 111.1453(26) 3_555 2_555 n
Se Zn Te 0.0 3_555 3_555 n
Se Zn Te 111.1453(26) 3_555 4_555 n
Se Zn Te 111.1453(26) 4_555 1_555 n
Se Zn Te 106.173(5) 4_555 2_555 n
Se Zn Te 111.1453(26) 4_555 3_555 n
Se Zn Te 0.0 4_555 4_555 n
Te Zn Te 111.1453(26) 1_555 2_555 n
Te Zn Te 106.173(5) 1_555 3_555 n
Te Zn Te 111.1453(26) 1_555 4_555 n
Te Zn Te 111.1453(26) 2_555 3_555 n
Te Zn Te 106.173(5) 2_555 4_555 n
Te Zn Te 111.1453(26) 3_555 4_555 n
Se Sn Se 109.4944(25) 101_445 102_455 n
Se Sn Se 109.425(5) 101_445 103_555 n
Se Sn Se 109.4944(25) 101_445 104_545 n
Se Sn Te 0.0 101_445 101_445 n
Se Sn Te 109.4944(25) 101_445 102_455 n
Se Sn Te 109.425(5) 101_445 103_555 n
Se Sn Te 109.4944(25) 101_445 104_545 n
Se Sn Se 109.4944(25) 102_455 103_555 n
Se Sn Se 109.425(5) 102_455 104_545 n
Se Sn Te 109.4944(25) 102_455 101_445 n
Se Sn Te 0.0 102_455 102_455 n
Se Sn Te 109.4944(25) 102_455 103_555 n
Se Sn Te 109.425(5) 102_455 104_545 n
Se Sn Se 109.4944(25) 103_555 104_545 n
Se Sn Te 109.425(5) 103_555 101_445 n
Se Sn Te 109.4944(25) 103_555 102_455 n
Se Sn Te 0.0 103_555 103_555 n
Se Sn Te 109.4944(25) 103_555 104_545 n
Se Sn Te 109.4944(25) 104_545 101_445 n
Se Sn Te 109.425(5) 104_545 102_455 n
Se Sn Te 109.4944(25) 104_545 103_555 n
Se Sn Te 0.0 104_545 104_545 n
Te Sn Te 109.4944(25) 101_445 102_455 n
Te Sn Te 109.425(5) 101_445 103_555 n
Te Sn Te 109.4944(25) 101_445 104_545 n
Te Sn Te 109.4944(25) 102_455 103_555 n
Te Sn Te 109.425(5) 102_455 104_545 n
Te Sn Te 109.4944(25) 103_555 104_545 n
Cu1 Se Cu1 111.430(5) 1_555 6_555 n
Cu1 Se Cu2 110.9588(24) 1_555 1_555 n
Cu1 Se Zn 110.9588(24) 1_555 1_555 n
Cu1 Se Sn 107.7582(25) 1_555 101_554 n
Cu1 Se Cu2 110.9588(24) 6_555 1_555 n
Cu1 Se Zn 110.9588(24) 6_555 1_555 n
Cu1 Se Sn 107.7582(25) 6_555 101_554 n
Cu2 Se Zn 0.0 1_555 1_555 n
Cu2 Se Sn 107.799(5) 1_555 101_554 n
Zn Se Sn 107.799(5) 1_555 101_554 n
Cu1 Te Cu1 111.430(5) 1_555 6_555 n
Cu1 Te Cu2 110.9588(24) 1_555 1_555 n
Cu1 Te Zn 110.9588(24) 1_555 1_555 n
Cu1 Te Sn 107.7582(25) 1_555 101_554 n
Cu1 Te Cu2 110.9588(24) 6_555 1_555 n
Cu1 Te Zn 110.9588(24) 6_555 1_555 n
Cu1 Te Sn 107.7582(25) 6_555 101_554 n
Cu2 Te Zn 0.0 1_555 1_555 n
Cu2 Te Sn 107.799(5) 1_555 101_554 n
Zn Te Sn 107.799(5) 1_555 101_554 n
loop_
_geom_bond_atom_site_label_1
_geom_bond_atom_site_label_2
_geom_bond_distance
_geom_bond_site_symmetry_2
_geom_bond_publ_flag
Cu1 Se 2.44267(11) 1_555 n
Cu1 Se 2.44267(11) 3_565 n
Cu1 Se 2.44267(11) 102_455 n
Cu1 Se 2.44267(11) 104_555 n
Cu1 Te 2.44267(11) 1_555 n
Cu1 Te 2.44267(11) 3_565 n
Cu1 Te 2.44267(11) 102_455 n
Cu1 Te 2.44267(11) 104_555 n
Cu2 Se 2.44902(11) 1_555 n
Cu2 Se 2.44902(11) 2_555 n
Cu2 Se 2.44902(11) 3_555 n
Cu2 Se 2.44902(11) 4_555 n
Cu2 Te 2.44902(11) 1_555 n
Cu2 Te 2.44902(11) 2_555 n
Cu2 Te 2.44902(11) 3_555 n
Cu2 Te 2.44902(11) 4_555 n
Zn Se 2.44902(11) 1_555 n
Zn Se 2.44902(11) 2_555 n
Zn Se 2.44902(11) 3_555 n
Zn Se 2.44902(11) 4_555 n
Zn Te 2.44902(11) 1_555 n
Zn Te 2.44902(11) 2_555 n
Zn Te 2.44902(11) 3_555 n
Zn Te 2.44902(11) 4_555 n
Sn Se 2.54623(11) 101_445 n
Sn Se 2.54623(11) 102_455 n
Sn Se 2.54623(11) 103_555 n
Sn Se 2.54623(11) 104_545 n
Sn Te 2.54623(11) 101_445 n
Sn Te 2.54623(11) 102_455 n
Sn Te 2.54623(11) 103_555 n
Sn Te 2.54623(11) 104_545 n
Se Cu1 2.44267(11) 1_555 n
Se Cu1 2.44267(11) 6_555 n
Se Cu2 2.44902(11) 1_555 n
Se Zn 2.44902(11) 1_555 n
Se Sn 2.54623(11) 101_554 n
Te Cu1 2.44267(11) 1_555 n
Te Cu1 2.44267(11) 6_555 n
Te Cu2 2.44902(11) 1_555 n
Te Zn 2.44902(11) 1_555 n
Te Sn 2.54623(11) 101_554 n
loop_
_pd_meas_counts_total
_pd_proc_ls_weight
_pd_proc_intensity_bkg_calc
_pd_calc_intensity_total
4170.0 0.0002398 3246.34180 3251.52246
4219.0 0.0002370 3246.16724 3251.70801
4159.0 0.0002404 3245.99268 3251.93237
4137.0 0.0002417 3245.81738 3252.20215
4182.0 0.0002391 3245.64209 3252.52295
4240.0 0.0002358 3245.46680 3252.90503
4289.0 0.0002332 3245.29126 3253.35693
4316.0 0.0002317 3245.11548 3253.89185
4241.0 0.0002358 3244.93945 3254.52417
4181.0 0.0002392 3244.76318 3255.27344
4204.0 0.0002379 3244.58667 3256.16260
4235.0 0.0002361 3244.41016 3257.22095
4165.0 0.0002401 3244.23315 3258.48682
4128.0 0.0002422 3244.05640 3260.01196
4212.0 0.0002374 3243.87891 3261.87183
4258.0 0.0002349 3243.70166 3264.18677
4224.0 0.0002367 3243.52393 3267.17407
4186.0 0.0002389 3243.34595 3271.25049
4300.0 0.0002326 3243.16797 3277.21216
4142.0 0.0002414 3242.98975 3286.52075
4248.0 0.0002354 3242.81152 3301.62988
4262.0 0.0002346 3242.63281 3327.25732
4326.0 0.0002312 3242.45386 3366.13135
4173.0 0.0002396 3242.27490 3424.78857
4275.0 0.0002339 3242.09546 3505.82397
4325.0 0.0002312 3241.91602 3609.57495
4355.0 0.0002296 3241.73657 3729.69263
4391.0 0.0002277 3241.55664 3851.37769
4350.0 0.0002299 3241.37646 3951.07007
4456.0 0.0002244 3241.19629 4002.64380
4507.0 0.0002219 3241.01587 3991.51367
4411.0 0.0002267 3240.83521 3922.59937
4394.0 0.0002276 3240.65430 3815.17090
4414.0 0.0002266 3240.47339 3693.46948
4330.0 0.0002309 3240.29199 3577.92480
4118.0 0.0002428 3240.11060 3480.75049
4200.0 0.0002381 3239.92871 3406.34961
4095.0 0.0002442 3239.74707 3353.67456
4047.0 0.0002471 3239.56494 3318.67212
4169.0 0.0002399 3239.38257 3296.44751
4101.0 0.0002438 3239.20020 3282.60693
4068.0 0.0002458 3239.01758 3273.86768
4151.0 0.0002409 3238.83472 3268.08228
4157.0 0.0002406 3238.65161 3263.97949
4010.0 0.0002494 3238.46826 3260.86743
4085.0 0.0002448 3238.28491 3258.37744
4004.0 0.0002498 3238.10132 3256.31689
4021.0 0.0002487 3237.91748 3254.57471
4162.0 0.0002403 3237.73340 3253.08154
4090.0 0.0002445 3237.54907 3251.78882
4034.0 0.0002479 3237.36475 3250.66138
4082.0 0.0002450 3237.18018 3249.67090
4055.0 0.0002466 3236.99536 3248.79565
4013.0 0.0002492 3236.81030 3248.01880
4060.0 0.0002463 3236.62500 3247.32544
3981.0 0.0002512 3236.43970 3246.70459
4075.0 0.0002454 3236.25391 3246.14673
4040.0 0.0002475 3236.06812 3245.64404
4134.0 0.0002419 3235.88208 3245.19019
3961.0 0.0002525 3235.69604 3244.78027
4142.0 0.0002414 3235.50928 3244.40967
3881.0 0.0002577 3235.32275 3244.07446
4015.0 0.0002491 3235.13599 3243.77222
4064.0 0.0002461 3234.94897 3243.50073
3970.0 0.0002519 3234.76172 3243.25757
3863.0 0.0002589 3234.57446 3243.04053
4047.0 0.0002471 3234.38696 3242.84961
4059.0 0.0002464 3234.19897 3242.68311
3999.0 0.0002501 3234.01099 3242.54053
3980.0 0.0002513 3233.82275 3242.42163
4000.0 0.0002500 3233.63452 3242.32593
3993.0 0.0002504 3233.44580 3242.25366
4016.0 0.0002490 3233.25708 3242.20557
3925.0 0.0002548 3233.06812 3242.18140
4097.0 0.0002441 3232.87891 3242.18262
3961.0 0.0002525 3232.68970 3242.20947
3956.0 0.0002528 3232.50000 3242.26367
4021.0 0.0002487 3232.31030 3242.34619
3967.0 0.0002521 3232.12036 3242.45972
3949.0 0.0002532 3231.93018 3242.60571
3829.0 0.0002612 3231.73999 3242.78613
3827.0 0.0002613 3231.54956 3243.00513
3919.0 0.0002552 3231.35864 3243.26465
3916.0 0.0002554 3231.16772 3243.56909
3858.0 0.0002592 3230.97656 3243.92310
3949.0 0.0002532 3230.78540 3244.33081
3910.0 0.0002558 3230.59375 3244.79883
3801.0 0.0002631 3230.40234 3245.33374
3959.0 0.0002526 3230.21021 3245.94312
4020.0 0.0002488 3230.01807 3246.63599
3910.0 0.0002558 3229.82593 3247.42358
3839.0 0.0002605 3229.63354 3248.31738
3903.0 0.0002562 3229.44067 3249.33325
3769.0 0.0002653 3229.24805 3250.48828
3882.0 0.0002576 3229.05493 3251.80273
3866.0 0.0002587 3228.86157 3253.30225
3897.0 0.0002566 3228.66821 3255.01587
3974.0 0.0002516 3228.47461 3256.98071
3984.0 0.0002510 3228.28076 3259.24048
3910.0 0.0002558 3228.08667 3261.85034
3900.0 0.0002564 3227.89258 3264.87744
3976.0 0.0002515 3227.69824 3268.40674
4021.0 0.0002487 3227.50342 3272.54614
3958.0 0.0002527 3227.30884 3277.43433
3896.0 0.0002567 3227.11377 3283.25635
4000.0 0.0002500 3226.91870 3290.27588
3919.0 0.0002552 3226.72339 3298.90869
3970.0 0.0002519 3226.52783 3309.90430
4052.0 0.0002468 3226.33228 3324.74585
4108.0 0.0002434 3226.13623 3346.46509
4120.0 0.0002427 3225.93994 3380.98999
4145.0 0.0002413 3225.74390 3438.94946
4205.0 0.0002378 3225.54736 3537.22314
4445.0 0.0002250 3225.35059 3698.58374
4508.0 0.0002218 3225.15356 3947.74072
4710.0 0.0002123 3224.95679 4302.28418
4913.0 0.0002035 3224.75928 4760.22607
4885.0 0.0002047 3224.56177 5286.76514
5380.0 0.0001859 3224.36450 5803.90723
5500.0 0.0001818 3224.16650 6194.54834
5766.0 0.0001734 3223.96851 6346.78076
5900.0 0.0001695 3223.77026 6222.99219
5800.0 0.0001724 3223.57178 5868.76025
5497.0 0.0001819 3223.37329 5377.85693
5136.0 0.0001947 3223.17456 4857.27930
4698.0 0.0002129 3222.97559 4390.02100
4446.0 0.0002249 3222.77637 4018.19849
4193.0 0.0002385 3222.57690 3749.61011
4170.0 0.0002398 3222.37769 3570.50757
3837.0 0.0002606 3222.17773 3458.36841
3884.0 0.0002575 3221.97803 3390.80249
3956.0 0.0002528 3221.77783 3350.21899
3944.0 0.0002535 3221.57764 3324.89185
3857.0 0.0002593 3221.37720 3307.89673
3897.0 0.0002566 3221.17651 3295.52783
3742.0 0.0002672 3220.97559 3285.90869
3909.0 0.0002558 3220.77466 3278.09424
3758.0 0.0002661 3220.57349 3271.57886
3843.0 0.0002602 3220.37207 3266.05786
3776.0 0.0002648 3220.17017 3261.32715
3770.0 0.0002653 3219.96875 3257.23584
3873.0 0.0002582 3219.76660 3253.66943
3772.0 0.0002651 3219.56445 3250.53882
3794.0 0.0002636 3219.36206 3247.54321
3791.0 0.0002638 3219.15967 3245.08594
3762.0 0.0002658 3218.95703 3242.77441
3715.0 0.0002692 3218.75391 3240.79956
3837.0 0.0002606 3218.55103 3239.01440
3792.0 0.0002637 3218.34766 3237.39307
3824.0 0.0002615 3218.14429 3235.91357
3812.0 0.0002623 3217.94067 3234.55762
3692.0 0.0002709 3217.73682 3233.30981
3789.0 0.0002639 3217.53271 3232.15698
3671.0 0.0002724 3217.32861 3231.08789
3767.0 0.0002655 3217.12402 3230.09302
3659.0 0.0002733 3216.91943 3229.16431
3739.0 0.0002675 3216.71484 3228.29443
3696.0 0.0002706 3216.50977 3227.47681
3698.0 0.0002704 3216.30469 3226.70654
3799.0 0.0002632 3216.09961 3225.97852
3639.0 0.0002748 3215.89380 3225.28882
3751.0 0.0002666 3215.68823 3224.63379
3696.0 0.0002706 3215.48242 3224.01001
3652.0 0.0002738 3215.27637 3223.41455
3690.0 0.0002710 3215.07031 3222.84521
3613.0 0.0002768 3214.86377 3222.29932
3738.0 0.0002675 3214.65723 3221.77515
3607.0 0.0002772 3214.45044 3221.27051
3601.0 0.0002777 3214.24341 3220.78442
3658.0 0.0002734 3214.03638 3220.31470
3643.0 0.0002745 3213.82886 3219.86035
3686.0 0.0002713 3213.62158 3219.42017
3531.0 0.0002832 3213.41382 3218.99341
3612.0 0.0002769 3213.20581 3218.57813
3612.0 0.0002769 3212.99780 3218.17432
3679.0 0.0002718 3212.78955 3217.78076
3589.0 0.0002786 3212.58105 3217.39673
3681.0 0.0002717 3212.37256 3217.02173
3629.0 0.0002756 3212.16382 3216.65527
3530.0 0.0002833 3211.95483 3216.29639
3579.0 0.0002794 3211.74561 3215.94434
3585.0 0.0002789 3211.53638 3215.59912
3657.0 0.0002734 3211.32690 3215.26099
3706.0 0.0002698 3211.11694 3214.92798
3593.0 0.0002783 3210.90723 3214.60107
3522.0 0.0002839 3210.69727 3214.27881
3517.0 0.0002843 3210.48706 3213.96167
3539.0 0.0002826 3210.27637 3213.64893
3586.0 0.0002789 3210.06592 3213.34058
3617.0 0.0002765 3209.85522 3213.03638
3498.0 0.0002859 3209.64429 3212.73535
3561.0 0.0002808 3209.43311 3212.43848
3544.0 0.0002822 3209.22192 3212.14502
3556.0 0.0002812 3209.01001 3211.85425
3481.0 0.0002873 3208.79858 3211.56714
3496.0 0.0002860 3208.58667 3211.28223
3549.0 0.0002818 3208.37476 3211.00000
3527.0 0.0002835 3208.16235 3210.72070
3423.0 0.0002921 3207.95020 3210.44360
3559.0 0.0002810 3207.73755 3210.16870
3478.0 0.0002875 3207.52466 3209.89600
3562.0 0.0002807 3207.31177 3209.62524
3510.0 0.0002849 3207.09863 3209.35669
3526.0 0.0002836 3206.88550 3209.08936
3458.0 0.0002892 3206.67212 3208.82422
3485.0 0.0002869 3206.45825 3208.56055
3351.0 0.0002984 3206.24463 3208.29858
3505.0 0.0002853 3206.03052 3208.03760
3443.0 0.0002904 3205.81616 3207.77856
3511.0 0.0002848 3205.60181 3207.52051
3515.0 0.0002845 3205.38721 3207.26392
3474.0 0.0002879 3205.17261 3207.00854
3479.0 0.0002874 3204.95776 3206.75415
3456.0 0.0002894 3204.74268 3206.50073
3411.0 0.0002932 3204.52734 3206.24854
3467.0 0.0002884 3204.31201 3205.99731
3406.0 0.0002936 3204.09644 3205.74683
3482.0 0.0002872 3203.88062 3205.49756
3478.0 0.0002875 3203.66479 3204.22119
3412.0 0.0002931 3203.44849 3203.99365
3322.0 0.0003010 3203.23218 3203.25269
3437.0 0.0002910 3203.01587 3203.03613
3382.0 0.0002957 3202.79932 3202.81909
3467.0 0.0002884 3202.58228 3202.60205
3449.0 0.0002899 3202.36523 3202.38477
3419.0 0.0002925 3202.14795 3202.16724
3399.0 0.0002942 3201.93066 3201.94971
3331.0 0.0003002 3201.71338 3201.73193
3473.0 0.0002879 3201.49561 3201.51392
3293.0 0.0003037 3201.27783 3201.29590
3406.0 0.0002936 3201.05957 3201.07739
3418.0 0.0002926 3200.84131 3200.85913
3301.0 0.0003029 3200.62305 3200.64038
3456.0 0.0002894 3200.40430 3200.42163
3350.0 0.0002985 3200.18555 3200.20264
3351.0 0.0002984 3199.96655 3199.98340
3414.0 0.0002929 3199.74756 3199.76392
3298.0 0.0003032 3199.52832 3199.54443
3353.0 0.0002982 3199.30884 3199.32471
3446.0 0.0002902 3199.08936 3199.10474
3456.0 0.0002894 3198.86963 3198.88477
3471.0 0.0002881 3198.64941 3198.66455
3389.0 0.0002951 3198.42920 3198.44409
3402.0 0.0002939 3198.20898 3198.22363
3505.0 0.0002853 3197.98853 3198.00293
3473.0 0.0002879 3197.76782 3197.78198
3435.0 0.0002911 3197.54712 3197.56079
3529.0 0.0002834 3197.32593 3197.33960
3450.0 0.0002899 3197.10474 3197.11816
3406.0 0.0002936 3196.88354 3196.89648
3442.0 0.0002905 3196.66187 3196.67456
3459.0 0.0002891 3196.44019 3196.45264
3566.0 0.0002804 3196.21826 3196.23047
3553.0 0.0002815 3195.99634 3196.00830
3506.0 0.0002852 3195.77417 3196.24341
3462.0 0.0002889 3195.55176 3196.03027
3457.0 0.0002893 3195.32935 3195.81714
3551.0 0.0002816 3195.10645 3195.83350
3574.0 0.0002798 3194.88354 3195.62549
3595.0 0.0002782 3194.66040 3195.41772
3511.0 0.0002848 3194.43726 3195.21021
3434.0 0.0002912 3194.21411 3195.00342
3494.0 0.0002862 3193.99023 3194.79663
3649.0 0.0002740 3193.76660 3194.59033
3639.0 0.0002748 3193.54272 3194.38477
3626.0 0.0002758 3193.31860 3194.17944
3593.0 0.0002783 3193.09424 3193.97437
3469.0 0.0002883 3192.86987 3193.77002
3653.0 0.0002737 3192.64526 3193.56641
3593.0 0.0002783 3192.42041 3193.36304
3542.0 0.0002823 3192.19556 3193.16064
3614.0 0.0002767 3191.97046 3192.95898
3588.0 0.0002787 3191.74512 3192.75757
3662.0 0.0002731 3191.51978 3192.55713
3662.0 0.0002731 3191.29419 3192.35742
3659.0 0.0002733 3191.06836 3192.15869
3719.0 0.0002689 3190.84253 3191.96094
3713.0 0.0002693 3190.61646 3191.76392
3682.0 0.0002716 3190.38989 3191.56812
3720.0 0.0002688 3190.16357 3191.37305
3716.0 0.0002691 3189.93701 3191.17944
3703.0 0.0002701 3189.71021 3190.98682
3769.0 0.0002653 3189.48315 3190.79565
3845.0 0.0002601 3189.25610 3190.60571
3853.0 0.0002595 3189.02881 3190.41748
3968.0 0.0002520 3188.80127 3190.23071
3949.0 0.0002532 3188.57373 3190.04565
3987.0 0.0002508 3188.34595 3189.86206
3951.0 0.0002531 3188.11792 3189.68066
3982.0 0.0002511 3187.88989 3189.50146
4040.0 0.0002475 3187.66162 3189.32422
4068.0 0.0002458 3187.43311 3189.14966
4016.0 0.0002490 3187.20459 3188.97705
3973.0 0.0002517 3186.97559 3188.80737
3933.0 0.0002543 3186.74683 3188.64087
3921.0 0.0002550 3186.51782 3188.47705
3853.0 0.0002595 3186.28833 3188.31665
3852.0 0.0002596 3186.05908 3188.15967
3913.0 0.0002556 3185.82935 3188.00684
3635.0 0.0002751 3185.59961 3187.85791
3648.0 0.0002741 3185.36987 3187.71338
3547.0 0.0002819 3185.13965 3187.57397
3593.0 0.0002783 3184.90918 3187.43945
3569.0 0.0002802 3184.67871 3187.31055
3439.0 0.0002908 3184.44849 3187.18823
3379.0 0.0002959 3184.21753 3187.07202
3514.0 0.0002846 3183.98657 3186.96289
3433.0 0.0002913 3183.75537 3186.86230
3307.0 0.0003024 3183.52417 3186.77002
3494.0 0.0002862 3183.29297 3186.68677
3362.0 0.0002974 3183.06128 3186.61401
3268.0 0.0003060 3182.82959 3186.55273
3339.0 0.0002995 3182.59766 3186.50366
3338.0 0.0002996 3182.36572 3186.46826
3409.0 0.0002933 3182.13330 3186.44800
3305.0 0.0003026 3181.90112 3186.44434
3291.0 0.0003039 3181.66846 3186.45898
3358.0 0.0002978 3181.43555 3186.49463
3380.0 0.0002959 3181.20288 3186.55322
3356.0 0.0002980 3180.96973 3186.63721
3299.0 0.0003031 3180.73682 3186.75000
3282.0 0.0003047 3180.50342 3186.89551
3227.0 0.0003099 3180.26978 3187.07764
3278.0 0.0003051 3180.03613 3187.30127
3204.0 0.0003121 3179.80225 3187.57251
3311.0 0.0003020 3179.56812 3187.89771
3197.0 0.0003128 3179.33398 3188.28564
3183.0 0.0003142 3179.09961 3188.74512
3259.0 0.0003068 3178.86548 3189.28784
3133.0 0.0003192 3178.63062 3189.92773
3257.0 0.0003070 3178.39575 3190.68140
3082.0 0.0003245 3178.16089 3191.57007
3255.0 0.0003072 3177.92578 3192.61865
3175.0 0.0003150 3177.69019 3193.85962
3194.0 0.0003131 3177.45483 3195.33203
3159.0 0.0003166 3177.21924 3197.08643
3191.0 0.0003134 3176.98364 3199.18945
3240.0 0.0003086 3176.74756 3201.72607
3283.0 0.0003046 3176.51147 3204.81323
3145.0 0.0003180 3176.27539 3208.62305
3285.0 0.0003044 3176.03906 3213.44409
3317.0 0.0003015 3175.80249 3219.82373
3211.0 0.0003114 3175.56567 3228.91943
3284.0 0.0003045 3175.32886 3243.16479
3329.0 0.0003004 3175.09180 3267.30591
3285.0 0.0003044 3174.85474 3309.51538
3498.0 0.0002859 3174.61719 3381.71631
3537.0 0.0002827 3174.37964 3497.67676
3550.0 0.0002817 3174.14209 3668.01099
3591.0 0.0002785 3173.90430 3892.67700
3749.0 0.0002667 3173.66626 4152.65771
3906.0 0.0002560 3173.42798 4402.94629
3976.0 0.0002515 3173.18994 4576.94434
4021.0 0.0002487 3172.95142 4623.03320
4065.0 0.0002460 3172.71289 4541.37402
3931.0 0.0002544 3172.47412 4362.92383
3850.0 0.0002597 3172.23535 4127.42236
3592.0 0.0002784 3171.99609 3883.09985
3616.0 0.0002765 3171.75684 3669.41406
3434.0 0.0002912 3171.51758 3504.45288
3354.0 0.0002982 3171.27783 3388.89722
3207.0 0.0003118 3171.03833 3314.14111
3093.0 0.0003233 3170.79834 3268.56470
3222.0 0.0003104 3170.55835 3241.55591
3158.0 0.0003167 3170.31812 3225.30542
3121.0 0.0003204 3170.07788 3214.91821
3125.0 0.0003200 3169.83740 3207.67578
3279.0 0.0003050 3169.59692 3202.20386
3161.0 0.0003164 3169.35596 3197.83301
3175.0 0.0003150 3169.11499 3194.22314
3109.0 0.0003216 3168.87402 3191.17993
3047.0 0.0003282 3168.63281 3188.57837
3126.0 0.0003199 3168.39136 3186.33008
3140.0 0.0003185 3168.14990 3184.36841
3058.0 0.0003270 3167.90820 3182.64014
3074.0 0.0003253 3167.66626 3181.10596
3179.0 0.0003146 3167.42432 3179.73389
3122.0 0.0003203 3167.18213 3178.49731
3144.0 0.0003181 3166.93994 3177.37549
3056.0 0.0003272 3166.69751 3176.35181
3160.0 0.0003165 3166.45483 3175.41211
3123.0 0.0003202 3166.21216 3174.54492
3075.0 0.0003252 3165.96924 3173.73999
3037.0 0.0003293 3165.72632 3172.98950
3146.0 0.0003179 3165.48267 3172.28638
3072.0 0.0003255 3165.23950 3171.62549
3049.0 0.0003280 3164.99585 3171.00171
3061.0 0.0003267 3164.75220 3170.41040
3103.0 0.0003223 3164.50854 3169.84790
3052.0 0.0003277 3164.26440 3169.31128
3095.0 0.0003231 3164.02026 3168.79785
3082.0 0.0003245 3163.77612 3168.30493
3129.0 0.0003196 3163.53174 3167.83057
3135.0 0.0003190 3163.28711 3167.37305
3019.0 0.0003312 3163.04248 3166.93066
3126.0 0.0003199 3162.79761 3166.50195
3043.0 0.0003286 3162.55249 3166.08569
3115.0 0.0003210 3162.30737 3165.68091
3035.0 0.0003295 3162.06201 3165.28638
3158.0 0.0003167 3161.81665 3164.90088
3084.0 0.0003243 3161.57080 3164.52441
3096.0 0.0003230 3161.32520 3164.15576
3150.0 0.0003175 3161.07910 3163.79419
3111.0 0.0003214 3160.83325 3163.43970
3027.0 0.0003304 3160.58691 3163.09131
3092.0 0.0003234 3160.34058 3162.74805
3138.0 0.0003187 3160.09399 3162.41040
3111.0 0.0003214 3159.84717 3162.07739
3113.0 0.0003212 3159.60059 3161.74927
3143.0 0.0003182 3159.35376 3161.42480
3061.0 0.0003267 3159.10645 3161.10449
3055.0 0.0003273 3158.85913 3160.78760
3136.0 0.0003189 3158.61182 3160.47412
3063.0 0.0003265 3158.36426 3160.16406
3089.0 0.0003237 3158.11670 3159.85669
3031.0 0.0003299 3157.86865 3159.55176
3053.0 0.0003275 3157.62061 3159.24951
2997.0 0.0003337 3157.37256 3158.94971
3002.0 0.0003331 3157.12427 3158.65186
3038.0 0.0003292 3156.87573 3158.35645
3049.0 0.0003280 3156.62744 3158.06250
3007.0 0.0003326 3156.37842 3157.77075
3062.0 0.0003266 3156.12988 3157.48071
3025.0 0.0003306 3155.88062 3157.19238
3061.0 0.0003267 3155.63159 3156.90503
3050.0 0.0003279 3155.38208 3156.61938
3064.0 0.0003264 3155.13281 3156.33496
2980.0 0.0003356 3154.88306 3156.05200
3046.0 0.0003283 3154.63330 3155.77002
3027.0 0.0003304 3154.38354 3155.48926
2984.0 0.0003351 3154.13354 3155.20947
3116.0 0.0003209 3153.88330 3154.93066
3016.0 0.0003316 3153.63306 3154.65308
2984.0 0.0003351 3153.38257 3154.37573
3047.0 0.0003282 3153.13208 3154.09985
2962.0 0.0003376 3152.88135 3153.82422
2977.0 0.0003359 3152.63037 3153.54956
2990.0 0.0003344 3152.37915 3153.27539
3019.0 0.0003312 3152.12817 3153.00220
3007.0 0.0003326 3151.87671 3152.72974
2982.0 0.0003353 3151.62524 3152.45752
3016.0 0.0003316 3151.37378 3152.18604
2989.0 0.0003346 3151.12207 3151.91479
3066.0 0.0003262 3150.87012 3151.64429
2930.0 0.0003413 3150.61816 3151.37427
2962.0 0.0003376 3150.36597 3151.10449
3049.0 0.0003280 3150.11377 3150.83521
3021.0 0.0003310 3149.86108 3150.56616
3021.0 0.0003310 3149.60864 3150.29785
3042.0 0.0003287 3149.35571 3150.02954
3001.0 0.0003332 3149.10303 3149.30249
3060.0 0.0003268 3148.84985 3149.04395
3050.0 0.0003279 3148.59692 3148.78564
3015.0 0.0003317 3148.34375 3148.29956
2977.0 0.0003359 3148.09009 3148.04590
2988.0 0.0003347 3147.83643 3147.79199
2963.0 0.0003375 3147.58276 3147.53809
3020.0 0.0003311 3147.32886 3147.28394
2992.0 0.0003342 3147.07495 3147.02954
2979.0 0.0003357 3146.82080 3146.77515
2996.0 0.0003338 3146.56665 3146.52051
3049.0 0.0003280 3146.31201 3146.26587
2885.0 0.0003466 3146.05762 3146.01099
3067.0 0.0003261 3145.80273 3145.75586
3001.0 0.0003332 3145.54810 3145.50073
2922.0 0.0003422 3145.29297 3145.24561
2987.0 0.0003348 3145.03784 3144.99023
2995.0 0.0003339 3144.78271 3144.73462
3124.0 0.0003201 3144.52734 3144.47900
3023.0 0.0003308 3144.27173 3144.22314
3162.0 0.0003163 3144.01611 3143.96729
3118.0 0.0003207 3143.76025 3143.71094
3151.0 0.0003174 3143.50439 3143.45483
3229.0 0.0003097 3143.24829 3143.19849
3216.0 0.0003109 3142.99219 3142.94189
3277.0 0.0003052 3142.73584 3142.68530
3186.0 0.0003139 3142.47925 3142.42847
3027.0 0.0003304 3142.22266 3142.17163
3112.0 0.0003213 3141.96582 3141.91455
2988.0 0.0003347 3141.70898 3141.65723
3021.0 0.0003310 3141.45215 3141.39990
3059.0 0.0003269 3141.19482 3141.14258
3021.0 0.0003310 3140.93750 3140.88501
2999.0 0.0003334 3140.68018 3140.62720
3050.0 0.0003279 3140.42261 3140.36938
3049.0 0.0003280 3140.16479 3140.11133
2988.0 0.0003347 3139.90698 3139.85303
2930.0 0.0003413 3139.64893 3139.59497
3029.0 0.0003301 3139.39087 3139.33643
3036.0 0.0003294 3139.13281 3139.07788
2947.0 0.0003393 3138.87427 3138.81934
2946.0 0.0003394 3138.61572 3176.24170
2912.0 0.0003434 3138.35693 3176.64722
3069.0 0.0003258 3138.09839 3177.06982
2926.0 0.0003418 3137.83936 3177.51074
2973.0 0.0003364 3137.58032 3196.93945
2929.0 0.0003414 3137.32129 3197.75464
2891.0 0.0003459 3137.06177 3198.59912
2958.0 0.0003381 3136.80225 3199.47437
3029.0 0.0003301 3136.54297 3200.38110
3005.0 0.0003328 3136.28320 3201.32031
2924.0 0.0003420 3136.02344 3202.29370
2883.0 0.0003469 3135.76343 3203.30200
3007.0 0.0003326 3135.50317 3204.34741
2971.0 0.0003366 3135.24292 3205.43018
3035.0 0.0003295 3134.98242 3206.55273
2958.0 0.0003381 3134.72217 3207.71680
3033.0 0.0003297 3134.46167 3208.92358
3001.0 0.0003332 3134.20068 3210.17456
2952.0 0.0003388 3133.93970 3211.47241
3060.0 0.0003268 3133.67896 3212.81787
3035.0 0.0003295 3133.41772 3214.21387
3021.0 0.0003310 3133.15625 3215.66235
3033.0 0.0003297 3132.89478 3217.16577
3104.0 0.0003222 3132.63330 3218.72607
3036.0 0.0003294 3132.37158 3220.34595
3153.0 0.0003172 3132.10986 3222.02808
3113.0 0.0003212 3131.84790 3223.77515
3060.0 0.0003268 3131.58569 3225.58984
2988.0 0.0003347 3131.32373 3227.47607
2995.0 0.0003339 3131.06104 3229.43628
3005.0 0.0003328 3130.79883 3231.47412
2930.0 0.0003413 3130.53613 3233.59351
3082.0 0.0003245 3130.27344 3235.79858
2922.0 0.0003422 3130.01074 3238.09302
3059.0 0.0003269 3129.74780 3240.48120
2965.0 0.0003373 3129.48462 3242.96802
3055.0 0.0003273 3129.22144 3245.55859
3010.0 0.0003322 3128.95801 3248.25781
2975.0 0.0003361 3128.69458 3251.07153
2995.0 0.0003339 3128.43066 3254.00562
3007.0 0.0003326 3128.16724 3257.06616
2895.0 0.0003454 3127.90332 3260.86157
2968.0 0.0003369 3127.63940 3264.20630
3040.0 0.0003289 3127.37524 3267.69971
2960.0 0.0003378 3127.11084 3271.34985
3038.0 0.0003292 3126.84668 3275.46753
2981.0 0.0003355 3126.58203 3279.46460
2921.0 0.0003423 3126.31738 3283.64697
3067.0 0.0003261 3126.05273 3288.02588
2997.0 0.0003337 3125.78784 3292.61475
3025.0 0.0003306 3125.52295 3297.42383
3116.0 0.0003209 3125.25781 3302.46753
2926.0 0.0003418 3124.99243 3307.76245
3010.0 0.0003322 3124.72705 3313.32300
2960.0 0.0003378 3124.46167 3319.16577
2966.0 0.0003372 3124.19604 3325.31055
3106.0 0.0003220 3123.93018 3331.77832
2976.0 0.0003360 3123.66431 3338.58911
3079.0 0.0003248 3123.39819 3345.76660
3138.0 0.0003187 3123.13208 3353.33960
3005.0 0.0003328 3122.86597 3361.33374
3216.0 0.0003109 3122.59961 3369.78003
3165.0 0.0003160 3122.33325 3378.71313
3110.0 0.0003215 3122.06641 3388.17163
3179.0 0.0003146 3121.79980 3398.19141
3243.0 0.0003084 3121.53296 3408.82007
3384.0 0.0002955 3121.26587 3420.10718
3393.0 0.0002947 3120.99878 3432.10571
3543.0 0.0002822 3120.73145 3444.87378
3637.0 0.0002750 3120.46411 3458.47949
3824.0 0.0002615 3120.19653 3472.99634
3729.0 0.0002682 3119.92920 3488.50220
3632.0 0.0002753 3119.66138 3505.09033
3740.0 0.0002674 3119.39355 3522.86401
3686.0 0.0002713 3119.12573 3541.93408
3664.0 0.0002729 3118.85742 3562.42578
3746.0 0.0002670 3118.58936 3584.48682
3763.0 0.0002657 3118.32080 3608.27686
3769.0 0.0002653 3118.05249 3633.97607
3685.0 0.0002714 3117.78394 3661.79395
3799.0 0.0002632 3117.51538 3691.97144
3774.0 0.0002650 3117.24634 3724.77661
3877.0 0.0002579 3116.97754 3760.51538
3856.0 0.0002593 3116.70850 3799.55371
3902.0 0.0002563 3116.43945 3842.30200
3994.0 0.0002504 3116.17017 3889.23486
4012.0 0.0002493 3115.90088 3940.91943
4146.0 0.0002412 3115.63110 3998.02588
4233.0 0.0002362 3115.36133 4061.30322
4366.0 0.0002290 3115.09180 4131.68359
4400.0 0.0002273 3114.82178 4210.27148
4717.0 0.0002120 3114.55176 4298.37402
4933.0 0.0002027 3114.28174 4397.56348
4860.0 0.0002058 3114.01147 4509.78027
4933.0 0.0002027 3113.74121 4637.42041
4952.0 0.0002019 3113.47070 4783.34424
5077.0 0.0001970 3113.19995 4951.22266
5312.0 0.0001883 3112.92944 5145.66797
5787.0 0.0001728 3112.65845 5372.50098
6005.0 0.0001665 3112.38770 5639.22998
6429.0 0.0001555 3112.11670 5955.82373
6855.0 0.0001459 3111.84546 6336.00488
7544.0 0.0001326 3111.57422 6799.58594
8050.0 0.0001242 3111.30273 7379.15283
8856.0 0.0001129 3111.03125 8133.62598
10109.0 0.0000989 3110.75952 9176.01953
12184.0 0.0000821 3110.48779 10721.16699
15547.0 0.0000643 3110.21582 13149.59668
19730.0 0.0000507 3109.94385 17056.65430
26121.0 0.0000383 3109.67188 23231.63477
34059.0 0.0000294 3109.39966 32502.67773
43154.0 0.0000232 3109.12744 45418.25000
54831.0 0.0000182 3108.85498 61786.96094
69062.0 0.0000145 3108.58228 80077.00000
87894.0 0.0000114 3108.30981 96771.03125
107041.0 9.34e-6 3108.03687 106992.94531
117205.0 8.53e-6 3107.76416 108157.12500
114894.0 8.70e-6 3107.49097 101953.85938
98602.0 0.0000101 3107.21777 90848.47656
79335.0 0.0000126 3106.94458 76252.96875
62793.0 0.0000159 3106.67114 60238.03516
47337.0 0.0000211 3106.39795 45390.25391
31737.0 0.0000315 3106.12427 33277.78906
19790.0 0.0000505 3105.85059 24248.60156
13936.0 0.0000718 3105.57690 17958.34961
11031.0 0.0000907 3105.30273 13793.02930
9575.0 0.0001044 3105.02881 11115.72363
8492.0 0.0001178 3104.75464 9392.99512
7477.0 0.0001337 3104.48047 8246.05176
7090.0 0.0001410 3104.20581 7437.51367
6483.0 0.0001542 3103.93164 6831.87207
5833.0 0.0001714 3103.65698 6355.62988
5702.0 0.0001754 3103.38232 5968.73193
5174.0 0.0001933 3103.10767 5648.09424
4928.0 0.0002029 3102.83252 5378.65771
4844.0 0.0002064 3102.55762 5149.90527
4745.0 0.0002107 3102.28247 4954.07178
4591.0 0.0002178 3102.00708 4785.19385
4365.0 0.0002291 3101.73193 4638.56934
4327.0 0.0002311 3101.45630 4510.46631
4172.0 0.0002397 3101.18091 4397.98633
4093.0 0.0002443 3100.90503 4298.70508
4075.0 0.0002454 3100.62915 4210.66797
3910.0 0.0002558 3100.35327 4132.29150
3869.0 0.0002585 3100.07739 4062.26929
3848.0 0.0002599 3099.80127 3999.49023
3788.0 0.0002640 3099.52515 3943.05298
3690.0 0.0002710 3099.24878 3892.20093
3573.0 0.0002799 3098.97217 3846.28540
3541.0 0.0002824 3098.69580 3804.76416
3620.0 0.0002762 3098.41895 3767.19189
3647.0 0.0002742 3098.14209 3733.19434
3442.0 0.0002905 3097.86523 3702.45239
3531.0 0.0002832 3097.58862 3674.71655
3445.0 0.0002903 3097.31128 3649.79102
3499.0 0.0002858 3097.03418 3627.52783
3512.0 0.0002847 3096.75684 3607.83130
3489.0 0.0002866 3096.47949 3590.67310
3553.0 0.0002815 3096.20190 3576.09058
3477.0 0.0002876 3095.92432 3564.20776
3464.0 0.0002887 3095.64648 3555.29395
3485.0 0.0002869 3095.36865 3549.86548
3470.0 0.0002882 3095.09106 3548.92969
3505.0 0.0002853 3094.81274 3554.45581
3470.0 0.0002882 3094.53467 3570.15308
3499.0 0.0002858 3094.25635 3602.48071
3679.0 0.0002718 3093.97803 3661.44092
3646.0 0.0002743 3093.69946 3760.25049
3907.0 0.0002560 3093.42114 3912.94458
4027.0 0.0002483 3093.14233 4129.51709
4114.0 0.0002431 3092.86353 4408.69971
4594.0 0.0002177 3092.58472 4727.36914
4635.0 0.0002157 3092.30566 5028.05859
4944.0 0.0002023 3092.02661 5224.12695
5158.0 0.0001939 3091.74756 5259.85547
5095.0 0.0001963 3091.46802 5159.62158
4878.0 0.0002050 3091.18896 4972.44531
4637.0 0.0002157 3090.90942 4721.56201
4338.0 0.0002305 3090.62964 4433.10107
4118.0 0.0002428 3090.34985 4151.29395
3834.0 0.0002608 3090.07007 3910.77661
3666.0 0.0002728 3089.79028 3723.75098
3468.0 0.0002884 3089.51025 3587.42749
3321.0 0.0003011 3089.22998 3492.44604
3340.0 0.0002994 3088.94995 3427.89771
3317.0 0.0003015 3088.66943 3383.94727
3325.0 0.0003008 3088.38916 3353.06494
3271.0 0.0003057 3088.10864 3330.18896
3272.0 0.0003056 3087.82813 3312.25024
3283.0 0.0003046 3087.54736 3297.49878
3193.0 0.0003132 3087.26660 3284.95361
3226.0 0.0003100 3086.98584 3274.04712
3169.0 0.0003156 3086.70459 3264.42163
3247.0 0.0003080 3086.42358 3255.82861
3173.0 0.0003152 3086.14209 3248.08350
3168.0 0.0003157 3085.86108 3241.05151
3135.0 0.0003190 3085.57959 3234.61963
3189.0 0.0003136 3085.29810 3228.70093
2976.0 0.0003360 3085.01660 3223.22461
3126.0 0.0003199 3084.73486 3218.13379
3088.0 0.0003238 3084.45313 3213.38062
3156.0 0.0003169 3084.17090 3208.93091
3055.0 0.0003273 3083.88892 3204.74023
3133.0 0.0003192 3083.60693 3200.78564
3143.0 0.0003182 3083.32471 3197.04321
3074.0 0.0003253 3083.04248 3193.49658
3156.0 0.0003169 3082.76001 3190.12109
3184.0 0.0003141 3082.47778 3186.90381
3091.0 0.0003235 3082.19507 3183.83179
3177.0 0.0003148 3081.91235 3180.89380
3076.0 0.0003251 3081.62964 3178.07959
3097.0 0.0003229 3081.34668 3175.37793
2984.0 0.0003351 3081.06348 3172.78271
3015.0 0.0003317 3080.78052 3170.28564
3081.0 0.0003246 3080.49731 3167.89600
3054.0 0.0003274 3080.21411 3165.57593
3058.0 0.0003270 3079.93091 3163.33667
2979.0 0.0003357 3079.64746 3161.17285
2919.0 0.0003426 3079.36401 3159.08667
3064.0 0.0003264 3079.08032 3157.05957
3020.0 0.0003311 3078.79663 3155.09595
3022.0 0.0003309 3078.51270 3153.19189
3042.0 0.0003287 3078.22876 3151.34302
3184.0 0.0003141 3077.94482 3149.54834
3103.0 0.0003223 3077.66064 3147.80396
3034.0 0.0003296 3077.37646 3146.10742
3091.0 0.0003235 3077.09204 3144.45605
3121.0 0.0003204 3076.80762 3142.84912
3095.0 0.0003231 3076.52319 3141.28296
2971.0 0.0003366 3076.23877 3101.58911
3001.0 0.0003332 3075.95410 3100.76025
2923.0 0.0003421 3075.66943 3099.95044
3052.0 0.0003277 3075.38452 3099.15820
3066.0 0.0003262 3075.09937 3079.55957
3055.0 0.0003273 3074.81445 3079.12500
3078.0 0.0003249 3074.52930 3078.69751
3043.0 0.0003286 3074.24390 3078.27710
3033.0 0.0003297 3073.95874 3077.86304
3148.0 0.0003177 3073.67334 3077.45483
3037.0 0.0003293 3073.38794 3077.05225
3045.0 0.0003284 3073.10229 3076.65503
3105.0 0.0003221 3072.81665 3076.26245
3080.0 0.0003247 3072.53076 3075.87476
3190.0 0.0003135 3072.24512 3075.49170
3152.0 0.0003173 3071.95898 3075.11279
2881.0 0.0003471 3071.67310 3074.73804
2970.0 0.0003367 3071.38672 3074.36597
2973.0 0.0003364 3071.10059 3073.99805
2943.0 0.0003398 3070.81421 3073.63379
2938.0 0.0003404 3070.52783 3073.27197
2928.0 0.0003415 3070.24146 3072.91357
3046.0 0.0003283 3069.95483 3072.55786
2961.0 0.0003377 3069.66821 3072.20459
2976.0 0.0003360 3069.38135 3071.85400
2961.0 0.0003377 3069.09473 3071.50610
2993.0 0.0003341 3068.80762 3071.16064
2986.0 0.0003349 3068.52075 3070.81738
2972.0 0.0003365 3068.23340 3070.47607
2914.0 0.0003432 3067.94629 3070.13672
2861.0 0.0003495 3067.65894 3069.79883
2977.0 0.0003359 3067.37183 3069.46338
2989.0 0.0003346 3067.08447 3069.12939
2948.0 0.0003392 3066.79688 3068.79761
2908.0 0.0003439 3066.50928 3068.46655
3000.0 0.0003333 3066.22144 3068.13770
2854.0 0.0003504 3065.93384 3067.81055
2911.0 0.0003435 3065.64575 3067.48438
3033.0 0.0003297 3065.35791 3067.15967
2833.0 0.000353 3065.06982 3066.83643
3023.0 0.0003308 3064.78174 3066.51489
2906.0 0.0003441 3064.49341 3066.19409
2894.0 0.0003455 3064.20508 3065.87451
2824.0 0.000354 3063.91675 3065.55664
2871.0 0.0003483 3063.62817 3065.23975
2889.0 0.0003461 3063.33960 3064.92334
2919.0 0.0003426 3063.05103 3064.60889
2897.0 0.0003452 3062.76245 3064.29565
2907.0 0.0003440 3062.47363 3063.98267
2910.0 0.0003436 3062.18481 3063.67139
2785.0 0.000359 3061.89575 3063.36108
2987.0 0.0003348 3061.60645 3063.05200
2940.0 0.0003401 3061.31738 3062.74390
2926.0 0.0003418 3061.02832 3062.43677
2796.0 0.000358 3060.73877 3062.13110
2921.0 0.0003423 3060.44922 3061.82642
2928.0 0.0003415 3060.15991 3061.52271
2882.0 0.0003470 3059.87061 3061.22070
2854.0 0.0003504 3059.58081 3060.91943
3000.0 0.0003333 3059.29102 3060.61938
3008.0 0.0003324 3059.00122 3060.32104
2858.0 0.0003499 3058.71143 3060.02393
2915.0 0.0003431 3058.42139 3059.72803
2966.0 0.0003372 3058.13135 3059.43433
2913.0 0.0003433 3057.84131 3059.14233
2865.0 0.0003490 3057.55103 3058.85132
2961.0 0.0003377 3057.26074 3058.56250
2825.0 0.000354 3056.97046 3058.27637
2898.0 0.0003451 3056.67993 3057.99146
2833.0 0.000353 3056.38940 3057.70972
2899.0 0.0003449 3056.09888 3057.43115
2969.0 0.0003368 3055.80811 3057.15479
2931.0 0.0003412 3055.51758 3056.88330
2912.0 0.0003434 3055.22656 3056.61426
2791.0 0.000358 3054.93579 3056.35010
2910.0 0.0003436 3054.64478 3056.09106
2896.0 0.0003453 3054.35352 3055.23657
2852.0 0.0003506 3054.06250 3054.99878
2902.0 0.0003446 3053.77124 3054.76880
2777.0 0.000360 3053.47998 3054.54785
2774.0 0.000360 3053.18848 3054.03979
2843.0 0.000352 3052.89697 3053.84668
2857.0 0.0003500 3052.60547 3053.66919
2861.0 0.0003495 3052.31372 3053.50977
2905.0 0.0003442 3052.02197 3053.37329
2854.0 0.0003504 3051.73047 3053.26587
2867.0 0.0003488 3051.43848 3053.19434
2897.0 0.0003452 3051.14673 3053.17041
2953.0 0.0003386 3050.85449 3053.21118
3018.0 0.0003313 3050.56250 3053.34717
2992.0 0.0003342 3050.27051 3053.63794
2931.0 0.0003412 3049.97803 3054.20361
3098.0 0.0003228 3049.68579 3055.26270
2896.0 0.0003453 3049.39355 3057.16895
2927.0 0.0003416 3049.10107 3060.39526
2926.0 0.0003418 3048.80859 3065.41650
2893.0 0.0003457 3048.51587 3072.48804
2944.0 0.0003397 3048.22314 3081.33203
2877.0 0.0003476 3047.93042 3090.72070
3007.0 0.0003326 3047.63770 3098.27051
2895.0 0.0003454 3047.34473 3101.90820
2880.0 0.0003472 3047.05176 3102.24390
2912.0 0.0003434 3046.75879 3101.14526
2820.0 0.000355 3046.46558 3098.91968
2839.0 0.000352 3046.17261 3094.60352
2850.0 0.000351 3045.87915 3088.16553
2937.0 0.0003405 3045.58569 3080.94434
2853.0 0.0003505 3045.29248 3074.21436
2854.0 0.0003504 3044.99902 3068.34131
2842.0 0.000352 3044.70532 3063.15723
2829.0 0.000353 3044.41187 3058.62256
2808.0 0.000356 3044.11816 3054.85938
2904.0 0.0003444 3043.82446 3051.88818
2903.0 0.0003445 3043.53052 3049.61108
2899.0 0.0003449 3043.23657 3047.88867
2833.0 0.000353 3042.94263 3046.58374
2777.0 0.000360 3042.64844 3045.57715
2790.0 0.000358 3042.35449 3044.77319
2915.0 0.0003431 3042.06030 3044.10327
2825.0 0.000354 3041.76611 3043.52051
2902.0 0.0003446 3041.47168 3042.99634
2932.0 0.0003411 3041.17725 3042.51392
2858.0 0.0003499 3040.88281 3042.06201
2897.0 0.0003452 3040.58838 3041.63403
2842.0 0.000352 3040.29370 3041.22461
2892.0 0.0003458 3039.99902 3040.83105
2755.0 0.000363 3039.70435 3040.44971
2752.0 0.000363 3039.40942 3040.07983
2852.0 0.0003506 3039.11450 3039.71826
2930.0 0.0003413 3038.81958 3039.36426
2862.0 0.0003494 3038.52466 3039.01660
2802.0 0.000357 3038.22949 3038.67456
2814.0 0.000355 3037.93433 3038.33716
2728.0 0.000367 3037.63940 3038.00391
2857.0 0.0003500 3037.34375 3037.67407
2796.0 0.000358 3037.04858 3037.34741
2860.0 0.0003497 3036.75317 3037.02368
2730.0 0.000366 3036.45752 3036.70215
2875.0 0.0003478 3036.16211 3036.38232
2843.0 0.000352 3035.86646 3036.06494
2828.0 0.000354 3035.57080 3035.74878
2834.0 0.000353 3035.27515 3035.43481
2846.0 0.000351 3034.97925 3035.12134
2747.0 0.000364 3034.68335 3034.80933
2879.0 0.0003473 3034.38770 3034.49854
2866.0 0.0003489 3034.09155 3034.18896
2813.0 0.000355 3033.79541 3033.87964
2700.0 0.000370 3033.49927 3033.57178
2816.0 0.000355 3033.20313 3033.26392
2765.0 0.000362 3032.90674 3032.95703
2768.0 0.000361 3032.61060 3032.65088
2781.0 0.000360 3032.31421 3032.34521
2778.0 0.000360 3032.01782 3032.03979
2768.0 0.000361 3031.72119 3031.73486
2807.0 0.000356 3031.42480 3031.43066
2703.0 0.000370 3031.12793 3031.12646
2801.0 0.000357 3030.83130 3030.82275
2856.0 0.0003501 3030.53467 3030.51929
2848.0 0.000351 3030.23779 3030.21631
2813.0 0.000355 3029.94067 3030.24780
2856.0 0.0003501 3029.64380 3029.94995
2760.0 0.000362 3029.34692 3029.65332
2773.0 0.000361 3029.04956 3029.35620
2772.0 0.000361 3028.75244 3029.05981
2787.0 0.000359 3028.45532 3028.93140
2867.0 0.0003488 3028.15820 3028.63794
2773.0 0.000361 3027.86084 3028.34497
2762.0 0.000362 3027.56348 3028.05176
2649.0 0.000378 3027.26587 3027.75952
2831.0 0.000353 3026.96851 3027.46753
2729.0 0.000366 3026.67090 3027.17554
2864.0 0.0003492 3026.37354 3026.88403
2795.0 0.000358 3026.07568 3026.59253
2769.0 0.000361 3025.77808 3026.30200
2760.0 0.000362 3025.48022 3026.01147
2768.0 0.000361 3025.18213 3025.72144
2730.0 0.000366 3024.88452 3025.43115
2860.0 0.0003497 3024.58643 3025.14185
2799.0 0.000357 3024.28833 3024.85254
2809.0 0.000356 3023.99048 3024.56372
2713.0 0.000369 3023.69214 3024.27490
2711.0 0.000369 3023.39404 3023.98633
2828.0 0.000354 3023.09595 3023.69849
2829.0 0.000353 3022.79736 3023.41113
2728.0 0.000367 3022.49902 3023.12402
2784.0 0.000359 3022.20093 3022.83740
2770.0 0.000361 3021.90210 3022.55078
2800.0 0.000357 3021.60352 3022.26514
2723.0 0.000367 3021.30518 3021.97949
2662.0 0.000376 3021.00635 3021.69434
2769.0 0.000361 3020.70752 3021.40967
2732.0 0.000366 3020.40894 3021.12524
2677.0 0.000374 3020.11011 3020.84180
2668.0 0.000375 3019.81128 3020.55859
2703.0 0.000370 3019.51245 3020.27588
2811.0 0.000356 3019.21338 3019.99414
2754.0 0.000363 3018.91431 3019.71216
2772.0 0.000361 3018.61523 3019.43115
2669.0 0.000375 3018.31616 3019.15088
2670.0 0.000375 3018.01685 3018.87109
2776.0 0.000360 3017.71777 3018.59229
2791.0 0.000358 3017.41846 3018.31348
2829.0 0.000353 3017.11914 3018.03564
2756.0 0.000363 3016.81958 3017.75903
2773.0 0.000361 3016.52002 3017.48267
2748.0 0.000364 3016.22046 3017.20728
2712.0 0.000369 3015.92114 3016.93311
2782.0 0.000359 3015.62158 3016.65942
2859.0 0.0003498 3015.32178 3016.38696
2734.0 0.000366 3015.02222 3016.11499
2708.0 0.000369 3014.72241 3015.84448
2764.0 0.000362 3014.42261 3015.57520
2780.0 0.000360 3014.12256 3015.30664
2718.0 0.000368 3013.82251 3015.03955
2885.0 0.0003466 3013.52271 3014.77344
2762.0 0.000362 3013.22266 3014.50879
2844.0 0.000352 3012.92261 3014.24561
2812.0 0.000356 3012.62256 3013.98340
2853.0 0.0003505 3012.32227 3013.72363
2799.0 0.000357 3012.02197 3013.46509
2896.0 0.0003453 3011.72168 3013.20850
2852.0 0.0003506 3011.42139 3013.87793
2911.0 0.0003435 3011.12109 3013.64160
2948.0 0.0003392 3010.82080 3013.40698
3097.0 0.0003229 3010.52002 3013.17578
3193.0 0.0003132 3010.21973 3012.94702
3305.0 0.0003026 3009.91919 3013.18506
3299.0 0.0003031 3009.61841 3012.97021
3316.0 0.0003016 3009.31763 3012.75977
3128.0 0.0003197 3009.01709 3012.55151
3088.0 0.0003238 3008.71631 3012.34839
3208.0 0.0003117 3008.41528 3012.14941
3025.0 0.0003306 3008.11475 3011.95459
2887.0 0.0003464 3007.81396 3011.76465
2840.0 0.000352 3007.51294 3011.57886
2766.0 0.000362 3007.21191 3011.39917
2859.0 0.0003498 3006.91089 3011.21826
2744.0 0.000364 3006.60962 3011.04956
2890.0 0.0003460 3006.30835 3010.88843
2847.0 0.000351 3006.00732 3010.73389
2873.0 0.0003481 3005.70605 3010.56714
2824.0 0.000354 3005.40503 3010.42773
2791.0 0.000358 3005.10376 3010.29712
2771.0 0.000361 3004.80225 3010.17578
2808.0 0.000356 3004.50073 3010.06396
2783.0 0.000359 3004.19922 3009.96313
2802.0 0.000357 3003.89795 3009.87354
2785.0 0.000359 3003.59644 3009.79614
2770.0 0.000361 3003.29492 3009.73242
2700.0 0.000370 3002.99316 3009.68335
2838.0 0.000352 3002.69141 3009.65088
2863.0 0.0003493 3002.38989 3009.63452
2793.0 0.000358 3002.08789 3009.63818
2732.0 0.000366 3001.78638 3009.66235
2717.0 0.000368 3001.48462 3009.70947
2716.0 0.000368 3001.18262 3009.78149
2613.0 0.000383 3000.88062 3009.88135
2799.0 0.000357 3000.57861 3010.01245
2794.0 0.000358 3000.27661 3010.17773
2745.0 0.000364 2999.97461 3010.38135
2716.0 0.000368 2999.67261 3010.62695
2705.0 0.000370 2999.37036 3010.92114
2649.0 0.000378 2999.06836 3011.26880
2740.0 0.000365 2998.76611 3011.67749
2748.0 0.000364 2998.46387 3012.15527
2789.0 0.000359 2998.16138 3012.71240
2693.0 0.000371 2997.85913 3013.35962
2707.0 0.000369 2997.55664 3014.11108
2775.0 0.000360 2997.25439 3014.98315
2775.0 0.000360 2996.95190 3015.99585
2667.0 0.000375 2996.64941 3017.17358
2849.0 0.000351 2996.34692 3018.54614
2749.0 0.000364 2996.04443 3020.15039
2814.0 0.000355 2995.74170 3022.03247
2783.0 0.000359 2995.43921 3024.25049
2914.0 0.0003432 2995.13647 3026.87988
2765.0 0.000362 2994.83374 3030.01758
2775.0 0.000360 2994.53076 3033.78955
2761.0 0.000362 2994.22803 3038.37183
2829.0 0.000353 2993.92529 3044.01367
2887.0 0.0003464 2993.62231 3051.10840
2753.0 0.000363 2993.31934 3060.33276
2863.0 0.0003493 2993.01660 3072.94507
2933.0 0.0003409 2992.71338 3091.26904
2907.0 0.0003440 2992.41064 3119.32129
2994.0 0.0003340 2992.10742 3163.26416
3008.0 0.0003324 2991.80444 3231.03833
3133.0 0.0003192 2991.50122 3330.53223
3328.0 0.0003005 2991.19800 3466.09521
3403.0 0.0002939 2990.89502 3633.22021
3591.0 0.0002785 2990.59155 3809.76685
3768.0 0.0002654 2990.28833 3948.23096
3735.0 0.0002677 2989.98511 3998.28857
3946.0 0.0002534 2989.68164 3962.06226
3851.0 0.0002597 2989.37842 3887.09790
3642.0 0.0002746 2989.07495 3803.63403
3457.0 0.0002893 2988.77148 3706.20728
3431.0 0.0002915 2988.46802 3585.62378
3395.0 0.0002946 2988.16479 3456.41626
3158.0 0.0003167 2987.86108 3340.23584
3110.0 0.0003215 2987.55737 3247.58496
3003.0 0.0003330 2987.25391 3179.39063
2955.0 0.0003384 2986.95044 3132.07617
2927.0 0.0003416 2986.64648 3100.58643
3014.0 0.0003318 2986.34302 3079.99487
2829.0 0.000353 2986.03931 3066.37915
2829.0 0.000353 2985.73535 3057.06738
2828.0 0.000354 2985.43164 3050.44580
2834.0 0.000353 2985.12793 3045.61572
2828.0 0.000354 2984.82397 3042.08032
2802.0 0.000357 2984.52026 3039.56030
2815.0 0.000355 2984.21606 3037.88770
2798.0 0.000357 2983.91211 3036.95972
2800.0 0.000357 2983.60815 3036.71606
2766.0 0.000362 2983.30396 3037.12891
2845.0 0.000351 2983.00024 3038.19824
2805.0 0.000357 2982.69604 3039.95093
2740.0 0.000365 2982.39185 3042.44287
2810.0 0.000356 2982.08789 3045.76025
2745.0 0.000364 2981.78369 3050.02759
2774.0 0.000360 2981.47949 3055.41870
2796.0 0.000358 2981.17529 3062.17188
2917.0 0.0003428 2980.87085 3070.61426
2845.0 0.000351 2980.56665 3081.21777
2842.0 0.000352 2980.26270 3094.71069
2996.0 0.0003338 2979.95801 3112.32642
2982.0 0.0003353 2979.65381 3136.35352
3112.0 0.0003213 2979.34937 3171.17480
3103.0 0.0003223 2979.04492 3224.75317
3128.0 0.0003197 2978.74048 3310.04346
3223.0 0.0003103 2978.43628 3444.91504
3466.0 0.0002885 2978.13159 3648.75635
3761.0 0.0002659 2977.82715 3934.54370
4263.0 0.0002346 2977.52246 4297.01270
4569.0 0.0002189 2977.21802 4693.48096
4986.0 0.0002006 2976.91333 5021.83252
5191.0 0.0001926 2976.60864 5156.96045
5424.0 0.0001844 2976.30420 5084.87305
5059.0 0.0001977 2975.99951 4916.02295
4667.0 0.0002143 2975.69482 4736.89209
4454.0 0.0002245 2975.39014 4542.72363
4181.0 0.0002392 2975.08545 4297.31201
3970.0 0.0002519 2974.78052 4017.46973
3675.0 0.0002721 2974.47583 3754.42285
3471.0 0.0002881 2974.17114 3539.59473
3117.0 0.0003208 2973.86597 3379.33057
3080.0 0.0003247 2973.56104 3267.46460
2893.0 0.0003457 2973.25635 3192.84644
2980.0 0.0003356 2972.95142 3143.91260
2828.0 0.000354 2972.64648 3111.23315
2905.0 0.0003442 2972.34155 3088.33569
2866.0 0.0003489 2972.03638 3071.32129
2900.0 0.0003448 2971.73145 3058.03125
2811.0 0.000356 2971.42651 3047.28125
2813.0 0.000355 2971.12158 3038.38403
2779.0 0.000360 2970.81641 3030.90430
2815.0 0.000355 2970.51147 3024.54077
2859.0 0.0003498 2970.20630 3019.07202
2786.0 0.000359 2969.90112 3014.32813
2783.0 0.000359 2969.59595 3010.17896
2827.0 0.000354 2969.29102 3006.52344
2796.0 0.000358 2968.98560 3003.27979
2785.0 0.000359 2968.68042 3000.38232
2706.0 0.000370 2968.37500 2997.77881
2767.0 0.000361 2968.07007 2995.42676
2792.0 0.000358 2967.76465 2993.28979
2746.0 0.000364 2967.45947 2991.33911
2647.0 0.000378 2967.15405 2989.55054
2678.0 0.000373 2966.84888 2987.90356
2737.0 0.000365 2966.54346 2986.37964
2698.0 0.000371 2966.23804 2984.96509
2681.0 0.000373 2965.93262 2983.64771
2614.0 0.000383 2965.62744 2982.41553
2640.0 0.000379 2965.32178 2981.26001
2782.0 0.000359 2965.01636 2980.17285
2842.0 0.000352 2964.71094 2979.14722
2801.0 0.000357 2964.40552 2978.17578
2744.0 0.000364 2964.10010 2977.25513
2642.0 0.000379 2963.79468 2976.37915
2715.0 0.000368 2963.48901 2975.54395
2763.0 0.000362 2963.18359 2974.74634
2727.0 0.000367 2962.87793 2973.98267
2626.0 0.000381 2962.57251 2973.25000
2652.0 0.000377 2962.26685 2972.54590
2703.0 0.000370 2961.96118 2971.86816
2737.0 0.000365 2961.65576 2971.21460
2708.0 0.000369 2961.34985 2970.58325
2733.0 0.000366 2961.04443 2969.97266
2723.0 0.000367 2960.73877 2969.38110
2756.0 0.000363 2960.43311 2968.80713
2757.0 0.000363 2960.12744 2968.25000
2653.0 0.000377 2959.82178 2967.70850
2762.0 0.000362 2959.51611 2967.18140
2723.0 0.000367 2959.21021 2966.66748
2823.0 0.000354 2958.90454 2966.16699
2730.0 0.000366 2958.59863 2965.67847
2767.0 0.000361 2958.29297 2965.20068
2576.0 0.000388 2957.98706 2964.73438
2761.0 0.000362 2957.68140 2964.27808
2726.0 0.000367 2957.37573 2963.83105
2745.0 0.000364 2957.06958 2963.39355
2785.0 0.000359 2956.76392 2962.96484
2773.0 0.000361 2956.45825 2962.54468
2731.0 0.000366 2956.15234 2962.13281
2774.0 0.000360 2955.84644 2961.72900
2774.0 0.000360 2955.54077 2961.33301
2776.0 0.000360 2955.23462 2960.94385
2732.0 0.000366 2954.92871 2960.56201
2678.0 0.000373 2954.62280 2960.18774
2737.0 0.000365 2954.31714 2959.82056
2642.0 0.000379 2954.01099 2959.45996
2774.0 0.000360 2953.70508 2959.10571
2788.0 0.000359 2953.39917 2958.75903
2749.0 0.000364 2953.09326 2958.41895
2689.0 0.000372 2952.78735 2958.08594
2714.0 0.000368 2952.48145 2957.75952
2771.0 0.000361 2952.17529 2957.44019
2700.0 0.000370 2951.86938 2957.12769
2695.0 0.000371 2951.56348 2956.82300
2694.0 0.000371 2951.25732 2956.52563
2614.0 0.000383 2950.95142 2956.23608
2631.0 0.000380 2950.64551 2955.95459
2663.0 0.000376 2950.33936 2955.68140
2744.0 0.000364 2950.03345 2955.07788
2777.0 0.000360 2949.72729 2954.82739
2747.0 0.000364 2949.42139 2954.58691
2774.0 0.000360 2949.11523 2954.35742
2753.0 0.000363 2948.80933 2954.13794
2740.0 0.000365 2948.50317 2953.76318
2778.0 0.000360 2948.19702 2953.57104
2774.0 0.000360 2947.89111 2953.39282
2790.0 0.000358 2947.58496 2953.22925
2796.0 0.000358 2947.27881 2953.08203
2859.0 0.0003498 2946.97290 2952.95239
2804.0 0.000357 2946.66650 2952.84229
2768.0 0.000361 2946.36060 2952.75342
2857.0 0.0003500 2946.05444 2952.68848
2759.0 0.000362 2945.74829 2952.65039
2834.0 0.000353 2945.44214 2952.64160
2712.0 0.000369 2945.13623 2952.66626
2786.0 0.000359 2944.83008 2952.72852
2789.0 0.000359 2944.52393 2952.83276
2724.0 0.000367 2944.21753 2952.98560
2775.0 0.000360 2943.91162 2953.19360
2762.0 0.000362 2943.60547 2953.46484
2807.0 0.000356 2943.29932 2953.80957
2747.0 0.000364 2942.99316 2954.23950
2860.0 0.0003497 2942.68726 2954.76953
2812.0 0.000356 2942.38110 2955.41675
2805.0 0.000357 2942.07495 2956.20361
2776.0 0.000360 2941.76855 2956.22949
2811.0 0.000356 2941.46265 2957.40015
2794.0 0.000358 2941.15625 2958.81543
2892.0 0.0003458 2940.85034 2960.53076
2739.0 0.000365 2940.54419 2962.62012
2822.0 0.000354 2940.23804 2964.72266
2701.0 0.000370 2939.93188 2967.90552
2716.0 0.000368 2939.62573 2971.91113
2739.0 0.000365 2939.31958 2977.08398
2759.0 0.000362 2939.01318 2984.02026
2804.0 0.000357 2938.70728 2993.75488
2770.0 0.000361 2938.40112 3008.00928
2850.0 0.000351 2938.09497 3029.38452
2846.0 0.000351 2937.78882 3061.29712
2884.0 0.0003467 2937.48291 3107.44312
2969.0 0.0003368 2937.17651 3170.66748
3029.0 0.0003301 2936.87036 3250.96045
3258.0 0.0003069 2936.56445 3341.88062
3253.0 0.0003074 2936.25830 3425.27954
3224.0 0.0003102 2935.95215 3473.19482
3359.0 0.0002977 2935.64600 3471.42310
3268.0 0.0003060 2935.33984 3437.19849
3240.0 0.0003086 2935.03369 3396.05591
3180.0 0.0003145 2934.72754 3356.65576
3117.0 0.0003208 2934.42139 3311.16846
3133.0 0.0003192 2934.11548 3252.77368
3012.0 0.0003320 2933.80933 3188.06226
2996.0 0.0003338 2933.50317 3128.22485
2919.0 0.0003426 2933.19702 3079.14624
2759.0 0.000362 2932.89111 3041.72803
2852.0 0.0003506 2932.58496 3014.56323
2702.0 0.000370 2932.27905 2995.44946
2761.0 0.000362 2931.97290 2982.13525
2839.0 0.000352 2931.66675 2972.72778
2715.0 0.000368 2931.36084 2965.85010
2803.0 0.000357 2931.05469 2960.59497
2781.0 0.000360 2930.74854 2956.41113
2726.0 0.000367 2930.44263 2952.97241
2725.0 0.000367 2930.13647 2950.08179
2698.0 0.000371 2929.83057 2947.61060
2589.0 0.000386 2929.52466 2945.46973
2651.0 0.000377 2929.21851 2943.59546
2709.0 0.000369 2928.91260 2941.93799
2736.0 0.000365 2928.60645 2940.45898
2593.0 0.000386 2928.30054 2939.12817
2824.0 0.000354 2927.99463 2937.92236
2741.0 0.000365 2927.68872 2936.82129
2743.0 0.000365 2927.38281 2935.80933
2734.0 0.000366 2927.07666 2934.87402
2778.0 0.000360 2926.77075 2934.00415
2676.0 0.000374 2926.46484 2933.19116
2676.0 0.000374 2926.15894 2932.42822
2711.0 0.000369 2925.85303 2931.70776
2686.0 0.000372 2925.54712 2931.02588
2653.0 0.000377 2925.24121 2930.37671
2760.0 0.000362 2924.93555 2929.75781
2667.0 0.000375 2924.62939 2929.16504
2650.0 0.000377 2924.32373 2928.59570
2627.0 0.000381 2924.01782 2928.04712
2717.0 0.000368 2923.71191 2927.51709
2661.0 0.000376 2923.40625 2927.00439
2647.0 0.000378 2923.10034 2926.50659
2725.0 0.000367 2922.79468 2926.02271
2686.0 0.000372 2922.48853 2925.55127
2672.0 0.000374 2922.18286 2925.09131
2633.0 0.000380 2921.87695 2924.64160
2727.0 0.000367 2921.57129 2924.20142
2717.0 0.000368 2921.26563 2923.76953
2699.0 0.000371 2920.95996 2923.34570
2657.0 0.000376 2920.65405 2922.92920
2630.0 0.000380 2920.34863 2922.51929
2771.0 0.000361 2920.04272 2922.30835
2674.0 0.000374 2919.73730 2921.91333
2669.0 0.000375 2919.43140 2921.62451
2581.0 0.000387 2919.12573 2921.24072
2733.0 0.000366 2918.82031 2920.86157
2648.0 0.000378 2918.51465 2920.48657
2612.0 0.000383 2918.20898 2920.21216
2604.0 0.000384 2917.90356 2919.84619
2627.0 0.000381 2917.59790 2919.48364
2650.0 0.000377 2917.29248 2919.12402
2731.0 0.000366 2916.98682 2918.76807
2652.0 0.000377 2916.68140 2918.41455
2699.0 0.000371 2916.37598 2918.06396
2640.0 0.000379 2916.07031 2917.71606
2848.0 0.000351 2915.76465 2917.37061
2590.0 0.000386 2915.45923 2917.29248
2769.0 0.000361 2915.15405 2916.95557
2770.0 0.000361 2914.84863 2916.62036
2780.0 0.000360 2914.54297 2916.28735
2778.0 0.000360 2914.23779 2915.95654
2693.0 0.000371 2913.93237 2915.62744
2645.0 0.000378 2913.62720 2915.30005
2661.0 0.000376 2913.32178 2914.97412
2708.0 0.000369 2913.01660 2914.65039
2679.0 0.000373 2912.71118 2914.32739
2707.0 0.000369 2912.40576 2914.00659
2742.0 0.000365 2912.10083 2913.68726
2758.0 0.000363 2911.79541 2913.36914
2700.0 0.000370 2911.49023 2913.05249
2846.0 0.000351 2911.18506 2912.73730
2766.0 0.000362 2910.88013 2912.42310
2773.0 0.000361 2910.57471 2912.10986
2874.0 0.0003479 2910.26978 2911.79883
2898.0 0.0003451 2909.96460 2911.48828
2851.0 0.000351 2909.65942 2911.17944
2877.0 0.0003476 2909.35449 2910.87134
2799.0 0.000357 2909.04932 2910.56470
2698.0 0.000371 2908.74438 2910.25903
2801.0 0.000357 2908.43921 2909.95459
2822.0 0.000354 2908.13428 2909.65137
2733.0 0.000366 2907.82959 2909.34863
2723.0 0.000367 2907.52466 2909.04785
2648.0 0.000378 2907.21948 2908.74805
2722.0 0.000367 2906.91455 2908.44897
2734.0 0.000366 2906.60962 2908.15088
2740.0 0.000365 2906.30493 2907.85425
2788.0 0.000359 2906.00024 2907.55859
2724.0 0.000367 2905.69556 2907.26440
2681.0 0.000373 2905.39063 2906.97095
2743.0 0.000365 2905.08594 2906.67896
2744.0 0.000364 2904.78125 2906.38818
2736.0 0.000365 2904.47656 2906.09790
2703.0 0.000370 2904.17163 2905.80908
2748.0 0.000364 2903.86719 2905.52197
2680.0 0.000373 2903.56274 2905.23560
2690.0 0.000372 2903.25806 2904.95068
2653.0 0.000377 2902.95361 2904.66724
2686.0 0.000372 2902.64893 2904.38477
2665.0 0.000375 2902.34448 2904.10352
2765.0 0.000362 2902.04004 2903.82446
2650.0 0.000377 2901.73560 2903.54614
2733.0 0.000366 2901.43091 2903.26953
2632.0 0.000380 2901.12695 2902.99463
2601.0 0.000384 2900.82227 2902.72119
2752.0 0.000363 2900.51807 2902.44873
2690.0 0.000372 2900.21387 2902.17871
2627.0 0.000381 2899.90942 2901.91064
2681.0 0.000373 2899.60498 2901.64380
2786.0 0.000359 2899.30078 2901.37915
2687.0 0.000372 2898.99658 2901.11621
2710.0 0.000369 2898.69238 2900.85522
2633.0 0.000380 2898.38843 2900.59692
2646.0 0.000378 2898.08423 2900.34033
2669.0 0.000375 2897.78003 2900.08618
2709.0 0.000369 2897.47607 2899.83447
2703.0 0.000370 2897.17212 2899.58545
2681.0 0.000373 2896.86792 2899.33911
2706.0 0.000370 2896.56396 2899.09546
2733.0 0.000366 2896.26025 2898.85474
2632.0 0.000380 2895.95630 2898.61694
2646.0 0.000378 2895.65234 2898.15186
2738.0 0.000365 2895.34863 2897.92456
2715.0 0.000368 2895.04492 2897.70068
2709.0 0.000369 2894.74097 2897.47998
2733.0 0.000366 2894.43701 2897.26440
2787.0 0.000359 2894.13379 2896.93750
2674.0 0.000374 2893.82983 2896.73169
2681.0 0.000373 2893.52612 2896.53076
2630.0 0.000380 2893.22266 2896.33472
2631.0 0.000380 2892.91919 2896.14429
2700.0 0.000370 2892.61548 2895.95947
2634.0 0.000380 2892.31201 2895.78076
2725.0 0.000367 2892.00854 2895.60840
2750.0 0.000364 2891.70532 2895.44336
2749.0 0.000364 2891.40161 2895.28564
2665.0 0.000375 2891.09839 2895.13550
2595.0 0.000385 2890.79492 2894.99487
2770.0 0.000361 2890.49170 2894.86279
2707.0 0.000369 2890.18823 2894.74097
2762.0 0.000362 2889.88525 2894.63013
2705.0 0.000370 2889.58203 2894.53052
2753.0 0.000363 2889.27881 2894.44385
2664.0 0.000375 2888.97559 2894.37012
2695.0 0.000371 2888.67261 2894.31201
2676.0 0.000374 2888.36938 2894.26978
2683.0 0.000373 2888.06641 2894.24512
2675.0 0.000374 2887.76343 2894.23901
2688.0 0.000372 2887.46045 2894.25464
2623.0 0.000381 2887.15771 2894.29248
2694.0 0.000371 2886.85474 2894.35596
2736.0 0.000365 2886.55200 2894.44702
2729.0 0.000366 2886.24927 2909.62842
2747.0 0.000364 2885.94629 2909.98511
2667.0 0.000375 2885.64355 2910.38306
2662.0 0.000376 2885.34106 2910.82764
2710.0 0.000369 2885.03833 2911.32300
2689.0 0.000372 2884.73584 2911.87427
2697.0 0.000371 2884.43335 2920.01123
2695.0 0.000371 2884.13086 2920.79736
2777.0 0.000360 2883.82813 2921.66406
2771.0 0.000361 2883.52563 2922.62256
2745.0 0.000364 2883.22314 2923.68555
2739.0 0.000365 2882.92114 2924.86499
2756.0 0.000363 2882.61865 2926.18042
2720.0 0.000368 2882.31641 2927.64941
2664.0 0.000375 2882.01416 2929.29785
2808.0 0.000356 2881.71191 2939.68994
2803.0 0.000357 2881.40967 2941.92017
2758.0 0.000363 2881.10767 2944.44312
2714.0 0.000368 2880.80566 2947.31226
2752.0 0.000363 2880.50366 2950.59448
2753.0 0.000363 2880.20166 2954.38037
2732.0 0.000366 2879.89966 2963.04858
2834.0 0.000353 2879.59790 2968.27686
2794.0 0.000358 2879.29590 2974.47388
2833.0 0.000353 2878.99414 2981.93457
2777.0 0.000360 2878.69238 2991.09985
2803.0 0.000357 2878.39063 3002.72363
2762.0 0.000362 2878.08911 3018.04688
2812.0 0.000356 2877.78735 3039.15991
2845.0 0.000351 2877.48560 3069.24805
2934.0 0.0003408 2877.18433 3112.69385
2978.0 0.0003358 2876.88281 3174.79150
3039.0 0.0003291 2876.58105 3260.56494
3307.0 0.0003024 2876.27979 3372.68188
3329.0 0.0003004 2875.97827 3507.42212
3450.0 0.0002899 2875.67700 3647.39404
3548.0 0.0002818 2875.37573 3761.86133
3839.0 0.0002605 2875.07471 3832.28149
3766.0 0.0002655 2874.77319 3871.59009
3835.0 0.0002608 2874.47217 3894.27075
3788.0 0.0002640 2874.17114 3890.91113
3706.0 0.0002698 2873.86987 3846.99121
3729.0 0.0002682 2873.56909 3765.97681
3503.0 0.0002855 2873.26807 3667.49316
3515.0 0.0002845 2872.96729 3571.60889
3290.0 0.0003040 2872.66626 3482.62012
3268.0 0.0003060 2872.36548 3394.39087
3116.0 0.0003209 2872.06470 3307.14038
3155.0 0.0003170 2871.76392 3228.62231
2976.0 0.0003360 2871.46338 3164.48608
3038.0 0.0003292 2871.16284 3115.32397
2950.0 0.0003390 2870.86230 3079.03345
2884.0 0.0003467 2870.56152 3052.87598
2947.0 0.0003393 2870.26123 3034.27075
2928.0 0.0003415 2869.96069 3021.01294
2839.0 0.000352 2869.66040 3011.44482
2922.0 0.0003422 2869.36011 3004.41528
2822.0 0.000354 2869.05981 2999.14795
2895.0 0.0003454 2868.75952 2995.16284
2847.0 0.000351 2868.45947 2992.14453
2865.0 0.0003490 2868.15942 2989.89038
2819.0 0.000355 2867.85913 2988.25977
2814.0 0.000355 2867.55933 2987.14746
2767.0 0.000361 2867.25928 2986.47534
2852.0 0.0003506 2866.95947 2986.18457
2921.0 0.0003423 2866.65967 2986.22705
2890.0 0.0003460 2866.35962 2986.56763
2906.0 0.0003441 2866.06006 2987.17529
2974.0 0.0003362 2865.76050 2988.02881
3010.0 0.0003322 2865.46045 2989.10986
3089.0 0.0003237 2865.16113 2990.40356
3099.0 0.0003227 2864.86157 2991.89990
3053.0 0.0003275 2864.56201 2993.59229
3089.0 0.0003237 2864.26245 2995.47290
3083.0 0.0003244 2863.96313 2997.53955
3099.0 0.0003227 2863.66406 2999.78931
3082.0 0.0003245 2863.36450 3002.22339
3130.0 0.0003195 2863.06543 3004.84155
3028.0 0.0003303 2862.76611 3007.64526
2986.0 0.0003349 2862.46704 3010.63965
3052.0 0.0003277 2862.16797 3013.82935
3130.0 0.0003195 2861.86914 3017.21777
3089.0 0.0003237 2861.57007 3020.81348
3063.0 0.0003265 2861.27124 3024.62549
3055.0 0.0003273 2860.97241 3028.65820
3007.0 0.0003326 2860.67358 3032.92554
3158.0 0.0003167 2860.37476 3037.43994
3153.0 0.0003172 2860.07617 3042.20776
3168.0 0.0003157 2859.77759 3047.24878
3174.0 0.0003151 2859.47925 3052.57275
3306.0 0.0003025 2859.18066 3058.20166
3235.0 0.0003091 2858.88208 3064.15161
3331.0 0.0003002 2858.58398 3070.43774
3202.0 0.0003123 2858.28540 3077.08960
3242.0 0.0003085 2857.98730 3084.12769
3134.0 0.0003191 2857.68921 3091.57324
3239.0 0.0003087 2857.39111 3099.46216
3191.0 0.0003134 2857.09277 3107.82642
3270.0 0.0003058 2856.79468 3116.69165
3218.0 0.0003108 2856.49707 3126.10229
3296.0 0.0003034 2856.19897 3136.10498
3214.0 0.0003111 2855.90137 3146.73169
3266.0 0.0003062 2855.60352 3158.04395
3319.0 0.0003013 2855.30542 3170.10132
3270.0 0.0003058 2855.00806 3182.95166
3379.0 0.0002959 2854.71045 3196.67871
3195.0 0.0003130 2854.41309 3211.34595
3213.0 0.0003112 2854.11523 3227.05469
3358.0 0.0002978 2853.81787 3243.89233
3184.0 0.0003141 2853.52051 3261.95850
3250.0 0.0003077 2853.22339 3281.39087
3251.0 0.0003076 2852.92627 3302.31738
3300.0 0.0003030 2852.62891 3324.87939
3342.0 0.0002992 2852.33179 3349.26685
3328.0 0.0003005 2852.03467 3375.68579
3406.0 0.0002936 2851.73779 3404.32910
3394.0 0.0002946 2851.44092 3435.47900
3395.0 0.0002946 2851.14404 3469.44434
3327.0 0.0003006 2850.84717 3506.52368
3423.0 0.0002921 2850.55029 3547.15674
3462.0 0.0002889 2850.25391 3591.76416
3550.0 0.0002817 2849.95728 3640.92773
3603.0 0.0002775 2849.66064 3695.26050
3688.0 0.0002711 2849.36426 3755.47778
3710.0 0.0002695 2849.06812 3822.52808
3712.0 0.0002694 2848.77173 3897.44458
3814.0 0.0002622 2848.47559 3981.46460
3959.0 0.0002526 2848.17920 4076.19458
4201.0 0.0002380 2847.88306 4183.56543
4296.0 0.0002328 2847.58691 4305.83594
4479.0 0.0002233 2847.29102 4445.90088
4691.0 0.0002132 2846.99487 4607.52490
5033.0 0.0001987 2846.69897 4795.14404
5376.0 0.0001860 2846.40332 5014.96045
5669.0 0.0001764 2846.10767 5274.63623
6113.0 0.0001636 2845.81177 5585.18164
6435.0 0.0001554 2845.51636 5961.85645
6969.0 0.0001435 2845.22070 6428.32520
7745.0 0.0001291 2844.92529 7024.71143
8238.0 0.0001214 2844.62964 7818.90088
9128.0 0.0001096 2844.33447 8924.38867
10583.0 0.0000945 2844.03931 10519.57910
12413.0 0.0000806 2843.74414 12849.36816
15558.0 0.0000643 2843.44897 16201.80469
19980.0 0.0000501 2843.15405 20847.82422
26009.0 0.0000384 2842.85889 26901.29883
33456.0 0.0000299 2842.56396 34038.37891
42071.0 0.0000238 2842.26904 41251.05078
49380.0 0.0000203 2841.97437 47368.69141
55260.0 0.0000181 2841.67969 52238.89063
59828.0 0.0000167 2841.38501 56025.93359
60889.0 0.0000164 2841.09058 57752.40625
59727.0 0.0000167 2840.79614 56430.89844
55640.0 0.0000180 2840.50146 52645.71484
50006.0 0.0000200 2840.20728 47805.42188
44029.0 0.0000227 2839.91284 43081.85156
39437.0 0.0000254 2839.61865 38827.31641
34838.0 0.0000287 2839.32446 34437.54688
29922.0 0.0000334 2839.03052 29408.17578
24817.0 0.0000403 2838.73633 24165.50977
19895.0 0.0000503 2838.44263 19444.35742
15267.0 0.0000655 2838.14868 15601.36621
11963.0 0.0000836 2837.85498 12656.48926
9661.0 0.0001035 2837.56152 10485.38965
8364.0 0.0001196 2837.26758 8917.63184
7405.0 0.0001350 2836.97412 7793.20166
6520.0 0.0001534 2836.68066 6976.22168
6011.0 0.0001664 2836.38721 6366.85938
5605.0 0.0001784 2836.09399 5896.95654
5299.0 0.0001887 2835.80078 5522.37158
5022.0 0.0001991 2835.50757 5216.12012
4594.0 0.0002177 2835.21460 4961.05615
4481.0 0.0002232 2834.92139 4745.51123
4318.0 0.0002316 2834.62842 4561.39648
4305.0 0.0002323 2834.33569 4402.95264
4075.0 0.0002454 2834.04272 4265.43750
4003.0 0.0002498 2833.75000 4145.26172
3770.0 0.0002653 2833.45728 4039.96045
3855.0 0.0002594 2833.16479 3946.68066
3660.0 0.0002732 2832.87231 3863.79102
3569.0 0.0002802 2832.58008 3789.87915
3548.0 0.0002818 2832.28760 3723.60327
3584.0 0.0002790 2831.99536 3663.99438
3618.0 0.0002764 2831.70313 3610.24316
3456.0 0.0002894 2831.41089 3561.42334
3449.0 0.0002899 2831.11890 3517.05151
3571.0 0.0002800 2830.82715 3476.56079
3505.0 0.0002853 2830.53516 3439.52295
3388.0 0.0002952 2830.24341 3405.56934
3300.0 0.0003030 2829.95166 3374.33984
3186.0 0.0003139 2829.65991 3345.34741
3342.0 0.0002992 2829.36841 3318.76489
3254.0 0.0003073 2829.07690 3294.04590
3254.0 0.0003073 2828.78564 3271.19897
3329.0 0.0003004 2828.49438 3249.97778
3265.0 0.0003063 2828.20313 3230.20679
3201.0 0.0003124 2827.91211 3211.49438
3162.0 0.0003163 2827.62085 3194.26245
3242.0 0.0003085 2827.32983 3178.13428
3147.0 0.0003178 2827.03906 3163.02368
3157.0 0.0003168 2826.74805 3148.83130
3134.0 0.0003191 2826.45728 3135.48901
3098.0 0.0003228 2826.16675 3122.93555
3105.0 0.0003221 2825.87598 3111.09961
3080.0 0.0003247 2825.58545 3099.92285
3142.0 0.0003183 2825.29517 3089.36987
3117.0 0.0003208 2825.00488 3079.38428
3109.0 0.0003216 2824.71460 3069.92236
3092.0 0.0003234 2824.42432 3060.95898
3061.0 0.0003267 2824.13452 3052.44678
3033.0 0.0003297 2823.84424 3044.36450
2903.0 0.0003445 2823.55444 3036.67383
2926.0 0.0003418 2823.26465 3029.35400
3085.0 0.0003241 2822.97485 3022.38330
2941.0 0.0003400 2822.68530 3015.73340
2963.0 0.0003375 2822.39551 3009.38647
3018.0 0.0003313 2822.10620 3003.32715
3006.0 0.0003327 2821.81665 2997.53198
2972.0 0.0003365 2821.52734 2991.98828
3001.0 0.0003332 2821.23828 2986.68286
3028.0 0.0003303 2820.94922 2981.59839
2853.0 0.0003505 2820.65967 2976.72144
3033.0 0.0003297 2820.37109 2972.04565
2998.0 0.0003336 2820.08203 2967.55518
2894.0 0.0003455 2819.79297 2963.23926
2963.0 0.0003375 2819.50439 2959.09375
2955.0 0.0003384 2819.21582 2955.10352
2958.0 0.0003381 2818.92725 2951.26587
2846.0 0.000351 2818.63892 2947.56738
2965.0 0.0003373 2818.35034 2944.00366
2988.0 0.0003347 2818.06226 2940.57031
2894.0 0.0003455 2817.77393 2937.25684
3011.0 0.0003321 2817.48584 2934.05933
2898.0 0.0003451 2817.19800 2930.97290
2933.0 0.0003409 2816.91016 2927.99121
2862.0 0.0003494 2816.62207 2925.10791
2950.0 0.0003390 2816.33447 2922.32251
2992.0 0.0003342 2816.04663 2919.62720
2879.0 0.0003473 2815.75903 2917.01807
3036.0 0.0003294 2815.47168 2914.49414
2836.0 0.000353 2815.18408 2912.04858
2992.0 0.0003342 2814.89697 2909.68066
2945.0 0.0003396 2814.60986 2907.38525
2909.0 0.0003438 2814.32275 2905.16016
2924.0 0.0003420 2814.03564 2903.00366
2925.0 0.0003419 2813.74878 2900.91064
2939.0 0.0003403 2813.46167 2898.88086
2988.0 0.0003347 2813.17529 2896.91235
2973.0 0.0003364 2812.88843 2895.00098
2828.0 0.000354 2812.60181 2893.14526
2848.0 0.000351 2812.31519 2891.34473
2853.0 0.0003505 2812.02905 2889.59692
2882.0 0.0003470 2811.74243 2887.89893
2995.0 0.0003339 2811.45654 2886.25220
2972.0 0.0003365 2811.17041 2884.65259
2961.0 0.0003377 2810.88403 2883.09961
2878.0 0.0003475 2810.59839 2881.59326
2860.0 0.0003497 2810.31250 2880.13159
2909.0 0.0003438 2810.02686 2878.71460
2854.0 0.0003504 2809.74121 2877.34009
3000.0 0.0003333 2809.45557 2876.00928
2910.0 0.0003436 2809.17017 2874.72144
2948.0 0.0003392 2808.88501 2873.47485
2779.0 0.000360 2808.59961 2872.27100
2851.0 0.000351 2808.31445 2871.11035
2773.0 0.000361 2808.02954 2869.99268
2886.0 0.0003465 2807.74438 2868.91772
2913.0 0.0003433 2807.45947 2867.88843
2889.0 0.0003461 2807.17480 2866.90454
2888.0 0.0003463 2806.89014 2865.96777
2943.0 0.0003398 2806.60522 2865.08154
2895.0 0.0003454 2806.32080 2864.24805
2878.0 0.0003475 2806.03662 2863.47119
2928.0 0.0003415 2805.75220 2862.75464
3017.0 0.0003315 2805.46802 2862.10376
2895.0 0.0003454 2805.18408 2861.52612
2797.0 0.000358 2804.89990 2861.03003
2748.0 0.000364 2804.61597 2860.62671
2733.0 0.000366 2804.33228 2860.32910
2879.0 0.0003473 2804.04858 2860.15625
2802.0 0.000357 2803.76489 2860.16919
2879.0 0.0003473 2803.48145 2860.32788
2861.0 0.0003495 2803.19800 2860.72192
2872.0 0.0003482 2802.91455 2861.43213
2811.0 0.000356 2802.63159 2862.58813
2964.0 0.0003374 2802.34839 2864.39380
3024.0 0.0003307 2802.06519 2867.16382
2942.0 0.0003399 2801.78223 2871.24561
2996.0 0.0003338 2801.49976 2877.09717
3009.0 0.0003323 2801.21704 2885.11670
3043.0 0.0003286 2800.93408 2895.51343
3072.0 0.0003255 2800.65161 2907.94678
3131.0 0.0003194 2800.36938 2921.01489
3081.0 0.0003246 2800.08691 2932.52954
3033.0 0.0003297 2799.80469 2941.91333
3118.0 0.0003207 2799.52271 2951.90283
3153.0 0.0003172 2799.24072 2966.01416
3091.0 0.0003235 2798.95874 2985.52930
3031.0 0.0003299 2798.67700 3008.07300
3128.0 0.0003197 2798.39526 3026.97681
3131.0 0.0003194 2798.11353 3033.79248
3103.0 0.0003223 2797.83228 3025.80444
3027.0 0.0003304 2797.55078 2993.99487
3073.0 0.0003254 2797.26953 2976.96729
3037.0 0.0003293 2796.98828 2963.83716
2952.0 0.0003388 2796.70728 2954.28809
3057.0 0.0003271 2796.42651 2944.82886
3046.0 0.0003283 2796.14551 2932.22412
2907.0 0.0003440 2795.86475 2900.38696
2965.0 0.0003373 2795.58398 2885.13794
2958.0 0.0003381 2795.30347 2872.08496
2989.0 0.0003346 2795.02295 2862.10645
2874.0 0.0003479 2794.74292 2855.26172
2838.0 0.000352 2794.46240 2851.26807
2850.0 0.000351 2794.18237 2849.79224
2899.0 0.0003449 2793.90234 2850.58105
2915.0 0.0003431 2793.62231 2853.57349
2963.0 0.0003375 2793.34277 2859.02563
2922.0 0.0003422 2793.06274 2867.69067
2827.0 0.000354 2792.78320 2881.03687
3026.0 0.0003305 2792.50366 2901.48730
3028.0 0.0003303 2792.22437 2932.52710
3069.0 0.0003258 2791.94507 2978.30640
3112.0 0.0003213 2791.66602 3042.65674
3209.0 0.0003116 2791.38696 3127.41064
3233.0 0.0003093 2791.10791 3228.90381
3510.0 0.0002849 2790.82910 3331.99341
3603.0 0.0002775 2790.55054 3405.70215
3549.0 0.0002818 2790.27173 3419.48633
3590.0 0.0002786 2789.99316 3378.19897
3360.0 0.0002976 2789.71484 3317.62988
3435.0 0.0002911 2789.43652 3267.63306
3368.0 0.0002969 2789.15845 3237.05957
3281.0 0.0003048 2788.88013 3215.92236
3209.0 0.0003116 2788.60254 3184.31055
3240.0 0.0003086 2788.32446 3131.73486
3176.0 0.0003149 2788.04688 3067.26709
3029.0 0.0003301 2787.76904 3005.13916
3000.0 0.0003333 2787.49170 2952.95874
2998.0 0.0003336 2787.21411 2912.53931
2992.0 0.0003342 2786.93701 2882.84302
3059.0 0.0003269 2786.65991 2861.70776
2890.0 0.0003460 2786.38257 2846.82007
2905.0 0.0003442 2786.10571 2836.19824
2836.0 0.000353 2785.82886 2828.35449
2862.0 0.0003494 2785.55200 2822.31592
2917.0 0.0003428 2785.27539 2817.48926
2876.0 0.0003477 2784.99902 2813.51001
2828.0 0.000354 2784.72266 2810.16162
2840.0 0.000352 2784.44629 2807.29614
2890.0 0.0003460 2784.17017 2804.81592
2758.0 0.000363 2783.89429 2802.64746
2781.0 0.000360 2783.61816 2800.73169
2828.0 0.000354 2783.34229 2799.02612
2780.0 0.000360 2783.06665 2797.49707
2895.0 0.0003454 2782.79102 2796.11450
2927.0 0.0003416 2782.51538 2794.85718
2814.0 0.000355 2782.24023 2793.70728
2886.0 0.0003465 2781.96509 2792.64917
2686.0 0.000372 2781.68970 2791.67017
2799.0 0.000357 2781.41479 2790.76123
2870.0 0.0003484 2781.13989 2789.91162
2875.0 0.0003478 2780.86499 2789.11499
2802.0 0.000357 2780.59033 2788.36572
2906.0 0.0003441 2780.31567 2787.65771
2848.0 0.000351 2780.04150 2786.98682
2947.0 0.0003393 2779.76709 2786.34863
2863.0 0.0003493 2779.49292 2785.73926
2786.0 0.000359 2779.21875 2785.15771
2778.0 0.000360 2778.94482 2784.59937
2843.0 0.000352 2778.67090 2784.06250
2914.0 0.0003432 2778.39722 2783.54614
2824.0 0.000354 2778.12354 2783.04785
2817.0 0.000355 2777.85010 2782.56519
2844.0 0.000352 2777.57690 2782.09790
2883.0 0.0003469 2777.30347 2781.64478
2778.0 0.000360 2777.03027 2781.20459
2793.0 0.000358 2776.75757 2780.77612
2871.0 0.0003483 2776.48438 2780.35864
2857.0 0.0003500 2776.21167 2779.95142
2782.0 0.000359 2775.93921 2779.55444
2813.0 0.000355 2775.66650 2779.16553
2919.0 0.0003426 2775.39404 2778.78613
2732.0 0.000366 2775.12158 2778.41431
2811.0 0.000356 2774.84937 2778.05054
2692.0 0.000371 2774.57739 2777.69409
2776.0 0.000360 2774.30566 2777.34473
2834.0 0.000353 2774.03369 2777.00244
2768.0 0.000361 2773.76221 2776.66650
2699.0 0.000371 2773.49048 2776.33667
2715.0 0.000368 2773.21899 2776.01416
2766.0 0.000362 2772.94775 2775.69775
2793.0 0.000358 2772.67651 2775.38770
2757.0 0.000363 2772.40552 2775.08325
2714.0 0.000368 2772.13452 2774.78687
2744.0 0.000364 2771.86353 2774.49658
2842.0 0.000352 2771.59302 2774.21265
2833.0 0.000353 2771.32251 2773.93652
2800.0 0.000357 2771.05200 2773.66748
2811.0 0.000356 2770.78174 2773.40674
2832.0 0.000353 2770.51147 2777.29541
2760.0 0.000362 2770.24121 2777.10107
2713.0 0.000369 2769.97144 2776.91797
2751.0 0.000364 2769.70166 2776.74683
2732.0 0.000366 2769.43188 2776.58838
2748.0 0.000364 2769.16235 2776.44458
2806.0 0.000356 2768.89282 2776.31714
2781.0 0.000360 2768.62329 2778.27148
2867.0 0.0003488 2768.35425 2778.20825
2794.0 0.000358 2768.08521 2778.16943
2815.0 0.000355 2767.81641 2778.15942
2746.0 0.000364 2767.54736 2778.18311
2806.0 0.000356 2767.27856 2778.24634
2858.0 0.0003499 2767.01025 2778.35693
2715.0 0.000368 2766.74170 2788.24780
2735.0 0.000366 2766.47314 2788.61768
2841.0 0.000352 2766.20508 2789.07642
2688.0 0.000372 2765.93701 2789.65039
2809.0 0.000356 2765.66919 2790.37329
2746.0 0.000364 2765.40112 2791.29883
2902.0 0.0003446 2765.13379 2792.51978
2732.0 0.000366 2764.86597 2799.03638
2684.0 0.000373 2764.59888 2801.48242
2783.0 0.000359 2764.33130 2805.04419
2769.0 0.000361 2764.06445 2810.27441
2885.0 0.0003466 2763.79736 2817.82666
2860.0 0.0003497 2763.53027 2828.28662
2812.0 0.000356 2763.26367 2841.90088
2786.0 0.000359 2762.99683 2858.03760
2835.0 0.000353 2762.73047 2874.29272
2910.0 0.0003436 2762.46387 2885.93530
2920.0 0.0003425 2762.19775 2888.03955
2945.0 0.0003396 2761.93164 2881.47583
2862.0 0.0003494 2761.66553 2871.80298
2925.0 0.0003419 2761.39966 2863.78247
2824.0 0.000354 2761.13379 2859.06909
2871.0 0.0003483 2760.86865 2856.56201
2905.0 0.0003442 2760.60303 2853.31128
2856.0 0.0003501 2760.33740 2846.75562
2784.0 0.000359 2760.07251 2837.54346
2831.0 0.000353 2759.80737 2827.93530
2833.0 0.000353 2759.54248 2819.54199
2883.0 0.0003469 2759.27759 2812.90918
2837.0 0.000352 2759.01294 2808.01538
2634.0 0.000380 2758.74829 2804.58374
2664.0 0.000375 2758.48389 2802.26147
2734.0 0.000366 2758.21973 2800.71753
2825.0 0.000354 2757.95581 2799.69678
2714.0 0.000368 2757.69165 2799.01904
2825.0 0.000354 2757.42773 2798.57349
2849.0 0.000351 2757.16406 2798.29297
2853.0 0.0003505 2756.90063 2798.13574
2772.0 0.000361 2756.63696 2798.07837
2807.0 0.000356 2756.37378 2798.10181
2696.0 0.000371 2756.11035 2798.19360
2733.0 0.000366 2755.84741 2798.34595
2683.0 0.000373 2755.58447 2798.55225
2701.0 0.000370 2755.32178 2798.80688
2713.0 0.000369 2755.05908 2799.10498
2728.0 0.000367 2754.79663 2799.44531
2878.0 0.0003475 2754.53418 2799.82373
2787.0 0.000359 2754.27197 2800.23901
2813.0 0.000355 2754.01001 2800.69214
2852.0 0.0003506 2753.74805 2801.17944
2769.0 0.000361 2753.48608 2801.70117
2906.0 0.0003441 2753.22437 2802.25708
2870.0 0.0003484 2752.96289 2802.84839
2875.0 0.0003478 2752.70166 2803.47388
2903.0 0.0003445 2752.44019 2804.13379
2949.0 0.0003391 2752.17920 2804.82959
2958.0 0.0003381 2751.91821 2805.56177
2891.0 0.0003459 2751.65723 2806.27173
2884.0 0.0003467 2751.39673 2807.07959
2996.0 0.0003338 2751.13599 2807.92603
2906.0 0.0003441 2750.87573 2808.81274
2924.0 0.0003420 2750.61548 2809.73975
2949.0 0.0003391 2750.35522 2810.71045
2906.0 0.0003441 2750.09521 2811.67554
2961.0 0.0003377 2749.83545 2812.50537
2966.0 0.0003372 2749.57568 2813.61743
2853.0 0.0003505 2749.31616 2814.77979
2961.0 0.0003377 2749.05664 2815.99268
3005.0 0.0003328 2748.79736 2817.26099
2985.0 0.0003350 2748.53809 2818.58569
2961.0 0.0003377 2748.27905 2819.96777
2992.0 0.0003342 2748.02002 2821.29736
3040.0 0.0003289 2747.76172 2822.80737
3108.0 0.0003218 2747.50317 2824.38525
3084.0 0.0003243 2747.24438 2826.03394
3255.0 0.0003072 2746.98633 2827.75537
3261.0 0.0003067 2746.72803 2829.55615
3303.0 0.0003028 2746.46997 2831.43848
3304.0 0.0003027 2746.21216 2833.40576
3261.0 0.0003067 2745.95435 2835.46387
3038.0 0.0003292 2745.69678 2837.61865
3139.0 0.0003186 2745.43945 2839.87280
3148.0 0.0003177 2745.18213 2842.23267
3078.0 0.0003249 2744.92480 2844.70630
3079.0 0.0003248 2744.66797 2847.29614
3162.0 0.0003163 2744.41113 2850.01245
3064.0 0.0003264 2744.15430 2852.86011
3014.0 0.0003318 2743.89795 2855.85034
3007.0 0.0003326 2743.64136 2858.98877
2975.0 0.0003361 2743.38501 2862.28369
3001.0 0.0003332 2743.12891 2865.74878
2955.0 0.0003384 2742.87305 2869.39331
2903.0 0.0003445 2742.61719 2873.22510
3006.0 0.0003327 2742.36157 2877.26343
2878.0 0.0003475 2742.10571 2881.51685
2952.0 0.0003388 2741.85059 2886.00024
2913.0 0.0003433 2741.59521 2890.73193
2979.0 0.0003357 2741.34009 2895.73120
2945.0 0.0003396 2741.08521 2901.01074
2929.0 0.0003414 2740.83032 2906.59595
2969.0 0.0003368 2740.57568 2912.51221
2895.0 0.0003454 2740.32129 2918.77637
2981.0 0.0003355 2740.06689 2925.42407
2972.0 0.0003365 2739.81274 2932.47876
3020.0 0.0003311 2739.55884 2939.98047
3002.0 0.0003331 2739.30469 2947.96240
2927.0 0.0003416 2739.05078 2956.46118
2991.0 0.0003343 2738.79736 2965.52954
2944.0 0.0003397 2738.54395 2975.21460
3014.0 0.0003318 2738.29053 2985.56616
3067.0 0.0003261 2738.03735 2996.67139
3061.0 0.0003267 2737.78418 3008.56909
3074.0 0.0003253 2737.53149 3021.33789
2960.0 0.0003378 2737.27881 3035.07935
2976.0 0.0003360 2737.02612 3049.89648
3019.0 0.0003312 2736.77368 3065.88281
3098.0 0.0003228 2736.52148 3083.18408
3072.0 0.0003255 2736.26953 3101.92944
3169.0 0.0003156 2736.01758 3122.31201
3242.0 0.0003085 2735.76563 3144.49463
3248.0 0.0003079 2735.51416 3168.69434
3178.0 0.0003147 2735.26245 3195.18799
3181.0 0.0003144 2735.01099 3224.25952
3242.0 0.0003085 2734.76001 3256.23804
3263.0 0.0003065 2734.50903 3291.55786
3384.0 0.0002955 2734.25806 3330.68237
3288.0 0.0003041 2734.00708 3374.15576
3431.0 0.0002915 2733.75684 3422.68579
3590.0 0.0002786 2733.50610 3477.10107
3588.0 0.0002787 2733.25610 3538.32007
3661.0 0.0002731 2733.00586 3607.59692
3764.0 0.0002657 2732.75586 3686.43701
3810.0 0.0002625 2732.50610 3776.57495
3954.0 0.0002529 2732.25635 3880.42114
4164.0 0.0002402 2732.00708 4000.80811
4400.0 0.0002273 2731.75757 4141.67578
4552.0 0.0002197 2731.50830 4308.11182
4811.0 0.0002079 2731.25928 4507.26465
5061.0 0.0001976 2731.01050 4750.16455
5359.0 0.0001866 2730.76172 5053.72900
5680.0 0.0001761 2730.51318 5445.05566
6169.0 0.0001621 2730.26489 5967.58301
7040.0 0.0001420 2730.01636 6686.49023
7752.0 0.0001290 2729.76855 7690.27637
8897.0 0.0001124 2729.52075 9089.59082
11125.0 0.0000899 2729.27271 11000.29980
13825.0 0.0000723 2729.02539 13510.05762
17249.0 0.0000580 2728.77759 16633.23828
21317.0 0.0000469 2728.53052 20195.36328
25246.0 0.0000396 2728.28320 23681.90430
27449.0 0.0000364 2728.03613 26210.38281
27647.0 0.0000362 2727.78955 27113.73438
27095.0 0.0000369 2727.54297 26706.81250
26419.0 0.0000379 2727.29639 25989.43750
26202.0 0.0000382 2727.04980 25736.25977
26335.0 0.0000380 2726.80371 26092.68750
26460.0 0.0000378 2726.55762 26588.43555
26060.0 0.0000384 2726.31177 26386.69531
24285.0 0.0000412 2726.06616 24925.44531
22082.0 0.0000453 2725.82031 22452.74414
19328.0 0.0000517 2725.57520 19711.70117
16962.0 0.0000590 2725.33008 17275.29297
14785.0 0.0000676 2725.08472 15335.26074
12920.0 0.0000774 2724.84009 13789.94922
11607.0 0.0000862 2724.59497 12402.90039
10300.0 0.0000971 2724.35083 11019.31055
9212.0 0.0001086 2724.10620 9660.45605
7986.0 0.0001252 2723.86182 8427.41699
6810.0 0.0001468 2723.61792 7383.67188
6172.0 0.0001620 2723.37378 6537.28467
5530.0 0.0001808 2723.13013 5869.32227
4954.0 0.0002019 2722.88647 5350.86963
4686.0 0.0002134 2722.64307 4951.25586
4278.0 0.0002338 2722.39966 4642.86963
4137.0 0.0002417 2722.15674 4402.90576
4063.0 0.0002461 2721.91382 4213.20264
3940.0 0.0002538 2721.67065 4060.81201
3782.0 0.0002644 2721.42822 3937.14453
3619.0 0.0002763 2721.18555 3836.43701
3641.0 0.0002746 2720.94360 3755.41284
3475.0 0.0002878 2720.70142 3692.06372
3532.0 0.0002831 2720.45923 3645.26367
3432.0 0.0002914 2720.21777 3613.88452
3606.0 0.0002773 2719.97583 3596.00000
3496.0 0.0002860 2719.73438 3588.35327
3605.0 0.0002774 2719.49316 3585.77344
3536.0 0.0002828 2719.25195 3579.98779
3548.0 0.0002818 2719.01074 3560.52954
3503.0 0.0002855 2718.77002 3522.35449
3380.0 0.0002959 2718.52954 3471.60327
3309.0 0.0003022 2718.28906 3419.50537
3312.0 0.0003019 2718.04883 3373.69678
3322.0 0.0003010 2717.80859 3335.90991
3216.0 0.0003109 2717.56860 3303.35962
3205.0 0.0003120 2717.32886 3270.20850
3215.0 0.0003110 2717.08911 3231.71289
3103.0 0.0003223 2716.84985 3188.44165
3167.0 0.0003158 2716.61035 3144.73389
3033.0 0.0003297 2716.37109 3104.46240
3023.0 0.0003308 2716.13232 3069.34839
2966.0 0.0003372 2715.89355 3039.55103
2959.0 0.0003380 2715.65479 3014.57446
2977.0 0.0003359 2715.41626 2993.65869
2905.0 0.0003442 2715.17798 2975.98022
2962.0 0.0003376 2714.93994 2960.80957
3025.0 0.0003306 2714.70190 2947.56934
2781.0 0.000360 2714.46411 2935.79834
2834.0 0.000353 2714.22632 2925.17285
2842.0 0.000352 2713.98901 2915.48193
2946.0 0.0003394 2713.75171 2906.55640
2933.0 0.0003409 2713.51489 2898.29248
2909.0 0.0003438 2713.27759 2890.59644
2899.0 0.0003449 2713.04102 2883.40625
2796.0 0.000358 2712.80444 2876.67065
2817.0 0.000355 2712.56787 2870.33789
2810.0 0.000356 2712.33179 2864.37207
2788.0 0.000359 2712.09546 2858.74316
2934.0 0.0003408 2711.85986 2853.41772
2833.0 0.000353 2711.62378 2848.37720
2797.0 0.000358 2711.38843 2843.59033
2824.0 0.000354 2711.15308 2839.03979
2826.0 0.000354 2710.91772 2834.70728
2813.0 0.000355 2710.68286 2830.58130
2877.0 0.0003476 2710.44800 2826.64404
2833.0 0.000353 2710.21313 2822.88403
2896.0 0.0003453 2709.97852 2819.29199
2871.0 0.0003483 2709.74438 2815.85034
2795.0 0.000358 2709.51025 2812.55566
2949.0 0.0003391 2709.27612 2809.39526
2881.0 0.0003471 2709.04224 2806.36182
2794.0 0.000358 2708.80859 2803.45020
2835.0 0.000353 2708.57520 2800.65063
2806.0 0.000356 2708.34180 2797.95703
2818.0 0.000355 2708.10864 2795.36670
2734.0 0.000366 2707.87573 2792.87109
2808.0 0.000356 2707.64307 2790.46460
2825.0 0.000354 2707.41040 2788.14502
2872.0 0.0003482 2707.17798 2785.90674
2782.0 0.000359 2706.94580 2783.74390
2688.0 0.000372 2706.71387 2781.65723
2742.0 0.000365 2706.48169 2779.63867
2757.0 0.000363 2706.25024 2777.68799
2818.0 0.000355 2706.01855 2775.79980
2784.0 0.000359 2705.78711 2773.97339
2705.0 0.000370 2705.55591 2772.20581
2725.0 0.000367 2705.32495 2770.49219
2742.0 0.000365 2705.09424 2768.83325
2739.0 0.000365 2704.86328 2767.22607
2815.0 0.000355 2704.63306 2765.66772
2879.0 0.0003473 2704.40259 2764.15698
2771.0 0.000361 2704.17261 2762.69287
2759.0 0.000362 2703.94263 2761.30298
2640.0 0.000379 2703.71265 2759.92651
2758.0 0.000363 2703.48340 2758.59399
2837.0 0.000352 2703.25391 2757.30176
2744.0 0.000364 2703.02466 2756.05103
2700.0 0.000370 2702.79541 2754.84009
2720.0 0.000368 2702.56665 2753.66943
2720.0 0.000368 2702.33789 2752.54004
2726.0 0.000367 2702.10938 2751.46509
2741.0 0.000365 2701.88110 2750.41699
2633.0 0.000380 2701.65308 2749.41187
2749.0 0.000364 2701.42529 2748.45142
2669.0 0.000375 2701.19727 2747.57886
2697.0 0.000371 2700.96973 2746.71826
2686.0 0.000372 2700.74219 2745.91382
2795.0 0.000358 2700.51489 2745.17407
2694.0 0.000371 2700.28809 2744.50952
2616.0 0.000382 2700.06128 2743.93604
2764.0 0.000362 2699.83447 2743.48022
2714.0 0.000368 2699.60791 2743.18262
2755.0 0.000363 2699.38159 2743.12573
2729.0 0.000366 2699.15552 2743.36133
2672.0 0.000374 2698.92944 2744.03687
2713.0 0.000369 2698.70361 2745.30933
2694.0 0.000371 2698.47827 2747.35010
2707.0 0.000369 2698.25269 2750.31494
2690.0 0.000372 2698.02734 2754.28345
2613.0 0.000383 2697.80249 2759.14868
2697.0 0.000371 2697.57764 2764.43774
2724.0 0.000367 2697.35278 2769.07080
2716.0 0.000368 2697.12842 2771.50171
2726.0 0.000367 2696.90405 2770.77319
2644.0 0.000378 2696.67993 2767.49487
2681.0 0.000373 2696.45630 2763.29468
2729.0 0.000366 2696.23242 2759.51978
2706.0 0.000370 2696.00879 2756.74268
2717.0 0.000368 2695.78540 2754.79932
2725.0 0.000367 2695.56201 2752.96826
2615.0 0.000382 2695.33936 2750.38477
2738.0 0.000365 2695.11621 2746.73438
2662.0 0.000376 2694.89380 2742.44800
2773.0 0.000361 2694.67139 2738.17554
2629.0 0.000380 2694.44922 2734.32373
2702.0 0.000370 2694.22681 2731.04346
2705.0 0.000370 2694.00513 2728.33667
2713.0 0.000369 2693.78345 2726.13135
2656.0 0.000377 2693.56177 2724.33618
2623.0 0.000381 2693.34082 2722.85547
2612.0 0.000383 2693.11938 2721.60791
2583.0 0.000387 2692.89844 2720.52710
2669.0 0.000375 2692.67773 2719.56470
2622.0 0.000381 2692.45703 2718.68774
2578.0 0.000388 2692.23682 2717.87573
2659.0 0.000376 2692.01685 2717.11377
2632.0 0.000380 2691.79663 2716.39185
2654.0 0.000377 2691.57690 2715.70288
2726.0 0.000367 2691.35718 2715.04272
2669.0 0.000375 2691.13770 2714.40601
2739.0 0.000365 2690.91846 2713.79053
2703.0 0.000370 2690.69946 2713.19482
2669.0 0.000375 2690.48047 2712.61426
2622.0 0.000381 2690.26196 2712.04956
2680.0 0.000373 2690.04346 2711.49780
2690.0 0.000372 2689.82520 2710.95776
2678.0 0.000373 2689.60718 2710.43018
2687.0 0.000372 2689.38916 2709.91235
2715.0 0.000368 2689.17139 2709.40479
2623.0 0.000381 2688.95410 2708.90552
2716.0 0.000368 2688.73657 2708.41504
2624.0 0.000381 2688.51978 2707.93262
2662.0 0.000376 2688.30273 2707.45654
2751.0 0.000364 2688.08569 2706.98853
2713.0 0.000369 2687.86938 2706.52710
2738.0 0.000365 2687.65308 2706.07153
2692.0 0.000371 2687.43677 2705.62207
2650.0 0.000377 2687.22070 2705.17822
2623.0 0.000381 2687.00513 2700.57813
2598.0 0.000385 2686.78955 2700.19360
2578.0 0.000388 2686.57422 2699.81421
2687.0 0.000372 2686.35889 2699.43896
2649.0 0.000378 2686.14380 2699.06738
2815.0 0.000355 2685.92920 2698.69971
2708.0 0.000369 2685.71436 2698.33594
2649.0 0.000378 2685.50000 2697.97559
2621.0 0.000382 2685.28564 2685.71069
2679.0 0.000373 2685.07178 2685.48926
2588.0 0.000386 2684.85791 2685.27002
2727.0 0.000367 2684.64429 2685.05127
2644.0 0.000378 2684.43091 2684.83325
2777.0 0.000360 2684.21753 2684.61646
2703.0 0.000370 2684.00464 2684.40137
2734.0 0.000366 2683.79150 2684.18677
2622.0 0.000381 2683.57910 2684.00342
2705.0 0.000370 2683.36646 2683.79150
2716.0 0.000368 2683.15430 2683.58008
2663.0 0.000376 2682.94214 2683.36963
2708.0 0.000369 2682.73047 2683.16016
2622.0 0.000381 2682.51855 2682.95264
2684.0 0.000373 2682.30713 2682.74463
2560.0 0.000391 2682.09570 2682.53906
2658.0 0.000376 2681.88501 2682.33374
2666.0 0.000375 2681.67383 2682.12939
2525.0 0.000396 2681.46313 2681.92603
2537.0 0.000394 2681.25293 2681.72388
2634.0 0.000380 2681.04248 2681.51074
2619.0 0.000382 2680.83252 2681.31128
2720.0 0.000368 2680.62256 2681.11230
2559.0 0.000391 2680.41284 2680.79224
2617.0 0.000382 2680.20337 2680.59717
2653.0 0.000377 2679.99414 2680.40283
2665.0 0.000375 2679.78491 2680.21069
2690.0 0.000372 2679.57617 2680.01318
2642.0 0.000379 2679.36743 2679.82300
2642.0 0.000379 2679.15869 2679.63428
2603.0 0.000384 2678.95068 2679.38623
2655.0 0.000377 2678.74243 2679.20068
2691.0 0.000372 2678.53467 2679.01758
2678.0 0.000373 2678.32690 2678.83569
2669.0 0.000375 2678.11938 2678.65552
2662.0 0.000376 2677.91235 2678.47729
2690.0 0.000372 2677.70532 2678.30103
2629.0 0.000380 2677.49829 2678.12646
2674.0 0.000374 2677.29175 2677.95435
2711.0 0.000369 2677.08521 2677.78564
2675.0 0.000374 2676.87866 2677.61841
2647.0 0.000378 2676.67310 2677.45410
2677.0 0.000374 2676.46680 2677.29321
2675.0 0.000374 2676.26123 2677.13501
2714.0 0.000368 2676.05591 2676.98096
2742.0 0.000365 2675.85059 2676.83081
2740.0 0.000365 2675.64551 2676.68481
2649.0 0.000378 2675.44067 2676.54297
2630.0 0.000380 2675.23633 2676.40723
2665.0 0.000375 2675.03174 2676.27686
2710.0 0.000369 2674.82739 2676.15332
2710.0 0.000369 2674.62354 2676.03662
2610.0 0.000383 2674.41943 2675.92822
2688.0 0.000372 2674.21582 2675.82959
2698.0 0.000371 2674.01245 2675.74121
2642.0 0.000379 2673.80933 2675.66553
2609.0 0.000383 2673.60645 2675.60425
2631.0 0.000380 2673.40381 2675.55933
2583.0 0.000387 2673.20093 2675.53491
2663.0 0.000376 2672.99878 2675.53442
2666.0 0.000375 2672.79663 2675.56421
2580.0 0.000388 2672.59448 2675.63306
2663.0 0.000376 2672.39282 2675.75317
2590.0 0.000386 2672.19141 2675.94385
2586.0 0.000387 2671.98999 2676.23169
2795.0 0.000358 2671.78882 2676.65527
2648.0 0.000378 2671.58765 2677.26270
2679.0 0.000373 2671.38721 2678.11401
2626.0 0.000381 2671.18652 2679.27197
2686.0 0.000372 2670.98633 2680.79614
2577.0 0.000388 2670.78613 2682.71606
2665.0 0.000375 2670.58643 2685.01270
2696.0 0.000371 2670.38672 2687.54517
2714.0 0.000368 2670.18726 2689.98438
2720.0 0.000368 2669.98804 2691.79443
2620.0 0.000382 2669.78882 2692.48267
2571.0 0.000389 2669.59009 2692.00830
2748.0 0.000364 2669.39136 2690.84448
2704.0 0.000370 2669.19312 2689.59570
2702.0 0.000370 2668.99463 2688.65991
2640.0 0.000379 2668.79663 2688.16016
2630.0 0.000380 2668.59912 2687.97949
2690.0 0.000372 2668.40137 2687.83594
2640.0 0.000379 2668.20386 2687.45361
2661.0 0.000376 2668.00684 2686.78638
2727.0 0.000367 2667.80981 2686.04614
2701.0 0.000370 2667.61328 2685.52173
2615.0 0.000382 2667.41675 2685.45337
2704.0 0.000370 2667.22046 2686.03271
2628.0 0.000381 2667.02441 2687.45581
2592.0 0.000386 2666.82837 2689.97217
2711.0 0.000369 2666.63257 2693.89502
2697.0 0.000371 2666.43726 2699.58203
2646.0 0.000378 2666.24194 2707.39331
2648.0 0.000378 2666.04688 2717.57544
2725.0 0.000367 2665.85229 2730.09155
2866.0 0.0003489 2665.65747 2744.33887
2791.0 0.000358 2665.46313 2758.64478
2750.0 0.000364 2665.26880 2770.06445
2727.0 0.000367 2665.07495 2775.73291
2797.0 0.000358 2664.88110 2775.44360
2763.0 0.000362 2664.68750 2772.21313
2730.0 0.000366 2664.49438 2769.77124
2731.0 0.000366 2664.30103 2770.47900
2729.0 0.000366 2664.10815 2774.90601
2817.0 0.000355 2663.91577 2781.87964
2747.0 0.000364 2663.72339 2788.50366
2853.0 0.0003505 2663.53101 2791.02124
2723.0 0.000367 2663.33862 2787.02173
2705.0 0.000370 2663.14697 2777.20264
2750.0 0.000364 2662.95557 2764.51025
2609.0 0.000383 2662.76392 2751.97778
2765.0 0.000362 2662.57275 2741.45850
2615.0 0.000382 2662.38208 2733.48462
2736.0 0.000365 2662.19116 2727.58130
2672.0 0.000374 2662.00073 2722.58643
2574.0 0.000389 2661.81055 2717.21875
2637.0 0.000379 2661.62036 2710.87231
2562.0 0.000390 2661.43042 2703.93579
2692.0 0.000371 2661.24072 2697.10840
2674.0 0.000374 2661.05151 2690.93848
2569.0 0.000389 2660.86206 2685.65234
2535.0 0.000394 2660.67310 2681.27466
2653.0 0.000377 2660.48438 2677.72900
2662.0 0.000376 2660.29565 2674.87988
2685.0 0.000372 2660.10718 2672.61597
2666.0 0.000375 2659.91943 2670.80347
2709.0 0.000369 2659.73120 2669.33228
2554.0 0.000392 2659.54370 2668.11694
2587.0 0.000387 2659.35620 2667.09277
2693.0 0.000371 2659.16895 2666.21045
2605.0 0.000384 2658.98193 2665.43701
2561.0 0.000390 2658.79517 2664.75024
2709.0 0.000369 2658.60840 2664.13257
2671.0 0.000374 2658.42212 2663.57202
2553.0 0.000392 2658.23608 2663.05957
2675.0 0.000374 2658.04980 2662.58838
2633.0 0.000380 2657.86426 2662.15308
2570.0 0.000389 2657.67871 2661.74780
2622.0 0.000381 2657.49365 2661.36963
2543.0 0.000393 2657.30859 2661.01587
2685.0 0.000372 2657.12354 2660.68335
2624.0 0.000381 2656.93921 2660.36987
2626.0 0.000381 2656.75464 2660.07520
2590.0 0.000386 2656.57056 2659.79565
2624.0 0.000381 2656.38647 2659.53125
2620.0 0.000382 2656.20288 2659.28076
2631.0 0.000380 2656.01929 2659.24390
2651.0 0.000377 2655.83594 2659.02148
2622.0 0.000381 2655.65308 2658.81104
2536.0 0.000394 2655.46997 2658.62354
2556.0 0.000391 2655.28760 2658.43652
2578.0 0.000388 2655.10522 2658.26050
2659.0 0.000376 2654.92310 2658.09619
2572.0 0.000389 2654.74121 2657.94360
2692.0 0.000371 2654.55957 2657.80249
2634.0 0.000380 2654.37793 2657.77466
2618.0 0.000382 2654.19653 2657.66016
2512.0 0.000398 2654.01563 2657.56519
2610.0 0.000383 2653.83472 2657.47876
2565.0 0.000390 2653.65405 2657.40820
2649.0 0.000378 2653.47388 2657.35425
2524.0 0.000396 2653.29370 2657.31909
2616.0 0.000382 2653.11377 2657.30347
2662.0 0.000376 2652.93433 2657.31128
2669.0 0.000375 2652.75488 2657.34375
2668.0 0.000375 2652.57544 2657.40454
2558.0 0.000391 2652.39648 2657.49609
2704.0 0.000370 2652.21777 2657.62549
2585.0 0.000387 2652.03906 2657.79590
2667.0 0.000375 2651.86060 2658.01465
2550.0 0.000392 2651.68286 2658.29004
2615.0 0.000382 2651.50488 2658.63037
2658.0 0.000376 2651.32715 2659.04980
2539.0 0.000394 2651.14966 2659.56177
2637.0 0.000379 2650.97266 2660.18701
2675.0 0.000374 2650.79565 2660.95215
2644.0 0.000378 2650.61890 2661.89331
2665.0 0.000375 2650.44238 2663.06494
2747.0 0.000364 2650.26611 2664.54712
2638.0 0.000379 2650.09009 2666.46094
2659.0 0.000376 2649.91431 2668.98608
2628.0 0.000381 2649.73853 2672.37402
2599.0 0.000385 2649.56323 2676.97388
2618.0 0.000382 2649.38818 2683.20874
2626.0 0.000381 2649.21338 2691.55298
2697.0 0.000371 2649.03857 2702.48022
2751.0 0.000364 2648.86426 2716.33276
2853.0 0.0003505 2648.68994 2733.14771
2835.0 0.000353 2648.51587 2752.37158
2813.0 0.000355 2648.34204 2772.31006
2972.0 0.0003365 2648.16846 2789.62402
2830.0 0.000353 2647.99512 2800.00708
2943.0 0.0003398 2647.82227 2800.71875
2827.0 0.000354 2647.64941 2793.10156
2848.0 0.000351 2647.47681 2781.50757
2772.0 0.000361 2647.30444 2770.17920
2787.0 0.000359 2647.13208 2761.48779
2797.0 0.000358 2646.96045 2755.88135
2785.0 0.000359 2646.78882 2752.16138
2719.0 0.000368 2646.61719 2747.97852
2654.0 0.000377 2646.44580 2741.08301
2710.0 0.000369 2646.27515 2730.92212
2729.0 0.000366 2646.10425 2718.79590
2766.0 0.000362 2645.93359 2706.51343
2714.0 0.000368 2645.76343 2695.33447
2652.0 0.000377 2645.59351 2685.78882
2629.0 0.000380 2645.42358 2677.97021
2651.0 0.000377 2645.25391 2671.75781
2566.0 0.000390 2645.08472 2666.90991
2682.0 0.000373 2644.91553 2663.16577
2702.0 0.000370 2644.74683 2660.26904
2550.0 0.000392 2644.57788 2658.00269
2714.0 0.000368 2644.40967 2656.19434
2616.0 0.000382 2644.24121 2654.71509
2714.0 0.000368 2644.07349 2653.47510
2616.0 0.000382 2643.90601 2652.41382
2607.0 0.000384 2643.73853 2651.48926
2686.0 0.000372 2643.57104 2650.67090
2639.0 0.000379 2643.40405 2649.94116
2588.0 0.000386 2643.23706 2649.28247
2634.0 0.000380 2643.07080 2649.51416
2531.0 0.000395 2642.90430 2648.97388
2673.0 0.000374 2642.73828 2648.47852
2739.0 0.000365 2642.57251 2648.02002
2611.0 0.000383 2642.40698 2647.59448
2697.0 0.000371 2642.24146 2647.19629
2570.0 0.000389 2642.07666 2646.82422
2643.0 0.000378 2641.91162 2646.47363
2629.0 0.000380 2641.74683 2646.14111
2650.0 0.000377 2641.58252 2646.24121
2629.0 0.000380 2641.41846 2645.94629
2596.0 0.000385 2641.25439 2647.46948
2597.0 0.000385 2641.09082 2647.21899
2584.0 0.000387 2640.92725 2646.98071
2504.0 0.000399 2640.76416 2646.75342
2650.0 0.000377 2640.60107 2646.53540
2520.0 0.000397 2640.43848 2646.32642
2542.0 0.000393 2640.27563 2646.12524
2598.0 0.000385 2640.11353 2645.93262
2607.0 0.000384 2639.95142 2645.74609
2639.0 0.000379 2639.78979 2646.46802
2605.0 0.000384 2639.62817 2646.30420
2711.0 0.000369 2639.46680 2646.14673
2664.0 0.000375 2639.30566 2645.99463
2635.0 0.000380 2639.14502 2645.84839
2770.0 0.000361 2638.98413 2645.70801
2676.0 0.000374 2638.82397 2645.57153
2755.0 0.000363 2638.66382 2645.44067
2587.0 0.000387 2638.50391 2645.31421
2705.0 0.000370 2638.34424 2645.19263
2616.0 0.000382 2638.18506 2645.07471
2557.0 0.000391 2638.02563 2644.96167
2697.0 0.000371 2637.86694 2644.85278
2619.0 0.000382 2637.70825 2644.74829
2694.0 0.000371 2637.54980 2644.64771
2588.0 0.000386 2637.39160 2644.55078
2643.0 0.000378 2637.23364 2644.45874
2696.0 0.000371 2637.07593 2644.37061
2560.0 0.000391 2636.91870 2644.28638
2657.0 0.000376 2636.76123 2644.20654
2611.0 0.000383 2636.60425 2644.13037
2584.0 0.000387 2636.44751 2644.05811
2678.0 0.000373 2636.29102 2643.99072
2659.0 0.000376 2636.13501 2643.92773
2623.0 0.000381 2635.97900 2643.86816
2606.0 0.000384 2635.82300 2643.81396
2561.0 0.000390 2635.66748 2643.75684
2642.0 0.000379 2635.51245 2643.71143
2588.0 0.000386 2635.35718 2643.67090
2602.0 0.000384 2635.20239 2643.63550
2669.0 0.000375 2635.04785 2643.60449
2638.0 0.000379 2634.89355 2643.57837
2619.0 0.000382 2634.73950 2643.55835
2553.0 0.000392 2634.58569 2643.54419
2577.0 0.000388 2634.43213 2643.53125
2650.0 0.000377 2634.27905 2643.52808
2527.0 0.000396 2634.12598 2643.53125
2623.0 0.000381 2633.97314 2643.54102
2667.0 0.000375 2633.82056 2643.55737
2622.0 0.000381 2633.66797 2643.58105
2577.0 0.000388 2633.51587 2643.61182
2686.0 0.000372 2633.36426 2643.65039
2713.0 0.000369 2633.21265 2643.69678
2609.0 0.000383 2633.06128 2643.75220
2678.0 0.000373 2632.90991 2643.81641
2555.0 0.000391 2632.75928 2643.89038
2538.0 0.000394 2632.60864 2643.97412
2638.0 0.000379 2632.45825 2644.06836
2576.0 0.000388 2632.30811 2644.17407
2623.0 0.000381 2632.15820 2644.29248
2552.0 0.000392 2632.00879 2644.42334
2507.0 0.000399 2631.85938 2644.56812
2563.0 0.000390 2631.71021 2644.72705
2549.0 0.000392 2631.56104 2644.90283
2609.0 0.000383 2631.41260 2645.09448
2662.0 0.000376 2631.26416 2645.30493
2675.0 0.000374 2631.11621 2645.53564
2581.0 0.000387 2630.96826 2645.78589
2678.0 0.000373 2630.82080 2646.06055
2553.0 0.000392 2630.67310 2646.33154
2632.0 0.000380 2630.52588 2646.65845
2684.0 0.000373 2630.37915 2647.01587
2640.0 0.000379 2630.23242 2647.40503
2581.0 0.000387 2630.08618 2647.83057
2585.0 0.000387 2629.93994 2648.29639
2684.0 0.000373 2629.79395 2648.80542
2697.0 0.000371 2629.64844 2649.36353
2738.0 0.000365 2629.50293 2649.92017
2576.0 0.000388 2629.35791 2650.59326
2654.0 0.000377 2629.21289 2651.33398
2623.0 0.000381 2629.06812 2652.15234
2645.0 0.000378 2628.92383 2653.05615
2569.0 0.000389 2628.77979 2654.05884
2646.0 0.000378 2628.63599 2655.17456
2648.0 0.000378 2628.49243 2656.41797
2677.0 0.000374 2628.34888 2657.81128
2619.0 0.000382 2628.20581 2659.37671
2593.0 0.000386 2628.06274 2661.14502
2620.0 0.000382 2627.92017 2663.15259
2671.0 0.000374 2627.77783 2665.44165
2733.0 0.000366 2627.63574 2668.07544
2677.0 0.000374 2627.49365 2671.13037
2714.0 0.000368 2627.35229 2674.71411
2666.0 0.000375 2627.21069 2678.98730
2609.0 0.000383 2627.06958 2684.18091
2663.0 0.000376 2626.92871 2690.63428
2687.0 0.000372 2626.78833 2698.85767
2700.0 0.000370 2626.64795 2709.56274
2679.0 0.000373 2626.50781 2723.68042
2716.0 0.000368 2626.36792 2742.44360
2818.0 0.000355 2626.22827 2767.08667
2762.0 0.000362 2626.08911 2798.95459
2895.0 0.0003454 2625.94971 2839.15918
2908.0 0.0003439 2625.81104 2888.09375
3067.0 0.0003261 2625.67261 2944.94434
3046.0 0.0003283 2625.53418 3006.44189
3147.0 0.0003178 2625.39624 3065.53760
3180.0 0.0003145 2625.25830 3111.36792
3271.0 0.0003057 2625.12085 3133.16260
3273.0 0.0003055 2624.98364 3127.70679
3198.0 0.0003127 2624.84644 3102.22852
3172.0 0.0003153 2624.70972 3068.63062
3017.0 0.0003315 2624.57300 3036.89063
3101.0 0.0003225 2624.43677 3012.42480
3034.0 0.0003296 2624.30078 2996.20630
3085.0 0.0003241 2624.16504 2985.13037
3003.0 0.0003330 2624.02954 2973.04614
3141.0 0.0003184 2623.89429 2953.91406
2946.0 0.0003394 2623.75928 2925.70630
2991.0 0.0003343 2623.62451 2891.22241
2835.0 0.000353 2623.49023 2855.07202
2848.0 0.000351 2623.35571 2820.92407
2779.0 0.000360 2623.22168 2790.70947
2780.0 0.000360 2623.08813 2765.30786
2655.0 0.000377 2622.95483 2744.71460
2705.0 0.000370 2622.82153 2728.49292
2677.0 0.000374 2622.68848 2716.00488
2771.0 0.000361 2622.55591 2706.51904
2713.0 0.000369 2622.42358 2699.36768
2594.0 0.000386 2622.29150 2694.07397
2682.0 0.000373 2622.15942 2690.00073
2754.0 0.000363 2622.02808 2686.93750
2679.0 0.000373 2621.89648 2684.57349
2549.0 0.000392 2621.76538 2682.77661
2667.0 0.000375 2621.63428 2681.43066
2615.0 0.000382 2621.50391 2680.45337
2612.0 0.000383 2621.37354 2679.78979
2716.0 0.000368 2621.24341 2679.39990
2706.0 0.000370 2621.11353 2679.25146
2697.0 0.000371 2620.98413 2679.36743
2742.0 0.000365 2620.85449 2679.64258
2702.0 0.000370 2620.72559 2680.10791
2734.0 0.000366 2620.59692 2680.75439
2640.0 0.000379 2620.46851 2681.57446
2641.0 0.000379 2620.34009 2682.56689
2700.0 0.000370 2620.21191 2683.72974
2701.0 0.000370 2620.08423 2685.06201
2688.0 0.000372 2619.95679 2686.56836
2709.0 0.000369 2619.82983 2688.25122
2776.0 0.000360 2619.70264 2690.11914
2686.0 0.000372 2619.57617 2692.17822
2768.0 0.000361 2619.44946 2694.43799
2726.0 0.000367 2619.32324 2696.91357
2721.0 0.000368 2619.19751 2699.55420
2736.0 0.000365 2619.07178 2702.49902
2693.0 0.000371 2618.94653 2705.70825
2776.0 0.000360 2618.82153 2709.20313
2758.0 0.000363 2618.69653 2713.00464
2774.0 0.000360 2618.57202 2717.14478
2833.0 0.000353 2618.44751 2721.65820
2842.0 0.000352 2618.32373 2726.57642
2844.0 0.000352 2618.19971 2731.94971
2787.0 0.000359 2618.07617 2737.79053
2843.0 0.000352 2617.95288 2744.22461
2773.0 0.000361 2617.82983 2751.28418
2881.0 0.0003471 2617.70703 2759.04468
2829.0 0.000353 2617.58472 2767.60352
2813.0 0.000355 2617.46240 2777.06348
2789.0 0.000359 2617.34058 2787.54663
2959.0 0.0003380 2617.21875 2799.20679
2918.0 0.0003427 2617.09741 2812.22656
2890.0 0.0003460 2616.97632 2826.80322
2825.0 0.000354 2616.85522 2843.20947
2938.0 0.0003404 2616.73462 2861.76685
2901.0 0.0003447 2616.61450 2882.84888
2941.0 0.0003400 2616.49414 2906.98071
2976.0 0.0003360 2616.37427 2934.84253
3087.0 0.0003239 2616.25488 2967.32397
3196.0 0.0003129 2616.13550 3005.79321
3054.0 0.0003274 2616.01660 3052.17603
3272.0 0.0003056 2615.89795 3109.45801
3232.0 0.0003094 2615.77930 3181.95972
3386.0 0.0002953 2615.66089 3275.82520
3490.0 0.0002865 2615.54321 3399.53784
3561.0 0.0002808 2615.42554 3563.65698
3782.0 0.0002644 2615.30786 3780.29517
4031.0 0.0002481 2615.19092 4062.11108
4372.0 0.0002287 2615.07397 4419.85742
4792.0 0.0002087 2614.95728 4858.48779
5249.0 0.0001905 2614.84106 5373.60059
5939.0 0.0001684 2614.72485 5942.14502
6371.0 0.0001570 2614.60913 6509.91602
6788.0 0.0001473 2614.49341 6987.63281
6972.0 0.0001434 2614.37817 7272.55713
6774.0 0.0001476 2614.26318 7314.91309
6755.0 0.0001480 2614.14844 7163.13525
6442.0 0.0001552 2614.03418 6931.10449
6300.0 0.0001587 2613.91992 6727.19922
6166.0 0.0001622 2613.80591 6617.94434
6281.0 0.0001592 2613.69189 6624.76074
6565.0 0.0001523 2613.57861 6728.88770
6718.0 0.0001489 2613.46558 6874.53418
6675.0 0.0001498 2613.35278 6980.64600
6532.0 0.0001531 2613.24023 6973.35400
6318.0 0.0001583 2613.12769 6819.11719
5951.0 0.0001680 2613.01587 6532.28369
5670.0 0.0001764 2612.90405 6159.47217
5242.0 0.0001908 2612.79248 5760.25879
4932.0 0.0002028 2612.68115 5385.65625
4830.0 0.0002070 2612.57031 5067.62451
4692.0 0.0002131 2612.45947 4817.21191
4302.0 0.0002325 2612.34937 4627.88428
4356.0 0.0002296 2612.23901 4480.36572
4105.0 0.0002436 2612.12915 4348.11328
4019.0 0.0002488 2612.01929 4207.65869
3896.0 0.0002567 2611.91016 4049.70068
3757.0 0.0002662 2611.80103 3880.30713
3648.0 0.0002741 2611.69238 3712.08936
3387.0 0.0002952 2611.58374 3555.80347
3365.0 0.0002972 2611.47534 3417.50830
3331.0 0.0003002 2611.36768 3298.89404
3233.0 0.0003093 2611.25977 3199.40015
3138.0 0.0003187 2611.15234 3117.36670
2998.0 0.0003336 2611.04541 3050.36572
3025.0 0.0003306 2610.93848 2995.98389
2989.0 0.0003346 2610.83179 2951.78418
2833.0 0.000353 2610.72534 2915.66626
2908.0 0.0003439 2610.61938 2885.84790
2882.0 0.0003470 2610.51343 2860.86914
2906.0 0.0003441 2610.40820 2839.64600
2823.0 0.000354 2610.30298 2821.36523
2895.0 0.0003454 2610.19800 2805.41040
2881.0 0.0003471 2610.09302 2791.33740
2781.0 0.000360 2609.98877 2778.83569
2796.0 0.000358 2609.88477 2767.64404
2766.0 0.000362 2609.78052 2757.56787
2737.0 0.000365 2609.67700 2748.46460
2713.0 0.000369 2609.57397 2740.19849
2663.0 0.000376 2609.47070 2732.67114
2799.0 0.000357 2609.36792 2725.78955
2652.0 0.000377 2609.26538 2719.48071
2727.0 0.000367 2609.16309 2713.68506
2635.0 0.000380 2609.06128 2708.34082
2755.0 0.000363 2608.95947 2703.40430
2725.0 0.000367 2608.85840 2698.83569
2755.0 0.000363 2608.75708 2694.59448
2675.0 0.000374 2608.65625 2690.65161
2632.0 0.000380 2608.55566 2686.98193
2671.0 0.000374 2608.45557 2683.55566
2669.0 0.000375 2608.35547 2680.35254
2691.0 0.000372 2608.25586 2677.35596
2633.0 0.000380 2608.15625 2674.54663
2679.0 0.000373 2608.05713 2671.90771
2716.0 0.000368 2607.95801 2669.42944
2634.0 0.000380 2607.85962 2667.09595
2735.0 0.000366 2607.76099 2664.89893
2720.0 0.000368 2607.66309 2662.82544
2715.0 0.000368 2607.56519 2660.86792
2674.0 0.000374 2607.46802 2659.01978
2598.0 0.000385 2607.37061 2657.27026
2612.0 0.000383 2607.27368 2655.61572
2644.0 0.000378 2607.17700 2654.04980
2676.0 0.000374 2607.08057 2652.56592
2679.0 0.000373 2606.98438 2651.15869
2707.0 0.000369 2606.88843 2649.82520
2657.0 0.000376 2606.79297 2648.56104
2741.0 0.000365 2606.69775 2647.36011
2591.0 0.000386 2606.60278 2646.22266
2623.0 0.000381 2606.50781 2645.14282
2803.0 0.000357 2606.41357 2644.11890
2723.0 0.000367 2606.31934 2643.14893
2699.0 0.000371 2606.22559 2642.23022
2686.0 0.000372 2606.13184 2641.36108
2705.0 0.000370 2606.03857 2640.53931
2618.0 0.000382 2605.94556 2639.76416
2621.0 0.000382 2605.85278 2639.03345
2691.0 0.000372 2605.76050 2638.34741
2620.0 0.000382 2605.66797 2637.70459
2633.0 0.000380 2605.57617 2637.10376
2616.0 0.000382 2605.48462 2636.54688
2685.0 0.000372 2605.39331 2636.03174
2633.0 0.000380 2605.30225 2635.56006
2553.0 0.000392 2605.21118 2635.13110
2613.0 0.000383 2605.12061 2634.74683
2584.0 0.000387 2605.03052 2634.40918
2684.0 0.000373 2604.94043 2634.11890
2668.0 0.000375 2604.85107 2633.87988
2766.0 0.000362 2604.76172 2633.69263
2629.0 0.000380 2604.67261 2633.56274
2621.0 0.000382 2604.58374 2633.49463
2688.0 0.000372 2604.49512 2633.49365
2667.0 0.000375 2604.40674 2633.56665
2678.0 0.000373 2604.31885 2633.72339
2670.0 0.000375 2604.23120 2633.97705
2757.0 0.000363 2604.14380 2634.34155
2711.0 0.000369 2604.05664 2634.83911
2574.0 0.000389 2603.96997 2635.49878
2624.0 0.000381 2603.88330 2636.36133
2715.0 0.000368 2603.79712 2639.58936
2696.0 0.000371 2603.71094 2641.06274
2665.0 0.000375 2603.62524 2642.77173
2742.0 0.000365 2603.53979 2645.25293
2626.0 0.000381 2603.45483 2648.46704
2660.0 0.000376 2603.36987 2652.59424
2693.0 0.000371 2603.28540 2657.87061
2715.0 0.000368 2603.20093 2664.47998
2815.0 0.000355 2603.11694 2672.57007
2864.0 0.0003492 2603.03345 2682.21216
2786.0 0.000359 2602.94995 2694.41992
2771.0 0.000361 2602.86670 2706.79980
2918.0 0.0003427 2602.78394 2720.13989
2913.0 0.0003433 2602.70142 2733.34814
2970.0 0.0003367 2602.61914 2744.75928
2844.0 0.000352 2602.53711 2752.37256
2939.0 0.0003403 2602.45532 2754.82446
2835.0 0.000353 2602.37402 2752.36597
2945.0 0.0003396 2602.29272 2747.97046
2827.0 0.000354 2602.21191 2741.38965
2849.0 0.000351 2602.13135 2735.53418
2890.0 0.0003460 2602.05127 2731.32788
2818.0 0.000355 2601.97119 2728.95728
2788.0 0.000359 2601.89136 2728.03711
2796.0 0.000358 2601.81201 2727.50806
2907.0 0.0003440 2601.73291 2726.59790
2965.0 0.0003373 2601.65405 2724.78394
2821.0 0.000354 2601.57544 2722.73071
2736.0 0.000365 2601.49707 2722.23413
2775.0 0.000360 2601.41919 2723.32690
2790.0 0.000358 2601.34131 2727.60742
2842.0 0.000352 2601.26416 2735.73486
2844.0 0.000352 2601.18677 2748.05835
2890.0 0.0003460 2601.11011 2764.58179
2946.0 0.0003394 2601.03369 2784.69067
2862.0 0.0003494 2600.95752 2807.04248
2832.0 0.000353 2600.88135 2829.24561
2971.0 0.0003366 2600.80566 2848.13232
2853.0 0.0003505 2600.73022 2861.44385
2955.0 0.0003384 2600.65527 2869.41382
2884.0 0.0003467 2600.58032 2874.80957
2968.0 0.0003369 2600.50586 2881.04761
2972.0 0.0003365 2600.43164 2890.32056
3025.0 0.0003306 2600.35767 2902.77612
2964.0 0.0003374 2600.28394 2916.32837
2978.0 0.0003358 2600.21069 2927.02124
3080.0 0.0003247 2600.13770 2930.41406
3052.0 0.0003277 2600.06470 2923.74780
3037.0 0.0003293 2599.99243 2907.58813
2902.0 0.0003446 2599.92017 2885.40649
2959.0 0.0003380 2599.84839 2861.55688
2877.0 0.0003476 2599.77661 2839.38623
2884.0 0.0003467 2599.70532 2820.59424
2897.0 0.0003452 2599.63428 2805.27759
2967.0 0.0003370 2599.56348 2792.26392
2776.0 0.000360 2599.49292 2779.71826
2761.0 0.000362 2599.42285 2766.06567
2828.0 0.000354 2599.35303 2750.79175
2817.0 0.000355 2599.28345 2734.54370
2721.0 0.000368 2599.21411 2718.47656
2792.0 0.000358 2599.14526 2703.52539
2662.0 0.000376 2599.07642 2690.21875
2747.0 0.000364 2599.00806 2678.75317
2615.0 0.000382 2598.93994 2669.08008
2695.0 0.000371 2598.87207 2661.06421
2661.0 0.000376 2598.80444 2654.49512
2718.0 0.000368 2598.73706 2649.15820
2705.0 0.000370 2598.67041 2644.83740
2766.0 0.000362 2598.60376 2641.32837
2709.0 0.000369 2598.53735 2638.45972
2675.0 0.000374 2598.47119 2636.09082
2744.0 0.000364 2598.40552 2634.10645
2648.0 0.000378 2598.33984 2632.42114
2635.0 0.000380 2598.27466 2630.97290
2727.0 0.000367 2598.20996 2629.71362
2650.0 0.000377 2598.14526 2628.61011
2657.0 0.000376 2598.08105 2627.63647
2665.0 0.000375 2598.01685 2626.77319
2665.0 0.000375 2597.95337 2626.00488
2681.0 0.000373 2597.88965 2625.31934
2610.0 0.000383 2597.82666 2624.70898
2612.0 0.000383 2597.76367 2624.16309
2739.0 0.000365 2597.70117 2623.67627
2715.0 0.000368 2597.63892 2623.24219
2655.0 0.000377 2597.57715 2622.85571
2740.0 0.000365 2597.51563 2622.51294
2654.0 0.000377 2597.45410 2622.21143
2636.0 0.000379 2597.39307 2621.94678
2637.0 0.000379 2597.33228 2621.71851
2670.0 0.000375 2597.27173 2621.52124
2658.0 0.000376 2597.21167 2621.35669
2659.0 0.000376 2597.15161 2621.22144
2722.0 0.000367 2597.09204 2621.11450
2687.0 0.000372 2597.03271 2621.03516
2606.0 0.000384 2596.97388 2620.98413
2651.0 0.000377 2596.91504 2620.95850
2581.0 0.000387 2596.85669 2620.95996
2642.0 0.000379 2596.79858 2620.98853
2797.0 0.000358 2596.74072 2621.04541
2657.0 0.000376 2596.68311 2621.13501
2689.0 0.000372 2596.62598 2621.24780
2670.0 0.000375 2596.56909 2621.39258
2684.0 0.000373 2596.51245 2621.56934
2721.0 0.000368 2596.45605 2621.78125
2663.0 0.000376 2596.40015 2622.03198
2716.0 0.000368 2596.34448 2622.32544
2665.0 0.000375 2596.28906 2622.68213
2689.0 0.000372 2596.23364 2623.08276
2646.0 0.000378 2596.17896 2623.55396
2765.0 0.000362 2596.12451 2624.10986
2739.0 0.000365 2596.07031 2624.77026
2720.0 0.000368 2596.01636 2625.55933
2676.0 0.000374 2595.96265 2626.50952
2628.0 0.000381 2595.90918 2627.66528
2828.0 0.000354 2595.85620 2629.03589
2680.0 0.000373 2595.80347 2630.67017
2801.0 0.000357 2595.75098 2632.60815
2719.0 0.000368 2595.69897 2634.85938
2632.0 0.000380 2595.64697 2637.43457
2636.0 0.000379 2595.59546 2640.30688
2688.0 0.000372 2595.54419 2643.41504
2659.0 0.000376 2595.49316 2645.85889
2708.0 0.000369 2595.44263 2649.32471
2704.0 0.000370 2595.39233 2653.14917
2661.0 0.000376 2595.34229 2657.63843
2765.0 0.000362 2595.29248 2663.10620
2691.0 0.000372 2595.24316 2669.76416
2784.0 0.000359 2595.19385 2677.68506
2734.0 0.000366 2595.14502 2686.65869
2841.0 0.000352 2595.09668 2696.19922
2873.0 0.0003481 2595.04834 2703.13330
2798.0 0.000357 2595.00049 2710.73291
2859.0 0.0003498 2594.95264 2715.36938
2753.0 0.000363 2594.90527 2716.30615
2903.0 0.0003445 2594.85815 2713.85254
2788.0 0.000359 2594.81152 2709.20483
2825.0 0.000354 2594.76514 2703.78589
2944.0 0.0003397 2594.71899 2698.72803
2729.0 0.000366 2594.67310 2694.64355
2755.0 0.000363 2594.62769 2691.66284
2770.0 0.000361 2594.58228 2689.49023
2805.0 0.000357 2594.53735 2687.50610
2677.0 0.000374 2594.49292 2684.98804
2794.0 0.000358 2594.44824 2681.44067
2703.0 0.000370 2594.40454 2676.84302
2752.0 0.000363 2594.36060 2671.58936
2828.0 0.000354 2594.31714 2666.21094
2730.0 0.000366 2594.27393 2661.13574
2755.0 0.000363 2594.23120 2656.61816
2783.0 0.000359 2594.18872 2652.77539
2727.0 0.000367 2594.14648 2649.62280
2678.0 0.000373 2594.10449 2647.12744
2688.0 0.000372 2594.06323 2645.22925
2681.0 0.000373 2594.02173 2643.85181
2780.0 0.000360 2593.98071 2642.91284
2675.0 0.000374 2593.93994 2642.34131
2779.0 0.000360 2593.89966 2642.06641
2682.0 0.000373 2593.85962 2642.03345
2739.0 0.000365 2593.81982 2642.19580
2764.0 0.000362 2593.78027 2642.51929
2675.0 0.000374 2593.74121 2642.97729
2739.0 0.000365 2593.70239 2643.55225
2670.0 0.000375 2593.66382 2644.23047
2644.0 0.000378 2593.62549 2645.00391
2716.0 0.000368 2593.58765 2645.86621
2620.0 0.000382 2593.54980 2646.81299
2694.0 0.000371 2593.51245 2647.84424
2848.0 0.000351 2593.47559 2648.95557
2701.0 0.000370 2593.43872 2650.15088
2764.0 0.000362 2593.40234 2651.42578
2766.0 0.000362 2593.36621 2652.78687
2723.0 0.000367 2593.33057 2654.23218
2707.0 0.000369 2593.29492 2655.76611
2739.0 0.000365 2593.25977 2657.39160
2702.0 0.000370 2593.22485 2659.11182
2767.0 0.000361 2593.18994 2660.93140
2787.0 0.000359 2593.15601 2662.85547
2713.0 0.000369 2593.12207 2664.88672
2734.0 0.000366 2593.08813 2667.03418
2676.0 0.000374 2593.05493 2669.30371
2707.0 0.000369 2593.02197 2671.70166
2718.0 0.000368 2592.98901 2674.23657
2712.0 0.000369 2592.95654 2676.91797
2659.0 0.000376 2592.92432 2679.75488
2796.0 0.000358 2592.89258 2682.75732
2784.0 0.000359 2592.86108 2685.93823
2677.0 0.000374 2592.82983 2689.31079
2751.0 0.000364 2592.79883 2692.88867
2820.0 0.000355 2592.76831 2696.68604
2799.0 0.000357 2592.73804 2700.72510
2753.0 0.000363 2592.70801 2705.02051
2750.0 0.000364 2592.67822 2709.59424
2770.0 0.000361 2592.64893 2714.47168
2779.0 0.000360 2592.62012 2719.68140
2720.0 0.000368 2592.59131 2725.24658
2731.0 0.000366 2592.56274 2731.20557
2874.0 0.0003479 2592.53467 2737.59644
2719.0 0.000368 2592.50684 2744.45361
2686.0 0.000372 2592.47925 2751.83154
2851.0 0.000351 2592.45190 2759.77417
2874.0 0.0003479 2592.42505 2768.35156
2793.0 0.000358 2592.39844 2777.62549
2814.0 0.000355 2592.37231 2787.66846
2868.0 0.0003487 2592.34619 2798.58008
2774.0 0.000360 2592.32056 2810.45532
2790.0 0.000358 2592.29517 2823.40430
2861.0 0.0003495 2592.27026 2837.57544
2920.0 0.0003425 2592.24561 2853.11914
2872.0 0.0003482 2592.22095 2870.20972
2920.0 0.0003425 2592.19702 2889.07690
3005.0 0.0003328 2592.17310 2909.98438
2951.0 0.0003389 2592.14966 2933.22192
2954.0 0.0003385 2592.12646 2959.20874
3015.0 0.0003317 2592.10327 2988.41162
3069.0 0.0003258 2592.08105 3021.43970
3161.0 0.0003164 2592.05859 3059.17358
3259.0 0.0003068 2592.03662 3102.71387
3236.0 0.0003090 2592.01489 3153.66943
3305.0 0.0003026 2591.99390 3214.17017
3299.0 0.0003031 2591.97290 3287.09277
3391.0 0.0002949 2591.95190 3376.38330
3539.0 0.0002826 2591.93164 3487.04175
3628.0 0.0002756 2591.91162 3625.10303
3666.0 0.0002728 2591.89185 3798.04395
3919.0 0.0002552 2591.87231 4014.19116
4019.0 0.0002488 2591.85327 4281.97754
4315.0 0.0002317 2591.83423 4610.01660
4791.0 0.0002087 2591.81592 5005.20850
5188.0 0.0001928 2591.79761 5470.19385
5737.0 0.0001743 2591.77979 6001.82031
6464.0 0.0001547 2591.76221 6584.90381
7387.0 0.0001354 2591.74487 7191.82520
8006.0 0.0001249 2591.72803 7783.99170
8712.0 0.0001148 2591.71143 8326.04590
9250.0 0.0001081 2591.69482 8800.48047
9965.0 0.0001004 2591.67896 9203.41699
10114.0 0.0000989 2591.66309 9525.94336
10267.0 0.0000974 2591.64771 9740.24902
10139.0 0.0000986 2591.63281 9809.66504
9724.0 0.0001028 2591.61792 9719.08008
9581.0 0.0001044 2591.60352 9492.66699
9249.0 0.0001081 2591.58911 9181.35352
8581.0 0.0001165 2591.57544 8834.78906
8395.0 0.0001191 2591.56177 8484.75684
8199.0 0.0001220 2591.54883 8148.69189
7763.0 0.0001288 2591.53564 7836.08984
7438.0 0.0001344 2591.52319 7545.55859
7244.0 0.0001380 2591.51099 7261.93701
6980.0 0.0001433 2591.49927 6959.42285
6721.0 0.0001488 2591.48755 6617.72070
6269.0 0.0001595 2591.47632 6236.15820
5680.0 0.0001761 2591.46509 5833.55664
5374.0 0.0001861 2591.45459 5437.28369
4960.0 0.0002016 2591.44409 5070.51709
4549.0 0.0002198 2591.43408 4746.95898
4250.0 0.0002353 2591.42432 4472.41064
3981.0 0.0002512 2591.41479 4247.39551
3956.0 0.0002528 2591.40576 4068.29565
3668.0 0.0002726 2591.39673 3929.35620
3766.0 0.0002655 2591.38867 3823.19727
3798.0 0.0002633 2591.38013 3740.83496
3739.0 0.0002675 2591.37231 3673.59375
3747.0 0.0002669 2591.36499 3613.53613
3716.0 0.0002691 2591.35767 3555.33447
3458.0 0.0002892 2591.35059 3496.36157
3524.0 0.0002838 2591.34424 3436.69214
3481.0 0.0002873 2591.33789 3378.48999
3494.0 0.0002862 2591.33203 3324.50146
3182.0 0.0003143 2591.32642 3276.62500
3247.0 0.0003080 2591.32104 3235.32642
3244.0 0.0003083 2591.31592 3199.59546
3166.0 0.0003159 2591.31128 3167.40967
3156.0 0.0003169 2591.30688 3136.33374
3229.0 0.0003097 2591.30298 3104.43555
3099.0 0.0003227 2591.29907 3070.60181
3051.0 0.0003278 2591.29565 3034.79980
3178.0 0.0003147 2591.29248 2998.03418
3065.0 0.0003263 2591.28979 2961.74048
2948.0 0.0003392 2591.28735 2927.35181
3008.0 0.0003324 2591.28516 2895.79297
2999.0 0.0003334 2591.28320 2867.53711
2833.0 0.000353 2591.28174 2842.68262
2963.0 0.0003375 2591.28052 2821.05298
2943.0 0.0003398 2591.27979 2802.37354
2894.0 0.0003455 2591.27905 2786.30518
2943.0 0.0003398 2591.27881 2772.46484
2798.0 0.000357 2591.27905 2760.49609
2844.0 0.000352 2591.27930 2750.08984
2896.0 0.0003453 2591.28003 2740.95361
2847.0 0.000351 2591.28101 2732.84888
2798.0 0.000357 2591.28223 2725.60034
2838.0 0.000352 2591.28394 2719.05029
2873.0 0.0003481 2591.28613 2713.08740
2855.0 0.0003503 2591.28809 2707.61865
2790.0 0.000358 2591.29077 2702.57837
2867.0 0.0003488 2591.29395 2697.91406
2836.0 0.000353 2591.29712 2693.58618
2765.0 0.000362 2591.30078 2689.54785
2771.0 0.000361 2591.30444 2685.77979
2769.0 0.000361 2591.30859 2682.25195
2740.0 0.000365 2591.31348 2678.94385
2756.0 0.000363 2591.31812 2675.84253
2787.0 0.000359 2591.32324 2672.92529
2787.0 0.000359 2591.32886 2670.17969
2861.0 0.0003495 2591.33472 2667.59424
2739.0 0.000365 2591.34082 2665.15698
2630.0 0.000380 2591.34717 2662.85913
2774.0 0.000360 2591.35400 2660.69116
2748.0 0.000364 2591.36084 2658.64185
2680.0 0.000373 2591.36841 2656.70679
2725.0 0.000367 2591.37622 2654.87988
2767.0 0.000361 2591.38428 2653.15356
2747.0 0.000364 2591.39258 2651.52612
2761.0 0.000362 2591.40112 2649.99072
2696.0 0.000371 2591.41016 2648.54614
2667.0 0.000375 2591.41968 2647.18872
2683.0 0.000373 2591.42944 2645.91479
2720.0 0.000368 2591.43921 2644.72510
2726.0 0.000367 2591.44946 2643.61694
2609.0 0.000383 2591.46021 2642.59302
2826.0 0.000354 2591.47119 2641.65112
2668.0 0.000375 2591.48242 2640.79785
2686.0 0.000372 2591.49390 2640.03491
2764.0 0.000362 2591.50586 2639.37183
2702.0 0.000370 2591.51807 2638.81885
2866.0 0.0003489 2591.53076 2638.39185
2804.0 0.000357 2591.54346 2638.11572
2743.0 0.000365 2591.55664 2638.02344
2625.0 0.000381 2591.57007 2638.16284
2785.0 0.000359 2591.58423 2638.58716
2762.0 0.000362 2591.59814 2639.37012
2664.0 0.000375 2591.61279 2640.59766
2815.0 0.000355 2591.62744 2642.35791
2708.0 0.000369 2591.64258 2644.74365
2752.0 0.000363 2591.65820 2647.83862
2726.0 0.000367 2591.67383 2651.69800
2744.0 0.000364 2591.68994 2656.33618
2779.0 0.000360 2591.70630 2661.68848
2563.0 0.000390 2591.72314 2667.58423
2748.0 0.000364 2591.73999 2673.68506
2681.0 0.000373 2591.75732 2679.49072
2680.0 0.000373 2591.77515 2684.42651
2734.0 0.000366 2591.79321 2688.00781
2676.0 0.000374 2591.81152 2690.02100
2695.0 0.000371 2591.83032 2690.57837
2708.0 0.000369 2591.84937 2690.06836
2688.0 0.000372 2591.86865 2689.04370
2753.0 0.000363 2591.88818 2688.05200
2749.0 0.000364 2591.90820 2687.45044
2696.0 0.000371 2591.92847 2687.29590
2755.0 0.000363 2591.94922 2687.31616
2664.0 0.000375 2591.96997 2686.99561
2685.0 0.000372 2591.99146 2685.77637
2666.0 0.000375 2592.01318 2683.29663
2748.0 0.000364 2592.03491 2679.54443
2737.0 0.000365 2592.05737 2674.79956
2741.0 0.000365 2592.07959 2669.50293
2745.0 0.000364 2592.10254 2664.11011
2716.0 0.000368 2592.12598 2658.98169
2745.0 0.000364 2592.14941 2654.33716
2742.0 0.000365 2592.17334 2650.23315
2756.0 0.000363 2592.19727 2646.58276
2710.0 0.000369 2592.22192 2643.22656
2680.0 0.000373 2592.24683 2640.00513
2777.0 0.000360 2592.27197 2636.83008
2774.0 0.000360 2592.29761 2633.71069
2729.0 0.000366 2592.32324 2630.72192
2744.0 0.000364 2592.34961 2627.93506
2694.0 0.000371 2592.37598 2625.40771
2639.0 0.000379 2592.40283 2623.15430
2744.0 0.000364 2592.42969 2621.17603
2688.0 0.000372 2592.45752 2619.41748
2708.0 0.000369 2592.48511 2617.92773
2646.0 0.000378 2592.51343 2616.64404
2691.0 0.000372 2592.54175 2615.54053
2676.0 0.000374 2592.57031 2614.58716
2671.0 0.000374 2592.59937 2613.76294
2780.0 0.000360 2592.62891 2613.04468
2791.0 0.000358 2592.65869 2612.41382
2637.0 0.000379 2592.68872 2611.85352
2664.0 0.000375 2592.71924 2611.35229
2688.0 0.000372 2592.74976 2610.87573
2611.0 0.000383 2592.78076 2610.46118
2734.0 0.000366 2592.81201 2610.08179
2771.0 0.000361 2592.84399 2609.73047
2715.0 0.000368 2592.87598 2609.40503
2725.0 0.000367 2592.90845 2609.10107
2787.0 0.000359 2592.94116 2608.81714
2651.0 0.000377 2592.97388 2608.55127
2688.0 0.000372 2593.00732 2608.30176
2686.0 0.000372 2593.04077 2608.06763
2659.0 0.000376 2593.07495 2607.84668
2754.0 0.000363 2593.10913 2607.63843
2786.0 0.000359 2593.14380 2607.44360
2610.0 0.000383 2593.17896 2607.25879
2645.0 0.000378 2593.21411 2607.08447
2701.0 0.000370 2593.24976 2606.92090
2692.0 0.000371 2593.28589 2606.76563
2711.0 0.000369 2593.32227 2606.62012
2708.0 0.000369 2593.35864 2606.48389
2721.0 0.000368 2593.39575 2606.35596
2675.0 0.000374 2593.43311 2606.23511
2684.0 0.000373 2593.47070 2606.12305
2648.0 0.000378 2593.50854 2606.01807
2666.0 0.000375 2593.54688 2605.92017
2725.0 0.000367 2593.58545 2605.83105
2690.0 0.000372 2593.62427 2605.74756
2688.0 0.000372 2593.66357 2605.67285
2706.0 0.000370 2593.70313 2605.60474
2690.0 0.000372 2593.74292 2605.54297
2627.0 0.000381 2593.78345 2605.48926
2691.0 0.000372 2593.82397 2605.44312
2701.0 0.000370 2593.86475 2605.40405
2686.0 0.000372 2593.90601 2605.37280
2862.0 0.0003494 2593.94751 2605.34937
2712.0 0.000369 2593.98926 2605.33350
2685.0 0.000372 2594.03149 2605.32642
2711.0 0.000369 2594.07397 2605.32813
2656.0 0.000377 2594.11719 2605.33936
2680.0 0.000373 2594.16016 2605.36060
2663.0 0.000376 2594.20386 2605.39160
2724.0 0.000367 2594.24756 2605.43481
2656.0 0.000377 2594.29175 2605.48999
2777.0 0.000360 2594.33618 2605.55762
2664.0 0.000375 2594.38110 2605.64014
2683.0 0.000373 2594.42627 2605.73950
2700.0 0.000370 2594.47192 2605.85547
2696.0 0.000371 2594.51782 2605.99365
2678.0 0.000373 2594.56396 2606.15308
2718.0 0.000368 2594.61035 2606.34131
2730.0 0.000366 2594.65723 2606.61694
2746.0 0.000364 2594.70459 2606.87842
2799.0 0.000357 2594.75195 2607.19019
2774.0 0.000360 2594.79956 2607.56641
2729.0 0.000366 2594.84790 2608.02612
2643.0 0.000378 2594.89648 2608.59399
2734.0 0.000366 2594.94531 2609.30054
2721.0 0.000368 2594.99414 2610.18555
2682.0 0.000373 2595.04395 2611.29248
2641.0 0.000379 2595.09375 2612.67090
2669.0 0.000375 2595.14404 2614.36938
2688.0 0.000372 2595.19434 2616.43433
2722.0 0.000367 2595.24512 2618.92505
2618.0 0.000382 2595.29639 2621.80176
2703.0 0.000370 2595.34766 2625.07178
2851.0 0.000351 2595.39966 2628.67090
2798.0 0.000357 2595.45166 2632.45972
2719.0 0.000368 2595.50439 2636.19531
2732.0 0.000366 2595.55713 2639.53271
2773.0 0.000361 2595.61011 2642.06128
2871.0 0.0003483 2595.66357 2643.43896
2815.0 0.000355 2595.71753 2643.56592
2745.0 0.000364 2595.77173 2642.63306
2867.0 0.0003488 2595.82617 2641.04468
2838.0 0.000352 2595.88086 2639.23828
2811.0 0.000356 2595.93604 2637.55640
2791.0 0.000358 2595.99146 2636.20776
2814.0 0.000355 2596.04736 2635.26318
2753.0 0.000363 2596.10327 2634.67822
2813.0 0.000355 2596.15967 2634.30298
2726.0 0.000367 2596.21680 2633.92212
2786.0 0.000359 2596.27393 2633.32275
2771.0 0.000361 2596.33130 2632.38696
2802.0 0.000357 2596.38916 2631.14404
2785.0 0.000359 2596.44727 2629.74048
2846.0 0.000351 2596.50586 2628.36743
2772.0 0.000361 2596.56445 2627.19751
2811.0 0.000356 2596.62354 2626.37036
2700.0 0.000370 2596.68311 2625.98682
2667.0 0.000375 2596.74292 2626.13696
2576.0 0.000388 2596.80298 2626.90186
2709.0 0.000369 2596.86353 2628.36670
2712.0 0.000369 2596.92432 2630.62305
2667.0 0.000375 2596.98535 2633.76367
2701.0 0.000370 2597.04712 2637.89111
2672.0 0.000374 2597.10889 2643.08838
2735.0 0.000366 2597.17090 2647.32397
2776.0 0.000360 2597.23340 2654.86353
2812.0 0.000356 2597.29614 2663.54590
2803.0 0.000357 2597.35938 2673.24463
2818.0 0.000355 2597.42285 2683.66528
2717.0 0.000368 2597.48682 2694.29077
2731.0 0.000366 2597.55103 2704.36523
2811.0 0.000356 2597.61523 2712.95068
2935.0 0.0003407 2597.68018 2719.16089
2845.0 0.000351 2597.74536 2722.52515
2885.0 0.0003466 2597.81079 2723.15771
2855.0 0.0003503 2597.87671 2719.73413
2852.0 0.0003506 2597.94287 2716.86304
2859.0 0.0003498 2598.00928 2714.33154
2915.0 0.0003431 2598.07617 2710.42456
2819.0 0.000355 2598.14331 2706.51294
2856.0 0.0003501 2598.21094 2702.76245
2825.0 0.000354 2598.27881 2699.16309
2817.0 0.000355 2598.34692 2696.55493
2776.0 0.000360 2598.41553 2692.53955
2907.0 0.0003440 2598.48413 2687.87061
2817.0 0.000355 2598.55347 2682.47095
2833.0 0.000353 2598.62305 2676.49194
2804.0 0.000357 2598.69263 2670.10986
2907.0 0.0003440 2598.76294 2663.70728
2732.0 0.000366 2598.83374 2657.92456
2834.0 0.000353 2598.90430 2651.28979
2682.0 0.000373 2598.97559 2645.48779
2703.0 0.000370 2599.04712 2640.12061
2724.0 0.000367 2599.11890 2635.27124
2749.0 0.000364 2599.19116 2630.99146
2656.0 0.000377 2599.26392 2629.78564
2745.0 0.000364 2599.33667 2626.64087
2732.0 0.000366 2599.40991 2623.99561
2610.0 0.000383 2599.48340 2621.75073
2701.0 0.000370 2599.55737 2619.92090
2675.0 0.000374 2599.63159 2618.36499
2744.0 0.000364 2599.70630 2617.12305
2623.0 0.000381 2599.78125 2616.10083
2750.0 0.000364 2599.85645 2615.25830
2752.0 0.000363 2599.93188 2614.56104
2732.0 0.000366 2600.00781 2613.98218
2723.0 0.000367 2600.08423 2613.50000
2723.0 0.000367 2600.16064 2613.09717
2753.0 0.000363 2600.23755 2612.75854
2718.0 0.000368 2600.31494 2612.47437
2773.0 0.000361 2600.39233 2612.23657
2743.0 0.000365 2600.47046 2612.03906
2725.0 0.000367 2600.54883 2611.87573
2612.0 0.000383 2600.62744 2611.74219
2587.0 0.000387 2600.70630 2611.63647
2705.0 0.000370 2600.78564 2611.55566
2678.0 0.000373 2600.86523 2611.49634
2696.0 0.000371 2600.94507 2611.45801
2781.0 0.000360 2601.02539 2611.43970
2665.0 0.000375 2601.10620 2611.43921
2734.0 0.000366 2601.18701 2611.45654
2653.0 0.000377 2601.26831 2611.49023
2694.0 0.000371 2601.35034 2611.54077
2737.0 0.000365 2601.43213 2611.60718
2670.0 0.000375 2601.51440 2611.69067
2615.0 0.000382 2601.59717 2611.79199
2748.0 0.000364 2601.68018 2611.91187
2653.0 0.000377 2601.76343 2612.05249
2788.0 0.000359 2601.84717 2612.21680
2686.0 0.000372 2601.93115 2612.41040
2775.0 0.000360 2602.01563 2612.63672
2702.0 0.000370 2602.10034 2612.90576
2770.0 0.000361 2602.18530 2613.22632
2609.0 0.000383 2602.27075 2613.61108
2694.0 0.000371 2602.35645 2614.07324
2756.0 0.000363 2602.44238 2614.62988
2730.0 0.000366 2602.52905 2615.29541
2700.0 0.000370 2602.61572 2616.08398
2669.0 0.000375 2602.70288 2617.01221
2679.0 0.000373 2602.79028 2618.08447
2816.0 0.000355 2602.87793 2619.30273
2859.0 0.0003498 2602.96606 2620.65332
2779.0 0.000360 2603.05444 2622.10742
2707.0 0.000369 2603.14331 2623.61230
2738.0 0.000365 2603.23242 2625.07764
2811.0 0.000356 2603.32178 2626.38257
2736.0 0.000365 2603.41187 2627.39282
2780.0 0.000360 2603.50171 2627.99780
2764.0 0.000362 2603.59229 2628.15942
2794.0 0.000358 2603.68311 2627.93555
2787.0 0.000359 2603.77441 2627.45288
2795.0 0.000358 2603.86572 2626.85669
2648.0 0.000378 2603.95776 2626.26709
2802.0 0.000357 2604.04980 2625.76489
2773.0 0.000361 2604.14233 2625.38599
2737.0 0.000365 2604.23511 2625.12378
2723.0 0.000367 2604.32837 2624.94043
2716.0 0.000368 2604.42212 2624.77002
2752.0 0.000363 2604.51587 2624.53687
2762.0 0.000362 2604.61011 2624.18335
2752.0 0.000363 2604.70459 2623.69580
2719.0 0.000368 2604.79956 2623.09351
2769.0 0.000361 2604.89478 2622.43115
2743.0 0.000365 2604.99023 2621.76196
2777.0 0.000360 2605.08643 2621.12866
2698.0 0.000371 2605.18237 2620.56152
2769.0 0.000361 2605.27905 2620.07153
2670.0 0.000375 2605.37622 2619.66650
2781.0 0.000360 2605.47339 2619.34595
2701.0 0.000370 2605.57104 2619.10474
2721.0 0.000368 2605.66895 2618.93677
2704.0 0.000370 2605.76733 2618.83276
2674.0 0.000374 2605.86597 2618.78467
2729.0 0.000366 2605.96484 2618.78516
2686.0 0.000372 2606.06421 2618.82275
2709.0 0.000369 2606.16406 2618.89331
2711.0 0.000369 2606.26416 2618.98901
2731.0 0.000366 2606.36426 2619.12061
2668.0 0.000375 2606.46509 2619.25439
2768.0 0.000361 2606.56592 2619.40210
2709.0 0.000369 2606.66748 2619.56323
2671.0 0.000374 2606.76929 2619.73438
2635.0 0.000380 2606.87109 2619.91455
2697.0 0.000371 2606.97388 2620.12964
2765.0 0.000362 2607.07642 2620.32593
2717.0 0.000368 2607.17969 2620.52832
2744.0 0.000364 2607.28320 2620.73779
2712.0 0.000369 2607.38672 2620.95313
2789.0 0.000359 2607.49097 2621.17358
2724.0 0.000367 2607.59546 2621.40088
2737.0 0.000365 2607.70020 2621.63989
2744.0 0.000364 2607.80542 2621.87817
2728.0 0.000367 2607.91089 2622.11987
2720.0 0.000368 2608.01660 2622.36841
2736.0 0.000365 2608.12305 2622.62134
2728.0 0.000367 2608.22925 2622.87964
2688.0 0.000372 2608.33618 2623.15698
2854.0 0.0003504 2608.44336 2623.42383
2670.0 0.000375 2608.55103 2623.75562
2739.0 0.000365 2608.65894 2624.03418
2728.0 0.000367 2608.76709 2624.31738
2798.0 0.000357 2608.87573 2624.60693
2656.0 0.000377 2608.98462 2624.90063
2730.0 0.000366 2609.09375 2625.19922
2696.0 0.000371 2609.20361 2625.50391
2704.0 0.000370 2609.31348 2625.81396
2694.0 0.000371 2609.42383 2626.13403
2768.0 0.000361 2609.53442 2626.45483
2727.0 0.000367 2609.64526 2626.78076
2740.0 0.000365 2609.75659 2627.11353
2805.0 0.000357 2609.86841 2627.45093
2819.0 0.000355 2609.98022 2627.82397
2721.0 0.000368 2610.09277 2628.17383
2846.0 0.000351 2610.20557 2628.53003
2685.0 0.000372 2610.31860 2628.85010
2836.0 0.000353 2610.43188 2629.22070
2718.0 0.000368 2610.54565 2629.59790
2719.0 0.000368 2610.65967 2629.98120
2779.0 0.000360 2610.77417 2630.37305
2797.0 0.000358 2610.88867 2630.77417
2774.0 0.000360 2611.00391 2631.18018
2668.0 0.000375 2611.11938 2631.59546
2699.0 0.000371 2611.23511 2632.01782
2782.0 0.000359 2611.35132 2632.44873
2748.0 0.000364 2611.46753 2632.88770
2757.0 0.000363 2611.58447 2633.33740
2772.0 0.000361 2611.70166 2633.79590
2793.0 0.000358 2611.81909 2634.26440
2774.0 0.000360 2611.93701 2634.74243
2710.0 0.000369 2612.05542 2635.23145
2747.0 0.000364 2612.17383 2635.73120
2673.0 0.000374 2612.29272 2636.24268
2769.0 0.000361 2612.41162 2636.76587
2821.0 0.000354 2612.53149 2637.30273
2782.0 0.000359 2612.65137 2637.85132
2724.0 0.000367 2612.77173 2638.41406
2721.0 0.000368 2612.89209 2638.99194
2743.0 0.000365 2613.01318 2639.58423
2855.0 0.0003503 2613.13452 2640.19312
2791.0 0.000358 2613.25610 2640.81787
2720.0 0.000368 2613.37817 2641.46021
2856.0 0.0003501 2613.50049 2642.12256
2799.0 0.000357 2613.62329 2642.80444
2771.0 0.000361 2613.74609 2643.50757
2734.0 0.000366 2613.86938 2644.23242
2646.0 0.000378 2613.99316 2644.98193
2763.0 0.000362 2614.11719 2645.75684
2734.0 0.000366 2614.24146 2646.55908
2785.0 0.000359 2614.36646 2647.39160
2693.0 0.000371 2614.49170 2648.25537
2876.0 0.0003477 2614.61694 2649.15332
2759.0 0.000362 2614.74268 2650.08936
2767.0 0.000361 2614.86890 2651.06567
2776.0 0.000360 2614.99512 2652.08838
2716.0 0.000368 2615.12207 2653.16016
2650.0 0.000377 2615.24927 2654.28589
2757.0 0.000363 2615.37695 2655.47534
2785.0 0.000359 2615.50464 2656.73706
2798.0 0.000357 2615.63281 2658.07983
2749.0 0.000364 2615.76123 2659.54443
2771.0 0.000361 2615.89038 2661.10278
2788.0 0.000359 2616.01953 2662.80200
2804.0 0.000357 2616.14893 2664.67725
2779.0 0.000360 2616.27905 2666.77148
2812.0 0.000356 2616.40918 2669.13965
2712.0 0.000369 2616.53979 2671.84961
2841.0 0.000352 2616.67065 2674.98096
2849.0 0.000351 2616.80225 2678.62915
2733.0 0.000366 2616.93384 2682.89478
2786.0 0.000359 2617.06567 2687.88843
2804.0 0.000357 2617.19824 2693.71362
2892.0 0.0003458 2617.33081 2700.47070
2744.0 0.000364 2617.46387 2708.23364
2829.0 0.000353 2617.59717 2717.01685
2794.0 0.000358 2617.73096 2726.81274
2908.0 0.0003439 2617.86499 2737.49976
2806.0 0.000356 2617.99927 2748.84863
2823.0 0.000354 2618.13428 2760.48657
2870.0 0.0003484 2618.26929 2771.80786
2949.0 0.0003391 2618.40479 2782.01001
2955.0 0.0003384 2618.54053 2790.20068
2954.0 0.0003385 2618.67676 2795.64819
2902.0 0.0003446 2618.81348 2798.03687
2966.0 0.0003372 2618.94995 2797.63672
2960.0 0.0003378 2619.08740 2795.19116
2874.0 0.0003479 2619.22485 2791.64209
2829.0 0.000353 2619.36255 2787.86230
2925.0 0.0003419 2619.50098 2784.48730
2916.0 0.0003429 2619.63965 2781.87988
2879.0 0.0003473 2619.77832 2780.14429
2942.0 0.0003399 2619.91772 2779.14111
2836.0 0.000353 2620.05713 2778.53564
2858.0 0.0003499 2620.19727 2777.86475
2843.0 0.000352 2620.33765 2776.67773
2946.0 0.0003394 2620.47827 2774.68237
2930.0 0.0003413 2620.61938 2771.84668
2908.0 0.0003439 2620.76050 2768.38892
2823.0 0.000354 2620.90210 2764.66089
2794.0 0.000358 2621.04443 2761.01611
2852.0 0.0003506 2621.18677 2757.73828
2822.0 0.000354 2621.32935 2755.01880
2818.0 0.000355 2621.47241 2752.96704
2805.0 0.000357 2621.61597 2751.63550
2833.0 0.000353 2621.75977 2751.03833
2852.0 0.0003506 2621.90381 2751.16284
2884.0 0.0003467 2622.04834 2751.97949
2841.0 0.000352 2622.19312 2753.44727
2900.0 0.0003448 2622.33838 2755.52319
2875.0 0.0003478 2622.48389 2758.16187
2775.0 0.000360 2622.62964 2761.32495
2879.0 0.0003473 2622.77588 2764.97656
2921.0 0.0003423 2622.92236 2769.09155
2951.0 0.0003389 2623.06934 2773.65015
2979.0 0.0003357 2623.21655 2778.64673
2854.0 0.0003504 2623.36426 2784.07959
2893.0 0.0003457 2623.51196 2789.95703
2867.0 0.0003488 2623.66040 2796.28979
2954.0 0.0003385 2623.80908 2803.10791
2851.0 0.000351 2623.95825 2810.43018
2911.0 0.0003435 2624.10742 2818.30176
3014.0 0.0003318 2624.25708 2826.75708
2915.0 0.0003431 2624.40698 2835.84692
2936.0 0.0003406 2624.55762 2845.61890
2977.0 0.0003359 2624.70850 2856.14478
2984.0 0.0003351 2624.85913 2867.48535
3011.0 0.0003321 2625.01074 2879.73413
2985.0 0.0003350 2625.16235 2892.97681
2880.0 0.0003472 2625.31470 2907.31396
2969.0 0.0003368 2625.46729 2922.88013
3081.0 0.0003246 2625.61987 2939.80273
3077.0 0.0003250 2625.77295 2958.26636
3052.0 0.0003277 2625.92676 2978.46094
3139.0 0.0003186 2626.08057 3000.63086
3179.0 0.0003146 2626.23462 3025.05933
3216.0 0.0003109 2626.38916 3052.14526
3081.0 0.0003246 2626.54419 3082.34253
3180.0 0.0003145 2626.69922 3116.25757
3248.0 0.0003079 2626.85498 3154.78369
3265.0 0.0003063 2627.01099 3198.94482
3365.0 0.0002972 2627.16724 3250.10669
3328.0 0.0003005 2627.32397 3310.08789
3376.0 0.0002962 2627.48071 3381.19116
3390.0 0.0002950 2627.63818 3466.24756
3599.0 0.0002779 2627.79590 3568.66748
3759.0 0.0002660 2627.95386 3692.39331
3862.0 0.0002589 2628.11230 3842.07324
3760.0 0.0002660 2628.27100 4022.46045
3933.0 0.0002543 2628.42993 4238.76611
4114.0 0.0002431 2628.58936 4495.83789
4401.0 0.0002272 2628.74951 4797.97021
4587.0 0.0002180 2628.90942 5148.20313
4907.0 0.0002038 2629.06982 5548.35303
5223.0 0.0001915 2629.23071 5996.85742
5864.0 0.0001705 2629.39209 6489.10840
6507.0 0.0001537 2629.55347 7014.27490
7352.0 0.0001360 2629.71558 7554.33936
8271.0 0.0001209 2629.87744 8082.53027
9266.0 0.0001079 2630.04004 8565.64844
9882.0 0.0001012 2630.20288 8969.42871
10219.0 0.0000979 2630.36646 9268.60645
10253.0 0.0000975 2630.52979 9455.47559
9995.0 0.0001001 2630.69360 9544.06641
9952.0 0.0001005 2630.85815 9561.36816
9709.0 0.0001030 2631.02295 9535.52734
9607.0 0.0001041 2631.18774 9486.33594
9320.0 0.0001073 2631.35303 9421.64355
9221.0 0.0001084 2631.51880 9339.48340
8981.0 0.0001113 2631.68506 9233.29395
9122.0 0.0001096 2631.85132 9096.73633
9042.0 0.0001106 2632.01807 8924.76953
8956.0 0.0001117 2632.18530 8713.38184
8682.0 0.0001152 2632.35278 8461.28125
8615.0 0.0001161 2632.52051 8170.70117
7995.0 0.0001251 2632.68848 7849.54297
7696.0 0.0001299 2632.85718 7510.72900
7377.0 0.0001356 2633.02588 7168.14551
6966.0 0.0001436 2633.19531 6832.57471
6629.0 0.0001509 2633.36475 6508.89795
6111.0 0.0001636 2633.53442 6196.96094
5720.0 0.0001748 2633.70483 5893.67334
5472.0 0.0001827 2633.87524 5597.27979
5227.0 0.0001913 2634.04639 5308.28857
5070.0 0.0001972 2634.21777 5031.17969
4746.0 0.0002107 2634.38940 4769.14355
4387.0 0.0002279 2634.56128 4527.00195
4306.0 0.0002322 2634.73364 4307.39941
4090.0 0.0002445 2634.90625 4111.52881
3901.0 0.0002563 2635.07935 3938.81030
3757.0 0.0002662 2635.25269 3788.04248
3529.0 0.0002834 2635.42651 3657.47192
3585.0 0.0002789 2635.60059 3544.92798
3346.0 0.0002989 2635.77490 3448.42529
3353.0 0.0002982 2635.94995 3365.82593
3236.0 0.0003090 2636.12500 3295.24976
3278.0 0.0003051 2636.30054 3234.92285
3144.0 0.0003181 2636.47632 3183.29419
3257.0 0.0003070 2636.65259 3138.85938
3019.0 0.0003312 2636.82886 3100.46973
3190.0 0.0003135 2637.00586 3067.05273
3105.0 0.0003221 2637.18311 3037.76465
3006.0 0.0003327 2637.36084 3011.90015
2970.0 0.0003367 2637.53857 2988.89575
2972.0 0.0003365 2637.71680 2968.27686
3017.0 0.0003315 2637.89551 2949.66846
2996.0 0.0003338 2638.07446 2932.78540
2914.0 0.0003432 2638.25391 2917.39063
2985.0 0.0003350 2638.43359 2903.30298
3014.0 0.0003318 2638.61353 2890.35254
2954.0 0.0003385 2638.79395 2878.42261
2996.0 0.0003338 2638.97461 2867.39136
2931.0 0.0003412 2639.15576 2857.17188
2867.0 0.0003488 2639.33716 2847.69458
2927.0 0.0003416 2639.51904 2838.88745
2901.0 0.0003447 2639.70117 2830.68335
2840.0 0.000352 2639.88330 2823.03687
2939.0 0.0003403 2640.06641 2815.89453
2869.0 0.0003486 2640.24951 2809.21631
2961.0 0.0003377 2640.43311 2802.96680
2873.0 0.0003481 2640.61694 2797.10913
2814.0 0.000355 2640.80103 2791.61523
2875.0 0.0003478 2640.98584 2786.45435
2869.0 0.0003486 2641.17065 2781.60474
2932.0 0.0003411 2641.35620 2777.04004
2890.0 0.0003460 2641.54175 2772.74854
2967.0 0.0003370 2641.72754 2768.70410
2806.0 0.000356 2641.91382 2764.89526
2801.0 0.000357 2642.10059 2761.30103
2870.0 0.0003484 2642.28760 2757.91138
2801.0 0.000357 2642.47510 2754.71289
2846.0 0.000351 2642.66284 2751.69507
2795.0 0.000358 2642.85083 2748.84473
2748.0 0.000364 2643.03906 2746.15674
2795.0 0.000358 2643.22803 2743.61792
2861.0 0.0003495 2643.41724 2741.22144
2786.0 0.000359 2643.60669 2738.96167
2725.0 0.000367 2643.79663 2736.83154
2800.0 0.000357 2643.98657 2734.82544
2894.0 0.0003455 2644.17700 2732.93701
2738.0 0.000365 2644.36792 2731.16284
2808.0 0.000356 2644.55933 2729.49927
2885.0 0.0003466 2644.75098 2727.94263
2784.0 0.000359 2644.94287 2726.49121
2748.0 0.000364 2645.13501 2725.14380
2760.0 0.000362 2645.32764 2723.89917
2729.0 0.000366 2645.52051 2722.75806
2756.0 0.000363 2645.71411 2721.72290
2757.0 0.000363 2645.90771 2720.79956
2873.0 0.0003481 2646.10181 2719.99268
2837.0 0.000352 2646.29590 2719.30957
2807.0 0.000356 2646.49097 2718.76343
2691.0 0.000372 2646.68604 2718.36963
2772.0 0.000361 2646.88135 2718.14258
2846.0 0.000351 2647.07690 2718.10352
2841.0 0.000352 2647.27319 2718.27539
2655.0 0.000377 2647.46973 2718.67944
2889.0 0.0003461 2647.66675 2719.33789
2856.0 0.0003501 2647.86377 2720.27368
2882.0 0.0003470 2648.06104 2721.50586
2873.0 0.0003481 2648.25928 2723.04541
2778.0 0.000360 2648.45752 2724.89648
2824.0 0.000354 2648.65601 2727.04932
2878.0 0.0003475 2648.85498 2729.47998
2856.0 0.0003501 2649.05420 2732.13623
2812.0 0.000356 2649.25391 2734.93359
2879.0 0.0003473 2649.45361 2737.75684
2846.0 0.000351 2649.65405 2740.46289
2903.0 0.0003445 2649.85498 2742.89941
2832.0 0.000353 2650.05591 2744.96265
2896.0 0.0003453 2650.25732 2746.63770
2968.0 0.0003369 2650.45898 2748.02759
2873.0 0.0003481 2650.66113 2749.32959
2894.0 0.0003455 2650.86353 2750.80127
2867.0 0.0003488 2651.06641 2752.69824
2858.0 0.0003499 2651.26953 2755.24438
2865.0 0.0003490 2651.47290 2758.61304
2821.0 0.000354 2651.67700 2762.92285
2890.0 0.0003460 2651.88110 2768.23145
2942.0 0.0003399 2652.08545 2774.55835
2861.0 0.0003495 2652.29053 2781.87476
2823.0 0.000354 2652.49561 2790.12866
2914.0 0.0003432 2652.70142 2799.25854
2917.0 0.0003428 2652.90723 2809.16553
2991.0 0.0003343 2653.11353 2819.72119
2942.0 0.0003399 2653.32007 2830.68042
2968.0 0.0003369 2653.52710 2841.64355
2943.0 0.0003398 2653.73462 2852.01294
3035.0 0.0003295 2653.94238 2861.05908
3049.0 0.0003280 2654.15015 2868.04346
3033.0 0.0003297 2654.35864 2872.48633
2881.0 0.0003471 2654.56738 2874.34277
3097.0 0.0003229 2654.77661 2874.05981
3025.0 0.0003306 2654.98608 2872.41260
3015.0 0.0003317 2655.19580 2870.24805
2942.0 0.0003399 2655.40576 2868.28516
3003.0 0.0003330 2655.61621 2866.98926
2905.0 0.0003442 2655.82739 2866.54395
3056.0 0.0003272 2656.03833 2866.86084
3018.0 0.0003313 2656.25000 2867.59570
3051.0 0.0003278 2656.46191 2868.18066
3113.0 0.0003212 2656.67432 2867.89746
2918.0 0.0003427 2656.88696 2866.02588
3037.0 0.0003293 2657.09985 2862.05322
3092.0 0.0003234 2657.31299 2855.84961
2954.0 0.0003385 2657.52661 2847.70581
3005.0 0.0003328 2657.74048 2838.22461
2947.0 0.0003393 2657.95508 2828.08984
3018.0 0.0003313 2658.16968 2817.92749
2926.0 0.0003418 2658.38501 2808.19141
2923.0 0.0003421 2658.60034 2799.15991
2877.0 0.0003476 2658.81592 2790.94385
2933.0 0.0003409 2659.03198 2783.53003
2833.0 0.000353 2659.24854 2776.82202
2872.0 0.0003482 2659.46533 2770.65137
2888.0 0.0003463 2659.68237 2764.82788
2863.0 0.0003493 2659.90015 2759.18433
2830.0 0.000353 2660.11792 2753.62964
2833.0 0.000353 2660.33618 2748.14868
2902.0 0.0003446 2660.55469 2742.80493
2742.0 0.000365 2660.77368 2737.68628
2814.0 0.000355 2660.99292 2732.87964
2733.0 0.000366 2661.21265 2728.44336
2857.0 0.0003500 2661.43237 2724.41479
2812.0 0.000356 2661.65259 2720.80029
2824.0 0.000354 2661.87329 2717.59399
2808.0 0.000356 2662.09448 2714.78149
2840.0 0.000352 2662.31592 2712.33179
2715.0 0.000368 2662.53735 2710.22095
2767.0 0.000361 2662.75977 2708.41504
2826.0 0.000354 2662.98218 2706.88306
2763.0 0.000362 2663.20483 2705.59326
2835.0 0.000353 2663.42773 2704.51636
2773.0 0.000361 2663.65137 2703.62256
2695.0 0.000371 2663.87524 2702.88745
2845.0 0.000351 2664.09912 2702.28809
2905.0 0.0003442 2664.32397 2701.80469
2716.0 0.000368 2664.54883 2701.42139
2712.0 0.000369 2664.77393 2701.12329
2745.0 0.000364 2664.99976 2700.90137
2784.0 0.000359 2665.22534 2700.74414
2816.0 0.000355 2665.45190 2700.65210
2824.0 0.000354 2665.67847 2700.60742
2754.0 0.000363 2665.90527 2700.61206
2788.0 0.000359 2666.13257 2700.66357
2755.0 0.000363 2666.36011 2700.75952
2731.0 0.000366 2666.58838 2700.90015
2677.0 0.000374 2666.81689 2701.02881
2700.0 0.000370 2667.04541 2701.25732
2840.0 0.000352 2667.27441 2701.53125
2714.0 0.000368 2667.50415 2701.85425
2808.0 0.000356 2667.73364 2702.22949
2778.0 0.000360 2667.96387 2702.67798
2734.0 0.000366 2668.19458 2703.17212
2746.0 0.000364 2668.42529 2703.73657
2771.0 0.000361 2668.65625 2704.38184
2751.0 0.000364 2668.88794 2705.12402
2760.0 0.000362 2669.11987 2705.96924
2641.0 0.000379 2669.35205 2706.94043
2839.0 0.000352 2669.58472 2708.02783
2816.0 0.000355 2669.81738 2709.30981
2769.0 0.000361 2670.05078 2710.78516
2833.0 0.000353 2670.28418 2712.47705
2787.0 0.000359 2670.51831 2714.41650
2821.0 0.000354 2670.75269 2716.62646
2805.0 0.000357 2670.98755 2719.12524
2816.0 0.000355 2671.22241 2721.92944
2747.0 0.000364 2671.45801 2725.05835
2767.0 0.000361 2671.69360 2728.49805
2835.0 0.000353 2671.92969 2732.26245
2771.0 0.000361 2672.16626 2736.35742
2857.0 0.0003500 2672.40308 2740.73755
2846.0 0.000351 2672.64014 2745.36548
2774.0 0.000360 2672.87744 2750.15479
2959.0 0.0003380 2673.11548 2754.96045
2923.0 0.0003421 2673.35352 2759.58203
2877.0 0.0003476 2673.59229 2763.72729
2873.0 0.0003481 2673.83105 2767.12256
2889.0 0.0003461 2674.07031 2769.52881
2843.0 0.000352 2674.30981 2770.81177
2921.0 0.0003423 2674.54980 2771.00073
2860.0 0.0003497 2674.79004 2770.26904
2930.0 0.0003413 2675.03076 2768.89160
2894.0 0.0003455 2675.27173 2767.16504
2851.0 0.000351 2675.51294 2765.35303
2802.0 0.000357 2675.75464 2763.66016
2864.0 0.0003492 2675.99658 2762.19165
2781.0 0.000360 2676.23926 2760.99365
2906.0 0.0003441 2676.48193 2760.03809
2793.0 0.000358 2676.72485 2759.22998
2891.0 0.0003459 2676.96826 2758.44556
2811.0 0.000356 2677.21216 2757.58276
2921.0 0.0003423 2677.45630 2756.42090
2965.0 0.0003373 2677.70068 2754.96191
2884.0 0.0003467 2677.94556 2753.22876
2841.0 0.000352 2678.19092 2751.29736
2693.0 0.000371 2678.43628 2749.28394
2738.0 0.000365 2678.68237 2747.29639
2767.0 0.000361 2678.92847 2745.42773
2752.0 0.000363 2679.17529 2743.74756
2802.0 0.000357 2679.42212 2742.29517
2835.0 0.000353 2679.66919 2741.09570
2798.0 0.000357 2679.91699 2740.15723
2786.0 0.000359 2680.16479 2739.48120
2781.0 0.000360 2680.41333 2739.05933
2830.0 0.000353 2680.66187 2738.88135
2744.0 0.000364 2680.91113 2738.95923
2757.0 0.000363 2681.16040 2739.21997
2739.0 0.000365 2681.41016 2739.67529
2777.0 0.000360 2681.66016 2740.30713
2733.0 0.000366 2681.91064 2741.10254
2800.0 0.000357 2682.16138 2742.04517
2848.0 0.000351 2682.41260 2743.12354
2836.0 0.000353 2682.66406 2744.32617
2810.0 0.000356 2682.91602 2745.64624
2829.0 0.000353 2683.16797 2747.08081
2829.0 0.000353 2683.42041 2748.62500
2836.0 0.000353 2683.67358 2750.27588
2884.0 0.0003467 2683.92651 2752.03394
2793.0 0.000358 2684.18018 2753.90161
2807.0 0.000356 2684.43433 2755.88184
2774.0 0.000360 2684.68848 2757.97656
2767.0 0.000361 2684.94287 2760.19116
2818.0 0.000355 2685.19800 2762.53394
2827.0 0.000354 2685.45337 2765.00732
2800.0 0.000357 2685.70923 2767.62378
2823.0 0.000354 2685.96509 2770.38940
2743.0 0.000365 2686.22168 2773.31348
2868.0 0.0003487 2686.47803 2776.40771
2810.0 0.000356 2686.73511 2779.68457
2802.0 0.000357 2686.99268 2783.15503
2785.0 0.000359 2687.25049 2786.84009
2774.0 0.000360 2687.50854 2790.75024
2820.0 0.000355 2687.76709 2794.90649
2765.0 0.000362 2688.02588 2799.33008
2814.0 0.000355 2688.28491 2804.04297
2869.0 0.0003486 2688.54443 2809.07275
2936.0 0.0003406 2688.80444 2814.44653
2795.0 0.000358 2689.06470 2820.19897
2902.0 0.0003446 2689.32520 2826.36328
2819.0 0.000355 2689.58594 2832.98877
2885.0 0.0003466 2689.84741 2840.11743
2946.0 0.0003394 2690.10889 2847.81689
2925.0 0.0003419 2690.37109 2856.15479
2899.0 0.0003449 2690.63354 2865.20605
2887.0 0.0003464 2690.89575 2875.07324
2829.0 0.000353 2691.15918 2885.89404
2851.0 0.000351 2691.42212 2897.81665
2857.0 0.0003500 2691.68604 2911.05713
2975.0 0.0003361 2691.95020 2925.87109
2948.0 0.0003392 2692.21436 2942.58057
2895.0 0.0003454 2692.47925 2961.62134
3039.0 0.0003291 2692.74438 2983.50537
3024.0 0.0003307 2693.00977 3008.90503
2967.0 0.0003370 2693.27563 3038.60889
3041.0 0.0003288 2693.54175 3073.56396
3114.0 0.0003211 2693.80811 3114.85840
3237.0 0.0003089 2694.07520 3163.78735
3055.0 0.0003273 2694.34204 3220.59619
3277.0 0.0003052 2694.60986 3288.98730
3271.0 0.0003057 2694.87769 3369.33179
3310.0 0.0003021 2695.14624 3463.07617
3397.0 0.0002944 2695.41479 3571.45630
3486.0 0.0002869 2695.68335 3694.50903
3508.0 0.0002851 2695.95288 3835.02368
3720.0 0.0002688 2696.22241 3991.94849
3797.0 0.0002634 2696.49243 4164.54053
3881.0 0.0002577 2696.76270 4350.87012
4105.0 0.0002436 2697.03345 4547.86230
4472.0 0.0002236 2697.30444 4750.28906
4721.0 0.0002118 2697.57568 4951.37500
4935.0 0.0002026 2697.84766 5140.04834
5315.0 0.0001881 2698.11963 5311.78906
5557.0 0.0001800 2698.39209 5456.06494
5598.0 0.0001786 2698.66479 5567.90430
5787.0 0.0001728 2698.93774 5646.14990
5976.0 0.0001673 2699.21118 5693.54932
5885.0 0.0001699 2699.48511 5715.12109
6005.0 0.0001665 2699.75928 5716.91943
5947.0 0.0001682 2700.03394 5705.20166
5864.0 0.0001705 2700.30859 5686.03467
5775.0 0.0001732 2700.58398 5664.90771
5687.0 0.0001758 2700.85938 5646.02588
5617.0 0.0001780 2701.13550 5631.40332
5626.0 0.0001777 2701.41162 5620.21484
5778.0 0.0001731 2701.68848 5608.70459
5615.0 0.0001781 2701.96509 5590.93115
5710.0 0.0001751 2702.24243 5560.15283
5674.0 0.0001762 2702.52002 5510.66650
5538.0 0.0001806 2702.79810 5439.29297
5451.0 0.0001835 2703.07642 5346.05957
5353.0 0.0001868 2703.35498 5233.62354
5197.0 0.0001924 2703.63428 5106.67383
5112.0 0.0001956 2703.91357 4970.48877
4993.0 0.0002003 2704.19336 4830.57031
4756.0 0.0002103 2704.47314 4691.91455
4583.0 0.0002182 2704.75366 4558.35645
4443.0 0.0002251 2705.03442 4432.72021
4390.0 0.0002278 2705.31567 4316.15771
4182.0 0.0002391 2705.59717 4208.66504
4199.0 0.0002382 2705.87915 4109.10107
4182.0 0.0002391 2706.16113 4015.75073
3961.0 0.0002525 2706.44360 3926.68237
3822.0 0.0002616 2706.72632 3840.55737
3738.0 0.0002675 2707.00977 3756.60522
3657.0 0.0002734 2707.29321 3674.97168
3635.0 0.0002751 2707.57715 3596.33911
3453.0 0.0002896 2707.86133 3521.65674
3343.0 0.0002991 2708.14575 3451.72095
3375.0 0.0002963 2708.43091 3387.05713
3317.0 0.0003015 2708.71606 3327.92505
3285.0 0.0003044 2709.00195 3274.23682
3201.0 0.0003124 2709.28784 3225.69238
3120.0 0.0003205 2709.57397 3181.77832
3127.0 0.0003198 2709.86060 3142.02856
3101.0 0.0003225 2710.14771 3105.93701
3064.0 0.0003264 2710.43530 3073.14429
2976.0 0.0003360 2710.72290 3043.37354
3056.0 0.0003272 2711.01099 3016.42920
3101.0 0.0003225 2711.29956 2992.10938
3027.0 0.0003304 2711.58813 2970.26465
2951.0 0.0003389 2711.87744 2950.68799
2932.0 0.0003411 2712.16675 2933.19312
2864.0 0.0003492 2712.45654 2917.57886
2920.0 0.0003425 2712.74683 2903.65503
2906.0 0.0003441 2713.03711 2891.22559
2751.0 0.000364 2713.32788 2880.11572
2832.0 0.000353 2713.61914 2870.17212
2865.0 0.0003490 2713.91064 2861.25562
2859.0 0.0003498 2714.20239 2853.24536
2870.0 0.0003484 2714.49487 2846.02075
2902.0 0.0003446 2714.78735 2839.49121
2822.0 0.000354 2715.08008 2833.56616
2759.0 0.000362 2715.37354 2828.17114
2712.0 0.000369 2715.66724 2823.24316
2710.0 0.000369 2715.96118 2818.72656
2794.0 0.000358 2716.25537 2814.57056
2773.0 0.000361 2716.55005 2810.73486
2931.0 0.0003412 2716.84521 2807.18408
2951.0 0.0003389 2717.14038 2803.88770
2739.0 0.000365 2717.43604 2800.82251
2757.0 0.000363 2717.73218 2797.96289
2866.0 0.0003489 2718.02856 2795.29297
2775.0 0.000360 2718.32520 2792.79395
2648.0 0.000378 2718.62231 2790.45239
2808.0 0.000356 2718.91968 2788.25610
2749.0 0.000364 2719.21729 2786.22217
2846.0 0.000351 2719.51563 2784.28491
2743.0 0.000365 2719.81396 2782.46265
2728.0 0.000367 2720.11279 2780.74805
2708.0 0.000369 2720.41187 2779.13208
2809.0 0.000356 2720.71143 2777.61108
2809.0 0.000356 2721.01123 2776.17725
2805.0 0.000357 2721.31152 2774.82422
2740.0 0.000365 2721.61182 2773.54883
2812.0 0.000356 2721.91284 2772.34497
2753.0 0.000363 2722.21387 2771.20850
2783.0 0.000359 2722.51538 2770.13599
2773.0 0.000361 2722.81763 2769.12329
2767.0 0.000361 2723.11938 2768.16748
2802.0 0.000357 2723.42236 2767.26587
2806.0 0.000356 2723.72510 2766.42163
2856.0 0.0003501 2724.02856 2765.63062
2836.0 0.000353 2724.33228 2764.87183
2850.0 0.000351 2724.63623 2764.15601
2808.0 0.000356 2724.94043 2763.47876
2832.0 0.000353 2725.24512 2762.84131
2749.0 0.000364 2725.55029 2762.24097
2785.0 0.000359 2725.85547 2761.67432
2733.0 0.000366 2726.16113 2761.14307
2744.0 0.000364 2726.46729 2760.64087
2754.0 0.000363 2726.77368 2760.16919
2689.0 0.000372 2727.08032 2759.72559
2785.0 0.000359 2727.38745 2759.31201
2764.0 0.000362 2727.69507 2758.92261
2708.0 0.000369 2728.00269 2758.55786
2723.0 0.000367 2728.31055 2758.21704
2782.0 0.000359 2728.61914 2757.89893
2805.0 0.000357 2728.92798 2757.60742
2782.0 0.000359 2729.23706 2757.33203
2759.0 0.000362 2729.54663 2757.07666
2695.0 0.000371 2729.85669 2756.84082
2815.0 0.000355 2730.16650 2756.62256
2684.0 0.000373 2730.47705 2756.42236
2743.0 0.000365 2730.78809 2756.23926
2756.0 0.000363 2731.09912 2756.07202
2737.0 0.000365 2731.41064 2755.91968
2586.0 0.000387 2731.72266 2755.78589
2661.0 0.000376 2732.03491 2755.66333
2771.0 0.000361 2732.34766 2755.55688
2771.0 0.000361 2732.66064 2755.46265
2711.0 0.000369 2732.97363 2755.38232
2642.0 0.000379 2733.28735 2755.31372
2753.0 0.000363 2733.60132 2755.25757
2757.0 0.000363 2733.91553 2755.21460
2702.0 0.000370 2734.23022 2755.18066
2676.0 0.000374 2734.54541 2755.15747
2682.0 0.000373 2734.86060 2755.14600
2641.0 0.000379 2735.17627 2755.14526
2736.0 0.000365 2735.49219 2755.15503
2782.0 0.000359 2735.80884 2755.17529
2792.0 0.000358 2736.12549 2755.20288
2680.0 0.000373 2736.44238 2755.24121
2606.0 0.000384 2736.75977 2755.28857
2749.0 0.000364 2737.07764 2755.34399
2799.0 0.000357 2737.39575 2755.40820
2734.0 0.000366 2737.71436 2755.48145
2693.0 0.000371 2738.03296 2755.56348
2763.0 0.000362 2738.35205 2755.65088
2709.0 0.000369 2738.67139 2755.74658
2743.0 0.000365 2738.99121 2755.83936
2790.0 0.000358 2739.31128 2755.95142
2712.0 0.000369 2739.63184 2756.06982
2650.0 0.000377 2739.95288 2756.19629
2796.0 0.000358 2740.27368 2756.32886
2621.0 0.000382 2740.59546 2756.46899
2742.0 0.000365 2740.91724 2756.61499
2712.0 0.000369 2741.23975 2756.76807
2711.0 0.000369 2741.56201 2756.92822
2742.0 0.000365 2741.88477 2757.09473
2654.0 0.000377 2742.20801 2757.23560
2757.0 0.000363 2742.53174 2757.63721
2812.0 0.000356 2742.85547 2757.82397
2721.0 0.000368 2743.17993 2758.01733
2735.0 0.000366 2743.50464 2758.21704
2766.0 0.000362 2743.82935 2758.42236
2773.0 0.000361 2744.15479 2758.63379
2726.0 0.000367 2744.48022 2758.85229
2813.0 0.000355 2744.80615 2759.07764
2708.0 0.000369 2745.13257 2759.30811
2739.0 0.000365 2745.45947 2759.54443
2704.0 0.000370 2745.78589 2760.26489
2724.0 0.000367 2746.11353 2760.51685
2761.0 0.000362 2746.44092 2760.69214
2679.0 0.000373 2746.76929 2760.95825
2698.0 0.000371 2747.09766 2761.23071
2753.0 0.000363 2747.42603 2761.50903
2675.0 0.000374 2747.75537 2761.79517
2761.0 0.000362 2748.08472 2762.20020
2741.0 0.000365 2748.41431 2762.50195
2711.0 0.000369 2748.74463 2762.81006
2694.0 0.000371 2749.07495 2763.12598
2717.0 0.000368 2749.40552 2763.45044
2744.0 0.000364 2749.73682 2763.78198
2680.0 0.000373 2750.06812 2764.12305
2737.0 0.000365 2750.39990 2764.47144
2769.0 0.000361 2750.73193 2764.82959
2682.0 0.000373 2751.06445 2765.19800
2654.0 0.000377 2751.39722 2765.81543
2638.0 0.000379 2751.73022 2766.20508
2658.0 0.000376 2752.06372 2766.60547
2770.0 0.000361 2752.39746 2767.01880
2788.0 0.000359 2752.73193 2767.44312
2673.0 0.000374 2753.06616 2767.88037
2729.0 0.000366 2753.40088 2768.33301
2661.0 0.000376 2753.73608 2768.79858
2675.0 0.000374 2754.07178 2769.28247
2704.0 0.000370 2754.40747 2769.78320
2722.0 0.000367 2754.74414 2770.30444
2732.0 0.000366 2755.08032 2770.84521
2576.0 0.000388 2755.41724 2771.41089
2685.0 0.000372 2755.75439 2772.00244
2725.0 0.000367 2756.09204 2772.62524
2728.0 0.000367 2756.42993 2773.28149
2728.0 0.000367 2756.76807 2773.97559
2691.0 0.000372 2757.10669 2774.71558
2677.0 0.000374 2757.44556 2775.50684
2812.0 0.000356 2757.78491 2776.35767
2784.0 0.000359 2758.12451 2777.27686
2792.0 0.000358 2758.46436 2778.27368
2750.0 0.000364 2758.80469 2779.36182
2810.0 0.000356 2759.14526 2780.55322
2763.0 0.000362 2759.48608 2781.86182
2622.0 0.000381 2759.82739 2783.30273
2790.0 0.000358 2760.16919 2784.88965
2742.0 0.000365 2760.51123 2786.64185
2794.0 0.000358 2760.85352 2788.57178
2756.0 0.000363 2761.19604 2790.69775
2755.0 0.000363 2761.53906 2793.03613
2739.0 0.000365 2761.88257 2795.59766
2776.0 0.000360 2762.22607 2798.39453
2837.0 0.000352 2762.57007 2801.43091
2804.0 0.000357 2762.91455 2804.70898
2774.0 0.000360 2763.25903 2808.21875
2701.0 0.000370 2763.60400 2811.94922
2754.0 0.000363 2763.94946 2815.87817
2802.0 0.000357 2764.29541 2819.99121
2796.0 0.000358 2764.64111 2824.27954
2824.0 0.000354 2764.98779 2828.76074
2761.0 0.000362 2765.33423 2833.46997
2850.0 0.000351 2765.68140 2838.46777
2700.0 0.000370 2766.02856 2843.81787
2823.0 0.000354 2766.37646 2849.57495
2762.0 0.000362 2766.72437 2855.77539
2821.0 0.000354 2767.07275 2862.41284
2864.0 0.0003492 2767.42163 2869.43530
2954.0 0.0003385 2767.77051 2876.82520
2862.0 0.0003494 2768.12036 2884.48804
2755.0 0.000363 2768.46997 2892.35767
2931.0 0.0003412 2768.82007 2900.39722
2905.0 0.0003442 2769.17041 2908.57690
2989.0 0.0003346 2769.52124 2916.87720
2932.0 0.0003411 2769.87231 2925.24438
2978.0 0.0003358 2770.22363 2933.56299
2876.0 0.0003477 2770.57544 2941.63940
3045.0 0.0003284 2770.92773 2949.21338
2987.0 0.0003348 2771.28003 2955.95630
2975.0 0.0003361 2771.63281 2961.55249
3048.0 0.0003281 2771.98608 2965.75293
2984.0 0.0003351 2772.33936 2968.43701
2939.0 0.0003403 2772.69312 2969.68823
3044.0 0.0003285 2773.04736 2969.67725
3057.0 0.0003271 2773.40210 2968.66968
2990.0 0.0003344 2773.75659 2966.90967
2933.0 0.0003409 2774.11206 2964.63159
2933.0 0.0003409 2774.46729 2962.00244
3085.0 0.0003241 2774.82324 2959.12939
2967.0 0.0003370 2775.17920 2956.07251
2959.0 0.0003380 2775.53564 2952.82813
3094.0 0.0003232 2775.89258 2949.35132
3044.0 0.0003285 2776.25000 2945.54224
2956.0 0.0003383 2776.60742 2941.28149
2928.0 0.0003415 2776.96484 2936.45190
2894.0 0.0003455 2777.32324 2930.99146
2956.0 0.0003383 2777.68188 2924.91846
2895.0 0.0003454 2778.04077 2918.33667
2946.0 0.0003394 2778.39990 2911.41528
2887.0 0.0003464 2778.75928 2904.33643
2845.0 0.000351 2779.11914 2897.28003
2855.0 0.0003503 2779.47925 2890.37109
2761.0 0.000362 2779.84009 2883.70435
2876.0 0.0003477 2780.20093 2877.31323
2827.0 0.000354 2780.56201 2871.22485
2856.0 0.0003501 2780.92383 2865.43188
2749.0 0.000364 2781.28540 2859.93359
2782.0 0.000359 2781.64746 2854.71436
2809.0 0.000356 2782.01050 2849.77246
2769.0 0.000361 2782.37305 2845.09106
2801.0 0.000357 2782.73633 2840.68384
2786.0 0.000359 2783.09985 2836.55835
2850.0 0.000351 2783.46362 2832.72827
2809.0 0.000356 2783.82788 2829.20679
2702.0 0.000370 2784.19238 2825.99902
2817.0 0.000355 2784.55737 2823.10767
2754.0 0.000363 2784.92261 2820.52100
2744.0 0.000364 2785.28784 2818.22754
2753.0 0.000363 2785.65381 2816.20776
2786.0 0.000359 2786.02026 2814.44263
2755.0 0.000363 2786.38696 2812.90894
2744.0 0.000364 2786.75366 2811.58911
2707.0 0.000369 2787.12085 2810.46289
2671.0 0.000374 2787.48828 2809.50708
2809.0 0.000356 2787.85620 2808.70557
2632.0 0.000380 2788.22485 2808.04150
2669.0 0.000375 2788.59302 2807.49634
2698.0 0.000371 2788.96191 2807.05615
2652.0 0.000377 2789.33130 2806.71021
2807.0 0.000356 2789.70068 2806.44531
2685.0 0.000372 2790.07080 2806.25195
2684.0 0.000373 2790.44092 2806.12329
2682.0 0.000373 2790.81152 2806.04956
2753.0 0.000363 2791.18237 2806.02563
2697.0 0.000371 2791.55371 2806.04761
2694.0 0.000371 2791.92529 2806.11157
2729.0 0.000366 2792.29712 2806.21582
2734.0 0.000366 2792.66943 2806.35767
2699.0 0.000371 2793.04199 2806.53833
2793.0 0.000358 2793.41479 2806.75610
2686.0 0.000372 2793.78784 2807.01318
2625.0 0.000381 2794.16162 2807.31201
2722.0 0.000367 2794.53540 2807.65503
2790.0 0.000358 2794.90942 2808.04492
2727.0 0.000367 2795.28418 2808.48242
2651.0 0.000377 2795.65894 2808.97607
2623.0 0.000381 2796.03418 2809.52368
2641.0 0.000379 2796.40991 2810.13086
2681.0 0.000373 2796.78589 2810.79810
2688.0 0.000372 2797.16187 2811.52710
2686.0 0.000372 2797.53833 2812.31738
2696.0 0.000371 2797.91528 2813.16577
2744.0 0.000364 2798.29248 2814.06812
2798.0 0.000357 2798.67041 2815.01636
2735.0 0.000366 2799.04810 2816.00000
2780.0 0.000360 2799.42627 2816.99927
2735.0 0.000366 2799.80469 2817.99536
2720.0 0.000368 2800.18359 2818.96094
2725.0 0.000367 2800.56274 2819.86499
2788.0 0.000359 2800.94238 2820.67285
2710.0 0.000369 2801.32202 2821.35449
2819.0 0.000355 2801.70264 2821.89111
2807.0 0.000356 2802.08276 2822.27856
2731.0 0.000366 2802.46362 2822.52490
2750.0 0.000364 2802.84497 2822.65527
2728.0 0.000367 2803.22656 2822.70264
2738.0 0.000365 2803.60840 2822.69800
2733.0 0.000366 2803.99072 2822.67334
2715.0 0.000368 2804.37280 2822.26221
2737.0 0.000365 2804.75586 2822.26758
2830.0 0.000353 2805.13916 2822.30322
2702.0 0.000370 2805.52246 2822.37305
2754.0 0.000363 2805.90625 2822.47021
2633.0 0.000380 2806.29028 2822.58618
2783.0 0.000359 2806.67505 2822.70605
2692.0 0.000371 2807.06006 2822.81323
2619.0 0.000382 2807.44507 2822.89429
2704.0 0.000370 2807.83032 2822.56030
2677.0 0.000374 2808.21631 2822.16211
2776.0 0.000360 2808.60254 2822.13232
2683.0 0.000373 2808.98877 2822.07642
2766.0 0.000362 2809.37573 2822.00562
2645.0 0.000378 2809.76294 2821.73584
2766.0 0.000362 2810.15039 2821.67236
2742.0 0.000365 2810.53809 2821.62720
2718.0 0.000368 2810.92603 2821.61279
2802.0 0.000357 2811.31470 2821.62183
2768.0 0.000361 2811.70361 2821.66284
2798.0 0.000357 2812.09253 2821.73584
2706.0 0.000370 2812.48218 2821.15967
2732.0 0.000366 2812.87158 2821.30298
2774.0 0.000360 2813.26172 2821.47778
2753.0 0.000363 2813.65234 2821.47852
2753.0 0.000363 2814.04321 2821.71216
2666.0 0.000375 2814.43408 2821.97070
2751.0 0.000364 2814.82544 2822.25220
2739.0 0.000365 2815.21704 2822.55493
2666.0 0.000375 2815.60938 2822.87598
2745.0 0.000364 2816.00171 2823.21338
2689.0 0.000372 2816.39453 2823.56592
2639.0 0.000379 2816.78735 2823.92969
2704.0 0.000370 2817.18066 2824.30493
2816.0 0.000355 2817.57446 2824.69067
2685.0 0.000372 2817.96851 2825.08447
2747.0 0.000364 2818.36279 2825.46729
2758.0 0.000363 2818.75732 2825.87524
2722.0 0.000367 2819.15259 2826.28955
2653.0 0.000377 2819.54785 2826.70850
2752.0 0.000363 2819.94336 2827.13281
2686.0 0.000372 2820.33936 2827.56274
2692.0 0.000371 2820.73608 2827.99634
2686.0 0.000372 2821.13232 2828.43506
2733.0 0.000366 2821.52954 2828.87744
2770.0 0.000361 2821.92676 2829.32275
2731.0 0.000366 2822.32446 2829.77295
2729.0 0.000366 2822.72241 2830.22705
2810.0 0.000356 2823.12061 2830.68433
2781.0 0.000360 2823.51929 2831.14648
2665.0 0.000375 2823.91797 2831.61108
2710.0 0.000369 2824.31738 2832.08105
2734.0 0.000366 2824.71704 2832.55322
2640.0 0.000379 2825.11694 2833.03003
2724.0 0.000367 2825.51709 2833.50952
2669.0 0.000375 2825.91772 2833.99463
2775.0 0.000360 2826.31836 2834.48218
2744.0 0.000364 2826.71997 2834.97363
2700.0 0.000370 2827.12134 2835.47021
2632.0 0.000380 2827.52319 2835.97021
2751.0 0.000364 2827.92529 2836.47437
2752.0 0.000363 2828.32788 2836.98242
2707.0 0.000369 2828.73071 2837.49438
2699.0 0.000371 2829.13379 2838.01221
2787.0 0.000359 2829.53735 2838.53320
2766.0 0.000362 2829.94116 2839.05981
2787.0 0.000359 2830.34546 2839.59155
2703.0 0.000370 2830.74976 2840.12793
2732.0 0.000366 2831.15454 2840.66992
2613.0 0.000383 2831.55981 2841.21655
2704.0 0.000370 2831.96509 2841.77026
2718.0 0.000368 2832.37085 2842.32813
2734.0 0.000366 2832.77710 2842.89307
2662.0 0.000376 2833.18311 2843.46387
2692.0 0.000371 2833.59009 2844.04199
2761.0 0.000362 2833.99731 2844.62769
2720.0 0.000368 2834.40479 2845.21899
2765.0 0.000362 2834.81226 2845.81934
2748.0 0.000364 2835.22021 2846.42700
2672.0 0.000374 2835.62866 2847.04321
2767.0 0.000361 2836.03735 2847.66895
2754.0 0.000363 2836.44653 2848.30298
2653.0 0.000377 2836.85547 2848.94775
2748.0 0.000364 2837.26514 2849.60400
2706.0 0.000370 2837.67529 2850.27075
2696.0 0.000371 2838.08545 2850.95093
2694.0 0.000371 2838.49609 2851.64331
2771.0 0.000361 2838.90698 2852.34985
2737.0 0.000365 2839.31836 2853.40210
2729.0 0.000366 2839.72998 2854.14160
2683.0 0.000373 2840.14160 2854.89990
2819.0 0.000355 2840.55396 2855.67822
2762.0 0.000362 2840.96655 2856.47925
2780.0 0.000360 2841.37964 2857.30493
2632.0 0.000380 2841.79272 2858.16089
2648.0 0.000378 2842.20605 2859.04785
2674.0 0.000374 2842.61987 2859.97461
2756.0 0.000363 2843.03418 2860.94507
2751.0 0.000364 2843.44873 2861.96802
2671.0 0.000374 2843.86328 2863.39063
2802.0 0.000357 2844.27856 2864.54761
2656.0 0.000377 2844.69385 2865.78735
2814.0 0.000355 2845.10986 2867.12671
2718.0 0.000368 2845.52612 2868.58154
2742.0 0.000365 2845.94263 2870.16992
2658.0 0.000376 2846.35889 2871.91162
2839.0 0.000352 2846.77612 2873.83105
2713.0 0.000369 2847.19336 2876.11401
2750.0 0.000364 2847.61108 2878.45361
2728.0 0.000367 2848.02905 2881.03564
2781.0 0.000360 2848.44751 2883.88257
2771.0 0.000361 2848.86597 2887.01270
2753.0 0.000363 2849.28491 2890.43921
2738.0 0.000365 2849.70435 2894.17261
2654.0 0.000377 2850.12402 2898.21509
2722.0 0.000367 2850.54419 2902.55664
2756.0 0.000363 2850.96411 2907.55469
2741.0 0.000365 2851.38501 2912.43042
2711.0 0.000369 2851.80542 2917.67603
2793.0 0.000358 2852.22681 2922.88354
2816.0 0.000355 2852.64868 2928.12671
2798.0 0.000357 2853.07056 2933.28418
2835.0 0.000353 2853.49243 2938.21191
2817.0 0.000355 2853.91504 2942.75610
2737.0 0.000365 2854.33765 2946.76294
2817.0 0.000355 2854.76074 2950.10693
2911.0 0.0003435 2855.18433 2952.71680
2888.0 0.0003463 2855.60815 2954.58472
2928.0 0.0003415 2856.03223 2955.78003
2827.0 0.000354 2856.45654 2956.42749
2868.0 0.0003487 2856.88110 2956.69312
2875.0 0.0003478 2857.30640 2956.73413
2769.0 0.000361 2857.73169 2956.70435
2865.0 0.0003490 2858.15747 2956.72314
2911.0 0.0003435 2858.58350 2956.86816
2881.0 0.0003471 2859.00977 2957.36304
2851.0 0.000351 2859.43628 2957.82251
2798.0 0.000357 2859.86328 2958.39038
2775.0 0.000360 2860.29077 2958.98560
2790.0 0.000358 2860.71826 2959.50269
2751.0 0.000364 2861.14600 2959.83081
2947.0 0.0003393 2861.57422 2959.86597
2807.0 0.000356 2862.00293 2959.53613
2762.0 0.000362 2862.43164 2958.81445
2735.0 0.000366 2862.86084 2957.72437
2838.0 0.000352 2863.29028 2956.33228
2803.0 0.000357 2863.71997 2954.73804
2878.0 0.0003475 2864.15039 2953.04395
2822.0 0.000354 2864.58081 2951.35547
2821.0 0.000354 2865.01172 2949.76392
2731.0 0.000366 2865.44238 2948.33276
2700.0 0.000370 2865.87378 2947.11475
2913.0 0.0003433 2866.30542 2946.13794
2774.0 0.000360 2866.73755 2945.41626
2815.0 0.000355 2867.16992 2944.94824
2758.0 0.000363 2867.60254 2944.72827
2811.0 0.000356 2868.03564 2944.73779
2775.0 0.000360 2868.46875 2944.96191
2840.0 0.000352 2868.90259 2945.38550
2764.0 0.000362 2869.33618 2946.00171
2694.0 0.000371 2869.77051 2946.81030
2848.0 0.000351 2870.20508 2947.81787
2825.0 0.000354 2870.64014 2949.03638
2765.0 0.000362 2871.07520 2950.48389
2799.0 0.000357 2871.51050 2952.17847
2749.0 0.000364 2871.94653 2954.13965
2791.0 0.000358 2872.38281 2956.38647
2708.0 0.000369 2872.81909 2958.94116
2753.0 0.000363 2873.25586 2961.82739
2797.0 0.000358 2873.69287 2965.07593
2822.0 0.000354 2874.13037 2968.72388
2798.0 0.000357 2874.56812 2972.81421
2787.0 0.000359 2875.00586 2977.39893
2666.0 0.000375 2875.44434 2982.55078
2800.0 0.000357 2875.88281 2988.34277
2823.0 0.000354 2876.32178 2994.88110
2854.0 0.0003504 2876.76123 3002.28271
2780.0 0.000360 2877.20068 3010.68286
2831.0 0.000353 2877.64063 3020.23804
2905.0 0.0003442 2878.08081 3031.14551
2799.0 0.000357 2878.52124 3043.60498
2875.0 0.0003478 2878.96216 3057.85913
2810.0 0.000356 2879.40332 3074.16138
2976.0 0.0003360 2879.84473 3092.78589
2804.0 0.000357 2880.28662 3114.01147
2872.0 0.0003482 2880.72827 3138.14307
2849.0 0.000351 2881.17090 3165.49463
2933.0 0.0003409 2881.61353 3196.34473
3027.0 0.0003304 2882.05664 3230.96436
3044.0 0.0003285 2882.50000 3269.57178
3007.0 0.0003326 2882.94385 3312.39136
3170.0 0.0003155 2883.38745 3359.49683
3073.0 0.0003254 2883.83179 3410.95679
3125.0 0.0003200 2884.27661 3466.63843
3232.0 0.0003094 2884.72144 3526.26929
3382.0 0.0002957 2885.16650 3589.34058
3363.0 0.0002974 2885.61206 3655.20630
3423.0 0.0002921 2886.05786 3722.85425
3602.0 0.0002776 2886.50391 3791.20874
3666.0 0.0002728 2886.95068 3858.98853
3729.0 0.0002682 2887.39746 3924.99829
3820.0 0.0002618 2887.84424 3988.22852
3797.0 0.0002634 2888.29150 4048.07983
4016.0 0.0002490 2888.73926 4104.30859
4036.0 0.0002478 2889.18750 4156.87256
4215.0 0.0002372 2889.63574 4205.79736
4308.0 0.0002321 2890.08423 4250.89258
4219.0 0.0002370 2890.53345 4291.66357
4408.0 0.0002269 2890.98218 4327.09619
4503.0 0.0002221 2891.43188 4355.90527
4501.0 0.0002222 2891.88184 4376.62988
4559.0 0.0002193 2892.33228 4388.02979
4640.0 0.0002155 2892.78247 4389.35303
4594.0 0.0002177 2893.23340 4380.53613
4521.0 0.0002212 2893.68433 4362.21533
4509.0 0.0002218 2894.13574 4335.56006
4383.0 0.0002282 2894.58765 4302.09131
4581.0 0.0002183 2895.03955 4263.44971
4251.0 0.0002352 2895.49170 4221.17529
4248.0 . . .
loop_
_refln_index_h
_refln_index_k
_refln_index_l
_pd_refln_wavelength_id
_refln_observed_status
_refln_F_squared_meas
_refln_F_squared_calc
_refln_phase_calc
_refln_d_spacing
_gsas_i100_meas
0 0 2 1 o 6683.297 576.195 0.00 5.69101 5.36
0 0 2 2 o 6707.920 576.195 0.00 5.69101 2.68
1 0 1 1 o 3453.410 820.327 180.00 5.10270 9.17
1 0 1 2 o 3543.436 820.327 180.00 5.10270 4.67
1 1 0 1 o 3366.594 1172.360 0.00 4.03652 2.92
1 1 0 2 o 2671.053 1172.360 0.00 4.03652 1.19
1 1 2 1 o 104877.01 106217.72 -45.73 3.29243 100.00
1 1 2 2 o 105349.95 106217.72 -45.73 3.29243 50.00
1 0 3 1 o 793.214 1743.846 180.00 3.15978 1.06
1 0 3 2 o 693.322 1743.846 180.00 3.15978 0.48
0 0 4 1 o -79.564 30.878 180.00 2.84551 0.00
0 0 4 2 o -79.564 30.878 180.00 2.84551 0.00
2 0 0 1 o -82.023 33.982 180.00 2.85425 0.00
2 0 0 2 o -82.023 33.982 180.00 2.85425 0.00
2 0 2 1 o -427.731 1281.195 0.00 2.55135 0.00
2 0 2 2 o -427.731 1281.195 0.00 2.55135 0.00
2 1 1 1 o -37.021 1641.828 -159.30 2.49103 0.29
2 1 1 2 o -281.782 1641.828 -159.30 2.49103 0.00
1 1 4 1 o -279.753 940.085 45.03 2.32572 0.00
1 1 4 2 o -279.753 940.085 45.03 2.32572 0.00
1 0 5 1 o -257.944 1205.051 180.00 2.11448 0.00
2 1 3 2 o -192.967 634.900 -151.92 2.11806 0.00
1 0 5 2 o -257.944 1205.051 180.00 2.11448 0.00
2 1 3 1 o -192.967 634.900 -151.92 2.11806 0.00
2 0 4 1 o 140182.28 136814.56 0.00 2.01516 50.20
2 0 4 2 o 137511.86 136814.56 0.00 2.01516 24.46
2 2 0 1 o 139637.25 137243.95 0.00 2.01826 25.06
2 2 0 2 o 141053.61 137243.95 0.00 2.01826 12.61
0 0 6 1 o 3553.233 2071.939 0.00 1.89700 0.35
0 0 6 2 o 3628.850 2071.939 0.00 1.89700 0.18
2 2 2 1 o 241.523 46.449 -13.68 1.90218 0.13
2 2 2 2 o 160.929 46.449 -13.68 1.90218 0.05
3 0 1 1 o 3103.418 2041.656 -180.00 1.87679 1.14
3 0 1 2 o 3329.046 2041.656 -180.00 1.87679 0.60
3 1 0 1 o 214.188 183.718 0.00 1.80519 0.13
3 1 0 2 o 209.177 183.718 0.00 1.80519 0.07
1 1 6 1 o 54952.38 54983.18 46.73 1.71686 14.38
1 1 6 2 o 52386.82 54983.18 46.73 1.71686 6.79
3 1 2 1 o 57173.10 55315.11 46.79 1.72070 30.14
3 1 2 2 o 54976.62 55315.11 46.79 1.72070 14.37
3 0 3 1 o 43.364 59.833 -180.00 1.70090 0.04
2 1 5 1 o 534.342 612.588 148.94 1.69904 0.39
3 0 3 2 o 40.534 59.833 -180.00 1.70090 0.02
2 1 5 2 o 507.226 612.588 148.94 1.69904 0.19
2 2 4 1 o -114.102 123.997 179.20 1.64621 0.00
2 2 4 2 o -114.102 123.997 179.20 1.64621 0.00
2 0 6 1 o 111.705 236.552 180.00 1.57989 0.00
2 0 6 2 o 111.705 236.552 180.00 1.57989 0.00
1 0 7 1 o -146.942 341.660 -180.00 1.56380 0.00
1 0 7 2 o -146.942 341.660 -180.00 1.56380 0.00
3 2 1 1 o -21.943 204.095 130.09 1.56816 0.03
3 2 1 2 o -74.567 204.095 130.09 1.56816 0.00
3 1 4 1 o 193.715 386.018 -58.24 1.52432 0.16
3 1 4 2 o 79.481 386.018 -58.24 1.52432 0.05
3 2 3 1 o 1759.833 1681.712 166.97 1.46113 0.83
3 0 5 1 o 121.678 110.704 -180.00 1.45996 0.05
3 2 3 2 o 1779.490 1681.712 166.97 1.46113 0.42
3 0 5 2 o 111.330 110.704 -180.00 1.45996 0.02
0 0 8 1 o 74104.13 78981.59 0.00 1.42275 3.39
0 0 8 2 o 75008.63 78981.59 0.00 1.42275 1.71
4 0 0 1 o 77701.73 79882.36 0.00 1.42713 7.17
4 0 0 2 o 75371.18 79882.36 0.00 1.42713 3.45
4 0 2 1 o 54.310 2.278 180.00 1.38426 0.02
2 2 6 1 o 2019.915 856.041 2.48 1.38227 0.45
4 0 2 2 o 46.902 2.278 180.00 1.38426 0.01
2 2 6 2 o 1816.295 856.041 2.48 1.38227 0.21
4 1 1 1 o 1075.411 709.792 132.24 1.37438 0.45
2 1 7 1 o 1270.725 849.127 164.71 1.37145 0.54
4 1 1 2 o 1045.200 709.792 132.24 1.37438 0.22
2 1 7 2 o 1345.301 849.127 164.71 1.37145 0.28
1 1 8 1 o 2011.385 935.892 -79.71 1.34184 0.38
1 1 8 2 o 2011.303 935.892 -79.71 1.34184 0.19
3 3 0 1 o 313.706 64.917 0.00 1.34551 0.04
3 3 0 2 o 288.165 64.917 0.00 1.34551 0.02
3 1 6 1 o 36289.44 33201.180 -48.43 1.30772 11.69
3 1 6 2 o 35683.45 33201.180 -48.43 1.30772 5.72
3 3 2 1 o 36134.20 33390.133 -48.49 1.30941 5.83
4 1 3 1 o 1116.224 976.027 147.58 1.30062 0.43
3 2 5 1 o 1429.001 1209.450 -162.93 1.29979 0.55
3 3 2 2 o 35992.29 33390.133 -48.49 1.30941 2.89
4 1 3 2 o 1249.605 976.027 147.58 1.30062 0.24
3 2 5 2 o 1629.246 1209.450 -162.93 1.29979 0.31
2 0 8 2 o 1016.135 236.664 180.00 1.27333 0.10
4 0 4 1 o 560.586 251.426 180.00 1.27568 0.12
2 0 8 1 o 618.258 236.664 180.00 1.27333 0.13
4 0 4 2 o 719.078 251.426 180.00 1.27568 0.07
4 2 0 1 o 584.269 256.400 180.00 1.27646 0.12
4 2 0 2 o 637.387 256.400 180.00 1.27646 0.07
4 2 2 1 o 1071.904 99.519 13.40 1.24551 0.40
3 0 7 1 o 3989.103 1280.306 180.00 1.23616 0.67
4 2 2 2 o 1058.611 99.519 13.40 1.24551 0.20
1 0 9 1 o 1117.058 299.405 180.00 1.23473 0.20
3 0 7 2 o 4575.765 1280.306 180.00 1.23616 0.38
1 0 9 2 o 1422.304 299.405 180.00 1.23473 0.12
3 3 4 1 o 1577.116 182.163 91.97 1.21638 0.25
3 3 4 2 o 1557.916 182.163 91.97 1.21638 0.13
4 1 5 1 o 1943.064 882.122 -141.25 1.18291 0.62
4 1 5 2 o 1730.324 882.122 -141.25 1.18291 0.28
2 2 8 1 o 55215.41 49567.90 -0.06 1.16286 7.44
4 2 4 2 o 55278.11 49972.82 -0.06 1.16465 7.43
2 2 8 2 o 54481.39 49567.90 -0.06 1.16286 3.65
4 2 4 1 o 55157.62 49972.82 -0.06 1.16465 14.88
0 0 10 1 o 1611.010 993.948 180.00 1.13820 0.05
0 0 10 2 o 1506.752 993.948 180.00 1.13820 0.02
4 0 6 1 o 1045.876 358.942 0.00 1.14044 0.18
2 1 9 1 o 1122.919 560.554 -156.20 1.13324 0.35
4 0 6 2 o 863.073 358.942 0.00 1.14044 0.08
2 1 9 2 o 1261.628 560.554 -156.20 1.13324 0.19
5 0 1 1 o 18.659 0.124 0.00 1.13600 0.01
4 3 1 1 o 2147.399 1168.846 -151.97 1.13600 0.65
3 2 7 1 o 151.808 64.088 -128.54 1.13434 0.06
5 0 1 2 o 20.459 0.124 0.00 1.13600 0.00
4 3 1 2 o 2242.416 1168.846 -151.97 1.13600 0.34
3 2 7 2 o 170.197 64.088 -128.54 1.13434 0.03
3 1 8 1 o 1317.211 604.691 92.82 1.11742 0.37
3 1 8 2 o 1198.295 604.691 92.82 1.11742 0.17
5 1 0 1 o 82.380 0.772 0.00 1.11953 0.02
5 1 0 2 o 69.628 0.772 0.00 1.11953 0.01
3 3 6 1 o 21505.557 21371.092 49.67 1.09748 2.68
5 1 2 2 o 21751.484 21404.922 -49.86 1.09848 2.71
1 1 10 1 o 21341.004 21051.121 -49.67 1.09548 2.65
3 3 6 2 o 21603.926 21371.092 49.67 1.09748 1.34
5 0 3 1 o 1451.406 1461.680 180.00 1.09327 0.22
4 3 3 1 o 222.039 223.747 -113.68 1.09327 0.07
5 1 2 1 o 20940.023 21404.922 -49.86 1.09848 5.20
1 1 10 2 o 20718.701 21051.121 -49.67 1.09548 1.28
5 0 3 2 o 1386.021 1461.680 180.00 1.09327 0.10
4 3 3 2 o 211.169 223.747 -113.68 1.09327 0.03
4 2 6 1 o 177.646 364.837 -174.32 1.05903 0.00
2 0 10 1 o 104.769 712.655 0.00 1.05724 0.05
4 2 6 2 o 267.471 364.837 -174.32 1.05903 0.01
2 0 10 2 o 269.134 712.655 0.00 1.05724 0.04
4 1 7 1 o 130.538 302.181 -138.73 1.05414 0.05
3 0 9 1 o 184.218 631.780 180.00 1.05326 0.04
4 1 7 2 o -61.858 302.181 -138.73 1.05414 0.00
3 0 9 2 o -95.379 631.780 180.00 1.05326 0.00
5 2 1 1 o 717.691 1251.819 -168.22 1.05547 0.22
5 2 1 2 o 373.263 1251.819 -168.22 1.05547 0.06
5 1 4 1 o -2.023 135.297 107.65 1.04180 0.00
5 1 4 2 o -2.023 135.297 107.65 1.04180 0.00
5 0 5 1 o -91.008 974.921 -180.00 1.02054 0.00
4 3 5 1 o -33.757 294.765 116.92 1.02054 0.00
5 2 3 2 o -8.336 41.560 -73.11 1.02094 0.00
1 0 11 1 o -82.155 430.311 -180.00 1.01814 0.00
4 3 5 2 o -33.757 294.765 116.92 1.02054 0.00
5 0 5 2 o -91.008 974.921 -180.00 1.02054 0.00
5 2 3 1 o -8.336 41.560 -73.11 1.02094 0.00
1 0 11 2 o -82.155 430.311 -180.00 1.01814 0.00
4 4 0 1 o 17288.842 32785.211 0.00 1.00913 0.88
4 0 8 1 o 21724.531 32442.564 0.00 1.00758 2.34
4 4 0 2 o 22452.102 32785.211 0.00 1.00913 0.61
