#------------------------------------------------------------------------------
#$Date: 2016-02-13 21:28:24 +0200 (Sat, 13 Feb 2016) $
#$Revision: 176429 $
#$URL: svn://www.crystallography.net/cod/cif/7/03/48/7034872.cif $
#------------------------------------------------------------------------------
#
# This file is available in the Crystallography Open Database (COD),
# http://www.crystallography.net/
#
# All data on this site have been placed in the public domain by the
# contributors.
#
data_7034872
loop_
_publ_author_name
'Dong, Yongkwan'
'Eckert, Brian'
'Wang, Hsin'
'Zeng, Xiaoyu'
'Tritt, Terry M.'
'Nolas, George S.'
_publ_section_title
;
 Synthesis, crystal structure, and transport properties of
 Cu2.2Zn0.8SnSe4-xTex (0.1 &#x2264; x &#x2264; 0.4).
;
_journal_issue                   19
_journal_name_full
'Dalton transactions (Cambridge, England : 2003)'
_journal_page_first              9014
_journal_page_last               9019
_journal_paper_doi               10.1039/c5dt00910c
_journal_volume                  44
_journal_year                    2015
_chemical_formula_sum            'Cu2.2 Se3.63 Sn Te0.37 Zn0.8'
_chemical_formula_weight         644.48
_chemical_name_systematic        ' ?'
_space_group_IT_number           121
_symmetry_cell_setting           tetragonal
_symmetry_space_group_name_Hall  'I -4 2'
_symmetry_space_group_name_H-M   'I -4 2 m'
_audit_creation_date             2014-12-15T15:02
_audit_creation_method           'from EXP file using GSAS2CIF'
_audit_update_record
' 2014-12-15T15:02  Initial CIF as created by GSAS2CIF'
_cell_angle_alpha                90.0
_cell_angle_beta                 90.0
_cell_angle_gamma                90.0
_cell_formula_units_Z            2
_cell_length_a                   5.7151(8)
_cell_length_b                   5.7151
_cell_length_c                   11.3974(21)
_cell_volume                     372.27(9)
_computing_structure_refinement  GSAS
_diffrn_radiation_polarisn_ratio 0.87
_diffrn_radiation_probe          x-ray
_exptl_absorpt_correction_T_max  1.00000
_exptl_absorpt_correction_T_min  1.00000
_exptl_absorpt_process_details
;   GSAS Absorption/surface roughness correction: function number 0
 No correction is applied.
;
_pd_block_id
2014-12-15T15:02|SE34TE06_1|Se34Te06.cif|Bruker_D8
_pd_calc_method                  'Rietveld Refinement'
_pd_instr_location               ' ?'
_pd_meas_2theta_range_inc        0.01998
_pd_meas_2theta_range_max        100.00214
_pd_meas_2theta_range_min        15.0
_pd_meas_number_of_points        4256
_pd_phase_name
'from E:/USF/USF data/PXRD/YD143/refinements/Se34Te06/Se34Te06.cel'
_pd_proc_2theta_range_inc        0.01998
_pd_proc_2theta_range_max        100.00214
_pd_proc_2theta_range_min        15.0
_pd_proc_info_datetime           2014-12-15T15:02:52
_pd_proc_info_excluded_regions   ' ?'
_pd_proc_ls_background_function
;   GSAS Background function number 2 with  3 terms.
 Cosine Fourier series
      1:    3430.70     2:   -821.940     3:    721.953    
;
_pd_proc_ls_peak_cutoff          0.00100
_pd_proc_ls_profile_function
;
 CW Profile function number 3 with  19 terms
 Pseudovoigt profile coefficients as parameterized in
 P. Thompson, D.E. Cox & J.B. Hastings (1987). J. Appl. Cryst.,20,79-83.
 Asymmetry correction of L.W. Finger, D.E. Cox & A. P. Jephcoat (1994).
 J. Appl. Cryst.,27,892-900.
 Peak tails are ignored  where the intensity is below 0.0010 times the peak
   Aniso. broadening axis   0.0   0.0   1.0
;
_pd_proc_ls_prof_R_factor        0.0507
_pd_proc_ls_prof_wR_expected     0.0167
_pd_proc_ls_prof_wR_factor       0.0708
_pd_proc_number_of_points        4256
_pd_spec_mounting                ' ?'
_refine_ls_goodness_of_fit_all   4.25
_refine_ls_matrix_type           full
_refine_ls_number_parameters     13
_refine_ls_number_restraints     0
_refine_ls_R_Fsqd_factor         0.11299
_refine_ls_shift/su_max          0.00
_refine_ls_shift/su_mean         0.00
_reflns_d_resolution_high        1.009
_reflns_d_resolution_low         5.699
_reflns_limit_h_max              5
_reflns_limit_h_min              0
_reflns_limit_k_max              4
_reflns_limit_k_min              0
_reflns_limit_l_max              11
_reflns_limit_l_min              0
_reflns_number_total             152
_cod_data_source_file            c5dt00910c1.cif
_cod_data_source_block           SE34TE06_1_publ
_cod_depositor_comments
;
The following automatic conversions were performed:

'_geom_bond_publ_flag' value 'N' changed to 'n' according to
/usr/data/users/saulius/crontab/automatic-downloads/rss-feeds/RSC/lib/dictionaries/cif_core.dic
dictionary named 'cif_core.dic' version 2.4.2 from 2011-04-26 (42
times).

'_geom_angle_publ_flag' value 'N' changed to 'n' according to
/usr/data/users/saulius/crontab/automatic-downloads/rss-feeds/RSC/lib/dictionaries/cif_core.dic
dictionary named 'cif_core.dic' version 2.4.2 from 2011-04-26 (132
times).

Automatic conversion script
Id: cif_fix_values 3271 2015-04-21 07:52:19Z andrius 

 Adding full bibliography for 7034870--7034873.cif.
;
_cod_original_cell_volume        372.26(15)
_cod_original_formula_sum        'Cu2.20 Se3.63 Sn Te0.37 Zn0.80'
_cod_database_code               7034872
#BEGIN Tags that were not found in dictionaries:
_gsas_exptl_extinct_corr_t_min   1.00000
_gsas_exptl_extinct_corr_t_max   1.00000
#END Tags that were not found in dictionaries
loop_
_symmetry_equiv_pos_site_id
_symmetry_equiv_pos_as_xyz
1 +x,+y,+z
2 +y,-x,-z
3 -x,-y,+z
4 -y,+x,-z
5 -x,+y,-z
6 +y,+x,+z
7 +x,-y,-z
8 -y,-x,+z
101 +x+1/2,+y+1/2,+z+1/2
102 +y+1/2,-x+1/2,-z+1/2
103 -x+1/2,-y+1/2,+z+1/2
104 -y+1/2,+x+1/2,-z+1/2
105 -x+1/2,+y+1/2,-z+1/2
106 +y+1/2,+x+1/2,+z+1/2
107 +x+1/2,-y+1/2,-z+1/2
108 -y+1/2,-x+1/2,+z+1/2
loop_
_atom_site_type_symbol
_atom_site_label
_atom_site_fract_x
_atom_site_fract_y
_atom_site_fract_z
_atom_site_occupancy
_atom_site_thermal_displace_type
_atom_site_U_iso_or_equiv
_atom_site_symmetry_multiplicity
Cu Cu1 0.0 0.5 0.25 1.0 Uiso 0.02949 4
Cu Cu2 0.0 0.0 0.0 0.1999 Uiso 0.03992 2
Zn Zn 0.0 0.0 0.0 0.80014 Uiso 0.03992 2
Sn Sn 0.0 0.0 0.5 1.0 Uiso 0.03099 2
Se Se 0.24251 0.24251 0.12934 0.90829 Uiso 0.03001 8
Te Te 0.24251 0.24251 0.12934 0.09171 Uiso 0.03001 8
loop_
_atom_type_symbol
_atom_type_number_in_cell
_atom_type_scat_dispersion_real
_atom_type_scat_dispersion_imag
_atom_type_scat_Cromer_Mann_a1
_atom_type_scat_Cromer_Mann_a2
_atom_type_scat_Cromer_Mann_a3
_atom_type_scat_Cromer_Mann_a4
_atom_type_scat_Cromer_Mann_b1
_atom_type_scat_Cromer_Mann_b2
_atom_type_scat_Cromer_Mann_b3
_atom_type_scat_Cromer_Mann_b4
_atom_type_scat_Cromer_Mann_c
_atom_type_scat_source
Cu 4.4 0.000 0.000 13.3380 3.58280 7.16760 0.24700 5.61580 11.3966 1.67350
64.8126 1.19100 International_Tables_Vol_C
Zn 1.6 0.000 0.000 14.0743 3.26550 7.03180 0.23330 5.16520 10.3163 2.41000
58.7097 1.30410 International_Tables_Vol_C
Sn 2.0 0.000 0.000 19.1889 5.83030 19.1005 0.50310 4.45850 26.8909 2.46630
83.9571 4.78210 International_Tables_Vol_C
Se 7.266 0.000 0.000 17.0006 2.40980 5.81960 0.27260 3.97310 15.2372 4.35430
43.8163 2.84090 International_Tables_Vol_C
Te 0.734 0.000 0.000 19.9644 4.81742 19.0138 0.42088 6.14487 28.5284 2.52390
70.8403 4.35200 International_Tables_Vol_C
loop_
_diffrn_radiation_wavelength
_diffrn_radiation_wavelength_wt
_diffrn_radiation_type
_diffrn_radiation_wavelength_id
1.540600 1.000 K\a~1~ 1
1.544400 0.500 K\a~2~ 2
loop_
_geom_angle_atom_site_label_1
_geom_angle_atom_site_label_2
_geom_angle_atom_site_label_3
_geom_angle
_geom_angle_site_symmetry_1
_geom_angle_site_symmetry_3
_geom_angle_publ_flag
Se Cu1 Se 111.547(12) 1_555 3_565 n
Se Cu1 Se 108.444(6) 1_555 102_455 n
Se Cu1 Se 108.444(6) 1_555 104_555 n
Se Cu1 Te 0.0 1_555 1_555 n
Se Cu1 Te 111.547(12) 1_555 3_565 n
Se Cu1 Te 108.444(6) 1_555 102_455 n
Se Cu1 Te 108.444(6) 1_555 104_555 n
Se Cu1 Se 108.444(6) 3_565 102_455 n
Se Cu1 Se 108.444(6) 3_565 104_555 n
Se Cu1 Te 111.547(12) 3_565 1_555 n
Se Cu1 Te 0.0 3_565 3_565 n
Se Cu1 Te 108.444(6) 3_565 102_455 n
Se Cu1 Te 108.444(6) 3_565 104_555 n
Se Cu1 Se 111.547(12) 102_455 104_555 n
Se Cu1 Te 108.444(6) 102_455 1_555 n
Se Cu1 Te 108.444(6) 102_455 3_565 n
Se Cu1 Te 0.0 102_455 102_455 n
Se Cu1 Te 111.547(12) 102_455 104_555 n
Se Cu1 Te 108.444(6) 104_555 1_555 n
Se Cu1 Te 108.444(6) 104_555 3_565 n
Se Cu1 Te 111.547(12) 104_555 102_455 n
Se Cu1 Te 0.0 104_555 104_555 n
Te Cu1 Te 111.547(12) 1_555 3_565 n
Te Cu1 Te 108.444(6) 1_555 102_455 n
Te Cu1 Te 108.444(6) 1_555 104_555 n
Te Cu1 Te 108.444(6) 3_565 102_455 n
Te Cu1 Te 108.444(6) 3_565 104_555 n
Te Cu1 Te 111.547(12) 102_455 104_555 n
Se Cu2 Se 111.179(7) 1_555 2_555 n
Se Cu2 Se 106.107(13) 1_555 3_555 n
Se Cu2 Se 111.179(7) 1_555 4_555 n
Se Cu2 Te 0.0 1_555 1_555 n
Se Cu2 Te 111.179(7) 1_555 2_555 n
Se Cu2 Te 106.107(13) 1_555 3_555 n
Se Cu2 Te 111.179(7) 1_555 4_555 n
Se Cu2 Se 111.179(7) 2_555 3_555 n
Se Cu2 Se 106.107(13) 2_555 4_555 n
Se Cu2 Te 111.179(7) 2_555 1_555 n
Se Cu2 Te 0.0 2_555 2_555 n
Se Cu2 Te 111.179(7) 2_555 3_555 n
Se Cu2 Te 106.107(13) 2_555 4_555 n
Se Cu2 Se 111.179(7) 3_555 4_555 n
Se Cu2 Te 106.107(13) 3_555 1_555 n
Se Cu2 Te 111.179(7) 3_555 2_555 n
Se Cu2 Te 0.0 3_555 3_555 n
Se Cu2 Te 111.179(7) 3_555 4_555 n
Se Cu2 Te 111.179(7) 4_555 1_555 n
Se Cu2 Te 106.107(13) 4_555 2_555 n
Se Cu2 Te 111.179(7) 4_555 3_555 n
Se Cu2 Te 0.0 4_555 4_555 n
Te Cu2 Te 111.179(7) 1_555 2_555 n
Te Cu2 Te 106.107(13) 1_555 3_555 n
Te Cu2 Te 111.179(7) 1_555 4_555 n
Te Cu2 Te 111.179(7) 2_555 3_555 n
Te Cu2 Te 106.107(13) 2_555 4_555 n
Te Cu2 Te 111.179(7) 3_555 4_555 n
Se Zn Se 111.179(7) 1_555 2_555 n
Se Zn Se 106.107(13) 1_555 3_555 n
Se Zn Se 111.179(7) 1_555 4_555 n
Se Zn Te 0.0 1_555 1_555 n
Se Zn Te 111.179(7) 1_555 2_555 n
Se Zn Te 106.107(13) 1_555 3_555 n
Se Zn Te 111.179(7) 1_555 4_555 n
Se Zn Se 111.179(7) 2_555 3_555 n
Se Zn Se 106.107(13) 2_555 4_555 n
Se Zn Te 111.179(7) 2_555 1_555 n
Se Zn Te 0.0 2_555 2_555 n
Se Zn Te 111.179(7) 2_555 3_555 n
Se Zn Te 106.107(13) 2_555 4_555 n
Se Zn Se 111.179(7) 3_555 4_555 n
Se Zn Te 106.107(13) 3_555 1_555 n
Se Zn Te 111.179(7) 3_555 2_555 n
Se Zn Te 0.0 3_555 3_555 n
Se Zn Te 111.179(7) 3_555 4_555 n
Se Zn Te 111.179(7) 4_555 1_555 n
Se Zn Te 106.107(13) 4_555 2_555 n
Se Zn Te 111.179(7) 4_555 3_555 n
Se Zn Te 0.0 4_555 4_555 n
Te Zn Te 111.179(7) 1_555 2_555 n
Te Zn Te 106.107(13) 1_555 3_555 n
Te Zn Te 111.179(7) 1_555 4_555 n
Te Zn Te 111.179(7) 2_555 3_555 n
Te Zn Te 106.107(13) 2_555 4_555 n
Te Zn Te 111.179(7) 3_555 4_555 n
Se Sn Se 109.519(6) 101_445 102_455 n
Se Sn Se 109.376(13) 101_445 103_555 n
Se Sn Se 109.519(6) 101_445 104_545 n
Se Sn Te 0.0 101_445 101_445 n
Se Sn Te 109.519(6) 101_445 102_455 n
Se Sn Te 109.376(13) 101_445 103_555 n
Se Sn Te 109.519(6) 101_445 104_545 n
Se Sn Se 109.519(6) 102_455 103_555 n
Se Sn Se 109.376(13) 102_455 104_545 n
Se Sn Te 109.519(6) 102_455 101_445 n
Se Sn Te 0.0 102_455 102_455 n
Se Sn Te 109.519(6) 102_455 103_555 n
Se Sn Te 109.376(13) 102_455 104_545 n
Se Sn Se 109.519(6) 103_555 104_545 n
Se Sn Te 109.376(13) 103_555 101_445 n
Se Sn Te 109.519(6) 103_555 102_455 n
Se Sn Te 0.0 103_555 103_555 n
Se Sn Te 109.519(6) 103_555 104_545 n
Se Sn Te 109.519(6) 104_545 101_445 n
Se Sn Te 109.376(13) 104_545 102_455 n
Se Sn Te 109.519(6) 104_545 103_555 n
Se Sn Te 0.0 104_545 104_545 n
Te Sn Te 109.519(6) 101_445 102_455 n
Te Sn Te 109.376(13) 101_445 103_555 n
Te Sn Te 109.519(6) 101_445 104_545 n
Te Sn Te 109.519(6) 102_455 103_555 n
Te Sn Te 109.376(13) 102_455 104_545 n
Te Sn Te 109.519(6) 103_555 104_545 n
Cu1 Se Cu1 111.471(12) 1_555 6_555 n
Cu1 Se Cu2 110.969(6) 1_555 1_555 n
Cu1 Se Zn 110.969(6) 1_555 1_555 n
Cu1 Se Sn 107.754(6) 1_555 101_554 n
Cu1 Se Cu2 110.969(6) 6_555 1_555 n
Cu1 Se Zn 110.969(6) 6_555 1_555 n
Cu1 Se Sn 107.754(6) 6_555 101_554 n
Cu2 Se Zn 0.0 1_555 1_555 n
Cu2 Se Sn 107.741(13) 1_555 101_554 n
Zn Se Sn 107.741(13) 1_555 101_554 n
Cu1 Te Cu1 111.471(12) 1_555 6_555 n
Cu1 Te Cu2 110.969(6) 1_555 1_555 n
Cu1 Te Zn 110.969(6) 1_555 1_555 n
Cu1 Te Sn 107.754(6) 1_555 101_554 n
Cu1 Te Cu2 110.969(6) 6_555 1_555 n
Cu1 Te Zn 110.969(6) 6_555 1_555 n
Cu1 Te Sn 107.754(6) 6_555 101_554 n
Cu2 Te Zn 0.0 1_555 1_555 n
Cu2 Te Sn 107.741(13) 1_555 101_554 n
Zn Te Sn 107.741(13) 1_555 101_554 n
loop_
_geom_bond_atom_site_label_1
_geom_bond_atom_site_label_2
_geom_bond_distance
_geom_bond_site_symmetry_2
_geom_bond_publ_flag
Cu1 Se 2.44490(28) 1_555 n
Cu1 Se 2.44490(28) 3_565 n
Cu1 Se 2.44490(28) 102_455 n
Cu1 Se 2.44490(28) 104_555 n
Cu1 Te 2.44490(28) 1_555 n
Cu1 Te 2.44490(28) 3_565 n
Cu1 Te 2.44490(28) 102_455 n
Cu1 Te 2.44490(28) 104_555 n
Cu2 Se 2.45255(28) 1_555 n
Cu2 Se 2.45255(28) 2_555 n
Cu2 Se 2.45255(28) 3_555 n
Cu2 Se 2.45255(28) 4_555 n
Cu2 Te 2.45255(28) 1_555 n
Cu2 Te 2.45255(28) 2_555 n
Cu2 Te 2.45255(28) 3_555 n
Cu2 Te 2.45255(28) 4_555 n
Zn Se 2.45255(28) 1_555 n
Zn Se 2.45255(28) 2_555 n
Zn Se 2.45255(28) 3_555 n
Zn Se 2.45255(28) 4_555 n
Zn Te 2.45255(28) 1_555 n
Zn Te 2.45255(28) 2_555 n
Zn Te 2.45255(28) 3_555 n
Zn Te 2.45255(28) 4_555 n
Sn Se 2.55032(29) 101_445 n
Sn Se 2.55032(29) 102_455 n
Sn Se 2.55032(29) 103_555 n
Sn Se 2.55032(29) 104_545 n
Sn Te 2.55032(29) 101_445 n
Sn Te 2.55032(29) 102_455 n
Sn Te 2.55032(29) 103_555 n
Sn Te 2.55032(29) 104_545 n
Se Cu1 2.44490(28) 1_555 n
Se Cu1 2.44490(28) 6_555 n
Se Cu2 2.45255(28) 1_555 n
Se Zn 2.45255(28) 1_555 n
Se Sn 2.55032(29) 101_554 n
Te Cu1 2.44490(28) 1_555 n
Te Cu1 2.44490(28) 6_555 n
Te Cu2 2.45255(28) 1_555 n
Te Zn 2.45255(28) 1_555 n
Te Sn 2.55032(29) 101_554 n
loop_
_pd_meas_counts_total
_pd_proc_ls_weight
_pd_proc_intensity_bkg_calc
_pd_calc_intensity_total
4253.0 0.0002351 3261.99658 3272.50122
4310.0 0.0002320 3261.81885 3273.11035
4382.0 0.0002282 3261.64111 3273.80981
4371.0 0.0002288 3261.46289 3275.95532
4250.0 0.0002353 3261.28467 3276.90503
4233.0 0.0002362 3261.10620 3278.66382
4347.0 0.0002300 3260.92749 3279.93872
4213.0 0.0002374 3260.74854 3281.41650
4177.0 0.0002394 3260.56958 3283.14185
4107.0 0.0002435 3260.39014 3285.17651
4380.0 0.0002283 3260.21069 3287.61157
4298.0 0.0002327 3260.03101 3290.58960
4293.0 0.0002329 3259.85107 3294.33862
4352.0 0.0002298 3259.67090 3299.22046
4261.0 0.0002347 3259.49048 3305.80371
4207.0 0.0002377 3259.31006 3314.93701
4290.0 0.0002331 3259.12939 3327.81372
4171.0 0.0002398 3258.94824 3345.99683
4187.0 0.0002388 3258.76733 3371.33325
4139.0 0.0002416 3258.58594 3405.76636
4104.0 0.0002437 3258.40405 3450.95190
4325.0 0.0002312 3258.22241 3507.78467
4268.0 0.0002343 3258.04053 3575.78857
4225.0 0.0002367 3257.85815 3652.39893
4231.0 0.0002364 3257.67578 3732.19458
4280.0 0.0002336 3257.49341 3806.14453
4245.0 0.0002356 3257.31055 3862.24268
4251.0 0.0002352 3257.12744 3888.85840
4167.0 0.0002400 3256.94434 3880.08765
4220.0 0.0002370 3256.76099 3838.47803
4267.0 0.0002344 3256.57715 3773.20044
4298.0 0.0002327 3256.39331 3695.90405
4300.0 0.0002326 3256.20923 3617.03247
4243.0 0.0002357 3256.02515 3543.88770
4230.0 0.0002364 3255.84082 3480.60596
4219.0 0.0002370 3255.65601 3428.79199
4150.0 0.0002410 3255.47119 3388.26196
4137.0 0.0002417 3255.28613 3357.75513
4213.0 0.0002374 3255.10107 3335.45972
4213.0 0.0002374 3254.91553 3319.47461
4090.0 0.0002445 3254.72998 3308.08008
4149.0 0.0002410 3254.54395 3299.88452
4193.0 0.0002385 3254.35791 3293.85596
4103.0 0.0002437 3254.17163 3289.27490
4076.0 0.0002453 3253.98535 3285.66919
4165.0 0.0002401 3253.79858 3282.73584
4121.0 0.0002427 3253.61157 3280.28760
4132.0 0.0002420 3253.42456 3278.20459
4134.0 0.0002419 3253.23730 3276.40869
4270.0 0.0002342 3253.05005 3274.84644
4109.0 0.0002434 3252.86206 3273.47852
4174.0 0.0002396 3252.67432 3272.27539
4295.0 0.0002328 3252.48633 3271.21387
4233.0 0.0002362 3252.29785 3270.27441
4051.0 0.0002469 3252.10938 3269.44238
4103.0 0.0002437 3251.92090 3268.70483
4093.0 0.0002443 3251.73193 3268.05127
4192.0 0.0002385 3251.54272 3267.47266
4212.0 0.0002374 3251.35352 3266.96191
4003.0 0.0002498 3251.16406 3266.51294
4164.0 0.0002402 3250.97437 3266.12134
4055.0 0.0002466 3250.78467 3265.78223
3967.0 0.0002521 3250.59448 3265.49243
4062.0 0.0002462 3250.40405 3265.24951
4029.0 0.0002482 3250.21362 3265.05151
4050.0 0.0002469 3250.02295 3264.89648
4022.0 0.0002486 3249.83203 3264.78320
4085.0 0.0002448 3249.64087 3264.71118
4009.0 0.0002494 3249.44946 3264.68042
4147.0 0.0002411 3249.25806 3264.69092
3988.0 0.0002508 3249.06641 3264.74268
4196.0 0.0002383 3248.87451 3264.83740
4106.0 0.0002435 3248.68262 3264.97583
4057.0 0.0002465 3248.49023 3265.16016
4022.0 0.0002486 3248.29761 3265.39185
4064.0 0.0002461 3248.10498 3265.67383
3979.0 0.0002513 3247.91235 3266.00879
4138.0 0.0002417 3247.71924 3266.40112
4102.0 0.0002438 3247.52588 3266.85400
4035.0 0.0002478 3247.33228 3267.37305
3967.0 0.0002521 3247.13867 3267.96387
4008.0 0.0002495 3246.94458 3268.63257
4048.0 0.0002470 3246.75073 3269.38672
3985.0 0.0002509 3246.55664 3270.23486
4034.0 0.0002479 3246.36182 3271.18726
4049.0 0.0002470 3246.16724 3272.25562
4042.0 0.0002474 3245.97241 3273.45215
4029.0 0.0002482 3245.77759 3274.79370
4130.0 0.0002421 3245.58228 3276.29761
3967.0 0.0002521 3245.38672 3277.98535
4026.0 0.0002484 3245.19116 3279.88159
4108.0 0.0002434 3244.99512 3282.01611
4007.0 0.0002496 3244.79932 3284.42310
4081.0 0.0002450 3244.60278 3287.14429
4048.0 0.0002470 3244.40649 3290.22949
3939.0 0.0002539 3244.20996 3293.73999
4032.0 0.0002480 3244.01294 3297.74829
3978.0 0.0002514 3243.81592 3302.34570
4143.0 0.0002414 3243.61890 3307.64771
4194.0 0.0002384 3243.42139 3313.80518
4205.0 0.0002378 3243.22388 3321.03027
4069.0 0.0002458 3243.02588 3329.63306
4279.0 0.0002337 3242.82813 3340.10449
4166.0 0.0002400 3242.62988 3353.24707
4108.0 0.0002434 3242.43140 3370.38696
4253.0 0.0002351 3242.23267 3393.68481
4092.0 0.0002444 3242.03394 3426.49023
4200.0 0.0002381 3241.83496 3473.70776
4184.0 0.0002390 3241.63574 3541.92017
4263.0 0.0002346 3241.43652 3639.16455
4156.0 0.0002406 3241.23706 3773.95728
4328.0 0.0002311 3241.03711 3953.59814
4213.0 0.0002374 3240.83740 4181.86279
4427.0 0.0002259 3240.63721 4455.93506
4329.0 0.0002310 3240.43677 4763.31934
4471.0 0.0002237 3240.23633 5077.97168
4481.0 0.0002232 3240.03540 5358.30469
4420.0 0.0002262 3239.83472 5552.67676
4578.0 0.0002184 3239.63354 5618.36963
4586.0 0.0002181 3239.43213 5542.57910
4547.0 0.0002199 3239.23071 5345.49951
4544.0 0.0002201 3239.02905 5068.23779
4420.0 0.0002262 3238.82690 4757.69971
4312.0 0.0002319 3238.62500 4453.39893
4222.0 0.0002369 3238.42285 4181.13818
4143.0 0.0002414 3238.22021 3953.79370
4182.0 0.0002391 3238.01782 3774.24219
3967.0 0.0002521 3237.81470 3638.95264
3897.0 0.0002566 3237.61182 3540.77173
4059.0 0.0002464 3237.40845 3471.41895
3892.0 0.0002569 3237.20508 3423.06323
4028.0 0.0002483 3237.00146 3389.21094
3939.0 0.0002539 3236.79761 3365.01758
3946.0 0.0002534 3236.59351 3347.11719
3903.0 0.0002562 3236.38965 3333.32544
3870.0 0.0002584 3236.18506 3322.27856
3975.0 0.0002516 3235.98047 3313.14624
3883.0 0.0002575 3235.77588 3305.41968
3833.0 0.0002609 3235.57080 3298.77295
3867.0 0.0002586 3235.36572 3292.99072
3805.0 0.0002628 3235.16040 3287.91577
3901.0 0.0002563 3234.95483 3283.02026
3876.0 0.0002580 3234.74927 3279.04199
3838.0 0.0002606 3234.54321 3275.28247
3890.0 0.0002571 3234.33716 3272.09448
3780.0 0.0002646 3234.13086 3269.21899
3958.0 0.0002527 3233.92432 3266.61450
3763.0 0.0002657 3233.71777 3264.24561
3731.0 0.0002680 3233.51099 3262.08228
3801.0 0.0002631 3233.30396 3260.10010
3834.0 0.0002608 3233.09644 3258.27686
3738.0 0.0002675 3232.88916 3256.59473
3738.0 0.0002675 3232.68164 3255.03760
3756.0 0.0002662 3232.47363 3253.59155
3717.0 0.0002690 3232.26587 3252.24487
3800.0 0.0002632 3232.05762 3250.98706
3805.0 0.0002628 3231.84937 3249.80981
3696.0 0.0002706 3231.64087 3248.70410
3710.0 0.0002695 3231.43188 3247.66406
3858.0 0.0002592 3231.22290 3246.68237
3724.0 0.0002685 3231.01392 3245.75439
3762.0 0.0002658 3230.80444 3244.87524
3843.0 0.0002602 3230.59497 3244.04028
3648.0 0.0002741 3230.38550 3243.24585
3642.0 0.0002746 3230.17554 3242.48828
3711.0 0.0002695 3229.96558 3241.76514
3654.0 0.0002737 3229.75537 3241.07275
3758.0 0.0002661 3229.54492 3240.40918
3747.0 0.0002669 3229.33423 3239.77197
3734.0 0.0002678 3229.12329 3239.15918
3650.0 0.0002740 3228.91260 3238.56909
3760.0 0.0002660 3228.70142 3237.99976
3596.0 0.0002781 3228.48999 3237.44971
3575.0 0.0002797 3228.27856 3236.91748
3666.0 0.0002728 3228.06665 3236.40210
3634.0 0.0002752 3227.85498 3235.90234
3688.0 0.0002711 3227.64258 3235.41699
3636.0 0.0002750 3227.43042 3234.94531
3677.0 0.0002720 3227.21802 3234.48584
3641.0 0.0002746 3227.00513 3234.03833
3756.0 0.0002662 3226.79224 3233.60181
3565.0 0.0002805 3226.57935 3233.17554
3621.0 0.0002762 3226.36621 3232.75903
3608.0 0.0002772 3226.15283 3232.35156
3674.0 0.0002722 3225.93921 3231.95264
3569.0 0.0002802 3225.72559 3231.56152
3677.0 0.0002720 3225.51147 3231.17822
3593.0 0.0002783 3225.29736 3230.80176
3662.0 0.0002731 3225.08325 3230.43213
3641.0 0.0002746 3224.86865 3230.06885
3608.0 0.0002772 3224.65381 3229.71143
3670.0 0.0002725 3224.43896 3229.35962
3585.0 0.0002789 3224.22388 3229.01294
3680.0 0.0002717 3224.00854 3228.67139
3705.0 0.0002699 3223.79346 3228.33472
3630.0 0.0002755 3223.57788 3228.00244
3688.0 0.0002711 3223.36182 3227.67432
3629.0 0.0002756 3223.14600 3227.35059
3539.0 0.0002826 3222.92993 3227.03027
3652.0 0.0002738 3222.71362 3226.71387
3622.0 0.0002761 3222.49707 3226.40088
3470.0 0.0002882 3222.28052 3226.09106
3635.0 0.0002751 3222.06323 3225.78418
3521.0 0.0002840 3221.84644 3225.48047
3519.0 0.0002842 3221.62915 3225.17993
3586.0 0.0002789 3221.41187 3224.88135
3603.0 0.0002775 3221.19409 3224.58594
3566.0 0.0002804 3220.97632 3224.29248
3614.0 0.0002767 3220.75854 3224.00171
3581.0 0.0002793 3220.54028 3223.71289
3558.0 0.0002811 3220.32202 3223.42603
3581.0 0.0002793 3220.10352 3223.14160
3532.0 0.0002831 3219.88452 3222.85889
3479.0 0.0002874 3219.66577 3222.57788
3616.0 0.0002765 3219.44678 3222.29858
3546.0 0.0002820 3219.22754 3222.02124
3620.0 0.0002762 3219.00806 3221.74561
3598.0 0.0002779 3218.78857 3221.47095
3497.0 0.0002860 3218.56860 3221.19800
3405.0 0.0002937 3218.34888 3220.92651
3515.0 0.0002845 3218.12866 3220.65625
3347.0 0.0002988 3217.90820 3220.38721
3359.0 0.0002977 3217.68799 3220.11963
3584.0 0.0002790 3217.46729 3219.85303
3387.0 0.0002952 3217.24658 3219.58716
3509.0 0.0002850 3217.02539 3219.32300
3419.0 0.0002925 3216.80420 3219.05957
3490.0 0.0002865 3216.58252 3218.79712
3425.0 0.0002920 3216.36108 3218.53564
3440.0 0.0002907 3216.13940 3218.27515
3390.0 0.0002950 3215.91772 3218.01538
3419.0 0.0002925 3215.69556 3217.75659
3416.0 0.0002927 3215.47314 3216.16675
3435.0 0.0002911 3215.25073 3215.93237
3453.0 0.0002896 3215.02808 3215.03345
3393.0 0.0002947 3214.80542 3214.81079
3386.0 0.0002953 3214.58228 3214.58765
3414.0 0.0002929 3214.35913 3214.36450
3551.0 0.0002816 3214.13574 3214.14111
3482.0 0.0002872 3213.91211 3213.91772
3487.0 0.0002868 3213.68872 3213.69409
3404.0 0.0002938 3213.46460 3213.47021
3563.0 0.0002807 3213.24048 3213.24609
3431.0 0.0002915 3213.01660 3213.02173
3470.0 0.0002882 3212.79224 3212.79736
3588.0 0.0002787 3212.56763 3212.57275
3487.0 0.0002868 3212.34277 3212.34814
3381.0 0.0002958 3212.11792 3212.12305
3589.0 0.0002786 3211.89282 3211.89819
3460.0 0.0002890 3211.66748 3211.67285
3577.0 0.0002796 3211.44189 3211.44727
3568.0 0.0002803 3211.21655 3211.22168
3553.0 0.0002815 3210.99048 3211.88599
3557.0 0.0002811 3210.76465 3211.67871
3693.0 0.0002708 3210.53857 3211.90771
3599.0 0.0002779 3210.31226 3211.71021
3631.0 0.0002754 3210.08569 3211.51343
3571.0 0.0002800 3209.85889 3211.31714
3518.0 0.0002843 3209.63208 3211.12183
3686.0 0.0002713 3209.40503 3210.92725
3618.0 0.0002764 3209.17798 3210.73340
3648.0 0.0002741 3208.95044 3210.54102
3568.0 0.0002803 3208.72290 3210.34937
3559.0 0.0002810 3208.49536 3210.15894
3637.0 0.0002750 3208.26733 3209.96924
3656.0 0.0002735 3208.03931 3209.78125
3729.0 0.0002682 3207.81104 3209.59424
3657.0 0.0002734 3207.58276 3209.40820
3594.0 0.0002782 3207.35425 3209.22388
3687.0 0.0002712 3207.12524 3209.04126
3606.0 0.0002773 3206.89648 3208.85986
3644.0 0.0002744 3206.66724 3208.68018
3673.0 0.0002723 3206.43799 3208.50220
3692.0 0.0002709 3206.20874 3208.32593
3690.0 0.0002710 3205.97900 3208.15186
3737.0 0.0002676 3205.74927 3207.97949
3695.0 0.0002706 3205.51929 3207.80957
3722.0 0.0002687 3205.28906 3207.64160
3793.0 0.0002636 3205.05884 3207.47632
3669.0 0.0002726 3204.82837 3207.31348
3650.0 0.0002740 3204.59790 3207.15332
3686.0 0.0002713 3204.36694 3206.99634
3722.0 0.0002687 3204.13574 3206.84180
3722.0 0.0002687 3203.90479 3206.69116
3797.0 0.0002634 3203.67334 3206.54370
3850.0 0.0002597 3203.44189 3206.39990
3946.0 0.0002534 3203.21045 3206.25977
3863.0 0.0002589 3202.97852 3206.12427
3977.0 0.0002514 3202.74634 3205.99292
3849.0 0.0002598 3202.51416 3205.86621
4052.0 0.0002468 3202.28223 3205.74512
3984.0 0.0002510 3202.04956 3205.62891
3994.0 0.0002504 3201.81689 3205.51880
4061.0 0.0002462 3201.58398 3205.41479
3937.0 0.0002540 3201.35107 3205.31763
4053.0 0.0002467 3201.11768 3205.22754
3904.0 0.0002561 3200.88452 3205.14502
3880.0 0.0002577 3200.65088 3205.07080
3858.0 0.0002592 3200.41724 3205.00562
3704.0 0.0002700 3200.18335 3204.95020
3517.0 0.0002843 3199.94922 3204.90503
3700.0 0.0002703 3199.71533 3204.87109
3483.0 0.0002871 3199.48071 3204.84961
3513.0 0.0002847 3199.24609 3204.84106
3452.0 0.0002897 3199.01147 3204.84741
3461.0 0.0002889 3198.77686 3204.86890
3422.0 0.0002922 3198.54150 3204.90771
3328.0 0.0003005 3198.30640 3204.96533
3419.0 0.0002925 3198.07129 3205.04321
3398.0 0.0002943 3197.83545 3205.14355
3284.0 0.0003045 3197.59985 3205.26831
3295.0 0.0003035 3197.36401 3205.42041
3307.0 0.0003024 3197.12817 3205.60254
3273.0 0.0003055 3196.89185 3205.81763
3367.0 0.0002970 3196.65552 3206.06958
3277.0 0.0003052 3196.41895 3206.36230
3336.0 0.0002998 3196.18213 3206.70068
3342.0 0.0002992 3195.94531 3207.08984
3268.0 0.0003060 3195.70850 3207.53613
3316.0 0.0003016 3195.47119 3208.04663
3331.0 0.0003002 3195.23389 3208.62988
3310.0 0.0003021 3194.99634 3209.29541
3341.0 0.0002993 3194.75879 3210.05493
3263.0 0.0003065 3194.52075 3210.92114
3273.0 0.0003055 3194.28296 3211.90991
3175.0 0.0003150 3194.04468 3213.04028
3232.0 0.0003094 3193.80640 3214.33521
3176.0 0.0003149 3193.56787 3215.82080
3128.0 0.0003197 3193.32910 3217.52954
3128.0 0.0003197 3193.09033 3219.50293
3292.0 0.0003038 3192.85132 3221.78979
3238.0 0.0003088 3192.61230 3224.45361
3220.0 0.0003106 3192.37280 3227.57715
3173.0 0.0003152 3192.13330 3231.27734
3299.0 0.0003031 3191.89380 3235.72510
3253.0 0.0003074 3191.65381 3241.19556
3354.0 0.0002982 3191.41406 3248.15112
3277.0 0.0003052 3191.17407 3257.37305
3291.0 0.0003039 3190.93384 3270.15918
3217.0 0.0003108 3190.69336 3288.56396
3158.0 0.0003167 3190.45264 3315.62451
3378.0 0.0002960 3190.21167 3355.40601
3317.0 0.0003015 3189.97095 3412.80737
3294.0 0.0003036 3189.72998 3492.86084
3315.0 0.0003017 3189.48853 3599.51099
3376.0 0.0002962 3189.24707 3733.98438
3324.0 0.0003008 3189.00562 3892.89893
3269.0 0.0003059 3188.76367 4065.90381
3310.0 0.0003021 3188.52197 4233.52197
3341.0 0.0002993 3188.27979 4367.76416
3356.0 0.0002980 3188.03760 4440.63770
3450.0 0.0002899 3187.79517 4438.21533
3398.0 0.0002943 3187.55273 4365.18457
3385.0 0.0002954 3187.31006 4237.64795
3316.0 0.0003016 3187.06714 4077.66089
3210.0 0.0003115 3186.82422 3909.00171
3240.0 0.0003086 3186.58081 3750.95459
3142.0 0.0003183 3186.33765 3615.01074
3196.0 0.0003129 3186.09424 3505.58179
3187.0 0.0003138 3185.85059 3422.11792
3209.0 0.0003116 3185.60669 3361.17773
3174.0 0.0003151 3185.36279 3318.14307
3154.0 0.0003171 3185.11841 3288.34912
3024.0 0.0003307 3184.87451 3267.77612
3201.0 0.0003124 3184.62964 3253.33667
3090.0 0.0003236 3184.38525 3242.86816
3070.0 0.0003257 3184.14038 3234.94580
3110.0 0.0003215 3183.89551 3228.68481
3125.0 0.0003200 3183.65039 3223.55444
3127.0 0.0003198 3183.40527 3219.23535
3061.0 0.0003267 3183.15991 3215.52832
3152.0 0.0003173 3182.91431 3212.30347
3140.0 0.0003185 3182.66870 3209.47168
3047.0 0.0003282 3182.42285 3206.96411
3188.0 0.0003137 3182.17676 3204.72852
3181.0 0.0003144 3181.93066 3202.72314
3155.0 0.0003170 3181.68408 3200.91431
3182.0 0.0003143 3181.43774 3199.27393
3146.0 0.0003179 3181.19116 3197.77808
2964.0 0.0003374 3180.94434 3196.40796
3027.0 0.0003304 3180.69751 3195.14795
3145.0 0.0003180 3180.45020 3193.98340
3156.0 0.0003169 3180.20313 3192.90283
3068.0 0.0003259 3179.95557 3191.89624
3054.0 0.0003274 3179.70825 3190.95532
3130.0 0.0003195 3179.46021 3190.07300
3151.0 0.0003174 3179.21240 3189.24243
3179.0 0.0003146 3178.96460 3188.45850
3130.0 0.0003195 3178.71631 3187.71533
3159.0 0.0003166 3178.46802 3187.01050
3051.0 0.0003278 3178.21924 3186.33862
3183.0 0.0003142 3177.97070 3185.69727
3137.0 0.0003188 3177.72192 3185.08374
3124.0 0.0003201 3177.47290 3184.49536
3191.0 0.0003134 3177.22388 3183.92944
3127.0 0.0003198 3176.97485 3183.38428
3177.0 0.0003148 3176.72510 3182.85840
3324.0 0.0003008 3176.47559 3182.34961
3178.0 0.0003147 3176.22583 3181.85693
3241.0 0.0003085 3175.97607 3181.37842
3226.0 0.0003100 3175.72607 3180.91357
3166.0 0.0003159 3175.47607 3180.46143
3221.0 0.0003105 3175.22559 3180.02051
3171.0 0.0003154 3174.97510 3179.58984
3294.0 0.0003036 3174.72437 3179.16943
3237.0 0.0003089 3174.47363 3178.75781
3132.0 0.0003193 3174.22266 3178.35474
3203.0 0.0003122 3173.97168 3177.95947
3148.0 0.0003177 3173.72046 3177.57129
3148.0 0.0003177 3173.46899 3177.18994
3141.0 0.0003184 3173.21753 3176.81519
3123.0 0.0003202 3172.96582 3176.44604
3005.0 0.0003328 3172.71387 3176.08228
3108.0 0.0003218 3172.46191 3175.72388
3247.0 0.0003080 3172.20996 3175.37036
3121.0 0.0003204 3171.95776 3175.02124
3030.0 0.0003300 3171.70508 3174.67627
3041.0 0.0003288 3171.45264 3174.33569
2995.0 0.0003339 3171.19995 3173.99805
3101.0 0.0003225 3170.94702 3173.66479
3117.0 0.0003208 3170.69385 3173.33423
2945.0 0.0003396 3170.44067 3173.00684
3115.0 0.0003210 3170.18750 3172.68286
3072.0 0.0003255 3169.93408 3172.36108
3131.0 0.0003194 3169.68042 3172.04199
2973.0 0.0003364 3169.42676 3171.72583
3094.0 0.0003232 3169.17261 3171.41138
3047.0 0.0003282 3168.91846 3171.09961
3070.0 0.0003257 3168.66431 3170.78955
3015.0 0.0003317 3168.40991 3170.48169
3113.0 0.0003212 3168.15552 3170.17554
3126.0 0.0003199 3167.90088 3169.87109
3049.0 0.0003280 3167.64600 3169.56860
3042.0 0.0003287 3167.39111 3169.26758
2998.0 0.0003336 3167.13599 3168.96777
3046.0 0.0003283 3166.88062 3168.66968
3047.0 0.0003282 3166.62524 3168.37305
3018.0 0.0003313 3166.36963 3168.07739
2992.0 0.0003342 3166.11401 3167.78296
3005.0 0.0003328 3165.85840 3167.48999
2974.0 0.0003362 3165.60229 3167.19775
3055.0 0.0003273 3165.34619 3166.90674
2896.0 0.0003453 3165.09009 3166.61670
3039.0 0.0003291 3164.83374 3166.32764
3032.0 0.0003298 3164.57690 3166.03931
3017.0 0.0003315 3164.32031 3165.75220
3158.0 0.0003167 3164.06348 3165.46558
2959.0 0.0003380 3163.80640 3165.17993
2976.0 0.0003360 3163.54932 3164.01660
2937.0 0.0003405 3163.29199 3163.75000
2954.0 0.0003385 3163.03467 3163.48315
2944.0 0.0003397 3162.77710 3162.78174
3036.0 0.0003294 3162.51929 3162.52417
2951.0 0.0003389 3162.26172 3162.26636
2952.0 0.0003388 3162.00342 3162.00830
3045.0 0.0003284 3161.74536 3161.75024
2962.0 0.0003376 3161.48706 3161.49194
3007.0 0.0003326 3161.22876 3161.23340
2953.0 0.0003386 3160.97021 3160.97485
3088.0 0.0003238 3160.71143 3160.71606
3054.0 0.0003274 3160.45264 3160.45728
3155.0 0.0003170 3160.19336 3160.19824
3134.0 0.0003191 3159.93457 3159.93921
3077.0 0.0003250 3159.67529 3159.67993
3054.0 0.0003274 3159.41577 3159.42041
3125.0 0.0003200 3159.15625 3159.16089
3063.0 0.0003265 3158.89648 3158.90112
3015.0 0.0003317 3158.63672 3158.64136
3053.0 0.0003275 3158.37671 3158.38135
3136.0 0.0003189 3158.11646 3158.12134
3166.0 0.0003159 3157.85645 3157.86108
3158.0 0.0003167 3157.59595 3157.60059
3138.0 0.0003187 3157.33545 3157.34009
3155.0 0.0003170 3157.07471 3157.07935
3124.0 0.0003201 3156.81396 3156.81860
3149.0 0.0003176 3156.55298 3156.55762
3125.0 0.0003200 3156.29199 3156.29663
2971.0 0.0003366 3156.03076 3156.03540
3043.0 0.0003286 3155.76904 3155.77393
3098.0 0.0003228 3155.50757 3155.51221
3068.0 0.0003259 3155.24585 3155.25073
3052.0 0.0003277 3154.98413 3154.98877
2991.0 0.0003343 3154.72217 3154.72681
2960.0 0.0003378 3154.46045 3154.46484
2970.0 0.0003367 3154.19800 3154.20264
2904.0 0.0003444 3153.93555 3153.94019
3011.0 0.0003321 3153.67310 3153.67773
2906.0 0.0003441 3153.41064 3153.41528
3025.0 0.0003306 3153.14795 3206.94434
2974.0 0.0003362 3152.88501 3207.62793
2924.0 0.0003420 3152.62183 3208.33667
3059.0 0.0003269 3152.35864 3209.07129
3003.0 0.0003330 3152.09546 3236.88818
3035.0 0.0003295 3151.83203 3238.15625
3017.0 0.0003315 3151.56836 3239.46606
2990.0 0.0003344 3151.30469 3240.81909
2983.0 0.0003352 3151.04077 3242.21680
3030.0 0.0003300 3150.77686 3243.66138
3047.0 0.0003282 3150.51270 3245.15405
3079.0 0.0003248 3150.24854 3246.69678
3052.0 0.0003277 3149.98413 3248.29175
2941.0 0.0003400 3149.71973 3249.94092
3098.0 0.0003228 3149.45483 3251.64624
3022.0 0.0003309 3149.18994 3253.41016
3055.0 0.0003273 3148.92505 3255.23462
3084.0 0.0003243 3148.66016 3257.12280
2963.0 0.0003375 3148.39478 3259.07666
3096.0 0.0003230 3148.12964 3261.09937
3037.0 0.0003293 3147.86401 3263.19312
2909.0 0.0003438 3147.59839 3265.36182
3092.0 0.0003234 3147.33276 3267.60791
3120.0 0.0003205 3147.06689 3269.93530
2893.0 0.0003457 3146.80078 3272.34741
2970.0 0.0003367 3146.53442 3274.84766
3034.0 0.0003296 3146.26831 3277.44019
3098.0 0.0003228 3146.00195 3280.12891
2988.0 0.0003347 3145.73535 3282.91919
3161.0 0.0003164 3145.46875 3285.81396
3004.0 0.0003329 3145.20190 3288.81958
3160.0 0.0003165 3144.93506 3291.94067
3113.0 0.0003212 3144.66797 3295.18311
3023.0 0.0003308 3144.40088 3298.55225
3031.0 0.0003299 3144.13330 3302.05420
3202.0 0.0003123 3143.86597 3305.69678
3126.0 0.0003199 3143.59839 3309.48535
3081.0 0.0003246 3143.33057 3313.42822
3092.0 0.0003234 3143.06299 3317.53345
3076.0 0.0003251 3142.79468 3321.80933
3165.0 0.0003160 3142.52661 3326.26416
3105.0 0.0003221 3142.25854 3331.74243
3029.0 0.0003301 3141.98999 3336.59912
3023.0 0.0003308 3141.72168 3341.66602
3110.0 0.0003215 3141.45288 3347.36621
3079.0 0.0003248 3141.18408 3352.89697
3033.0 0.0003297 3140.91528 3358.67603
3017.0 0.0003315 3140.64624 3364.71704
3092.0 0.0003234 3140.37695 3371.03711
3102.0 0.0003224 3140.10767 3377.65210
3107.0 0.0003219 3139.83838 3384.57886
3129.0 0.0003196 3139.56885 3391.83765
3110.0 0.0003215 3139.29932 3399.45068
3192.0 0.0003133 3139.02954 3407.43701
3140.0 0.0003185 3138.75952 3415.82300
3201.0 0.0003124 3138.48926 3424.63477
3123.0 0.0003202 3138.21899 3433.90039
3156.0 0.0003169 3137.94897 3443.64941
3191.0 0.0003134 3137.67847 3453.91577
3282.0 0.0003047 3137.40771 3464.73901
3253.0 0.0003074 3137.13721 3476.15332
3212.0 0.0003113 3136.86621 3488.20410
3256.0 0.0003071 3136.59546 3500.93970
3323.0 0.0003009 3136.32422 3514.41113
3294.0 0.0003036 3136.05322 3528.67188
3367.0 0.0002970 3135.78174 3543.78589
3482.0 0.0002872 3135.51025 3559.82520
3519.0 0.0002842 3135.23877 3576.85693
3623.0 0.0002760 3134.96704 3594.96802
3602.0 0.0002776 3134.69531 3614.25171
3730.0 0.0002681 3134.42334 3634.80786
3738.0 0.0002675 3134.15137 3656.74512
3830.0 0.0002611 3133.87915 3680.19482
3830.0 0.0002611 3133.60693 3705.29419
3859.0 0.0002591 3133.33423 3732.19556
3821.0 0.0002617 3133.06177 3761.07666
3886.0 0.0002573 3132.78882 3792.13770
3840.0 0.0002604 3132.51611 3825.59692
3890.0 0.0002571 3132.24316 3861.69995
3938.0 0.0002539 3131.97021 3900.73926
3848.0 0.0002599 3131.69678 3943.03271
3835.0 0.0002608 3131.42383 3988.94189
3942.0 0.0002537 3131.15015 4038.89233
3926.0 0.0002547 3130.87671 4093.37402
4025.0 0.0002484 3130.60303 4152.93799
4178.0 0.0002393 3130.32935 4218.22070
4208.0 0.0002376 3130.05542 4289.98828
4234.0 0.0002362 3129.78125 4369.10791
4370.0 0.0002288 3129.50708 4456.59473
4481.0 0.0002232 3129.23291 4553.66943
4567.0 0.0002190 3128.95825 4661.79395
4765.0 0.0002099 3128.68384 4782.62549
5028.0 0.0001989 3128.40918 4918.24365
5237.0 0.0001909 3128.13452 5071.15039
5358.0 0.0001866 3127.85962 5244.36963
5434.0 0.0001840 3127.58447 5441.65137
5703.0 0.0001753 3127.30957 5667.82227
5805.0 0.0001723 3127.03418 5929.31934
6052.0 0.0001652 3126.75879 6234.89648
6560.0 0.0001524 3126.48315 6597.75293
7151.0 0.0001398 3126.20752 7038.42334
7833.0 0.0001277 3125.93164 7589.75488
8787.0 0.0001138 3125.65601 8304.55664
10138.0 0.0000986 3125.37988 9265.86523
11615.0 0.0000861 3125.10376 10598.25684
14057.0 0.0000711 3124.82764 12475.22070
16881.0 0.0000592 3124.55127 15121.72070
21029.0 0.0000476 3124.27490 18799.53711
26105.0 0.0000383 3123.99829 23772.30859
32104.0 0.0000311 3123.72168 30250.04297
39132.0 0.0000256 3123.44482 38316.79688
46505.0 0.0000215 3123.16797 47830.41797
54239.0 0.0000184 3122.89063 58300.55078
62204.0 0.0000161 3122.61353 68750.15625
69759.0 0.0000143 3122.33643 77681.67188
77991.0 0.0000128 3122.05884 83450.94531
84718.0 0.0000118 3121.78149 85067.32031
88087.0 0.0000114 3121.50366 82612.31250
85799.0 0.0000117 3121.22607 76799.83594
77173.0 0.0000130 3120.94824 68509.64063
64136.0 0.0000156 3120.67017 58790.11328
51696.0 0.0000193 3120.39209 48800.08984
40149.0 0.0000249 3120.11377 39503.02734
29891.0 0.0000335 3119.83569 31470.00586
21437.0 0.0000466 3119.55737 24908.04883
15768.0 0.0000634 3119.27856 19782.66016
12467.0 0.0000802 3118.99976 15921.06152
10382.0 0.0000963 3118.72119 13089.89160
9135.0 0.0001095 3118.44238 11049.44238
8246.0 0.0001213 3118.16309 9587.04785
7396.0 0.0001352 3117.88403 8529.53613
6885.0 0.0001452 3117.60498 7748.03857
6478.0 0.0001544 3117.32568 7152.59961
6203.0 0.0001612 3117.04614 6683.39502
5801.0 0.0001724 3116.76636 6301.92285
5733.0 0.0001744 3116.48682 5983.79150
5656.0 0.0001768 3116.20679 5713.60205
5731.0 0.0001745 3115.92700 5480.98047
5737.0 0.0001743 3115.64697 5278.74561
5625.0 0.0001778 3115.36670 5101.67334
5965.0 0.0001676 3115.08667 4945.75000
5770.0 0.0001733 3114.80615 4807.75830
5511.0 0.0001815 3114.52563 4685.08008
5260.0 0.0001901 3114.24512 4575.65088
5207.0 0.0001920 3113.96436 4477.67969
4877.0 0.0002050 3113.68359 4389.68652
4710.0 0.0002123 3113.40259 4310.45166
4470.0 0.0002237 3113.12134 4238.95068
4357.0 0.0002295 3112.84033 4174.28955
4261.0 0.0002347 3112.55908 4115.74219
4017.0 0.0002489 3112.27759 4062.69189
4026.0 0.0002484 3111.99634 4014.61060
3800.0 0.0002632 3111.71460 3971.05786
3836.0 0.0002607 3111.43286 3931.68701
3759.0 0.0002660 3111.15112 3896.22412
3733.0 0.0002679 3110.86914 3864.46411
3689.0 0.0002711 3110.58691 3836.31055
3704.0 0.0002700 3110.30493 3811.79126
3630.0 0.0002755 3110.02295 3791.11353
3616.0 0.0002765 3109.74048 3774.76538
3583.0 0.0002791 3109.45801 3763.65771
3511.0 0.0002848 3109.17529 3759.28467
3575.0 0.0002797 3108.89258 3763.89722
3512.0 0.0002847 3108.60986 3780.61572
3773.0 0.0002650 3108.32690 3813.36865
3653.0 0.0002737 3108.04395 3866.60059
3609.0 0.0002771 3107.76074 3944.65283
3719.0 0.0002689 3107.47729 4050.72070
3657.0 0.0002734 3107.19409 4185.67773
3760.0 0.0002660 3106.91064 4346.36768
3815.0 0.0002621 3106.62720 4523.35010
3853.0 0.0002595 3106.34351 4698.47705
3962.0 0.0002524 3106.05981 4844.82031
3947.0 0.0002534 3105.77588 4933.91992
3916.0 0.0002554 3105.49194 4949.56836
3976.0 0.0002515 3105.20776 4894.25342
4076.0 0.0002453 3104.92383 4780.68848
4048.0 0.0002470 3104.63940 4623.59180
3888.0 0.0002572 3104.35498 4440.22461
3805.0 0.0002628 3104.07056 4250.30566
3704.0 0.0002700 3103.78589 4071.02563
3747.0 0.0002669 3103.50098 3913.29712
3612.0 0.0002769 3103.21631 3781.52051
3599.0 0.0002779 3102.93115 3675.65576
3535.0 0.0002829 3102.64624 3593.08936
3521.0 0.0002840 3102.36133 3529.97900
3609.0 0.0002771 3102.07593 3482.18237
3478.0 0.0002875 3101.79053 3445.89575
3555.0 0.0002813 3101.50513 3417.93872
3592.0 0.0002784 3101.21948 3395.84668
3464.0 0.0002887 3100.93384 3377.83887
3443.0 0.0002904 3100.64819 3362.69312
3461.0 0.0002889 3100.36230 3349.59985
3438.0 0.0002909 3100.07617 3338.02783
3414.0 0.0002929 3099.79028 3327.63428
3335.0 0.0002999 3099.50415 3318.19019
3258.0 0.0003069 3099.21802 3309.53345
3385.0 0.0002954 3098.93140 3301.54297
3358.0 0.0002978 3098.64502 3294.13184
3276.0 0.0003053 3098.35864 3287.22485
3330.0 0.0003003 3098.07178 3280.76172
3326.0 0.0003007 3097.78516 3274.69971
3366.0 0.0002971 3097.49829 3268.98486
3299.0 0.0003031 3097.21118 3263.58716
3141.0 0.0003184 3096.92407 3258.47412
3312.0 0.0003019 3096.63696 3253.62549
3194.0 0.0003131 3096.34961 3249.00977
3158.0 0.0003167 3096.06226 3244.61011
3305.0 0.0003026 3095.77490 3240.40918
3181.0 0.0003144 3095.48730 3236.39209
3227.0 0.0003099 3095.19971 3232.54395
3161.0 0.0003164 3094.91162 3228.85181
3197.0 0.0003128 3094.62402 3225.30615
3190.0 0.0003135 3094.33594 3221.89697
3265.0 0.0003063 3094.04785 3218.62939
3224.0 0.0003102 3093.75977 3215.46509
3324.0 0.0003008 3093.47144 3212.41309
3248.0 0.0003079 3093.18286 3209.46558
3282.0 0.0003047 3092.89453 3206.62451
3289.0 0.0003040 3092.60596 3203.86865
3272.0 0.0003056 3092.31738 3201.20142
3346.0 0.0002989 3092.02856 3198.61670
3284.0 0.0003045 3091.73975 3196.11060
3176.0 0.0003149 3091.45068 3193.67969
3226.0 0.0003100 3091.16162 3191.31934
3202.0 0.0003123 3090.87280 3189.02686
3222.0 0.0003104 3090.58325 3186.79858
3148.0 0.0003177 3090.29419 3184.63159
3164.0 0.0003161 3090.00439 3182.52271
3200.0 0.0003125 3089.71509 3125.83325
3166.0 0.0003159 3089.42529 3124.77686
3148.0 0.0003177 3089.13574 3123.74780
3198.0 0.0003127 3088.84570 3122.74341
3162.0 0.0003163 3088.55591 3094.84595
3096.0 0.0003230 3088.26611 3094.35156
3121.0 0.0003204 3087.97583 3093.86646
3113.0 0.0003212 3087.68579 3093.39111
3103.0 0.0003223 3087.39551 3092.92456
3148.0 0.0003177 3087.10498 3092.46606
3163.0 0.0003162 3086.81470 3092.01538
3140.0 0.0003185 3086.52393 3091.57153
3004.0 0.0003329 3086.23340 3091.13452
3064.0 0.0003264 3085.94263 3090.70386
3146.0 0.0003179 3085.65161 3090.27954
3064.0 0.0003264 3085.36084 3089.86108
3041.0 0.0003288 3085.06982 3089.44751
3118.0 0.0003207 3084.77881 3089.03906
3144.0 0.0003181 3084.48755 3088.63574
3142.0 0.0003183 3084.19604 3088.23657
3021.0 0.0003310 3083.90479 3087.84180
3099.0 0.0003227 3083.61328 3087.45117
3002.0 0.0003331 3083.32178 3087.06445
3016.0 0.0003316 3083.03003 3086.68091
2957.0 0.0003382 3082.73828 3086.30151
3030.0 0.0003300 3082.44629 3085.92505
2951.0 0.0003389 3082.15430 3085.55176
2956.0 0.0003383 3081.86230 3085.18164
3014.0 0.0003318 3081.57007 3084.81494
2917.0 0.0003428 3081.27808 3084.45020
2988.0 0.0003347 3080.98584 3084.08838
2993.0 0.0003341 3080.69312 3083.72876
2940.0 0.0003401 3080.40088 3083.37183
2971.0 0.0003366 3080.10815 3083.01685
2954.0 0.0003385 3079.81567 3082.66455
3056.0 0.0003272 3079.52295 3082.31396
3034.0 0.0003296 3079.22998 3081.96558
2933.0 0.0003409 3078.93701 3081.61914
2989.0 0.0003346 3078.64404 3081.27466
2959.0 0.0003380 3078.35083 3080.93164
2905.0 0.0003442 3078.05762 3080.59082
2936.0 0.0003406 3077.76440 3080.25171
2849.0 0.000351 3077.47119 3079.91406
3051.0 0.0003278 3077.17773 3079.57764
2937.0 0.0003405 3076.88403 3079.24365
2932.0 0.0003411 3076.59058 3078.91040
2983.0 0.0003352 3076.29663 3078.57886
2934.0 0.0003408 3076.00293 3078.24927
2911.0 0.0003435 3075.70898 3077.92041
3104.0 0.0003222 3075.41504 3077.59302
3017.0 0.0003315 3075.12085 3077.26709
3020.0 0.0003311 3074.82666 3076.94287
2917.0 0.0003428 3074.53247 3076.61938
2810.0 0.000356 3074.23828 3076.29761
3072.0 0.0003255 3073.94385 3075.97754
2910.0 0.0003436 3073.64917 3075.65796
2964.0 0.0003374 3073.35474 3075.34033
2864.0 0.0003492 3073.06006 3075.02417
2866.0 0.0003489 3072.76538 3074.70874
2994.0 0.0003340 3072.47046 3074.39575
2917.0 0.0003428 3072.17554 3074.08374
2962.0 0.0003376 3071.88062 3073.77295
2935.0 0.0003407 3071.58545 3073.46411
2944.0 0.0003397 3071.29028 3073.15674
2960.0 0.0003378 3070.99512 3072.85156
2918.0 0.0003427 3070.69971 3072.54761
2915.0 0.0003431 3070.40430 3072.24634
2952.0 0.0003388 3070.10889 3071.94678
2993.0 0.0003341 3069.81323 3071.64941
2941.0 0.0003400 3069.51758 3071.35522
2948.0 0.0003392 3069.22192 3071.06323
3033.0 0.0003297 3068.92578 3070.77466
2889.0 0.0003461 3068.63013 3070.48950
2901.0 0.0003447 3068.33398 3070.20776
2949.0 0.0003391 3068.03809 3069.93042
2933.0 0.0003409 3067.74170 3069.65747
2816.0 0.000355 3067.44556 3068.55908
2938.0 0.0003404 3067.14941 3068.31079
2995.0 0.0003339 3066.85278 3068.06934
2913.0 0.0003433 3066.55640 3067.41821
2920.0 0.0003425 3066.25977 3067.20093
2962.0 0.0003376 3065.96313 3066.99536
3002.0 0.0003331 3065.66650 3066.80298
3018.0 0.0003313 3065.36963 3066.62939
2835.0 0.000353 3065.07300 3066.47998
2901.0 0.0003447 3064.77588 3066.36353
2833.0 0.000353 3064.47876 3066.29590
3000.0 0.0003333 3064.18164 3066.30127
3035.0 0.0003295 3063.88452 3066.41821
2861.0 0.0003495 3063.58716 3066.70093
2881.0 0.0003471 3063.28979 3067.22388
2954.0 0.0003385 3062.99243 3068.07666
2940.0 0.0003401 3062.69482 3069.35742
2977.0 0.0003359 3062.39746 3071.15332
2981.0 0.0003355 3062.09985 3073.52075
2948.0 0.0003392 3061.80200 3076.45337
2961.0 0.0003377 3061.50415 3079.84473
2921.0 0.0003423 3061.20630 3083.44238
2985.0 0.0003350 3060.90820 3086.82593
2880.0 0.0003472 3060.61035 3089.49243
2883.0 0.0003469 3060.31226 3091.09058
2905.0 0.0003442 3060.01392 3091.57227
2963.0 0.0003375 3059.71558 3091.03906
2892.0 0.0003458 3059.41724 3089.54028
2907.0 0.0003440 3059.11890 3087.12500
2854.0 0.0003504 3058.82031 3084.00244
2708.0 0.000369 3058.52197 3080.51685
2943.0 0.0003398 3058.22314 3076.98438
2965.0 0.0003373 3057.92456 3073.60205
2877.0 0.0003476 3057.62573 3070.47998
2931.0 0.0003412 3057.32690 3067.69556
2883.0 0.0003469 3057.02783 3065.29517
2889.0 0.0003461 3056.72876 3063.28320
2824.0 0.000354 3056.42969 3061.62817
2915.0 0.0003431 3056.13062 3060.27930
2918.0 0.0003427 3055.83130 3059.17871
2833.0 0.000353 3055.53198 3058.27319
2892.0 0.0003458 3055.23267 3057.51636
2887.0 0.0003464 3054.93311 3056.86987
2827.0 0.000354 3054.63379 3056.30469
2770.0 0.000361 3054.33398 3055.79785
2874.0 0.0003479 3054.03442 3055.33325
2787.0 0.000359 3053.73462 3054.89868
2914.0 0.0003432 3053.43481 3054.48682
2746.0 0.000364 3053.13477 3054.09131
2846.0 0.000351 3052.83496 3053.70923
2811.0 0.000356 3052.53491 3053.33789
2815.0 0.000355 3052.23486 3052.97461
2863.0 0.0003493 3051.93457 3052.61865
2784.0 0.000359 3051.63428 3052.26880
2855.0 0.0003503 3051.33423 3051.92432
2878.0 0.0003475 3051.03369 3051.58374
2844.0 0.000352 3050.73340 3051.24756
2802.0 0.000357 3050.43262 3050.91455
2921.0 0.0003423 3050.13232 3050.58447
2831.0 0.000353 3049.83179 3050.25708
2880.0 0.0003472 3049.53076 3049.93164
2854.0 0.0003504 3049.22998 3049.60864
2755.0 0.000363 3048.92896 3049.28687
2821.0 0.000354 3048.62817 3048.96729
2919.0 0.0003426 3048.32739 3048.64893
2818.0 0.000355 3048.02612 3048.33130
2884.0 0.0003467 3047.72510 3048.01514
2707.0 0.000369 3047.42383 3047.70020
2784.0 0.000359 3047.12256 3047.38599
2714.0 0.000368 3046.82129 3047.07275
2909.0 0.0003438 3046.51978 3046.76001
2797.0 0.000358 3046.21826 3046.44849
2808.0 0.000356 3045.91675 3046.13721
2874.0 0.0003479 3045.61523 3045.82617
2883.0 0.0003469 3045.31348 3045.51636
2837.0 0.000352 3045.01172 3045.20630
2829.0 0.000353 3044.70996 3044.89697
2918.0 0.0003427 3044.40820 3044.58789
2839.0 0.000352 3044.10620 3044.27930
2816.0 0.000355 3043.80420 3043.97046
2856.0 0.0003501 3043.50195 3043.66284
2829.0 0.000353 3043.19995 3043.35498
2901.0 0.0003447 3042.89771 3043.04712
2753.0 0.000363 3042.59546 3043.31201
2891.0 0.0003459 3042.29321 3043.01367
2905.0 0.0003442 3041.99097 3042.71582
2852.0 0.0003506 3041.68823 3042.41821
2801.0 0.000357 3041.38574 3042.40332
2827.0 0.000354 3041.08325 3042.11084
2796.0 0.000358 3040.78052 3041.81860
2749.0 0.000364 3040.47778 3041.52710
2850.0 0.000351 3040.17505 3041.23584
2763.0 0.000362 3039.87231 3040.94482
2872.0 0.0003482 3039.56934 3040.65479
2693.0 0.000371 3039.26636 3040.36450
2731.0 0.000366 3038.96338 3040.07520
2805.0 0.000357 3038.66040 3039.78638
2847.0 0.000351 3038.35718 3039.49805
2781.0 0.000360 3038.05396 3039.20972
2873.0 0.0003481 3037.75073 3038.92236
2813.0 0.000355 3037.44727 3038.63525
2790.0 0.000358 3037.14404 3038.34912
2885.0 0.0003466 3036.84058 3038.06323
2684.0 0.000373 3036.53711 3037.77808
2728.0 0.000367 3036.23389 3037.49243
2862.0 0.0003494 3035.93018 3037.20874
2750.0 0.000364 3035.62622 3036.92505
2813.0 0.000355 3035.32251 3036.64185
2788.0 0.000359 3035.01880 3036.35938
2821.0 0.000354 3034.71509 3036.07764
2806.0 0.000356 3034.41089 3035.79639
2794.0 0.000358 3034.10693 3035.51636
2798.0 0.000357 3033.80298 3035.23633
2712.0 0.000369 3033.49878 3034.95752
2780.0 0.000360 3033.19482 3034.67944
2840.0 0.000352 3032.89038 3034.40186
2879.0 0.0003473 3032.58618 3034.12524
2632.0 0.000380 3032.28198 3033.84961
2880.0 0.0003472 3031.97754 3033.57520
2762.0 0.000362 3031.67310 3033.30078
2735.0 0.000366 3031.36865 3033.02783
2805.0 0.000357 3031.06421 3032.75635
2763.0 0.000362 3030.75952 3032.48535
2842.0 0.000352 3030.45483 3032.21558
2791.0 0.000358 3030.15015 3031.94727
2791.0 0.000358 3029.84546 3031.67969
2821.0 0.000354 3029.54053 3031.41357
2901.0 0.0003447 3029.23560 3031.14819
2848.0 0.000351 3028.93066 3030.88525
2819.0 0.000355 3028.62573 3030.62280
2762.0 0.000362 3028.32080 3030.36304
2776.0 0.000360 3028.01563 3030.10376
2857.0 0.0003500 3027.71045 3029.84644
2958.0 0.0003381 3027.40527 3029.59082
2755.0 0.000363 3027.09985 3029.33667
2886.0 0.0003465 3026.79443 3029.08521
2945.0 0.0003396 3026.48926 3028.83496
2962.0 0.0003376 3026.18384 3028.58716
2907.0 0.0003440 3025.87817 3028.34204
2920.0 0.0003425 3025.57275 3028.09839
2826.0 0.000354 3025.26709 3027.85742
2995.0 0.0003339 3024.96143 3027.61938
3006.0 0.0003327 3024.65576 3027.38330
2941.0 0.0003400 3024.35010 3027.15112
2887.0 0.0003464 3024.04443 3026.92139
2943.0 0.0003398 3023.73853 3027.90454
2941.0 0.0003400 3023.43262 3027.70288
2979.0 0.0003357 3023.12646 3027.50537
2941.0 0.0003400 3022.82056 3027.31201
3095.0 0.0003231 3022.51440 3027.71997
3053.0 0.0003275 3022.20874 3027.54688
3152.0 0.0003173 3021.90234 3027.37939
3233.0 0.0003093 3021.59619 3027.21753
3372.0 0.0002966 3021.28979 3027.06128
3408.0 0.0002934 3020.98364 3026.91284
3217.0 0.0003108 3020.67725 3026.77026
3195.0 0.0003130 3020.37085 3026.63501
3037.0 0.0003293 3020.06421 3026.50830
3100.0 0.0003226 3019.75781 3026.38892
3053.0 0.0003275 3019.45142 3026.27930
2919.0 0.0003426 3019.14478 3026.17236
2956.0 0.0003383 3018.83813 3026.08130
2926.0 0.0003418 3018.53149 3026.00171
2922.0 0.0003422 3018.22485 3025.93359
2828.0 0.000354 3017.91772 3025.85913
2877.0 0.0003476 3017.61108 3025.81714
2960.0 0.0003378 3017.30396 3025.78931
2853.0 0.0003505 3016.99731 3025.77588
2792.0 0.000358 3016.69019 3025.77979
2898.0 0.0003451 3016.38306 3025.80151
2840.0 0.000352 3016.07617 3025.84253
2900.0 0.0003448 3015.76904 3025.90430
2849.0 0.000351 3015.46191 3025.98901
2903.0 0.0003445 3015.15454 3026.09839
2863.0 0.0003493 3014.84741 3026.23511
2883.0 0.0003469 3014.54004 3026.40039
2841.0 0.000352 3014.23267 3026.59839
2838.0 0.000352 3013.92554 3026.83179
2854.0 0.0003504 3013.61816 3027.10425
2964.0 0.0003374 3013.31030 3027.41895
2838.0 0.000352 3013.00293 3027.78125
2811.0 0.000356 3012.69556 3028.19580
2917.0 0.0003428 3012.38770 3028.66919
2735.0 0.000366 3012.08032 3029.20728
2874.0 0.0003479 3011.77271 3029.81787
2889.0 0.0003461 3011.46484 3030.51001
2896.0 0.0003453 3011.15698 3031.29419
2810.0 0.000356 3010.84912 3032.18164
2823.0 0.000354 3010.54126 3033.18726
2838.0 0.000352 3010.23340 3034.32715
2909.0 0.0003438 3009.92554 3035.62061
2852.0 0.0003506 3009.61743 3037.09009
2780.0 0.000360 3009.30933 3038.76514
2733.0 0.000366 3009.00122 3040.67798
2813.0 0.000355 3008.69312 3042.86987
2847.0 0.000351 3008.38501 3045.39453
2762.0 0.000362 3008.07690 3048.32056
2720.0 0.000368 3007.76855 3051.74048
2912.0 0.0003434 3007.46021 3055.79395
2822.0 0.000354 3007.15186 3060.69092
2887.0 0.0003464 3006.84375 3066.76050
2937.0 0.0003405 3006.53516 3074.51831
2904.0 0.0003444 3006.22656 3084.76636
2881.0 0.0003471 3005.91846 3098.68604
2805.0 0.000357 3005.60962 3117.93408
2900.0 0.0003448 3005.30103 3144.67529
2890.0 0.0003460 3004.99268 3181.50146
2902.0 0.0003446 3004.68408 3231.17749
2957.0 0.0003382 3004.37524 3296.20825
2909.0 0.0003438 3004.06665 3378.26855
2893.0 0.0003457 3003.75781 3477.40332
2956.0 0.0003383 3003.44922 3591.10547
2903.0 0.0003445 3003.14014 3713.14478
2951.0 0.0003389 3002.83130 3832.28760
3121.0 0.0003204 3002.52246 3932.49658
3085.0 0.0003241 3002.21338 3997.48071
3179.0 0.0003146 3001.90454 4018.78931
3064.0 0.0003264 3001.59546 3999.36768
3202.0 0.0003123 3001.28662 3947.94116
3158.0 0.0003167 3000.97729 3871.87598
3217.0 0.0003108 3000.66821 3776.72119
3166.0 0.0003159 3000.35913 3669.84644
3201.0 0.0003124 3000.05005 3560.86353
3057.0 0.0003271 2999.74072 3458.64551
3059.0 0.0003269 2999.43140 3368.91357
3114.0 0.0003211 2999.12207 3294.06592
2933.0 0.0003409 2998.81274 3234.12549
3053.0 0.0003275 2998.50342 3187.73706
2941.0 0.0003400 2998.19385 3152.89941
2980.0 0.0003356 2997.88452 3127.36987
2870.0 0.0003484 2997.57520 3109.01782
3016.0 0.0003316 2997.26563 3096.00952
2869.0 0.0003486 2996.95630 3086.87646
2865.0 0.0003490 2996.64648 3080.52197
2849.0 0.000351 2996.33691 3076.18018
2965.0 0.0003373 2996.02734 3073.34717
2955.0 0.0003384 2995.71753 3071.70752
2974.0 0.0003362 2995.40796 3071.08008
2899.0 0.0003449 2995.09814 3071.37622
2894.0 0.0003455 2994.78857 3072.57202
2936.0 0.0003406 2994.47852 3074.69897
3016.0 0.0003316 2994.16870 3077.84595
2909.0 0.0003438 2993.85889 3082.17798
2911.0 0.0003435 2993.54907 3087.97925
2977.0 0.0003359 2993.23926 3095.72437
3007.0 0.0003326 2992.92896 3106.18530
2949.0 0.0003391 2992.61914 3120.58667
2878.0 0.0003475 2992.30908 3140.78833
2962.0 0.0003376 2991.99902 3169.43921
2969.0 0.0003368 2991.68896 3210.05615
2993.0 0.0003341 2991.37891 3266.92871
3000.0 0.0003333 2991.06860 3344.73535
3000.0 0.0003333 2990.75854 3447.82031
3128.0 0.0003197 2990.44849 3579.18384
3203.0 0.0003122 2990.13818 3739.29858
3251.0 0.0003076 2989.82813 3924.50391
3258.0 0.0003069 2989.51782 4125.14111
3255.0 0.0003072 2989.20752 4323.55273
3410.0 0.0002933 2988.89697 4493.94043
3432.0 0.0002914 2988.58691 4608.67334
3578.0 0.0002795 2988.27637 4652.16797
3632.0 0.0002753 2987.96606 4626.90918
3605.0 0.0002774 2987.65552 4547.78613
3476.0 0.0002877 2987.34497 4427.73145
3662.0 0.0002731 2987.03467 4275.40967
3492.0 0.0002864 2986.72388 4101.39063
3292.0 0.0003038 2986.41357 3920.35107
3368.0 0.0002969 2986.10278 3747.63232
3247.0 0.0003080 2985.79224 3593.81909
3243.0 0.0003084 2985.48169 3463.92871
3132.0 0.0003193 2985.17090 3358.72583
3180.0 0.0003145 2984.86035 3276.36108
3057.0 0.0003271 2984.54956 3213.64307
2963.0 0.0003375 2984.23877 3166.91943
2967.0 0.0003370 2983.92798 3132.55078
3112.0 0.0003213 2983.61743 3107.33057
3043.0 0.0003286 2983.30640 3088.65137
2879.0 0.0003473 2982.99585 3074.52808
2978.0 0.0003358 2982.68506 3063.53613
2953.0 0.0003386 2982.37402 3054.70630
2913.0 0.0003433 2982.06299 3047.40186
2906.0 0.0003441 2981.75244 3041.20752
2936.0 0.0003406 2981.44116 3035.85449
2825.0 0.000354 2981.13037 3031.16626
2952.0 0.0003388 2980.81958 3027.01733
2891.0 0.0003459 2980.50830 3023.31665
2890.0 0.0003460 2980.19727 3019.99561
2905.0 0.0003442 2979.88647 3016.99829
2859.0 0.0003498 2979.57520 3014.27954
2977.0 0.0003359 2979.26416 3011.80225
2889.0 0.0003461 2978.95288 3009.53540
2839.0 0.000352 2978.64185 3007.45313
2881.0 0.0003471 2978.33081 3005.53198
2794.0 0.000358 2978.01953 3003.75464
2812.0 0.000356 2977.70850 3002.10327
2796.0 0.000358 2977.39722 3000.56494
2863.0 0.0003493 2977.08594 2999.12646
2861.0 0.0003495 2976.77466 2997.77881
2788.0 0.000359 2976.46338 2996.51245
2779.0 0.000360 2976.15210 2995.31836
2855.0 0.0003503 2975.84082 2994.19019
2822.0 0.000354 2975.52954 2993.12256
2810.0 0.000356 2975.21802 2992.10889
2887.0 0.0003464 2974.90674 2991.14429
2779.0 0.000360 2974.59546 2990.22534
2902.0 0.0003446 2974.28394 2989.34790
2955.0 0.0003384 2973.97266 2988.50854
2808.0 0.000356 2973.66113 2987.70435
2921.0 0.0003423 2973.34985 2986.93237
2960.0 0.0003378 2973.03809 2986.18994
2903.0 0.0003445 2972.72681 2985.47559
2917.0 0.0003428 2972.41504 2984.78711
2886.0 0.0003465 2972.10352 2984.12231
2796.0 0.000358 2971.79199 2983.47974
2870.0 0.0003484 2971.48071 2982.85864
2852.0 0.0003506 2971.16895 2982.25635
2834.0 0.000353 2970.85742 2981.67310
2833.0 0.000353 2970.54590 2981.10669
2910.0 0.0003436 2970.23413 2980.55762
2772.0 0.000361 2969.92261 2980.02319
2753.0 0.000363 2969.61084 2979.50391
2876.0 0.0003477 2969.29932 2978.99854
2876.0 0.0003477 2968.98779 2978.50659
2748.0 0.000364 2968.67578 2978.02759
2832.0 0.000353 2968.36426 2977.56055
2798.0 0.000357 2968.05273 2977.10547
2894.0 0.0003455 2967.74097 2976.66187
2891.0 0.0003459 2967.42896 2976.22949
2825.0 0.000354 2967.11743 2975.80762
2829.0 0.000353 2966.80566 2975.39624
2762.0 0.000362 2966.49365 2974.99561
2816.0 0.000355 2966.18188 2974.60522
2765.0 0.000362 2965.87012 2974.22461
2809.0 0.000356 2965.55835 2973.85400
2713.0 0.000369 2965.24658 2973.49341
2799.0 0.000357 2964.93481 2973.14307
2645.0 0.000378 2964.62280 2972.80225
2799.0 0.000357 2964.31104 2972.47144
2796.0 0.000358 2963.99902 2972.15161
2836.0 0.000353 2963.68726 2971.84180
2908.0 0.0003439 2963.37549 2971.54297
2843.0 0.000352 2963.06348 2971.25513
2904.0 0.0003444 2962.75146 2970.97876
2861.0 0.0003495 2962.43970 2970.71362
2910.0 0.0003436 2962.12744 2970.46118
2936.0 0.0003406 2961.81592 2970.22192
2901.0 0.0003447 2961.50391 2969.99609
2991.0 0.0003343 2961.19189 2969.21362
2742.0 0.000365 2960.87988 2969.02588
2889.0 0.0003461 2960.56763 2968.85400
2947.0 0.0003393 2960.25586 2968.69971
2958.0 0.0003381 2959.94409 2968.27710
2837.0 0.000352 2959.63184 2968.16528
2915.0 0.0003431 2959.31982 2968.07422
2808.0 0.000356 2959.00781 2968.00708
2927.0 0.0003416 2958.69580 2967.96436
2913.0 0.0003433 2958.38379 2967.95020
2958.0 0.0003381 2958.07178 2967.96655
2898.0 0.0003451 2957.75977 2968.01636
3003.0 0.0003330 2957.44751 2968.10327
2901.0 0.0003447 2957.13574 2968.23193
2899.0 0.0003449 2956.82349 2968.40625
2965.0 0.0003373 2956.51147 2968.63257
2887.0 0.0003464 2956.19946 2968.91699
2921.0 0.0003423 2955.88745 2969.26685
2954.0 0.0003385 2955.57520 2969.69165
2863.0 0.0003493 2955.26318 2970.20020
2986.0 0.0003349 2954.95117 2970.80566
3003.0 0.0003330 2954.63916 2971.52319
3018.0 0.0003313 2954.32666 2972.36938
3077.0 0.0003250 2954.01489 2973.36646
3140.0 0.0003185 2953.70264 2974.54150
3239.0 0.0003087 2953.39063 2975.93164
3218.0 0.0003108 2953.07861 2976.37280
3338.0 0.0002996 2952.76636 2978.38013
3345.0 0.0002990 2952.45410 2980.82593
3293.0 0.0003037 2952.14209 2983.86719
3404.0 0.0002938 2951.83008 2987.74561
3171.0 0.0003154 2951.51807 2992.22046
3161.0 0.0003164 2951.20581 2999.02051
3140.0 0.0003185 2950.89355 3008.24438
3014.0 0.0003318 2950.58154 3020.81641
3053.0 0.0003275 2950.26929 3037.85205
2988.0 0.0003347 2949.95728 3060.57739
2945.0 0.0003396 2949.64526 3090.18799
2884.0 0.0003467 2949.33301 3127.65942
2865.0 0.0003490 2949.02075 3173.45776
2819.0 0.000355 2948.70874 3227.22876
2907.0 0.0003440 2948.39648 3287.39355
2931.0 0.0003412 2948.08423 3350.60986
2966.0 0.0003372 2947.77222 3411.27148
2950.0 0.0003390 2947.46021 3461.83472
2929.0 0.0003414 2947.14795 3494.95557
2965.0 0.0003373 2946.83569 3506.85938
2930.0 0.0003413 2946.52368 3498.88940
3081.0 0.0003246 2946.21143 3475.22876
2992.0 0.0003342 2945.89941 3439.56909
2984.0 0.0003351 2945.58740 3394.21753
2852.0 0.0003506 2945.27515 3341.56152
2944.0 0.0003397 2944.96313 3285.24634
2936.0 0.0003406 2944.65112 3229.58008
2965.0 0.0003373 2944.33887 3178.11963
2875.0 0.0003478 2944.02686 3132.96631
3040.0 0.0003289 2943.71460 3094.90698
2896.0 0.0003453 2943.40234 3063.85498
2967.0 0.0003370 2943.09058 3039.16870
2862.0 0.0003494 2942.77832 3019.94922
2986.0 0.0003349 2942.46631 3005.21533
2879.0 0.0003473 2942.15405 2994.01440
2835.0 0.000353 2941.84229 2985.49731
2814.0 0.000355 2941.53003 2978.95898
2794.0 0.000358 2941.21777 2973.85303
2793.0 0.000358 2940.90576 2969.76758
2839.0 0.000352 2940.59375 2966.41089
2853.0 0.0003505 2940.28174 2963.58179
2866.0 0.0003489 2939.96973 2961.14502
2720.0 0.000368 2939.65771 2959.00708
2823.0 0.000354 2939.34546 2957.10547
2758.0 0.000363 2939.03345 2955.39673
2800.0 0.000357 2938.72168 2953.84741
2730.0 0.000366 2938.40942 2952.43359
2746.0 0.000364 2938.09766 2951.13525
2756.0 0.000363 2937.78564 2949.93750
2855.0 0.0003503 2937.47339 2948.82617
2748.0 0.000364 2937.16138 2947.79077
2796.0 0.000358 2936.84961 2946.82227
2726.0 0.000367 2936.53735 2945.91235
2716.0 0.000368 2936.22559 2945.05444
2780.0 0.000360 2935.91382 2944.24243
2733.0 0.000366 2935.60181 2943.47192
2801.0 0.000357 2935.28955 2942.73828
2753.0 0.000363 2934.97778 2942.03735
2718.0 0.000368 2934.66602 2941.36597
2758.0 0.000363 2934.35400 2940.72144
2753.0 0.000363 2934.04199 2940.10083
2648.0 0.000378 2933.73022 2939.50244
2709.0 0.000369 2933.41821 2938.92334
2658.0 0.000376 2933.10645 2938.36255
2738.0 0.000365 2932.79468 2937.81836
2699.0 0.000371 2932.48267 2937.28906
2806.0 0.000356 2932.17090 2936.77393
2728.0 0.000367 2931.85913 2936.27075
2703.0 0.000370 2931.54736 2935.77979
2751.0 0.000364 2931.23535 2935.29956
2836.0 0.000353 2930.92358 2935.05786
2665.0 0.000375 2930.61182 2934.59961
2790.0 0.000358 2930.30029 2934.14990
2770.0 0.000361 2929.98828 2933.70801
2646.0 0.000378 2929.67651 2933.27319
2717.0 0.000368 2929.36499 2932.95874
2747.0 0.000364 2929.05298 2932.53882
2855.0 0.0003503 2928.74146 2932.12451
2634.0 0.000380 2928.42969 2931.71631
2736.0 0.000365 2928.11816 2931.31323
2727.0 0.000367 2927.80664 2930.91455
2641.0 0.000379 2927.49487 2930.52100
2688.0 0.000372 2927.18335 2930.13110
2710.0 0.000369 2926.87158 2929.74585
2700.0 0.000370 2926.56006 2929.36426
2777.0 0.000360 2926.24829 2929.30542
2724.0 0.000367 2925.93677 2928.93579
2796.0 0.000358 2925.62524 2928.56934
2722.0 0.000367 2925.31372 2928.20605
2831.0 0.000353 2925.00244 2927.84570
2725.0 0.000367 2924.69092 2927.64575
2842.0 0.000352 2924.37939 2927.29370
2733.0 0.000366 2924.06787 2926.94409
2876.0 0.0003477 2923.75635 2926.59692
2734.0 0.000366 2923.44482 2926.25171
2856.0 0.0003501 2923.13354 2925.90942
2840.0 0.000352 2922.82227 2925.56885
2962.0 0.0003376 2922.51074 2925.23145
2937.0 0.0003405 2922.19946 2924.89478
3003.0 0.0003330 2921.88818 2924.56104
2904.0 0.0003444 2921.57666 2924.22900
2988.0 0.0003347 2921.26563 2923.89917
3074.0 0.0003253 2920.95435 2923.57104
3042.0 0.0003287 2920.64307 2923.24438
3011.0 0.0003321 2920.33179 2922.91919
3083.0 0.0003244 2920.02051 2922.59644
3028.0 0.0003303 2919.70923 2922.27490
2983.0 0.0003352 2919.39795 2921.95581
3093.0 0.0003233 2919.08691 2921.63745
2988.0 0.0003347 2918.77563 2921.32129
2882.0 0.0003470 2918.46460 2921.00635
2886.0 0.0003465 2918.15356 2920.69287
2837.0 0.000352 2917.84229 2920.38135
2759.0 0.000362 2917.53149 2920.07129
2840.0 0.000352 2917.22046 2919.76245
2775.0 0.000360 2916.90942 2919.45532
2815.0 0.000355 2916.59839 2919.14966
2809.0 0.000356 2916.28760 2918.84570
2796.0 0.000358 2915.97656 2918.54321
2735.0 0.000366 2915.66553 2918.24243
2758.0 0.000363 2915.35449 2917.94287
2761.0 0.000362 2915.04370 2917.64502
2828.0 0.000354 2914.73291 2917.34863
2813.0 0.000355 2914.42212 2917.05347
2781.0 0.000360 2914.11133 2916.76074
2725.0 0.000367 2913.80029 2916.46899
2745.0 0.000364 2913.48975 2916.17944
2715.0 0.000368 2913.17896 2915.89087
2713.0 0.000369 2912.86841 2915.60498
2728.0 0.000367 2912.55762 2915.32007
2703.0 0.000370 2912.24707 2915.03735
2803.0 0.000357 2911.93652 2914.75635
2715.0 0.000368 2911.62573 2914.47778
2764.0 0.000362 2911.31519 2914.20068
2757.0 0.000363 2911.00464 2913.92603
2718.0 0.000368 2910.69409 2913.65308
2729.0 0.000366 2910.38379 2913.38232
2738.0 0.000365 2910.07300 2913.11401
2671.0 0.000374 2909.76270 2912.84790
2664.0 0.000375 2909.45239 2912.58423
2821.0 0.000354 2909.14209 2912.32324
2737.0 0.000365 2908.83154 2912.06494
2776.0 0.000360 2908.52124 2911.80908
2738.0 0.000365 2908.21069 2911.55615
2737.0 0.000365 2907.90063 2911.30615
2756.0 0.000363 2907.59033 2911.05981
2709.0 0.000369 2907.28027 2910.81616
2707.0 0.000369 2906.96973 2910.57568
2716.0 0.000368 2906.65991 2910.33960
2677.0 0.000374 2906.34961 2910.10645
2677.0 0.000374 2906.03955 2909.49683
2783.0 0.000359 2905.72949 2909.27783
2784.0 0.000359 2905.41943 2909.06299
2834.0 0.000353 2905.10938 2908.85303
2729.0 0.000366 2904.79956 2908.64771
2800.0 0.000357 2904.48950 2908.25806
2733.0 0.000366 2904.17969 2908.06543
2839.0 0.000352 2903.86963 2907.87915
2804.0 0.000357 2903.55981 2907.69849
2846.0 0.000351 2903.25000 2907.52466
2924.0 0.0003420 2902.94019 2907.35742
2871.0 0.0003483 2902.63037 2907.19751
2795.0 0.000358 2902.32080 2907.04541
2804.0 0.000357 2902.01099 2906.90137
2724.0 0.000367 2901.70142 2906.76636
2773.0 0.000361 2901.39185 2906.64136
2774.0 0.000360 2901.08203 2906.52563
2810.0 0.000356 2900.77271 2906.42188
2732.0 0.000366 2900.46313 2906.32959
2816.0 0.000355 2900.15332 2906.25024
2745.0 0.000364 2899.84424 2906.18457
2797.0 0.000358 2899.53467 2906.13403
2688.0 0.000372 2899.22510 2906.09961
2723.0 0.000367 2898.91577 2906.08276
2757.0 0.000363 2898.60669 2906.08496
2836.0 0.000353 2898.29712 2906.10791
2751.0 0.000364 2897.98804 2906.15332
2827.0 0.000354 2897.67871 2906.22363
2772.0 0.000361 2897.36963 2906.32129
2764.0 0.000362 2897.06079 2906.44824
2754.0 0.000363 2896.75122 2906.60815
2788.0 0.000359 2896.44214 2924.07129
2817.0 0.000355 2896.13330 2924.53833
2757.0 0.000363 2895.82422 2925.05396
2786.0 0.000359 2895.51538 2925.62280
2795.0 0.000358 2895.20654 2926.25146
2747.0 0.000364 2894.89746 2926.94580
2741.0 0.000365 2894.58862 2936.33179
2808.0 0.000356 2894.28003 2937.29663
2754.0 0.000363 2893.97095 2938.35498
2800.0 0.000357 2893.66235 2939.51855
2780.0 0.000360 2893.35376 2940.80127
2748.0 0.000364 2893.04492 2942.21948
2800.0 0.000357 2892.73657 2943.78979
2918.0 0.0003427 2892.42773 2945.53687
2799.0 0.000357 2892.11914 2947.48926
2683.0 0.000373 2891.81079 2959.61206
2734.0 0.000366 2891.50244 2962.24219
2786.0 0.000359 2891.19409 2965.22681
2830.0 0.000353 2890.88574 2968.66089
2764.0 0.000362 2890.57739 2972.67969
2919.0 0.0003426 2890.26904 2977.48291
2816.0 0.000355 2889.96069 2988.33472
2921.0 0.0003423 2889.65259 2995.82178
2822.0 0.000354 2889.34424 3005.42920
2927.0 0.0003416 2889.03613 3017.97241
2982.0 0.0003353 2888.72803 3034.48633
2820.0 0.000355 2888.42017 3056.17578
2922.0 0.0003422 2888.11206 3084.41064
2990.0 0.0003344 2887.80396 3120.56519
2886.0 0.0003465 2887.49609 3165.76929
2973.0 0.0003364 2887.18823 3220.82739
3036.0 0.0003294 2886.88062 3285.70459
2858.0 0.0003499 2886.57275 3359.35718
3026.0 0.0003305 2886.26489 3439.04980
3031.0 0.0003299 2885.95728 3520.08252
2979.0 0.0003357 2885.64941 3596.20215
2997.0 0.0003337 2885.34204 3660.78174
3158.0 0.0003167 2885.03442 3708.88843
3126.0 0.0003199 2884.72705 3737.99756
3214.0 0.0003111 2884.41943 3746.94629
3227.0 0.0003099 2884.11206 3735.48169
3473.0 0.0002879 2883.80469 3704.80835
3291.0 0.0003039 2883.49731 3658.05713
3064.0 0.0003264 2883.18994 3599.76782
3189.0 0.0003136 2882.88281 3534.40259
3201.0 0.0003124 2882.57544 3465.67407
3196.0 0.0003129 2882.26831 3396.79907
3043.0 0.0003286 2881.96143 3330.63696
3109.0 0.0003216 2881.65430 3269.87085
3093.0 0.0003233 2881.34717 3216.26953
3127.0 0.0003198 2881.04028 3170.68848
3026.0 0.0003305 2880.73340 3133.11475
2961.0 0.0003377 2880.42627 3102.91235
2998.0 0.0003336 2880.11963 3079.19775
3044.0 0.0003285 2879.81299 3060.96167
2971.0 0.0003366 2879.50635 3047.17920
2962.0 0.0003376 2879.19946 3036.92896
2937.0 0.0003405 2878.89282 3029.42407
2929.0 0.0003414 2878.58643 3024.00098
2914.0 0.0003432 2878.27954 3020.14355
3048.0 0.0003281 2877.97314 3017.46411
2992.0 0.0003342 2877.66675 3015.67212
3101.0 0.0003225 2877.36060 3014.56445
3116.0 0.0003209 2877.05420 3013.99707
3164.0 0.0003161 2876.74780 3013.86963
3319.0 0.0003013 2876.44165 3014.11572
3271.0 0.0003057 2876.13550 3014.68530
3266.0 0.0003062 2875.82935 3015.54443
3355.0 0.0002981 2875.52319 3016.66870
3252.0 0.0003075 2875.21753 3018.03979
3319.0 0.0003013 2874.91113 3019.64478
3269.0 0.0003059 2874.60571 3021.47241
3342.0 0.0002992 2874.29956 3023.51563
3317.0 0.0003015 2873.99365 3025.77148
3315.0 0.0003017 2873.68799 3028.23486
3230.0 0.0003096 2873.38232 3030.90479
3176.0 0.0003149 2873.07666 3033.78442
3183.0 0.0003142 2872.77100 3036.87158
3147.0 0.0003178 2872.46558 3040.17212
3138.0 0.0003187 2872.16016 3043.68896
3190.0 0.0003135 2871.85449 3047.42993
3201.0 0.0003124 2871.54907 3051.40112
3118.0 0.0003207 2871.24414 3055.60742
3103.0 0.0003223 2870.93872 3060.06201
3123.0 0.0003202 2870.63354 3064.77466
3102.0 0.0003224 2870.32837 3069.75366
3147.0 0.0003178 2870.02319 3075.01538
3153.0 0.0003172 2869.71802 3080.57642
3147.0 0.0003178 2869.41309 3086.44556
3057.0 0.0003271 2869.10815 3092.64526
3210.0 0.0003115 2868.80347 3099.19678
3113.0 0.0003212 2868.49854 3106.11230
3157.0 0.0003168 2868.19385 3113.42432
3097.0 0.0003229 2867.88916 3121.14941
3118.0 0.0003207 2867.58423 3129.32324
3135.0 0.0003190 2867.27979 3137.97168
3136.0 0.0003189 2866.97534 3147.12402
3184.0 0.0003141 2866.67065 3156.82495
3175.0 0.0003150 2866.36621 3167.10815
3076.0 0.0003251 2866.06201 3178.01343
3222.0 0.0003104 2865.75781 3189.59546
3234.0 0.0003092 2865.45361 3201.91064
3159.0 0.0003166 2865.14917 3215.00122
3236.0 0.0003090 2864.84521 3228.94409
3241.0 0.0003085 2864.54102 3243.81494
3272.0 0.0003056 2864.23706 3259.67285
3156.0 0.0003169 2863.93311 3276.62061
3211.0 0.0003114 2863.62915 3294.76123
3346.0 0.0002989 2863.32544 3314.18018
3173.0 0.0003152 2863.02148 3335.02173
3233.0 0.0003093 2862.71802 3357.40308
3289.0 0.0003040 2862.41406 3381.49756
3379.0 0.0002959 2862.11060 3407.46777
3389.0 0.0002951 2861.80713 3435.49438
3193.0 0.0003132 2861.50366 3465.82520
3469.0 0.0002883 2861.20020 3498.69849
3418.0 0.0002926 2860.89697 3534.38306
3416.0 0.0002927 2860.59375 3573.23022
3494.0 0.0002862 2860.29053 3615.63037
3512.0 0.0002847 2859.98730 3661.96436
3592.0 0.0002784 2859.68408 3712.77686
3612.0 0.0002769 2859.38110 3768.67017
3813.0 0.0002623 2859.07813 3830.25977
3700.0 0.0002703 2858.77539 3898.42847
3856.0 0.0002593 2858.47241 3974.07739
3964.0 0.0002523 2858.16968 4058.46094
4130.0 0.0002421 2857.86694 4153.02051
4201.0 0.0002380 2857.56445 4259.61523
4332.0 0.0002308 2857.26172 4380.93311
4596.0 0.0002176 2856.95923 4520.56934
4870.0 0.0002053 2856.65698 4683.75000
5313.0 0.0001882 2856.35449 4878.47900
5535.0 0.0001807 2856.05200 5116.62402
6044.0 0.0001655 2855.75000 5415.20801
6597.0 0.0001516 2855.44800 5799.30811
7303.0 0.0001369 2855.14575 6303.40137
7924.0 0.0001262 2854.84351 6971.92188
8834.0 0.0001132 2854.54150 7861.78027
10201.0 0.0000980 2854.23999 9037.49512
11437.0 0.0000874 2853.93799 10570.56445
13657.0 0.0000732 2853.63599 12528.47754
15312.0 0.0000653 2853.33447 14965.28320
18073.0 0.0000553 2853.03296 17913.07227
21021.0 0.0000476 2852.73120 21358.94531
23935.0 0.0000418 2852.42969 25228.83398
27919.0 0.0000358 2852.12817 29375.93359
32569.0 0.0000307 2851.82690 33563.51563
35637.0 0.0000281 2851.52588 37495.78125
40010.0 0.0000250 2851.22437 40877.33594
43333.0 0.0000231 2850.92310 43448.29297
46250.0 0.0000216 2850.62207 44999.45703
47801.0 0.0000209 2850.32104 45408.76953
47535.0 0.0000210 2850.02002 44685.40625
45950.0 0.0000218 2849.71924 42981.86719
43152.0 0.0000232 2849.41846 40521.49609
39273.0 0.0000255 2849.11768 37522.38672
35311.0 0.0000283 2848.81714 34149.09766
31054.0 0.0000322 2848.51636 30541.65234
27458.0 0.0000364 2848.21606 26853.97852
23991.0 0.0000417 2847.91528 23255.50391
20680.0 0.0000484 2847.61499 19907.44727
16803.0 0.0000595 2847.31470 16921.39844
14078.0 0.0000710 2847.01465 14347.52637
11874.0 0.0000842 2846.71436 12191.07715
10011.0 0.0000999 2846.41431 10428.96387
8706.0 0.0001149 2846.11426 9016.10449
7752.0 0.0001290 2845.81445 7901.52197
6960.0 0.0001437 2845.51440 7034.15820
6395.0 0.0001564 2845.21460 6363.35449
5926.0 0.0001687 2844.91504 5846.00781
5540.0 0.0001805 2844.61523 5444.73242
5316.0 0.0001881 2844.31567 5130.16846
4795.0 0.0002086 2844.01636 4879.56299
4573.0 0.0002187 2843.71655 4675.67188
4435.0 0.0002255 2843.41724 4506.34961
4215.0 0.0002372 2843.11816 4362.99023
4044.0 0.0002473 2842.81885 4239.42480
3983.0 0.0002511 2842.51978 4131.41748
3926.0 0.0002547 2842.22070 4036.10400
3945.0 0.0002535 2841.92188 3951.21289
3788.0 0.0002640 2841.62280 3875.10986
3785.0 0.0002642 2841.32397 3806.62231
3767.0 0.0002655 2841.02539 3744.67017
3593.0 0.0002783 2840.72656 3688.41626
3580.0 0.0002793 2840.42798 3637.23438
3514.0 0.0002846 2840.12939 3590.47388
3495.0 0.0002861 2839.83105 3547.67749
3468.0 0.0002884 2839.53271 3508.37036
3378.0 0.0002960 2839.23438 3472.19971
3403.0 0.0002939 2838.93628 3438.85425
3334.0 0.0002999 2838.63818 3407.78833
3156.0 0.0003169 2838.34009 3379.22827
3217.0 0.0003108 2838.04199 3352.73608
3124.0 0.0003201 2837.74414 3328.09692
3244.0 0.0003083 2837.44629 3305.13550
3298.0 0.0003032 2837.14868 3284.06665
3201.0 0.0003124 2836.85107 3263.61304
3234.0 0.0003092 2836.55322 3244.88208
3293.0 0.0003037 2836.25610 3227.33643
3156.0 0.0003169 2835.95850 3210.85645
3146.0 0.0003179 2835.66113 3195.37256
3166.0 0.0003159 2835.36401 3180.95776
3124.0 0.0003201 2835.06665 3167.21704
3052.0 0.0003277 2834.76978 3154.25610
3293.0 0.0003037 2834.47266 3142.00562
3142.0 0.0003183 2834.17578 3130.41846
3041.0 0.0003288 2833.87891 3119.45239
3057.0 0.0003271 2833.58203 3109.05542
3073.0 0.0003254 2833.28540 3099.18555
3230.0 0.0003096 2832.98877 3089.81860
3106.0 0.0003220 2832.69238 3080.91089
3114.0 0.0003211 2832.39575 3072.43091
3127.0 0.0003198 2832.09961 3064.36060
3080.0 0.0003247 2831.80322 3056.66357
3167.0 0.0003158 2831.50732 3049.32446
3105.0 0.0003221 2831.21094 3042.31348
3005.0 0.0003328 2830.91504 3035.61401
2997.0 0.0003337 2830.61914 3029.21094
2954.0 0.0003385 2830.32324 3023.08032
3061.0 0.0003267 2830.02734 3017.20874
3049.0 0.0003280 2829.73193 3011.58545
2990.0 0.0003344 2829.43628 3006.19019
2963.0 0.0003375 2829.14063 3001.01245
3017.0 0.0003315 2828.84546 2996.04419
3096.0 0.0003230 2828.55005 2991.26880
2998.0 0.0003336 2828.25464 2986.67651
2955.0 0.0003384 2827.95972 2982.26221
3073.0 0.0003254 2827.66455 2978.01270
3020.0 0.0003311 2827.36938 2973.91870
2970.0 0.0003367 2827.07471 2969.97803
3059.0 0.0003269 2826.77979 2966.17651
2890.0 0.0003460 2826.48511 2962.51294
2999.0 0.0003334 2826.19043 2958.97729
2944.0 0.0003397 2825.89575 2955.56396
2933.0 0.0003409 2825.60156 2952.26978
2930.0 0.0003413 2825.30713 2949.08594
2951.0 0.0003389 2825.01294 2946.00854
2947.0 0.0003393 2824.71875 2943.03613
2869.0 0.0003486 2824.42456 2940.15991
2863.0 0.0003493 2824.13062 2937.37695
2937.0 0.0003405 2823.83667 2934.68579
2973.0 0.0003364 2823.54272 2932.08032
3035.0 0.0003295 2823.24902 2929.55713
3002.0 0.0003331 2822.95532 2927.11523
2915.0 0.0003431 2822.66187 2924.74951
2968.0 0.0003369 2822.36816 2922.45898
2949.0 0.0003391 2822.07495 2920.23926
2940.0 0.0003401 2821.78149 2918.08936
2915.0 0.0003431 2821.48828 2916.00684
2875.0 0.0003478 2821.19531 2913.98901
2935.0 0.0003407 2820.90210 2912.03442
2996.0 0.0003338 2820.60938 2910.14160
2886.0 0.0003465 2820.31641 2908.30859
2933.0 0.0003409 2820.02368 2906.53516
2828.0 0.000354 2819.73120 2904.81885
2959.0 0.0003380 2819.43848 2903.15942
2858.0 0.0003499 2819.14600 2901.55518
2906.0 0.0003441 2818.85376 2900.00684
3024.0 0.0003307 2818.56152 2898.51343
3034.0 0.0003296 2818.26904 2897.07397
2919.0 0.0003426 2817.97729 2895.68994
2927.0 0.0003416 2817.68506 2894.36035
2936.0 0.0003406 2817.39331 2893.08716
2902.0 0.0003446 2817.10156 2891.86987
2768.0 0.000361 2816.80957 2890.71045
2902.0 0.0003446 2816.51807 2889.61133
2883.0 0.0003469 2816.22656 2888.57251
2854.0 0.0003504 2815.93481 2887.59912
2909.0 0.0003438 2815.64404 2886.69482
2853.0 0.0003505 2815.35254 2885.86279
2848.0 0.000351 2815.06128 2885.10913
2885.0 0.0003466 2814.77051 2884.44189
2884.0 0.0003467 2814.47949 2883.87305
2861.0 0.0003495 2814.18848 2883.41577
2859.0 0.0003498 2813.89771 2883.09253
2837.0 0.000352 2813.60693 2882.93481
2869.0 0.0003486 2813.31665 2882.98755
2941.0 0.0003400 2813.02612 2883.31519
2986.0 0.0003349 2812.73560 2884.00537
2997.0 0.0003337 2812.44556 2885.17725
2928.0 0.0003415 2812.15527 2886.98462
2946.0 0.0003394 2811.86523 2889.61523
2980.0 0.0003356 2811.57544 2893.28711
2846.0 0.000351 2811.28540 2898.24536
2882.0 0.0003470 2810.99561 2904.74194
2883.0 0.0003469 2810.70605 2913.00171
2994.0 0.0003340 2810.41626 2923.22021
2912.0 0.0003434 2810.12671 2935.51025
2963.0 0.0003375 2809.83765 2949.83521
2839.0 0.000352 2809.54810 2965.98828
2921.0 0.0003423 2809.25879 2983.50122
2912.0 0.0003434 2808.96997 3001.61255
2869.0 0.0003486 2808.68115 3019.47070
2995.0 0.0003339 2808.39233 3036.32520
2872.0 0.0003482 2808.10327 3051.80469
2999.0 0.0003334 2807.81470 3065.74414
2968.0 0.0003369 2807.52612 3077.82153
2924.0 0.0003420 2807.23755 3087.24243
2948.0 0.0003392 2806.94922 3092.89014
2898.0 0.0003451 2806.66113 3093.42065
2979.0 0.0003357 2806.37280 3088.60864
2882.0 0.0003470 2806.08472 3061.84619
2953.0 0.0003386 2805.79688 3049.26709
3021.0 0.0003310 2805.50903 3034.61768
2918.0 0.0003427 2805.22119 3018.78882
2960.0 0.0003378 2804.93359 3002.13281
3041.0 0.0003288 2804.64600 2985.03516
2921.0 0.0003423 2804.35840 2949.00073
3004.0 0.0003329 2804.07129 2933.02100
2873.0 0.0003481 2803.78418 2918.55688
2959.0 0.0003380 2803.49683 2906.21802
2904.0 0.0003444 2803.20972 2896.44336
2924.0 0.0003420 2802.92285 2889.58838
2980.0 0.0003356 2802.63599 2885.97998
2904.0 0.0003444 2802.34937 2885.97998
3008.0 0.0003324 2802.06274 2890.03003
2956.0 0.0003383 2801.77637 2898.63037
3035.0 0.0003295 2801.48999 2912.31958
2956.0 0.0003383 2801.20361 2931.59302
3007.0 0.0003326 2800.91748 2956.75488
3066.0 0.0003262 2800.63135 2987.87939
3061.0 0.0003267 2800.34570 3024.55566
3014.0 0.0003318 2800.05957 3065.85107
2955.0 0.0003384 2799.77368 3110.00537
3041.0 0.0003288 2799.48828 3154.28760
3093.0 0.0003233 2799.20264 3195.01978
3062.0 0.0003266 2798.91724 3227.87891
3091.0 0.0003235 2798.63208 3249.15527
3132.0 0.0003193 2798.34668 3257.22314
3126.0 0.0003199 2798.06177 3253.00732
3174.0 0.0003151 2797.77686 3239.05347
3123.0 0.0003202 2797.49170 3217.89600
3013.0 0.0003319 2797.20679 3191.11597
3054.0 0.0003274 2796.92236 3159.50830
2982.0 0.0003353 2796.63794 3123.77661
3034.0 0.0003296 2796.35327 3085.29370
3005.0 0.0003328 2796.06909 3046.12061
2984.0 0.0003351 2795.78491 3008.26855
3006.0 0.0003327 2795.50073 2973.36084
3001.0 0.0003332 2795.21680 2942.31299
2933.0 0.0003409 2794.93286 2915.53833
2886.0 0.0003465 2794.64917 2893.04663
3051.0 0.0003278 2794.36548 2874.55469
2951.0 0.0003389 2794.08203 2859.65503
2959.0 0.0003380 2793.79834 2847.85034
2839.0 0.000352 2793.51514 2838.60229
2926.0 0.0003418 2793.23193 2831.40430
2817.0 0.000355 2792.94873 2825.80688
2947.0 0.0003393 2792.66577 2821.41724
2947.0 0.0003393 2792.38281 2817.92163
2856.0 0.0003501 2792.10034 2815.08398
2859.0 0.0003498 2791.81763 2812.72266
2820.0 0.000355 2791.53516 2810.71167
2856.0 0.0003501 2791.25244 2808.96094
2791.0 0.000358 2790.97021 2807.40820
2966.0 0.0003372 2790.68823 2806.01245
3066.0 0.0003262 2790.40576 2804.74292
2888.0 0.0003463 2790.12402 2803.57764
2799.0 0.000357 2789.84229 2802.50342
2856.0 0.0003501 2789.56055 2801.50488
2880.0 0.0003472 2789.27881 2800.57373
2843.0 0.000352 2788.99731 2799.70215
2850.0 0.000351 2788.71606 2798.88208
2896.0 0.0003453 2788.43457 2798.10889
2895.0 0.0003454 2788.15356 2797.37744
2962.0 0.0003376 2787.87256 2796.68359
2848.0 0.000351 2787.59155 2796.02295
2857.0 0.0003500 2787.31079 2795.39331
2830.0 0.000353 2787.03003 2794.79150
2822.0 0.000354 2786.74951 2794.21411
2893.0 0.0003457 2786.46899 2793.66040
2861.0 0.0003495 2786.18872 2793.12769
2917.0 0.0003428 2785.90869 2792.61475
2922.0 0.0003422 2785.62842 2792.11914
2853.0 0.0003505 2785.34839 2791.64087
2870.0 0.0003484 2785.06860 2791.17798
2840.0 0.000352 2784.78882 2790.72998
2976.0 0.0003360 2784.50903 2790.29517
2857.0 0.0003500 2784.22974 2789.87402
2930.0 0.0003413 2783.95044 2789.46436
2848.0 0.000351 2783.67114 2789.06592
3028.0 0.0003303 2783.39185 2788.67969
2943.0 0.0003398 2783.11304 2788.30298
2889.0 0.0003461 2782.83398 2787.93750
3031.0 0.0003299 2782.55518 2787.58228
2958.0 0.0003381 2782.27637 2787.23608
2952.0 0.0003388 2781.99805 2786.90015
2867.0 0.0003488 2781.71948 2786.57397
2900.0 0.0003448 2781.44141 2786.25684
2902.0 0.0003446 2781.16333 2785.94995
3041.0 0.0003288 2780.88525 2785.65234
2867.0 0.0003488 2780.60718 2785.36548
2903.0 0.0003445 2780.32959 2785.08862
2807.0 0.000356 2780.05176 2784.82227
2831.0 0.000353 2779.77417 2784.56714
2795.0 0.000358 2779.49658 2784.32373
2815.0 0.000355 2779.21948 2784.09375
2858.0 0.0003499 2778.94214 2783.87573
2854.0 0.0003504 2778.66504 2783.67310
2911.0 0.0003435 2778.38818 2787.80615
2797.0 0.000358 2778.11157 2787.68726
2845.0 0.000351 2777.83472 2787.58765
2785.0 0.000359 2777.55811 2787.51050
2866.0 0.0003489 2777.28174 2787.45654
2831.0 0.000353 2777.00537 2787.42969
2805.0 0.000357 2776.72900 2787.43408
2881.0 0.0003471 2776.45313 2789.62402
2843.0 0.000352 2776.17725 2789.73096
2825.0 0.000354 2775.90137 2789.88867
2699.0 0.000371 2775.62573 2790.10962
2783.0 0.000359 2775.35010 2790.41187
2707.0 0.000369 2775.07471 2790.82349
2897.0 0.0003452 2774.79932 2791.38281
2835.0 0.000353 2774.52417 2802.29688
2856.0 0.0003501 2774.24927 2803.48804
2861.0 0.0003495 2773.97437 2805.08301
2884.0 0.0003467 2773.69922 2807.22778
2760.0 0.000362 2773.42456 2810.10278
2746.0 0.000364 2773.15015 2813.92114
2741.0 0.000365 2772.87549 2818.90869
2805.0 0.000357 2772.60132 2830.33862
2761.0 0.000362 2772.32739 2838.36353
2960.0 0.0003378 2772.05322 2848.08984
2810.0 0.000356 2771.77930 2859.50806
2833.0 0.000353 2771.50562 2872.47827
2778.0 0.000360 2771.23193 2886.65576
2865.0 0.0003490 2770.95825 2901.42310
2843.0 0.000352 2770.68506 2915.90405
2745.0 0.000364 2770.41187 2928.91406
2896.0 0.0003453 2770.13867 2939.18848
2842.0 0.000352 2769.86572 2945.70923
2766.0 0.000362 2769.59277 2948.11621
2758.0 0.000363 2769.32007 2946.79004
2775.0 0.000360 2769.04736 2942.52222
2772.0 0.000361 2768.77490 2936.08081
2817.0 0.000355 2768.50269 2927.94043
2780.0 0.000360 2768.23022 2918.33081
2909.0 0.0003438 2767.95825 2907.45508
2829.0 0.000353 2767.68652 2895.67554
2815.0 0.000355 2767.41431 2883.55859
2894.0 0.0003455 2767.14282 2871.73926
2769.0 0.000361 2766.87134 2860.71875
2793.0 0.000358 2766.59961 2850.82910
2756.0 0.000363 2766.32861 2842.24561
2843.0 0.000352 2766.05737 2834.99854
2872.0 0.0003482 2765.78662 2829.04321
2819.0 0.000355 2765.51563 2824.28564
2881.0 0.0003471 2765.24487 2820.55176
2743.0 0.000365 2764.97437 2817.70654
2766.0 0.000362 2764.70361 2815.75903
2825.0 0.000354 2764.43335 2814.11035
2846.0 0.000351 2764.16333 2813.03320
2752.0 0.000363 2763.89307 2812.30249
2830.0 0.000353 2763.62305 2811.84229
2856.0 0.0003501 2763.35327 2811.56982
2874.0 0.0003479 2763.08374 2811.44678
2922.0 0.0003422 2762.81421 2811.39063
2913.0 0.0003433 2762.54468 2811.47729
2833.0 0.000353 2762.27539 2811.64111
2890.0 0.0003460 2762.00659 2811.53125
2869.0 0.0003486 2761.73730 2811.82349
2877.0 0.0003476 2761.46851 2812.16895
2921.0 0.0003423 2761.19995 2812.56470
2817.0 0.000355 2760.93140 2813.00732
2933.0 0.0003409 2760.66284 2813.49512
2906.0 0.0003441 2760.39453 2813.85767
2976.0 0.0003360 2760.12646 2814.43652
2916.0 0.0003429 2759.85840 2815.05762
2965.0 0.0003373 2759.59058 2815.72241
2990.0 0.0003344 2759.32275 2816.42871
3032.0 0.0003298 2759.05518 2817.17896
3090.0 0.0003236 2758.78760 2817.97217
2903.0 0.0003445 2758.52051 2818.81079
2985.0 0.0003350 2758.25317 2819.69360
2980.0 0.0003356 2757.98608 2820.62280
2961.0 0.0003377 2757.71924 2821.59937
2995.0 0.0003339 2757.45264 2822.62427
2896.0 0.0003453 2757.18579 2823.69922
2958.0 0.0003381 2756.91943 2824.82593
2946.0 0.0003394 2756.65308 2826.00610
2964.0 0.0003374 2756.38696 2827.24243
3056.0 0.0003272 2756.12061 2828.53516
2851.0 0.000351 2755.85498 2829.88867
3065.0 0.0003263 2755.58911 2831.30371
3040.0 0.0003289 2755.32349 2832.78467
2878.0 0.0003475 2755.05811 2834.33228
3112.0 0.0003213 2754.79272 2835.95068
2945.0 0.0003396 2754.52759 2837.64453
2943.0 0.0003398 2754.26245 2839.41431
2967.0 0.0003370 2753.99731 2841.26538
3034.0 0.0003296 2753.73267 2843.20215
3061.0 0.0003267 2753.46802 2845.22876
3209.0 0.0003116 2753.20361 2847.34985
3270.0 0.0003058 2752.93945 2849.56812
3209.0 0.0003116 2752.67505 2851.89136
3223.0 0.0003103 2752.41113 2854.32471
3267.0 0.0003061 2752.14722 2856.87329
3185.0 0.0003140 2751.88330 2859.54346
3132.0 0.0003193 2751.61963 2862.34497
3141.0 0.0003184 2751.35620 2865.28125
3085.0 0.0003241 2751.09277 2868.36206
3195.0 0.0003130 2750.82959 2871.59863
3170.0 0.0003155 2750.56665 2874.99390
3121.0 0.0003204 2750.30396 2878.56396
3145.0 0.0003180 2750.04102 2882.31543
2956.0 0.0003383 2749.77832 2886.26343
3053.0 0.0003275 2749.51587 2890.41992
3023.0 0.0003308 2749.25366 2894.79443
2971.0 0.0003366 2748.99146 2899.40771
3010.0 0.0003322 2748.72949 2904.27417
3029.0 0.0003301 2748.46753 2909.40674
3010.0 0.0003322 2748.20581 2914.83130
3031.0 0.0003299 2747.94434 2920.56592
2970.0 0.0003367 2747.68286 2926.62915
3074.0 0.0003253 2747.42163 2933.05127
2997.0 0.0003337 2747.16040 2939.86230
3117.0 0.0003208 2746.89966 2947.08105
3010.0 0.0003322 2746.63892 2954.75000
2883.0 0.0003469 2746.37793 2962.90576
3098.0 0.0003228 2746.11743 2971.57959
3010.0 0.0003322 2745.85718 2980.82495
2984.0 0.0003351 2745.59692 2990.68237
3022.0 0.0003309 2745.33691 3001.21484
3072.0 0.0003255 2745.07690 3012.47925
3044.0 0.0003285 2744.81714 3024.53564
3007.0 0.0003326 2744.55762 3037.47241
3098.0 0.0003228 2744.29785 3051.36743
3039.0 0.0003291 2744.03882 3066.30737
3138.0 0.0003187 2743.77930 3082.41040
3089.0 0.0003237 2743.52026 3099.80127
3206.0 0.0003119 2743.26172 3118.59521
3115.0 0.0003210 2743.00317 3138.96802
3179.0 0.0003146 2742.74438 3161.09595
3257.0 0.0003070 2742.48608 3185.15918
3219.0 0.0003107 2742.22754 3211.42114
3324.0 0.0003008 2741.96948 3240.12988
3241.0 0.0003085 2741.71143 3271.63916
3352.0 0.0002983 2741.45386 3306.32813
3454.0 0.0002895 2741.19629 3344.66260
3561.0 0.0002808 2740.93848 3387.30176
3505.0 0.0002853 2740.68140 3435.05054
3620.0 0.0002762 2740.42407 3489.00171
3712.0 0.0002694 2740.16699 3550.77930
3844.0 0.0002601 2739.90991 3622.59888
4041.0 0.0002475 2739.65332 3707.58740
4218.0 0.0002371 2739.39697 3810.31860
4356.0 0.0002296 2739.14038 3937.12183
4602.0 0.0002173 2738.88428 4096.35547
4847.0 0.0002063 2738.62817 4299.36279
5320.0 0.0001880 2738.37207 4560.44629
5527.0 0.0001809 2738.11621 4896.47217
6110.0 0.0001637 2737.86060 5327.65137
6722.0 0.0001488 2737.60522 5875.06738
7210.0 0.0001387 2737.34985 6560.93311
8034.0 0.0001245 2737.09448 7404.76270
8910.0 0.0001122 2736.83960 8421.23535
9909.0 0.0001009 2736.58472 9619.08008
10969.0 0.0000912 2736.33032 10994.79590
12261.0 0.0000816 2736.07568 12529.97168
13683.0 0.0000731 2735.82129 14189.09277
15182.0 0.0000659 2735.56689 15912.53516
16879.0 0.0000592 2735.31299 17612.58203
18777.0 0.0000533 2735.05908 19186.09961
20388.0 0.0000490 2734.80518 20529.81055
22103.0 0.0000452 2734.55176 21568.75000
23275.0 0.0000430 2734.29834 22280.65820
23511.0 0.0000425 2734.04517 22682.38672
23444.0 0.0000427 2733.79175 22802.82617
22373.0 0.0000447 2733.53882 22654.11133
22037.0 0.0000454 2733.28613 22228.67383
21586.0 0.0000463 2733.03345 21516.31641
20854.0 0.0000480 2732.78101 20531.45508
19659.0 0.0000509 2732.52856 19325.07813
18410.0 0.0000543 2732.27661 17971.95508
16762.0 0.0000597 2732.02441 16548.98438
15103.0 0.0000662 2731.77271 15118.44336
13388.0 0.0000747 2731.52100 13718.33301
11993.0 0.0000834 2731.26953 12373.55176
10938.0 0.0000914 2731.01831 11105.81055
9864.0 0.0001014 2730.76709 9932.95508
8821.0 0.0001134 2730.51587 8871.34473
7865.0 0.0001271 2730.26514 7932.70459
7031.0 0.0001422 2730.01440 7118.64600
6245.0 0.0001601 2729.76392 6425.88525
5817.0 0.0001719 2729.51343 5844.82129
5281.0 0.0001894 2729.26318 5364.16162
4828.0 0.0002071 2729.01318 4971.34766
4525.0 0.0002210 2728.76318 4653.33447
4503.0 0.0002221 2728.51343 4398.41992
4161.0 0.0002403 2728.26416 4195.91016
3940.0 0.0002538 2728.01489 4036.16064
3866.0 0.0002587 2727.76538 3911.02148
3847.0 0.0002599 2727.51636 3813.73047
3740.0 0.0002674 2727.26758 3738.37769
3593.0 0.0002783 2727.01880 3680.09351
3478.0 0.0002875 2726.77026 3634.79175
3447.0 0.0002901 2726.52173 3598.78027
3375.0 0.0002963 2726.27344 3568.84424
3448.0 0.0002900 2726.02539 3542.03418
3382.0 0.0002957 2725.77759 3515.88501
3312.0 0.0003019 2725.52979 3488.61304
3331.0 0.0003002 2725.28223 3459.29932
3296.0 0.0003034 2725.03491 3427.93481
3256.0 0.0003071 2724.78760 3395.04614
3128.0 0.0003197 2724.54053 3361.21045
3306.0 0.0003025 2724.29346 3326.82886
3031.0 0.0003299 2724.04688 3292.12622
3054.0 0.0003274 2723.80029 3257.17700
3154.0 0.0003171 2723.55371 3222.21289
3060.0 0.0003268 2723.30786 3187.74292
3104.0 0.0003222 2723.06152 3154.34424
3090.0 0.0003236 2722.81567 3122.65747
3090.0 0.0003236 2722.56982 3093.11475
3070.0 0.0003257 2722.32446 3066.00488
2950.0 0.0003390 2722.07886 3041.43652
2953.0 0.0003386 2721.83374 3019.35303
2909.0 0.0003438 2721.58862 2999.64380
3016.0 0.0003316 2721.34399 2982.13574
2951.0 0.0003389 2721.09912 2966.59619
3015.0 0.0003317 2720.85449 2952.80542
2937.0 0.0003405 2720.61035 2940.53809
2852.0 0.0003506 2720.36597 2929.56738
2868.0 0.0003487 2720.12183 2919.69165
2888.0 0.0003463 2719.87817 2910.74780
2862.0 0.0003494 2719.63428 2902.57617
2894.0 0.0003455 2719.39087 2895.05200
2877.0 0.0003476 2719.14746 2888.08350
2793.0 0.000358 2718.90430 2881.58179
2946.0 0.0003394 2718.66138 2875.49072
2872.0 0.0003482 2718.41846 2869.75342
2760.0 0.000362 2718.17578 2864.33447
2820.0 0.000355 2717.93359 2859.20386
2811.0 0.000356 2717.69092 2854.33081
2950.0 0.0003390 2717.44897 2849.69629
2808.0 0.000356 2717.20703 2845.28345
2888.0 0.0003463 2716.96509 2841.07373
2849.0 0.000351 2716.72339 2837.05127
2899.0 0.0003449 2716.48218 2833.20898
2879.0 0.0003473 2716.24097 2829.53101
2868.0 0.0003487 2715.99951 2826.00586
2972.0 0.0003365 2715.75879 2822.62891
2876.0 0.0003477 2715.51782 2819.38696
2889.0 0.0003461 2715.27759 2816.27490
2894.0 0.0003455 2715.03711 2813.28223
2886.0 0.0003465 2714.79688 2810.40332
2933.0 0.0003409 2714.55688 2807.63477
2808.0 0.000356 2714.31665 2804.96606
2804.0 0.000357 2714.07690 2802.39429
2807.0 0.000356 2713.83765 2799.91479
2813.0 0.000355 2713.59839 2797.52075
2851.0 0.000351 2713.35913 2795.20801
2823.0 0.000354 2713.12012 2792.97827
2841.0 0.000352 2712.88135 2790.81909
2873.0 0.0003481 2712.64282 2788.72949
2901.0 0.0003447 2712.40430 2786.70850
2769.0 0.000361 2712.16577 2784.75146
2728.0 0.000367 2711.92749 2782.85376
2718.0 0.000368 2711.68994 2781.01611
2782.0 0.000359 2711.45215 2779.23364
2810.0 0.000356 2711.21460 2777.50635
2878.0 0.0003475 2710.97705 2775.82837
2741.0 0.000365 2710.73975 2774.19873
2771.0 0.000361 2710.50293 2772.61670
2718.0 0.000368 2710.26611 2771.07935
2745.0 0.000364 2710.02930 2769.58521
2798.0 0.000357 2709.79297 2768.13306
2810.0 0.000356 2709.55640 2766.72168
2749.0 0.000364 2709.32031 2765.34814
2755.0 0.000363 2709.08423 2764.01343
2639.0 0.000379 2708.84863 2762.71484
2786.0 0.000359 2708.61304 2761.45190
2726.0 0.000367 2708.37769 2760.22607
2741.0 0.000365 2708.14209 2759.03418
2864.0 0.0003492 2707.90723 2757.87964
2748.0 0.000364 2707.67236 2756.76147
2787.0 0.000359 2707.43750 2755.68359
2649.0 0.000378 2707.20313 2754.64917
2704.0 0.000370 2706.96875 2753.66162
2807.0 0.000356 2706.73462 2752.72803
2756.0 0.000363 2706.50073 2751.85718
2804.0 0.000357 2706.26685 2751.05713
2734.0 0.000366 2706.03320 2750.33716
2745.0 0.000364 2705.80005 2749.71021
2766.0 0.000362 2705.56665 2749.18433
2746.0 0.000364 2705.33325 2748.80811
2697.0 0.000371 2705.10083 2748.50659
2679.0 0.000373 2704.86792 2748.31885
2672.0 0.000374 2704.63550 2748.23755
2679.0 0.000373 2704.40332 2748.24829
2639.0 0.000379 2704.17114 2748.32642
2683.0 0.000373 2703.93921 2748.43335
2652.0 0.000377 2703.70728 2748.51685
2701.0 0.000370 2703.47583 2748.53540
2740.0 0.000365 2703.24438 2748.38525
2665.0 0.000375 2703.01294 2748.03394
2723.0 0.000367 2702.78198 2747.46069
2659.0 0.000376 2702.55103 2746.73462
2644.0 0.000378 2702.32056 2745.77954
2746.0 0.000364 2702.09009 2744.69165
2565.0 0.000390 2701.85962 2743.50269
2647.0 0.000378 2701.62964 2742.23193
2625.0 0.000381 2701.39966 2740.88721
2712.0 0.000369 2701.17017 2739.48096
2745.0 0.000364 2700.94043 2738.05884
2699.0 0.000371 2700.71118 2736.59473
2637.0 0.000379 2700.48193 2735.14771
2752.0 0.000363 2700.25293 2733.74512
2725.0 0.000367 2700.02417 2732.40942
2654.0 0.000377 2699.79565 2731.15137
2722.0 0.000367 2699.56714 2729.97705
2693.0 0.000371 2699.33887 2728.88623
2740.0 0.000365 2699.11108 2727.87744
2613.0 0.000383 2698.88306 2726.94238
2680.0 0.000373 2698.65527 2726.07715
2715.0 0.000368 2698.42798 2725.27075
2687.0 0.000372 2698.20068 2724.51685
2614.0 0.000383 2697.97363 2723.80640
2702.0 0.000370 2697.74658 2723.13379
2664.0 0.000375 2697.52002 2722.49219
2591.0 0.000386 2697.29346 2721.87427
2666.0 0.000375 2697.06689 2721.27759
2672.0 0.000374 2696.84106 2720.69849
2649.0 0.000378 2696.61499 2720.13354
2695.0 0.000371 2696.38916 2719.58081
2729.0 0.000366 2696.16382 2719.03955
2659.0 0.000376 2695.93823 2718.50708
2531.0 0.000395 2695.71313 2717.98340
2684.0 0.000373 2695.48828 2717.46826
2686.0 0.000372 2695.26318 2716.96045
2781.0 0.000360 2695.03857 2716.45874
2597.0 0.000385 2694.81445 2715.96484
2632.0 0.000380 2694.58984 2715.47681
2754.0 0.000363 2694.36572 2714.99561
2634.0 0.000380 2694.14233 2714.52051
2708.0 0.000369 2693.91846 2714.04980
2741.0 0.000365 2693.69507 2713.58594
2715.0 0.000368 2693.47168 2713.12646
2741.0 0.000365 2693.24854 2712.67188
2694.0 0.000371 2693.02588 2712.22217
2725.0 0.000367 2692.80322 2711.77783
2718.0 0.000368 2692.58057 2707.03540
2673.0 0.000374 2692.35840 2706.65015
2743.0 0.000365 2692.13647 2706.26831
2832.0 0.000353 2691.91431 2705.88989
2644.0 0.000378 2691.69263 2705.51514
2846.0 0.000351 2691.47095 2705.14453
2809.0 0.000356 2691.24976 2704.77612
2692.0 0.000371 2691.02881 2691.77515
2708.0 0.000369 2690.80786 2691.55273
2700.0 0.000370 2690.58716 2691.33130
2799.0 0.000357 2690.36646 2690.93896
2751.0 0.000364 2690.14600 2690.72070
2805.0 0.000357 2689.92627 2690.50391
2821.0 0.000354 2689.70605 2690.28735
2736.0 0.000365 2689.48633 2690.07104
2685.0 0.000372 2689.26660 2689.84644
2742.0 0.000365 2689.04761 2689.63232
2703.0 0.000370 2688.82813 2689.41797
2676.0 0.000374 2688.60938 2689.12012
2684.0 0.000373 2688.39038 2688.90894
2761.0 0.000362 2688.17188 2688.69751
2645.0 0.000378 2687.95361 2688.48730
2608.0 0.000383 2687.73560 2688.27783
2662.0 0.000376 2687.51758 2688.06909
2695.0 0.000371 2687.29980 2687.86084
2634.0 0.000380 2687.08228 2687.65332
2658.0 0.000376 2686.86475 2687.44678
2585.0 0.000387 2686.64771 2687.24048
2672.0 0.000374 2686.43042 2687.03516
2614.0 0.000383 2686.21387 2686.97266
2583.0 0.000387 2685.99731 2686.77051
2542.0 0.000393 2685.78076 2686.56934
2689.0 0.000372 2685.56494 2686.36890
2675.0 0.000374 2685.34888 2686.17017
2611.0 0.000383 2685.13306 2685.97119
2666.0 0.000375 2684.91748 2685.77368
2639.0 0.000379 2684.70215 2685.57739
2656.0 0.000377 2684.48706 2685.45215
2543.0 0.000393 2684.27197 2685.25854
2624.0 0.000381 2684.05713 2685.06641
2657.0 0.000376 2683.84253 2684.87549
2621.0 0.000382 2683.62842 2684.68555
2679.0 0.000373 2683.41406 2684.49731
2617.0 0.000382 2683.20020 2684.31006
2671.0 0.000374 2682.98657 2684.12402
2600.0 0.000385 2682.77271 2683.93970
2630.0 0.000380 2682.55957 2683.75806
2635.0 0.000380 2682.34644 2683.57739
2611.0 0.000383 2682.13354 2683.39844
2660.0 0.000376 2681.92065 2683.22168
2646.0 0.000378 2681.70825 2683.04736
2604.0 0.000384 2681.49585 2682.87451
2680.0 0.000373 2681.28369 2682.70459
2640.0 0.000379 2681.07178 2682.53760
2695.0 0.000371 2680.86035 2682.37354
2632.0 0.000380 2680.64868 2682.21143
2709.0 0.000369 2680.43726 2682.05396
2807.0 0.000356 2680.22632 2681.90015
2599.0 0.000385 2680.01538 2681.74976
2635.0 0.000380 2679.80469 2681.60547
2680.0 0.000373 2679.59424 2681.46655
2597.0 0.000385 2679.38403 2681.33472
2631.0 0.000380 2679.17383 2681.21143
2684.0 0.000373 2678.96387 2681.09863
2805.0 0.000357 2678.75415 2680.99805
2586.0 0.000387 2678.54468 2680.91357
2740.0 0.000365 2678.33569 2680.84741
2690.0 0.000372 2678.12646 2680.80371
2664.0 0.000375 2677.91772 2680.78735
2666.0 0.000375 2677.70923 2680.80249
2611.0 0.000383 2677.50073 2680.85303
2605.0 0.000384 2677.29248 2680.94312
2593.0 0.000386 2677.08447 2681.07544
2654.0 0.000377 2676.87671 2681.25171
2575.0 0.000388 2676.66919 2681.47168
2640.0 0.000379 2676.46191 2681.73389
2634.0 0.000380 2676.25464 2682.03174
2661.0 0.000376 2676.04785 2682.35742
2754.0 0.000363 2675.84106 2682.69800
2670.0 0.000375 2675.63452 2683.03687
2580.0 0.000388 2675.42822 2683.35376
2588.0 0.000386 2675.22192 2683.63159
2689.0 0.000372 2675.01611 2683.85718
2695.0 0.000371 2674.81030 2684.02979
2708.0 0.000369 2674.60474 2684.16284
2668.0 0.000375 2674.39966 2684.28125
2723.0 0.000367 2674.19458 2684.41553
2637.0 0.000379 2673.98950 2684.60254
2638.0 0.000379 2673.78516 2684.87964
2666.0 0.000375 2673.58057 2685.29077
2575.0 0.000388 2673.37622 2685.88892
2683.0 0.000373 2673.17236 2686.73901
2701.0 0.000370 2672.96875 2687.91992
2643.0 0.000378 2672.76489 2689.51831
2608.0 0.000383 2672.56177 2691.62573
2724.0 0.000367 2672.35864 2694.33057
2658.0 0.000376 2672.15552 2697.71216
2701.0 0.000370 2671.95288 2701.82617
2699.0 0.000371 2671.75049 2706.70947
2616.0 0.000382 2671.54810 2712.36304
2661.0 0.000376 2671.34570 2718.73511
2673.0 0.000374 2671.14404 2725.73413
2672.0 0.000374 2670.94238 2733.18750
2585.0 0.000387 2670.74097 2740.86182
2600.0 0.000385 2670.53979 2748.43774
2663.0 0.000376 2670.33862 2755.55981
2652.0 0.000377 2670.13794 2761.90991
2747.0 0.000364 2669.93726 2767.26733
2693.0 0.000371 2669.73706 2771.57471
2649.0 0.000378 2669.53687 2774.90674
2666.0 0.000375 2669.33667 2777.37134
2748.0 0.000364 2669.13696 2779.01123
2692.0 0.000371 2668.93774 2779.76392
2703.0 0.000370 2668.73828 2779.45557
2617.0 0.000382 2668.53931 2777.89282
2662.0 0.000376 2668.34033 2774.95996
2699.0 0.000371 2668.14160 2770.71289
2697.0 0.000371 2667.94336 2765.37378
2645.0 0.000378 2667.74512 2759.27100
2634.0 0.000380 2667.54688 2752.73389
2512.0 0.000398 2667.34912 2746.01196
2619.0 0.000382 2667.15137 2739.26953
2688.0 0.000372 2666.95435 2732.59595
2591.0 0.000386 2666.75708 2726.03687
2630.0 0.000380 2666.56006 2719.64600
2635.0 0.000380 2666.36353 2713.50708
2632.0 0.000380 2666.16699 2707.70532
2625.0 0.000381 2665.97070 2702.32202
2686.0 0.000372 2665.77466 2697.42310
2603.0 0.000384 2665.57886 2693.03247
2635.0 0.000380 2665.38330 2689.14990
2605.0 0.000384 2665.18799 2685.76099
2421.0 0.000413 2664.99268 2682.82031
2494.0 0.000401 2664.79785 2680.30713
2646.0 0.000378 2664.60303 2678.16650
2652.0 0.000377 2664.40845 2676.35327
2631.0 0.000380 2664.21436 2674.82446
2521.0 0.000397 2664.02026 2673.53564
2634.0 0.000380 2663.82642 2672.44897
2615.0 0.000382 2663.63281 2671.53052
2598.0 0.000385 2663.43945 2670.74829
2523.0 0.000396 2663.24609 2670.07593
2703.0 0.000370 2663.05322 2669.49292
2552.0 0.000392 2662.86035 2668.98120
2651.0 0.000377 2662.66772 2668.52612
2656.0 0.000377 2662.47559 2668.11768
2663.0 0.000376 2662.28345 2667.74683
2528.0 0.000396 2662.09180 2667.40747
2584.0 0.000387 2661.90015 2667.09497
2493.0 0.000401 2661.70874 2666.80566
2654.0 0.000377 2661.51758 2666.53687
2592.0 0.000386 2661.32642 2666.28687
2520.0 0.000397 2661.13574 2666.05444
2541.0 0.000394 2660.94531 2665.83813
2550.0 0.000392 2660.75488 2665.63770
2683.0 0.000373 2660.56470 2665.45288
2575.0 0.000388 2660.37524 2665.28198
2631.0 0.000380 2660.18555 2665.12720
2554.0 0.000392 2659.99585 2664.98682
2614.0 0.000383 2659.80688 2664.86133
2610.0 0.000383 2659.61792 2664.75195
2566.0 0.000390 2659.42920 2664.65845
2548.0 0.000392 2659.24072 2664.58179
2564.0 0.000390 2659.05225 2664.52222
2667.0 0.000375 2658.86450 2664.48169
2630.0 0.000380 2658.67651 2664.46191
2598.0 0.000385 2658.48877 2664.46313
2540.0 0.000394 2658.30176 2664.48755
2571.0 0.000389 2658.11426 2664.53833
2527.0 0.000396 2657.92749 2664.61694
2590.0 0.000386 2657.74072 2664.72729
2585.0 0.000387 2657.55444 2664.87476
2553.0 0.000392 2657.36816 2665.06494
2646.0 0.000378 2657.18213 2665.30444
2564.0 0.000390 2656.99634 2665.60498
2631.0 0.000380 2656.81055 2666.22437
2574.0 0.000389 2656.62549 2666.69946
2614.0 0.000383 2656.44019 2667.29932
2619.0 0.000382 2656.25562 2668.07813
2691.0 0.000372 2656.07056 2669.05371
2544.0 0.000393 2655.88623 2670.30859
2538.0 0.000394 2655.70215 2671.92627
2664.0 0.000375 2655.51831 2674.01294
2688.0 0.000372 2655.33423 2676.69238
2489.0 0.000402 2655.15088 2680.22729
2644.0 0.000378 2654.96777 2684.53589
2705.0 0.000370 2654.78442 2689.90479
2588.0 0.000386 2654.60181 2696.49438
2573.0 0.000389 2654.41919 2704.43408
2573.0 0.000389 2654.23682 2713.84448
2556.0 0.000391 2654.05469 2724.76367
2568.0 0.000389 2653.87280 2737.18921
2589.0 0.000386 2653.69116 2750.99707
2593.0 0.000386 2653.50952 2765.98169
2690.0 0.000372 2653.32837 2781.78223
2630.0 0.000380 2653.14746 2797.87891
2635.0 0.000380 2652.96655 2813.60791
2532.0 0.000395 2652.78613 2828.12305
2629.0 0.000380 2652.60620 2840.50635
2740.0 0.000365 2652.42603 2849.93335
2715.0 0.000368 2652.24609 2855.84180
2633.0 0.000380 2652.06641 2858.09546
2663.0 0.000376 2651.88696 2856.97852
2733.0 0.000366 2651.70801 2853.02393
2719.0 0.000368 2651.52905 2846.82080
2664.0 0.000375 2651.35059 2838.82837
2655.0 0.000377 2651.17188 2829.33228
2619.0 0.000382 2650.99390 2818.50488
2731.0 0.000366 2650.81567 2806.47266
2658.0 0.000376 2650.63818 2793.46631
2711.0 0.000369 2650.46045 2779.82104
2645.0 0.000378 2650.28345 2765.97656
2633.0 0.000380 2650.10645 2752.38330
2616.0 0.000382 2649.92944 2739.40454
2623.0 0.000381 2649.75293 2727.32642
2586.0 0.000387 2649.57666 2716.32764
2625.0 0.000381 2649.40063 2706.48779
2565.0 0.000390 2649.22461 2697.82617
2656.0 0.000377 2649.04907 2690.32080
2636.0 0.000379 2648.87378 2683.89771
2574.0 0.000389 2648.69873 2678.46753
2755.0 0.000363 2648.52368 2673.92944
2659.0 0.000376 2648.34888 2670.16577
2603.0 0.000384 2648.17456 2667.06665
2556.0 0.000391 2648.00049 2664.52026
2655.0 0.000377 2647.82642 2662.42920
2660.0 0.000376 2647.65259 2660.70679
2552.0 0.000392 2647.47900 2659.27466
2628.0 0.000381 2647.30591 2658.07178
2631.0 0.000380 2647.13281 2657.04785
2652.0 0.000377 2646.95996 2656.16187
2594.0 0.000386 2646.78760 2655.38257
2681.0 0.000373 2646.61523 2654.68799
2602.0 0.000384 2646.44312 2654.05884
2574.0 0.000389 2646.27124 2653.48364
2621.0 0.000382 2646.09961 2652.95239
2598.0 0.000385 2645.92822 2652.45703
2646.0 0.000378 2645.75708 2651.99292
2574.0 0.000389 2645.58618 2651.55566
2619.0 0.000382 2645.41577 2651.14209
2623.0 0.000381 2645.24536 2650.74951
2430.0 0.000412 2645.07495 2650.37573
2656.0 0.000377 2644.90503 2650.01831
2611.0 0.000383 2644.73560 2649.67676
2545.0 0.000393 2644.56592 2649.34937
2580.0 0.000388 2644.39673 2649.03418
2632.0 0.000380 2644.22803 2648.73169
2595.0 0.000385 2644.05908 2648.43970
2545.0 0.000393 2643.89063 2648.15649
2636.0 0.000379 2643.72241 2647.88379
2623.0 0.000381 2643.55420 2648.56519
2688.0 0.000372 2643.38672 2648.31934
2618.0 0.000382 2643.21899 2648.08008
2676.0 0.000374 2643.05151 2647.84546
2676.0 0.000374 2642.88477 2647.62085
2599.0 0.000385 2642.71777 2647.40283
2656.0 0.000377 2642.55127 2647.19019
2538.0 0.000394 2642.38501 2646.98364
2656.0 0.000377 2642.21875 2646.78247
2655.0 0.000377 2642.05298 2647.05811
2679.0 0.000373 2641.88745 2648.93042
2694.0 0.000371 2641.72192 2648.77246
2694.0 0.000371 2641.55688 2648.62158
2667.0 0.000375 2641.39209 2648.47510
2516.0 0.000397 2641.22754 2648.33350
2688.0 0.000372 2641.06323 2648.19727
2599.0 0.000385 2640.89917 2648.06543
2668.0 0.000375 2640.73511 2647.93799
2695.0 0.000371 2640.57129 2647.81616
2680.0 0.000373 2640.40820 2648.72437
2632.0 0.000380 2640.24487 2648.62354
2673.0 0.000374 2640.08179 2648.52783
2686.0 0.000372 2639.91919 2648.43652
2660.0 0.000376 2639.75659 2648.35010
2735.0 0.000366 2639.59473 2648.26831
2551.0 0.000392 2639.43286 2648.19238
2573.0 0.000389 2639.27075 2648.12109
2580.0 0.000388 2639.10962 2648.05493
2667.0 0.000375 2638.94824 2647.99438
2710.0 0.000369 2638.78735 2647.93823
2655.0 0.000377 2638.62671 2647.88745
2573.0 0.000389 2638.46606 2647.84326
2596.0 0.000385 2638.30591 2647.80469
2591.0 0.000386 2638.14600 2647.77173
2610.0 0.000383 2637.98608 2647.74512
2656.0 0.000377 2637.82690 2647.72534
2558.0 0.000391 2637.66772 2647.67139
2577.0 0.000388 2637.50830 2647.66504
2622.0 0.000381 2637.34985 2647.66602
2617.0 0.000382 2637.19116 2647.67456
2603.0 0.000384 2637.03296 2647.69092
2716.0 0.000368 2636.87500 2647.71533
2664.0 0.000375 2636.71729 2647.74756
2622.0 0.000381 2636.55981 2647.79004
2586.0 0.000387 2636.40259 2647.76660
2693.0 0.000371 2636.24561 2647.82861
2722.0 0.000367 2636.08862 2647.90210
2623.0 0.000381 2635.93237 2647.98608
2653.0 0.000377 2635.77588 2648.08203
2642.0 0.000379 2635.62012 2648.19092
2695.0 0.000371 2635.46411 2648.31299
2693.0 0.000371 2635.30884 2648.44995
2658.0 0.000376 2635.15356 2648.60205
2687.0 0.000372 2634.99829 2648.77075
2741.0 0.000365 2634.84351 2648.95728
2748.0 0.000364 2634.68896 2649.16333
2792.0 0.000358 2634.53491 2649.38916
2838.0 0.000352 2634.38086 2649.63843
2753.0 0.000363 2634.22705 2649.91089
2748.0 0.000364 2634.07349 2650.21045
2690.0 0.000372 2633.92017 2650.53882
2777.0 0.000360 2633.76733 2650.89868
2786.0 0.000359 2633.61450 2651.29272
2840.0 0.000352 2633.46191 2651.72607
2855.0 0.0003503 2633.30957 2652.20215
2736.0 0.000365 2633.15771 2652.72681
2742.0 0.000365 2633.00586 2653.30591
2687.0 0.000372 2632.85449 2653.94995
2798.0 0.000357 2632.70313 2654.66968
2709.0 0.000369 2632.55225 2655.47998
2723.0 0.000367 2632.40137 2656.40356
2626.0 0.000381 2632.25098 2657.46729
2733.0 0.000366 2632.10059 2658.71069
2677.0 0.000374 2631.95068 2660.18604
2628.0 0.000381 2631.80103 2661.96143
2706.0 0.000370 2631.65137 2664.12695
2632.0 0.000380 2631.50244 2666.79712
2712.0 0.000369 2631.35327 2670.11450
2700.0 0.000370 2631.20459 2674.24609
2729.0 0.000366 2631.05615 2679.39600
2699.0 0.000371 2630.90771 2685.78296
2684.0 0.000373 2630.76001 2693.65454
2628.0 0.000381 2630.61206 2703.25342
2672.0 0.000374 2630.46484 2714.80884
2735.0 0.000366 2630.31763 2728.53638
2781.0 0.000360 2630.17041 2744.57935
2836.0 0.000353 2630.02393 2762.99927
2768.0 0.000361 2629.87744 2783.77368
2705.0 0.000370 2629.73120 2806.74658
2720.0 0.000368 2629.58521 2831.56934
2749.0 0.000364 2629.43970 2857.75903
2759.0 0.000362 2629.29419 2884.60840
2823.0 0.000354 2629.14917 2911.13818
2848.0 0.000351 2629.00415 2936.20947
2835.0 0.000353 2628.85938 2958.52173
2921.0 0.0003423 2628.71509 2976.77344
2849.0 0.000351 2628.57104 2989.98901
2990.0 0.0003344 2628.42725 2997.65479
2939.0 0.0003403 2628.28369 2999.86035
2916.0 0.0003429 2628.14014 2997.16113
2846.0 0.000351 2627.99707 2990.35181
2862.0 0.0003494 2627.85425 2980.20654
2829.0 0.000353 2627.71167 2967.33765
2892.0 0.0003458 2627.56934 2952.14697
2835.0 0.000353 2627.42725 2934.89429
2821.0 0.000354 2627.28540 2915.78467
2791.0 0.000358 2627.14380 2895.20703
2890.0 0.0003460 2627.00269 2873.64722
2783.0 0.000359 2626.86157 2851.71802
2854.0 0.0003504 2626.72095 2830.18994
2748.0 0.000364 2626.58032 2809.38623
2871.0 0.0003483 2626.44019 2789.87573
2767.0 0.000361 2626.30005 2771.94653
2785.0 0.000359 2626.16016 2755.79419
2679.0 0.000373 2626.02075 2741.49097
2605.0 0.000384 2625.88159 2729.02539
2728.0 0.000367 2625.74243 2718.34155
2787.0 0.000359 2625.60400 2709.33496
2799.0 0.000357 2625.46558 2701.91333
2821.0 0.000354 2625.32739 2695.81274
2734.0 0.000366 2625.18945 2690.78613
2744.0 0.000364 2625.05151 2686.95020
2633.0 0.000380 2624.91431 2684.00439
2713.0 0.000369 2624.77710 2681.80859
2596.0 0.000385 2624.64038 2680.23193
2642.0 0.000379 2624.50366 2679.16772
2763.0 0.000362 2624.36719 2678.52246
2783.0 0.000359 2624.23145 2678.22437
2742.0 0.000365 2624.09546 2678.21484
2709.0 0.000369 2623.95996 2678.37939
2753.0 0.000363 2623.82446 2678.82617
2650.0 0.000377 2623.68970 2679.46118
2701.0 0.000370 2623.55469 2680.26831
2657.0 0.000376 2623.42017 2681.23804
2710.0 0.000369 2623.28613 2682.36450
2735.0 0.000366 2623.15210 2683.64624
2731.0 0.000366 2623.01831 2685.08447
2755.0 0.000363 2622.88477 2686.68188
2812.0 0.000356 2622.75171 2688.44531
2725.0 0.000367 2622.61841 2690.48779
2703.0 0.000370 2622.48584 2692.60767
2772.0 0.000361 2622.35352 2694.92090
2665.0 0.000375 2622.22144 2697.43945
2836.0 0.000353 2622.08960 2700.18140
2745.0 0.000364 2621.95801 2703.16064
2644.0 0.000378 2621.82666 2706.39893
2675.0 0.000374 2621.69556 2709.91992
2829.0 0.000353 2621.56470 2713.75122
2797.0 0.000358 2621.43408 2717.92188
2850.0 0.000351 2621.30371 2722.52734
2830.0 0.000353 2621.17358 2727.51392
2893.0 0.0003457 2621.04419 2732.98584
2908.0 0.0003439 2620.91455 2739.02979
3028.0 0.0003303 2620.78516 2745.84644
2928.0 0.0003415 2620.65649 2753.37793
2967.0 0.0003370 2620.52759 2761.91650
2809.0 0.000356 2620.39917 2771.70874
2984.0 0.0003351 2620.27100 2783.11206
3039.0 0.0003291 2620.14307 2796.58252
2994.0 0.0003340 2620.01563 2812.72119
3022.0 0.0003309 2619.88818 2832.33398
3098.0 0.0003228 2619.76099 2856.41333
3036.0 0.0003294 2619.63428 2886.22559
3319.0 0.0003013 2619.50757 2923.18115
3167.0 0.0003158 2619.38135 2969.07617
3185.0 0.0003140 2619.25537 3025.79590
3363.0 0.0002974 2619.12964 3095.48926
3329.0 0.0003004 2619.00415 3180.35181
3504.0 0.0002854 2618.87891 3282.37378
3604.0 0.0002775 2618.75391 3403.51855
3658.0 0.0002734 2618.62915 3545.31372
3925.0 0.0002548 2618.50488 3708.46558
4082.0 0.0002450 2618.38062 3893.26904
4081.0 0.0002450 2618.25659 4098.67285
4243.0 0.0002357 2618.13306 4322.83838
4411.0 0.0002267 2618.00977 4562.26074
4674.0 0.0002139 2617.88672 4811.82129
5021.0 0.0001992 2617.76392 5065.03760
5248.0 0.0001905 2617.64136 5313.35254
5477.0 0.0001826 2617.51904 5546.99170
5757.0 0.0001737 2617.39697 5756.38721
5972.0 0.0001674 2617.27539 5933.47363
6100.0 0.0001639 2617.15405 6073.38574
6283.0 0.0001592 2617.03271 6175.89307
6349.0 0.0001575 2616.91187 6244.19678
6257.0 0.0001598 2616.79126 6283.19141
6235.0 0.0001604 2616.67065 6297.52686
6097.0 0.0001640 2616.55078 6289.84912
6088.0 0.0001643 2616.43091 6260.29492
5908.0 0.0001693 2616.31152 6206.92432
5951.0 0.0001680 2616.19214 6127.03223
5769.0 0.0001733 2616.07324 6018.67529
5902.0 0.0001694 2615.95459 5882.34570
5715.0 0.0001750 2615.83594 5721.49658
5571.0 0.0001795 2615.71753 5541.78906
5244.0 0.0001907 2615.59985 5350.08936
5076.0 0.0001970 2615.48218 5153.34180
4845.0 0.0002064 2615.36499 4956.84668
4876.0 0.0002051 2615.24780 4764.38379
4393.0 0.0002276 2615.13086 4578.41455
4274.0 0.0002340 2615.01440 4399.77100
4205.0 0.0002378 2614.89819 4229.10449
3968.0 0.0002520 2614.78198 4066.67139
3883.0 0.0002575 2614.66602 3913.21289
3683.0 0.0002715 2614.55078 3769.67651
3504.0 0.0002854 2614.43555 3636.80566
3563.0 0.0002807 2614.32056 3515.33618
3424.0 0.0002921 2614.20605 3405.61157
3402.0 0.0002939 2614.09180 3307.43677
3313.0 0.0003018 2613.97754 3220.45459
3158.0 0.0003167 2613.86377 3144.05762
3179.0 0.0003146 2613.75024 3077.40210
3171.0 0.0003154 2613.63672 3019.62231
3118.0 0.0003207 2613.52393 2969.90430
3029.0 0.0003301 2613.41138 2927.31494
3016.0 0.0003316 2613.29883 2891.01758
3029.0 0.0003301 2613.18652 2860.21411
2949.0 0.0003391 2613.07471 2834.12524
2976.0 0.0003360 2612.96313 2812.07910
3005.0 0.0003328 2612.85181 2793.42822
2856.0 0.0003501 2612.74048 2777.62231
2891.0 0.0003459 2612.62988 2764.17969
2880.0 0.0003472 2612.51953 2752.66772
2818.0 0.000355 2612.40918 2742.74146
2863.0 0.0003493 2612.29907 2734.11157
2800.0 0.000357 2612.18945 2726.61035
2835.0 0.000353 2612.08008 2719.89185
2826.0 0.000354 2611.97119 2713.88623
2860.0 0.0003497 2611.86230 2708.46606
2723.0 0.000367 2611.75342 2703.53735
2738.0 0.000365 2611.64526 2699.03174
2774.0 0.000360 2611.53711 2694.88501
2715.0 0.000368 2611.42944 2691.05396
2707.0 0.000369 2611.32202 2687.49829
2708.0 0.000369 2611.21484 2684.19067
2658.0 0.000376 2611.10791 2681.14038
2724.0 0.000367 2611.00122 2678.25513
2691.0 0.000372 2610.89502 2675.55347
2694.0 0.000371 2610.78882 2673.02075
2758.0 0.000363 2610.68311 2670.64038
2686.0 0.000372 2610.57764 2668.40234
2779.0 0.000360 2610.47266 2666.29663
2671.0 0.000374 2610.36743 2664.31177
2577.0 0.000388 2610.26294 2662.43921
2706.0 0.000370 2610.15845 2660.67383
2646.0 0.000378 2610.05444 2659.00562
2609.0 0.000383 2609.95044 2657.42896
2664.0 0.000375 2609.84692 2655.93994
2737.0 0.000365 2609.74341 2654.53149
2708.0 0.000369 2609.64063 2653.19946
2823.0 0.000354 2609.53784 2651.93896
2611.0 0.000383 2609.43530 2650.74707
2673.0 0.000374 2609.33350 2649.62012
2653.0 0.000377 2609.23145 2648.55469
2642.0 0.000379 2609.12988 2647.54761
2624.0 0.000381 2609.02881 2646.59741
2627.0 0.000381 2608.92749 2645.70142
2644.0 0.000378 2608.82666 2644.85718
2668.0 0.000375 2608.72632 2644.06348
2556.0 0.000391 2608.62622 2643.31860
2643.0 0.000378 2608.52637 2642.62207
2590.0 0.000386 2608.42676 2641.97339
2599.0 0.000385 2608.32715 2641.36963
2626.0 0.000381 2608.22827 2640.81372
2652.0 0.000377 2608.12939 2640.30322
2638.0 0.000379 2608.03101 2639.84009
2733.0 0.000366 2607.93286 2639.42432
2577.0 0.000388 2607.83496 2638.81714
2667.0 0.000375 2607.73730 2638.50488
2643.0 0.000378 2607.63989 2638.23291
2642.0 0.000379 2607.54297 2638.03784
2690.0 0.000372 2607.44604 2637.91113
2707.0 0.000369 2607.34961 2637.86206
2627.0 0.000381 2607.25342 2637.90186
2666.0 0.000375 2607.15723 2638.05029
2726.0 0.000367 2607.06177 2638.20508
2644.0 0.000378 2606.96631 2638.64014
2581.0 0.000387 2606.87134 2639.26758
2626.0 0.000381 2606.77661 2640.12256
2719.0 0.000368 2606.68213 2641.27319
2671.0 0.000374 2606.58789 2642.77124
2728.0 0.000367 2606.49414 2644.68896
2760.0 0.000362 2606.40015 2647.10181
2708.0 0.000369 2606.30688 2650.09302
2613.0 0.000383 2606.21387 2653.75122
2684.0 0.000373 2606.12109 2658.16040
2664.0 0.000375 2606.02856 2663.39429
2683.0 0.000373 2605.93652 2669.52393
2583.0 0.000387 2605.84424 2676.59497
2615.0 0.000382 2605.75269 2684.61768
2602.0 0.000384 2605.66138 2693.58032
2711.0 0.000369 2605.57007 2703.42432
2732.0 0.000366 2605.47949 2714.02588
2680.0 0.000373 2605.38892 2725.23022
2618.0 0.000382 2605.29858 2736.80493
2586.0 0.000387 2605.20874 2748.48169
2673.0 0.000374 2605.11890 2759.93115
2709.0 0.000369 2605.02979 2770.78003
2690.0 0.000372 2604.94067 2780.64648
2732.0 0.000366 2604.85181 2789.13354
2709.0 0.000369 2604.76343 2795.89502
2830.0 0.000353 2604.67529 2800.70801
2739.0 0.000365 2604.58716 2803.50732
2771.0 0.000361 2604.49976 2804.40942
2750.0 0.000364 2604.41235 2803.68848
2830.0 0.000353 2604.32520 2801.69849
2776.0 0.000360 2604.23828 2798.81519
2782.0 0.000359 2604.15210 2795.37207
2791.0 0.000358 2604.06567 2791.65454
2852.0 0.0003506 2603.97998 2787.89111
2860.0 0.0003497 2603.89429 2784.29224
2771.0 0.000361 2603.80908 2781.07788
2745.0 0.000364 2603.72388 2778.49170
2791.0 0.000358 2603.63916 2776.80591
2752.0 0.000363 2603.55469 2776.28931
2832.0 0.000353 2603.47046 2777.16919
2790.0 0.000358 2603.38672 2779.59912
2732.0 0.000366 2603.30322 2783.62964
2792.0 0.000358 2603.21973 2789.20679
2833.0 0.000353 2603.13672 2797.25610
2856.0 0.0003501 2603.05420 2805.30615
2780.0 0.000360 2602.97168 2814.07837
2801.0 0.000357 2602.88965 2823.14697
2726.0 0.000367 2602.80762 2832.08057
2802.0 0.000357 2602.72607 2840.52124
2821.0 0.000354 2602.64478 2848.18066
2832.0 0.000353 2602.56396 2856.14258
2783.0 0.000359 2602.48340 2861.67603
2818.0 0.000355 2602.40283 2865.84546
2782.0 0.000359 2602.32275 2868.40186
2821.0 0.000354 2602.24292 2869.05957
2826.0 0.000354 2602.16333 2870.30029
2787.0 0.000359 2602.08423 2866.55518
2774.0 0.000360 2602.00537 2860.55249
2776.0 0.000360 2601.92676 2852.50879
2791.0 0.000358 2601.84839 2842.75781
2735.0 0.000366 2601.77026 2832.32886
2793.0 0.000358 2601.69263 2820.34717
2895.0 0.0003454 2601.61499 2807.73755
2725.0 0.000367 2601.53784 2794.73804
2739.0 0.000365 2601.46094 2781.49854
2798.0 0.000357 2601.38452 2768.16284
2753.0 0.000363 2601.30811 2754.88037
2777.0 0.000360 2601.23218 2741.80518
2807.0 0.000356 2601.15649 2729.12793
2666.0 0.000375 2601.08105 2717.03296
2731.0 0.000366 2601.00610 2705.66455
2730.0 0.000366 2600.93115 2695.13232
2687.0 0.000372 2600.85669 2685.51611
2606.0 0.000384 2600.78247 2676.83276
2637.0 0.000379 2600.70850 2669.07617
2668.0 0.000375 2600.63477 2662.22144
2668.0 0.000375 2600.56152 2656.21338
2734.0 0.000366 2600.48853 2650.98926
2742.0 0.000365 2600.41553 2646.58716
2624.0 0.000381 2600.34326 2642.73022
2723.0 0.000367 2600.27100 2639.44897
2693.0 0.000371 2600.19922 2636.79736
2727.0 0.000367 2600.12769 2634.45459
2733.0 0.000366 2600.05640 2632.48560
2752.0 0.000363 2599.98511 2630.83032
2620.0 0.000382 2599.91455 2629.44092
2705.0 0.000370 2599.84448 2628.27173
2636.0 0.000379 2599.77417 2627.28516
2708.0 0.000369 2599.70435 2626.44727
2666.0 0.000375 2599.63501 2625.78418
2638.0 0.000379 2599.56567 2625.17358
2657.0 0.000376 2599.49658 2624.70996
2617.0 0.000382 2599.42822 2624.25513
2700.0 0.000370 2599.35986 2623.86157
2630.0 0.000380 2599.29175 2623.51855
2646.0 0.000378 2599.22412 2623.22168
2676.0 0.000374 2599.15649 2622.96631
2652.0 0.000377 2599.08960 2622.74756
2748.0 0.000364 2599.02295 2622.56226
2705.0 0.000370 2598.95630 2622.41016
2690.0 0.000372 2598.89014 2622.29077
2738.0 0.000365 2598.82422 2622.20044
2677.0 0.000374 2598.75830 2622.14233
2630.0 0.000380 2598.69312 2622.11499
2779.0 0.000360 2598.62817 2622.12158
2783.0 0.000359 2598.56348 2622.16357
2679.0 0.000373 2598.49878 2622.24341
2713.0 0.000369 2598.43481 2622.36694
2646.0 0.000378 2598.37085 2621.59839
2644.0 0.000378 2598.30737 2621.83716
2623.0 0.000381 2598.24414 2622.14355
2707.0 0.000369 2598.18115 2622.52759
2653.0 0.000377 2598.11841 2623.00659
2715.0 0.000368 2598.05615 2623.59473
2776.0 0.000360 2597.99414 2624.31201
2621.0 0.000382 2597.93237 2625.18286
2758.0 0.000363 2597.87085 2626.23047
2710.0 0.000369 2597.80981 2624.93359
2637.0 0.000379 2597.74902 2626.44067
2724.0 0.000367 2597.68848 2628.21045
2695.0 0.000371 2597.62817 2630.26733
2728.0 0.000367 2597.56812 2632.64258
2696.0 0.000371 2597.50879 2635.36206
2681.0 0.000373 2597.44946 2638.44556
2646.0 0.000378 2597.39038 2641.91138
2645.0 0.000378 2597.33130 2645.76123
2686.0 0.000372 2597.27319 2649.99658
2600.0 0.000385 2597.21484 2654.59668
2658.0 0.000376 2597.15698 2659.52563
2558.0 0.000391 2597.09961 2664.74072
2643.0 0.000378 2597.04224 2670.18433
2689.0 0.000372 2596.98560 2675.79468
2708.0 0.000369 2596.92871 2681.52100
2811.0 0.000356 2596.87256 2687.31372
2648.0 0.000378 2596.81641 2693.11011
2678.0 0.000373 2596.76074 2698.84326
2742.0 0.000365 2596.70532 2704.41138
2721.0 0.000368 2596.65015 2709.66504
2790.0 0.000358 2596.59521 2714.43481
2731.0 0.000366 2596.54077 2718.50049
2657.0 0.000376 2596.48657 2721.66943
2798.0 0.000357 2596.43286 2723.77637
2737.0 0.000365 2596.37915 2724.73584
2668.0 0.000375 2596.32568 2724.56104
2680.0 0.000373 2596.27271 2723.34644
2728.0 0.000367 2596.22021 2721.24854
2617.0 0.000382 2596.16797 2718.43994
2649.0 0.000378 2596.11572 2715.06616
2710.0 0.000369 2596.06396 2711.25415
2703.0 0.000370 2596.01245 2707.08057
2681.0 0.000373 2595.96118 2702.59424
2717.0 0.000368 2595.91040 2697.84546
2721.0 0.000368 2595.85986 2692.88354
2803.0 0.000357 2595.80981 2687.78003
2747.0 0.000364 2595.75952 2682.63721
2719.0 0.000368 2595.70996 2677.55371
2706.0 0.000370 2595.66064 2672.63721
2632.0 0.000380 2595.61157 2667.97632
2684.0 0.000373 2595.56299 2663.64233
2658.0 0.000376 2595.51440 2659.67773
2809.0 0.000356 2595.46631 2656.11206
2789.0 0.000359 2595.41846 2652.96094
2767.0 0.000361 2595.37085 2650.22510
2747.0 0.000364 2595.32397 2647.89063
2758.0 0.000363 2595.27710 2645.94092
2782.0 0.000359 2595.23047 2644.35669
2821.0 0.000354 2595.18408 2643.10962
2652.0 0.000377 2595.13818 2642.17041
2802.0 0.000357 2595.09229 2641.51221
2740.0 0.000365 2595.04712 2641.10815
2728.0 0.000367 2595.00195 2640.92480
2744.0 0.000364 2594.95728 2640.94043
2682.0 0.000373 2594.91284 2641.13013
2759.0 0.000362 2594.86890 2641.47412
2755.0 0.000363 2594.82495 2641.95435
2778.0 0.000360 2594.78149 2642.55591
2670.0 0.000375 2594.73828 2643.26636
2678.0 0.000373 2594.69531 2644.07642
2747.0 0.000364 2594.65259 2644.98047
2557.0 0.000391 2594.61060 2645.97095
2752.0 0.000363 2594.56836 2647.04639
2631.0 0.000380 2594.52661 2648.20508
2704.0 0.000370 2594.48560 2649.44385
2686.0 0.000372 2594.44434 2650.76733
2687.0 0.000372 2594.40356 2652.17529
2717.0 0.000368 2594.36304 2653.66943
2694.0 0.000371 2594.32300 2655.25488
2667.0 0.000375 2594.28320 2656.93359
2796.0 0.000358 2594.24365 2658.71191
2770.0 0.000361 2594.20459 2660.59497
2676.0 0.000374 2594.16553 2662.58545
2838.0 0.000352 2594.12695 2664.69385
2807.0 0.000356 2594.08887 2666.92554
2853.0 0.0003505 2594.05078 2669.28687
2876.0 0.0003477 2594.01294 2671.78882
2797.0 0.000358 2593.97559 2674.44043
2708.0 0.000369 2593.93872 2677.25146
2805.0 0.000357 2593.90210 2680.23242
2816.0 0.000355 2593.86548 2683.40088
2778.0 0.000360 2593.82959 2686.76392
2780.0 0.000360 2593.79346 2690.34229
2794.0 0.000358 2593.75806 2694.15112
2864.0 0.0003492 2593.72314 2698.21118
2829.0 0.000353 2593.68823 2702.54419
2846.0 0.000351 2593.65356 2707.17212
2764.0 0.000362 2593.61938 2712.13013
2894.0 0.0003455 2593.58545 2717.44849
2933.0 0.0003409 2593.55176 2723.16455
2830.0 0.000353 2593.51831 2729.33350
2965.0 0.0003373 2593.48535 2736.01416
2947.0 0.0003393 2593.45264 2743.27759
2963.0 0.0003375 2593.42041 2751.22534
2991.0 0.0003343 2593.38818 2759.96802
3017.0 0.0003315 2593.35645 2769.68652
2932.0 0.0003411 2593.32520 2780.58276
2871.0 0.0003483 2593.29395 2792.91455
2960.0 0.0003378 2593.26318 2807.04004
2961.0 0.0003377 2593.23267 2823.28613
3062.0 0.0003266 2593.20239 2842.41528
2972.0 0.0003365 2593.17261 2865.03125
3098.0 0.0003228 2593.14307 2891.97778
3224.0 0.0003102 2593.11377 2924.25610
3146.0 0.0003179 2593.08496 2963.13159
3335.0 0.0002999 2593.05615 3009.99561
3284.0 0.0003045 2593.02783 3066.41992
3353.0 0.0002982 2592.99976 3134.21582
3479.0 0.0002874 2592.97217 3215.26660
3582.0 0.0002792 2592.94482 3311.55884
3702.0 0.0002701 2592.91772 3425.11426
3939.0 0.0002539 2592.89111 3557.87891
4019.0 0.0002488 2592.86450 3711.37598
4083.0 0.0002449 2592.83838 3887.14917
4323.0 0.0002313 2592.81250 4085.91675
4334.0 0.0002307 2592.78711 4308.13916
4604.0 0.0002172 2592.76196 4553.20752
4820.0 0.0002075 2592.73730 4819.53125
5289.0 0.0001891 2592.71265 5104.81982
5451.0 0.0001835 2592.68823 5405.15332
5570.0 0.0001795 2592.66455 5715.27588
5921.0 0.0001689 2592.64087 6029.00049
6220.0 0.0001608 2592.61768 6338.89893
6547.0 0.0001527 2592.59473 6636.34619
6920.0 0.0001445 2592.57202 6913.18799
7250.0 0.0001379 2592.54980 7161.31885
7513.0 0.0001331 2592.52759 7373.12500
7921.0 0.0001262 2592.50586 7542.49658
8249.0 0.0001212 2592.48438 7664.51563
8365.0 0.0001195 2592.46338 7736.29736
8297.0 0.0001205 2592.44238 7757.41504
8296.0 0.0001205 2592.42212 7729.65332
8152.0 0.0001227 2592.40210 7656.93604
7881.0 0.0001269 2592.38208 7544.54053
7733.0 0.0001293 2592.36255 7398.29980
7300.0 0.0001370 2592.34351 7223.63623
6983.0 0.0001432 2592.32471 7025.61133
6731.0 0.0001486 2592.30591 6808.70117
6476.0 0.0001544 2592.28784 6576.49707
6481.0 0.0001543 2592.27002 6332.35742
6072.0 0.0001647 2592.25220 6080.54785
5833.0 0.0001714 2592.23511 5824.69971
5651.0 0.0001770 2592.21826 5569.13916
5479.0 0.0001825 2592.20142 5318.67725
5033.0 0.0001987 2592.18506 5077.22607
4856.0 0.0002059 2592.16895 4848.58789
4493.0 0.0002226 2592.15332 4635.22119
4231.0 0.0002364 2592.13818 4438.96436
4213.0 0.0002374 2592.12280 4260.71338
3924.0 0.0002548 2592.10815 4100.31055
3785.0 0.0002642 2592.09375 3957.21558
3650.0 0.0002740 2592.07983 3830.37280
3543.0 0.0002822 2592.06592 3718.25635
3541.0 0.0002824 2592.05225 3619.27222
3541.0 0.0002824 2592.03931 3531.94678
3511.0 0.0002848 2592.02637 3454.69189
3374.0 0.0002964 2592.01392 3386.16235
3283.0 0.0003046 2592.00146 3325.26807
3194.0 0.0003131 2591.98975 3270.91064
3126.0 0.0003199 2591.97803 3222.22192
3286.0 0.0003043 2591.96680 3178.35767
3169.0 0.0003156 2591.95605 3138.44067
3153.0 0.0003172 2591.94531 3101.80444
3013.0 0.0003319 2591.93530 3067.76489
2970.0 0.0003367 2591.92529 3035.80762
3033.0 0.0003297 2591.91553 3005.57104
3130.0 0.0003195 2591.90601 2976.74902
2959.0 0.0003380 2591.89722 2949.23438
2997.0 0.0003337 2591.88843 2923.04297
3077.0 0.0003250 2591.88013 2898.19336
2944.0 0.0003397 2591.87183 2874.74854
2894.0 0.0003455 2591.86426 2852.83057
2955.0 0.0003384 2591.85693 2832.40918
2927.0 0.0003416 2591.84985 2813.52832
2826.0 0.000354 2591.84302 2796.20166
2871.0 0.0003483 2591.83667 2780.37695
2913.0 0.0003433 2591.83057 2766.02515
2963.0 0.0003375 2591.82471 2753.04614
2843.0 0.000352 2591.81934 2741.37061
2911.0 0.0003435 2591.81396 2730.91211
2795.0 0.000358 2591.80908 2721.56274
2817.0 0.000355 2591.80469 2713.22485
2928.0 0.0003415 2591.80054 2705.80078
2808.0 0.000356 2591.79639 2699.18359
2775.0 0.000360 2591.79321 2693.27710
2815.0 0.000355 2591.78979 2688.00073
2812.0 0.000356 2591.78687 2683.26514
2860.0 0.0003497 2591.78442 2678.99683
2759.0 0.000362 2591.78198 2675.13574
2762.0 0.000362 2591.78003 2671.61963
2808.0 0.000356 2591.77856 2668.40283
2750.0 0.000364 2591.77710 2665.44214
2846.0 0.000351 2591.77612 2662.70435
2779.0 0.000360 2591.77539 2660.15942
2721.0 0.000368 2591.77515 2657.78345
2858.0 0.0003499 2591.77515 2655.55640
2789.0 0.000359 2591.77539 2653.46484
2714.0 0.000368 2591.77612 2651.49146
2694.0 0.000371 2591.77710 2649.62646
2781.0 0.000360 2591.77832 2647.86230
2732.0 0.000366 2591.77979 2646.19116
2671.0 0.000374 2591.78198 2644.60400
2765.0 0.000362 2591.78394 2643.09863
2724.0 0.000367 2591.78662 2641.66650
2719.0 0.000368 2591.78955 2640.30884
2628.0 0.000381 2591.79272 2639.00317
2625.0 0.000381 2591.79639 2637.78101
2718.0 0.000368 2591.80005 2636.62305
2663.0 0.000376 2591.80420 2635.52954
2697.0 0.000371 2591.80908 2634.50049
2836.0 0.000353 2591.81372 2633.53760
2701.0 0.000370 2591.81885 2632.64063
2703.0 0.000370 2591.82446 2631.81445
2790.0 0.000358 2591.83008 2631.05981
2635.0 0.000380 2591.83618 2630.38281
2682.0 0.000373 2591.84277 2629.70874
2697.0 0.000371 2591.84961 2629.19971
2675.0 0.000374 2591.85669 2628.78198
2813.0 0.000355 2591.86401 2628.46021
2659.0 0.000376 2591.87183 2628.23926
2697.0 0.000371 2591.87988 2628.12207
2819.0 0.000355 2591.88843 2628.11035
2768.0 0.000361 2591.89697 2628.20410
2705.0 0.000370 2591.90601 2628.40186
2700.0 0.000370 2591.91553 2628.69849
2679.0 0.000373 2591.92505 2629.05151
2656.0 0.000377 2591.93530 2629.51953
2750.0 0.000364 2591.94556 2630.05005
2697.0 0.000371 2591.95630 2630.62695
2721.0 0.000368 2591.96729 2631.22290
2627.0 0.000381 2591.97852 2631.81274
2580.0 0.000388 2591.99023 2632.36621
2781.0 0.000360 2592.00244 2632.85400
2714.0 0.000368 2592.01465 2633.25049
2716.0 0.000368 2592.02734 2633.53687
2656.0 0.000377 2592.04004 2633.71802
2710.0 0.000369 2592.05347 2633.75293
2744.0 0.000364 2592.06714 2633.66235
2644.0 0.000378 2592.08105 2633.44824
2656.0 0.000377 2592.09546 2633.11646
2733.0 0.000366 2592.10986 2632.66870
2701.0 0.000370 2592.12500 2632.10767
2674.0 0.000374 2592.14014 2631.42993
2768.0 0.000361 2592.15576 2630.64014
2805.0 0.000357 2592.17163 2629.74194
2642.0 0.000379 2592.18774 2628.74561
2707.0 0.000369 2592.20435 2627.66626
2630.0 0.000380 2592.22144 2626.53442
2576.0 0.000388 2592.23853 2625.35034
2741.0 0.000365 2592.25610 2624.14258
2741.0 0.000365 2592.27393 2622.93042
2616.0 0.000382 2592.29224 2621.72632
2809.0 0.000356 2592.31055 2620.54297
2612.0 0.000383 2592.32959 2619.38916
2687.0 0.000372 2592.34863 2618.27100
2681.0 0.000373 2592.36841 2617.19580
2771.0 0.000361 2592.38818 2616.16943
2785.0 0.000359 2592.40845 2615.19604
2767.0 0.000361 2592.42871 2614.28125
2755.0 0.000363 2592.44946 2613.42798
2726.0 0.000367 2592.47070 2612.63599
2641.0 0.000379 2592.49219 2611.90771
2734.0 0.000366 2592.51416 2611.24048
2706.0 0.000370 2592.53613 2610.63086
2718.0 0.000368 2592.55859 2610.07837
2687.0 0.000372 2592.58154 2609.57617
2705.0 0.000370 2592.60449 2609.12378
2710.0 0.000369 2592.62817 2608.71387
2730.0 0.000366 2592.65186 2608.34448
2739.0 0.000365 2592.67578 2608.01099
2666.0 0.000375 2592.70044 2607.70996
2657.0 0.000376 2592.72510 2607.43750
2636.0 0.000379 2592.75024 2607.18994
2649.0 0.000378 2592.77588 2606.96558
2810.0 0.000356 2592.80151 2606.76147
2705.0 0.000370 2592.82764 2606.57495
2577.0 0.000388 2592.85400 2606.40381
2708.0 0.000369 2592.88086 2606.24683
2691.0 0.000372 2592.90796 2606.10181
2681.0 0.000373 2592.93530 2605.96802
2791.0 0.000358 2592.96313 2605.84473
2662.0 0.000376 2592.99121 2605.73096
2651.0 0.000377 2593.01953 2605.62451
2682.0 0.000373 2593.04834 2605.52686
2686.0 0.000372 2593.07739 2605.43677
2817.0 0.000355 2593.10693 2605.35376
2630.0 0.000380 2593.13672 2605.27734
2648.0 0.000378 2593.16650 2605.20776
2705.0 0.000370 2593.19702 2605.14551
2739.0 0.000365 2593.22778 2605.08911
2726.0 0.000367 2593.25903 2605.03906
2690.0 0.000372 2593.29028 2604.99634
2702.0 0.000370 2593.32202 2604.95972
2679.0 0.000373 2593.35400 2604.92944
2724.0 0.000367 2593.38647 2604.90698
2671.0 0.000374 2593.41919 2604.89063
2726.0 0.000367 2593.45215 2604.88159
2723.0 0.000367 2593.48560 2604.87939
2736.0 0.000365 2593.51953 2604.88599
2654.0 0.000377 2593.55322 2604.89941
2690.0 0.000372 2593.58765 2604.92188
2700.0 0.000370 2593.62256 2604.95313
2668.0 0.000375 2593.65747 2604.99365
2653.0 0.000377 2593.69287 2605.04541
2672.0 0.000374 2593.72876 2605.10718
2642.0 0.000379 2593.76465 2605.18237
2626.0 0.000381 2593.80078 2605.27100
2647.0 0.000378 2593.83765 2605.37646
2633.0 0.000380 2593.87476 2605.50098
2697.0 0.000371 2593.91211 2605.64771
2720.0 0.000368 2593.94971 2605.82129
2661.0 0.000376 2593.98804 2606.02783
2804.0 0.000357 2594.02637 2606.27368
2712.0 0.000369 2594.06494 2606.56958
2675.0 0.000374 2594.10400 2606.92432
2594.0 0.000386 2594.14331 2607.35327
2671.0 0.000374 2594.18311 2607.87329
2616.0 0.000382 2594.22314 2608.50098
2617.0 0.000382 2594.26367 2609.25903
2597.0 0.000385 2594.30420 2610.17480
2649.0 0.000378 2594.34521 2611.27222
2690.0 0.000372 2594.38672 2612.58228
2769.0 0.000361 2594.42822 2614.13574
2595.0 0.000385 2594.47046 2615.96069
2791.0 0.000358 2594.51270 2618.08813
2667.0 0.000375 2594.55566 2620.54370
2706.0 0.000370 2594.59863 2623.34741
2640.0 0.000379 2594.64209 2626.51416
2622.0 0.000381 2594.68579 2630.04956
2609.0 0.000383 2594.72998 2633.95020
2696.0 0.000371 2594.77441 2638.19897
2713.0 0.000369 2594.81885 2642.76050
2642.0 0.000379 2594.86377 2647.59351
2671.0 0.000374 2594.90942 2652.62988
2702.0 0.000370 2594.95508 2657.78589
2746.0 0.000364 2595.00098 2662.96289
2650.0 0.000377 2595.04761 2668.03589
2658.0 0.000376 2595.09448 2672.86255
2672.0 0.000374 2595.14136 2677.29614
2692.0 0.000371 2595.18872 2681.18774
2715.0 0.000368 2595.23633 2684.40234
2749.0 0.000364 2595.28442 2686.84961
2702.0 0.000370 2595.33301 2688.48096
2739.0 0.000365 2595.38184 2689.30737
2664.0 0.000375 2595.43066 2689.38428
2790.0 0.000358 2595.48022 2688.85913
2654.0 0.000377 2595.53003 2687.72021
2669.0 0.000375 2595.58008 2686.12549
2664.0 0.000375 2595.63037 2684.16089
2680.0 0.000373 2595.68140 2681.89673
2771.0 0.000361 2595.73242 2679.38794
2736.0 0.000365 2595.78369 2676.68896
2681.0 0.000373 2595.83569 2673.84912
2684.0 0.000373 2595.88770 2670.93506
2708.0 0.000369 2595.94019 2663.35156
2640.0 0.000379 2595.99292 2660.54126
2650.0 0.000377 2596.04614 2657.98584
2645.0 0.000378 2596.09937 2655.70557
2671.0 0.000374 2596.15332 2653.86499
2716.0 0.000368 2596.20728 2652.51123
2704.0 0.000370 2596.26196 2651.70703
2742.0 0.000365 2596.31689 2651.49854
2697.0 0.000371 2596.37183 2651.91357
2628.0 0.000381 2596.42749 2652.96094
2648.0 0.000378 2596.48315 2654.62866
2602.0 0.000384 2596.53931 2656.88696
2612.0 0.000383 2596.59595 2659.68628
2710.0 0.000369 2596.65259 2662.95874
2662.0 0.000376 2596.70972 2666.60864
2808.0 0.000356 2596.76733 2670.52734
2687.0 0.000372 2596.82544 2674.58325
2634.0 0.000380 2596.88330 2678.62329
2715.0 0.000368 2596.94189 2682.49219
2653.0 0.000377 2597.00073 2686.02759
2630.0 0.000380 2597.05981 2689.08911
2716.0 0.000368 2597.11963 2691.55762
2630.0 0.000380 2597.17944 2693.35303
2817.0 0.000355 2597.23950 2694.44043
2726.0 0.000367 2597.30029 2694.81836
2656.0 0.000377 2597.36084 2694.51489
2700.0 0.000370 2597.42212 2693.57568
2641.0 0.000379 2597.48389 2692.05396
2735.0 0.000366 2597.54565 2690.00708
2724.0 0.000367 2597.60791 2687.48511
2769.0 0.000361 2597.67041 2684.53394
2664.0 0.000375 2597.73340 2681.20068
2768.0 0.000361 2597.79663 2677.52637
2771.0 0.000361 2597.86035 2673.56445
2682.0 0.000373 2597.92432 2669.36670
2661.0 0.000376 2597.98853 2664.99854
2683.0 0.000373 2598.05322 2660.52905
2738.0 0.000365 2598.11792 2656.02271
2743.0 0.000365 2598.18335 2651.54614
2780.0 0.000360 2598.24902 2647.16211
2718.0 0.000368 2598.31494 2642.91919
2778.0 0.000360 2598.38135 2638.86597
2616.0 0.000382 2598.44800 2635.03809
2738.0 0.000365 2598.51489 2631.46216
2581.0 0.000387 2598.58228 2628.15283
2750.0 0.000364 2598.64990 2625.12402
2727.0 0.000367 2598.71777 2622.37500
2743.0 0.000365 2598.78613 2619.90015
2845.0 0.000351 2598.85498 2617.69458
2714.0 0.000368 2598.92407 2615.74292
2787.0 0.000359 2598.99341 2614.02930
2722.0 0.000367 2599.06299 2612.53687
2663.0 0.000376 2599.13306 2611.24634
2689.0 0.000372 2599.20361 2610.13867
2786.0 0.000359 2599.27441 2609.19385
2639.0 0.000379 2599.34521 2608.39502
2735.0 0.000366 2599.41675 2607.72388
2725.0 0.000367 2599.48853 2607.16284
2752.0 0.000363 2599.56079 2606.69897
2783.0 0.000359 2599.63306 2606.31689
2702.0 0.000370 2599.70581 2606.00635
2706.0 0.000370 2599.77905 2605.75830
2647.0 0.000378 2599.85254 2605.56201
2662.0 0.000376 2599.92627 2605.41211
2664.0 0.000375 2600.00024 2605.30444
2641.0 0.000379 2600.07471 2605.23315
2729.0 0.000366 2600.14966 2605.19751
2630.0 0.000380 2600.22485 2605.19531
2663.0 0.000376 2600.30054 2605.22754
2762.0 0.000362 2600.37622 2607.61255
2724.0 0.000367 2600.45239 2607.73853
2761.0 0.000362 2600.52881 2607.90674
2666.0 0.000375 2600.60571 2608.12183
2674.0 0.000374 2600.68311 2608.38916
2786.0 0.000359 2600.76050 2608.71533
2675.0 0.000374 2600.83862 2609.10767
2710.0 0.000369 2600.91675 2610.78784
2649.0 0.000378 2600.99536 2611.34302
2688.0 0.000372 2601.07422 2611.98511
2628.0 0.000381 2601.15356 2612.72095
2729.0 0.000366 2601.23315 2613.55493
2603.0 0.000384 2601.31299 2615.64355
2687.0 0.000372 2601.39331 2616.69092
2661.0 0.000376 2601.47412 2617.84009
2732.0 0.000366 2601.55493 2619.08545
2705.0 0.000370 2601.63623 2620.42090
2664.0 0.000375 2601.71802 2621.83423
2737.0 0.000365 2601.80005 2623.30884
2645.0 0.000378 2601.88232 2624.82593
2721.0 0.000368 2601.96509 2626.97021
2603.0 0.000384 2602.04810 2628.49487
2643.0 0.000378 2602.13135 2629.97168
2717.0 0.000368 2602.21509 2631.36377
2786.0 0.000359 2602.29932 2632.62891
2663.0 0.000376 2602.38354 2633.73071
2844.0 0.000352 2602.46851 2634.63672
2747.0 0.000364 2602.55371 2635.32251
2704.0 0.000370 2602.63892 2635.78857
2748.0 0.000364 2602.72461 2636.03320
2750.0 0.000364 2602.81079 2636.07178
2721.0 0.000368 2602.89722 2635.92822
2732.0 0.000366 2602.98413 2635.62476
2732.0 0.000366 2603.07129 2635.18555
2701.0 0.000370 2603.15869 2634.62354
2756.0 0.000363 2603.24658 2633.96460
2674.0 0.000374 2603.33472 2633.21313
2779.0 0.000360 2603.42334 2632.37549
2804.0 0.000357 2603.51221 2631.46460
2689.0 0.000372 2603.60156 2630.48999
2743.0 0.000365 2603.69116 2629.46338
2682.0 0.000373 2603.78101 2628.40527
2719.0 0.000368 2603.87109 2627.33130
2740.0 0.000365 2603.96167 2626.26367
2752.0 0.000363 2604.05273 2625.22119
2703.0 0.000370 2604.14380 2624.21143
2808.0 0.000356 2604.23560 2623.26318
2685.0 0.000372 2604.32739 2622.37842
2671.0 0.000374 2604.41992 2621.56543
2678.0 0.000373 2604.51270 2620.82715
2756.0 0.000363 2604.60547 2620.16650
2746.0 0.000364 2604.69897 2619.58374
2742.0 0.000365 2604.79272 2619.07715
2663.0 0.000376 2604.88647 2618.64502
2708.0 0.000369 2604.98120 2618.28223
2755.0 0.000363 2605.07568 2617.98706
2724.0 0.000367 2605.17090 2617.75195
2736.0 0.000365 2605.26611 2617.57446
2593.0 0.000386 2605.36206 2617.44751
2711.0 0.000369 2605.45825 2617.36694
2766.0 0.000362 2605.55444 2617.32690
2618.0 0.000382 2605.65137 2617.32251
2759.0 0.000362 2605.74854 2617.34961
2785.0 0.000359 2605.84595 2617.40405
2642.0 0.000379 2605.94385 2617.48242
2776.0 0.000360 2606.04199 2617.57983
2745.0 0.000364 2606.14063 2617.69434
2671.0 0.000374 2606.23926 2617.82446
2762.0 0.000362 2606.33887 2617.96777
2732.0 0.000366 2606.43823 2618.12061
2725.0 0.000367 2606.53809 2618.28418
2679.0 0.000373 2606.63843 2618.45557
2680.0 0.000373 2606.73901 2618.63550
2659.0 0.000376 2606.83984 2618.82129
2705.0 0.000370 2606.94116 2619.01367
2689.0 0.000372 2607.04272 2619.21191
2668.0 0.000375 2607.14478 2619.41577
2748.0 0.000364 2607.24707 2619.62451
2756.0 0.000363 2607.34985 2619.83911
2649.0 0.000378 2607.45288 2620.05762
2745.0 0.000364 2607.55640 2620.28125
2771.0 0.000361 2607.65991 2620.51001
2699.0 0.000371 2607.76416 2620.74365
2780.0 0.000360 2607.86841 2620.98169
2743.0 0.000365 2607.97314 2621.22412
2664.0 0.000375 2608.07837 2621.47168
2751.0 0.000364 2608.18384 2621.72412
2694.0 0.000371 2608.28955 2621.98145
2799.0 0.000357 2608.39575 2622.24316
2749.0 0.000364 2608.50195 2622.51001
2723.0 0.000367 2608.60889 2622.78198
2742.0 0.000365 2608.71606 2623.05859
2679.0 0.000373 2608.82373 2623.34180
2669.0 0.000375 2608.93140 2623.62866
2685.0 0.000372 2609.03979 2623.92188
2662.0 0.000376 2609.14819 2624.22021
2498.0 0.000400 2609.25732 2624.52441
2745.0 0.000364 2609.36646 2624.83423
2717.0 0.000368 2609.47607 2625.14990
2709.0 0.000369 2609.58594 2625.47168
2674.0 0.000374 2609.69629 2625.79980
2800.0 0.000357 2609.80713 2626.13403
2721.0 0.000368 2609.91797 2626.47461
2739.0 0.000365 2610.02954 2626.82275
2666.0 0.000375 2610.14111 2627.17822
2804.0 0.000357 2610.25317 2627.54028
2714.0 0.000368 2610.36548 2627.91016
2689.0 0.000372 2610.47827 2628.28809
2658.0 0.000376 2610.59131 2628.71167
2731.0 0.000366 2610.70483 2629.10596
2660.0 0.000376 2610.81860 2629.50903
2686.0 0.000372 2610.93262 2629.92139
2698.0 0.000371 2611.04712 2630.34302
2725.0 0.000367 2611.16211 2630.77441
2687.0 0.000372 2611.27710 2631.21606
2683.0 0.000373 2611.39258 2631.66968
2690.0 0.000372 2611.50854 2632.13452
2635.0 0.000380 2611.62476 2632.61060
2710.0 0.000369 2611.74121 2633.09985
2770.0 0.000361 2611.85815 2633.60327
2737.0 0.000365 2611.97559 2634.12231
2699.0 0.000371 2612.09326 2634.67603
2729.0 0.000366 2612.21094 2635.22827
2725.0 0.000367 2612.32935 2635.80054
2774.0 0.000360 2612.44800 2636.39551
2702.0 0.000370 2612.56689 2637.01465
2725.0 0.000367 2612.68628 2637.66284
2797.0 0.000358 2612.80591 2638.34448
2682.0 0.000373 2612.92603 2639.13135
2756.0 0.000363 2613.04639 2639.91357
2776.0 0.000360 2613.16724 2640.73267
2721.0 0.000368 2613.28833 2641.61426
2743.0 0.000365 2613.40991 2642.57031
2696.0 0.000371 2613.53149 2643.55811
2724.0 0.000367 2613.65356 2644.70410
2775.0 0.000360 2613.77612 2645.96948
2861.0 0.0003495 2613.89893 2647.38013
2736.0 0.000365 2614.02222 2648.94214
2721.0 0.000368 2614.14575 2650.68530
2767.0 0.000361 2614.26953 2652.63184
2757.0 0.000363 2614.39380 2654.80518
2728.0 0.000367 2614.51855 2657.27026
2801.0 0.000357 2614.64355 2659.99805
2747.0 0.000364 2614.76880 2662.98340
2799.0 0.000357 2614.89429 2666.24854
2734.0 0.000366 2615.02026 2669.85474
2830.0 0.000353 2615.14648 2673.78247
2802.0 0.000357 2615.27344 2678.03101
2793.0 0.000358 2615.40039 2682.58398
2752.0 0.000363 2615.52759 2687.43237
2778.0 0.000360 2615.65527 2692.53149
2703.0 0.000370 2615.78345 2697.84985
2738.0 0.000365 2615.91211 2703.33057
2744.0 0.000364 2616.04077 2708.90527
2791.0 0.000358 2616.16992 2714.49756
2778.0 0.000360 2616.29932 2720.01245
2825.0 0.000354 2616.42896 2725.34106
2809.0 0.000356 2616.55933 2730.37500
2816.0 0.000355 2616.68970 2735.00439
2836.0 0.000353 2616.82056 2739.11816
2935.0 0.0003407 2616.95190 2742.63916
2879.0 0.0003473 2617.08350 2745.51587
2830.0 0.000353 2617.21558 2747.72900
2840.0 0.000352 2617.34766 2749.29907
2818.0 0.000355 2617.48022 2750.27246
2856.0 0.0003501 2617.61328 2750.71680
2906.0 0.0003441 2617.74658 2750.64990
2978.0 0.0003358 2617.88013 2750.24683
2798.0 0.000357 2618.01440 2749.51367
2894.0 0.0003455 2618.14868 2748.49658
2878.0 0.0003475 2618.28345 2747.23315
2917.0 0.0003428 2618.41846 2745.73413
2902.0 0.0003446 2618.55396 2744.06177
2738.0 0.000365 2618.68970 2742.23560
2789.0 0.000359 2618.82593 2740.29346
2905.0 0.0003442 2618.96240 2738.28711
2830.0 0.000353 2619.09912 2736.27686
2930.0 0.0003413 2619.23633 2734.32373
2910.0 0.0003436 2619.37378 2732.46484
2746.0 0.000364 2619.51172 2730.80859
2851.0 0.000351 2619.65015 2729.37891
2858.0 0.0003499 2619.78857 2728.21899
2831.0 0.000353 2619.92749 2727.36060
2929.0 0.0003414 2620.06689 2726.82300
2862.0 0.0003494 2620.20630 2726.64185
2955.0 0.0003384 2620.34644 2726.82202
2857.0 0.0003500 2620.48682 2727.37402
2827.0 0.000354 2620.62744 2728.30420
2875.0 0.0003478 2620.76855 2729.61450
2840.0 0.000352 2620.90991 2731.30884
2841.0 0.000352 2621.05151 2733.38672
2856.0 0.0003501 2621.19360 2735.89136
2921.0 0.0003423 2621.33618 2738.74609
2909.0 0.0003438 2621.47876 2741.99292
3005.0 0.0003328 2621.62207 2745.64258
2942.0 0.0003399 2621.76563 2749.70557
2951.0 0.0003389 2621.90942 2754.20410
2905.0 0.0003442 2622.05347 2759.16064
2939.0 0.0003403 2622.19800 2764.61865
3018.0 0.0003313 2622.34302 2770.62256
2945.0 0.0003396 2622.48828 2777.24512
3013.0 0.0003319 2622.63379 2784.57178
2920.0 0.0003425 2622.77979 2792.71582
2958.0 0.0003381 2622.92603 2801.81323
3142.0 0.0003183 2623.07275 2812.05347
3081.0 0.0003246 2623.21973 2823.66968
3153.0 0.0003172 2623.36719 2836.90894
3080.0 0.0003247 2623.51489 2852.12744
3166.0 0.0003159 2623.66284 2869.70801
3205.0 0.0003120 2623.81128 2890.12549
3232.0 0.0003094 2623.95996 2913.95923
3252.0 0.0003075 2624.10913 2941.83276
3361.0 0.0002975 2624.25854 2974.51099
3379.0 0.0002959 2624.40845 3012.80835
3407.0 0.0002935 2624.55884 3057.61670
3426.0 0.0002919 2624.70923 3109.97021
3587.0 0.0002788 2624.86011 3170.86963
3653.0 0.0002737 2625.01123 3241.47241
3678.0 0.0002719 2625.16284 3322.86035
3763.0 0.0002657 2625.31494 3416.12476
3990.0 0.0002506 2625.46704 3522.25049
3934.0 0.0002542 2625.61987 3642.26172
3991.0 0.0002506 2625.77271 3776.82983
4167.0 0.0002400 2625.92603 3926.66772
4325.0 0.0002312 2626.07983 4092.04224
4577.0 0.0002185 2626.23389 4272.97754
4712.0 0.0002122 2626.38843 4469.03857
4892.0 0.0002044 2626.54297 4679.56250
5140.0 0.0001946 2626.69800 4903.45361
5214.0 0.0001918 2626.85352 5138.88525
5329.0 0.0001877 2627.00952 5383.56152
5565.0 0.0001797 2627.16553 5634.46191
5711.0 0.0001751 2627.32202 5888.30957
6113.0 0.0001636 2627.47900 6140.73633
6313.0 0.0001584 2627.63599 6387.36035
6539.0 0.0001529 2627.79370 6623.09473
6737.0 0.0001484 2627.95166 6842.94043
7353.0 0.0001360 2628.10986 7042.11523
7622.0 0.0001312 2628.26855 7216.82178
7916.0 0.0001263 2628.42749 7363.86816
8164.0 0.0001225 2628.58667 7481.47900
8294.0 0.0001206 2628.74634 7568.67725
8456.0 0.0001183 2628.90649 7625.44922
8361.0 0.0001196 2629.06689 7652.27441
8454.0 0.0001183 2629.22754 7650.02246
8438.0 0.0001185 2629.38867 7619.69922
8236.0 0.0001214 2629.55005 7562.47607
7904.0 0.0001265 2629.71216 7479.70898
7896.0 0.0001266 2629.87402 7373.02051
7690.0 0.0001300 2630.03662 7244.12598
7428.0 0.0001346 2630.19946 7095.25342
7312.0 0.0001368 2630.36255 6928.63086
6989.0 0.0001431 2630.52637 6746.95850
6857.0 0.0001458 2630.69019 6553.02832
6840.0 0.0001462 2630.85449 6349.82227
6414.0 0.0001559 2631.01904 6139.92627
6287.0 0.0001591 2631.18408 5926.18604
5858.0 0.0001707 2631.34937 5710.82471
5753.0 0.0001738 2631.51514 5496.16504
5515.0 0.0001813 2631.68115 5284.34717
5284.0 0.0001893 2631.84741 5077.03467
4973.0 0.0002011 2632.01416 4876.14014
4920.0 0.0002033 2632.18115 4682.99512
4606.0 0.0002171 2632.34863 4499.00439
4444.0 0.0002250 2632.51660 4325.21777
4290.0 0.0002331 2632.68481 4162.48389
4129.0 0.0002422 2632.85327 4011.13574
3794.0 0.0002636 2633.02222 3871.55078
3804.0 0.0002629 2633.19141 3743.58813
3640.0 0.0002747 2633.36084 3627.11133
3518.0 0.0002843 2633.53076 3521.75024
3424.0 0.0002921 2633.70117 3427.04810
3525.0 0.0002837 2633.87158 3342.31616
3276.0 0.0003053 2634.04248 3266.97192
3378.0 0.0002960 2634.21387 3200.23486
3278.0 0.0003051 2634.38574 3141.41699
3158.0 0.0003167 2634.55762 3089.80933
3127.0 0.0003198 2634.73022 3044.64404
3132.0 0.0003193 2634.90283 3005.27466
3091.0 0.0003235 2635.07593 2971.00439
3084.0 0.0003243 2635.24927 2941.23926
3086.0 0.0003240 2635.42334 2915.40796
3038.0 0.0003292 2635.59766 2893.00439
3037.0 0.0003293 2635.77173 2873.53857
2995.0 0.0003339 2635.94678 2856.61182
2977.0 0.0003359 2636.12207 2841.84058
3063.0 0.0003265 2636.29761 2828.91040
3034.0 0.0003296 2636.47363 2817.54492
2953.0 0.0003386 2636.64990 2807.50732
3010.0 0.0003322 2636.82642 2798.59155
2947.0 0.0003393 2637.00342 2790.61963
3029.0 0.0003301 2637.18066 2783.85425
2808.0 0.000356 2637.35864 2777.37769
2926.0 0.0003418 2637.53638 2771.48926
2792.0 0.000358 2637.71509 2766.10107
2840.0 0.000352 2637.89380 2761.15259
2935.0 0.0003407 2638.07275 2756.57983
2937.0 0.0003405 2638.25220 2752.34204
2859.0 0.0003498 2638.43213 2748.40015
2819.0 0.000355 2638.61230 2744.72437
2892.0 0.0003458 2638.79297 2741.28662
2769.0 0.000361 2638.97363 2738.48340
2870.0 0.0003484 2639.15479 2735.46313
2790.0 0.000358 2639.33643 2732.62549
2815.0 0.000355 2639.51855 2729.95825
2748.0 0.000364 2639.70068 2727.64893
2809.0 0.000356 2639.88354 2725.29102
2809.0 0.000356 2640.06616 2723.06934
2775.0 0.000360 2640.24976 2720.98145
2748.0 0.000364 2640.43359 2719.02148
2827.0 0.000354 2640.61743 2717.18311
2861.0 0.0003495 2640.80200 2715.46313
2826.0 0.000354 2640.98682 2714.79126
2728.0 0.000367 2641.17188 2713.30933
2754.0 0.000363 2641.35742 2711.93896
2758.0 0.000363 2641.54321 2710.89307
2800.0 0.000357 2641.72925 2709.75757
2681.0 0.000373 2641.91577 2708.74048
2815.0 0.000355 2642.10278 2707.84619
2868.0 0.0003487 2642.29004 2707.08228
2751.0 0.000364 2642.47778 2706.45410
2800.0 0.000357 2642.66553 2705.96973
2767.0 0.000361 2642.85400 2705.63672
2779.0 0.000360 2643.04272 2705.46558
2867.0 0.0003488 2643.23169 2705.46509
2789.0 0.000359 2643.42114 2705.64551
2841.0 0.000352 2643.61060 2706.48364
2743.0 0.000365 2643.80078 2707.08081
2795.0 0.000358 2643.99146 2707.86304
2700.0 0.000370 2644.18213 2708.85840
2776.0 0.000360 2644.37305 2710.07275
2729.0 0.000366 2644.56470 2711.50952
2814.0 0.000355 2644.75659 2713.16772
2678.0 0.000373 2644.94873 2715.04370
2728.0 0.000367 2645.14136 2717.13306
2774.0 0.000360 2645.33423 2719.42651
2767.0 0.000361 2645.52759 2721.91357
2790.0 0.000358 2645.72144 2724.57544
2692.0 0.000371 2645.91504 2727.44775
2861.0 0.0003495 2646.10938 2730.39648
2728.0 0.000367 2646.30420 2733.44702
2753.0 0.000363 2646.49927 2736.56958
2723.0 0.000367 2646.69482 2739.73291
2772.0 0.000361 2646.89063 2742.90112
2794.0 0.000358 2647.08643 2746.04932
2780.0 0.000360 2647.28296 2749.15894
2819.0 0.000355 2647.47974 2752.22192
2747.0 0.000364 2647.67700 2755.24756
2737.0 0.000365 2647.87451 2758.25806
2800.0 0.000357 2648.07227 2761.28882
2779.0 0.000360 2648.27051 2764.38086
2825.0 0.000354 2648.46899 2767.57910
2820.0 0.000355 2648.66797 2770.92871
2773.0 0.000361 2648.86743 2774.45972
2864.0 0.0003492 2649.06689 2778.19409
2743.0 0.000365 2649.26709 2782.13354
2806.0 0.000356 2649.46753 2786.27832
2781.0 0.000360 2649.66821 2790.59937
2827.0 0.000354 2649.86938 2795.06860
2779.0 0.000360 2650.07080 2799.63892
2904.0 0.0003444 2650.27271 2804.25488
2818.0 0.000355 2650.47461 2808.84863
2826.0 0.000354 2650.67725 2813.35352
2768.0 0.000361 2650.87988 2817.68311
2758.0 0.000363 2651.08325 2821.75659
2808.0 0.000356 2651.28687 2825.49097
2839.0 0.000352 2651.49048 2828.80859
2765.0 0.000362 2651.69482 2831.65210
2918.0 0.0003427 2651.89941 2833.98022
2891.0 0.0003459 2652.10425 2835.77515
2845.0 0.000351 2652.30981 2837.03784
2921.0 0.0003423 2652.51563 2837.77930
2942.0 0.0003399 2652.72168 2838.01733
2867.0 0.0003488 2652.92798 2837.76221
2933.0 0.0003409 2653.13477 2837.02026
2917.0 0.0003428 2653.34155 2835.78491
2943.0 0.0003398 2653.54932 2834.04028
2828.0 0.000354 2653.75708 2831.77026
2872.0 0.0003482 2653.96509 2828.95972
2809.0 0.000356 2654.17358 2825.60400
2867.0 0.0003488 2654.38257 2821.71362
2795.0 0.000358 2654.59155 2817.32349
3006.0 0.0003327 2654.80151 2812.48804
2847.0 0.000351 2655.01123 2807.27881
2785.0 0.000359 2655.22168 2801.77197
2837.0 0.000352 2655.43213 2796.05444
2748.0 0.000364 2655.64331 2790.19653
2856.0 0.0003501 2655.85474 2784.27124
2869.0 0.0003486 2656.06641 2778.33740
2762.0 0.000362 2656.27832 2772.44287
2795.0 0.000358 2656.49097 2766.62524
2824.0 0.000354 2656.70361 2760.91675
2810.0 0.000356 2656.91675 2755.34180
2871.0 0.0003483 2657.13013 2749.92822
2862.0 0.0003494 2657.34399 2744.70166
2836.0 0.000353 2657.55811 2739.68652
2801.0 0.000357 2657.77271 2734.90356
2826.0 0.000354 2657.98755 2730.37134
2769.0 0.000361 2658.20288 2726.10840
2786.0 0.000359 2658.41846 2722.07202
2800.0 0.000357 2658.63452 2718.38159
2717.0 0.000368 2658.85083 2714.98193
2841.0 0.000352 2659.06738 2711.87109
2811.0 0.000356 2659.28442 2709.04321
2782.0 0.000359 2659.50171 2706.48975
2722.0 0.000367 2659.71973 2704.19849
2724.0 0.000367 2659.93750 2702.15967
2793.0 0.000358 2660.15625 2700.35400
2812.0 0.000356 2660.37500 2698.77197
2745.0 0.000364 2660.59399 2697.39575
2741.0 0.000365 2660.81372 2696.21191
2784.0 0.000359 2661.03320 2695.17993
2778.0 0.000360 2661.25366 2694.33887
2681.0 0.000373 2661.47412 2693.65332
2733.0 0.000366 2661.69531 2693.10913
2679.0 0.000373 2661.91650 2692.69702
2707.0 0.000369 2662.13818 2692.40918
2729.0 0.000366 2662.36011 2692.23975
2763.0 0.000362 2662.58252 2692.18115
2777.0 0.000360 2662.80518 2692.23413
2814.0 0.000355 2663.02808 2692.39307
2868.0 0.0003487 2663.25146 2692.66040
2786.0 0.000359 2663.47534 2693.03687
2808.0 0.000356 2663.69946 2693.52637
2774.0 0.000360 2663.92407 2694.13257
2809.0 0.000356 2664.14868 2694.86230
2780.0 0.000360 2664.37378 2695.72217
2779.0 0.000360 2664.59937 2696.72095
2711.0 0.000369 2664.82544 2697.86646
2806.0 0.000356 2665.05151 2699.16821
2752.0 0.000363 2665.27808 2700.63501
2714.0 0.000368 2665.50513 2702.27490
2745.0 0.000364 2665.73267 2704.09497
2749.0 0.000364 2665.96021 2706.10181
2830.0 0.000353 2666.18799 2708.29810
2777.0 0.000360 2666.41675 2710.68701
2777.0 0.000360 2666.64526 2713.26440
2792.0 0.000358 2666.87451 2716.02856
2753.0 0.000363 2667.10400 2718.96851
2790.0 0.000358 2667.33374 2722.07129
2841.0 0.000352 2667.56372 2725.31543
2778.0 0.000360 2667.79419 2728.68115
2710.0 0.000369 2668.02515 2732.14331
2778.0 0.000360 2668.25610 2735.66772
2776.0 0.000360 2668.48804 2739.22144
2744.0 0.000364 2668.71997 2742.76538
2828.0 0.000354 2668.95215 2746.26538
2712.0 0.000369 2669.18481 2749.67896
2825.0 0.000354 2669.41772 2752.96704
2813.0 0.000355 2669.65112 2756.08472
2708.0 0.000369 2669.88477 2758.98486
2737.0 0.000365 2670.11865 2761.61963
2766.0 0.000362 2670.35303 2763.94458
2751.0 0.000364 2670.58789 2765.91455
2786.0 0.000359 2670.82300 2767.49658
2739.0 0.000365 2671.05859 2768.66675
2800.0 0.000357 2671.29443 2769.41504
2774.0 0.000360 2671.53052 2769.74976
2822.0 0.000354 2671.76685 2769.68799
2805.0 0.000357 2672.00391 2769.26489
2750.0 0.000364 2672.24097 2768.51685
2853.0 0.0003505 2672.47876 2767.48291
2749.0 0.000364 2672.71655 2766.20459
2767.0 0.000361 2672.95508 2764.71606
2787.0 0.000359 2673.19360 2763.04907
2814.0 0.000355 2673.43262 2761.22754
2867.0 0.0003488 2673.67188 2759.27344
2706.0 0.000370 2673.91162 2757.20703
2803.0 0.000357 2674.15186 2755.04834
2715.0 0.000368 2674.39209 2752.81860
2828.0 0.000354 2674.63281 2750.54224
2671.0 0.000374 2674.87402 2748.24609
2733.0 0.000366 2675.11548 2745.96118
2849.0 0.000351 2675.35742 2743.71899
2829.0 0.000353 2675.59961 2741.54541
2778.0 0.000360 2675.84204 2739.47095
2720.0 0.000368 2676.08496 2735.19580
2804.0 0.000357 2676.32837 2733.39868
2683.0 0.000373 2676.57202 2731.75708
2870.0 0.0003484 2676.81592 2730.28223
2716.0 0.000368 2677.06006 2728.97876
2650.0 0.000377 2677.30493 2727.85376
2819.0 0.000355 2677.55005 2726.90698
2746.0 0.000364 2677.79541 2726.17822
2709.0 0.000369 2678.04102 2724.37695
2816.0 0.000355 2678.28711 2723.97095
2684.0 0.000373 2678.53345 2723.73340
2678.0 0.000373 2678.78027 2723.65918
2712.0 0.000369 2679.02734 2723.74243
2784.0 0.000359 2679.27490 2722.82031
2796.0 0.000358 2679.52271 2723.20825
2694.0 0.000371 2679.77100 2723.73364
2720.0 0.000368 2680.01953 2724.38940
2830.0 0.000353 2680.26855 2725.17212
2736.0 0.000365 2680.51782 2726.07471
2726.0 0.000367 2680.76758 2727.09570
2777.0 0.000360 2681.01733 2727.61914
2840.0 0.000352 2681.26782 2728.86743
2792.0 0.000358 2681.51831 2730.24194
2744.0 0.000364 2681.76953 2731.70728
2809.0 0.000356 2682.02100 2733.28320
2870.0 0.0003484 2682.27271 2734.97144
2836.0 0.000353 2682.52466 2736.79004
2721.0 0.000368 2682.77710 2738.71655
2695.0 0.000371 2683.02979 2740.77637
2745.0 0.000364 2683.28320 2742.98022
2803.0 0.000357 2683.53662 2745.34204
2802.0 0.000357 2683.79053 2747.89453
2873.0 0.0003481 2684.04468 2750.63428
2860.0 0.0003497 2684.29907 2753.60303
2931.0 0.0003412 2684.55420 2756.83911
2845.0 0.000351 2684.80957 2760.38745
2710.0 0.000369 2685.06519 2764.30054
2890.0 0.0003460 2685.32129 2768.64355
2766.0 0.000362 2685.57739 2773.49731
2930.0 0.0003413 2685.83423 2778.95117
2741.0 0.000365 2686.09106 2785.12256
2898.0 0.0003451 2686.34863 2792.14673
2954.0 0.0003385 2686.60620 2800.15576
2948.0 0.0003392 2686.86450 2809.33643
3037.0 0.0003293 2687.12305 2819.87964
2915.0 0.0003431 2687.38159 2832.07324
2833.0 0.000353 2687.64087 2846.05151
2872.0 0.0003482 2687.90063 2862.12598
2974.0 0.0003362 2688.16040 2880.58496
2946.0 0.0003394 2688.42065 2901.75635
3142.0 0.0003183 2688.68091 2925.94043
3009.0 0.0003323 2688.94214 2953.49585
3025.0 0.0003306 2689.20361 2984.74365
3120.0 0.0003205 2689.46509 3020.00977
3097.0 0.0003229 2689.72681 3059.58618
3264.0 0.0003064 2689.98950 3103.79443
3192.0 0.0003133 2690.25195 3152.83887
3276.0 0.0003053 2690.51514 3206.96436
3350.0 0.0002985 2690.77856 3266.28564
3401.0 0.0002940 2691.04224 3330.83203
3415.0 0.0002928 2691.30640 3400.67554
3418.0 0.0002926 2691.57080 3475.57129
3466.0 0.0002885 2691.83545 3555.39478
3640.0 0.0002747 2692.10083 3639.76270
3806.0 0.0002627 2692.36646 3728.20044
3715.0 0.0002692 2692.63208 3820.04517
3886.0 0.0002573 2692.89844 3914.62305
4028.0 0.0002483 2693.16504 4010.92065
4081.0 0.0002450 2693.43188 4107.96631
4316.0 0.0002317 2693.69922 4204.50488
4298.0 0.0002327 2693.96704 4299.22461
4472.0 0.0002236 2694.23486 4390.70410
4471.0 0.0002237 2694.50317 4477.61816
4725.0 0.0002116 2694.77197 4558.71338
4753.0 0.0002104 2695.04102 4632.80176
4871.0 0.0002053 2695.31055 4698.96387
5009.0 0.0001996 2695.58008 4756.50977
5075.0 0.0001970 2695.85034 4805.10107
5058.0 0.0001977 2696.12085 4844.54102
5026.0 0.0001990 2696.39185 4874.91748
5337.0 0.0001874 2696.66284 4896.40332
5303.0 0.0001886 2696.93433 4909.27051
5328.0 0.0001877 2697.20630 4913.80908
5273.0 0.0001896 2697.47852 4910.28418
5224.0 0.0001914 2697.75098 4898.90381
5155.0 0.0001940 2698.02393 4879.80469
5087.0 0.0001966 2698.29736 4853.10400
4996.0 0.0002002 2698.57104 4818.92627
5094.0 0.0001963 2698.84473 4777.49365
4890.0 0.0002045 2699.11890 4729.10498
4834.0 0.0002069 2699.39380 4674.20654
4771.0 0.0002096 2699.66870 4613.44873
4766.0 0.0002098 2699.94434 4547.60889
4730.0 0.0002114 2700.21997 4477.59229
4693.0 0.0002131 2700.49609 4404.24854
4617.0 0.0002166 2700.77246 4328.56201
4519.0 0.0002213 2701.04932 4251.32666
4344.0 0.0002302 2701.32642 4173.35742
4240.0 0.0002358 2701.60400 4095.33154
4182.0 0.0002391 2701.88184 4017.85913
4058.0 0.0002464 2702.15991 3941.33496
3894.0 0.0002568 2702.43872 3866.22437
3872.0 0.0002583 2702.71753 3792.78467
3758.0 0.0002661 2702.99683 3721.34448
3797.0 0.0002634 2703.27637 3652.20776
3543.0 0.0002822 2703.55640 3585.55518
3504.0 0.0002854 2703.83667 3521.68018
3425.0 0.0002920 2704.11743 3460.72388
3381.0 0.0002958 2704.39844 3402.88135
3398.0 0.0002943 2704.67993 3348.27417
3314.0 0.0003018 2704.96143 3296.99585
3252.0 0.0003075 2705.24365 3249.01685
3213.0 0.0003112 2705.52612 3204.35474
3240.0 0.0003086 2705.80884 3162.89844
3178.0 0.0003147 2706.09204 3124.57080
3176.0 0.0003149 2706.37549 3089.25342
3168.0 0.0003157 2706.65942 3056.80615
3090.0 0.0003236 2706.94336 3027.06763
3078.0 0.0003249 2707.22803 2999.87427
2987.0 0.0003348 2707.51294 2975.08105
2948.0 0.0003392 2707.79810 2952.53516
3004.0 0.0003329 2708.08374 2932.09106
2842.0 0.000352 2708.36963 2913.57861
2948.0 0.0003392 2708.65576 2896.86938
2992.0 0.0003342 2708.94263 2881.80249
2987.0 0.0003348 2709.22974 2868.26733
2901.0 0.0003447 2709.51709 2856.09937
2902.0 0.0003446 2709.80444 2845.19287
2974.0 0.0003362 2710.09277 2835.41992
2896.0 0.0003453 2710.38110 2826.68213
2911.0 0.0003435 2710.66992 2818.86401
2770.0 0.000361 2710.95898 2811.87891
2780.0 0.000360 2711.24854 2805.63599
2867.0 0.0003488 2711.53833 2800.05933
2831.0 0.000353 2711.82813 2795.07349
2821.0 0.000354 2712.11890 2790.61084
2757.0 0.000363 2712.40967 2786.61401
2781.0 0.000360 2712.70093 2783.02856
2799.0 0.000357 2712.99243 2779.80835
2796.0 0.000358 2713.28442 2776.91016
2716.0 0.000368 2713.57666 2774.29565
2758.0 0.000363 2713.86914 2771.93188
2756.0 0.000363 2714.16211 2769.78955
2804.0 0.000357 2714.45557 2767.84229
2880.0 0.0003472 2714.74927 2766.06934
2826.0 0.000354 2715.04321 2764.44800
2701.0 0.000370 2715.33740 2762.96387
2784.0 0.000359 2715.63232 2761.60010
2810.0 0.000356 2715.92749 2760.34424
2792.0 0.000358 2716.22266 2759.18408
2796.0 0.000358 2716.51831 2758.11084
2748.0 0.000364 2716.81445 2757.11646
2795.0 0.000358 2717.11108 2756.19141
2763.0 0.000362 2717.40796 2755.33081
2727.0 0.000367 2717.70508 2754.52954
2830.0 0.000353 2718.00244 2753.78320
2819.0 0.000355 2718.30029 2752.98975
2630.0 0.000380 2718.59863 2752.34033
2714.0 0.000368 2718.89697 2751.73145
2751.0 0.000364 2719.19604 2751.16357
2803.0 0.000357 2719.49536 2750.63306
2804.0 0.000357 2719.79492 2750.13721
2766.0 0.000362 2720.09497 2749.67480
2785.0 0.000359 2720.39526 2749.24316
2748.0 0.000364 2720.69580 2748.84082
2793.0 0.000358 2720.99707 2748.46606
2683.0 0.000373 2721.29810 2748.11841
2636.0 0.000379 2721.59985 2747.79517
2781.0 0.000360 2721.90186 2747.49634
2795.0 0.000358 2722.20435 2747.21875
2735.0 0.000366 2722.50708 2746.96313
2682.0 0.000373 2722.81030 2746.72827
2741.0 0.000365 2723.11353 2746.51416
2808.0 0.000356 2723.41748 2746.31787
2690.0 0.000372 2723.72168 2746.13965
2745.0 0.000364 2724.02637 2745.97803
2783.0 0.000359 2724.33105 2745.83301
2908.0 0.0003439 2724.63623 2745.70337
2890.0 0.0003460 2724.94165 2745.58936
2795.0 0.000358 2725.24756 2745.40820
2658.0 0.000376 2725.55396 2745.32349
2666.0 0.000375 2725.86035 2745.25122
2680.0 0.000373 2726.16748 2745.19263
2615.0 0.000382 2726.47461 2745.14600
2749.0 0.000364 2726.78247 2745.11108
2707.0 0.000369 2727.09009 2745.08740
2663.0 0.000376 2727.39868 2745.07471
2730.0 0.000366 2727.70752 2745.07349
2660.0 0.000376 2728.01660 2745.08130
2716.0 0.000368 2728.32593 2745.09985
2613.0 0.000383 2728.63574 2745.12720
2714.0 0.000368 2728.94556 2745.16431
2680.0 0.000373 2729.25610 2745.21069
2720.0 0.000368 2729.56689 2745.26563
2681.0 0.000373 2729.87793 2745.32886
2722.0 0.000367 2730.18945 2745.39941
2732.0 0.000366 2730.50122 2745.47754
2678.0 0.000373 2730.81348 2745.56445
2783.0 0.000359 2731.12598 2745.65845
2642.0 0.000379 2731.43896 2745.76001
2700.0 0.000370 2731.75195 2745.86768
2704.0 0.000370 2732.06543 2745.98193
2748.0 0.000364 2732.37939 2746.10425
2522.0 0.000397 2732.69360 2746.23145
2691.0 0.000372 2733.00854 2746.36670
2665.0 0.000375 2733.32324 2746.50586
2569.0 0.000389 2733.63843 2746.65259
2698.0 0.000371 2733.95435 2746.80566
2685.0 0.000372 2734.27026 2746.96265
2714.0 0.000368 2734.58643 2747.12598
2706.0 0.000370 2734.90332 2747.29517
2723.0 0.000367 2735.22021 2747.46973
2715.0 0.000368 2735.53760 2747.64917
2683.0 0.000373 2735.85522 2747.83423
2700.0 0.000370 2736.17358 2748.02441
2714.0 0.000368 2736.49194 2748.21948
2655.0 0.000377 2736.81055 2748.41895
2764.0 0.000362 2737.12964 2748.62354
2661.0 0.000376 2737.44946 2748.83374
2809.0 0.000356 2737.76904 2749.05811
2677.0 0.000374 2738.08936 2749.27734
2771.0 0.000361 2738.40967 2749.50171
2751.0 0.000364 2738.73071 2749.73071
2661.0 0.000376 2739.05176 2749.96387
2739.0 0.000365 2739.37329 2750.20215
2670.0 0.000375 2739.69531 2750.44434
2620.0 0.000382 2740.01758 2750.69214
2691.0 0.000372 2740.34009 2750.94409
2694.0 0.000371 2740.66309 2751.20020
2757.0 0.000363 2740.98633 2751.46460
2675.0 0.000374 2741.30981 2751.73022
2711.0 0.000369 2741.63379 2752.00098
2786.0 0.000359 2741.95825 2752.31006
2746.0 0.000364 2742.28296 2752.59058
2759.0 0.000362 2742.60791 2752.87573
2745.0 0.000364 2742.93335 2753.17188
2831.0 0.000353 2743.25879 2753.46680
2764.0 0.000362 2743.58521 2753.76807
2776.0 0.000360 2743.91138 2754.07422
2653.0 0.000377 2744.23828 2754.38623
2751.0 0.000364 2744.56519 2754.70313
2676.0 0.000374 2744.89258 2755.02539
2659.0 0.000376 2745.22046 2755.31470
2714.0 0.000368 2745.54858 2755.65039
2852.0 0.0003506 2745.87720 2755.99365
2666.0 0.000375 2746.20581 2756.34399
2715.0 0.000368 2746.53491 2756.70044
2722.0 0.000367 2746.86450 2757.06592
2665.0 0.000375 2747.19458 2757.45630
2661.0 0.000376 2747.52466 2757.83862
2644.0 0.000378 2747.85498 2758.23340
2639.0 0.000379 2748.18604 2758.63745
2738.0 0.000365 2748.51733 2759.05420
2720.0 0.000368 2748.84888 2759.48608
2740.0 0.000365 2749.18091 2759.93213
2666.0 0.000375 2749.51318 2760.39697
2708.0 0.000369 2749.84570 2760.85010
2735.0 0.000366 2750.17871 2761.35791
2728.0 0.000367 2750.51196 2761.89111
2718.0 0.000368 2750.84546 2762.45483
2736.0 0.000365 2751.17944 2763.05347
2735.0 0.000366 2751.51392 2763.69067
2659.0 0.000376 2751.84863 2764.37134
2636.0 0.000379 2752.18359 2765.10254
2724.0 0.000367 2752.51904 2765.89111
2715.0 0.000368 2752.85449 2766.74609
2714.0 0.000368 2753.19092 2767.67505
2685.0 0.000372 2753.52734 2768.68701
2732.0 0.000366 2753.86377 2769.79126
2787.0 0.000359 2754.20093 2771.00000
2768.0 0.000361 2754.53833 2772.32446
2761.0 0.000362 2754.87646 2773.77734
2597.0 0.000385 2755.21436 2775.37109
2780.0 0.000360 2755.55273 2777.11768
2689.0 0.000372 2755.89160 2779.03223
2727.0 0.000367 2756.23071 2781.12671
2661.0 0.000376 2756.57031 2783.41602
2649.0 0.000378 2756.91016 2785.91260
2723.0 0.000367 2757.25049 2788.62964
2776.0 0.000360 2757.59082 2791.57764
2677.0 0.000374 2757.93164 2794.76733
2693.0 0.000371 2758.27295 2798.20679
2698.0 0.000371 2758.61450 2801.90649
2812.0 0.000356 2758.95630 2805.86768
2658.0 0.000376 2759.29883 2810.09302
2794.0 0.000358 2759.64160 2814.57861
2780.0 0.000360 2759.98413 2819.32275
2816.0 0.000355 2760.32739 2824.31567
2820.0 0.000355 2760.67114 2829.54614
2734.0 0.000366 2761.01514 2835.42480
2757.0 0.000363 2761.35938 2841.06079
2764.0 0.000362 2761.70410 2846.86133
2761.0 0.000362 2762.04883 2852.78638
2698.0 0.000371 2762.39429 2858.80322
2807.0 0.000356 2762.73999 2864.86548
2719.0 0.000368 2763.08618 2870.92896
2746.0 0.000364 2763.43237 2876.94849
2825.0 0.000354 2763.77905 2882.88623
2780.0 0.000360 2764.12622 2888.69678
2682.0 0.000373 2764.47388 2894.34888
2826.0 0.000354 2764.82129 2899.80103
2818.0 0.000355 2765.16943 2905.01758
2849.0 0.000351 2765.51782 2909.96680
2757.0 0.000363 2765.86646 2914.60352
2781.0 0.000360 2766.21558 2918.89307
2706.0 0.000370 2766.56519 2922.78809
2822.0 0.000354 2766.91504 2926.46313
2775.0 0.000360 2767.26514 2929.67847
2705.0 0.000370 2767.61572 2932.14307
2987.0 0.0003348 2767.96631 2934.06274
2872.0 0.0003482 2768.31763 2935.42139
2826.0 0.000354 2768.66919 2936.20947
2828.0 0.000354 2769.02100 2936.42944
2861.0 0.0003495 2769.37305 2936.09399
2848.0 0.000351 2769.72559 2935.22290
2787.0 0.000359 2770.07837 2933.84204
2758.0 0.000363 2770.43188 2931.97974
2827.0 0.000354 2770.78516 2929.66309
2843.0 0.000352 2771.13916 2926.92847
2772.0 0.000361 2771.49316 2923.80200
2899.0 0.0003449 2771.84790 2920.32129
2775.0 0.000360 2772.20264 2916.51318
2841.0 0.000352 2772.55835 2912.41455
2715.0 0.000368 2772.91357 2908.06152
2854.0 0.0003504 2773.26953 2903.61157
2698.0 0.000371 2773.62573 2898.86621
2852.0 0.0003506 2773.98242 2893.98828
2813.0 0.000355 2774.33936 2889.01343
2793.0 0.000358 2774.69678 2883.98779
2616.0 0.000382 2775.05444 2878.94727
2680.0 0.000373 2775.41235 2873.93140
2778.0 0.000360 2775.77051 2868.96973
2696.0 0.000371 2776.12915 2864.09009
2780.0 0.000360 2776.48828 2859.31909
2752.0 0.000363 2776.84766 2854.67920
2764.0 0.000362 2777.20728 2850.19141
2787.0 0.000359 2777.56738 2845.86914
2833.0 0.000353 2777.92749 2841.73169
2766.0 0.000362 2778.28833 2837.78491
2777.0 0.000360 2778.64966 2834.04468
2775.0 0.000360 2779.01074 2830.51758
2746.0 0.000364 2779.37231 2827.20947
2749.0 0.000364 2779.73462 2823.71973
2640.0 0.000379 2780.09692 2820.86011
2726.0 0.000367 2780.45972 2818.22266
2732.0 0.000366 2780.82275 2815.80322
2633.0 0.000380 2781.18628 2813.59961
2696.0 0.000371 2781.55005 2811.60522
2822.0 0.000354 2781.91406 2809.81226
2737.0 0.000365 2782.27832 2808.21045
2710.0 0.000369 2782.64307 2806.79419
2758.0 0.000363 2783.00854 2805.55103
2718.0 0.000368 2783.37378 2804.05811
2749.0 0.000364 2783.73950 2803.14136
2727.0 0.000367 2784.10547 2802.37305
2797.0 0.000358 2784.47217 2801.74146
2714.0 0.000368 2784.83887 2800.37549
2664.0 0.000375 2785.20605 2800.00464
2792.0 0.000358 2785.57373 2799.74731
2686.0 0.000372 2785.94116 2799.59985
2759.0 0.000362 2786.30933 2799.55737
2667.0 0.000375 2786.67798 2799.61230
2740.0 0.000365 2787.04688 2799.76074
2609.0 0.000383 2787.41577 2799.99854
2737.0 0.000365 2787.78540 2800.32178
2744.0 0.000364 2788.15527 2800.72778
2710.0 0.000369 2788.52539 2800.66309
2755.0 0.000363 2788.89600 2801.23022
2710.0 0.000369 2789.26709 2801.87085
2680.0 0.000373 2789.63794 2802.58325
2776.0 0.000360 2790.00952 2803.36255
2667.0 0.000375 2790.38135 2804.20630
2759.0 0.000362 2790.75366 2805.11206
2663.0 0.000376 2791.12598 2806.07471
2799.0 0.000357 2791.49902 2807.08911
2768.0 0.000361 2791.87231 2808.15063
2770.0 0.000361 2792.24585 2809.25122
2749.0 0.000364 2792.61938 2810.38525
2652.0 0.000377 2792.99390 2811.48022
2633.0 0.000380 2793.36841 2812.65552
2744.0 0.000364 2793.74341 2813.83765
2706.0 0.000370 2794.11865 2815.01538
2776.0 0.000360 2794.49390 2816.17554
2756.0 0.000363 2794.86987 2817.30664
2649.0 0.000378 2795.24634 2818.39551
2704.0 0.000370 2795.62305 2819.42969
2674.0 0.000374 2795.99976 2820.39575
2661.0 0.000376 2796.37695 2821.28345
2810.0 0.000356 2796.75464 2822.08252
2772.0 0.000361 2797.13257 2822.78979
2727.0 0.000367 2797.51099 2823.39893
2791.0 0.000358 2797.88965 2823.90918
2736.0 0.000365 2798.26831 2824.32397
2769.0 0.000361 2798.64771 2824.64648
2706.0 0.000370 2799.02734 2824.88452
2784.0 0.000359 2799.40723 2825.04297
2762.0 0.000362 2799.78760 2825.12988
2748.0 0.000364 2800.16797 2825.15356
2821.0 0.000354 2800.54907 2825.11792
2705.0 0.000370 2800.93018 2825.03003
2701.0 0.000370 2801.31177 2824.89307
2781.0 0.000360 2801.69385 2824.71387
2709.0 0.000369 2802.07617 2824.49341
2791.0 0.000358 2802.45874 2824.23560
2787.0 0.000359 2802.84180 2823.94238
2755.0 0.000363 2803.22485 2823.62158
2765.0 0.000362 2803.60864 2823.27637
2680.0 0.000373 2803.99243 2822.91162
2601.0 0.000384 2804.37671 2822.53491
2787.0 0.000359 2804.76123 2822.15186
2785.0 0.000359 2805.14624 2821.77002
2740.0 0.000365 2805.53149 2821.39502
2696.0 0.000371 2805.91724 2821.03223
2633.0 0.000380 2806.30347 2820.69092
2745.0 0.000364 2806.68970 2820.37036
2784.0 0.000359 2807.07617 2820.07544
2744.0 0.000364 2807.46313 2819.81201
2743.0 0.000365 2807.85034 2819.58032
2728.0 0.000367 2808.23804 2819.38281
2696.0 0.000371 2808.62622 2819.22168
2696.0 0.000371 2809.01440 2819.09546
2774.0 0.000360 2809.40308 2819.00635
2805.0 0.000357 2809.79199 2818.95288
2688.0 0.000372 2810.18115 2818.93604
2682.0 0.000373 2810.57080 2818.96118
2712.0 0.000369 2810.96069 2819.01392
2780.0 0.000360 2811.35107 2819.09814
2642.0 0.000379 2811.74146 2819.21313
2773.0 0.000361 2812.13257 2819.35864
2747.0 0.000364 2812.52393 2819.53174
2712.0 0.000369 2812.91577 2819.73169
2703.0 0.000370 2813.30762 2819.95557
2663.0 0.000376 2813.69995 2820.20264
2572.0 0.000389 2814.09229 2820.46924
2752.0 0.000363 2814.48560 2820.75513
2588.0 0.000386 2814.87891 2821.05908
2680.0 0.000373 2815.27246 2821.37817
2766.0 0.000362 2815.66626 2821.71265
2673.0 0.000374 2816.06055 2822.05957
2756.0 0.000363 2816.45508 2822.41821
2814.0 0.000355 2816.85010 2822.78784
2755.0 0.000363 2817.24536 2823.16528
2761.0 0.000362 2817.64111 2823.55737
2748.0 0.000364 2818.03711 2823.95264
2709.0 0.000369 2818.43311 2824.35474
2758.0 0.000363 2818.82959 2824.76294
2780.0 0.000360 2819.22681 2825.17700
2696.0 0.000371 2819.62427 2825.59766
2825.0 0.000354 2820.02173 2826.02197
2687.0 0.000372 2820.41943 2826.45142
2693.0 0.000371 2820.81763 2826.88501
2682.0 0.000373 2821.21631 2827.32275
2693.0 0.000371 2821.61548 2827.76440
2741.0 0.000365 2822.01465 2828.21094
2690.0 0.000372 2822.41431 2828.66064
2621.0 0.000382 2822.81372 2829.11353
2607.0 0.000384 2823.21436 2829.57056
2703.0 0.000370 2823.61499 2830.03003
2798.0 0.000357 2824.01587 2830.49512
2674.0 0.000374 2824.41675 2830.96143
2663.0 0.000376 2824.81836 2831.43384
2774.0 0.000360 2825.22046 2831.90820
2742.0 0.000365 2825.62280 2832.38867
2645.0 0.000378 2826.02539 2832.87207
2685.0 0.000372 2826.42798 2833.35889
2657.0 0.000376 2826.83105 2833.85059
2706.0 0.000370 2827.23486 2834.34741
2805.0 0.000357 2827.63867 2834.84888
2700.0 0.000370 2828.04297 2835.35571
2659.0 0.000376 2828.44727 2835.86914
2717.0 0.000368 2828.85205 2836.38672
2648.0 0.000378 2829.25757 2836.91211
2724.0 0.000367 2829.66260 2837.44360
2750.0 0.000364 2830.06860 2837.98511
2654.0 0.000377 2830.47485 2838.53418
2711.0 0.000369 2830.88135 2839.09424
2732.0 0.000366 2831.28809 2839.66431
2722.0 0.000367 2831.69531 2840.24780
2637.0 0.000379 2832.10278 2840.84546
2688.0 0.000372 2832.51074 2841.45972
2770.0 0.000361 2832.91895 2842.09155
2682.0 0.000373 2833.32739 2842.74561
2683.0 0.000373 2833.73608 2843.42310
2648.0 0.000378 2834.14526 2844.12622
2603.0 0.000384 2834.55444 2844.85986
2782.0 0.000359 2834.96436 2845.62842
2613.0 0.000383 2835.37476 2846.43579
2747.0 0.000364 2835.78491 2847.28662
2717.0 0.000368 2836.19556 2848.18408
2770.0 0.000361 2836.60669 2849.13550
2754.0 0.000363 2837.01831 2850.14551
2671.0 0.000374 2837.42993 2851.22021
2687.0 0.000372 2837.84180 2852.36768
2712.0 0.000369 2838.25415 2853.58813
2672.0 0.000374 2838.66724 2854.89160
2716.0 0.000368 2839.07983 2856.28149
2749.0 0.000364 2839.49341 2857.76660
2701.0 0.000370 2839.90698 2859.34863
2727.0 0.000367 2840.32129 2861.03369
2759.0 0.000362 2840.73560 2862.82422
2761.0 0.000362 2841.14990 2864.72339
2719.0 0.000368 2841.56494 2866.73462
2694.0 0.000371 2841.98047 2868.86914
2735.0 0.000366 2842.39624 2871.10254
2664.0 0.000375 2842.81201 2873.44409
2676.0 0.000374 2843.22852 2875.89233
2759.0 0.000362 2843.64502 2878.43823
2706.0 0.000370 2844.06201 2881.07935
2642.0 0.000379 2844.47949 2883.80200
2728.0 0.000367 2844.89722 2886.59912
2868.0 0.0003487 2845.31470 2889.45288
2853.0 0.0003505 2845.73315 2892.35083
2735.0 0.000366 2846.15161 2895.27148
2693.0 0.000371 2846.57080 2898.19897
2737.0 0.000365 2846.98999 2901.10840
2714.0 0.000368 2847.40918 2903.97559
2706.0 0.000370 2847.82910 2906.77856
2740.0 0.000365 2848.24927 2909.48901
2690.0 0.000372 2848.66992 2912.08350
2617.0 0.000382 2849.09082 2914.54004
2722.0 0.000367 2849.51221 2916.84253
2744.0 0.000364 2849.93359 2918.96533
2717.0 0.000368 2850.35547 2920.90356
2763.0 0.000362 2850.77734 2922.64990
2812.0 0.000356 2851.19995 2924.20435
2743.0 0.000365 2851.62280 2925.56934
2754.0 0.000363 2852.04590 2926.75098
2764.0 0.000362 2852.46924 2927.75830
2702.0 0.000370 2852.89307 2928.59961
2809.0 0.000356 2853.31689 2929.28320
2715.0 0.000368 2853.74170 2929.81616
2741.0 0.000365 2854.16626 2930.20557
2764.0 0.000362 2854.59106 2930.45459
2822.0 0.000354 2855.01685 2930.56812
2754.0 0.000363 2855.44214 2930.55054
2877.0 0.0003476 2855.86841 2930.40356
2769.0 0.000361 2856.29468 2930.13306
2780.0 0.000360 2856.72144 2929.74658
2762.0 0.000362 2857.14819 2929.25415
2698.0 0.000371 2857.57568 2928.66992
2789.0 0.000359 2858.00317 2928.00757
2783.0 0.000359 2858.43140 2927.28589
2697.0 0.000371 2858.85962 2926.52563
2723.0 0.000367 2859.28833 2925.74536
2857.0 0.0003500 2859.71704 2924.96899
2777.0 0.000360 2860.14600 2924.21484
2877.0 0.0003476 2860.57593 2923.50317
2774.0 0.000360 2861.00562 2922.85278
2808.0 0.000356 2861.43628 2922.28418
2725.0 0.000367 2861.86646 2921.81396
2773.0 0.000361 2862.29736 2921.45947
2762.0 0.000362 2862.72852 2921.23901
2809.0 0.000356 2863.16016 2921.17285
2737.0 0.000365 2863.59204 2921.28174
2689.0 0.000372 2864.02417 2921.58691
2899.0 0.0003449 2864.45630 2922.11450
2777.0 0.000360 2864.88916 2922.89087
2764.0 0.000362 2865.32227 2923.94702
2702.0 0.000370 2865.75562 2925.31641
2727.0 0.000367 2866.18970 2927.03760
2805.0 0.000357 2866.62354 2929.14868
2829.0 0.000353 2867.05786 2931.69556
2883.0 0.0003469 2867.49243 2934.72583
2724.0 0.000367 2867.92749 2938.29663
2799.0 0.000357 2868.36279 2942.46094
2792.0 0.000358 2868.79858 2947.28247
2846.0 0.000351 2869.23438 2952.82129
2905.0 0.0003442 2869.67090 2959.15332
2886.0 0.0003465 2870.10718 2966.34375
2765.0 0.000362 2870.54419 2974.47559
2813.0 0.000355 2870.98145 2983.62158
2804.0 0.000357 2871.41919 2993.85986
2774.0 0.000360 2871.85693 3005.26221
2895.0 0.0003454 2872.29517 3017.91504
2829.0 0.000353 2872.73364 3031.88013
2933.0 0.0003409 2873.17261 3047.24048
3000.0 0.0003333 2873.61182 3064.04810
2902.0 0.0003446 2874.05103 3082.35083
2965.0 0.0003373 2874.49097 3102.20801
2961.0 0.0003377 2874.93091 3123.63330
2958.0 0.0003381 2875.37134 3146.66138
2995.0 0.0003339 2875.81226 3171.28320
3083.0 0.0003244 2876.25366 3197.48047
3054.0 0.0003274 2876.69458 3225.19946
3158.0 0.0003167 2877.13647 3254.40381
3106.0 0.0003220 2877.57813 3284.97852
3162.0 0.0003163 2878.02075 3316.83862
3249.0 0.0003078 2878.46338 3349.79199
3330.0 0.0003003 2878.90625 3383.74023
3238.0 0.0003088 2879.34961 3418.42993
3342.0 0.0002992 2879.79297 3453.64819
3351.0 0.0002984 2880.23706 3489.16162
3436.0 0.0002910 2880.68115 3524.67358
3416.0 0.0002927 2881.12598 3559.89136
3499.0 0.0002858 2881.57080 3594.49292
3475.0 0.0002878 2882.01611 3628.20093
3726.0 0.0002684 2882.46118 3660.67505
3627.0 0.0002757 2882.90698 3691.64844
3706.0 0.0002698 2883.35352 3720.81445
3715.0 0.0002692 2883.80005 3747.90039
3705.0 0.0002699 2884.24658 3772.63818
3846.0 0.0002600 2884.69360 3794.81128
3758.0 0.0002661 2885.14087 3814.15918
3858.0 0.0002592 2885.58887 3830.54395
3970.0 0.0002519 2886.03662 3843.76660
3990.0 0.0002506 2886.48535 3853.68555
4023.0 0.0002486 2886.93384 3860.24072
4015.0 0.0002491 2887.38257 3863.39111
3937.0 0.0002540 2887.83179 3863.15527
4079.0 0.0002452 2888.28149 3859.60669
4117.0 0.0002429 2888.73145 3852.85205
4025.0 0.0002484 2889.18164 3843.09546
4080.0 0.0002451 2889.63208 3830.51025
4027.0 0.0002483 2890.08276 3815.32642
4068.0 0.0002458 2890.53394 3797.75830
3937.0 0.0002540 2890.98560 3778.04492
3837.0 0.0002606 2891.43750 3756.41309
3867.0 0.0002586 2891.88940 3733.08887
3864.0 0.0002588 2892.34204 3708.25244
3749.0 0.0002667 2892.79468 3682.11621
3708.0 0.0002697 2893.24756 3654.78247
3625.0 0.0002759 2893.70117 3626.52710
3616.0 0.0002765 2894.15479 3597.48120
3575.0 0.0002797 2894.60864 3567.77612
3532.0 . . .
loop_
_refln_index_h
_refln_index_k
_refln_index_l
_pd_refln_wavelength_id
_refln_observed_status
_refln_F_squared_meas
_refln_F_squared_calc
_refln_phase_calc
_refln_d_spacing
_gsas_i100_meas
0 0 2 1 o 6364.542 628.113 0.00 5.69868 5.23
0 0 2 2 o 6450.648 628.113 0.00 5.69868 2.63
1 0 1 1 o 3589.072 807.597 -180.00 5.10878 9.70
1 0 1 2 o 3627.333 807.597 -180.00 5.10878 4.87
1 1 0 1 o 2822.893 1362.916 0.00 4.04117 2.56
1 1 0 2 o 2029.093 1362.916 0.00 4.04117 0.96
1 1 2 1 o 102678.98 104054.23 -45.59 3.29644 100.00
1 1 2 2 o 102980.49 104054.23 -45.59 3.29644 49.91
1 0 3 1 o 445.645 1703.745 180.00 3.16385 0.75
1 0 3 2 o 463.811 1703.745 180.00 3.16385 0.38
0 0 4 1 o -59.102 12.486 180.00 2.84934 0.00
0 0 4 2 o -59.102 12.486 180.00 2.84934 0.00
2 0 0 1 o -62.222 15.028 180.00 2.85754 0.00
2 0 0 2 o -62.222 15.028 180.00 2.85754 0.00
2 0 2 1 o -444.933 1724.235 0.00 2.55439 0.00
2 0 2 2 o -444.933 1724.235 0.00 2.55439 0.00
2 1 1 1 o -285.479 1576.895 -159.33 2.49392 0.00
2 1 1 2 o -267.275 1576.895 -159.33 2.49392 0.01
1 1 4 1 o -314.906 1263.216 37.35 2.32870 0.00
1 1 4 2 o -314.906 1263.216 37.35 2.32870 0.00
1 0 5 1 o -261.420 1140.454 180.00 2.11727 0.00
1 0 5 2 o -261.420 1140.454 180.00 2.11727 0.00
2 1 3 1 o -195.625 602.973 -152.30 2.12063 0.00
2 1 3 2 o -195.625 602.973 -152.30 2.12063 0.00
2 0 4 1 o 129944.14 127741.15 0.00 2.01768 47.54
2 0 4 2 o 130045.57 127741.15 0.00 2.01768 23.68
2 2 0 1 o 130226.24 128188.37 0.00 2.02059 23.89
2 2 0 2 o 131327.22 128188.37 0.00 2.02059 12.00
0 0 6 1 o 2447.423 2857.599 0.00 1.89956 0.26
0 0 6 2 o 3263.745 2857.599 0.00 1.89956 0.16
2 2 2 1 o 171.521 243.619 -5.68 1.90442 0.14
2 2 2 2 o 170.541 243.619 -5.68 1.90442 0.07
3 0 1 1 o 2407.672 1892.960 180.00 1.87896 0.92
3 0 1 2 o 2866.625 1892.960 180.00 1.87896 0.54
3 1 0 1 o 452.129 522.188 0.00 1.80727 0.23
3 1 0 2 o 426.009 522.188 0.00 1.80727 0.11
1 1 6 1 o 51148.38 49780.23 45.72 1.71911 13.72
1 1 6 2 o 50151.47 49780.23 45.72 1.71911 6.68
3 1 2 1 o 52148.05 50116.68 45.80 1.72271 28.11
3 1 2 2 o 51233.26 50116.68 45.80 1.72271 13.72
3 0 3 1 o 44.434 62.863 180.00 1.70293 0.04
2 1 5 1 o 471.895 570.372 149.76 1.70119 0.36
3 0 3 2 o 44.162 62.863 180.00 1.70293 0.02
2 1 5 2 o 498.465 570.372 149.76 1.70119 0.19
2 2 4 2 o -56.748 22.138 178.17 1.64822 0.00
2 2 4 1 o -56.748 22.138 178.17 1.64822 0.00
2 0 6 1 o -26.658 11.006 180.00 1.58192 0.00
2 0 6 2 o -26.658 11.006 180.00 1.58192 0.00
1 0 7 1 o -151.028 323.746 180.00 1.56589 0.00
1 0 7 2 o -151.028 323.746 180.00 1.56589 0.00
3 2 1 1 o -99.539 191.475 132.90 1.56997 0.00
3 2 1 2 o -99.539 191.475 132.90 1.56997 0.00
3 1 4 1 o -220.356 705.100 -36.36 1.52616 0.00
3 1 4 2 o -220.356 705.100 -36.36 1.52616 0.00
3 2 3 1 o 1307.227 1486.956 167.36 1.46286 0.65
3 0 5 1 o 91.978 115.276 180.00 1.46176 0.04
3 2 3 2 o 1379.930 1486.956 167.36 1.46286 0.34
3 0 5 2 o 113.349 115.276 180.00 1.46176 0.02
0 0 8 1 o 71187.84 67984.98 0.00 1.42467 3.37
0 0 8 2 o 73811.90 67984.98 0.00 1.42467 1.75
4 0 0 1 o 74037.63 68865.91 0.00 1.42877 7.06
4 0 0 2 o 71501.79 68865.91 0.00 1.42877 3.39
4 0 2 1 o 79.153 125.209 0.00 1.38588 0.04
2 2 6 1 o 1320.538 1568.803 1.67 1.38400 0.32
4 0 2 2 o 106.693 125.209 0.00 1.38588 0.02
2 2 6 2 o 1572.188 1568.803 1.67 1.38400 0.18
2 1 7 1 o 733.068 755.410 165.49 1.37322 0.35
2 1 7 2 o 908.642 755.410 165.49 1.37322 0.21
4 1 1 1 o 594.508 619.893 134.31 1.37597 0.28
4 1 1 2 o 601.838 619.893 134.31 1.37597 0.14
3 3 0 1 o 695.891 406.813 0.00 1.34706 0.08
3 3 0 2 o 551.718 406.813 0.00 1.34706 0.04
1 1 8 1 o 1414.306 1080.552 -57.11 1.34362 0.29
1 1 8 2 o 1749.286 1080.552 -57.11 1.34362 0.18
3 1 6 2 o 30769.594 27646.725 -46.64 1.30934 5.06
3 3 2 1 o 32207.834 27824.268 -46.72 1.31093 5.34
3 1 6 1 o 31635.357 27646.725 -46.64 1.30934 10.46
3 3 2 2 o 31217.986 27824.268 -46.72 1.31093 2.57
4 1 3 1 o 956.587 840.326 149.12 1.30215 0.39
3 2 5 1 o 1215.750 1040.443 -163.59 1.30137 0.49
4 1 3 2 o 1112.187 840.326 149.12 1.30215 0.22
3 2 5 2 o 1468.685 1040.443 -163.59 1.30137 0.29
4 0 4 1 o 268.922 48.931 180.00 1.27719 0.06
2 0 8 1 o 276.159 41.866 180.00 1.27499 0.06
4 0 4 2 o 335.517 48.931 180.00 1.27719 0.03
2 0 8 2 o 401.752 41.866 180.00 1.27499 0.04
4 2 0 1 o 274.002 51.388 180.00 1.27793 0.06
4 2 0 2 o 319.015 51.388 180.00 1.27793 0.03
4 2 2 1 o 1080.518 491.238 5.29 1.24696 0.43
4 2 2 2 o 957.288 491.238 5.29 1.24696 0.19
3 0 7 1 o 2145.481 1090.242 180.00 1.23772 0.38
1 0 9 1 o 728.753 281.168 180.00 1.23638 0.14
3 0 7 2 o 3351.023 1090.242 180.00 1.23772 0.29
1 0 9 2 o 1391.820 281.168 180.00 1.23638 0.12
3 3 4 1 o 2090.500 316.441 42.64 1.21782 0.36
3 3 4 2 o 2321.745 316.441 42.64 1.21782 0.20
4 1 5 1 o 1758.464 733.946 -143.37 1.18433 0.58
4 1 5 2 o 1716.186 733.946 -143.37 1.18433 0.28
4 2 4 1 o 47835.04 39601.00 -0.06 1.16603 13.33
2 2 8 1 o 46800.62 39233.96 -0.06 1.16435 6.50
4 2 4 2 o 46760.92 39601.00 -0.06 1.16603 6.48
2 2 8 2 o 46680.34 39233.96 -0.06 1.16435 3.23
0 0 10 1 o 221.746 192.657 180.00 1.13974 0.00
0 0 10 2 o 223.432 192.657 180.00 1.13974 0.00
4 0 6 1 o 1340.676 916.742 0.00 1.14183 0.23
4 0 6 2 o 1200.605 916.742 0.00 1.14183 0.10
4 3 1 1 o 1227.675 951.773 -153.52 1.13731 0.39
5 0 1 1 o 12.120 2.278 -180.00 1.13731 0.01
2 1 9 2 o 943.382 479.593 -158.00 1.13472 0.15
3 2 7 1 o 105.928 64.613 -138.59 1.13576 0.05
2 1 9 1 o 725.749 479.593 -158.00 1.13472 0.24
4 3 1 2 o 1408.211 951.773 -153.52 1.13731 0.22
5 0 1 2 o 18.561 2.278 -180.00 1.13731 0.00
3 2 7 2 o 139.666 64.613 -138.59 1.13576 0.03
3 1 8 1 o 922.652 616.944 59.27 1.11884 0.29
3 1 8 2 o 884.683 616.944 59.27 1.11884 0.14
5 1 0 1 o 462.926 209.449 0.00 1.12082 0.09
5 1 0 2 o 336.492 209.449 0.00 1.12082 0.03
3 3 6 1 o 17772.904 16305.197 47.20 1.09881 2.28
1 1 10 1 o 17404.721 16035.099 -47.15 1.09694 2.23
3 3 6 2 o 17630.287 16305.197 47.20 1.09881 1.13
5 1 2 1 o 17807.078 16339.904 -47.41 1.09975 4.58
1 1 10 2 o 17167.242 16035.099 -47.15 1.09694 1.10
5 1 2 2 o 17730.803 16339.904 -47.41 1.09975 2.27
5 0 3 2 o 1324.020 1171.561 -180.00 1.09455 0.10
4 3 3 2 o 208.889 181.686 -121.14 1.09455 0.04
5 0 3 1 o 1272.896 1171.561 -180.00 1.09455 0.20
4 3 3 1 o 199.767 181.686 -121.14 1.09455 0.07
2 0 10 1 o -220.133 1331.260 0.00 1.05864 0.00
2 0 10 2 o -220.133 1331.260 0.00 1.05864 0.00
4 2 6 1 o -14.347 8.529 -147.17 1.06032 0.00
4 1 7 1 o -71.491 256.190 -143.68 1.05545 0.00
3 0 9 1 o -103.829 523.874 180.00 1.05462 0.00
4 2 6 2 o -14.347 8.529 -147.17 1.06032 0.00
4 1 7 2 o -71.491 256.190 -143.68 1.05545 0.00
5 2 1 1 o -113.161 989.186 -168.96 1.05669 0.00
3 0 9 2 o -103.829 523.874 180.00 1.05462 0.00
5 2 1 2 o -113.161 989.186 -168.96 1.05669 0.00
5 1 4 2 o -99.084 203.794 41.11 1.04303 0.00
5 1 4 1 o -99.084 203.794 41.11 1.04303 0.00
1 0 11 1 o -89.500 367.917 180.00 1.01950 0.00
5 2 3 1 o -22.569 25.887 -96.22 1.02213 0.00
5 0 5 1 o -103.883 768.975 180.00 1.02176 0.00
4 3 5 1 o -47.306 232.205 124.10 1.02176 0.00
1 0 11 2 o -89.500 367.917 180.00 1.01950 0.00
5 2 3 2 o -22.569 25.887 -96.22 1.02213 0.00
4 3 5 2 o -47.306 232.205 124.10 1.02176 0.00
5 0 5 2 o -103.883 768.975 180.00 1.02176 0.00
4 0 8 1 o 17545.512 23542.674 0.00 1.00884 1.99
4 0 8 2 o 18061.445 23542.674 0.00 1.00884 1.03
4 4 0 1 o 14681.868 23828.885 0.00 1.01029 0.80
4 4 0 2 o 19646.371 23828.885 0.00 1.01029 0.57
