#------------------------------------------------------------------------------
#$Date: 2015-10-07 23:50:44 +0300 (Wed, 07 Oct 2015) $
#$Revision: 160942 $
#$URL: svn://www.crystallography.net/cod/cif/7/03/67/7036770.cif $
#------------------------------------------------------------------------------
#
# This file is available in the Crystallography Open Database (COD),
# http://www.crystallography.net/
#
# All data on this site have been placed in the public domain by the
# contributors.
#
data_7036770
loop_
_publ_author_name
'Zimmermann, Iwan'
'Corgnet, Alexis'
'Johnsson, Mats'
'Lidin, Sven'
_publ_section_title
;
 Synthesis and crystal structure of a series of incommensurately modulated
 composite oxohalide compounds.
;
_journal_name_full
'Dalton transactions (Cambridge, England : 2003)'
_journal_paper_doi               10.1039/c4dt02084g
_journal_year                    2014
_chemical_formula_sum            'I4 O8 Sb4 Zn3.682'
_chemical_formula_weight         1363.3
_chemical_name_systematic        ' ?'
_space_group_IT_number           4
_space_group_ssg_name            P21(\a0\g)0
_symmetry_cell_setting           monoclinic
_symmetry_space_group_name_Hall  'P 2yb'
_symmetry_space_group_name_H-M   'P 1 21 1'
_cell_angle_alpha                90
_cell_angle_beta                 90.054(13)
_cell_angle_gamma                90
_cell_formula_units_Z            2
_cell_length_a                   4.2710(8)
_cell_length_b                   18.508(3)
_cell_length_c                   10.6741(14)
_cell_measurement_reflns_used    1987
_cell_measurement_temperature    293
_cell_measurement_theta_max      28.84
_cell_measurement_theta_min      2.44
_cell_modulation_dimension       1
_cell_subsystems_number          2
_cell_volume                     843.8(2)
_computing_cell_refinement
;
CrysAlisPro, Agilent Technologies,
Version 1.171.35.19 (release 27-10-2011 CrysAlis171 .NET)
(compiled Oct 27 2011,15:02:11)
;
_computing_data_collection
;
CrysAlisPro, Agilent Technologies,
Version 1.171.35.19 (release 27-10-2011 CrysAlis171 .NET)
(compiled Oct 27 2011,15:02:11)
;
_computing_data_reduction
;
CrysAlisPro, Agilent Technologies,
Version 1.171.35.19 (release 27-10-2011 CrysAlis171 .NET)
(compiled Oct 27 2011,15:02:11)
;
_diffrn_ambient_temperature      293
_diffrn_detector_area_resol_mean 16.1829
_diffrn_measured_fraction_theta_full 0.98
_diffrn_measured_fraction_theta_max 0.84
_diffrn_measurement_device       'four-cycle diffractometer'
_diffrn_measurement_device_type  'Xcalibur, Sapphire3'
_diffrn_measurement_method       '\w scans'
_diffrn_radiation_monochromator  graphite
_diffrn_radiation_source         'Enhance (Mo) X-ray Source'
_diffrn_radiation_type           'Mo K\a'
_diffrn_radiation_wavelength     0.7107
_diffrn_reflns_av_R_equivalents  0.0701
_diffrn_reflns_av_sigmaI/netI    0.1615
_diffrn_reflns_limit_h_max       5
_diffrn_reflns_limit_h_min       -2
_diffrn_reflns_limit_index_m_1_max 2
_diffrn_reflns_limit_index_m_1_min -2
_diffrn_reflns_limit_k_max       25
_diffrn_reflns_limit_k_min       -24
_diffrn_reflns_limit_l_max       14
_diffrn_reflns_limit_l_min       -14
_diffrn_reflns_number            24830
_diffrn_reflns_theta_full        17.18
_diffrn_reflns_theta_max         28.88
_diffrn_reflns_theta_min         2.45
_exptl_absorpt_coefficient_mu    18.782
_exptl_absorpt_correction_T_max  1
_exptl_absorpt_correction_T_min  0.204
_exptl_absorpt_correction_type   multi-scan
_exptl_absorpt_process_details
;
CrysAlisPro, Agilent Technologies,
Version 1.171.35.19 (release 27-10-2011 CrysAlis171 .NET)
(compiled Oct 27 2011,15:02:11)
Empirical absorption correction using spherical harmonics,
 implemented in SCALE3 ABSPACK scaling algorithm.
;
_exptl_crystal_density_diffrn    5.3644
_exptl_crystal_F_000             1176
_refine_diff_density_max         4.23
_refine_diff_density_min         -4.84
_refine_ls_extinction_method     none
_refine_ls_goodness_of_fit_gt    1.51
_refine_ls_goodness_of_fit_ref   1.12
_refine_ls_number_constraints    9
_refine_ls_number_parameters     361
_refine_ls_number_reflns         16749
_refine_ls_number_restraints     0
_refine_ls_R_factor_all          0.2432
_refine_ls_R_factor_gt           0.0729
_refine_ls_shift/su_max          0.0497
_refine_ls_shift/su_mean         0.0097
_refine_ls_structure_factor_coef F
_refine_ls_weighting_details     w=1/(\s^2^(F)+0.0001F^2^)
_refine_ls_weighting_scheme      sigma
_refine_ls_wR_factor_gt          0.0711
_refine_ls_wR_factor_ref         0.1082
_reflns_number_gt                4073
_reflns_number_total             16749
_reflns_threshold_expression     I>3\s(I)
_cod_data_source_file            c4dt02084g6.cif
_cod_data_source_block           I
_cod_database_code               7036770
loop_
_space_group_symop_id
_space_group_symop_operation_xyz
1 x,y,z
2 -x,y+0.5,-z
loop_
_space_group_symop_ssg_id
_space_group_symop_ssg_operation_algebraic
1 x1,x2,x3,x4
2 -x1,x2+1/2,-x3,-x4
loop_
_atom_site_label
_atom_site_type_symbol
_atom_site_fract_x
_atom_site_fract_y
_atom_site_fract_z
_atom_site_adp_type
_atom_site_U_iso_or_equiv
_atom_site_symmetry_multiplicity
_atom_site_occupancy
_atom_site_calc_flag
_atom_site_subsystem_code
I1 I 1.0018(5) 0.2089(2) 0.14185(18) Uani 0.0275(7) 2 1 d 1
I2 I 0.4945(6) -0.1369(2) -0.3674(2) Uani 0.0316(7) 2 1 d 1
Sb1 Sb 0.5017(6) 0.055143 0.04537(18) Uani 0.0287(7) 2 1 d 1
I3 I 0.4959(4) 0.3379(2) -0.13095(19) Uani 0.0233(6) 2 1 d 1
Sb2 Sb 1.0095(5) -0.0557(2) -0.12595(18) Uani 0.0252(7) 2 1 d 1
I4 I 1.0015(5) -0.0056(2) -0.64147(18) Uani 0.0291(7) 2 1 d 1
Sb3 Sb 0.4995(6) 0.15087(9) -0.53831(17) Uani 0.0281(7) 2 1 d 1
Sb4 Sb 0.0093(5) 0.2613(2) -0.37095(18) Uani 0.0221(6) 2 1 d 1
O1 O 0.975(4) 0.0138(10) -0.2651(14) Uiso 0.0174(11) 2 1 d 1
O2 O 0.494(4) 0.0782(10) -0.3981(14) Uiso 0.0174(11) 2 1 d 1
O3 O -0.018(4) 0.1920(10) -0.2293(14) Uiso 0.0174(11) 2 1 d 1
O4 O 1.030(4) 0.0203(9) -0.0053(13) Uiso 0.0174(11) 2 1 d 1
O5 O 0.509(5) -0.0224(11) -0.0819(17) Uiso 0.0174(11) 2 0.807(18) d 1
O6 O 0.018(5) 0.1704(11) -0.4938(16) Uiso 0.0174(11) 2 0.883(18) d 1
O7 O 0.499(4) 0.2274(9) -0.3999(14) Uiso 0.0174(11) 2 1 d 1
O8 O 0.472(4) 0.1269(10) -0.0840(14) Uiso 0.0174(11) 2 1 d 1
Zn1 Zn 0.0821(11) 0.2157(3) -0.0741(3) Uani 0.0224(11) 2 1 d 2
Zn2 Zn 0.5051(16) 0.1024(3) -0.2479(4) Uani 0.0221(7) 2 1 d 2
Zn3 Zn 0.9197(12) -0.0088(3) -0.4191(3) Uani 0.0301(13) 2 1 d 2
loop_
_atom_site_aniso_label
_atom_site_aniso_type_symbol
_atom_site_aniso_U_11
_atom_site_aniso_U_22
_atom_site_aniso_U_33
_atom_site_aniso_U_12
_atom_site_aniso_U_13
_atom_site_aniso_U_23
I1 I 0.0254(10) 0.0352(16) 0.0218(10) -0.0002(11) -0.0001(9) -0.0016(10)
I2 I 0.0440(13) 0.0144(12) 0.0365(12) 0.0019(10) -0.0004(12) -0.0012(10)
Sb1 Sb 0.0355(14) 0.0246(13) 0.0259(11) 0.0012(11) -0.0025(11) 0.0098(10)
I3 I 0.0127(9) 0.0218(12) 0.0352(12) -0.0017(9) 0.0044(9) -0.0034(9)
Sb2 Sb 0.0422(13) 0.0144(12) 0.0192(10) 0.0039(11) -0.0015(11) 0.0036(9)
I4 I 0.0333(12) 0.0363(16) 0.0177(10) -0.0018(12) 0.0026(9) -0.0040(10)
Sb3 Sb 0.0458(15) 0.0235(13) 0.0149(9) 0.0004(12) -0.0002(11) 0.0005(9)
Sb4 Sb 0.0310(11) 0.0140(12) 0.0213(10) -0.0002(9) 0.0012(10) -0.0003(9)
Zn1 Zn 0.0051(18) 0.031(2) 0.0281(16) 0.0047(17) -0.0069(14) -0.0022(15)
Zn2 Zn 0.0216(14) 0.0221(10) 0.0234(10) -0.0002(11) 0.0061(10) -0.0065(8)
Zn3 Zn 0.064(3) 0.0107(16) 0.0163(14) -0.0038(19) 0.0092(16) -0.0052(13)
loop_
_atom_site_displace_Fourier_atom_site_label
_atom_site_displace_Fourier_axis
_atom_site_displace_Fourier_wave_vector_seq_id
_atom_site_displace_Fourier_param_cos
_atom_site_displace_Fourier_param_sin
I1 x 1 -0.0331(6) 0.0124(7)
I1 y 1 0.00051(19) -0.00340(18)
I1 z 1 0.0100(2) 0.0210(2)
I1 x 2 -0.0016(7) -0.0025(7)
I1 y 2 -0.00043(18) 0.00126(18)
I1 z 2 -0.0010(3) 0.0012(2)
I2 x 1 -0.0083(7) -0.0443(8)
I2 y 1 0.00994(17) -0.00459(16)
I2 z 1 -0.0102(3) 0.0045(3)
I2 x 2 -0.0044(8) -0.0070(8)
I2 y 2 -0.00065(18) 0.00044(18)
I2 z 2 -0.0014(3) 0.0039(3)
Sb1 x 1 0.0102 0.0016(8)
Sb1 y 1 0.00520(18) 0.00362(17)
Sb1 z 1 0.0163(3) 0.0123(3)
Sb1 x 2 0.0106(7) -0.0029(7)
Sb1 y 2 0.00113(18) 0.00036(18)
Sb1 z 2 -0.0011(3) 0.0081(3)
I3 x 1 0.0155(6) -0.0484(6)
I3 y 1 -0.01003(18) -0.00529(16)
I3 z 1 0.0112(3) 0.0056(3)
I3 x 2 -0.0005(6) 0.0050(6)
I3 y 2 0.00083(17) 0.00162(17)
I3 z 2 0.0006(3) 0.0043(3)
Sb2 x 1 -0.0052(7) -0.0339(8)
Sb2 y 1 0.00475(16) 0.00203(16)
Sb2 z 1 0.0046(2) 0.0036(2)
Sb2 x 2 0.0066(7) 0.0043(7)
Sb2 y 2 -0.00255(16) 0.00019(16)
Sb2 z 2 -0.0004(2) 0.0017(2)
I4 x 1 0.0315(7) 0.0081(7)
I4 y 1 -0.00113(19) -0.00390(19)
I4 z 1 -0.0121(2) 0.0222(2)
I4 x 2 -0.0080(7) 0.0009(7)
I4 y 2 0.00033(18) 0.00181(18)
I4 z 2 0.0017(3) 0.0018(2)
Sb3 x 1 -0.0033(6) 0.0071(8)
Sb3 y 1 -0.00222(17) 0.00125(16)
Sb3 z 1 -0.0090(2) 0.0071(2)
Sb3 x 2 -0.0009(8) 0.0061(7)
Sb3 y 2 0.00016(17) -0.00035(17)
Sb3 z 2 -0.0002(2) 0.0029(2)
Sb4 x 1 -0.0351(7) -0.0163(7)
Sb4 y 1 -0.00685(17) 0.00295(16)
Sb4 z 1 -0.0060(2) 0.0015(2)
Sb4 x 2 0.0126(7) -0.0193(7)
Sb4 y 2 0.00043(17) -0.00322(16)
Sb4 z 2 -0.0022(2) 0.0000(2)
O1 x 1 -0.002(6) -0.064(6)
O1 y 1 0.0155(14) -0.0013(15)
O1 z 1 0.016(2) -0.004(2)
O1 x 2 -0.025(7) -0.075(6)
O1 y 2 -0.0025(16) -0.0035(15)
O1 z 2 0.003(2) 0.005(2)
O2 x 1 -0.010(5) -0.030(6)
O2 y 1 -0.0087(14) 0.0069(13)
O2 z 1 -0.0195(19) 0.0128(19)
O2 x 2 -0.024(6) -0.028(6)
O2 y 2 0.0044(15) -0.0020(15)
O2 z 2 0.000(2) 0.003(2)
O3 x 1 0.009(5) -0.008(5)
O3 y 1 -0.0100(13) -0.0009(13)
O3 z 1 -0.018(2) 0.0015(19)
O3 x 2 -0.005(6) -0.019(6)
O3 y 2 -0.0012(15) 0.0045(15)
O3 z 2 -0.008(2) -0.001(2)
O4 x 1 0.047(5) -0.028(5)
O4 y 1 -0.0051(12) 0.0070(12)
O4 z 1 0.0113(18) 0.0081(18)
O4 x 2 0.008(6) -0.017(6)
O4 y 2 -0.0037(14) 0.0021(14)
O4 z 2 0.004(2) 0.006(2)
O5 x 1 0.024(7) -0.001(7)
O5 y 1 0.0039(16) -0.0066(15)
O5 z 1 0.016(2) -0.011(2)
O5 x 2 0.031(7) 0.009(7)
O5 y 2 -0.0009(17) -0.0019(18)
O5 z 2 0.002(3) 0.013(3)
O6 x 1 0.048(6) 0.001(7)
O6 y 1 -0.0011(13) -0.0014(15)
O6 z 1 -0.020(2) 0.013(2)
O6 x 2 -0.025(7) -0.040(7)
O6 y 2 0.0029(16) 0.0019(16)
O6 z 2 0.005(3) 0.008(2)
O7 x 1 0.005(5) -0.042(5)
O7 y 1 -0.0099(14) 0.0086(13)
O7 z 1 -0.0017(18) 0.0065(18)
O7 x 2 -0.002(6) -0.002(6)
O7 y 2 0.0095(14) -0.0054(15)
O7 z 2 -0.005(2) 0.003(2)
O8 x 1 0.040(5) -0.024(6)
O8 y 1 0.0078(14) 0.0010(13)
O8 z 1 0.0207(18) 0.0122(19)
O8 x 2 0.011(6) -0.013(6)
O8 y 2 -0.0011(15) -0.0018(14)
O8 z 2 0.001(2) 0.003(2)
Zn1 x 1 0.0084(15) -0.0230(13)
Zn1 y 1 -0.0047(3) -0.0018(3)
Zn1 z 1 0.0022(4) 0.0005(4)
Zn1 x 2 0.0681(16) -0.0257(18)
Zn1 y 2 -0.0008(3) 0.0006(3)
Zn1 z 2 0.0059(4) 0.0078(4)
Zn2 x 1 -0.001(2) -0.0093(8)
Zn2 y 1 -0.0001(3) -0.00070(16)
Zn2 z 1 -0.0050(5) -0.0006(2)
Zn2 x 2 0.009(3) -0.0812(11)
Zn2 y 2 0.0000(4) -0.00052(19)
Zn2 z 2 0.0028(5) 0.0010(3)
Zn3 x 1 -0.0149(17) 0.0084(15)
Zn3 y 1 0.0070(3) -0.0054(2)
Zn3 z 1 -0.0106(3) 0.0079(4)
Zn3 x 2 -0.039(2) -0.044(2)
Zn3 y 2 0.0008(3) -0.0022(3)
Zn3 z 2 0.0022(4) -0.0027(4)
loop_
_atom_site_Fourier_wave_vector_seq_id
_jana_atom_site_fourier_wave_vector_q1_coeff
1 1
2 2
loop_
_atom_site_occ_Fourier_atom_site_label
_atom_site_occ_Fourier_wave_vector_seq_id
_atom_site_occ_Fourier_param_cos
_atom_site_occ_Fourier_param_sin
O5 1 -0.11(4) 0.14(4)
O5 2 -0.01(4) -0.06(4)
O6 1 0.07(4) 0.03(4)
O6 2 0.09(4) -0.01(5)
loop_
_atom_type_symbol
_atom_type_scat_dispersion_real
_atom_type_scat_dispersion_imag
_atom_type_scat_source
I -0.4742 1.8119 'International Tables Vol C tables 4.2.6.8 and 6.1.1.1'
O 0.0106 0.0060 'International Tables Vol C tables 4.2.6.8 and 6.1.1.1'
Sb -0.5866 1.5461 'International Tables Vol C tables 4.2.6.8 and 6.1.1.1'
Zn 0.2839 1.4301 'International Tables Vol C tables 4.2.6.8 and 6.1.1.1'
loop_
_cell_subsystem_code
_cell_subsystem_description
_cell_subsystem_matrix_W_1_1
_cell_subsystem_matrix_W_1_2
_cell_subsystem_matrix_W_1_3
_cell_subsystem_matrix_W_1_4
_cell_subsystem_matrix_W_2_1
_cell_subsystem_matrix_W_2_2
_cell_subsystem_matrix_W_2_3
_cell_subsystem_matrix_W_2_4
_cell_subsystem_matrix_W_3_1
_cell_subsystem_matrix_W_3_2
_cell_subsystem_matrix_W_3_3
_cell_subsystem_matrix_W_3_4
_cell_subsystem_matrix_W_4_1
_cell_subsystem_matrix_W_4_2
_cell_subsystem_matrix_W_4_3
_cell_subsystem_matrix_W_4_4
1 '1-st subsystem' 1 0 0 0 0 1 0 0 0 0 1 0 0 0 0 1
2 '2-nd subsystem' 1 0 0 1 0 1 0 0 0 0 1 0 0 0 0 1
loop_
_cell_wave_vector_seq_id
_cell_wave_vector_x
_cell_wave_vector_y
_cell_wave_vector_z
1 0.227400 0.000000 0.423600
loop_
_geom_bond_atom_site_label_1
_geom_bond_atom_site_label_2
_geom_bond_site_ssg_symmetry_2
_geom_bond_distance_av
_geom_bond_distance_min
_geom_bond_distance_max
I1 Zn1 1_6555 325.2(16) 2.546(13) 4.43(2)
I1 Zn1 1_7555 285.7(14) 2.442(10) 3.95(2)
I2 Zn3 . 265.9(14) 2.508(13) 2.921(16)
I2 Zn3 1_6555 436(3) 2.775(15) 5.65(4)
Sb1 O5 . 2.00(6) 1.68(6) 2.22(6)
Sb1 O8 . 1.92(5) 1.87(5) 1.98(5)
I3 Zn1 . 431(2) 2.677(15) 5.64(3)
I3 Zn1 1_6555 257.4(14) 2.464(14) 2.677(15)
I3 Zn1 1_7555 436(2) 2.646(15) 5.62(3)
Sb2 O1 . 1.99(5) 1.86(5) 2.11(5)
Sb2 O4 . 1.92(5) 1.78(5) 2.00(5)
Sb2 O5 . 2.27(7) 1.95(6) 2.53(6)
I4 Zn3 . 335.2(17) 2.579(13) 4.58(3)
I4 Zn3 1_6555 290.9(14) 2.494(12) 3.95(2)
Sb3 O2 . 2.02(5) 1.97(5) 2.07(5)
Sb3 O6 . 2.13(6) 1.77(6) 2.57(6)
Sb3 O6 1_6555 2.31(6) 1.98(6) 2.57(6)
Sb3 O7 . 2.05(5) 1.84(5) 2.25(5)
Sb4 O3 . 2.00(5) 1.88(5) 2.13(5)
Sb4 O6 . 2.16(6) 1.99(6) 2.31(6)
Sb4 O7 1_4555 2.30(5) 2.02(5) 2.65(5)
Sb4 O7 . 2.21(5) 1.97(5) 2.45(5)
O1 Zn2 1_6555 204(6) 1.90(6) 2.27(6)
O1 Zn3 . 280(6) 1.85(5) 4.08(6)
O1 Zn3 1_6555 246(5) 1.89(5) 4.16(6)
O2 Zn2 . 259(5) 1.80(5) 3.90(6)
O2 Zn2 1_6555 262(5) 1.92(5) 3.84(6)
O2 Zn3 . 203(6) 1.90(6) 2.09(6)
O2 Zn3 1_6555 390(6) 2.04(6) 5.56(6)
O3 Zn1 . 237(5) 1.83(5) 3.67(5)
O3 Zn1 1_6555 288(5) 1.90(5) 4.07(5)
O3 Zn2 1_4555 352(6) 1.84(5) 5.34(6)
O3 Zn2 . 202(6) 1.83(6) 2.53(6)
O8 Zn1 . 386(6) 2.05(6) 5.48(6)
O8 Zn1 1_6555 200(6) 1.87(6) 2.11(6)
O8 Zn2 . 263(5) 1.86(5) 3.90(6)
O8 Zn2 1_6555 277(5) 2.04(5) 3.95(6)
loop_
_refln_index_h
_refln_index_k
_refln_index_l
_refln_index_m_1
_refln_F_squared_calc
_refln_F_squared_meas
_refln_F_squared_sigma
_refln_observed_status
0 -23 0 1 825.21 543.45 247.05 <
0 -23 0 2 61.33 -47.38 140.46 <
1 -23 0 -2 16.21 -353.04 191.93 <
1 -23 0 -1 59.03 -190.26 202.10 <
1 -23 0 1 270.75 926.85 449.15 <
1 -23 0 2 19.08 -193.75 213.95 <
2 -23 0 -2 157.22 -407.70 304.60 <
2 -23 0 -1 245.71 -307.03 269.22 <
2 -23 0 0 8.41 190.71 219.26 <
2 -23 0 1 456.64 721.71 426.68 <
0 -22 0 0 1323.29 1763.51 612.23 <
0 -22 0 1 856.18 901.95 286.98 o
0 -22 0 2 33.19 110.54 106.29 <
1 -22 0 -2 49.07 251.76 161.11 <
1 -22 0 -1 339.23 690.58 391.30 <
1 -22 0 0 9986.76 10347.50 1436.44 o
1 -22 0 1 4358.09 4741.61 694.53 o
1 -22 0 2 15.04 270.43 168.70 <
2 -22 0 -2 112.24 -18.22 73.34 <
2 -22 0 -1 592.51 540.26 263.60 <
2 -22 0 0 264.46 383.10 386.59 <
2 -22 0 1 287.27 -308.24 276.96 <
2 -22 0 2 50.69 335.27 289.57 <
0 -21 0 1 171.15 187.37 145.01 <
0 -21 0 2 33.72 -14.43 75.62 <
1 -21 0 -2 46.29 -179.78 129.83 <
1 -21 0 -1 12.10 118.89 107.05 <
1 -21 0 0 48.95 84.73 128.91 <
1 -21 0 1 60.26 -34.32 75.77 <
1 -21 0 2 235.21 552.56 208.18 <
2 -21 0 -2 216.17 -324.18 260.26 <
2 -21 0 -1 51.72 146.07 145.01 <
2 -21 0 0 65.65 66.05 125.88 <
2 -21 0 1 314.08 -382.95 299.43 <
2 -21 0 2 107.88 227.92 215.31 <
3 -21 0 -2 59.54 -221.54 233.69 <
3 -21 0 -1 60.90 -121.47 181.91 <
3 -21 0 0 143.34 270.28 263.75 <
0 -20 0 0 13626.30 13650.90 1566.41 o
0 -20 0 1 178.54 355.16 179.18 <
0 -20 0 2 23.53 -24.29 97.94 <
1 -20 0 -2 115.52 -15.03 71.82 <
1 -20 0 -1 2691.88 2291.16 445.81 o
1 -20 0 0 621.66 1069.43 442.47 <
1 -20 0 1 1488.69 981.36 403.60 <
1 -20 0 2 82.94 182.21 117.38 <
2 -20 0 -2 114.76 -15.79 65.75 <
2 -20 0 -1 506.96 376.88 274.99 <
2 -20 0 0 4913.61 2980.98 787.31 o
2 -20 0 1 105.57 -151.24 184.95 <
2 -20 0 2 11.00 241.73 234.75 <
3 -20 0 -2 196.13 -181.76 205.60 <
3 -20 0 -1 516.15 126.94 178.11 <
3 -20 0 0 7.96 -84.88 147.29 <
3 -20 0 1 2066.72 1583.27 557.87 <
0 -19 0 1 264.03 176.44 129.67 <
0 -19 0 2 4.02 -257.22 146.38 <
1 -19 0 -2 57.65 157.31 122.23 <
1 -19 0 -1 548.06 392.97 191.93 <
1 -19 0 0 26.30 -1.82 64.53 <
1 -19 0 1 292.79 -138.79 151.24 <
1 -19 0 2 92.23 -34.92 235.21 <
2 -19 0 -2 59.36 0.61 208.02 <
2 -19 0 -1 300.83 57.55 109.33 <
2 -19 0 0 76.10 659.76 365.79 <
2 -19 0 1 258.01 248.41 228.52 <
2 -19 0 2 577.67 552.71 336.79 <
3 -19 0 -2 45.70 56.94 90.95 <
3 -19 0 -1 82.35 526.90 394.49 <
3 -19 0 0 50.20 19.59 76.07 <
3 -19 0 1 451.93 537.37 332.39 <
4 -19 0 -2 114.71 -199.98 218.81 <
4 -19 0 -1 58.74 544.97 358.50 <
0 -18 0 0 33196.80 36079.50 2392.14 o
0 -18 0 1 23.94 -103.56 112.21 <
0 -18 0 2 19.72 -53.45 73.64 <
1 -18 0 -2 79.45 -207.87 126.18 <
1 -18 0 -1 1780.20 2728.01 463.58 o
1 -18 0 0 2614.63 2551.12 442.17 o
1 -18 0 2 8.63 -10.93 119.50 <
2 -18 0 -2 15.06 -165.51 171.13 <
2 -18 0 -1 145.72 204.53 37.20 o
2 -18 0 0 4770.77 2557.04 710.47 o
2 -18 0 1 14.55 -500.63 311.13 <
2 -18 0 2 809.91 467.68 297.16 <
3 -18 0 -2 125.58 99.76 212.58 <
3 -18 0 -1 582.91 264.66 263.14 <
3 -18 0 0 879.33 659.46 392.21 <
3 -18 0 1 335.96 618.00 301.86 <
3 -18 0 2 88.74 -331.02 242.95 <
4 -18 0 -2 131.58 226.09 221.24 <
4 -18 0 -1 86.36 -44.34 101.13 <
4 -18 0 0 2546.46 1798.58 593.40 o
0 -17 0 1 789.54 854.72 261.17 o
0 -17 0 2 47.73 -12.15 66.51 <
1 -17 0 -2 36.69 151.84 112.97 <
1 -17 0 -1 160.66 74.25 137.42 <
1 -17 0 0 17.73 125.27 230.95 <
2 -17 0 -2 73.51 -53.90 97.64 <
2 -17 0 -1 818.90 138.63 222.75 <
2 -17 0 0 24.88 290.02 227.16 <
2 -17 0 1 50.14 495.31 295.64 <
2 -17 0 2 413.93 221.99 226.09 <
3 -17 0 -2 25.70 -50.41 100.98 <
3 -17 0 -1 144.20 -40.24 89.89 <
3 -17 0 0 90.84 114.34 147.14 <
3 -17 0 1 376.07 447.48 232.93 <
3 -17 0 2 6.86 150.48 158.37 <
4 -17 0 -2 55.49 169.76 184.03 <
4 -17 0 -1 496.42 109.02 122.23 <
4 -17 0 0 18.47 -180.85 181.30 <
0 -16 0 0 699.72 876.44 372.62 <
0 -16 0 1 4709.51 6154.81 650.34 o
0 -16 0 2 43.38 22.02 99.00 <
1 -16 0 -2 108.12 -49.50 84.42 <
1 -16 0 -1 2372.87 2584.67 588.54 o
1 -16 0 0 16764.40 17136.10 1520.10 o
1 -16 0 2 28.75 -107.96 225.03 <
2 -16 0 -2 233.37 59.22 189.20 <
2 -16 0 -1 1013.31 501.99 280.15 <
2 -16 0 0 4602.88 2983.87 694.38 o
2 -16 0 1 3225.74 3207.53 723.38 o
2 -16 0 2 157.00 18.37 81.24 <
3 -16 0 -2 198.49 -115.55 143.04 <
3 -16 0 -1 1535.93 504.12 289.72 <
3 -16 0 0 3643.92 3796.99 785.64 o
3 -16 0 1 324.61 239.91 232.78 <
3 -16 0 2 16.26 -7.90 53.75 <
4 -16 0 -2 195.07 20.95 73.04 <
4 -16 0 -1 335.10 -83.97 124.82 <
4 -16 0 0 303.50 19.44 64.23 <
0 -15 0 1 459.33 369.89 149.26 <
0 -15 0 2 16.58 73.04 69.54 <
1 -15 0 -2 50.05 31.28 107.35 <
1 -15 0 -1 94.55 229.43 105.99 <
1 -15 0 0 71.38 73.04 98.09 <
1 -15 0 2 5.42 22.47 138.18 <
2 -15 0 -2 84.03 -98.70 163.38 <
2 -15 0 -1 51.85 -78.35 111.30 <
2 -15 0 0 143.18 -94.45 140.61 <
2 -15 0 1 497.21 874.62 354.40 <
2 -15 0 2 423.52 542.99 285.92 <
3 -15 0 -2 236.29 -475.12 269.83 <
3 -15 0 -1 276.00 323.43 285.01 <
3 -15 0 0 69.13 -12.91 43.28 <
3 -15 0 1 124.89 59.83 95.66 <
3 -15 0 2 80.27 185.55 200.89 <
4 -15 0 -2 103.36 25.21 74.71 <
4 -15 0 -1 18.97 31.74 76.53 <
4 -15 0 0 85.85 -5.16 42.52 <
4 -15 0 1 130.43 -77.90 109.93 <
5 -15 0 -2 105.97 56.18 100.07 <
0 -14 0 0 26759.80 29664.80 1866.15 o
0 -14 0 1 1858.39 1839.43 333.60 o
0 -14 0 2 2.42 48.44 54.66 <
1 -14 0 -2 65.35 -73.95 136.20 <
1 -14 0 -1 369.06 222.45 125.27 <
1 -14 0 0 454.27 660.67 272.41 <
1 -14 0 2 195.30 457.35 259.96 <
2 -14 0 -2 104.25 5.62 42.82 <
2 -14 0 -1 1227.44 729.61 301.41 <
2 -14 0 0 10624.90 7800.03 1032.99 o
2 -14 0 1 1182.43 1902.29 515.51 o
2 -14 0 2 108.31 1.67 72.28 <
3 -14 0 -2 73.70 -26.42 65.75 <
3 -14 0 -1 786.30 424.55 267.85 <
3 -14 0 0 55.41 26.27 123.30 <
3 -14 0 1 1772.21 3183.85 650.19 o
3 -14 0 2 1.90 231.10 188.74 <
4 -14 0 -2 113.38 -316.29 217.44 <
4 -14 0 -1 202.07 222.30 156.25 <
4 -14 0 0 2465.17 1072.01 398.59 <
4 -14 0 1 209.24 460.24 249.33 <
5 -14 0 -2 143.49 -100.67 131.65 <
5 -14 0 -1 254.20 157.61 159.43 <
0 -13 0 1 124.05 128.46 97.64 <
0 -13 0 2 90.46 189.20 91.11 <
1 -13 0 -2 110.41 71.37 54.66 <
1 -13 0 -1 2323.18 1934.48 464.03 o
1 -13 0 0 67.73 122.69 144.71 <
1 -13 0 2 365.93 12.91 141.67 <
2 -13 0 -2 72.22 40.85 82.30 <
2 -13 0 -1 42.18 55.57 77.74 <
2 -13 0 0 80.85 18.68 88.68 <
2 -13 0 1 91.52 45.55 75.01 <
2 -13 0 2 18.87 135.90 124.21 <
3 -13 0 -2 148.97 214.25 176.90 <
3 -13 0 -1 1871.24 1059.26 379.15 <
3 -13 0 0 108.86 63.47 128.76 <
3 -13 0 1 17.98 -79.26 98.24 <
3 -13 0 2 153.47 -2.58 111.30 <
4 -13 0 -2 4.29 -4.10 114.03 <
4 -13 0 -1 73.88 15.79 108.11 <
4 -13 0 0 45.14 314.62 202.10 <
4 -13 0 1 170.01 16.85 142.88 <
5 -13 0 -2 116.50 157.76 65.14 <
5 -13 0 -1 520.12 292.75 210.15 <
0 -12 0 0 1176.46 1022.06 309.61 o
0 -12 0 1 1078.24 1162.36 244.01 o
0 -12 0 2 132.50 -9.41 23.69 <
1 -12 0 -2 26.82 7.14 51.32 <
1 -12 0 -1 1468.87 1082.95 312.80 o
1 -12 0 0 19481.20 20206.20 1409.10 o
1 -12 0 2 239.37 133.77 61.19 <
2 -12 0 -2 99.68 -71.67 105.07 <
2 -12 0 -1 4148.68 1609.84 419.09 o
2 -12 0 0 442.01 108.26 110.09 <
2 -12 0 1 169.48 111.45 90.04 <
2 -12 0 2 149.71 29.46 80.63 <
3 -12 0 -2 210.96 35.99 141.21 <
3 -12 0 -1 121.84 145.92 136.66 <
3 -12 0 0 3561.63 1873.74 446.57 o
3 -12 0 1 1219.18 1307.98 375.05 o
3 -12 0 2 174.62 210.76 190.87 <
4 -12 0 -2 54.49 23.69 116.01 <
4 -12 0 -1 1437.74 230.04 165.96 <
4 -12 0 0 11.55 -29.76 170.67 <
4 -12 0 1 94.09 52.84 83.06 <
4 -12 0 2 54.40 266.03 198.31 <
5 -12 0 -2 204.86 -120.87 139.39 <
5 -12 0 -1 171.58 -87.01 115.86 <
0 -11 0 1 51.15 145.62 85.79 <
0 -11 0 2 75.16 34.16 38.26 <
1 -11 0 -2 73.55 9.57 37.51 <
1 -11 0 -1 48.64 95.21 60.43 <
1 -11 0 0 36.80 92.93 124.06 <
1 -11 0 1 542.14 521.43 240.82 <
1 -11 0 2 42.96 -123.75 123.75 <
2 -11 0 -2 0.68 -23.23 111.30 <
2 -11 0 -1 214.25 168.70 97.33 <
2 -11 0 0 141.71 40.85 91.41 <
2 -11 0 1 131.61 561.52 239.46 <
2 -11 0 2 2006.11 1767.91 400.87 o
3 -11 0 -2 102.77 -18.07 45.55 <
3 -11 0 -1 57.02 39.78 100.22 <
3 -11 0 0 36.36 295.33 207.57 <
3 -11 0 1 253.66 224.88 167.94 <
3 -11 0 2 35.23 270.89 162.32 <
4 -11 0 -2 53.24 -8.96 48.29 <
4 -11 0 -1 223.54 193.90 186.62 <
4 -11 0 0 81.16 -53.90 82.75 <
4 -11 0 1 100.38 93.38 95.96 <
4 -11 0 2 25.22 7.59 37.35 <
5 -11 0 -2 67.39 -53.30 87.92 <
5 -11 0 -1 32.72 -19.74 56.49 <
5 -11 0 0 14.82 -32.04 73.34 <
0 -10 0 0 7042.75 7574.85 775.31 o
0 -10 0 1 240.22 9.41 46.92 <
0 -10 0 2 301.26 220.32 83.06 <
1 -10 0 -2 27.42 15.79 29.31 <
1 -10 0 -1 1875.38 2295.41 430.78 o
1 -10 0 0 42818.50 44988.10 1908.52 o
1 -10 0 1 1504.07 1653.27 370.80 o
1 -10 0 2 59.39 0.91 30.52 <
2 -10 0 -2 64.67 -20.95 81.39 <
2 -10 0 -1 1562.02 1751.81 396.16 o
2 -10 0 0 28491.30 28528.10 1562.77 o
2 -10 0 1 871.44 667.50 277.27 <
2 -10 0 2 2078.73 1873.59 385.38 o
3 -10 0 -2 122.16 13.06 146.98 <
3 -10 0 -1 760.22 917.89 298.98 o
3 -10 0 0 12321.90 11363.80 1037.70 o
3 -10 0 1 790.03 1982.16 435.79 o
3 -10 0 2 33.22 388.57 187.07 <
4 -10 0 -2 241.70 111.30 130.59 <
4 -10 0 -1 1422.89 874.01 286.98 o
4 -10 0 0 2015.19 2552.33 535.55 o
4 -10 0 1 649.89 504.12 239.15 <
4 -10 0 2 248.82 54.21 81.24 <
5 -10 0 -2 81.66 133.93 188.29 <
5 -10 0 -1 102.10 260.71 171.58 <
5 -10 0 0 1797.72 998.67 369.74 <
0 -9 0 1 2356.31 2906.58 461.91 o
0 -9 0 2 50.61 89.13 66.51 <
1 -9 0 -2 222.09 232.17 89.59 <
1 -9 0 -1 88.64 51.32 49.05 <
1 -9 0 1 36.81 16.70 27.64 <
1 -9 0 2 9.66 -43.73 83.67 <
2 -9 0 -2 349.61 29.00 88.07 <
2 -9 0 -1 1361.43 1023.88 284.25 o
2 -9 0 0 164.31 147.59 125.42 <
2 -9 0 1 653.49 924.72 272.41 o
2 -9 0 2 21.12 -28.09 51.02 <
3 -9 0 -2 76.14 -26.42 35.68 <
3 -9 0 -1 104.10 -36.44 92.93 <
3 -9 0 0 95.93 -3.19 48.89 <
3 -9 0 1 104.16 184.19 97.48 <
3 -9 0 2 96.44 82.45 85.64 <
4 -9 0 -2 279.51 146.83 38.11 o
4 -9 0 -1 690.14 652.47 229.89 <
4 -9 0 0 239.24 81.08 131.95 <
4 -9 0 1 145.01 -42.21 70.61 <
4 -9 0 2 68.98 200.43 125.73 <
5 -9 0 -2 59.91 18.98 79.57 <
5 -9 0 -1 33.87 204.23 162.47 <
5 -9 0 0 30.23 -108.87 121.32 <
0 -8 0 1 19.82 157.16 96.57 <
0 -8 0 2 21.44 31.43 18.83 <
1 -8 0 -2 56.87 -14.12 35.08 <
1 -8 0 -1 1556.67 1448.74 303.84 o
1 -8 0 1 343.43 254.03 42.21 o
1 -8 0 2 178.78 68.94 108.72 <
2 -8 0 -2 92.95 66.96 32.34 <
2 -8 0 -1 221.49 83.67 105.99 <
2 -8 0 0 733.95 781.69 231.10 o
2 -8 0 1 200.59 93.99 77.90 <
2 -8 0 2 1819.57 944.46 254.64 o
3 -8 0 -2 188.69 14.58 54.36 <
3 -8 0 -1 2233.31 1315.42 327.98 o
3 -8 0 0 961.23 1082.79 293.97 o
3 -8 0 1 622.64 1128.50 309.00 o
3 -8 0 2 105.84 132.86 154.58 <
4 -8 0 -2 100.03 69.09 83.82 <
4 -8 0 -1 575.72 435.79 211.37 <
4 -8 0 0 1727.80 1231.60 349.70 o
4 -8 0 1 868.48 963.14 304.60 o
4 -8 0 2 293.95 554.68 249.33 <
5 -8 0 -2 162.11 -266.48 182.36 <
5 -8 0 -1 799.83 464.34 260.56 <
5 -8 0 0 253.88 91.87 111.00 <
5 -8 0 1 328.74 665.22 299.59 <
0 -7 0 1 41.99 62.71 51.47 <
0 -7 0 2 223.88 -4.71 23.38 <
1 -7 0 -2 8.43 10.02 20.04 <
1 -7 0 0 32.22 -64.99 63.93 <
1 -7 0 1 819.66 827.39 231.71 o
1 -7 0 2 139.56 77.14 68.63 <
2 -7 0 -2 32.47 50.26 80.63 <
2 -7 0 -1 148.79 -28.55 65.29 <
2 -7 0 0 42.91 55.42 67.87 <
2 -7 0 1 295.19 51.93 65.60 <
2 -7 0 2 2562.54 2038.95 353.49 o
3 -7 0 -2 42.95 40.85 73.80 <
3 -7 0 -1 879.66 619.82 222.45 <
3 -7 0 0 181.80 57.55 78.81 <
3 -7 0 1 1368.17 1790.69 367.16 o
3 -7 0 2 17.88 34.16 84.58 <
4 -7 0 -2 29.24 -9.87 112.82 <
4 -7 0 -1 128.13 159.13 166.57 <
4 -7 0 0 28.15 88.68 95.66 <
4 -7 0 1 97.55 381.58 248.11 <
4 -7 0 2 44.90 82.75 154.58 <
5 -7 0 -2 33.24 90.35 105.99 <
5 -7 0 -1 391.77 808.11 314.01 <
5 -7 0 0 39.95 -8.66 43.12 <
5 -7 0 1 210.31 100.82 118.29 <
0 -6 0 1 83.86 57.85 73.64 <
0 -6 0 2 53.32 12.75 14.27 <
1 -6 0 -2 26.29 14.27 18.07 <
1 -6 0 0 24130.70 22993.60 1045.44 o
1 -6 0 1 4676.94 5620.78 501.23 o
1 -6 0 2 192.76 104.47 62.56 <
2 -6 0 -2 54.73 3.64 10.63 <
2 -6 0 -1 828.43 811.60 215.92 o
2 -6 0 0 12506.90 12651.10 833.92 o
2 -6 0 1 36.21 158.83 108.57 <
2 -6 0 2 323.12 394.18 150.17 <
3 -6 0 -2 80.66 42.52 21.87 <
3 -6 0 -1 3658.87 2758.53 447.63 o
3 -6 0 0 6689.73 6112.45 668.87 o
3 -6 0 1 4320.42 4875.08 605.09 o
3 -6 0 2 60.02 -11.08 83.51 <
4 -6 0 -2 117.90 -17.92 45.70 <
4 -6 0 -1 391.36 694.83 264.21 <
4 -6 0 0 1728.60 2146.00 458.42 o
4 -6 0 1 20.60 289.26 184.95 <
4 -6 0 2 93.06 9.72 115.10 <
5 -6 0 -2 93.60 212.58 151.69 <
5 -6 0 -1 945.82 548.31 250.24 <
5 -6 0 0 567.49 377.94 218.20 <
5 -6 0 1 540.27 729.76 307.63 <
0 -5 0 1 320.21 376.72 80.93 o
0 -5 0 2 97.28 81.39 32.65 <
1 -5 0 -2 104.20 32.49 40.54 <
1 -5 0 -1 147.13 90.80 35.08 <
1 -5 0 0 48.34 80.93 25.36 o
1 -5 0 1 195.07 28.55 54.21 <
1 -5 0 2 21.01 -10.17 33.86 <
2 -5 0 -2 148.62 -15.49 21.87 <
2 -5 0 -1 274.79 41.45 90.80 <
2 -5 0 0 33.72 70.91 41.45 <
2 -5 0 1 942.10 1157.04 244.47 o
2 -5 0 2 504.18 193.90 96.12 <
3 -5 0 -2 141.74 -8.05 58.46 <
3 -5 0 -1 25.94 264.97 176.74 <
3 -5 0 0 77.05 -8.50 31.28 <
3 -5 0 1 778.02 1220.67 306.57 o
3 -5 0 2 120.45 11.24 47.07 <
4 -5 0 -2 129.80 83.67 73.64 <
4 -5 0 -1 176.32 -53.45 31.58 <
4 -5 0 1 341.01 521.28 235.66 <
4 -5 0 2 150.08 -143.19 121.02 <
5 -5 0 -2 138.27 0.46 28.85 <
5 -5 0 -1 41.59 201.80 156.85 <
5 -5 0 0 15.36 -14.27 75.77 <
5 -5 0 1 140.60 576.24 274.99 <
5 -5 0 2 63.80 269.98 194.21 <
0 -4 0 0 17962.10 17533.50 1101.17 o
0 -4 0 1 13.78 26.12 23.54 <
0 -4 0 2 1.08 3.49 22.93 <
1 -4 0 -2 63.99 49.35 26.57 <
1 -4 0 -1 1885.72 1682.42 167.33 o
1 -4 0 0 227052.00 205215.00 2528.19 o
1 -4 0 1 27121.20 31660.20 996.55 o
1 -4 0 2 9.02 16.25 26.57 <
2 -4 0 -2 300.41 41.30 62.71 <
2 -4 0 -1 823.33 683.60 173.71 o
2 -4 0 0 1569.54 1751.21 285.46 o
2 -4 0 1 656.03 1001.25 217.90 o
2 -4 0 2 9.70 34.32 46.92 <
3 -4 0 -2 107.67 3.49 59.98 <
3 -4 0 -1 757.01 990.17 270.74 o
3 -4 0 0 58415.70 62590.40 2050.64 o
3 -4 0 1 19.54 5.01 46.31 <
3 -4 0 2 1.01 4.71 34.62 <
4 -4 0 -2 428.13 190.41 120.87 <
4 -4 0 -1 734.15 754.21 264.21 <
4 -4 0 0 448.77 90.19 78.81 <
4 -4 0 1 275.79 256.92 141.52 <
4 -4 0 2 55.96 -98.09 100.52 <
5 -4 0 -2 24.92 217.14 213.64 <
5 -4 0 -1 734.05 307.33 190.87 <
5 -4 0 0 5066.40 4547.55 769.39 o
5 -4 0 1 1368.90 1847.32 514.75 o
5 -4 0 2 153.46 342.25 217.44 <
0 -3 0 1 11.11 25.66 26.12 <
0 -3 0 2 43.06 12.91 15.94 <
1 -3 0 -2 12.19 -1.97 12.00 <
1 -3 0 -1 24.04 16.85 16.25 <
1 -3 0 0 42.34 50.26 50.72 <
1 -3 0 1 1266.06 1462.10 204.23 o
1 -3 0 2 242.05 115.70 67.72 <
2 -3 0 -2 61.56 8.35 83.51 <
2 -3 0 -1 1354.33 771.67 188.13 o
2 -3 0 0 335.38 -20.95 60.28 <
2 -3 0 1 1882.68 1878.60 291.54 o
2 -3 0 2 1748.84 1042.71 228.68 o
3 -3 0 -2 59.01 70.76 77.14 <
3 -3 0 -1 391.52 103.86 55.73 <
3 -3 0 0 209.44 -208.48 116.16 <
3 -3 0 1 771.73 634.10 202.86 o
3 -3 0 2 53.81 151.08 88.52 <
4 -3 0 -2 34.75 152.91 121.02 <
4 -3 0 -1 1224.69 593.55 237.48 <
4 -3 0 0 135.70 81.24 131.19 <
4 -3 0 1 1042.92 819.65 276.66 <
4 -3 0 2 290.30 310.06 180.85 <
5 -3 0 -1 73.46 449.46 230.50 <
5 -3 0 0 67.17 -284.71 186.77 <
5 -3 0 1 141.85 375.05 220.48 <
5 -3 0 2 187.06 390.54 230.95 <
0 -2 0 1 72.51 18.83 14.88 <
0 -2 0 2 37.17 16.55 12.00 <
1 -2 0 -2 19.42 11.69 16.85 <
1 -2 0 -1 75.84 68.18 32.04 <
1 -2 0 0 263.44 110.54 41.60 <
1 -2 0 1 273.89 245.83 80.78 o
1 -2 0 2 177.08 -14.73 10.78 <
2 -2 0 -2 45.01 -25.21 14.12 <
2 -2 0 -1 2189.18 1938.43 278.02 o
2 -2 0 0 1235.59 1160.99 211.21 o
2 -2 0 1 1913.29 1909.43 290.48 o
2 -2 0 2 1080.67 801.88 200.13 o
3 -2 0 -2 297.02 -8.50 27.64 <
3 -2 0 -1 1555.07 1190.30 283.49 o
3 -2 0 0 69.33 5.92 67.87 <
3 -2 0 1 2095.83 1943.29 360.02 o
3 -2 0 2 83.19 -289.87 139.39 <
4 -2 0 -2 242.34 73.34 77.29 <
4 -2 0 -1 1587.17 948.56 300.50 o
4 -2 0 0 204.98 93.54 35.99 <
4 -2 0 1 1391.89 1660.10 402.99 o
4 -2 0 2 512.44 429.56 212.88 <
5 -2 0 -2 287.85 -47.83 127.09 <
5 -2 0 -1 433.16 585.81 261.17 <
5 -2 0 0 7.76 -100.52 104.77 <
5 -2 0 1 171.61 26.12 55.42 <
5 -2 0 2 50.02 83.21 56.64 <
1 -1 0 -2 16.89 28.70 12.00 <
1 -1 0 -1 113.39 162.62 42.82 o
1 -1 0 0 60.08 79.87 37.51 <
1 -1 0 1 101.08 18.22 20.20 <
1 -1 0 2 16.16 -25.05 44.03 <
2 -1 0 -2 2.91 25.36 48.59 <
2 -1 0 -1 288.83 258.59 97.79 <
2 -1 0 0 166.97 -2.13 40.09 <
2 -1 0 1 450.15 555.14 166.27 o
2 -1 0 2 2135.48 1524.20 264.21 o
3 -1 0 -2 73.69 44.79 81.69 <
3 -1 0 -1 1238.76 772.12 225.79 o
3 -1 0 0 158.50 9.41 72.58 <
3 -1 0 1 2196.09 2719.06 421.52 o
3 -1 0 2 148.90 106.59 120.71 <
4 -1 0 -2 29.30 46.31 63.32 <
4 -1 0 -1 120.51 -8.66 90.65 <
4 -1 0 0 18.44 -198.76 133.47 <
4 -1 0 1 281.54 648.22 240.98 <
4 -1 0 2 14.51 -101.13 100.07 <
5 -1 0 -2 62.46 192.23 147.29 <
5 -1 0 -1 478.79 -208.18 157.16 <
5 -1 0 0 40.58 63.32 90.35 <
5 -1 0 1 490.71 775.92 332.99 <
5 -1 0 2 0.14 -79.87 107.81 <
1 0 0 -2 5.34 5.77 15.03 <
1 0 0 -1 56.35 131.95 35.23 o
1 0 0 0 13.66 306.72 59.67 o
1 0 0 1 493.05 341.80 61.65 o
1 0 0 2 79.52 154.42 68.18 <
2 0 0 -2 144.18 145.62 76.23 <
2 0 0 -1 3090.32 2537.30 310.98 o
2 0 0 0 273475.00 203941.00 2869.08 o
2 0 0 1 1327.30 1933.27 292.30 o
2 0 0 2 5817.72 5707.48 515.05 o
3 0 0 -2 451.14 157.76 107.96 <
3 0 0 -1 792.08 643.97 194.06 o
3 0 0 0 2.31 -44.64 75.92 <
3 0 0 1 900.56 759.67 214.71 o
3 0 0 2 21.18 109.93 86.85 <
4 0 0 -2 112.44 48.89 116.01 <
4 0 0 -1 2235.41 1708.69 396.01 o
4 0 0 0 53660.90 47942.80 2094.22 o
4 0 0 1 2162.02 2531.07 483.01 o
4 0 0 2 185.73 40.54 64.99 <
5 0 0 -2 459.82 95.21 104.47 <
5 0 0 -1 661.12 612.69 273.47 <
5 0 0 0 17.79 107.35 116.31 <
5 0 0 1 257.16 198.61 152.91 <
5 0 0 2 47.36 -204.84 167.48 <
1 1 0 -2 17.09 3.34 8.50 <
1 1 0 -1 113.72 183.58 44.79 o
1 1 0 0 60.02 17.77 17.92 <
1 1 0 1 119.30 41.00 27.03 <
1 1 0 2 16.85 17.61 22.17 <
2 1 0 -2 2.88 -0.15 34.32 <
2 1 0 -1 304.68 204.23 79.72 <
2 1 0 0 162.49 128.76 68.18 <
2 1 0 1 483.36 879.32 201.95 o
2 1 0 2 2143.47 1408.35 265.88 o
3 1 0 -2 75.92 -12.15 71.52 <
3 1 0 -1 1239.23 1068.22 272.56 o
3 1 0 0 159.47 17.77 101.43 <
3 1 0 1 2209.11 3047.64 456.29 o
3 1 0 2 144.41 145.92 136.66 <
4 1 0 -2 27.82 53.60 64.38 <
4 1 0 -1 127.77 126.79 104.32 <
4 1 0 0 17.52 -19.89 80.32 <
4 1 0 1 295.23 762.10 275.14 <
4 1 0 2 10.21 14.27 40.54 <
5 1 0 -2 63.34 -131.04 122.23 <
5 1 0 -1 468.62 375.66 228.37 <
5 1 0 0 39.97 -166.27 143.19 <
5 1 0 1 501.08 505.18 254.64 <
5 1 0 2 0.22 -168.85 153.06 <
0 2 0 1 71.41 86.85 23.38 o
0 2 0 2 39.45 21.26 16.85 <
1 2 0 -2 19.31 4.10 10.17 <
1 2 0 -1 73.51 26.12 21.41 <
1 2 0 0 211.91 100.67 36.59 <
1 2 0 1 302.95 284.86 65.90 o
1 2 0 2 171.74 -16.70 29.76 <
2 2 0 -2 39.51 30.98 19.74 <
2 2 0 -1 2230.11 2081.47 289.11 o
2 2 0 0 1180.42 975.44 205.90 o
2 2 0 1 1888.66 2555.67 343.92 o
2 2 0 2 1097.38 935.81 221.24 o
3 2 0 -2 294.12 143.79 100.22 <
3 2 0 -1 1507.68 1159.93 272.10 o
3 2 0 0 88.85 142.73 48.29 <
3 2 0 1 2081.95 1736.02 344.84 o
3 2 0 2 86.60 15.64 46.01 <
4 2 0 -2 240.81 79.11 130.13 <
4 2 0 -1 1626.09 673.42 237.63 <
4 2 0 0 188.96 115.25 100.22 <
4 2 0 1 1388.44 1465.13 370.04 o
4 2 0 2 487.58 500.63 230.19 <
5 2 0 -2 284.48 -59.22 45.40 <
5 2 0 -1 419.49 409.37 158.52 <
5 2 0 0 8.35 -111.00 87.92 <
5 2 0 1 158.72 321.15 148.05 <
5 2 0 2 46.63 -476.48 256.31 <
0 3 0 1 10.77 41.00 37.66 <
0 3 0 2 43.71 -11.54 19.89 <
1 3 0 -2 11.45 -12.75 17.61 <
1 3 0 -1 23.19 6.68 22.02 <
1 3 0 0 42.16 6.83 16.10 <
1 3 0 1 1224.52 1264.85 143.95 o
2 3 0 -2 60.90 -5.16 27.94 <
2 3 0 -1 1372.12 921.38 146.23 o
2 3 0 0 340.42 50.72 48.13 <
2 3 0 1 1886.31 1968.04 314.92 o
2 3 0 2 1771.93 1043.62 235.05 o
3 3 0 -2 59.34 -7.59 54.06 <
3 3 0 -1 390.06 294.73 181.91 <
3 3 0 0 210.92 148.05 133.47 <
3 3 0 1 790.97 589.61 208.18 <
3 3 0 2 57.04 54.82 36.14 <
4 3 0 -2 37.44 50.72 74.71 <
4 3 0 -1 1240.72 740.39 191.47 o
4 3 0 0 137.31 126.03 90.50 <
4 3 0 1 1055.43 1317.85 356.98 o
4 3 0 2 282.63 849.56 295.94 <
5 3 0 -2 38.51 21.87 51.47 <
5 3 0 -1 72.89 80.17 75.77 <
5 3 0 0 69.10 104.77 88.37 <
5 3 0 1 140.40 136.96 97.94 <
5 3 0 2 179.48 -195.88 165.51 <
0 4 0 0 17914.10 15646.20 1147.48 o
0 4 0 1 14.69 58.31 64.08 <
0 4 0 2 1.06 -12.45 14.43 <
1 4 0 -2 65.95 58.31 22.47 <
1 4 0 -1 1894.71 1775.65 139.39 o
1 4 0 0 226965.00 194059.00 2638.73 o
1 4 0 1 27146.20 31952.70 1097.37 o
1 4 0 2 8.53 -2.58 48.89 <
2 4 0 -2 302.43 229.74 86.70 <
2 4 0 -1 790.95 639.26 127.40 o
2 4 0 0 1521.00 1457.24 194.36 o
2 4 0 1 663.96 1212.01 186.92 o
2 4 0 2 8.88 -37.81 83.36 <
3 4 0 -2 104.10 1.52 31.89 <
3 4 0 -1 777.12 919.87 182.82 o
3 4 0 0 58326.70 62234.90 1539.69 o
3 4 0 1 35.04 58.61 80.93 <
3 4 0 2 0.69 15.34 68.79 <
4 4 0 -2 428.75 -7.14 42.67 <
4 4 0 -1 707.95 764.68 186.77 o
4 4 0 0 441.13 350.76 144.25 <
4 4 0 1 281.95 491.97 159.28 o
4 4 0 2 60.88 -56.94 91.56 <
5 4 0 -2 21.97 90.04 74.86 <
5 4 0 -1 737.89 321.45 147.44 <
5 4 0 0 5039.28 5312.84 611.93 o
5 4 0 1 1360.41 1598.76 513.84 o
0 5 0 1 315.35 279.09 60.13 o
0 5 0 2 96.42 143.64 54.97 <
1 5 0 -2 102.30 7.29 38.87 <
1 5 0 -1 143.12 246.44 102.95 <
1 5 0 0 49.63 297.01 95.51 o
1 5 0 1 185.02 36.14 47.22 <
1 5 0 2 16.54 70.61 80.78 <
2 5 0 -2 150.29 16.10 66.96 <
2 5 0 -1 282.62 159.59 95.51 <
2 5 0 0 34.36 -17.16 50.26 <
2 5 0 1 968.39 1238.89 274.68 o
2 5 0 2 512.00 488.48 179.48 <
3 5 0 -2 134.94 22.47 67.72 <
3 5 0 -1 25.88 59.52 90.35 <
3 5 0 0 74.89 -13.06 72.13 <
3 5 0 1 810.04 1279.73 240.67 o
3 5 0 2 111.58 -37.35 59.37 <
4 5 0 -2 133.29 92.62 74.25 <
4 5 0 -1 178.94 59.52 52.39 <
4 5 0 0 12.28 1.67 52.23 <
4 5 0 1 347.38 754.66 208.94 o
4 5 0 2 148.59 -163.69 146.23 <
5 5 0 -2 132.90 -10.78 90.80 <
5 5 0 -1 41.14 63.32 63.93 <
5 5 0 0 14.35 -50.56 91.87 <
0 6 0 0 23332.20 27258.90 969.37 o
0 6 0 1 80.70 5.31 71.67 <
0 6 0 2 53.22 -40.69 47.53 <
1 6 0 -2 26.29 37.20 42.06 <
1 6 0 -1 734.74 813.58 142.88 o
1 6 0 0 24249.60 24051.30 1077.02 o
1 6 0 1 4647.50 5420.04 513.68 o
1 6 0 2 180.24 134.68 73.49 <
2 6 0 -2 50.33 25.81 37.81 <
2 6 0 -1 836.90 1145.66 269.52 o
2 6 0 0 12517.40 12893.80 895.42 o
2 6 0 1 33.99 46.01 58.61 <
2 6 0 2 310.54 427.74 165.36 <
3 6 0 -2 80.92 31.43 50.26 <
3 6 0 -1 3686.21 2611.55 458.57 o
3 6 0 0 6733.73 7132.53 775.46 o
3 6 0 1 4303.69 5414.12 703.79 o
3 6 0 2 66.12 56.49 24.75 <
4 6 0 -2 112.49 -68.33 69.09 <
4 6 0 -1 397.53 493.49 175.38 <
4 6 0 0 1720.51 2162.25 500.32 o
4 6 0 1 19.38 62.71 74.71 <
4 6 0 2 97.14 92.32 111.76 <
5 6 0 -2 93.27 180.69 175.99 <
5 6 0 -1 960.03 610.26 296.09 <
5 6 0 0 558.64 590.37 300.50 <
0 7 0 1 44.72 50.11 47.07 <
0 7 0 2 224.13 -79.87 114.19 <
1 7 0 -2 8.32 -3.04 28.55 <
1 7 0 -1 33.19 -7.74 44.64 <
1 7 0 0 30.08 49.35 44.49 <
1 7 0 1 749.26 732.49 205.29 o
1 7 0 2 141.80 -32.65 41.15 <
2 7 0 -2 31.01 28.09 16.70 <
2 7 0 -1 149.31 -36.59 33.56 <
2 7 0 0 42.80 96.72 76.38 <
2 7 0 1 290.22 61.95 116.01 <
2 7 0 2 2600.09 2559.01 433.51 o
3 7 0 -2 40.44 31.89 34.16 <
3 7 0 -1 893.41 642.75 242.34 <
3 7 0 0 183.12 -25.51 65.29 <
3 7 0 1 1434.85 1589.95 386.14 o
3 7 0 2 14.59 -15.03 44.03 <
4 7 0 -2 29.03 1.06 23.84 <
4 7 0 -1 126.36 132.71 176.29 <
4 7 0 0 28.23 303.69 285.92 <
4 7 0 1 97.17 261.47 155.64 <
4 7 0 2 47.37 -273.17 190.87 <
5 7 0 -2 31.31 -182.82 160.20 <
5 7 0 -1 397.28 186.16 148.50 <
5 7 0 0 39.75 190.87 134.99 <
0 8 0 0 50106.30 61871.40 1695.33 o
0 8 0 1 20.78 60.28 49.96 <
0 8 0 2 22.91 -34.92 70.15 <
1 8 0 -2 60.84 23.84 36.14 <
1 8 0 -1 1555.32 1482.29 235.05 o
1 8 0 0 496.66 291.39 107.35 <
1 8 0 1 362.80 330.71 155.34 <
1 8 0 2 175.17 81.39 47.22 <
2 8 0 -2 94.62 -11.84 16.10 <
2 8 0 -1 229.37 107.66 65.44 <
2 8 0 0 749.25 688.76 226.40 o
2 8 0 1 196.71 276.20 175.53 <
2 8 0 2 1845.57 1482.90 346.35 o
3 8 0 -2 199.63 39.02 61.04 <
3 8 0 -1 2207.02 1020.23 307.48 o
3 8 0 0 978.80 478.91 165.51 <
3 8 0 1 637.78 802.04 281.36 <
3 8 0 2 109.04 -0.30 23.23 <
4 8 0 -2 104.58 32.49 62.10 <
4 8 0 -1 582.09 315.99 146.68 <
4 8 0 0 1689.12 1918.08 489.85 o
4 8 0 1 858.18 844.40 333.30 <
4 8 0 2 304.34 201.80 185.70 <
5 8 0 -2 165.26 -74.56 106.14 <
5 8 0 -1 783.08 153.06 154.88 <
5 8 0 0 251.14 47.38 44.79 <
0 9 0 1 2347.27 2777.97 321.45 o
0 9 0 2 50.94 28.85 119.20 <
1 9 0 -2 223.66 137.87 66.96 <
1 9 0 -1 86.44 51.47 61.34 <
1 9 0 0 64.37 7.44 88.98 <
1 9 0 1 34.76 -32.34 58.31 <
1 9 0 2 9.16 -30.52 87.77 <
2 9 0 -2 342.95 211.52 132.56 <
2 9 0 -1 1339.12 783.21 258.59 o
2 9 0 0 158.19 58.92 47.98 <
2 9 0 1 669.24 1277.15 327.98 o
2 9 0 2 22.87 23.84 79.57 <
3 9 0 -2 78.69 -58.61 75.77 <
3 9 0 -1 100.07 25.66 34.62 <
3 9 0 0 87.15 40.85 29.31 <
3 9 0 1 103.59 83.82 92.32 <
3 9 0 2 94.57 57.40 88.22 <
4 9 0 -2 275.59 114.03 99.91 <
4 9 0 -1 682.61 185.70 146.38 <
4 9 0 0 240.04 145.31 147.74 <
4 9 0 1 143.17 297.01 198.91 <
4 9 0 2 66.58 -14.73 51.32 <
5 9 0 -2 60.98 203.32 207.57 <
5 9 0 -1 31.65 162.17 159.43 <
0 10 0 0 7059.67 8705.93 1268.35 o
0 10 0 1 239.75 196.94 119.04 <
0 10 0 2 298.09 -67.72 113.43 <
1 10 0 -2 25.93 10.33 48.13 <
1 10 0 -1 1895.66 2269.75 347.87 o
1 10 0 0 42773.10 39577.30 1381.62 o
1 10 0 1 1520.23 1830.17 290.02 o
1 10 0 2 59.15 104.01 129.98 <
2 10 0 -2 67.52 -107.35 101.89 <
2 10 0 -1 1528.86 1842.46 416.35 o
2 10 0 0 28540.10 30083.80 1635.35 o
2 10 0 1 860.46 882.51 288.81 o
2 10 0 2 2059.27 2175.15 446.72 o
3 10 0 -2 122.61 -154.73 123.90 <
3 10 0 -1 783.00 1151.43 341.34 o
3 10 0 0 12278.90 10348.90 1042.71 o
3 10 0 1 783.74 1565.20 405.27 o
3 10 0 2 34.96 182.82 146.07 <
4 10 0 -2 237.96 9.11 47.98 <
4 10 0 -1 1404.80 1532.25 439.59 o
4 10 0 0 2065.34 2728.77 595.68 o
4 10 0 1 668.66 737.20 315.99 <
4 10 0 2 246.92 414.23 244.47 <
5 10 0 -2 83.07 -88.22 118.44 <
5 10 0 -1 108.26 264.81 223.51 <
0 11 0 1 50.61 -19.74 122.84 <
0 11 0 2 72.77 4.56 92.47 <
1 11 0 -2 73.14 33.41 36.75 <
1 11 0 -1 50.69 56.64 33.25 <
1 11 0 0 38.29 -23.08 63.17 <
1 11 0 1 531.13 737.05 196.94 o
1 11 0 2 43.93 27.48 54.06 <
2 11 0 -2 0.65 271.19 218.96 <
2 11 0 -1 219.76 325.86 181.00 <
2 11 0 0 135.92 -17.31 67.11 <
2 11 0 1 129.06 328.89 181.30 <
2 11 0 2 2025.57 1553.36 406.03 o
3 11 0 -2 106.02 -134.84 122.69 <
3 11 0 -1 59.29 182.51 153.51 <
3 11 0 0 36.19 319.78 184.34 <
3 11 0 1 261.30 569.26 262.08 <
3 11 0 2 37.86 -128.76 122.69 <
4 11 0 -2 55.16 89.13 106.44 <
4 11 0 -1 225.13 262.84 184.34 <
4 11 0 0 80.53 -0.46 167.18 <
4 11 0 1 103.35 292.30 202.71 <
4 11 0 2 17.23 250.54 178.57 <
5 11 0 -2 70.31 -42.97 83.06 <
0 12 0 0 1188.13 1363.40 539.50 <
0 12 0 1 1075.14 1186.65 339.98 o
0 12 0 2 127.95 -31.74 105.23 <
1 12 0 -2 26.78 140.30 94.60 <
1 12 0 -1 1459.80 1197.59 287.89 o
1 12 0 0 19347.30 17436.60 1052.88 o
1 12 0 1 1605.28 1213.68 270.13 o
1 12 0 2 234.47 43.28 59.07 <
2 12 0 -2 96.42 50.87 78.96 <
2 12 0 -1 4167.48 2910.07 589.00 o
2 12 0 0 441.34 645.48 272.86 <
2 12 0 1 154.47 -74.40 90.65 <
2 12 0 2 139.93 313.40 180.85 <
3 12 0 -2 211.48 161.71 155.64 <
3 12 0 -1 119.27 330.87 246.29 <
3 12 0 0 3460.61 2252.75 518.09 o
3 12 0 1 1228.52 1820.75 476.33 o
3 12 0 2 175.86 449.00 232.93 <
4 12 0 -2 53.81 25.36 59.98 <
4 12 0 -1 1436.59 454.32 230.35 <
4 12 0 0 9.47 230.50 180.09 <
4 12 0 1 92.75 180.09 162.78 <
4 12 0 2 58.14 180.09 167.48 <
5 12 0 -2 202.98 -176.14 170.37 <
0 13 0 1 124.30 264.97 182.67 <
0 13 0 2 91.33 264.81 144.86 <
1 13 0 -2 113.15 -24.75 66.81 <
1 13 0 -1 2332.12 2078.58 402.23 o
1 13 0 0 68.21 82.75 101.74 <
1 13 0 1 1026.37 1035.72 240.67 o
1 13 0 2 346.36 93.23 119.65 <
2 13 0 -2 71.89 8.05 113.12 <
2 13 0 -1 39.54 52.08 63.47 <
2 13 0 0 78.24 -46.62 78.81 <
2 13 0 1 94.10 185.55 161.56 <
2 13 0 2 21.02 -8.81 37.05 <
3 13 0 -2 148.11 197.55 168.09 <
3 13 0 -1 1875.18 1071.10 387.35 <
3 13 0 0 104.70 -99.00 115.25 <
3 13 0 1 19.29 160.80 146.98 <
3 13 0 2 153.97 14.27 37.05 <
4 13 0 -2 4.89 -114.79 129.52 <
4 13 0 -1 71.24 55.27 90.50 <
4 13 0 0 44.69 71.37 103.86 <
4 13 0 1 174.86 425.01 255.55 <
4 13 0 2 12.64 6.07 38.11 <
0 14 0 0 26834.20 34691.30 2670.16 o
0 14 0 1 1862.77 2640.86 513.53 o
0 14 0 2 2.94 -123.30 113.12 <
1 14 0 -2 62.45 21.41 79.26 <
1 14 0 -1 364.32 374.29 160.04 <
1 14 0 0 462.53 567.89 195.27 <
1 14 0 1 2045.39 1300.54 305.51 o
1 14 0 2 188.70 215.01 121.02 <
2 14 0 -2 104.71 -310.82 216.53 <
2 14 0 -1 1231.86 1171.32 415.14 <
2 14 0 0 10634.90 10292.70 1189.08 o
2 14 0 1 1172.86 1651.75 472.54 o
2 14 0 2 105.14 103.25 116.01 <
3 14 0 -2 67.01 -24.14 83.82 <
3 14 0 -1 747.20 515.20 255.10 <
3 14 0 0 62.62 168.70 140.30 <
3 14 0 1 1774.03 2791.18 625.59 o
3 14 0 2 2.06 225.03 177.20 <
4 14 0 -2 118.60 -3.64 30.82 <
4 14 0 -1 207.79 270.89 204.53 <
4 14 0 0 2450.33 2035.00 565.77 o
4 14 0 1 213.41 736.44 344.08 <
0 15 0 1 447.62 337.55 215.16 <
0 15 0 2 15.60 5.31 82.75 <
1 15 0 -2 48.80 -115.55 108.87 <
1 15 0 -1 89.89 218.50 134.53 <
1 15 0 0 70.97 -25.05 102.95 <
1 15 0 1 1248.27 994.27 279.54 o
1 15 0 2 3.96 -192.99 133.77 <
2 15 0 -2 84.85 47.53 96.12 <
2 15 0 -1 52.14 -232.32 192.54 <
2 15 0 0 151.96 -132.86 142.28 <
2 15 0 1 474.69 309.91 192.38 <
2 15 0 2 419.02 497.89 287.74 <
3 15 0 -2 232.53 -73.64 110.09 <
3 15 0 -1 267.76 57.24 97.18 <
3 15 0 0 72.04 34.01 30.37 <
3 15 0 1 108.89 387.50 257.07 <
3 15 0 2 79.07 152.60 156.85 <
4 15 0 -2 102.46 -243.86 201.19 <
4 15 0 -1 21.89 222.15 193.90 <
4 15 0 0 89.51 152.60 160.50 <
0 16 0 0 723.23 1215.35 506.55 <
0 16 0 1 4700.32 8082.61 910.45 o
0 16 0 2 42.86 29.15 84.73 <
1 16 0 -2 109.85 120.56 117.38 <
1 16 0 -1 2402.75 1771.25 397.37 o
1 16 0 0 16778.20 13705.80 1110.88 o
1 16 0 1 343.04 1089.17 311.28 o
1 16 0 2 29.25 -101.58 114.64 <
2 16 0 -2 240.21 229.13 205.60 <
2 16 0 -1 1002.23 524.47 286.83 <
2 16 0 0 4618.90 4425.77 848.80 o
2 16 0 1 3239.76 3987.25 801.73 o
2 16 0 2 171.30 191.47 199.52 <
3 16 0 -2 196.93 -301.56 228.68 <
3 16 0 -1 1559.24 821.47 369.89 <
3 16 0 0 3612.86 4120.72 832.25 o
3 16 0 1 326.40 211.37 243.86 <
3 16 0 2 15.63 -418.63 260.87 <
4 16 0 -2 197.45 127.85 153.21 <
4 16 0 -1 327.45 -32.19 79.41 <
0 17 0 1 771.74 503.97 201.04 <
0 17 0 2 43.69 146.38 111.30 <
1 17 0 -2 39.30 73.95 123.60 <
1 17 0 -1 155.24 -18.83 130.59 <
1 17 0 0 19.26 121.17 162.47 <
1 17 0 1 100.21 11.84 62.41 <
1 17 0 2 83.58 59.98 99.76 <
2 17 0 -2 74.46 -397.07 278.48 <
2 17 0 -1 818.80 536.77 359.57 <
2 17 0 0 23.29 -313.71 239.76 <
2 17 0 1 47.57 -187.68 181.30 <
2 17 0 2 401.19 408.91 259.80 <
3 17 0 -2 25.66 28.70 121.78 <
3 17 0 -1 147.61 72.13 167.79 <
3 17 0 0 91.28 -68.03 112.52 <
3 17 0 1 371.91 759.67 377.48 <
3 17 0 2 6.15 -218.81 196.64 <
4 17 0 -2 55.25 -24.90 74.86 <
0 18 0 0 33165.70 38008.90 2836.13 o
0 18 0 1 20.94 -147.74 123.75 <
0 18 0 2 19.94 -31.74 118.89 <
1 18 0 -2 82.21 -1.52 77.59 <
1 18 0 -1 1792.17 1390.88 384.16 o
1 18 0 0 2610.54 1900.47 437.76 o
1 18 0 1 627.14 789.13 295.18 <
1 18 0 2 8.69 -120.41 148.96 <
2 18 0 -2 15.60 -194.06 202.41 <
2 18 0 -1 145.27 98.24 146.53 <
2 18 0 0 4762.93 3216.19 796.11 o
2 18 0 1 16.56 -84.12 130.59 <
2 18 0 2 809.04 296.09 234.14 <
3 18 0 -2 127.55 -124.97 164.60 <
3 18 0 -1 584.26 716.40 398.29 <
3 18 0 0 888.51 582.32 336.03 <
3 18 0 1 345.29 474.81 301.41 <
3 18 0 2 90.52 -203.47 196.64 <
0 19 0 1 259.72 106.75 108.57 <
0 19 0 2 3.77 191.93 143.34 <
1 19 0 -2 55.18 33.41 90.35 <
1 19 0 -1 553.98 624.08 276.66 <
1 19 0 0 28.74 101.43 115.86 <
1 19 0 1 316.40 -83.21 127.09 <
1 19 0 2 100.21 301.71 175.07 <
2 19 0 -2 58.35 235.96 230.50 <
2 19 0 -1 311.48 371.11 283.34 <
2 19 0 0 80.29 -136.66 172.95 <
2 19 0 1 263.23 35.99 88.83 <
2 19 0 2 575.96 706.98 374.45 <
3 19 0 -2 44.85 312.19 265.57 <
3 19 0 -1 81.93 449.61 312.80 <
3 19 0 0 52.58 -104.16 151.08 <
3 19 0 1 440.51 90.35 139.24 <
0 20 0 0 13795.20 15033.20 1795.09 o
0 20 0 1 208.38 184.49 148.81 <
0 20 0 2 21.73 -253.27 165.81 <
1 20 0 -2 115.65 -44.95 125.12 <
1 20 0 -1 2672.78 2727.86 542.99 o
1 20 0 0 608.97 547.24 262.54 <
1 20 0 1 1536.74 1050.00 311.28 o
1 20 0 2 81.29 90.95 145.92 <
2 20 0 -2 113.38 -692.86 406.33 <
2 20 0 -1 508.63 37.81 97.03 <
2 20 0 0 4928.23 3358.47 858.98 o
2 20 0 1 109.10 283.19 251.15 <
2 20 0 2 15.90 -13.06 59.83 <
3 20 0 -2 196.03 441.71 325.10 <
3 20 0 -1 514.84 458.87 319.33 <
0 21 0 1 185.10 503.97 239.46 <
0 21 0 2 30.55 -69.85 94.45 <
1 21 0 -2 49.85 68.63 129.52 <
1 21 0 -1 11.30 -3.49 110.09 <
1 21 0 0 44.14 1.37 154.73 <
1 21 0 1 51.30 -54.82 114.64 <
1 21 0 2 216.47 9.11 54.21 <
2 21 0 -2 222.34 227.92 240.37 <
2 21 0 -1 51.60 -157.01 197.85 <
2 21 0 0 65.45 204.08 220.63 <
2 21 0 1 310.74 663.86 430.48 <
2 21 0 2 115.43 387.96 296.55 <
0 22 0 0 1276.86 1546.67 577.91 <
0 22 0 1 866.79 628.93 275.60 <
0 22 0 2 34.66 149.26 126.79 <
1 22 0 -2 47.95 189.04 131.50 <
1 22 0 -1 343.43 334.97 201.50 <
1 22 0 0 9917.83 8671.76 979.84 o
1 22 0 1 4302.92 5371.30 780.17 o
1 22 0 2 16.64 7.74 205.90 <
2 22 0 -2 110.68 -244.16 251.00 <
2 22 0 -1 577.46 308.39 192.84 <
2 22 0 0 258.82 -215.01 235.51 <
2 22 0 1 290.64 75.92 139.54 <
0 23 0 1 807.11 1163.12 365.64 o
0 23 0 2 63.62 44.79 172.80 <
1 23 0 -2 15.42 283.80 175.53 <
1 23 0 -1 59.94 48.89 127.70 <
1 23 0 0 3.11 409.67 218.35 <
1 23 0 1 261.63 799.76 300.95 <
1 23 0 2 23.16 3.19 43.58 <
0 24 0 0 433.15 -383.40 293.21 <
0 24 0 1 1545.68 1114.98 353.95 o
0 24 0 2 16.45 -52.08 136.81 <
1 24 0 -2 6.57 -235.81 225.03 <
1 24 0 -1 130.83 33.71 150.02 <
1 24 0 0 943.34 864.75 312.34 <
1 24 0 1 187.10 -425.31 312.04 <
1 25 0 -2 177.56 213.19 215.77 <
1 -24 1 1 171.68 730.67 419.69 <
1 -24 1 2 73.16 193.75 215.31 <
-1 -23 1 -2 166.61 -0.76 40.09 <
-1 -23 1 -1 1691.85 1978.21 649.13 o
-1 -23 1 0 683.57 994.27 452.19 <
0 -23 1 -2 374.52 563.03 240.98 <
0 -23 1 -1 318.27 320.69 182.21 <
0 -23 1 0 305.01 297.61 207.42 <
0 -23 1 1 142.59 159.28 151.84 <
0 -23 1 2 26.00 217.74 133.47 <
1 -23 1 -2 14.89 26.57 100.22 <
1 -23 1 -1 239.15 354.25 186.62 <
1 -23 1 1 377.21 717.00 395.55 <
1 -23 1 2 34.83 280.91 243.25 <
2 -23 1 -2 187.61 293.97 261.02 <
2 -23 1 -1 18.03 -86.70 152.45 <
2 -23 1 0 341.54 584.60 379.61 <
-2 -22 1 -2 19.73 79.11 148.65 <
-2 -22 1 -1 36.17 622.10 388.42 <
-2 -22 1 0 199.67 312.34 269.52 <
-2 -22 1 1 855.26 465.86 321.91 <
-2 -22 1 2 37.69 276.81 240.98 <
-1 -22 1 -2 9.01 -34.16 95.05 <
-1 -22 1 -1 315.38 461.60 225.18 <
-1 -22 1 0 417.79 308.39 276.66 <
-1 -22 1 1 704.53 848.50 431.39 <
-1 -22 1 2 362.43 138.33 171.43 <
0 -22 1 -2 44.92 -170.22 130.43 <
0 -22 1 -1 186.30 55.73 91.71 <
0 -22 1 0 421.52 -3.95 148.35 <
0 -22 1 1 76.43 -11.08 142.28 <
0 -22 1 2 38.81 200.74 137.87 <
1 -22 1 -2 16.38 65.44 144.71 <
1 -22 1 -1 102.69 77.74 90.65 <
1 -22 1 0 244.48 106.29 146.98 <
1 -22 1 1 992.47 1089.47 308.85 o
1 -22 1 2 765.64 868.54 289.26 o
2 -22 1 -2 5.81 285.16 185.86 <
2 -22 1 -1 54.12 162.78 136.05 <
2 -22 1 0 75.73 -224.58 233.08 <
2 -22 1 1 44.72 118.29 173.56 <
3 -22 1 -2 34.16 5.16 59.52 <
3 -22 1 -1 68.13 48.89 121.63 <
-3 -21 1 2 2.86 99.61 244.77 <
-2 -21 1 -2 121.15 316.14 265.12 <
-2 -21 1 -1 769.85 812.97 433.36 <
-2 -21 1 0 120.16 322.36 267.85 <
-2 -21 1 1 14.65 -198.31 206.20 <
-2 -21 1 2 59.79 26.88 240.06 <
-1 -21 1 -2 329.08 441.86 207.87 <
-1 -21 1 -1 244.46 54.36 91.71 <
-1 -21 1 0 328.08 683.90 315.99 <
-1 -21 1 1 100.62 123.14 258.44 <
-1 -21 1 2 3.97 -118.74 152.91 <
0 -21 1 -2 241.62 260.56 139.54 <
0 -21 1 -1 1149.75 1070.19 312.64 o
0 -21 1 0 219.13 83.97 100.22 <
0 -21 1 1 13.11 -192.99 188.44 <
0 -21 1 2 9.12 129.67 136.05 <
1 -21 1 -2 29.65 122.84 108.11 <
1 -21 1 -1 1187.84 1160.69 327.53 o
1 -21 1 0 377.58 356.53 182.21 <
1 -21 1 1 245.88 171.58 176.90 <
1 -21 1 2 107.91 -43.88 142.88 <
2 -21 1 -2 297.11 -97.64 174.77 <
2 -21 1 -1 76.28 175.07 166.57 <
2 -21 1 0 267.51 14.58 72.73 <
2 -21 1 1 84.24 -447.63 317.66 <
3 -21 1 -2 18.47 -48.29 117.22 <
3 -21 1 -1 484.85 75.01 140.15 <
-3 -20 1 -2 13.58 209.24 291.54 <
-3 -20 1 -1 184.62 452.49 331.78 <
-3 -20 1 0 126.18 88.68 153.06 <
-3 -20 1 1 19.31 -25.97 234.45 <
-3 -20 1 2 73.45 40.54 250.24 <
-2 -20 1 -2 2.77 13.67 173.71 <
-2 -20 1 -1 99.64 45.10 102.49 <
-2 -20 1 0 902.09 625.29 362.60 <
-2 -20 1 1 477.31 -126.79 161.56 <
-2 -20 1 2 189.66 -246.14 217.59 <
-1 -20 1 -2 7.60 3.34 195.12 <
-1 -20 1 -1 25.68 -62.56 106.90 <
-1 -20 1 0 178.35 83.36 114.49 <
-1 -20 1 1 46.16 -70.30 117.38 <
-1 -20 1 2 213.05 239.00 146.23 <
0 -20 1 -2 33.12 89.44 161.71 <
0 -20 1 -1 53.03 -297.46 161.87 <
0 -20 1 0 98.65 74.40 151.69 <
0 -20 1 1 125.39 75.92 107.50 <
0 -20 1 2 147.86 76.53 114.03 <
1 -20 1 -2 22.69 50.11 85.64 <
1 -20 1 -1 147.78 212.43 166.27 <
1 -20 1 0 201.70 353.80 168.24 <
1 -20 1 1 1491.50 1616.98 529.17 o
1 -20 1 2 148.66 54.36 90.04 <
2 -20 1 -2 125.74 -97.03 133.01 <
2 -20 1 -1 284.93 -167.48 194.06 <
2 -20 1 0 786.13 176.90 199.98 <
2 -20 1 1 141.21 97.18 188.29 <
2 -20 1 2 405.67 288.81 313.86 <
3 -20 1 -2 11.14 265.12 248.87 <
3 -20 1 -1 14.14 242.95 233.99 <
3 -20 1 0 68.99 -229.43 223.51 <
-3 -19 1 -2 19.49 264.97 266.64 <
-3 -19 1 -1 794.01 495.62 300.19 <
-3 -19 1 0 660.69 442.93 303.69 <
-3 -19 1 1 634.50 601.15 362.75 <
-3 -19 1 2 99.12 205.29 211.21 <
-2 -19 1 -2 744.67 399.35 285.62 <
-2 -19 1 -1 141.19 -275.14 240.52 <
-2 -19 1 0 1524.40 1213.23 478.15 <
-2 -19 1 1 2.89 -124.97 142.88 <
-2 -19 1 2 61.30 52.08 203.62 <
-1 -19 1 -2 95.20 66.66 115.86 <
-1 -19 1 -1 407.79 465.25 289.41 <
-1 -19 1 1 113.54 344.68 263.14 <
-1 -19 1 2 83.07 -307.63 157.46 <
0 -19 1 -2 63.15 -42.97 135.75 <
0 -19 1 -1 38.71 88.68 99.00 <
0 -19 1 0 63.61 236.27 152.45 <
0 -19 1 1 66.42 46.62 128.16 <
0 -19 1 2 123.68 113.73 144.40 <
1 -19 1 -2 440.22 302.32 169.76 <
1 -19 1 -1 5.99 -44.95 105.83 <
1 -19 1 0 2818.43 2729.84 472.99 o
1 -19 1 1 192.97 80.48 158.52 <
1 -19 1 2 138.03 4.56 86.70 <
2 -19 1 -2 59.89 -225.64 210.15 <
2 -19 1 -1 9.45 113.73 155.94 <
2 -19 1 0 1690.33 738.57 395.40 <
2 -19 1 1 41.57 41.76 78.96 <
2 -19 1 2 37.00 -28.55 79.72 <
3 -19 1 -2 94.11 -11.39 62.41 <
3 -19 1 -1 147.05 -7.74 56.79 <
3 -19 1 0 551.22 274.53 234.14 <
4 -19 1 -2 25.80 437.46 304.14 <
-4 -18 1 1 15.49 -132.71 176.90 <
-4 -18 1 2 93.98 -336.79 276.20 <
-3 -18 1 -2 9.28 -517.63 320.24 <
-3 -18 1 -1 25.97 -182.67 196.18 <
-3 -18 1 0 1067.91 467.07 354.55 <
-3 -18 1 1 411.95 806.90 441.86 <
-3 -18 1 2 30.75 173.86 186.46 <
-2 -18 1 -2 6.49 -267.24 230.19 <
-2 -18 1 -1 258.39 -210.15 202.86 <
-2 -18 1 0 4911.88 3804.28 855.33 o
-2 -18 1 1 323.09 389.17 264.97 <
-2 -18 1 2 461.23 218.35 162.17 <
-1 -18 1 -2 2.20 138.18 252.06 <
-1 -18 1 1 397.72 383.40 189.35 <
-1 -18 1 2 36.32 -224.73 131.19 <
0 -18 1 -2 25.98 -10.78 70.15 <
0 -18 1 -1 28.43 -57.40 70.46 <
0 -18 1 0 10704.40 12292.90 985.77 o
0 -18 1 1 403.49 516.87 196.03 <
0 -18 1 2 749.28 1050.75 279.70 o
1 -18 1 -2 50.96 -119.65 99.31 <
1 -18 1 -1 265.69 98.85 95.05 <
1 -18 1 0 3750.82 3844.37 554.68 o
1 -18 1 1 377.07 640.78 234.29 <
1 -18 1 2 218.78 208.48 174.77 <
2 -18 1 -2 88.23 60.74 187.22 <
2 -18 1 -1 108.62 300.35 237.63 <
2 -18 1 0 5541.17 3017.88 757.24 o
2 -18 1 1 1411.84 1123.34 438.52 <
2 -18 1 2 93.73 125.12 151.08 <
3 -18 1 -2 116.20 -139.85 168.24 <
3 -18 1 -1 146.98 60.74 132.10 <
3 -18 1 0 488.02 164.14 173.40 <
4 -18 1 -2 94.20 304.29 243.56 <
-4 -17 1 -1 80.90 327.98 251.45 <
-4 -17 1 0 81.20 60.28 117.22 <
-4 -17 1 1 0.63 52.84 122.39 <
-4 -17 1 2 101.32 -303.99 253.27 <
-3 -17 1 -2 34.92 123.60 153.36 <
-3 -17 1 -1 1933.58 2162.09 617.85 o
-3 -17 1 0 1992.18 2072.36 631.21 o
-3 -17 1 1 56.68 106.59 145.01 <
-3 -17 1 2 95.07 -257.98 218.81 <
-2 -17 1 -2 1450.90 1077.78 445.96 <
-2 -17 1 -1 501.13 372.32 264.36 <
-2 -17 1 0 836.74 652.93 334.05 <
-2 -17 1 1 16.51 -8.81 119.65 <
-2 -17 1 2 136.36 -13.06 93.08 <
-1 -17 1 -2 56.69 66.81 53.75 <
-1 -17 1 1 97.82 161.26 150.78 <
-1 -17 1 2 48.37 -82.75 109.48 <
0 -17 1 -2 25.00 -46.77 60.43 <
0 -17 1 -1 1290.86 1863.27 372.17 o
0 -17 1 0 1604.32 1527.69 329.04 o
0 -17 1 1 84.50 149.41 73.19 <
0 -17 1 2 22.89 13.36 115.70 <
1 -17 1 -2 712.89 371.26 163.23 <
1 -17 1 -1 842.66 765.59 229.13 o
1 -17 1 0 5892.15 6533.05 687.70 o
1 -17 1 1 1805.10 2062.18 382.80 o
1 -17 1 2 13.07 -217.59 195.73 <
2 -17 1 -2 23.02 5.16 84.73 <
2 -17 1 -1 581.79 214.71 196.03 <
2 -17 1 0 289.50 347.27 247.81 <
2 -17 1 1 193.84 -62.56 107.66 <
2 -17 1 2 47.80 104.92 129.83 <
3 -17 1 -2 252.73 30.06 70.00 <
3 -17 1 -1 17.44 79.57 119.20 <
3 -17 1 0 1375.46 1944.81 556.66 o
3 -17 1 1 192.29 71.97 107.35 <
4 -17 1 -2 10.21 -134.99 156.40 <
4 -17 1 -1 358.01 478.46 317.35 <
-4 -16 1 -1 81.03 126.49 125.88 <
-4 -16 1 0 22.63 -229.89 208.48 <
-4 -16 1 1 126.18 106.90 144.10 <
-4 -16 1 2 83.11 -74.40 124.36 <
-3 -16 1 -2 43.31 127.85 149.11 <
-3 -16 1 -1 553.32 659.76 301.71 <
-3 -16 1 0 1658.12 945.98 403.14 <
-3 -16 1 1 199.70 -29.00 167.33 <
-3 -16 1 2 7.95 -196.64 182.82 <
-2 -16 1 -2 38.16 -45.40 91.41 <
-2 -16 1 -1 155.43 206.05 201.34 <
-2 -16 1 0 332.84 354.86 238.85 <
-2 -16 1 1 66.20 96.57 114.19 <
-2 -16 1 2 235.07 52.69 177.96 <
-1 -16 1 -2 34.45 64.69 130.74 <
-1 -16 1 1 74.94 69.85 173.40 <
-1 -16 1 2 29.58 153.36 158.37 <
0 -16 1 -2 47.05 -6.07 61.19 <
0 -16 1 -1 219.27 58.16 51.02 <
0 -16 1 0 2689.54 2273.09 392.06 o
0 -16 1 1 1817.46 1523.44 316.74 o
0 -16 1 2 146.57 237.94 124.97 <
1 -16 1 -2 17.92 -167.79 107.66 <
1 -16 1 -1 91.99 37.35 56.94 <
1 -16 1 0 4919.26 4425.47 799.61 o
1 -16 1 1 1012.67 1214.75 427.29 <
1 -16 1 2 11.20 -502.60 283.64 <
2 -16 1 -2 81.26 56.33 99.15 <
2 -16 1 -1 66.65 10.78 61.80 <
2 -16 1 0 415.59 148.81 155.64 <
2 -16 1 1 1774.17 2316.97 596.74 o
2 -16 1 2 387.95 34.77 71.21 <
3 -16 1 -2 1.39 290.93 228.22 <
3 -16 1 -1 382.79 129.83 137.87 <
3 -16 1 0 2235.31 2336.41 599.63 o
3 -16 1 1 799.55 1713.09 494.55 o
4 -16 1 -2 101.47 187.22 175.53 <
4 -16 1 -1 26.86 49.65 91.87 <
-4 -15 1 -2 192.52 314.01 196.79 <
-4 -15 1 -1 572.96 669.63 339.83 <
-4 -15 1 0 20.31 15.49 59.67 <
-4 -15 1 1 477.21 463.73 268.61 <
-4 -15 1 2 41.91 -1.82 63.93 <
-3 -15 1 -2 66.98 44.95 128.76 <
-3 -15 1 -1 2036.24 2294.35 603.73 o
-3 -15 1 0 498.99 79.57 93.84 <
-3 -15 1 1 3.36 -18.52 63.01 <
-3 -15 1 2 6.29 56.33 98.09 <
-2 -15 1 -2 53.02 7.44 130.89 <
-2 -15 1 -1 1358.50 2058.39 551.19 o
-2 -15 1 0 1454.04 1271.08 426.83 <
-2 -15 1 1 837.90 448.09 275.60 <
-2 -15 1 2 84.35 -86.25 85.64 <
-1 -15 1 -2 445.34 113.73 92.78 <
-1 -15 1 1 66.16 3.95 58.46 <
-1 -15 1 2 36.31 -202.41 154.58 <
0 -15 1 -2 259.67 233.54 123.30 <
0 -15 1 -1 668.91 948.87 252.36 o
0 -15 1 0 502.45 508.07 203.01 <
0 -15 1 1 345.69 399.20 155.03 <
0 -15 1 2 200.36 -34.01 85.94 <
1 -15 1 -2 169.81 -4.25 84.88 <
1 -15 1 -1 1405.94 1120.15 377.48 <
1 -15 1 0 1223.17 1151.73 380.82 o
1 -15 1 1 407.78 681.47 297.92 <
1 -15 1 2 60.76 49.65 101.89 <
2 -15 1 -2 311.30 249.93 195.73 <
2 -15 1 -1 265.88 56.03 141.06 <
2 -15 1 0 1327.80 881.45 386.44 <
2 -15 1 1 54.49 121.02 99.46 <
2 -15 1 2 595.40 256.16 221.99 <
3 -15 1 -2 220.55 -72.28 107.35 <
3 -15 1 -1 6.35 -134.84 139.85 <
3 -15 1 0 483.13 202.86 164.60 <
3 -15 1 1 105.95 5.47 34.77 <
3 -15 1 2 1.08 -338.76 198.46 <
4 -15 1 -2 89.11 207.11 175.68 <
4 -15 1 -1 252.20 262.54 191.78 <
-5 -14 1 2 80.35 -464.94 288.50 <
-4 -14 1 -2 4.16 -146.68 149.11 <
-4 -14 1 -1 43.16 243.10 228.07 <
-4 -14 1 0 749.66 1131.08 443.08 <
-4 -14 1 1 71.42 -162.93 163.84 <
-4 -14 1 2 18.47 124.51 147.29 <
-3 -14 1 -2 19.16 147.14 143.19 <
-3 -14 1 -1 93.88 152.75 225.49 <
-3 -14 1 0 11747.20 12048.30 1329.39 o
-3 -14 1 1 276.97 556.66 282.43 <
-3 -14 1 2 363.69 78.35 107.50 <
-2 -14 1 -2 61.06 178.72 155.94 <
-2 -14 1 -1 158.33 138.33 140.30 <
-2 -14 1 0 4064.77 4358.96 763.77 o
-2 -14 1 1 90.15 -13.51 82.45 <
-2 -14 1 2 129.84 -206.66 162.32 <
-1 -14 1 -2 52.35 41.76 121.17 <
-1 -14 1 1 83.86 17.92 73.34 <
-1 -14 1 2 446.71 749.35 301.71 <
0 -14 1 -2 70.93 -56.79 95.96 <
0 -14 1 -1 380.81 412.41 157.16 <
0 -14 1 0 2155.27 2014.05 352.88 o
0 -14 1 1 333.10 357.44 139.39 <
0 -14 1 2 48.64 39.18 76.53 <
1 -14 1 -2 63.46 82.60 77.14 <
1 -14 1 -1 308.80 689.97 281.82 <
1 -14 1 0 31726.50 30506.20 1916.72 o
1 -14 1 1 3640.45 3512.59 657.18 o
1 -14 1 2 802.35 320.85 171.13 <
2 -14 1 -2 65.32 16.70 65.60 <
2 -14 1 -1 55.12 65.60 122.23 <
2 -14 1 0 3416.78 2342.03 575.49 o
2 -14 1 1 177.70 140.46 179.63 <
2 -14 1 2 82.21 112.67 138.63 <
3 -14 1 -2 77.54 18.52 55.73 <
3 -14 1 -1 307.56 145.31 137.11 <
3 -14 1 0 12030.40 11112.00 1162.21 o
3 -14 1 1 1126.53 1170.56 380.06 o
3 -14 1 2 24.03 4.40 154.12 <
4 -14 1 -2 14.75 74.40 57.09 <
4 -14 1 -1 21.79 132.71 157.92 <
4 -14 1 0 393.10 377.94 216.23 <
5 -14 1 -2 37.63 69.70 153.06 <
-5 -13 1 1 48.44 227.76 195.27 <
-5 -13 1 2 83.09 -258.44 207.42 <
-4 -13 1 -2 84.18 234.90 181.91 <
-4 -13 1 -1 1742.10 2655.74 611.93 o
-4 -13 1 0 4160.62 3922.41 760.73 o
-4 -13 1 1 86.46 -79.41 110.54 <
-4 -13 1 2 118.15 81.39 186.46 <
-3 -13 1 -2 1.20 -2.13 35.83 <
-3 -13 1 -1 1249.43 1918.08 508.98 o
-3 -13 1 0 1066.67 885.25 337.40 <
-3 -13 1 1 7.18 -18.37 61.04 <
-3 -13 1 2 210.85 76.07 86.85 <
-2 -13 1 -2 397.99 215.77 160.50 <
-2 -13 1 -1 4475.32 6025.14 867.18 o
-2 -13 1 0 20526.80 20754.50 1605.59 o
-2 -13 1 1 62.72 55.57 198.31 <
-2 -13 1 2 133.65 -41.00 120.41 <
-1 -13 1 -2 20.29 -34.32 123.30 <
-1 -13 1 -1 4069.92 3098.66 605.25 o
-1 -13 1 1 26.82 50.56 54.06 <
-1 -13 1 2 168.55 71.06 55.73 <
0 -13 1 -2 118.23 98.70 26.72 o
0 -13 1 -1 2756.90 3561.33 625.14 o
0 -13 1 0 41805.20 45384.40 1561.71 o
0 -13 1 1 316.33 214.71 107.35 <
0 -13 1 2 6.73 -28.85 47.98 <
1 -13 1 -2 11.99 59.52 105.99 <
1 -13 1 -1 431.23 290.02 178.57 <
1 -13 1 0 3185.78 3424.06 615.88 o
1 -13 1 1 2778.45 2806.97 572.30 o
1 -13 1 2 22.89 -90.80 80.02 <
2 -13 1 -2 269.16 61.04 90.65 <
2 -13 1 -1 35.46 118.44 106.90 <
2 -13 1 0 20400.80 20888.60 1557.00 o
2 -13 1 1 433.83 546.79 239.30 <
2 -13 1 2 1495.17 1229.78 358.50 o
3 -13 1 -2 37.64 114.19 88.83 <
3 -13 1 -1 38.54 64.99 133.62 <
3 -13 1 0 488.00 373.99 221.24 <
3 -13 1 1 252.99 140.00 37.96 o
3 -13 1 2 2.61 100.67 101.74 <
4 -13 1 -2 51.33 -95.51 110.54 <
4 -13 1 -1 204.63 133.93 128.16 <
4 -13 1 0 4205.95 5097.07 780.78 o
5 -13 1 -2 93.75 -133.93 138.02 <
-5 -12 1 0 339.92 35.53 82.30 <
-5 -12 1 1 313.41 215.62 186.62 <
-5 -12 1 2 92.63 22.32 67.72 <
-4 -12 1 -2 7.65 -15.64 51.63 <
-4 -12 1 -1 574.21 1236.31 403.45 o
-4 -12 1 0 1686.82 1989.15 516.11 o
-4 -12 1 1 99.75 48.74 86.25 <
-4 -12 1 2 71.37 161.41 150.63 <
-3 -12 1 -2 12.09 5.01 31.89 <
-3 -12 1 -1 212.13 67.87 142.58 <
-3 -12 1 0 3333.17 3224.69 625.29 o
-3 -12 1 1 61.98 -45.70 166.72 <
-3 -12 1 2 313.67 98.85 81.39 <
-2 -12 1 -2 16.66 113.88 120.26 <
-2 -12 1 -1 994.47 1439.02 435.79 o
-2 -12 1 0 4611.91 4584.30 724.90 o
-2 -12 1 1 619.46 219.57 158.22 <
-2 -12 1 2 57.68 -239.91 159.59 <
-1 -12 1 -2 20.64 -47.22 131.65 <
-1 -12 1 -1 3547.07 3668.23 625.75 o
-1 -12 1 1 461.06 367.61 78.65 o
-1 -12 1 2 461.50 401.78 111.61 o
0 -12 1 -2 12.05 -22.93 47.53 <
0 -12 1 -1 97.39 212.28 133.93 <
0 -12 1 0 28366.00 29235.10 1206.39 o
0 -12 1 1 577.92 508.67 106.44 o
0 -12 1 2 25.31 72.13 50.56 <
1 -12 1 -2 97.05 -60.74 59.37 <
1 -12 1 -1 885.98 729.46 326.77 <
1 -12 1 0 12490.80 12071.20 1106.18 o
1 -12 1 1 13357.90 15358.30 1279.58 o
1 -12 1 2 37.43 -44.34 69.54 <
2 -12 1 -2 166.76 -99.31 105.99 <
2 -12 1 -1 56.51 38.87 51.47 <
2 -12 1 0 5756.87 6018.46 779.41 o
2 -12 1 1 476.94 772.43 285.92 <
2 -12 1 2 479.70 349.24 151.39 <
3 -12 1 -2 182.25 -1.37 52.54 <
3 -12 1 -1 718.77 253.27 151.24 <
3 -12 1 0 3630.68 3306.39 575.33 o
3 -12 1 1 2243.32 3853.78 607.83 o
3 -12 1 2 17.90 14.12 42.06 <
4 -12 1 -2 168.25 -45.10 79.72 <
4 -12 1 -1 184.72 23.84 92.17 <
4 -12 1 0 2209.40 2302.70 502.45 o
4 -12 1 1 141.47 276.96 174.77 <
5 -12 1 -2 96.71 89.89 110.85 <
-5 -11 1 0 44.32 344.08 228.52 <
-5 -11 1 1 160.22 20.95 61.50 <
-5 -11 1 2 79.93 -22.17 63.47 <
-4 -11 1 -2 592.84 740.69 305.51 <
-4 -11 1 -1 1415.73 1684.09 465.86 o
-4 -11 1 0 226.00 524.16 240.98 <
-4 -11 1 1 72.79 -17.46 54.51 <
-4 -11 1 2 97.55 -114.49 179.02 <
-3 -11 1 -2 234.46 302.02 170.22 <
-3 -11 1 -1 1586.68 2419.01 517.48 o
-3 -11 1 0 114.55 499.41 247.35 <
-3 -11 1 1 772.83 629.54 273.32 <
-3 -11 1 2 106.91 -83.82 171.13 <
-2 -11 1 -2 273.75 194.66 139.70 <
-2 -11 1 -1 2827.68 3670.35 611.02 o
-2 -11 1 0 3824.93 3898.57 629.39 o
-2 -11 1 1 110.92 -57.70 62.10 <
-2 -11 1 2 26.55 -225.79 148.20 <
-1 -11 1 -2 408.91 77.14 97.79 <
-1 -11 1 -1 49.77 167.33 69.70 <
-1 -11 1 1 201.68 157.31 75.47 <
-1 -11 1 2 33.72 40.39 44.95 <
0 -11 1 -2 248.37 -56.49 74.10 <
0 -11 1 -1 1030.84 1131.08 313.25 o
0 -11 1 0 442.42 244.32 141.52 <
0 -11 1 1 317.95 373.69 106.29 o
0 -11 1 2 77.46 -39.63 45.86 <
1 -11 1 -2 220.59 168.09 73.80 <
1 -11 1 -1 57.21 14.73 92.78 <
1 -11 1 0 281.46 91.71 64.69 <
1 -11 1 1 1523.77 1510.54 201.34 o
1 -11 1 2 116.62 114.79 32.95 o
2 -11 1 -2 446.24 -16.10 27.48 <
2 -11 1 -1 214.16 -35.99 72.28 <
2 -11 1 0 3879.82 3807.32 582.93 o
2 -11 1 1 537.50 267.55 173.25 <
2 -11 1 2 546.94 371.41 161.71 <
3 -11 1 -2 158.99 364.42 203.32 <
3 -11 1 -1 349.00 188.59 101.43 <
3 -11 1 0 213.00 17.01 66.05 <
3 -11 1 1 402.26 164.45 104.32 <
3 -11 1 2 0.21 -213.79 136.96 <
4 -11 1 -2 154.86 -88.22 98.85 <
4 -11 1 -1 121.97 153.66 127.55 <
4 -11 1 0 238.08 202.10 138.02 <
4 -11 1 1 100.19 12.60 88.07 <
5 -11 1 -2 134.38 58.76 90.65 <
5 -11 1 -1 154.44 105.07 117.83 <
-5 -10 1 -1 159.50 302.32 213.79 <
-5 -10 1 0 119.02 127.40 140.46 <
-5 -10 1 1 142.40 85.79 163.38 <
-5 -10 1 2 5.90 80.02 109.78 <
-4 -10 1 -2 23.93 10.78 42.97 <
-4 -10 1 -1 117.57 167.03 143.04 <
-4 -10 1 0 1763.65 1421.86 415.75 o
-4 -10 1 1 708.36 328.44 181.15 <
-4 -10 1 2 141.21 129.98 126.33 <
-3 -10 1 -2 14.24 90.65 167.63 <
-3 -10 1 -1 999.72 1188.63 349.54 o
-3 -10 1 0 820.24 536.01 210.46 <
-3 -10 1 1 90.01 -16.55 128.31 <
-3 -10 1 2 123.54 -17.01 94.29 <
-2 -10 1 -2 89.81 49.80 100.52 <
-2 -10 1 -1 472.64 715.94 246.29 <
-2 -10 1 0 6901.96 6408.69 763.32 o
-2 -10 1 1 405.39 161.11 111.76 <
-2 -10 1 2 106.61 -135.29 109.63 <
-1 -10 1 -2 98.29 -43.58 115.70 <
-1 -10 1 -1 137.07 119.80 137.11 <
-1 -10 1 1 1272.76 1466.65 169.91 o
-1 -10 1 2 206.58 39.63 85.34 <
0 -10 1 -2 69.17 101.89 96.27 <
0 -10 1 -1 537.46 818.28 273.32 <
0 -10 1 0 36454.80 37935.30 1735.11 o
0 -10 1 1 77.76 -29.91 21.71 <
0 -10 1 2 32.27 69.24 33.71 <
1 -10 1 -2 10.90 -50.56 44.03 <
1 -10 1 -1 85.81 196.94 160.20 <
1 -10 1 0 1141.01 783.97 139.70 o
1 -10 1 1 214.02 174.92 52.08 o
1 -10 1 2 209.13 236.57 73.95 o
2 -10 1 -2 3.04 -27.33 73.49 <
2 -10 1 -1 284.52 52.99 65.75 <
2 -10 1 0 6250.25 5952.25 681.78 o
2 -10 1 1 874.26 1006.26 263.75 o
2 -10 1 2 988.66 570.78 197.70 <
3 -10 1 -2 80.62 -20.04 41.15 <
3 -10 1 -1 205.21 65.60 97.79 <
3 -10 1 0 914.47 485.75 203.47 <
3 -10 1 1 1368.31 1674.68 374.75 o
3 -10 1 2 531.86 397.52 157.92 <
4 -10 1 -2 5.50 161.71 172.49 <
4 -10 1 -1 104.24 15.94 45.40 <
4 -10 1 0 1600.52 894.96 300.04 <
4 -10 1 1 1378.36 1682.42 427.44 o
5 -10 1 -2 67.75 -7.90 39.78 <
5 -10 1 -1 74.27 -83.06 102.80 <
-5 -9 1 -1 1223.37 1796.61 534.49 o
-5 -9 1 0 1807.44 731.88 348.02 <
-5 -9 1 1 0.28 186.46 162.32 <
-5 -9 1 2 44.82 -114.49 129.22 <
-4 -9 1 -2 109.25 341.95 205.44 <
-4 -9 1 -1 48.58 -44.34 128.46 <
-4 -9 1 0 349.60 187.83 67.42 <
-4 -9 1 1 331.80 316.44 235.81 <
-4 -9 1 2 21.97 10.78 26.57 <
-3 -9 1 -2 97.32 -85.79 91.41 <
-3 -9 1 -1 3911.54 5626.85 736.14 o
-3 -9 1 0 17115.30 16619.40 1261.97 o
-3 -9 1 1 15.42 1.21 85.79 <
-3 -9 1 2 146.25 93.23 108.87 <
-2 -9 1 -2 6492.14 4895.12 632.58 o
-2 -9 1 -1 19.80 134.53 114.64 <
-2 -9 1 0 7806.73 7454.29 786.09 o
-2 -9 1 1 161.05 72.73 82.75 <
-2 -9 1 2 6.89 36.44 69.70 <
-1 -9 1 -2 81.55 -30.52 21.87 <
-1 -9 1 -1 1645.67 1894.85 380.06 o
-1 -9 1 0 63556.50 60154.20 2124.44 o
-1 -9 1 1 132.77 99.91 43.12 <
-1 -9 1 2 101.55 110.54 54.51 <
0 -9 1 -2 14.51 12.15 32.65 <
0 -9 1 -1 708.46 816.76 239.61 o
0 -9 1 0 156.68 165.96 127.70 <
0 -9 1 1 267.69 212.73 66.51 o
0 -9 1 2 31.54 21.71 25.51 <
1 -9 1 -2 116.03 69.24 110.85 <
1 -9 1 -1 594.12 490.61 196.49 <
1 -9 1 0 66299.30 65769.20 1227.50 o
1 -9 1 1 1712.63 1516.00 334.36 o
1 -9 1 2 61.09 88.22 94.60 <
2 -9 1 -2 22.85 -23.69 45.86 <
2 -9 1 -1 715.74 733.55 231.26 o
2 -9 1 0 7612.32 7935.93 731.28 o
2 -9 1 1 869.64 1145.50 281.21 o
2 -9 1 2 51.05 56.18 63.47 <
3 -9 1 -2 195.60 38.11 95.81 <
3 -9 1 -1 233.39 14.58 49.20 <
3 -9 1 0 18922.30 19448.40 1233.27 o
3 -9 1 1 315.18 649.28 222.30 <
3 -9 1 2 6.26 1.37 45.25 <
4 -9 1 -2 72.77 85.94 90.95 <
4 -9 1 -1 136.69 244.77 152.30 <
4 -9 1 0 298.92 263.45 159.13 <
4 -9 1 1 841.29 1850.82 431.99 o
5 -9 1 -2 100.04 79.87 142.88 <
5 -9 1 -1 276.88 45.10 74.25 <
-5 -8 1 -2 4.52 23.38 60.89 <
-5 -8 1 -1 187.23 306.27 208.78 <
-5 -8 1 0 4.37 -73.04 103.56 <
-5 -8 1 1 186.30 -99.31 118.44 <
-5 -8 1 2 140.58 -165.96 150.63 <
-4 -8 1 -2 20.11 321.15 191.47 <
-4 -8 1 -1 49.61 178.87 129.98 <
-4 -8 1 0 9253.78 8684.67 983.49 o
-4 -8 1 1 668.73 430.93 202.86 <
-4 -8 1 2 89.98 115.40 162.62 <
-3 -8 1 -2 20.70 -90.95 163.08 <
-3 -8 1 -1 1107.82 1587.06 379.46 o
-3 -8 1 0 99.02 309.46 163.08 <
-3 -8 1 1 802.65 518.24 225.03 <
-3 -8 1 2 97.87 93.69 196.79 <
-2 -8 1 -2 100.32 58.46 82.15 <
-2 -8 1 -1 260.87 480.28 115.70 o
-2 -8 1 0 40023.70 41701.90 1748.47 o
-2 -8 1 1 466.85 256.01 131.80 <
-2 -8 1 2 99.98 61.95 54.51 <
-1 -8 1 -2 2.62 77.74 83.06 <
-1 -8 1 -1 10.09 -39.02 37.51 <
-1 -8 1 0 899.05 854.42 242.34 o
-1 -8 1 1 2589.62 2190.64 200.74 o
-1 -8 1 2 41.57 8.66 42.82 <
0 -8 1 -2 110.37 24.90 53.60 <
0 -8 1 -1 983.29 1167.37 268.61 o
0 -8 1 1 1148.44 1359.60 131.34 o
0 -8 1 2 33.23 10.02 40.54 <
1 -8 1 -2 205.69 -32.95 89.13 <
1 -8 1 -1 10.75 -1.21 16.25 <
1 -8 1 0 1055.93 1054.25 143.64 o
1 -8 1 1 640.78 710.47 204.08 o
1 -8 1 2 373.95 308.39 126.49 <
2 -8 1 -2 68.08 -19.89 78.20 <
2 -8 1 -1 764.48 536.46 203.62 <
2 -8 1 0 38269.70 37889.30 1496.72 o
2 -8 1 1 2636.02 3311.24 438.52 o
2 -8 1 2 776.06 694.08 204.99 o
3 -8 1 -2 264.53 -11.08 98.85 <
3 -8 1 -1 234.73 163.54 74.86 <
3 -8 1 0 105.40 131.80 94.14 <
3 -8 1 1 149.58 146.53 90.65 <
3 -8 1 2 63.53 44.03 59.67 <
4 -8 1 -2 24.09 29.31 26.57 <
4 -8 1 -1 385.14 276.66 160.04 <
4 -8 1 0 8091.79 7189.01 832.10 o
4 -8 1 1 2017.01 2559.92 502.60 o
4 -8 1 2 84.97 129.37 114.94 <
5 -8 1 -2 80.00 137.42 126.79 <
5 -8 1 -1 159.95 173.86 143.64 <
5 -8 1 0 18.12 -8.81 42.67 <
-5 -7 1 -2 174.58 108.42 126.94 <
-5 -7 1 -1 611.15 831.34 339.98 <
-5 -7 1 0 140.08 -75.47 103.10 <
-5 -7 1 1 30.78 -13.36 142.58 <
-5 -7 1 2 26.13 -72.88 101.13 <
-4 -7 1 -2 510.54 402.23 195.57 <
-4 -7 1 -1 45.98 30.67 63.32 <
-4 -7 1 0 563.09 791.10 316.44 <
-4 -7 1 1 111.82 -61.50 79.26 <
-4 -7 1 2 272.73 -39.48 61.50 <
-3 -7 1 -2 219.97 189.65 158.37 <
-3 -7 1 -1 3415.77 3320.05 532.97 o
-3 -7 1 0 2032.07 1444.33 347.27 o
-3 -7 1 1 157.91 106.29 154.27 <
-3 -7 1 2 70.31 155.94 142.28 <
-2 -7 1 -2 1161.11 955.70 260.56 o
-2 -7 1 -1 731.04 1015.38 266.48 o
-2 -7 1 0 233.84 252.06 65.44 o
-2 -7 1 1 127.42 85.34 74.56 <
-2 -7 1 2 190.68 -65.75 98.24 <
-1 -7 1 -2 174.25 125.27 88.52 <
-1 -7 1 -1 310.66 129.67 64.84 <
-1 -7 1 0 6765.92 6641.77 619.37 o
-1 -7 1 1 542.48 473.45 92.32 o
-1 -7 1 2 42.43 -10.63 21.56 <
0 -7 1 -2 62.39 105.38 98.39 <
0 -7 1 -1 1859.54 2312.12 365.49 o
0 -7 1 0 13171.60 13688.80 862.92 o
0 -7 1 1 115.10 173.25 47.68 o
0 -7 1 2 22.30 34.47 30.06 <
1 -7 1 -2 97.13 12.60 39.33 <
1 -7 1 -1 278.70 301.41 71.67 o
1 -7 1 0 6964.59 6737.59 592.34 o
1 -7 1 1 403.50 286.68 120.87 <
1 -7 1 2 18.32 94.60 79.87 <
2 -7 1 -2 181.80 69.39 47.53 <
2 -7 1 -1 156.73 19.44 55.88 <
2 -7 1 0 365.65 166.27 101.74 <
2 -7 1 1 370.87 291.54 129.83 <
2 -7 1 2 546.01 469.35 176.14 <
3 -7 1 -2 162.07 -35.53 50.26 <
3 -7 1 -1 424.48 168.70 149.11 <
3 -7 1 0 2433.48 2324.87 397.22 o
3 -7 1 1 1473.86 2115.33 397.22 o
3 -7 1 2 37.60 -12.30 48.13 <
4 -7 1 -2 68.95 -34.16 103.40 <
4 -7 1 -1 59.30 46.31 140.46 <
4 -7 1 0 348.98 526.14 229.43 <
4 -7 1 1 214.55 -49.65 70.91 <
4 -7 1 2 61.45 -123.90 111.45 <
5 -7 1 -2 39.18 -153.97 131.95 <
5 -7 1 -1 167.84 220.93 148.35 <
5 -7 1 0 293.92 -15.64 52.39 <
-5 -6 1 -2 6.50 -183.73 165.05 <
-5 -6 1 -1 135.32 234.29 201.19 <
-5 -6 1 0 70.59 25.21 64.08 <
-5 -6 1 1 355.30 -7.90 177.20 <
-5 -6 1 2 131.24 -33.41 81.39 <
-4 -6 1 -2 5.50 37.35 67.11 <
-4 -6 1 -1 882.59 1358.39 375.96 o
-4 -6 1 0 2681.55 1849.60 441.41 o
-4 -6 1 1 338.37 198.91 135.60 <
-4 -6 1 2 43.56 17.77 35.08 <
-3 -6 1 -2 10.08 5.77 81.39 <
-3 -6 1 -1 896.88 779.11 259.35 o
-3 -6 1 0 189.51 86.85 62.56 <
-3 -6 1 1 234.41 300.04 179.18 <
-3 -6 1 2 151.74 5.01 24.45 <
-2 -6 1 -2 77.27 41.00 85.64 <
-2 -6 1 -1 2606.83 2857.23 425.62 o
-2 -6 1 0 4693.62 5704.60 325.40 o
-2 -6 1 1 785.72 692.71 117.22 o
-2 -6 1 2 300.55 68.03 47.98 <
-1 -6 1 -2 76.20 29.91 84.42 <
-1 -6 1 -1 1273.03 1057.74 226.85 o
-1 -6 1 0 542.62 581.26 177.20 o
-1 -6 1 1 205.08 123.30 28.85 o
-1 -6 1 2 17.76 -13.67 41.15 <
0 -6 1 -2 1.79 -54.82 38.42 <
0 -6 1 -1 691.92 665.83 184.49 o
0 -6 1 0 44497.20 45043.70 789.43 o
0 -6 1 1 4868.02 6048.07 219.11 o
0 -6 1 2 46.68 59.52 39.02 <
1 -6 1 -2 17.55 18.52 37.51 <
1 -6 1 -1 132.96 55.12 87.46 <
1 -6 1 0 446.72 595.83 159.59 o
1 -6 1 1 12130.20 13985.70 735.07 o
1 -6 1 2 1.42 -23.08 45.40 <
2 -6 1 -2 123.64 43.58 63.62 <
2 -6 1 -1 423.67 107.81 65.44 <
2 -6 1 0 4725.52 5141.56 497.44 o
2 -6 1 1 4666.75 6434.51 565.92 o
2 -6 1 2 623.11 140.46 87.61 <
3 -6 1 -2 98.73 1.06 69.85 <
3 -6 1 -1 405.80 258.74 136.51 <
3 -6 1 0 177.15 -31.13 48.29 <
3 -6 1 1 123.54 230.80 156.40 <
3 -6 1 2 35.50 99.76 100.98 <
4 -6 1 -2 151.48 57.85 105.53 <
4 -6 1 -1 612.81 217.14 136.81 <
4 -6 1 0 2506.94 1919.45 412.41 o
4 -6 1 1 867.89 1492.92 369.74 o
4 -6 1 2 1099.78 1845.96 430.32 o
5 -6 1 -2 42.79 -150.17 129.52 <
5 -6 1 -1 195.25 472.84 232.32 <
5 -6 1 0 143.50 282.73 183.73 <
-5 -5 1 -2 441.15 643.21 345.44 <
-5 -5 1 -1 340.40 499.87 254.49 <
-5 -5 1 0 468.28 620.13 302.17 <
-5 -5 1 1 450.47 167.63 146.83 <
-5 -5 1 2 209.15 -76.53 98.70 <
-4 -5 1 -2 53.21 204.53 126.64 <
-4 -5 1 -1 905.64 1644.01 412.56 o
-4 -5 1 0 3068.23 3285.89 572.30 o
-4 -5 1 1 241.57 137.72 76.23 <
-4 -5 1 2 193.85 27.33 39.93 <
-3 -5 1 -2 122.52 30.37 51.63 <
-3 -5 1 -1 663.75 425.16 177.66 <
-3 -5 1 0 2253.96 1150.06 280.45 o
-3 -5 1 1 534.12 390.08 184.34 <
-3 -5 1 2 340.39 56.94 43.88 <
-2 -5 1 -2 582.06 157.92 123.60 <
-2 -5 1 -1 1753.29 2237.71 357.89 o
-2 -5 1 0 13829.60 15570.60 943.40 o
-2 -5 1 1 164.63 83.06 34.32 <
-2 -5 1 2 92.25 68.48 66.51 <
-1 -5 1 -2 267.61 285.46 105.53 <
-1 -5 1 -1 23404.60 27462.10 1087.35 o
-1 -5 1 0 8114.90 8819.66 617.70 o
-1 -5 1 1 340.98 309.91 56.33 o
-1 -5 1 2 51.34 45.25 26.57 <
0 -5 1 -2 17.67 61.50 46.31 <
0 -5 1 -1 415.58 456.14 128.16 o
0 -5 1 0 37067.00 38959.00 538.28 o
0 -5 1 1 161.93 163.84 34.62 o
0 -5 1 2 57.30 62.26 33.56 <
1 -5 1 -2 158.69 81.54 29.61 <
1 -5 1 -1 35.67 13.21 27.64 <
1 -5 1 0 8797.70 9033.45 552.86 o
1 -5 1 1 5055.76 5734.66 423.49 o
1 -5 1 2 155.76 134.99 61.34 <
2 -5 1 -2 77.11 29.76 35.53 <
2 -5 1 -1 79.99 28.39 31.58 <
2 -5 1 0 15830.40 16710.20 857.46 o
2 -5 1 1 756.76 1007.18 213.49 o
2 -5 1 2 3358.01 2790.42 362.60 o
3 -5 1 -2 116.56 17.16 94.75 <
3 -5 1 -1 520.74 240.67 128.31 <
3 -5 1 0 2650.43 1815.29 336.94 o
3 -5 1 1 214.94 116.01 94.45 <
3 -5 1 2 85.50 139.70 122.84 <
4 -5 1 -2 139.76 -11.54 93.54 <
4 -5 1 -1 206.61 -183.12 124.06 <
4 -5 1 0 3505.38 3719.70 568.96 o
4 -5 1 1 503.36 330.26 191.93 <
4 -5 1 2 226.45 450.82 199.07 <
5 -5 1 -2 74.79 -126.33 117.68 <
5 -5 1 -1 114.33 16.40 95.21 <
5 -5 1 0 625.68 544.97 250.39 <
-5 -4 1 -2 19.83 170.82 148.96 <
-5 -4 1 -1 183.44 295.33 202.41 <
-5 -4 1 0 2539.02 2812.14 623.32 o
-5 -4 1 1 371.65 40.54 76.23 <
-5 -4 1 2 58.56 -21.11 124.21 <
-4 -4 1 -2 63.35 121.32 120.11 <
-4 -4 1 -1 125.04 89.28 121.47 <
-4 -4 1 0 357.49 313.56 185.70 <
-4 -4 1 1 360.37 89.28 124.97 <
-4 -4 1 2 108.81 -77.29 103.10 <
-3 -4 1 -2 12.52 -94.14 87.77 <
-3 -4 1 -1 69.20 350.91 174.32 <
-3 -4 1 0 21152.30 21989.50 1279.28 o
-3 -4 1 1 587.84 728.54 233.84 o
-3 -4 1 2 23.99 17.46 49.65 <
-2 -4 1 -2 40.94 27.79 20.65 <
-2 -4 1 -1 179.19 39.33 23.84 <
-2 -4 1 0 2904.76 2643.89 373.38 o
-2 -4 1 1 1211.68 750.56 120.87 o
-2 -4 1 2 201.71 81.69 46.77 <
-1 -4 1 -2 10.26 8.20 22.78 <
-1 -4 1 -1 580.76 554.84 153.82 o
-1 -4 1 0 78442.30 79825.60 1716.44 o
-1 -4 1 1 546.09 496.07 69.70 o
-1 -4 1 2 16.83 -2.43 19.74 <
0 -4 1 -2 74.79 82.45 39.48 <
0 -4 1 -1 7.56 5.77 47.68 <
0 -4 1 0 954.55 1136.24 92.17 o
0 -4 1 1 321.11 271.50 42.21 o
0 -4 1 2 250.80 286.83 52.99 o
1 -4 1 -2 9.63 7.74 18.83 <
1 -4 1 -1 98.17 126.18 51.32 <
1 -4 1 0 75721.20 77012.70 1420.19 o
1 -4 1 1 1848.81 2006.00 224.12 o
1 -4 1 2 52.70 70.30 51.32 <
2 -4 1 -2 40.73 79.41 51.93 <
2 -4 1 -1 182.93 196.03 89.59 <
2 -4 1 0 2850.42 2650.57 324.94 o
2 -4 1 1 299.07 8.81 44.79 <
2 -4 1 2 410.82 600.84 165.51 o
3 -4 1 -2 68.13 -7.90 45.55 <
3 -4 1 -1 173.42 114.34 157.31 <
3 -4 1 0 18830.80 19471.50 1088.11 o
3 -4 1 1 332.11 485.29 192.38 <
3 -4 1 2 60.54 1.97 66.51 <
4 -4 1 -2 134.54 -0.76 59.22 <
4 -4 1 -1 244.21 305.36 149.87 <
4 -4 1 0 404.56 773.34 268.91 <
4 -4 1 1 146.41 302.02 200.89 <
4 -4 1 2 169.90 65.14 99.31 <
5 -4 1 -2 44.02 -50.11 99.91 <
5 -4 1 -1 56.31 155.49 143.19 <
5 -4 1 0 2032.77 1605.13 447.79 o
5 -4 1 1 542.56 208.33 162.62 <
-5 -3 1 -2 137.76 341.19 247.05 <
-5 -3 1 -1 290.03 712.45 310.82 <
-5 -3 1 0 44.84 -132.71 132.86 <
-5 -3 1 1 69.17 23.08 61.04 <
-5 -3 1 2 15.03 114.94 119.20 <
-4 -3 1 -2 255.67 134.99 184.64 <
-4 -3 1 -1 577.33 417.57 167.18 <
-4 -3 1 0 473.93 231.10 137.72 <
-4 -3 1 1 228.35 237.03 142.73 <
-4 -3 1 2 26.58 252.97 162.93 <
-3 -3 1 -2 91.50 59.67 68.03 <
-3 -3 1 -1 614.93 496.07 192.99 <
-3 -3 1 0 31.45 53.60 63.01 <
-3 -3 1 1 41.11 83.97 76.83 <
-3 -3 1 2 86.11 109.63 103.40 <
-2 -3 1 -2 60.17 22.17 50.41 <
-2 -3 1 -1 763.66 484.08 158.22 o
-2 -3 1 0 8478.30 8284.71 645.94 o
-2 -3 1 1 144.01 171.28 55.57 o
-2 -3 1 2 123.13 36.75 20.80 <
-1 -3 1 -2 23.15 65.75 57.09 <
-1 -3 1 -1 6793.92 7257.34 492.73 o
-1 -3 1 0 101.71 61.34 24.60 <
-1 -3 1 1 696.05 587.94 80.78 o
-1 -3 1 2 71.92 40.09 19.44 <
0 -3 1 -2 4.72 14.12 19.28 <
0 -3 1 -1 9.73 16.70 26.88 <
0 -3 1 0 8873.54 9447.83 228.52 o
0 -3 1 1 220.57 255.25 47.68 o
0 -3 1 2 131.51 176.29 62.86 <
1 -3 1 -2 12.96 23.54 28.24 <
1 -3 1 -1 2889.93 2569.49 176.74 o
1 -3 1 0 19.45 -12.30 27.03 <
1 -3 1 1 1760.99 2092.40 213.19 o
1 -3 1 2 16.47 13.97 13.06 <
2 -3 1 -2 5.23 31.13 66.05 <
2 -3 1 -1 268.86 196.33 99.00 <
2 -3 1 0 8709.29 9396.97 591.58 o
2 -3 1 1 1115.82 1167.22 214.25 o
2 -3 1 2 1944.79 1266.83 232.93 o
3 -3 1 -2 49.67 -0.15 53.60 <
3 -3 1 -1 216.36 137.11 101.43 <
3 -3 1 0 120.10 85.94 79.41 <
3 -3 1 1 277.89 298.37 144.55 <
3 -3 1 2 0.33 -78.65 88.37 <
4 -3 1 -2 21.53 -4.71 26.42 <
4 -3 1 -1 188.03 79.87 92.17 <
4 -3 1 0 589.07 237.63 121.47 <
4 -3 1 1 460.42 689.52 256.01 <
4 -3 1 2 330.79 627.26 239.30 <
5 -3 1 -2 58.80 -9.26 88.07 <
5 -3 1 -1 259.69 -94.14 103.71 <
5 -3 1 0 57.32 -7.44 35.99 <
5 -3 1 1 247.58 287.29 188.89 <
-5 -2 1 -2 0.25 -216.68 176.90 <
-5 -2 1 -1 284.21 703.03 319.17 <
-5 -2 1 0 382.83 324.03 202.86 <
-5 -2 1 1 197.26 175.83 181.00 <
-5 -2 1 2 53.52 282.73 184.79 <
-4 -2 1 -2 10.82 33.56 48.29 <
-4 -2 1 -1 308.73 517.18 277.72 <
-4 -2 1 0 176.60 123.30 108.87 <
-4 -2 1 1 85.85 129.22 123.90 <
-4 -2 1 2 117.33 84.73 88.07 <
-3 -2 1 -2 37.72 -11.84 66.96 <
-3 -2 1 -1 2526.30 4142.74 550.43 o
-3 -2 1 0 2514.22 2524.54 428.65 o
-3 -2 1 1 112.30 197.85 154.58 <
-3 -2 1 2 72.68 4.56 48.13 <
-2 -2 1 -2 50.81 23.54 50.72 <
-2 -2 1 -1 832.23 950.39 227.16 o
-2 -2 1 0 8554.64 9245.43 660.37 o
-2 -2 1 1 2.95 4.40 54.82 <
-2 -2 1 2 72.35 12.00 17.92 <
-1 -2 1 -2 50.35 31.43 42.36 <
-1 -2 1 -1 523.30 471.78 117.53 o
-1 -2 1 0 4388.57 5151.28 228.98 o
-1 -2 1 1 2238.57 2253.35 140.76 o
-1 -2 1 2 26.45 33.10 15.49 <
0 -2 1 -2 6.83 9.87 10.33 <
0 -2 1 -1 9.86 6.07 8.66 <
0 -2 1 0 47.89 96.42 32.49 <
0 -2 1 1 36.45 36.75 26.27 <
0 -2 1 2 76.80 45.40 24.45 <
1 -2 1 -2 9.14 18.83 13.82 <
1 -2 1 -1 14.29 -1.37 18.22 <
1 -2 1 0 4621.24 5202.75 228.22 o
1 -2 1 1 3055.00 3257.04 190.56 o
1 -2 1 2 90.01 29.00 30.67 <
2 -2 1 -2 102.24 -21.26 18.52 <
2 -2 1 -1 1047.99 899.52 173.86 o
2 -2 1 0 9163.47 8843.95 558.78 o
2 -2 1 1 76.78 111.15 53.90 <
2 -2 1 2 2680.80 1702.77 263.30 o
3 -2 1 -2 31.32 29.00 50.26 <
3 -2 1 -1 1118.09 540.56 171.74 o
3 -2 1 0 2400.78 2169.84 343.32 o
3 -2 1 1 3564.87 5193.04 559.39 o
3 -2 1 2 475.89 560.00 193.15 <
4 -2 1 -2 82.56 63.93 102.19 <
4 -2 1 -1 877.94 478.76 193.75 <
4 -2 1 0 256.26 278.94 146.07 <
4 -2 1 1 62.05 -121.63 104.47 <
4 -2 1 2 374.71 -8.66 31.28 <
5 -2 1 -2 12.05 -20.20 69.09 <
5 -2 1 -1 461.30 193.60 136.81 <
5 -2 1 0 362.36 417.27 207.57 <
5 -2 1 1 252.37 537.07 255.70 <
-5 -1 1 -2 8.85 100.22 121.63 <
-5 -1 1 -1 73.69 78.96 106.29 <
-5 -1 1 0 93.45 27.48 73.34 <
-5 -1 1 2 98.58 52.23 83.06 <
-4 -1 1 -2 149.30 -48.29 72.73 <
-4 -1 1 -1 649.63 1205.18 346.96 o
-4 -1 1 0 183.80 201.50 147.14 <
-4 -1 1 1 515.89 174.16 129.67 <
-4 -1 1 2 176.09 37.96 85.03 <
-3 -1 1 -2 57.62 37.35 45.86 <
-3 -1 1 -1 99.51 133.32 59.98 <
-3 -1 1 0 150.47 227.46 105.38 <
-3 -1 1 1 878.22 672.21 223.06 o
-3 -1 1 2 160.15 12.00 73.80 <
-2 -1 1 -2 9856.77 9981.71 718.07 o
-2 -1 1 -1 156.40 484.53 150.93 o
-2 -1 1 0 3700.57 3607.49 410.58 o
-2 -1 1 1 671.26 402.08 134.53 <
-2 -1 1 2 161.96 60.59 29.76 <
-1 -1 1 -2 25.31 30.67 13.67 <
-1 -1 1 -1 39.68 48.89 52.08 <
-1 -1 1 0 131.15 140.30 47.83 <
-1 -1 1 1 85.01 30.06 17.46 <
-1 -1 1 2 21.46 18.68 12.30 <
0 -1 1 -2 322.35 108.11 40.54 <
0 -1 1 1 33.67 66.05 29.31 <
0 -1 1 2 15.34 -21.87 35.83 <
1 -1 1 -2 7.38 -3.80 10.02 <
1 -1 1 -1 1.38 1.21 13.51 <
1 -1 1 0 196.13 227.16 48.74 o
1 -1 1 1 727.99 710.32 86.25 o
1 -1 1 2 96.77 41.00 46.46 <
2 -1 1 -2 155.17 145.77 70.76 <
2 -1 1 -1 313.07 17.01 23.54 <
2 -1 1 0 4119.45 3437.27 345.44 o
2 -1 1 1 148.85 445.05 139.39 o
2 -1 1 2 5.33 -12.91 35.83 <
3 -1 1 -2 115.78 26.57 57.24 <
3 -1 1 -1 71.12 97.64 80.78 <
3 -1 1 0 127.95 156.55 66.66 <
3 -1 1 1 2292.39 2134.92 358.80 o
3 -1 1 2 133.13 92.62 75.47 <
4 -1 1 -2 170.09 -5.62 51.93 <
4 -1 1 -1 388.39 -6.53 47.68 <
4 -1 1 0 534.08 83.06 56.33 <
4 -1 1 1 371.56 778.35 277.57 <
4 -1 1 2 106.37 142.28 121.93 <
5 -1 1 -2 139.96 -101.13 105.38 <
5 -1 1 -1 106.96 291.39 210.30 <
5 -1 1 0 71.96 176.74 169.91 <
5 -1 1 1 192.34 267.70 237.79 <
-5 0 1 -2 6.20 102.34 138.79 <
-5 0 1 -1 17.09 78.20 105.83 <
-5 0 1 0 180.58 -34.01 70.76 <
-5 0 1 1 102.89 -22.17 59.22 <
-5 0 1 2 43.20 191.63 159.59 <
-4 0 1 -2 23.67 -17.01 101.28 <
-4 0 1 -1 260.08 255.86 159.43 <
-4 0 1 0 332.23 -205.29 140.46 <
-4 0 1 1 145.37 -3.34 80.48 <
-4 0 1 2 1.20 10.48 44.34 <
-3 0 1 -2 69.51 5.47 70.61 <
-3 0 1 -1 48.62 13.51 39.63 <
-3 0 1 0 258.86 -43.58 58.16 <
-3 0 1 1 173.44 -48.89 84.12 <
-3 0 1 2 34.09 -73.95 91.41 <
-2 0 1 -2 66.68 3.95 43.58 <
-2 0 1 -1 141.19 -0.46 81.08 <
-2 0 1 0 22.92 -3.04 61.04 <
-2 0 1 1 8.52 51.78 82.00 <
-2 0 1 2 3.67 7.44 60.74 <
-1 0 1 -2 35.31 7.29 18.07 <
-1 0 1 -1 209.04 -1.37 34.32 <
-1 0 1 0 67.55 18.22 28.70 <
-1 0 1 1 18.43 15.94 9.72 <
-1 0 1 2 0.31 12.91 12.75 <
1 0 1 -2 28.76 14.58 10.78 <
1 0 1 -1 73.31 25.51 19.28 <
1 0 1 0 32.46 27.64 16.40 <
1 0 1 1 18.54 -10.93 11.39 <
1 0 1 2 133.35 39.78 24.90 <
2 0 1 -2 111.00 0.61 47.68 <
2 0 1 -1 101.00 30.67 23.38 <
2 0 1 0 12.13 3.95 33.56 <
2 0 1 1 128.59 1.67 33.10 <
2 0 1 2 16.99 -5.47 37.81 <
3 0 1 -2 429.13 -22.17 72.58 <
3 0 1 -1 377.71 186.77 134.84 <
3 0 1 0 126.48 -23.38 55.88 <
3 0 1 1 587.95 82.60 79.11 <
3 0 1 2 41.87 -46.77 66.96 <
4 0 1 -2 195.89 1.67 71.67 <
4 0 1 -1 83.85 52.23 66.51 <
4 0 1 0 203.76 -7.90 53.60 <
4 0 1 1 91.25 47.68 86.40 <
4 0 1 2 123.60 -182.36 130.13 <
5 0 1 -2 297.26 47.98 104.77 <
5 0 1 -1 101.25 98.39 165.66 <
5 0 1 0 36.65 142.73 145.92 <
5 0 1 1 49.79 -210.00 161.56 <
5 0 1 2 4.69 32.95 192.38 <
-5 1 1 -2 6.56 -318.11 211.97 <
-5 1 1 -1 76.31 114.79 101.89 <
-5 1 1 0 94.33 -37.51 76.38 <
-5 1 1 1 256.81 -27.18 62.10 <
-5 1 1 2 95.26 34.32 100.52 <
-4 1 1 -2 170.26 34.01 93.69 <
-4 1 1 -1 638.03 728.39 280.00 <
-4 1 1 0 181.38 128.16 134.23 <
-4 1 1 1 514.92 261.78 138.02 <
-4 1 1 2 176.16 60.74 124.21 <
-3 1 1 -2 57.80 51.78 80.93 <
-3 1 1 -1 95.68 95.81 33.56 <
-3 1 1 0 160.25 4.56 65.14 <
-3 1 1 1 862.21 769.09 237.79 o
-3 1 1 2 150.28 -1.21 69.54 <
-2 1 1 -2 9781.07 9388.62 706.53 o
-2 1 1 -1 146.54 354.86 153.51 <
-2 1 1 0 3714.93 3400.22 390.24 o
-2 1 1 1 679.92 174.01 56.94 o
-2 1 1 2 158.51 195.27 98.09 <
-1 1 1 -2 23.74 25.81 59.67 <
-1 1 1 -1 38.59 27.79 44.64 <
-1 1 1 0 142.86 163.08 48.44 o
-1 1 1 1 87.67 61.19 17.31 o
-1 1 1 2 19.76 -3.04 10.48 <
0 1 1 -2 320.43 0.61 10.02 <
0 1 1 1 33.94 69.54 29.76 <
1 1 1 -2 7.27 2.28 14.12 <
1 1 1 -1 1.46 -0.91 10.63 <
1 1 1 0 192.49 204.53 42.21 o
1 1 1 1 784.54 685.27 85.64 o
1 1 1 2 87.29 34.16 37.81 <
2 1 1 -2 166.35 121.78 77.90 <
2 1 1 -1 298.20 125.12 67.57 <
2 1 1 0 3936.89 3537.34 365.33 o
2 1 1 1 152.60 302.17 112.97 <
2 1 1 2 6.83 8.50 30.67 <
3 1 1 -2 114.65 30.52 56.49 <
3 1 1 -1 68.81 134.68 104.01 <
3 1 1 0 123.91 174.92 91.11 <
3 1 1 1 2278.24 2791.79 423.95 o
3 1 1 2 128.22 127.09 116.46 <
4 1 1 -2 176.16 134.08 107.50 <
4 1 1 -1 368.69 -9.26 92.47 <
4 1 1 0 514.66 162.32 124.21 <
4 1 1 1 384.58 748.43 271.50 <
4 1 1 2 103.26 74.40 85.79 <
5 1 1 -2 138.63 -214.86 151.08 <
5 1 1 -1 104.98 67.27 89.13 <
5 1 1 0 69.48 191.78 189.96 <
5 1 1 1 196.19 74.86 99.00 <
5 1 1 2 9.68 43.58 79.57 <
-5 2 1 -2 0.36 74.56 105.38 <
-5 2 1 -1 274.99 635.92 218.65 <
-5 2 1 0 386.81 59.07 113.28 <
-5 2 1 1 189.80 233.23 132.86 <
-5 2 1 2 54.16 -25.66 75.77 <
-4 2 1 -2 11.76 83.97 105.83 <
-4 2 1 -1 308.98 360.17 189.65 <
-4 2 1 0 181.95 426.98 202.56 <
-4 2 1 1 87.74 224.58 107.35 <
-4 2 1 2 113.98 -44.34 57.85 <
-3 2 1 -2 39.07 93.38 32.95 <
-3 2 1 -1 2511.11 3628.60 522.49 o
-3 2 1 0 2510.12 2423.87 421.52 o
-3 2 1 1 112.04 137.11 98.70 <
-3 2 1 2 76.47 -35.68 48.59 <
-2 2 1 -2 46.02 25.97 82.45 <
-2 2 1 -1 829.23 1245.27 268.00 o
-2 2 1 0 8620.44 9730.72 682.99 o
-2 2 1 1 1.78 6.68 36.14 <
-2 2 1 2 70.49 59.52 50.26 <
-1 2 1 -2 50.66 29.31 52.08 <
-1 2 1 -1 556.16 417.11 81.39 o
-1 2 1 0 4388.84 4910.91 261.47 o
-1 2 1 1 2242.75 2484.91 95.21 o
-1 2 1 2 27.35 0.61 13.51 <
0 2 1 -2 5.94 25.66 17.61 <
0 2 1 -1 10.31 49.05 15.18 o
0 2 1 0 50.01 78.81 35.38 <
0 2 1 1 36.75 12.91 13.82 <
0 2 1 2 78.28 8.66 19.28 <
1 2 1 -2 8.81 0.91 12.45 <
1 2 1 -1 13.66 -9.41 19.44 <
1 2 1 0 4634.06 5072.78 300.50 o
1 2 1 1 3026.69 3308.51 261.17 o
1 2 1 2 86.81 58.00 34.32 <
2 2 1 -2 101.69 14.73 44.64 <
2 2 1 -1 1043.69 1229.17 213.79 o
2 2 1 0 9140.96 9216.73 612.53 o
2 2 1 1 78.38 -0.76 49.65 <
2 2 1 2 2712.66 2398.21 345.90 o
3 2 1 -2 29.96 -20.50 52.69 <
3 2 1 -1 1126.10 701.21 199.37 o
3 2 1 0 2402.14 2162.25 363.97 o
3 2 1 1 3584.03 5503.40 602.36 o
3 2 1 2 470.41 484.08 181.30 <
4 2 1 -2 82.88 30.06 46.46 <
4 2 1 -1 868.70 611.47 242.34 <
4 2 1 0 268.02 264.21 149.57 <
4 2 1 1 65.77 -23.84 23.38 <
4 2 1 2 357.88 696.20 268.00 <
5 2 1 -2 11.04 -10.63 77.29 <
5 2 1 -1 469.94 426.98 209.54 <
5 2 1 0 359.33 322.67 195.42 <
5 2 1 1 230.54 582.77 269.52 <
-5 3 1 -2 138.67 254.49 192.38 <
-5 3 1 -1 291.29 765.59 230.95 o
-5 3 1 0 49.61 -111.91 89.74 <
-5 3 1 1 70.96 35.83 51.93 <
-5 3 1 2 14.54 33.86 122.39 <
-4 3 1 -2 255.03 68.79 83.21 <
-4 3 1 -1 593.80 500.17 167.79 <
-4 3 1 0 463.94 98.09 71.37 <
-4 3 1 1 233.60 176.29 68.63 <
-4 3 1 2 28.73 59.67 74.86 <
-3 3 1 -2 81.92 127.25 107.20 <
-3 3 1 -1 606.48 668.11 163.38 o
-3 3 1 0 35.15 136.05 62.26 <
-3 3 1 1 43.05 22.93 62.41 <
-3 3 1 2 85.26 92.62 66.51 <
-2 3 1 -2 67.86 20.20 29.15 <
-2 3 1 -1 771.46 653.38 133.77 o
-2 3 1 0 8485.28 8471.18 466.01 o
-2 3 1 1 146.37 243.25 86.40 <
-2 3 1 2 129.82 110.69 61.04 <
-1 3 1 -2 22.10 63.47 34.92 <
-1 3 1 -1 6894.45 7331.29 358.05 o
-1 3 1 0 81.35 23.99 37.20 <
-1 3 1 1 696.51 675.70 61.65 o
-1 3 1 2 71.33 21.87 20.50 <
0 3 1 -2 4.34 -3.49 17.77 <
0 3 1 -1 9.52 15.79 16.40 <
0 3 1 0 8842.59 9025.10 370.80 o
0 3 1 1 222.79 333.45 56.49 o
0 3 1 2 134.59 117.83 39.18 o
1 3 1 -2 11.92 10.63 15.49 <
1 3 1 -1 2931.07 2609.27 173.40 o
1 3 1 0 17.14 -20.35 21.26 <
1 3 1 1 1758.68 1966.52 210.15 o
1 3 1 2 18.94 49.35 36.14 <
2 3 1 -2 5.81 -36.29 46.31 <
2 3 1 -1 273.28 163.69 81.69 <
2 3 1 0 8524.98 8626.82 623.01 o
2 3 1 1 1088.11 1311.77 256.92 o
2 3 1 2 1967.27 1398.32 269.98 o
3 3 1 -2 46.14 7.44 48.44 <
3 3 1 -1 229.72 64.84 85.94 <
3 3 1 0 131.20 78.96 84.42 <
3 3 1 1 297.64 411.65 191.32 <
3 3 1 2 0.11 -88.07 80.78 <
4 3 1 -2 20.91 -29.61 49.20 <
4 3 1 -1 194.89 25.51 73.19 <
4 3 1 0 566.33 111.30 40.85 <
4 3 1 1 437.36 299.89 136.35 <
4 3 1 2 316.07 648.52 265.88 <
5 3 1 -2 53.23 -33.10 73.80 <
5 3 1 -1 264.85 30.06 83.36 <
5 3 1 0 66.52 216.23 109.63 <
5 3 1 1 230.76 294.27 215.31 <
-5 4 1 -2 20.87 223.82 181.60 <
-5 4 1 -1 182.87 227.16 149.72 <
-5 4 1 0 2567.36 1968.65 378.55 o
-5 4 1 1 378.81 192.54 103.10 <
-5 4 1 2 57.43 -47.98 75.77 <
-4 4 1 -2 64.99 133.93 87.92 <
-4 4 1 -1 137.35 95.96 69.85 <
-4 4 1 0 359.04 325.86 103.71 o
-4 4 1 1 365.05 125.73 113.58 <
-4 4 1 2 109.39 13.51 55.57 <
-3 4 1 -2 13.70 -35.38 64.38 <
-3 4 1 -1 62.14 307.79 138.18 <
-3 4 1 0 21202.20 23568.30 954.79 o
-3 4 1 1 608.43 744.18 173.10 o
-3 4 1 2 21.65 -63.17 78.96 <
-2 4 1 -2 38.36 61.65 51.63 <
-2 4 1 -1 184.32 93.84 48.89 <
-2 4 1 0 2856.83 2610.34 268.46 o
-2 4 1 1 1217.91 783.97 145.47 o
-2 4 1 2 200.47 17.01 37.96 <
-1 4 1 -2 9.13 -4.86 44.49 <
-1 4 1 -1 612.03 573.36 114.34 o
-1 4 1 0 78863.20 83534.10 1063.66 o
-1 4 1 1 553.39 518.09 90.04 o
-1 4 1 2 15.84 -2.58 34.01 <
0 4 1 -2 73.52 11.24 24.60 <
0 4 1 -1 6.36 18.07 27.64 <
0 4 1 0 965.08 1221.12 220.63 o
0 4 1 1 324.02 297.16 50.41 o
0 4 1 2 253.94 252.67 51.32 o
1 4 1 -2 10.56 43.28 25.51 <
1 4 1 -1 97.79 92.78 42.21 <
1 4 1 0 75967.80 83205.80 1151.12 o
1 4 1 1 1861.38 2156.32 181.91 o
1 4 1 2 52.40 52.54 8.96 o
2 4 1 -2 39.68 112.97 63.01 <
2 4 1 -1 180.91 140.15 98.85 <
2 4 1 0 2829.87 2791.64 373.99 o
3 4 1 -2 68.03 6.53 59.67 <
3 4 1 -1 174.48 206.81 120.71 <
3 4 1 0 18752.90 17486.40 1102.99 o
3 4 1 1 358.42 198.46 120.26 <
4 4 1 -2 132.53 7.59 56.94 <
4 4 1 -1 241.09 53.90 60.59 <
4 4 1 0 411.58 525.23 157.92 o
4 4 1 1 140.30 508.67 259.20 <
4 4 1 2 171.02 192.08 177.81 <
5 4 1 -2 43.26 101.74 87.92 <
5 4 1 -1 56.26 307.48 144.71 <
5 4 1 0 2032.80 1777.32 514.60 o
5 4 1 1 540.39 523.10 281.21 <
-5 5 1 -1 367.77 38.11 83.97 <
-5 5 1 0 473.08 213.49 104.16 <
-5 5 1 1 441.36 368.37 180.54 <
-5 5 1 2 201.30 189.04 105.07 <
-4 5 1 -2 50.96 339.52 143.49 <
-4 5 1 -1 899.65 1672.70 314.32 o
-4 5 1 0 3076.56 3096.54 414.08 o
-4 5 1 1 251.77 111.45 23.08 o
-4 5 1 2 183.91 151.54 94.60 <
-3 5 1 -2 138.35 104.47 76.07 <
-3 5 1 -1 600.33 606.46 162.62 o
-3 5 1 0 2283.10 1471.66 237.63 o
-3 5 1 1 537.38 293.21 118.29 <
-3 5 1 2 326.42 263.45 108.42 <
-2 5 1 -2 595.18 308.09 104.47 <
-2 5 1 -1 1709.80 2177.13 263.30 o
-2 5 1 0 13796.50 15619.00 681.78 o
-2 5 1 1 169.67 106.59 45.86 <
-2 5 1 2 88.07 -11.39 26.12 <
-1 5 1 -2 264.34 230.50 113.88 <
-1 5 1 -1 23662.10 27350.00 1138.98 o
-1 5 1 0 8149.98 9139.59 377.18 o
-1 5 1 1 338.49 351.82 81.84 o
-1 5 1 2 48.87 109.48 52.99 <
0 5 1 -2 19.39 8.66 30.37 <
0 5 1 -1 412.26 364.73 73.95 o
0 5 1 0 36996.40 37121.60 953.27 o
0 5 1 1 165.46 357.14 134.38 <
0 5 1 2 54.32 48.29 39.78 <
1 5 1 -2 161.58 100.37 53.30 <
1 5 1 -1 35.84 79.57 53.60 <
1 5 1 0 8808.70 9649.03 598.72 o
1 5 1 1 4972.81 5842.47 477.85 o
1 5 1 2 149.15 207.11 95.66 <
2 5 1 -2 68.98 -19.13 23.69 <
2 5 1 -1 75.07 -18.98 38.72 <
2 5 1 0 15877.80 16368.20 949.78 o
2 5 1 1 749.57 887.22 232.78 o
2 5 1 2 3291.73 2555.98 410.28 o
3 5 1 -2 118.79 127.09 82.75 <
3 5 1 -1 494.74 164.29 119.50 <
3 5 1 0 2662.46 2125.96 422.28 o
3 5 1 1 209.35 359.57 201.80 <
3 5 1 2 85.31 45.70 67.87 <
4 5 1 -2 136.74 27.79 65.90 <
4 5 1 -1 201.94 0.15 45.25 <
4 5 1 0 3548.04 4597.51 731.28 o
4 5 1 1 499.47 240.98 171.28 <
4 5 1 2 233.71 277.72 191.32 <
5 5 1 -2 76.74 -38.11 51.32 <
5 5 1 -1 118.38 373.23 230.04 <
5 5 1 0 620.82 505.79 277.87 <
-5 6 1 0 77.02 -159.28 157.61 <
-5 6 1 1 346.07 209.39 125.57 <
-5 6 1 2 135.51 -197.55 164.29 <
-4 6 1 -2 6.72 -114.64 122.99 <
-4 6 1 -1 865.60 1203.51 384.16 o
-4 6 1 0 2651.12 2112.59 345.44 o
-4 6 1 1 318.23 68.03 68.79 <
-4 6 1 2 44.20 -8.05 35.08 <
-3 6 1 -2 10.00 -4.10 35.83 <
-3 6 1 -1 866.50 1002.16 227.01 o
-3 6 1 0 196.78 103.10 78.65 <
-3 6 1 1 219.83 181.45 97.03 <
-3 6 1 2 155.28 70.00 92.02 <
-2 6 1 -2 73.82 -25.05 63.17 <
-2 6 1 -1 2609.07 2920.10 453.40 o
-2 6 1 0 4641.52 5480.17 605.70 o
-2 6 1 1 765.61 668.57 126.33 o
-2 6 1 2 297.67 29.76 54.36 <
-1 6 1 -2 75.13 -78.35 62.26 <
-1 6 1 -1 1306.90 1290.21 150.32 o
-1 6 1 0 604.85 642.15 107.81 o
-1 6 1 1 210.77 126.79 86.10 <
-1 6 1 2 18.72 66.51 41.45 <
0 6 1 -2 1.54 24.14 52.99 <
0 6 1 -1 692.44 523.25 100.82 o
0 6 1 0 44437.60 45957.90 1169.95 o
0 6 1 1 4844.67 5562.32 504.12 o
0 6 1 2 44.72 21.87 27.18 <
1 6 1 -2 18.58 3.95 56.33 <
1 6 1 -1 133.93 18.68 37.51 <
1 6 1 0 454.68 574.27 89.28 o
1 6 1 1 11991.00 12938.90 766.50 o
1 6 1 2 1.39 -20.35 48.13 <
2 6 1 -2 126.72 -25.05 52.08 <
2 6 1 -1 427.08 146.38 82.15 <
2 6 1 0 4709.07 4809.78 533.58 o
2 6 1 1 4652.83 6919.34 658.09 o
2 6 1 2 644.39 257.07 147.29 <
3 6 1 -2 100.07 14.58 39.18 <
3 6 1 -1 392.89 293.06 165.66 <
3 6 1 0 166.97 70.61 104.62 <
3 6 1 1 124.43 124.82 95.21 <
3 6 1 2 29.23 -64.84 80.32 <
4 6 1 -2 153.89 199.07 171.89 <
4 6 1 -1 623.07 186.01 148.65 <
4 6 1 0 2509.44 2385.61 529.02 o
4 6 1 1 828.49 1202.60 382.34 o
4 6 1 2 1096.39 2254.26 559.54 o
5 6 1 -2 42.86 -17.61 52.23 <
5 6 1 -1 191.48 285.31 203.47 <
5 6 1 0 136.43 84.27 116.46 <
-5 7 1 0 137.15 108.57 133.01 <
-5 7 1 1 30.64 -20.04 108.26 <
-5 7 1 2 26.38 10.02 41.60 <
-4 7 1 -2 517.85 332.08 226.85 <
-4 7 1 -1 44.36 15.18 48.44 <
-4 7 1 0 553.05 849.71 324.94 <
-4 7 1 1 110.24 75.01 123.60 <
-4 7 1 2 277.20 39.18 79.41 <
-3 7 1 -2 218.95 89.44 61.19 <
-3 7 1 -1 3427.27 4090.81 628.33 o
-3 7 1 0 2031.42 1665.26 384.62 o
-3 7 1 1 145.75 40.09 115.55 <
-3 7 1 2 72.16 -40.69 56.94 <
-2 7 1 -2 1184.49 1359.76 321.91 o
-2 7 1 -1 747.75 903.16 250.69 o
-2 7 1 0 229.93 221.99 77.59 <
-2 7 1 1 129.07 24.29 31.43 <
-2 7 1 2 194.17 -18.83 26.57 <
-1 7 1 -2 170.31 33.71 25.05 <
-1 7 1 -1 310.77 362.45 148.65 <
-1 7 1 0 6757.32 7004.98 678.59 o
-1 7 1 1 540.17 313.40 106.14 <
-1 7 1 2 44.95 -1.67 41.91 <
0 7 1 -2 65.91 61.65 46.62 <
0 7 1 -1 1896.43 1853.70 326.46 o
0 7 1 0 13146.80 14715.90 708.96 o
0 7 1 1 109.89 87.01 103.10 <
0 7 1 2 21.89 -19.13 71.21 <
1 7 1 -2 99.90 1.37 42.36 <
1 7 1 -1 274.34 216.68 76.38 <
1 7 1 0 6948.50 7265.70 468.74 o
1 7 1 1 439.05 249.63 72.43 o
1 7 1 2 17.18 15.18 28.39 <
2 7 1 -2 187.73 41.60 20.95 <
2 7 1 -1 163.38 21.71 24.90 <
2 7 1 0 315.60 186.16 99.61 <
2 7 1 1 368.12 259.65 141.67 <
2 7 1 2 554.21 433.97 169.91 <
3 7 1 -2 166.38 94.60 89.59 <
3 7 1 -1 437.40 22.62 89.44 <
3 7 1 0 2428.38 1882.10 406.33 o
3 7 1 1 1436.77 1919.91 427.44 o
3 7 1 2 37.01 12.45 71.52 <
4 7 1 -2 72.73 10.17 38.72 <
4 7 1 -1 63.71 91.56 106.14 <
4 7 1 0 351.98 533.12 250.24 <
4 7 1 1 211.18 80.93 41.76 <
4 7 1 2 61.22 36.90 55.27 <
5 7 1 -2 38.39 96.88 117.98 <
5 7 1 -1 170.70 -104.77 125.42 <
5 7 1 0 291.23 997.31 395.10 <
-5 8 1 0 5.11 76.98 113.28 <
-5 8 1 1 186.73 -67.87 103.56 <
-5 8 1 2 133.50 -327.98 218.05 <
-4 8 1 -2 20.75 305.66 204.23 <
-4 8 1 -1 44.05 -5.62 60.59 <
-4 8 1 0 9222.69 8338.77 1022.97 o
-4 8 1 1 663.41 687.85 302.77 <
-4 8 1 2 86.53 -100.98 144.10 <
-3 8 1 -2 20.56 -25.97 56.33 <
-3 8 1 -1 1098.62 1563.07 392.52 o
-3 8 1 0 96.13 219.11 140.00 <
-3 8 1 1 810.94 412.10 216.68 <
-3 8 1 2 90.12 142.12 113.28 <
-2 8 1 -2 96.16 161.11 145.47 <
-2 8 1 -1 247.30 372.02 255.40 <
-2 8 1 0 40151.20 43425.00 1058.35 o
-2 8 1 1 465.84 452.04 107.66 o
-2 8 1 2 95.23 61.19 50.87 <
-1 8 1 -2 3.28 -68.63 62.10 <
-1 8 1 -1 11.75 -34.47 81.08 <
-1 8 1 0 900.15 1057.28 288.81 o
-1 8 1 1 2606.20 2026.95 276.81 o
-1 8 1 2 42.56 -5.92 95.96 <
0 8 1 -2 108.35 24.75 55.12 <
0 8 1 -1 980.28 1008.24 277.42 o
0 8 1 0 121028.00 128941.00 3174.89 o
0 8 1 1 1156.59 1018.41 259.04 o
0 8 1 2 34.52 -25.05 79.87 <
1 8 1 -2 204.21 -17.61 39.33 <
1 8 1 -1 9.09 -34.16 62.10 <
1 8 1 0 1069.70 865.81 172.95 o
1 8 1 1 641.98 645.48 102.34 o
1 8 1 2 390.82 333.45 82.15 o
2 8 1 -2 70.53 3.49 70.00 <
2 8 1 -1 776.86 542.69 198.15 <
2 8 1 0 38295.50 39368.80 1639.30 o
2 8 1 1 2673.87 3885.36 531.00 o
2 8 1 2 783.70 656.72 215.01 o
3 8 1 -2 265.99 55.27 93.69 <
3 8 1 -1 238.04 154.42 120.11 <
3 8 1 0 103.09 -1.21 90.19 <
3 8 1 1 157.08 58.92 38.72 <
3 8 1 2 53.85 34.32 61.80 <
4 8 1 -2 26.04 16.55 63.01 <
4 8 1 -1 397.19 336.48 245.68 <
4 8 1 0 8028.53 7370.32 946.44 o
4 8 1 1 2002.80 2309.84 542.08 o
4 8 1 2 91.02 72.43 102.34 <
5 8 1 -2 81.11 -107.05 124.97 <
5 8 1 -1 161.09 336.18 224.73 <
5 8 1 0 18.04 -233.08 194.97 <
-5 9 1 1 0.43 40.85 68.79 <
-5 9 1 2 44.39 -119.65 134.84 <
-4 9 1 -2 121.56 695.44 313.56 <
-4 9 1 -1 54.08 416.66 236.42 <
-4 9 1 0 361.83 344.38 197.70 <
-4 9 1 1 326.40 194.21 192.84 <
-4 9 1 2 19.98 13.67 84.58 <
-3 9 1 -2 90.69 496.38 230.80 <
-3 9 1 -1 3864.15 5166.46 735.22 o
-3 9 1 0 17127.30 16473.80 1306.15 o
-3 9 1 1 18.67 294.27 169.76 <
-3 9 1 2 141.65 235.36 151.08 <
-2 9 1 -2 6485.63 4519.31 635.16 o
-2 9 1 -1 22.23 80.32 73.64 <
-2 9 1 0 7844.43 8551.35 490.61 o
-2 9 1 1 158.59 74.10 47.83 <
-2 9 1 2 5.98 35.83 39.63 <
-1 9 1 -2 83.41 -22.02 77.59 <
-1 9 1 -1 1667.25 1980.64 409.52 o
-1 9 1 0 63560.50 61848.80 1562.92 o
-1 9 1 1 128.19 122.54 50.56 <
-1 9 1 2 97.44 136.20 115.86 <
0 9 1 -2 17.09 11.39 37.51 <
0 9 1 -1 698.73 462.06 114.03 o
0 9 1 0 147.28 227.46 171.13 <
0 9 1 1 281.99 290.17 162.47 <
0 9 1 2 29.97 8.96 98.85 <
1 9 1 -2 113.07 116.31 98.39 <
1 9 1 -1 600.22 479.22 142.12 o
1 9 1 0 66575.10 62673.00 1642.49 o
1 9 1 1 1751.18 1374.18 239.30 o
1 9 1 2 59.53 33.86 23.54 <
2 9 1 -2 23.88 -7.14 98.55 <
2 9 1 -1 680.52 643.97 224.88 <
2 9 1 0 7661.31 8781.55 816.76 o
2 9 1 1 865.92 1366.74 329.95 o
2 9 1 2 46.11 29.00 77.59 <
3 9 1 -2 194.90 -177.05 123.90 <
3 9 1 -1 226.65 61.50 42.52 <
3 9 1 0 19057.70 19647.10 1368.56 o
3 9 1 1 275.80 357.44 208.33 <
3 9 1 2 8.12 117.07 134.53 <
4 9 1 -2 70.35 -34.77 65.14 <
4 9 1 -1 131.23 -1.52 89.74 <
4 9 1 0 314.17 72.58 75.47 <
4 9 1 1 837.09 1489.73 437.92 o
4 9 1 2 37.05 -195.27 167.33 <
5 9 1 -2 102.07 49.96 85.94 <
5 9 1 -1 272.88 104.77 131.04 <
-5 10 1 1 142.18 92.47 125.12 <
-5 10 1 2 6.69 73.64 110.39 <
-4 10 1 -2 21.38 217.74 178.42 <
-4 10 1 -1 125.02 451.43 249.63 <
-4 10 1 0 1765.77 1605.59 451.43 o
-4 10 1 1 696.53 200.74 160.50 <
-4 10 1 2 143.67 169.15 145.62 <
-3 10 1 -2 13.60 -9.41 123.45 <
-3 10 1 -1 997.99 1145.20 376.88 o
-3 10 1 0 819.22 660.67 243.56 <
-3 10 1 1 93.81 -0.30 91.56 <
-3 10 1 2 127.25 17.31 107.20 <
-2 10 1 -2 88.15 -31.58 58.76 <
-2 10 1 -1 466.43 593.40 239.91 <
-2 10 1 0 6823.22 5918.85 426.68 o
-2 10 1 1 383.99 133.93 122.84 <
-2 10 1 2 110.28 -5.16 47.68 <
-1 10 1 -2 100.99 -35.99 89.59 <
-1 10 1 -1 150.41 226.85 162.78 <
-1 10 1 0 815.53 695.74 181.00 o
-1 10 1 1 1287.81 1197.74 165.21 o
-1 10 1 2 209.74 -29.61 80.32 <
0 10 1 -2 68.28 28.85 65.29 <
0 10 1 -1 541.07 752.69 169.61 o
0 10 1 0 36176.40 44226.80 1974.87 o
0 10 1 1 80.70 -64.84 127.55 <
0 10 1 2 35.42 -4.40 43.58 <
1 10 1 -2 11.50 61.04 127.09 <
1 10 1 -1 87.67 93.54 82.60 <
1 10 1 0 1061.87 718.83 197.09 o
1 10 1 1 195.30 212.12 81.84 <
1 10 1 2 209.04 227.61 74.10 o
2 10 1 -2 2.28 105.07 94.75 <
2 10 1 -1 283.33 340.13 166.72 <
2 10 1 0 6245.69 6274.01 721.71 o
2 10 1 1 859.26 816.76 152.60 o
2 10 1 2 980.75 885.70 281.67 o
3 10 1 -2 79.70 144.55 134.84 <
3 10 1 -1 200.62 46.62 68.63 <
3 10 1 0 914.62 823.60 281.67 <
3 10 1 1 1405.76 2124.29 477.39 o
3 10 1 2 541.24 291.08 172.80 <
4 10 1 -2 4.36 32.65 124.82 <
4 10 1 -1 106.27 -58.46 103.40 <
4 10 1 0 1623.26 1290.82 410.89 o
4 10 1 1 1381.64 1893.94 498.80 o
4 10 1 2 18.56 59.67 93.08 <
5 10 1 -2 66.91 214.40 179.78 <
5 10 1 -1 73.25 61.50 100.37 <
-5 11 1 2 80.98 -45.70 88.52 <
-4 11 1 -2 580.07 1207.00 422.73 <
-4 11 1 -1 1409.98 1353.07 445.05 o
-4 11 1 0 234.75 280.61 196.94 <
-4 11 1 1 73.30 -314.32 205.90 <
-4 11 1 2 104.12 -4.86 33.71 <
-3 11 1 -2 246.24 197.70 169.76 <
-3 11 1 -1 1586.48 1933.72 477.55 o
-3 11 1 0 104.98 249.78 169.15 <
-3 11 1 1 783.70 385.23 199.67 <
-3 11 1 2 106.80 -170.67 142.12 <
-2 11 1 -2 273.71 232.93 165.66 <
-2 11 1 -1 2751.95 3291.05 587.03 o
-2 11 1 0 3811.52 3551.31 624.84 o
-2 11 1 1 112.03 99.46 25.36 o
-2 11 1 2 30.52 -184.49 148.05 <
-1 11 1 -2 414.61 172.95 148.96 <
-1 11 1 -1 61.02 182.06 110.85 <
-1 11 1 0 159.47 195.42 115.86 <
-1 11 1 1 193.65 198.31 77.44 <
-1 11 1 2 31.88 6.38 60.89 <
0 11 1 -2 241.34 110.69 101.28 <
0 11 1 -1 1028.47 958.13 270.89 o
0 11 1 0 452.76 272.41 169.46 <
0 11 1 1 317.65 108.11 156.40 <
0 11 1 2 78.34 -32.65 127.85 <
1 11 1 -2 220.89 99.46 112.82 <
1 11 1 -1 53.82 37.66 81.54 <
1 11 1 0 287.89 331.78 156.40 <
1 11 1 1 1514.95 1324.53 257.37 o
1 11 1 2 122.67 124.97 126.94 <
2 11 1 -2 444.26 23.38 69.54 <
2 11 1 -1 219.72 -5.31 79.26 <
2 11 1 0 3862.49 3806.25 589.00 o
2 11 1 1 540.61 192.84 156.70 <
2 11 1 2 552.72 285.01 160.35 <
3 11 1 -2 162.83 190.56 106.29 <
3 11 1 -1 359.55 369.89 193.45 <
3 11 1 0 227.24 296.55 197.85 <
3 11 1 1 405.89 177.35 103.10 <
3 11 1 2 0.46 -331.47 193.60 <
4 11 1 -2 159.74 -4.86 28.24 <
4 11 1 -1 123.49 128.46 128.76 <
4 11 1 0 245.96 322.06 194.82 <
4 11 1 1 106.90 48.59 176.74 <
4 11 1 2 58.51 29.15 67.87 <
5 11 1 -2 134.62 927.61 440.80 <
-4 12 1 -2 8.01 -181.91 170.06 <
-4 12 1 -1 580.31 1230.08 445.51 <
-4 12 1 0 1671.71 1736.78 509.89 o
-4 12 1 1 97.85 -129.37 136.66 <
-4 12 1 2 70.84 6.53 79.57 <
-3 12 1 -2 12.00 -25.81 61.80 <
-3 12 1 -1 229.41 78.81 112.21 <
-3 12 1 0 3295.53 3746.43 692.10 o
-3 12 1 1 63.36 61.04 97.48 <
-3 12 1 2 313.90 160.80 158.83 <
-2 12 1 -2 17.07 -74.86 94.14 <
-2 12 1 -1 1017.59 1458.45 440.19 o
-2 12 1 0 4554.40 4784.73 759.22 o
-2 12 1 1 618.49 474.96 286.53 <
-2 12 1 2 57.71 113.88 113.28 <
-1 12 1 -2 20.43 116.16 187.07 <
-1 12 1 -1 3524.17 3752.96 460.24 o
-1 12 1 0 12197.90 10316.20 789.89 o
-1 12 1 1 459.89 487.42 133.01 o
-1 12 1 2 462.45 297.46 90.80 o
0 12 1 -2 11.41 -80.17 152.30 <
0 12 1 -1 100.63 212.73 144.25 <
0 12 1 0 28226.70 33313.60 1773.83 o
0 12 1 1 609.84 570.78 230.95 <
0 12 1 2 27.29 -84.73 138.33 <
1 12 1 -2 93.36 -44.79 83.97 <
1 12 1 -1 889.79 481.34 172.80 <
1 12 1 0 12380.80 11018.30 1121.67 o
1 12 1 1 13366.20 13104.80 892.38 o
1 12 1 2 43.55 -7.59 47.22 <
2 12 1 -2 166.62 34.16 75.31 <
2 12 1 -1 60.94 69.24 87.31 <
2 12 1 0 5744.62 6797.41 835.90 o
2 12 1 1 478.46 407.39 199.98 <
2 12 1 2 498.69 613.75 250.24 <
3 12 1 -2 178.19 78.81 154.58 <
3 12 1 -1 732.68 247.05 188.74 <
3 12 1 0 3584.72 3115.67 596.74 o
3 12 1 1 2287.60 3155.45 602.21 o
3 12 1 2 20.71 94.45 122.23 <
4 12 1 -2 167.42 73.80 97.79 <
4 12 1 -1 194.63 245.68 202.41 <
4 12 1 0 2201.94 2748.51 617.85 o
4 12 1 1 145.24 45.55 83.82 <
4 12 1 2 276.43 -42.67 80.02 <
5 12 1 -2 95.32 96.42 125.57 <
-4 13 1 -2 79.45 121.17 142.43 <
-4 13 1 -1 1768.02 2412.79 615.42 o
-4 13 1 0 4144.26 5670.13 939.60 o
-4 13 1 1 88.22 325.40 222.15 <
-4 13 1 2 119.07 154.12 154.27 <
-3 13 1 -2 0.95 -39.02 77.14 <
-3 13 1 -1 1251.91 2290.40 572.90 o
-3 13 1 0 1083.47 653.08 264.97 <
-3 13 1 1 7.21 138.79 139.09 <
-3 13 1 2 210.56 63.17 78.96 <
-2 13 1 -2 409.97 403.75 234.45 <
-2 13 1 -1 4526.08 6211.45 904.83 o
-2 13 1 0 20514.20 22161.20 1736.33 o
-2 13 1 1 63.78 3.19 160.35 <
-2 13 1 2 127.25 197.70 173.10 <
-1 13 1 -2 18.34 -40.09 117.83 <
-1 13 1 -1 4069.17 3320.20 465.86 o
-1 13 1 0 3821.48 3320.20 468.89 o
-1 13 1 1 26.12 141.52 105.53 <
-1 13 1 2 166.54 -8.81 73.19 <
0 13 1 -2 116.98 80.32 148.96 <
0 13 1 -1 2820.48 4080.94 623.32 o
0 13 1 0 41931.20 56414.40 2331.10 o
0 13 1 1 299.34 64.23 39.33 <
0 13 1 2 5.58 -23.38 121.63 <
1 13 1 -2 12.57 25.21 97.18 <
1 13 1 -1 439.58 441.71 189.50 <
1 13 1 0 3209.47 2731.66 447.94 o
1 13 1 1 2793.86 2156.78 375.96 o
1 13 1 2 23.61 45.86 84.73 <
2 13 1 -2 268.84 34.32 116.92 <
2 13 1 -1 36.93 -3.49 94.90 <
2 13 1 0 20556.70 20443.90 1531.49 o
2 13 1 1 433.67 254.03 188.89 <
2 13 1 2 1482.15 884.49 310.22 <
3 13 1 -2 33.70 125.88 124.51 <
3 13 1 -1 36.04 -44.03 91.11 <
3 13 1 0 484.47 763.01 299.59 <
3 13 1 1 242.58 398.89 237.18 <
3 13 1 2 3.50 102.49 140.91 <
4 13 1 -2 50.76 -46.31 81.39 <
4 13 1 -1 203.24 66.36 98.24 <
4 13 1 0 4233.56 4034.93 772.27 o
4 13 1 1 139.91 27.64 67.87 <
4 13 1 2 104.31 277.27 211.06 <
-4 14 1 -1 41.21 375.81 251.30 <
-4 14 1 0 733.91 1318.30 484.53 <
-4 14 1 1 69.96 171.13 167.33 <
-4 14 1 2 18.53 90.50 124.51 <
-3 14 1 -2 17.41 65.75 123.45 <
-3 14 1 -1 87.87 249.02 191.32 <
-3 14 1 0 11785.00 12782.50 1387.24 o
-3 14 1 1 266.53 432.75 256.01 <
-3 14 1 2 358.86 325.70 225.64 <
-2 14 1 -2 60.61 179.93 157.92 <
-2 14 1 -1 166.54 77.29 49.20 <
-2 14 1 0 4093.76 3682.04 746.01 o
-2 14 1 1 93.05 150.63 185.70 <
-2 14 1 2 125.01 296.70 232.02 <
-1 14 1 -2 54.20 12.45 110.24 <
-1 14 1 -1 163.33 52.08 73.95 <
-1 14 1 0 30465.80 25459.70 1356.42 o
-1 14 1 1 84.71 72.73 142.28 <
-1 14 1 2 441.78 361.84 209.09 <
0 14 1 -2 71.47 -62.26 122.99 <
0 14 1 -1 398.82 289.26 168.70 <
0 14 1 0 2253.94 2802.87 521.58 o
0 14 1 1 336.49 192.99 146.23 <
0 14 1 2 46.00 -187.22 139.54 <
1 14 1 -2 65.70 -9.41 135.90 <
1 14 1 -1 305.62 271.80 172.34 <
1 14 1 0 31714.60 26337.50 1950.27 o
1 14 1 1 3560.58 2902.94 463.88 o
1 14 1 2 807.78 645.64 232.32 <
2 14 1 -2 65.10 -109.33 125.88 <
2 14 1 -1 54.50 84.88 27.48 o
2 14 1 0 3434.12 2788.14 600.69 o
2 14 1 1 175.54 59.67 180.24 <
2 14 1 2 71.24 -93.08 105.99 <
3 14 1 -2 78.91 286.68 244.62 <
3 14 1 -1 312.29 158.52 164.45 <
3 14 1 0 12109.50 11939.00 1263.94 o
3 14 1 1 1091.52 1516.31 486.81 o
3 14 1 2 28.94 -105.23 119.65 <
4 14 1 -2 15.28 160.20 153.66 <
4 14 1 -1 23.65 458.87 260.56 <
4 14 1 0 383.64 701.67 347.72 <
4 14 1 1 5.58 464.18 270.43 <
-4 15 1 0 22.66 158.52 169.76 <
-4 15 1 1 487.74 485.44 292.45 <
-4 15 1 2 37.61 146.53 161.87 <
-3 15 1 -2 61.50 254.64 201.65 <
-3 15 1 -1 2026.67 2343.24 613.75 o
-3 15 1 0 506.18 292.75 204.99 <
-3 15 1 1 2.54 -28.85 136.20 <
-3 15 1 2 7.25 -198.91 186.01 <
-2 15 1 -2 54.33 -105.38 127.70 <
-2 15 1 -1 1373.43 1555.63 486.51 o
-2 15 1 0 1453.81 1473.33 523.55 <
-2 15 1 1 842.83 494.25 302.32 <
-2 15 1 2 83.30 188.29 186.62 <
-1 15 1 -2 453.35 280.76 193.60 <
-1 15 1 -1 10.35 97.48 77.74 <
-1 15 1 0 1220.84 980.45 290.78 o
-1 15 1 1 64.27 -42.36 109.63 <
-1 15 1 2 33.20 121.17 128.46 <
0 15 1 -2 270.77 485.59 247.66 <
0 15 1 -1 663.05 916.22 297.46 o
0 15 1 0 538.89 436.40 211.97 <
0 15 1 1 340.39 365.49 222.15 <
0 15 1 2 202.60 -241.73 160.35 <
1 15 1 -2 172.27 -93.84 119.20 <
1 15 1 -1 1434.88 1090.99 318.72 o
1 15 1 0 1224.91 759.82 290.93 <
1 15 1 1 411.48 538.74 233.23 <
1 15 1 2 68.64 -54.36 90.95 <
2 15 1 -2 318.46 315.08 232.93 <
2 15 1 -1 269.88 114.49 129.83 <
2 15 1 0 1315.90 954.18 368.98 <
2 15 1 1 59.36 -80.78 153.21 <
2 15 1 2 596.50 404.81 227.92 <
3 15 1 -2 226.46 139.85 135.75 <
3 15 1 -1 3.46 -210.61 174.32 <
3 15 1 0 495.03 604.64 293.82 <
3 15 1 1 108.37 205.90 192.08 <
3 15 1 2 1.72 31.74 70.76 <
4 15 1 -2 93.04 121.17 141.06 <
4 15 1 -1 249.07 -46.77 86.85 <
4 15 1 0 24.02 -28.09 71.52 <
-4 16 1 1 125.75 7.74 53.45 <
-4 16 1 2 81.99 -74.86 121.47 <
-3 16 1 -2 43.80 12.75 50.56 <
-3 16 1 -1 541.76 1012.34 416.35 <
-3 16 1 0 1635.65 1486.24 498.96 <
-3 16 1 1 206.43 -6.07 45.25 <
-3 16 1 2 7.25 119.65 151.24 <
-2 16 1 -2 36.34 -87.01 121.63 <
-2 16 1 -1 149.46 87.16 124.97 <
-2 16 1 0 347.86 127.09 203.32 <
-2 16 1 1 69.09 107.35 144.40 <
-2 16 1 2 235.31 99.31 143.79 <
-1 16 1 -2 34.14 -302.02 230.19 <
-1 16 1 -1 217.18 262.99 141.67 <
-1 16 1 0 4088.60 3694.65 564.86 o
-1 16 1 1 69.12 -19.44 128.00 <
-1 16 1 2 28.95 9.11 110.54 <
0 16 1 -2 47.58 -111.76 108.26 <
0 16 1 -1 208.52 3.64 160.20 <
0 16 1 0 2492.90 2789.81 538.44 o
0 16 1 1 1776.81 1983.22 460.39 o
0 16 1 2 151.68 362.60 191.02 <
1 16 1 -2 18.04 9.72 109.02 <
1 16 1 -1 91.72 53.30 98.24 <
1 16 1 0 4813.64 3427.71 568.96 o
1 16 1 1 1052.00 477.09 223.82 <
1 16 1 2 9.62 -287.89 159.59 <
2 16 1 -2 82.61 182.06 244.47 <
2 16 1 -1 65.01 -12.91 55.88 <
2 16 1 0 430.67 9.11 47.22 <
2 16 1 1 1761.49 1930.23 541.62 o
2 16 1 2 378.32 279.39 205.60 <
3 16 1 -2 1.16 63.01 102.19 <
3 16 1 -1 393.72 -49.96 91.41 <
3 16 1 0 2216.11 2332.31 597.05 o
3 16 1 1 771.52 1017.80 400.11 <
3 16 1 2 64.88 -225.64 188.74 <
4 16 1 -2 103.46 248.41 205.60 <
4 16 1 -1 27.17 117.22 142.73 <
4 16 1 0 97.58 -187.07 182.51 <
-4 17 1 2 96.93 106.90 151.24 <
-3 17 1 -2 31.06 -250.54 216.53 <
-3 17 1 -1 1956.60 3877.16 864.59 o
-3 17 1 0 1981.69 1885.59 605.55 o
-3 17 1 1 58.25 -4.71 210.15 <
-3 17 1 2 90.01 212.58 211.52 <
-2 17 1 -2 1453.00 805.53 328.59 <
-2 17 1 -1 510.44 375.36 281.21 <
-2 17 1 0 838.31 926.55 465.25 <
-2 17 1 1 17.16 -150.48 179.63 <
-2 17 1 2 131.88 681.62 408.46 <
-1 17 1 -2 50.32 135.75 162.93 <
-1 17 1 -1 2052.17 1767.00 383.10 o
-1 17 1 0 6366.50 5342.45 697.72 o
-1 17 1 1 93.18 107.66 146.07 <
-1 17 1 2 46.02 -31.43 80.32 <
0 17 1 -2 22.58 -154.58 142.28 <
0 17 1 -1 1323.17 2228.45 471.17 o
0 17 1 0 1545.56 2395.17 502.75 o
0 17 1 1 89.47 128.16 112.06 <
0 17 1 2 24.50 -63.77 145.01 <
1 17 1 -2 718.64 388.11 223.06 <
1 17 1 -1 845.70 915.92 302.62 o
1 17 1 0 5924.92 5522.23 742.36 o
1 17 1 1 1780.45 1348.37 348.33 o
1 17 1 2 12.08 -11.84 148.50 <
2 17 1 -2 23.07 -181.76 183.27 <
2 17 1 -1 576.17 442.62 285.01 <
2 17 1 0 298.84 25.97 75.01 <
2 17 1 1 194.97 288.65 249.63 <
2 17 1 2 48.64 5.31 36.14 <
3 17 1 -2 250.95 -236.27 204.53 <
3 17 1 -1 17.57 257.53 237.94 <
3 17 1 0 1367.65 1743.77 511.10 o
3 17 1 1 210.92 53.75 116.62 <
3 17 1 2 6.08 44.03 90.04 <
4 17 1 -2 8.82 270.89 223.06 <
4 17 1 -1 353.81 332.23 248.11 <
-3 18 1 -2 9.01 301.71 245.83 <
-3 18 1 -1 31.45 281.21 240.37 <
-3 18 1 0 1059.26 801.58 370.65 <
-3 18 1 1 409.30 64.08 122.54 <
-3 18 1 2 30.05 -162.32 194.36 <
-2 18 1 -2 6.70 -364.27 267.85 <
-2 18 1 -1 260.50 440.35 364.73 <
-2 18 1 0 4989.05 4961.63 1034.05 o
-2 18 1 1 328.55 429.11 419.39 <
-2 18 1 2 468.70 338.15 342.71 <
-1 18 1 -2 2.02 43.73 71.52 <
-1 18 1 -1 88.78 63.62 86.25 <
-1 18 1 0 4345.77 5391.04 714.42 o
-1 18 1 1 411.04 684.51 250.54 <
-1 18 1 2 33.30 -114.49 98.70 <
0 18 1 -2 24.66 -41.60 138.02 <
0 18 1 -1 26.08 192.23 139.85 <
0 18 1 0 10784.70 13623.20 1189.39 o
0 18 1 1 415.67 578.22 271.65 <
0 18 1 2 754.11 843.03 290.02 <
1 18 1 -2 52.01 30.67 112.52 <
1 18 1 -1 270.94 283.49 156.40 <
1 18 1 0 3724.68 3232.59 570.47 o
1 18 1 1 361.25 143.49 219.57 <
1 18 1 2 225.34 -42.52 89.74 <
2 18 1 -2 87.73 162.02 274.38 <
2 18 1 -1 111.43 19.74 55.27 <
2 18 1 0 5603.64 5290.52 1003.38 o
2 18 1 1 1411.72 1272.90 472.54 <
2 18 1 2 90.53 105.99 76.38 <
3 18 1 -2 119.09 -238.70 138.18 <
3 18 1 -1 149.86 -145.77 165.81 <
3 18 1 0 478.75 134.08 157.46 <
3 18 1 1 46.61 378.70 262.23 <
3 18 1 2 10.38 85.64 127.70 <
-3 19 1 0 668.45 670.54 418.48 <
-3 19 1 1 623.76 520.52 341.80 <
-3 19 1 2 100.68 -158.22 198.91 <
-2 19 1 -2 734.61 911.36 473.14 <
-2 19 1 -1 142.53 341.80 273.62 <
-2 19 1 0 1539.61 1409.56 567.13 <
-2 19 1 1 2.70 -171.58 201.95 <
-2 19 1 2 59.58 73.19 327.07 <
-1 19 1 -2 113.23 -20.95 100.67 <
-1 19 1 -1 390.22 295.94 173.40 <
-1 19 1 0 2860.33 3663.37 611.62 o
-1 19 1 1 114.19 250.24 158.37 <
-1 19 1 2 82.77 51.93 71.06 <
0 19 1 -2 57.11 15.79 171.13 <
0 19 1 -1 52.30 85.79 49.96 <
0 19 1 0 96.58 31.89 151.84 <
0 19 1 1 65.51 -10.78 56.94 <
0 19 1 2 124.10 0.30 165.51 <
1 19 1 -2 437.26 249.33 179.63 <
1 19 1 -1 3.93 -7.59 115.55 <
1 19 1 0 2765.86 2865.74 545.42 o
1 19 1 1 184.57 25.21 54.21 <
1 19 1 2 142.90 167.33 160.04 <
2 19 1 -2 58.66 97.48 144.10 <
2 19 1 -1 8.99 452.95 301.11 <
2 19 1 0 1686.84 1264.55 496.53 <
2 19 1 1 39.14 360.17 265.12 <
2 19 1 2 35.83 872.49 403.60 <
3 19 1 -2 94.06 -294.73 249.63 <
3 19 1 -1 151.53 699.24 375.36 <
3 19 1 0 542.32 78.65 127.55 <
3 19 1 1 482.65 264.05 229.28 <
-3 20 1 1 18.10 -288.81 271.65 <
-3 20 1 2 75.66 528.57 369.13 <
-2 20 1 -2 3.26 -131.34 176.14 <
-2 20 1 -1 103.51 265.88 250.24 <
-2 20 1 0 891.54 634.55 388.87 <
-2 20 1 1 483.15 277.87 262.69 <
-2 20 1 2 191.66 -71.82 141.82 <
-1 20 1 -2 7.98 -213.34 221.39 <
-1 20 1 -1 27.39 232.93 114.64 <
-1 20 1 0 172.56 -182.82 138.63 <
-1 20 1 1 36.76 -54.97 76.07 <
-1 20 1 2 216.98 246.29 204.23 <
0 20 1 -2 33.50 153.51 129.07 <
0 20 1 -1 48.42 185.10 150.32 <
0 20 1 0 151.51 148.96 190.41 <
0 20 1 1 119.04 112.52 106.59 <
0 20 1 2 148.86 117.68 138.33 <
1 20 1 -2 23.70 -307.33 183.73 <
1 20 1 -1 148.61 753.90 283.04 <
1 20 1 0 194.49 162.32 151.39 <
1 20 1 1 1481.14 1637.63 426.98 o
1 20 1 2 158.54 15.03 68.79 <
2 20 1 -2 123.27 -265.57 244.01 <
2 20 1 -1 278.53 235.21 227.16 <
2 20 1 0 769.87 689.06 377.03 <
2 20 1 1 150.38 618.91 355.46 <
2 20 1 2 390.93 322.36 255.40 <
3 20 1 -2 11.66 -247.50 237.03 <
3 20 1 -1 13.32 238.09 220.48 <
3 20 1 0 63.26 -83.36 137.87 <
-2 21 1 -2 116.61 144.10 189.50 <
-2 21 1 -1 791.45 1264.85 555.44 <
-2 21 1 0 118.66 149.26 102.95 <
-2 21 1 1 15.65 -384.32 317.35 <
-2 21 1 2 55.95 -151.99 206.05 <
-1 21 1 -2 317.01 -211.06 225.64 <
-1 21 1 -1 256.31 413.62 340.58 <
-1 21 1 0 332.98 386.44 194.82 <
-1 21 1 1 106.50 -379.76 190.87 <
-1 21 1 2 4.29 -10.17 93.08 <
0 21 1 -2 246.28 301.86 199.37 <
0 21 1 -1 1186.04 1024.94 342.71 <
0 21 1 0 184.33 68.03 124.06 <
0 21 1 1 12.02 108.11 106.75 <
0 21 1 2 8.32 28.55 223.06 <
1 21 1 -2 26.49 -40.39 90.04 <
1 21 1 -1 1166.79 1375.40 398.13 o
1 21 1 0 381.01 49.80 165.66 <
1 21 1 1 225.24 541.93 249.78 <
1 21 1 2 104.64 -68.94 92.93 <
2 21 1 -2 300.50 -295.33 264.21 <
2 21 1 -1 72.98 235.81 234.29 <
2 21 1 0 257.48 68.94 239.30 <
2 21 1 1 79.68 -8.05 62.26 <
2 21 1 2 187.57 234.60 183.27 <
3 21 1 -2 17.15 0.76 249.63 <
-2 22 1 0 190.95 136.96 116.62 <
-2 22 1 1 867.71 601.91 386.90 <
-2 22 1 2 34.92 123.30 185.86 <
-1 22 1 -2 9.22 147.29 175.99 <
-1 22 1 -1 315.16 612.53 241.28 <
-1 22 1 0 393.68 424.70 204.99 <
-1 22 1 1 717.93 491.06 256.46 <
-1 22 1 2 359.59 314.01 182.97 <
0 22 1 -2 44.81 -317.50 186.31 <
0 22 1 -1 192.61 83.21 135.60 <
0 22 1 0 415.72 127.25 156.40 <
0 22 1 1 98.58 20.35 58.16 <
0 22 1 2 36.09 3.34 82.30 <
1 22 1 -2 16.19 68.79 124.82 <
1 22 1 -1 103.30 166.12 138.18 <
1 22 1 0 234.80 -33.10 76.23 <
1 22 1 1 984.93 1265.16 403.45 o
1 22 1 2 742.84 644.57 400.71 <
2 22 1 -2 5.48 8.20 56.18 <
2 22 1 -1 55.26 -98.39 156.25 <
2 22 1 0 71.16 -78.50 136.51 <
2 22 1 1 35.08 108.26 159.89 <
2 22 1 2 29.90 -84.58 141.21 <
-1 23 1 -2 152.90 799.00 515.05 <
-1 23 1 -1 1688.72 2211.60 501.69 o
-1 23 1 0 695.77 920.93 320.39 <
-1 23 1 1 53.64 446.27 229.74 <
-1 23 1 2 26.51 -178.72 131.95 <
0 23 1 -2 388.42 273.01 219.57 <
0 23 1 -1 306.09 281.21 175.53 <
0 23 1 0 311.05 228.22 159.43 <
0 23 1 1 146.56 265.12 186.16 <
0 23 1 2 24.46 -154.58 145.77 <
1 23 1 -2 17.12 -89.89 198.31 <
1 23 1 -1 230.67 129.67 122.99 <
1 23 1 0 859.20 760.73 283.95 <
1 23 1 1 351.27 266.79 176.44 <
1 23 1 2 37.05 208.02 217.90 <
2 23 1 -2 187.46 170.82 209.24 <
2 23 1 -1 14.98 -132.86 183.58 <
-1 24 1 0 3986.65 4521.28 946.59 o
0 24 1 -2 20.06 -200.13 152.15 <
0 24 1 -1 372.78 859.13 311.73 <
0 24 1 0 1270.85 1484.72 402.08 o
0 24 1 1 460.61 698.93 385.68 <
1 24 1 -2 61.84 207.42 154.73 <
1 24 1 -1 42.17 14.27 94.90 <
1 24 1 0 3954.03 4560.91 1044.07 o
1 24 1 1 160.76 -455.68 322.82 <
1 24 1 2 67.74 227.01 230.95 <
0 25 1 0 3220.48 4036.90 928.22 o
2 -24 2 -2 122.32 134.38 193.15 <
-1 -23 2 -2 41.42 -111.76 161.41 <
-1 -23 2 -1 1402.80 1912.62 632.88 o
0 -23 2 -2 4.52 -283.80 171.89 <
0 -23 2 -1 852.02 1043.47 350.91 <
0 -23 2 0 1063.99 967.39 313.10 o
0 -23 2 1 258.35 69.09 127.09 <
0 -23 2 2 62.00 54.21 115.70 <
1 -23 2 -2 25.62 160.50 119.35 <
1 -23 2 -1 848.49 694.83 268.61 <
1 -23 2 1 667.28 584.44 341.04 <
2 -23 2 -2 28.92 372.47 295.94 <
2 -23 2 -1 18.26 -688.61 402.84 <
-2 -22 2 1 46.98 64.99 122.84 <
-2 -22 2 2 13.83 -120.71 161.87 <
-1 -22 2 -2 37.05 -190.26 139.70 <
-1 -22 2 -1 1371.24 1263.64 353.95 o
-1 -22 2 0 1072.92 798.70 266.94 <
-1 -22 2 1 69.02 456.90 307.03 <
-1 -22 2 2 132.53 240.22 224.88 <
0 -22 2 -2 87.10 -84.42 95.66 <
0 -22 2 -1 37.80 225.64 157.92 <
0 -22 2 0 55.98 182.82 137.72 <
0 -22 2 1 73.01 72.28 129.07 <
0 -22 2 2 88.13 121.17 108.42 <
1 -22 2 -2 122.53 -36.44 118.44 <
1 -22 2 -1 313.07 374.45 207.11 <
1 -22 2 0 1003.65 1129.71 330.11 o
1 -22 2 1 427.54 215.01 143.64 <
1 -22 2 2 119.02 -287.59 229.89 <
2 -22 2 -2 44.51 -160.35 132.56 <
2 -22 2 -1 38.31 54.06 85.03 <
-2 -21 2 -2 51.94 -360.32 294.27 <
-2 -21 2 -1 1816.22 1443.42 554.08 <
-2 -21 2 0 5270.57 4533.13 983.49 o
-2 -21 2 1 862.49 328.13 289.87 <
-2 -21 2 2 241.88 438.98 292.30 <
-1 -21 2 -2 208.48 370.04 273.92 <
-1 -21 2 -1 829.40 1100.56 331.47 o
-1 -21 2 0 4435.40 5643.55 739.48 o
-1 -21 2 1 1093.52 758.30 382.34 <
-1 -21 2 2 87.15 -17.16 103.10 <
0 -21 2 -2 63.20 -47.53 96.27 <
0 -21 2 -1 1743.64 2306.35 459.02 o
0 -21 2 0 5240.13 6491.30 782.60 o
0 -21 2 1 2247.33 2444.68 468.89 o
0 -21 2 2 108.62 197.40 128.46 <
1 -21 2 -2 53.87 226.85 175.83 <
1 -21 2 -1 79.40 21.56 133.47 <
1 -21 2 0 4601.47 6396.70 778.20 o
1 -21 2 1 1113.93 2054.59 614.81 o
1 -21 2 2 21.03 -117.07 104.01 <
2 -21 2 -2 102.31 203.47 162.47 <
2 -21 2 -1 1179.31 1345.63 348.94 o
2 -21 2 0 5899.48 6032.12 773.79 o
2 -21 2 1 2181.04 2725.28 677.52 o
2 -21 2 2 5.35 -366.70 254.34 <
3 -21 2 -2 100.52 57.40 140.30 <
-3 -20 2 0 779.90 362.60 301.41 <
-3 -20 2 1 58.58 -477.24 330.56 <
-3 -20 2 2 63.72 -58.61 118.29 <
-2 -20 2 -2 58.02 186.01 311.89 <
-2 -20 2 -1 74.91 -2.89 44.64 <
-2 -20 2 0 555.39 391.45 282.43 <
-2 -20 2 1 269.92 481.49 303.23 <
-2 -20 2 2 24.89 256.16 219.11 <
-1 -20 2 -2 31.27 -94.75 137.72 <
-1 -20 2 -1 19.15 -151.99 169.15 <
-1 -20 2 1 246.30 300.35 244.62 <
-1 -20 2 2 40.10 -110.69 145.77 <
0 -20 2 -2 5.22 -15.18 108.87 <
0 -20 2 -1 153.85 203.32 155.49 <
0 -20 2 0 86.18 10.63 122.69 <
0 -20 2 1 128.54 -62.56 101.58 <
0 -20 2 2 18.53 -51.17 90.35 <
1 -20 2 -2 222.37 229.89 138.48 <
1 -20 2 -1 148.05 25.36 123.90 <
1 -20 2 0 1396.80 1706.11 386.74 o
1 -20 2 1 2084.76 2530.77 479.37 o
1 -20 2 2 453.35 384.01 232.02 <
2 -20 2 -2 41.58 132.26 114.94 <
2 -20 2 -1 128.35 -66.36 86.10 <
2 -20 2 0 1033.28 805.07 285.62 <
2 -20 2 1 158.95 254.18 206.05 <
2 -20 2 2 210.86 633.19 347.87 <
3 -20 2 -2 285.86 698.78 386.44 <
-3 -19 2 -2 69.09 502.90 342.56 <
-3 -19 2 -1 133.69 -37.51 100.82 <
-3 -19 2 0 46.60 28.09 113.12 <
-3 -19 2 1 161.99 -71.97 131.65 <
-3 -19 2 2 53.10 -176.44 191.47 <
-2 -19 2 -2 426.86 447.33 307.48 <
-2 -19 2 -1 930.57 894.36 446.11 <
-2 -19 2 0 1108.31 1009.15 436.40 <
-2 -19 2 1 1028.34 964.36 421.06 <
-2 -19 2 2 122.16 -227.01 200.59 <
-1 -19 2 -2 263.57 80.17 35.23 <
-1 -19 2 -1 454.78 431.08 265.12 <
-1 -19 2 2 9.02 18.52 163.08 <
0 -19 2 -2 24.41 42.21 66.96 <
0 -19 2 -1 1104.73 1525.72 359.11 o
0 -19 2 0 193.93 113.88 127.70 <
0 -19 2 1 1040.40 1195.61 314.32 o
0 -19 2 2 13.46 126.49 118.29 <
1 -19 2 -2 20.56 -173.71 121.78 <
1 -19 2 -1 345.47 267.55 173.25 <
1 -19 2 0 65.28 2.73 67.11 <
1 -19 2 1 371.44 321.76 165.96 <
1 -19 2 2 37.86 55.88 91.11 <
2 -19 2 -2 101.51 168.24 104.32 <
2 -19 2 -1 1191.09 817.07 403.14 <
2 -19 2 0 1419.73 1021.15 443.69 <
2 -19 2 1 630.87 741.45 391.60 <
3 -19 2 -2 54.20 283.49 237.94 <
3 -19 2 -1 74.70 43.28 96.72 <
-3 -18 2 -2 149.17 218.81 221.08 <
-3 -18 2 -1 28.10 -324.03 265.27 <
-3 -18 2 0 1029.26 377.18 245.23 <
-3 -18 2 1 85.62 464.79 303.99 <
-3 -18 2 2 64.10 499.72 308.24 <
-2 -18 2 -2 632.72 861.10 409.52 <
-2 -18 2 -1 1179.92 850.17 407.24 <
-2 -18 2 0 854.24 666.59 355.16 <
-2 -18 2 1 94.52 201.04 155.94 <
-2 -18 2 2 9.67 -63.47 107.50 <
-1 -18 2 -2 175.66 102.65 184.79 <
-1 -18 2 -1 1953.32 2398.51 633.79 o
0 -18 2 -2 35.66 71.82 97.94 <
0 -18 2 -1 877.48 635.31 212.73 <
0 -18 2 0 886.78 775.01 256.61 o
0 -18 2 1 29.16 92.17 107.05 <
0 -18 2 2 52.82 -137.27 101.28 <
1 -18 2 -2 33.32 -36.29 79.11 <
1 -18 2 -1 930.72 762.10 241.89 o
1 -18 2 0 2566.38 2745.63 467.07 o
1 -18 2 1 2494.14 2573.29 454.47 o
1 -18 2 2 183.78 157.31 104.62 <
2 -18 2 -2 52.89 253.27 218.65 <
2 -18 2 -1 255.13 191.63 204.99 <
2 -18 2 0 445.03 290.93 233.69 <
2 -18 2 1 199.11 221.54 227.61 <
3 -18 2 -2 93.42 71.21 118.13 <
3 -18 2 -1 895.27 381.73 333.30 <
-4 -17 2 1 811.34 769.84 488.33 <
-4 -17 2 2 111.63 340.43 268.61 <
-3 -17 2 -2 68.29 -0.61 39.33 <
-3 -17 2 -1 861.14 774.40 393.88 <
-3 -17 2 0 6153.59 5726.46 1053.34 o
-3 -17 2 1 110.57 231.41 265.27 <
-3 -17 2 2 299.42 -22.02 59.52 <
-2 -17 2 -2 322.44 366.40 314.16 <
-2 -17 2 -1 443.02 666.74 339.22 <
-2 -17 2 0 6097.99 4889.65 900.73 o
-2 -17 2 1 2304.21 1365.07 448.70 o
-2 -17 2 2 184.36 62.26 102.04 <
-1 -17 2 -2 128.07 -35.08 77.59 <
-1 -17 2 -1 384.68 62.26 100.52 <
0 -17 2 -2 78.30 73.19 71.82 <
0 -17 2 -1 2274.53 2071.44 399.50 o
0 -17 2 0 5962.67 6755.50 703.64 o
0 -17 2 1 3185.21 3281.03 493.34 o
0 -17 2 2 23.86 -88.07 75.01 <
1 -17 2 -2 26.49 -343.01 158.07 <
1 -17 2 -1 1617.80 1758.65 356.07 o
1 -17 2 0 14732.50 15595.10 1067.76 o
1 -17 2 1 535.71 689.52 216.53 o
1 -17 2 2 50.35 -168.39 142.88 <
2 -17 2 -2 68.22 -288.96 225.94 <
2 -17 2 -1 1061.13 421.82 313.71 <
2 -17 2 0 6015.04 4443.23 869.15 o
2 -17 2 1 908.13 765.59 331.02 <
2 -17 2 2 0.26 134.84 136.96 <
3 -17 2 -2 27.12 -29.15 76.38 <
3 -17 2 -1 604.72 -0.46 32.19 <
3 -17 2 0 6219.33 5670.43 901.95 o
4 -17 2 -2 49.65 32.19 79.41 <
-4 -16 2 -1 23.85 34.92 88.68 <
-4 -16 2 0 162.05 87.31 118.74 <
-4 -16 2 1 39.59 43.88 103.71 <
-4 -16 2 2 28.77 -51.63 110.09 <
-3 -16 2 -2 30.65 34.77 86.55 <
-3 -16 2 -1 66.21 134.53 80.63 <
-3 -16 2 0 302.22 -13.82 61.19 <
-3 -16 2 1 488.77 287.29 263.75 <
-3 -16 2 2 168.55 56.03 70.46 <
-2 -16 2 -2 220.55 12.30 57.70 <
-2 -16 2 -1 19.42 141.82 212.43 <
-2 -16 2 0 330.04 459.17 268.15 <
-2 -16 2 1 14.81 70.00 135.75 <
-2 -16 2 2 46.37 -105.83 125.57 <
-1 -16 2 -2 37.25 -28.70 185.10 <
-1 -16 2 -1 300.50 275.90 204.84 <
0 -16 2 -2 55.03 117.07 139.54 <
0 -16 2 -1 43.85 128.16 83.21 <
0 -16 2 0 75.78 373.69 172.19 <
0 -16 2 1 1195.74 1447.22 315.38 o
0 -16 2 2 156.11 65.90 53.60 <
1 -16 2 -2 83.31 -45.86 64.38 <
1 -16 2 -1 500.05 515.81 186.77 <
1 -16 2 0 45.81 107.35 99.46 <
1 -16 2 1 2213.37 2686.56 435.33 o
1 -16 2 2 239.43 247.05 129.07 <
2 -16 2 -2 187.95 -73.34 114.49 <
2 -16 2 -1 154.52 27.79 170.06 <
2 -16 2 0 550.41 221.69 196.64 <
2 -16 2 1 708.00 1312.23 430.63 o
2 -16 2 2 247.59 171.28 183.43 <
3 -16 2 -2 100.96 -64.53 104.32 <
3 -16 2 -1 136.35 42.21 78.81 <
3 -16 2 0 87.92 1.21 107.20 <
4 -16 2 -2 134.50 -423.95 243.56 <
-4 -15 2 -2 129.31 -131.80 155.18 <
-4 -15 2 -1 176.28 252.21 215.16 <
-4 -15 2 0 616.49 446.57 278.63 <
-4 -15 2 1 584.95 267.85 223.66 <
-4 -15 2 2 202.07 -6.23 54.06 <
-3 -15 2 -2 60.47 -151.99 190.87 <
-3 -15 2 -1 503.92 642.60 331.32 <
-3 -15 2 0 383.34 223.51 154.73 <
-3 -15 2 1 961.81 42.36 71.21 <
-3 -15 2 2 153.12 480.73 283.34 <
-2 -15 2 -2 443.92 213.19 157.46 <
-2 -15 2 -1 3.49 36.59 78.65 <
-2 -15 2 0 1503.35 1000.19 400.41 <
-2 -15 2 1 686.87 352.12 244.47 <
-2 -15 2 2 167.86 -263.90 188.74 <
-1 -15 2 -2 2.42 -172.49 155.94 <
-1 -15 2 -1 7249.31 7404.78 991.84 o
0 -15 2 -2 45.72 28.55 59.83 <
0 -15 2 -1 580.97 669.33 210.91 o
0 -15 2 0 13196.20 12525.20 896.48 o
0 -15 2 1 271.18 340.89 143.19 <
0 -15 2 2 62.57 -49.35 52.08 <
1 -15 2 -2 128.91 83.82 85.49 <
1 -15 2 -1 532.40 604.18 190.41 o
1 -15 2 0 2067.85 1903.96 353.95 o
1 -15 2 1 5056.30 5499.30 595.98 o
1 -15 2 2 9.96 206.66 177.35 <
2 -15 2 -2 114.32 -93.84 189.35 <
2 -15 2 -1 565.17 176.74 161.26 <
2 -15 2 0 1359.83 747.37 332.23 <
2 -15 2 1 8.64 22.78 57.55 <
2 -15 2 2 53.18 -28.39 108.87 <
3 -15 2 -2 319.75 -114.94 126.18 <
3 -15 2 -1 261.19 105.68 115.40 <
3 -15 2 0 472.27 236.12 153.66 <
4 -15 2 -2 138.98 91.26 146.53 <
-4 -14 2 -2 29.98 451.28 272.41 <
-4 -14 2 -1 123.02 95.51 129.98 <
-4 -14 2 0 138.99 23.69 160.50 <
-4 -14 2 1 591.59 370.04 264.81 <
-4 -14 2 2 103.03 -98.70 132.71 <
-3 -14 2 -2 2.54 230.19 188.44 <
-3 -14 2 -1 270.74 358.35 266.48 <
-3 -14 2 0 630.34 449.15 231.10 <
-3 -14 2 1 353.32 178.72 169.15 <
-3 -14 2 2 114.31 331.62 235.51 <
-2 -14 2 -2 275.02 8.81 44.64 <
-2 -14 2 -1 588.60 263.60 219.41 <
-2 -14 2 0 327.25 481.65 245.99 <
-2 -14 2 1 756.18 810.84 320.24 <
-2 -14 2 2 165.32 -179.02 150.02 <
-1 -14 2 -2 186.31 -237.18 174.32 <
-1 -14 2 -1 2763.21 3417.23 667.96 o
0 -14 2 -2 18.45 -47.38 124.21 <
0 -14 2 -1 1905.87 2000.84 482.56 o
0 -14 2 0 4669.54 5180.74 552.86 o
0 -14 2 1 47.98 63.32 88.68 <
0 -14 2 2 56.06 44.79 72.73 <
1 -14 2 -2 57.30 -42.06 74.71 <
1 -14 2 -1 242.38 134.99 122.39 <
1 -14 2 0 2295.49 2236.95 365.18 o
1 -14 2 1 462.86 115.40 112.52 <
1 -14 2 2 320.48 131.95 125.42 <
2 -14 2 -2 150.22 151.69 44.79 o
2 -14 2 -1 2036.87 1836.69 490.61 o
2 -14 2 0 733.62 566.53 227.01 <
2 -14 2 1 149.78 108.72 89.59 <
2 -14 2 2 1097.24 1024.94 310.52 o
3 -14 2 -2 7.09 216.83 160.95 <
3 -14 2 -1 153.95 -314.32 186.46 <
3 -14 2 0 1406.66 1760.47 432.30 o
3 -14 2 1 290.32 290.63 242.80 <
4 -14 2 -2 156.74 -111.61 116.31 <
4 -14 2 -1 935.37 330.41 203.62 <
-4 -13 2 -2 50.33 -89.89 122.08 <
-4 -13 2 -1 76.30 153.66 157.46 <
-4 -13 2 0 569.97 613.45 312.64 <
-4 -13 2 1 145.30 34.16 57.85 <
-4 -13 2 2 259.30 50.41 44.34 <
-3 -13 2 -2 14.37 71.37 174.47 <
-3 -13 2 -1 84.43 42.82 156.85 <
-3 -13 2 0 3607.82 3657.75 715.18 o
-3 -13 2 1 1796.67 1198.95 387.05 o
-3 -13 2 2 125.63 2.28 135.14 <
-2 -13 2 -2 64.33 -39.63 76.68 <
-2 -13 2 -1 100.14 92.02 185.86 <
-2 -13 2 0 2691.27 2337.02 540.41 o
-2 -13 2 1 97.12 -41.76 108.87 <
-2 -13 2 2 51.44 -65.44 162.02 <
-1 -13 2 -2 176.57 99.46 53.15 <
-1 -13 2 -1 2615.66 3066.47 604.34 o
-1 -13 2 1 3349.16 2448.62 338.91 o
-1 -13 2 2 159.49 118.89 80.02 <
0 -13 2 -2 20.38 4.10 17.77 <
0 -13 2 -1 62.15 94.45 133.17 <
0 -13 2 0 2600.89 2760.21 534.34 o
0 -13 2 1 193.18 102.04 93.54 <
0 -13 2 2 81.10 -42.06 84.42 <
1 -13 2 -2 54.44 36.14 98.55 <
1 -13 2 -1 2663.57 2022.70 478.15 o
1 -13 2 0 8845.43 7960.23 978.93 o
1 -13 2 1 2217.96 2285.85 300.65 o
1 -13 2 2 57.15 20.04 68.48 <
2 -13 2 -2 60.34 -155.79 138.79 <
2 -13 2 -1 1279.58 749.04 272.26 <
2 -13 2 0 2254.04 1885.89 443.69 o
2 -13 2 1 206.12 540.56 250.39 <
2 -13 2 2 132.05 223.06 121.93 <
3 -13 2 -2 34.64 -162.78 132.71 <
3 -13 2 -1 1404.35 805.07 319.33 <
3 -13 2 0 3423.26 3061.31 547.40 o
3 -13 2 1 274.39 314.16 168.39 <
4 -13 2 -2 153.92 -10.33 39.33 <
4 -13 2 -1 728.58 625.14 255.40 <
-5 -12 2 2 8.18 -233.99 200.43 <
-4 -12 2 -2 46.14 99.15 121.32 <
-4 -12 2 -1 0.58 -15.79 53.60 <
-4 -12 2 0 1513.87 1292.34 423.04 o
-4 -12 2 1 53.82 33.86 67.57 <
-4 -12 2 2 156.44 65.90 96.27 <
-3 -12 2 -2 74.22 -148.96 140.76 <
-3 -12 2 -1 71.73 -173.10 151.08 <
-3 -12 2 0 3111.24 3877.16 700.00 o
-3 -12 2 1 4.47 -64.99 93.69 <
-3 -12 2 2 7.48 61.19 164.75 <
-2 -12 2 -2 117.60 58.00 85.79 <
-2 -12 2 -1 257.19 240.67 186.16 <
-2 -12 2 0 2961.00 2703.42 558.48 o
-2 -12 2 1 410.33 209.70 191.47 <
-2 -12 2 2 123.70 -5.92 122.99 <
-1 -12 2 -2 134.68 322.36 200.59 <
-1 -12 2 -1 1616.44 1326.50 379.30 o
-1 -12 2 0 9015.92 9589.05 370.80 o
-1 -12 2 1 39.91 34.77 33.10 <
-1 -12 2 2 51.90 106.14 84.58 <
0 -12 2 -2 172.31 111.91 119.96 <
0 -12 2 -1 922.34 990.62 320.24 o
0 -12 2 0 25371.60 28433.10 1644.77 o
0 -12 2 1 37.60 3.19 84.58 <
0 -12 2 2 85.14 139.09 73.34 <
1 -12 2 -2 3.73 3.49 30.98 <
1 -12 2 -1 172.70 -61.65 151.39 <
1 -12 2 0 7081.35 7540.84 506.70 o
1 -12 2 1 69.74 99.15 68.79 <
1 -12 2 2 383.77 304.90 103.56 <
2 -12 2 -2 178.17 -0.30 109.63 <
2 -12 2 -1 1100.53 534.64 237.33 <
2 -12 2 0 2822.00 2738.64 500.32 o
2 -12 2 1 22.74 62.86 73.34 <
2 -12 2 2 1388.02 776.83 244.47 o
3 -12 2 -2 48.57 80.78 86.10 <
3 -12 2 -1 43.25 186.62 157.31 <
3 -12 2 0 1594.30 1744.22 398.59 o
3 -12 2 1 40.14 48.59 78.96 <
4 -12 2 -2 119.74 14.73 105.23 <
4 -12 2 -1 380.81 15.49 44.79 <
-5 -11 2 1 749.72 188.44 176.74 <
-5 -11 2 2 167.75 117.68 139.70 <
-4 -11 2 -2 19.63 -43.43 82.00 <
-4 -11 2 -1 319.77 647.31 321.60 <
-4 -11 2 0 292.34 579.28 297.61 <
-4 -11 2 1 482.47 278.02 209.85 <
-4 -11 2 2 112.21 88.68 160.20 <
-3 -11 2 -2 12.27 -52.84 83.36 <
-3 -11 2 -1 110.56 160.80 138.94 <
-3 -11 2 0 1716.13 2144.63 514.45 o
-3 -11 2 1 1884.82 1378.74 391.76 o
-3 -11 2 2 185.46 19.89 92.32 <
-2 -11 2 -2 2252.18 2167.71 500.93 o
-2 -11 2 -1 124.78 69.24 88.07 <
-2 -11 2 0 2985.56 3345.86 594.01 o
-2 -11 2 1 1602.72 1250.88 372.93 o
-2 -11 2 2 33.75 29.31 58.00 <
-1 -11 2 -2 13.03 -80.32 139.39 <
-1 -11 2 -1 3850.11 3831.46 601.91 o
-1 -11 2 0 5811.55 5302.06 367.76 o
-1 -11 2 1 2205.19 1297.04 249.02 o
-1 -11 2 2 56.08 155.64 116.77 <
0 -11 2 -2 89.66 15.64 31.89 <
0 -11 2 -1 189.37 153.82 69.70 <
0 -11 2 0 718.06 332.99 153.66 <
0 -11 2 1 1692.74 2077.37 254.34 o
0 -11 2 2 44.87 85.64 73.49 <
1 -11 2 -2 59.92 33.71 49.65 <
1 -11 2 -1 3215.06 3168.51 310.67 o
1 -11 2 0 5381.68 5058.96 407.09 o
1 -11 2 1 610.85 610.56 145.16 o
1 -11 2 2 97.41 91.87 83.82 <
2 -11 2 -2 54.90 30.52 19.74 <
2 -11 2 -1 75.65 56.79 58.92 <
2 -11 2 0 2752.24 3118.40 490.61 o
2 -11 2 1 1152.57 1842.01 363.97 o
2 -11 2 2 89.21 88.83 49.65 <
3 -11 2 -2 64.45 -22.32 121.78 <
3 -11 2 -1 2037.34 1695.63 381.58 o
3 -11 2 0 1535.74 1686.67 379.91 o
3 -11 2 1 96.86 42.52 98.85 <
3 -11 2 2 50.98 218.65 119.04 <
4 -11 2 -2 184.45 242.80 195.42 <
4 -11 2 -1 2.08 51.93 112.21 <
4 -11 2 0 205.82 573.82 234.45 <
5 -11 2 -2 37.53 46.92 75.77 <
-5 -10 2 0 132.63 24.75 70.15 <
-5 -10 2 1 511.72 294.73 216.07 <
-5 -10 2 2 139.42 -23.38 118.89 <
-4 -10 2 -2 150.08 133.17 142.58 <
-4 -10 2 -1 34.23 90.35 161.41 <
-4 -10 2 0 1608.63 2024.53 504.58 o
-4 -10 2 1 259.32 118.13 111.91 <
-4 -10 2 2 72.56 -3.80 147.14 <
-3 -10 2 -2 10.97 137.87 124.21 <
-3 -10 2 -1 502.54 630.15 281.36 <
-3 -10 2 0 1203.18 995.03 336.48 <
-3 -10 2 1 652.40 833.47 324.64 <
-3 -10 2 2 232.82 116.46 138.79 <
-2 -10 2 -2 1813.59 1825.61 425.46 o
-2 -10 2 -1 61.26 131.95 186.46 <
-2 -10 2 0 5949.51 7105.50 820.26 o
-2 -10 2 1 260.38 191.63 146.83 <
-2 -10 2 2 213.93 6.07 100.07 <
-1 -10 2 -2 47.64 -28.39 55.88 <
-1 -10 2 -1 2674.27 2607.00 472.84 o
-1 -10 2 0 3772.47 4156.55 329.65 o
-1 -10 2 1 2100.56 1554.42 281.21 o
-1 -10 2 2 66.90 34.32 55.12 <
0 -10 2 -2 160.46 135.44 68.48 <
0 -10 2 -1 113.57 -15.49 47.07 <
0 -10 2 0 16907.00 17406.50 1162.21 o
0 -10 2 1 236.73 323.73 91.71 o
0 -10 2 2 219.59 145.16 54.66 <
1 -10 2 -2 81.27 13.82 40.69 <
1 -10 2 -1 394.73 434.42 106.90 o
1 -10 2 0 3651.67 3354.67 315.38 o
1 -10 2 1 3197.36 2569.19 329.20 o
1 -10 2 2 133.67 -136.05 95.96 <
2 -10 2 -2 49.19 -16.55 63.47 <
2 -10 2 -1 97.60 58.16 68.79 <
2 -10 2 0 7994.30 7541.44 711.69 o
2 -10 2 1 373.53 310.06 125.42 <
2 -10 2 2 197.69 207.87 119.96 <
3 -10 2 -2 198.79 34.92 56.49 <
3 -10 2 -1 1066.79 874.01 249.63 o
3 -10 2 0 1218.73 952.36 283.19 o
3 -10 2 1 1238.94 1820.30 375.20 o
3 -10 2 2 192.83 263.14 155.79 <
4 -10 2 -2 166.41 -171.74 124.21 <
4 -10 2 -1 31.90 -15.18 42.52 <
4 -10 2 0 2528.58 2943.63 530.54 o
5 -10 2 -2 82.77 -154.12 134.23 <
-5 -9 2 0 569.21 391.60 257.83 <
-5 -9 2 1 424.67 595.38 298.98 <
-5 -9 2 2 75.36 588.70 295.03 <
-4 -9 2 -2 13.44 93.69 112.52 <
-4 -9 2 -1 139.39 173.25 190.87 <
-4 -9 2 0 790.02 468.74 239.76 <
-4 -9 2 1 693.64 1007.78 362.90 <
-4 -9 2 2 121.15 -153.21 137.42 <
-3 -9 2 -2 9.10 -58.46 41.15 <
-3 -9 2 -1 1337.87 1493.83 403.90 o
-3 -9 2 0 4932.05 5862.82 792.92 o
-3 -9 2 1 680.04 417.42 205.60 <
-3 -9 2 2 16.36 -144.86 120.71 <
-2 -9 2 -2 47.19 -0.61 105.83 <
-2 -9 2 -1 516.96 1000.80 295.94 o
-2 -9 2 0 4048.31 3593.52 558.33 o
-2 -9 2 1 1332.08 1031.02 306.72 o
-2 -9 2 2 102.14 -61.65 106.29 <
-1 -9 2 -2 157.24 -146.38 106.90 <
-1 -9 2 -1 402.42 308.24 113.28 <
-1 -9 2 0 24560.20 26034.60 779.87 o
-1 -9 2 1 52.08 -7.29 30.06 <
-1 -9 2 2 222.10 397.83 107.96 o
0 -9 2 -2 5.54 29.46 40.69 <
0 -9 2 -1 2132.86 2737.58 432.75 o
0 -9 2 0 9737.48 11218.20 542.54 o
0 -9 2 1 1790.72 1936.61 221.99 o
0 -9 2 2 91.42 33.25 34.77 <
1 -9 2 -2 131.38 20.50 26.42 <
1 -9 2 -1 31.57 -3.49 54.36 <
1 -9 2 0 26833.70 27275.30 1472.42 o
1 -9 2 1 1011.28 1191.21 210.91 o
1 -9 2 2 394.92 478.61 173.86 <
2 -9 2 -2 129.30 -25.05 73.80 <
2 -9 2 -1 641.61 655.66 193.30 o
2 -9 2 0 4278.74 3981.63 487.72 o
2 -9 2 1 263.80 345.29 149.11 <
2 -9 2 2 6.48 99.46 74.25 <
3 -9 2 -2 324.16 -25.05 51.78 <
3 -9 2 -1 1086.49 1059.56 274.08 o
3 -9 2 0 5788.55 7086.52 708.80 o
3 -9 2 1 1706.84 2873.33 453.10 o
3 -9 2 2 18.57 2.89 70.91 <
4 -9 2 -2 143.60 58.00 59.07 <
4 -9 2 -1 265.53 170.37 142.73 <
4 -9 2 0 927.86 463.88 211.97 <
5 -9 2 -2 175.82 -30.22 63.32 <
-5 -8 2 -1 65.26 -199.83 175.38 <
-5 -8 2 0 190.96 -185.40 166.72 <
-5 -8 2 1 68.69 84.73 113.43 <
-5 -8 2 2 37.81 195.88 168.09 <
-4 -8 2 -2 257.13 43.28 116.92 <
-4 -8 2 -1 317.26 549.67 271.80 <
-4 -8 2 0 2118.45 2647.39 558.17 o
-4 -8 2 1 99.76 -67.87 84.12 <
-4 -8 2 2 166.75 -386.44 208.63 <
-3 -8 2 -2 65.46 99.00 113.88 <
-3 -8 2 -1 1500.87 2502.38 505.64 o
-3 -8 2 0 1668.51 2024.22 435.33 o
-3 -8 2 1 120.24 128.61 197.24 <
-3 -8 2 2 80.89 -11.54 56.03 <
-2 -8 2 -2 1441.72 1196.68 323.73 o
-2 -8 2 -1 273.73 165.81 178.57 <
-2 -8 2 0 7196.60 7507.73 772.27 o
-2 -8 2 1 143.83 -42.97 56.79 <
-2 -8 2 2 192.07 90.19 111.30 <
-1 -8 2 -2 170.73 115.10 99.15 <
-1 -8 2 -1 89.85 43.43 49.05 <
-1 -8 2 0 3875.51 3844.52 290.48 o
-1 -8 2 1 242.28 178.11 65.14 <
-1 -8 2 2 31.41 -27.64 49.35 <
0 -8 2 -2 44.16 21.87 50.11 <
0 -8 2 -1 37.04 27.64 28.09 <
0 -8 2 0 15322.60 15817.40 467.83 o
0 -8 2 1 604.14 608.59 96.57 o
0 -8 2 2 50.14 81.69 58.61 <
1 -8 2 -2 50.29 37.20 22.93 <
1 -8 2 -1 2668.53 2715.26 254.18 o
1 -8 2 0 4318.58 4279.70 541.78 o
1 -8 2 1 9855.13 10790.60 752.99 o
1 -8 2 2 238.32 175.83 98.39 <
2 -8 2 -2 38.45 48.74 68.79 <
2 -8 2 -1 419.73 184.79 109.02 <
2 -8 2 0 5467.99 5580.39 530.24 o
2 -8 2 1 1262.60 991.99 218.20 o
2 -8 2 2 210.14 69.09 43.43 <
3 -8 2 -2 221.77 185.70 128.16 <
3 -8 2 -1 575.84 328.44 133.32 <
3 -8 2 0 2023.63 2595.00 412.25 o
3 -8 2 1 742.53 812.51 245.83 o
3 -8 2 2 255.91 203.17 118.74 <
4 -8 2 -2 65.51 -0.30 25.97 <
4 -8 2 -1 442.07 267.24 150.32 <
4 -8 2 0 1273.61 1344.42 339.22 o
4 -8 2 1 699.67 1356.42 364.88 o
5 -8 2 -2 195.81 185.10 141.06 <
-5 -7 2 -1 66.10 -83.97 113.73 <
-5 -7 2 0 354.81 868.70 353.80 <
-5 -7 2 1 406.91 147.44 146.23 <
-5 -7 2 2 194.76 51.78 87.61 <
-4 -7 2 -2 65.54 6.53 39.18 <
-4 -7 2 -1 972.41 1965.61 467.52 o
-4 -7 2 0 161.87 121.78 108.26 <
-4 -7 2 1 1292.56 758.76 283.34 <
-4 -7 2 2 309.72 239.00 197.85 <
-3 -7 2 -2 40.83 57.24 71.37 <
-3 -7 2 -1 760.76 1422.77 365.18 o
-3 -7 2 0 1841.52 1908.97 425.62 o
-3 -7 2 1 1371.71 885.09 300.50 <
-3 -7 2 2 264.73 126.18 131.80 <
-2 -7 2 -2 3080.07 3035.34 274.53 o
-2 -7 2 -1 92.61 90.80 32.95 <
-2 -7 2 0 1318.88 979.39 270.28 o
-2 -7 2 1 2090.22 1087.96 277.57 o
-2 -7 2 2 148.66 39.48 74.71 <
-1 -7 2 -2 86.56 160.20 114.03 <
-1 -7 2 -1 5819.27 7439.40 678.28 o
-1 -7 2 0 5941.31 5427.79 338.76 o
-1 -7 2 1 869.41 738.41 143.34 o
-1 -7 2 2 54.25 23.08 25.21 <
0 -7 2 -2 85.54 6.68 29.76 <
0 -7 2 -1 1640.77 1977.76 202.41 o
0 -7 2 0 5637.70 5599.22 265.73 o
0 -7 2 1 455.99 454.01 80.63 o
0 -7 2 2 53.34 15.49 48.44 <
1 -7 2 -2 2.47 -0.30 14.73 <
1 -7 2 -1 91.07 143.95 98.55 <
1 -7 2 0 5615.87 4860.20 538.89 o
1 -7 2 1 3466.90 4083.52 408.91 o
1 -7 2 2 42.58 59.22 50.72 <
2 -7 2 -2 16.30 -4.71 32.04 <
2 -7 2 -1 5374.49 4900.89 480.28 o
2 -7 2 0 1295.64 1020.99 217.29 o
2 -7 2 1 262.48 274.68 120.41 <
2 -7 2 2 5.70 -22.93 20.50 <
3 -7 2 -2 108.67 -48.89 46.62 <
3 -7 2 -1 174.05 75.47 71.97 <
3 -7 2 0 1734.41 1587.98 316.74 o
3 -7 2 1 131.88 17.92 37.96 <
3 -7 2 2 5.47 111.00 74.71 <
4 -7 2 -2 8.53 35.99 65.60 <
4 -7 2 -1 3259.90 2128.23 426.07 o
4 -7 2 0 129.76 36.75 91.41 <
4 -7 2 1 913.82 1470.75 347.27 o
5 -7 2 -2 105.68 -8.50 30.67 <
5 -7 2 -1 31.88 323.73 186.31 <
-5 -6 2 -2 68.12 5.16 144.40 <
-5 -6 2 -1 25.79 206.51 175.07 <
-5 -6 2 0 48.77 -99.15 120.26 <
-5 -6 2 1 63.78 2.28 94.45 <
-5 -6 2 2 1.64 75.16 137.72 <
-4 -6 2 -2 165.71 335.57 198.00 <
-4 -6 2 -1 68.94 62.26 53.75 <
-4 -6 2 0 58.92 19.28 111.91 <
-4 -6 2 1 335.39 90.95 50.87 <
-4 -6 2 2 20.63 -52.39 76.07 <
-3 -6 2 -2 30.67 -150.48 116.92 <
-3 -6 2 -1 582.67 856.85 271.19 o
-3 -6 2 0 334.99 478.46 188.13 <
-3 -6 2 1 280.41 331.02 201.95 <
-3 -6 2 2 54.91 3.49 102.65 <
-2 -6 2 -2 207.48 45.40 30.06 <
-2 -6 2 -1 270.72 429.41 98.70 o
-2 -6 2 0 715.13 415.60 154.12 <
-2 -6 2 1 404.73 122.99 46.16 <
-2 -6 2 2 81.63 188.44 105.53 <
-1 -6 2 -2 144.00 28.55 67.42 <
-1 -6 2 -1 1667.34 1707.02 314.16 o
-1 -6 2 0 455.03 444.90 83.21 o
-1 -6 2 1 177.70 155.49 42.97 o
-1 -6 2 2 94.81 86.85 36.44 <
0 -6 2 -2 27.14 47.07 40.24 <
0 -6 2 -1 48.50 42.06 33.56 <
0 -6 2 0 7540.19 8061.05 262.39 o
0 -6 2 1 35.42 52.08 32.65 <
0 -6 2 2 119.96 43.12 22.78 <
1 -6 2 -2 57.59 73.49 44.49 <
1 -6 2 -1 26.88 91.26 86.10 <
1 -6 2 0 676.92 734.62 124.51 o
1 -6 2 1 655.45 446.11 117.38 o
1 -6 2 2 155.52 63.17 41.60 <
2 -6 2 -2 0.68 36.90 49.50 <
2 -6 2 -1 173.54 395.55 125.27 o
2 -6 2 0 499.89 524.01 143.34 o
2 -6 2 1 160.50 75.16 78.65 <
2 -6 2 2 2557.45 1823.03 285.16 o
3 -6 2 -2 211.99 47.68 82.15 <
3 -6 2 -1 153.44 25.21 55.42 <
3 -6 2 0 578.97 821.78 226.09 o
3 -6 2 1 29.87 64.38 91.11 <
3 -6 2 2 55.05 132.41 104.77 <
4 -6 2 -2 39.90 33.10 62.26 <
4 -6 2 -1 293.00 335.73 148.96 <
4 -6 2 0 69.37 63.01 66.20 <
4 -6 2 1 26.43 79.11 127.25 <
5 -6 2 -2 132.06 31.74 63.32 <
5 -6 2 -1 54.88 -179.33 140.76 <
-5 -5 2 -2 151.39 194.36 172.04 <
-5 -5 2 -1 317.09 96.12 121.78 <
-5 -5 2 0 65.07 12.30 46.46 <
-5 -5 2 1 418.48 474.21 253.73 <
-5 -5 2 2 172.29 -110.24 122.08 <
-4 -5 2 -2 250.26 565.62 259.65 <
-4 -5 2 -1 1501.99 1629.73 439.43 o
-4 -5 2 0 12844.30 13177.60 1206.55 o
-4 -5 2 1 2149.00 1998.86 467.68 o
-4 -5 2 2 30.54 -38.11 75.01 <
-3 -5 2 -2 8.25 33.86 109.33 <
-3 -5 2 -1 35.61 32.34 75.01 <
-3 -5 2 0 1016.60 1126.83 293.36 o
-3 -5 2 1 695.78 1138.67 309.15 o
-3 -5 2 2 76.44 82.45 114.19 <
-2 -5 2 -2 307.37 74.56 87.31 <
-2 -5 2 -1 3937.53 4577.46 322.67 o
-2 -5 2 0 95385.20 95997.20 1433.85 o
-2 -5 2 1 2941.03 2990.70 424.10 o
-2 -5 2 2 209.19 102.49 120.71 <
-1 -5 2 -2 29.76 35.23 20.80 <
-1 -5 2 -1 1657.76 1814.53 292.30 o
-1 -5 2 0 2118.80 2269.60 160.80 o
-1 -5 2 1 640.46 716.70 82.00 o
-1 -5 2 2 42.53 31.74 23.99 <
0 -5 2 -2 4.51 19.89 37.51 <
0 -5 2 -1 1372.25 1487.30 97.48 o
0 -5 2 0 167314.00 144631.00 1038.91 o
0 -5 2 1 87.08 26.88 22.47 <
0 -5 2 2 315.82 344.23 97.64 o
1 -5 2 -2 104.05 105.99 49.50 <
1 -5 2 -1 246.52 274.84 114.34 <
1 -5 2 0 2297.13 1987.63 233.23 o
1 -5 2 1 334.42 264.36 81.54 o
1 -5 2 2 106.35 60.89 42.52 <
2 -5 2 -2 29.95 -21.26 64.69 <
2 -5 2 -1 806.85 813.88 169.00 o
2 -5 2 0 96892.60 96782.00 1903.35 o
2 -5 2 1 2588.40 3221.05 353.04 o
2 -5 2 2 54.39 -19.59 32.34 <
3 -5 2 -2 229.64 46.01 40.39 <
3 -5 2 -1 201.79 351.97 137.42 <
3 -5 2 0 1077.89 801.43 209.70 o
3 -5 2 1 67.18 -36.14 47.53 <
3 -5 2 2 13.15 35.23 43.88 <
4 -5 2 -2 79.15 81.84 58.76 <
4 -5 2 -1 800.07 600.99 226.40 <
4 -5 2 0 13069.50 13475.90 1046.35 o
4 -5 2 1 1533.74 2057.02 418.48 o
5 -5 2 -2 216.13 -12.30 88.52 <
5 -5 2 -1 196.99 254.03 165.81 <
-5 -4 2 -2 22.38 448.70 259.35 <
-5 -4 2 -1 885.20 1672.10 489.24 o
-5 -4 2 0 32.64 23.38 55.73 <
-5 -4 2 1 414.77 325.25 208.48 <
-5 -4 2 2 131.37 42.97 78.20 <
-4 -4 2 -2 19.26 -94.14 104.62 <
-4 -4 2 -1 695.43 1010.06 330.71 o
-4 -4 2 0 279.93 31.74 63.32 <
-4 -4 2 1 537.77 35.23 65.60 <
-4 -4 2 2 68.75 -36.90 100.07 <
-3 -4 2 -2 46.65 40.09 82.75 <
-3 -4 2 -1 562.19 901.49 294.27 o
-3 -4 2 0 141.22 122.84 77.74 <
-3 -4 2 1 779.18 528.72 189.65 <
-3 -4 2 2 308.67 72.88 108.72 <
-2 -4 2 -2 171.11 87.16 66.81 <
-2 -4 2 -1 1987.15 2614.28 395.86 o
-2 -4 2 0 7253.22 7869.73 680.11 o
-2 -4 2 1 445.50 227.61 114.64 <
-2 -4 2 2 268.41 58.76 82.45 <
-1 -4 2 -2 79.14 56.33 27.79 <
-1 -4 2 -1 4029.91 4451.59 434.27 o
-1 -4 2 0 242.37 122.08 97.94 <
-1 -4 2 1 43.96 22.62 15.49 <
-1 -4 2 2 137.76 -3.34 19.28 <
0 -4 2 -2 56.29 66.96 36.44 <
0 -4 2 -1 1111.39 1163.88 93.69 o
0 -4 2 0 3103.14 3493.76 168.39 o
0 -4 2 1 31.89 40.09 19.59 <
0 -4 2 2 124.56 -11.84 35.83 <
1 -4 2 -2 43.05 10.48 31.74 <
1 -4 2 -1 1431.22 1273.66 128.76 o
1 -4 2 0 49.31 0.76 15.94 <
1 -4 2 1 4211.94 4293.97 293.51 o
1 -4 2 2 27.72 22.47 19.13 <
2 -4 2 -2 156.29 44.64 53.90 <
2 -4 2 -1 262.57 62.86 56.18 <
2 -4 2 0 6511.67 7056.61 485.44 o
2 -4 2 1 347.49 644.73 153.21 o
2 -4 2 2 4933.14 3860.31 379.61 o
3 -4 2 -2 14.86 18.68 49.35 <
3 -4 2 -1 1568.18 756.33 205.75 o
3 -4 2 0 95.36 -4.25 21.71 <
3 -4 2 1 1208.53 1195.61 257.53 o
3 -4 2 2 47.65 21.56 67.27 <
4 -4 2 -2 293.71 4.25 23.99 <
4 -4 2 -1 38.25 1.06 67.42 <
4 -4 2 0 135.79 -68.63 75.16 <
4 -4 2 1 851.54 2077.06 428.35 o
4 -4 2 2 1434.48 1159.17 338.15 o
5 -4 2 -2 32.06 218.96 149.11 <
5 -4 2 -1 909.49 414.23 187.98 <
-5 -3 2 -2 272.42 247.81 192.54 <
-5 -3 2 -1 882.20 1004.90 399.20 <
-5 -3 2 0 428.40 545.57 274.84 <
-5 -3 2 1 505.65 286.98 191.32 <
-5 -3 2 2 529.38 -94.60 195.27 <
-4 -3 2 -2 521.04 521.13 243.71 <
-4 -3 2 -1 669.81 972.25 332.08 <
-4 -3 2 0 5143.76 5550.02 767.26 o
-4 -3 2 1 1713.61 825.12 293.36 <
-4 -3 2 2 114.60 -59.22 108.87 <
-3 -3 2 -2 64.58 271.34 152.60 <
-3 -3 2 -1 99.26 9.87 32.49 <
-3 -3 2 0 1331.62 1562.62 353.95 o
-3 -3 2 1 683.74 845.61 253.58 o
-3 -3 2 2 481.81 211.06 127.40 <
-2 -3 2 -2 1388.25 1297.04 281.36 o
-2 -3 2 -1 1983.63 2123.37 354.25 o
-2 -3 2 0 45563.70 47275.50 1618.34 o
-2 -3 2 1 2793.56 3226.82 420.15 o
-2 -3 2 2 28.30 -8.35 61.04 <
-1 -3 2 -2 130.76 70.00 28.70 <
-1 -3 2 -1 8105.64 9592.84 357.29 o
-1 -3 2 0 4388.53 4077.90 384.16 o
-1 -3 2 1 275.75 298.37 62.41 o
-1 -3 2 2 57.72 -4.56 29.61 <
0 -3 2 -2 30.22 3.95 14.12 <
0 -3 2 -1 219.17 167.63 29.31 o
0 -3 2 0 40048.20 40816.80 530.69 o
0 -3 2 1 393.21 402.54 62.56 o
0 -3 2 2 177.98 53.60 25.21 <
1 -3 2 -2 8.99 20.65 14.12 <
1 -3 2 -1 4585.67 4480.74 258.89 o
1 -3 2 0 4300.00 4657.94 264.36 o
1 -3 2 1 4529.87 5509.02 294.42 o
1 -3 2 2 77.44 109.78 52.08 <
2 -3 2 -2 129.53 -1.06 47.53 <
2 -3 2 -1 306.75 169.46 81.24 <
2 -3 2 0 44980.80 44175.10 1178.45 o
2 -3 2 1 466.75 345.29 105.68 o
2 -3 2 2 138.06 -6.83 39.63 <
3 -3 2 -2 132.30 90.35 64.99 <
3 -3 2 -1 3624.80 3097.75 399.20 o
3 -3 2 0 1330.59 1061.54 233.38 o
3 -3 2 1 639.05 650.80 189.35 o
3 -3 2 2 20.59 -74.40 66.66 <
4 -3 2 -2 171.57 36.59 52.69 <
4 -3 2 -1 340.03 110.09 131.80 <
4 -3 2 0 5263.15 6053.68 694.68 o
4 -3 2 1 366.86 309.30 174.01 <
4 -3 2 2 17.46 81.39 136.81 <
5 -3 2 -2 166.17 89.59 66.20 <
5 -3 2 -1 1762.87 732.49 295.03 <
5 -3 2 0 549.20 383.86 199.67 <
-5 -2 2 -2 19.28 -317.81 218.65 <
-5 -2 2 -1 66.77 89.13 109.18 <
-5 -2 2 0 739.24 251.45 205.60 <
-5 -2 2 2 18.86 81.69 134.38 <
-4 -2 2 -2 348.79 585.05 240.37 <
-4 -2 2 -1 192.06 -429.41 213.79 <
-4 -2 2 0 1351.42 790.95 281.82 <
-4 -2 2 1 170.58 -43.12 96.27 <
-4 -2 2 2 16.78 16.10 57.40 <
-3 -2 2 -2 164.94 -91.11 88.22 <
-3 -2 2 -1 1174.29 799.61 276.20 <
-3 -2 2 0 5021.77 4141.83 569.56 o
-3 -2 2 1 192.92 19.89 49.35 <
-3 -2 2 2 10.07 14.58 122.54 <
-2 -2 2 -2 985.71 713.82 215.16 o
-2 -2 2 -1 247.23 52.23 71.21 <
-2 -2 2 0 13917.70 14203.10 870.82 o
-2 -2 2 1 503.00 702.58 195.42 o
-2 -2 2 2 29.24 17.61 64.23 <
-1 -2 2 -2 90.58 -0.46 34.77 <
-1 -2 2 -1 2030.23 2147.37 172.34 o
-1 -2 2 0 19482.10 21259.30 570.32 o
-1 -2 2 1 52.77 30.06 19.44 <
-1 -2 2 2 47.27 85.64 26.27 o
0 -2 2 -2 42.88 24.90 14.43 <
0 -2 2 -1 30.43 51.63 18.07 <
0 -2 2 0 9075.46 10055.40 300.50 o
0 -2 2 1 843.67 813.12 136.20 o
0 -2 2 2 117.84 80.02 34.47 <
1 -2 2 -2 1.53 5.47 16.55 <
1 -2 2 -1 91.49 8.50 13.21 <
1 -2 2 0 18681.20 19081.40 408.15 o
1 -2 2 1 7000.55 7913.31 279.09 o
1 -2 2 2 275.34 226.70 61.80 o
2 -2 2 -2 9.02 -8.81 12.45 <
2 -2 2 -1 490.12 590.21 130.43 o
2 -2 2 0 12746.30 11907.70 597.50 o
2 -2 2 1 714.94 1050.75 187.22 o
2 -2 2 2 1100.81 1236.46 216.53 o
3 -2 2 -2 26.52 21.41 32.95 <
3 -2 2 -1 446.70 710.47 180.85 o
3 -2 2 0 4362.00 3806.40 441.26 o
3 -2 2 1 95.05 64.69 66.96 <
3 -2 2 2 130.68 171.28 96.12 <
4 -2 2 -2 92.00 11.84 45.55 <
4 -2 2 -1 306.37 114.79 91.71 <
4 -2 2 0 1225.98 1037.24 288.05 o
4 -2 2 1 746.96 810.23 254.64 o
4 -2 2 2 96.05 158.68 118.29 <
5 -2 2 -2 34.20 -161.26 126.94 <
5 -2 2 -1 154.77 325.70 169.15 <
5 -2 2 0 634.30 234.90 182.06 <
-5 -1 2 -2 37.53 -24.29 64.84 <
-5 -1 2 -1 685.14 525.68 258.29 <
-5 -1 2 0 3863.06 3848.62 732.79 o
-5 -1 2 1 1264.32 535.85 286.68 <
-5 -1 2 2 0.34 7.29 102.49 <
-4 -1 2 -2 28.02 130.43 156.85 <
-4 -1 2 -1 681.11 559.85 260.26 <
-4 -1 2 0 185.72 213.49 111.30 <
-4 -1 2 1 414.92 461.91 220.02 <
-4 -1 2 2 363.83 70.15 86.10 <
-3 -1 2 -2 318.91 508.98 195.88 <
-3 -1 2 -1 4384.07 5913.53 684.36 o
-3 -1 2 0 38165.30 38929.20 1716.13 o
-3 -1 2 1 4041.62 3187.34 478.61 o
-3 -1 2 2 32.69 -5.16 54.21 <
-2 -1 2 -2 1636.44 757.85 209.70 o
-2 -1 2 -1 271.08 367.31 134.99 <
-2 -1 2 0 3696.41 4481.65 479.82 o
-2 -1 2 1 77.69 15.34 59.52 <
-2 -1 2 2 105.63 -43.88 53.15 <
-1 -1 2 -2 90.79 181.76 89.59 <
-1 -1 2 -1 601.35 426.68 78.65 o
-1 -1 2 0 172709.00 161931.00 1166.46 o
-1 -1 2 1 1887.92 2096.80 106.44 o
-1 -1 2 2 106.88 162.78 29.76 o
0 -1 2 -2 25.83 5.62 11.08 <
0 -1 2 -1 30.07 12.00 8.96 <
0 -1 2 0 92.02 197.85 37.20 o
0 -1 2 1 237.20 256.31 59.67 o
0 -1 2 2 174.22 157.01 80.93 <
1 -1 2 -1 129.56 136.35 27.03 o
1 -1 2 0 172836.00 140615.00 1016.59 o
1 -1 2 1 222.04 312.49 51.63 o
1 -1 2 2 32.03 42.06 21.26 <
2 -1 2 -2 125.11 47.98 39.02 <
2 -1 2 -1 654.59 467.22 110.85 o
2 -1 2 0 3774.81 3658.05 335.73 o
2 -1 2 1 761.05 877.65 171.43 o
2 -1 2 2 115.46 105.23 66.20 <
3 -1 2 -2 78.00 -15.79 39.33 <
3 -1 2 -1 766.93 441.71 155.49 <
3 -1 2 0 38478.40 36569.00 1384.05 o
3 -1 2 1 2371.35 3088.49 414.23 o
3 -1 2 2 32.36 63.32 62.10 <
4 -1 2 -2 251.45 15.64 24.14 <
4 -1 2 -1 968.58 964.96 286.53 o
4 -1 2 0 187.08 384.77 190.87 <
4 -1 2 1 550.38 590.21 220.17 <
4 -1 2 2 105.90 -196.64 131.34 <
5 -1 2 -2 68.38 8.20 97.48 <
5 -1 2 -1 240.08 309.46 178.72 <
5 -1 2 0 4192.92 3525.04 624.23 o
-5 0 2 -2 61.38 -275.29 202.71 <
-5 0 2 -1 253.89 253.88 128.91 <
-5 0 2 0 1287.99 1025.55 266.03 o
-5 0 2 1 461.64 498.96 189.50 <
-5 0 2 2 21.94 -17.77 109.48 <
-4 0 2 -2 296.59 -8.20 128.00 <
-4 0 2 -1 2007.83 4216.84 677.52 o
-4 0 2 0 888.16 815.25 296.09 <
-4 0 2 1 1349.41 1114.23 340.43 o
-4 0 2 2 69.70 -17.77 78.96 <
-3 0 2 -2 84.68 -5.92 85.94 <
-3 0 2 -1 3136.12 3611.13 525.53 o
-3 0 2 0 7864.99 7352.70 742.21 o
-3 0 2 1 304.87 231.26 157.92 <
-3 0 2 2 191.14 123.45 109.78 <
-2 0 2 -2 3215.06 3349.96 439.74 o
-2 0 2 -1 2256.46 3757.66 459.33 o
-2 0 2 0 6996.19 7393.24 609.20 o
-2 0 2 1 1319.90 1830.47 299.59 o
-2 0 2 2 42.28 -23.54 26.72 <
-1 0 2 -2 11.84 -17.31 34.32 <
-1 0 2 -1 637.57 602.06 92.93 o
-1 0 2 0 34503.10 36955.60 550.73 o
-1 0 2 1 1408.43 1181.04 78.05 o
-1 0 2 2 268.35 245.38 36.14 o
0 0 2 -2 7.96 -4.56 9.11 <
0 0 2 -1 3.29 26.27 13.06 <
0 0 2 0 15729.60 17249.20 237.03 o
0 0 2 1 37.58 46.92 22.93 <
0 0 2 2 1.59 -64.23 81.69 <
1 0 2 -2 11.41 13.36 9.87 <
1 0 2 -1 302.29 228.07 36.44 o
1 0 2 0 33238.40 34310.80 490.91 o
1 0 2 1 25686.20 28391.00 494.55 o
1 0 2 2 0.36 -21.87 14.88 <
2 0 2 -2 0.67 8.20 18.98 <
2 0 2 -1 2036.49 1188.93 190.71 o
2 0 2 0 6229.32 6026.50 444.45 o
2 0 2 1 1210.82 1331.51 215.62 o
2 0 2 2 675.95 419.39 125.12 o
3 0 2 -2 25.67 117.68 66.66 <
3 0 2 -1 185.91 283.34 114.94 <
3 0 2 0 7561.20 7564.37 634.86 o
3 0 2 1 9.83 193.75 126.94 <
3 0 2 2 597.02 54.82 28.55 <
4 0 2 -2 0.02 52.23 132.26 <
4 0 2 -1 1763.47 898.91 264.81 o
4 0 2 0 690.21 477.09 190.71 <
4 0 2 1 1183.32 1068.67 293.51 o
4 0 2 2 57.68 -68.18 80.17 <
5 0 2 -2 119.10 0.61 23.99 <
5 0 2 -1 16.48 69.54 86.85 <
5 0 2 0 1189.56 953.42 323.58 <
-5 1 2 -2 33.63 -0.46 33.71 <
-5 1 2 -1 677.85 1045.14 275.14 o
-5 1 2 0 3926.60 4108.72 538.44 o
-5 1 2 1 1303.78 870.97 247.81 o
-5 1 2 2 0.22 -98.09 99.31 <
-4 1 2 -2 24.31 -139.85 126.49 <
-4 1 2 -1 672.10 553.62 222.75 <
-4 1 2 0 189.33 100.67 86.25 <
-4 1 2 1 425.88 788.07 205.44 o
-4 1 2 2 365.24 99.00 97.03 <
-3 1 2 -2 335.27 160.04 75.47 <
-3 1 2 -1 4483.56 5293.10 647.00 o
-3 1 2 0 38393.20 40800.60 1749.08 o
-3 1 2 1 4099.28 2455.61 424.55 o
-3 1 2 2 35.98 -34.92 51.17 <
-2 1 2 -2 1631.15 1153.25 257.07 o
-2 1 2 -1 253.65 469.04 158.68 <
-2 1 2 0 3735.79 4463.13 479.67 o
-2 1 2 1 83.00 62.10 58.16 <
-2 1 2 2 103.69 71.52 40.69 <
-1 1 2 -2 90.44 121.47 77.59 <
-1 1 2 -1 524.71 530.24 95.05 o
-1 1 2 0 173298.00 153276.00 986.98 o
-1 1 2 1 1886.36 2035.15 116.62 o
-1 1 2 2 110.58 188.13 37.66 o
0 1 2 -2 27.08 13.97 9.11 <
0 1 2 -1 28.67 20.04 11.24 <
0 1 2 0 156.07 229.13 43.88 o
0 1 2 1 242.15 297.01 50.56 o
0 1 2 2 171.79 182.67 82.15 <
1 1 2 -1 130.93 109.33 34.32 o
1 1 2 1 224.22 319.17 68.94 o
1 1 2 2 30.67 22.78 12.45 <
2 1 2 -2 121.13 65.29 56.03 <
2 1 2 -1 636.48 574.73 133.93 o
2 1 2 0 3750.97 3808.83 366.55 o
2 1 2 1 787.54 850.62 185.25 o
2 1 2 2 107.88 96.42 62.41 <
3 1 2 -2 80.64 47.53 54.51 <
3 1 2 -1 783.57 415.44 150.63 <
3 1 2 0 38392.00 35814.80 1406.52 o
3 1 2 1 2389.30 2374.07 378.55 o
3 1 2 2 31.54 -57.24 84.27 <
4 1 2 -2 244.53 112.52 110.85 <
4 1 2 -1 969.67 1156.59 297.31 o
4 1 2 0 178.09 399.35 175.99 <
4 1 2 1 574.80 667.20 239.15 <
4 1 2 2 106.10 -146.38 116.46 <
5 1 2 -2 70.56 20.80 71.21 <
5 1 2 -1 240.84 234.14 180.24 <
5 1 2 0 4214.43 3971.00 675.09 o
5 1 2 1 655.11 1123.03 370.80 o
-5 2 2 -2 18.32 95.51 93.23 <
-5 2 2 -1 57.50 132.86 100.22 <
-5 2 2 0 745.52 529.78 200.43 <
-5 2 2 1 142.87 -4.86 60.59 <
-5 2 2 2 17.80 -51.63 79.26 <
-4 2 2 -2 355.57 421.82 161.41 <
-4 2 2 -1 194.62 -67.42 90.50 <
-4 2 2 0 1304.40 879.63 211.52 o
-4 2 2 1 164.47 197.40 110.09 <
-4 2 2 2 19.01 39.48 56.79 <
-3 2 2 -2 165.06 206.51 91.41 <
-3 2 2 -1 1214.15 737.50 252.97 <
-3 2 2 0 5091.10 4838.03 432.45 o
-3 2 2 1 191.41 97.48 79.57 <
-3 2 2 2 8.94 -91.87 67.27 <
-2 2 2 -2 953.59 699.24 212.58 o
-2 2 2 -1 245.13 80.93 71.06 <
-2 2 2 0 13891.10 14261.40 606.31 o
-2 2 2 1 513.47 767.26 142.73 o
-2 2 2 2 30.54 6.83 46.92 <
-1 2 2 -2 87.65 48.89 20.65 <
-1 2 2 -1 1965.44 2135.52 191.78 o
-1 2 2 0 19505.90 20990.80 372.02 o
-1 2 2 1 56.55 3.34 25.21 <
-1 2 2 2 45.09 101.13 35.23 <
0 2 2 -2 39.69 34.47 14.12 <
0 2 2 -1 28.50 19.13 15.79 <
0 2 2 0 8997.95 10024.40 259.20 o
0 2 2 1 849.36 903.62 94.14 o
0 2 2 2 116.99 152.75 51.47 <
1 2 2 -2 1.49 12.30 12.60 <
1 2 2 -1 95.09 -6.07 10.17 <
1 2 2 0 18653.70 19716.80 501.84 o
1 2 2 1 7110.97 8356.84 353.95 o
1 2 2 2 279.02 264.36 74.25 o
2 2 2 -2 9.25 69.24 57.55 <
2 2 2 -1 477.83 481.49 131.80 o
2 2 2 0 12644.40 11820.40 684.97 o
3 2 2 -2 26.97 -129.83 81.39 <
3 2 2 -1 463.98 508.83 158.07 o
3 2 2 0 4422.04 3580.01 459.78 o
3 2 2 1 83.24 -13.97 62.10 <
3 2 2 2 138.01 351.67 160.80 <
4 2 2 -2 89.49 15.79 39.63 <
4 2 2 -1 298.08 -53.75 66.36 <
4 2 2 0 1219.06 940.97 279.70 o
4 2 2 1 747.34 880.84 281.21 o
5 2 2 -2 33.39 56.49 78.81 <
5 2 2 -1 159.10 90.95 100.67 <
5 2 2 0 643.91 714.42 288.50 <
-5 3 2 -2 268.13 31.13 73.34 <
-5 3 2 -1 877.01 1387.39 322.06 o
-5 3 2 0 433.97 611.32 230.04 <
-5 3 2 1 502.18 450.97 179.02 <
-5 3 2 2 536.62 115.55 75.62 <
-4 3 2 -2 515.05 419.39 158.98 <
-4 3 2 -1 695.81 928.98 228.83 o
-4 3 2 0 5131.61 5997.65 573.51 o
-4 3 2 1 1702.40 1424.59 276.96 o
-4 3 2 2 116.78 19.44 60.13 <
-3 3 2 -2 66.55 178.26 92.78 <
-3 3 2 -1 109.11 11.08 46.46 <
-3 3 2 0 1343.53 1382.08 229.13 o
-3 3 2 1 684.99 938.69 189.20 o
-3 3 2 2 491.74 190.11 92.17 <
-2 3 2 -2 1370.87 1126.83 192.99 o
-2 3 2 -1 1992.78 2239.99 250.69 o
-2 3 2 0 45468.20 46885.10 1130.62 o
-2 3 2 1 2786.57 3226.06 287.74 o
-2 3 2 2 30.67 -88.07 49.96 <
-1 3 2 -2 124.76 165.36 62.41 <
-1 3 2 -1 8115.56 10163.00 333.60 o
-1 3 2 0 4378.94 4497.75 176.59 o
-1 3 2 1 277.77 276.66 57.09 o
-1 3 2 2 60.18 40.85 35.53 <
0 3 2 -2 28.13 -7.44 18.83 <
0 3 2 -1 224.28 150.78 42.97 o
0 3 2 0 40078.60 40929.90 623.01 o
0 3 2 1 391.14 385.83 53.90 o
0 3 2 2 180.34 -2.28 25.66 <
1 3 2 -2 8.89 -6.98 18.07 <
1 3 2 -1 4605.88 4606.92 229.59 o
1 3 2 0 4287.78 5253.17 227.31 o
1 3 2 1 4544.73 5675.14 243.86 o
1 3 2 2 79.82 73.95 29.46 <
3 3 2 -2 133.29 -48.13 92.93 <
3 3 2 -1 3625.58 3153.18 438.07 o
3 3 2 0 1334.08 1123.64 266.94 o
4 3 2 -2 170.88 49.96 82.30 <
4 3 2 -1 340.86 133.93 95.36 <
4 3 2 0 5292.40 6246.98 735.68 o
5 3 2 -2 168.98 245.07 188.13 <
5 3 2 -1 1755.89 1405.46 388.72 o
5 3 2 1 658.33 946.44 408.61 <
-5 4 2 -1 884.26 1999.62 397.37 o
-5 4 2 0 30.80 -282.73 143.95 <
-5 4 2 1 423.30 249.78 136.20 <
-5 4 2 2 131.52 246.90 127.70 <
-4 4 2 -2 17.11 -5.62 42.21 <
-4 4 2 -1 688.75 807.35 206.20 o
-4 4 2 0 289.74 121.17 63.62 <
-4 4 2 1 549.96 122.23 86.85 <
-4 4 2 2 65.34 73.19 31.58 <
-3 4 2 -2 43.78 -8.05 47.53 <
-3 4 2 -1 562.30 1003.53 218.81 o
-3 4 2 0 136.64 145.92 84.73 <
-3 4 2 1 778.57 917.89 192.69 o
-3 4 2 2 308.39 -42.21 33.71 <
-2 4 2 -2 170.91 80.32 66.05 <
-2 4 2 -1 2000.31 2497.06 276.05 o
-2 4 2 0 7245.24 7771.79 474.96 o
-2 4 2 1 456.35 171.74 83.51 <
-2 4 2 2 279.32 83.82 51.32 <
-1 4 2 -2 75.60 34.62 35.38 <
-1 4 2 -1 4094.64 4656.88 237.63 o
-1 4 2 0 241.29 148.05 36.14 o
-1 4 2 1 43.72 2.73 27.79 <
-1 4 2 2 136.87 -31.58 42.97 <
0 4 2 -2 54.73 65.44 22.32 <
0 4 2 -1 1114.79 1236.16 134.23 o
0 4 2 0 3018.80 3519.12 214.71 o
0 4 2 1 29.32 16.10 19.89 <
0 4 2 2 124.82 35.38 27.03 <
1 4 2 -2 44.19 49.65 27.48 <
1 4 2 -1 1432.07 1282.92 106.44 o
1 4 2 0 48.14 13.51 12.75 <
1 4 2 1 4238.06 4831.65 390.24 o
1 4 2 2 30.67 64.23 34.01 <
2 4 2 -2 160.51 110.24 66.51 <
3 4 2 -2 14.57 68.48 61.04 <
4 4 2 -2 297.78 112.97 108.11 <
5 4 2 -2 32.51 -57.09 88.68 <
5 4 2 -1 916.10 699.09 312.34 <
5 4 2 0 28.78 -35.83 79.26 <
-5 5 2 -1 308.50 -213.19 180.39 <
-5 5 2 0 60.83 -264.81 199.37 <
-5 5 2 1 417.10 551.95 201.95 <
-5 5 2 2 178.71 208.63 119.65 <
-4 5 2 -2 266.44 473.14 170.52 <
-4 5 2 -1 1476.83 1565.35 308.85 o
-4 5 2 0 12932.80 13324.50 875.38 o
-4 5 2 1 2159.36 1529.97 290.63 o
-4 5 2 2 29.68 21.11 36.29 <
-3 5 2 -2 6.43 37.81 75.16 <
-3 5 2 -1 41.66 59.83 70.30 <
-3 5 2 0 1016.42 1115.74 218.35 o
-3 5 2 1 696.54 797.78 175.83 o
-3 5 2 2 79.91 -26.57 51.47 <
-2 5 2 -2 288.53 114.03 71.06 <
-2 5 2 -1 3962.17 5080.22 409.22 o
-2 5 2 0 95827.60 98306.90 1751.81 o
-2 5 2 1 2927.51 3296.21 316.74 o
-2 5 2 2 209.34 150.17 66.81 <
-1 5 2 -2 28.66 52.08 27.64 <
-1 5 2 -1 1615.58 2001.29 201.95 o
-1 5 2 0 2097.53 2467.15 160.04 o
-1 5 2 1 648.19 658.70 122.39 o
-1 5 2 2 41.54 -27.94 48.29 <
0 5 2 -2 4.70 31.13 48.89 <
0 5 2 -1 1349.65 1435.53 161.26 o
0 5 2 0 167595.00 145837.00 2589.69 o
0 5 2 1 86.17 35.23 42.21 <
0 5 2 2 303.96 316.44 66.96 o
1 5 2 -2 107.41 64.84 26.42 <
1 5 2 -1 244.81 363.06 73.80 o
1 5 2 0 2293.42 2365.41 190.56 o
1 5 2 1 347.20 313.71 75.16 o
1 5 2 2 99.67 60.89 39.48 <
2 5 2 -2 29.41 3.04 20.35 <
2 5 2 -1 824.35 632.28 181.15 o
2 5 2 0 96930.30 96412.70 2272.33 o
2 5 2 1 2556.66 2865.43 411.34 o
3 5 2 -2 229.31 56.33 45.86 <
3 5 2 -1 200.46 518.39 198.91 <
3 5 2 0 1109.46 1206.70 307.18 o
3 5 2 1 61.36 14.43 83.21 <
4 5 2 -2 79.35 4.40 53.60 <
4 5 2 -1 797.12 574.88 242.49 <
4 5 2 0 12959.40 14909.80 1306.91 o
4 5 2 1 1496.28 2135.83 520.22 o
4 5 2 2 46.00 338.76 211.37 <
5 5 2 -2 214.35 -7.59 35.99 <
5 5 2 -1 203.84 452.64 254.18 <
5 5 2 0 107.04 138.79 147.59 <
-5 6 2 0 45.80 63.17 126.49 <
-5 6 2 1 62.27 -26.57 92.78 <
-5 6 2 2 1.88 26.27 100.67 <
-4 6 2 -2 158.55 229.89 102.95 <
-4 6 2 -1 68.02 -26.12 62.41 <
-4 6 2 0 58.56 -1.37 105.68 <
-4 6 2 1 332.01 164.14 94.14 <
-4 6 2 2 22.15 146.23 97.79 <
-3 6 2 -2 25.60 15.34 58.00 <
-3 6 2 -1 562.38 822.23 203.93 o
-3 6 2 0 331.95 742.06 184.03 o
-3 6 2 1 283.80 427.89 141.52 o
-3 6 2 2 57.26 109.78 99.76 <
-2 6 2 -2 217.47 106.14 71.06 <
-2 6 2 -1 272.73 430.48 127.70 o
-2 6 2 0 749.25 575.18 141.67 o
-2 6 2 1 409.12 301.11 104.92 <
-2 6 2 2 83.06 123.60 58.00 <
-1 6 2 -2 147.96 122.23 63.01 <
-1 6 2 -1 1724.61 1594.51 186.46 o
-1 6 2 0 456.22 399.95 75.31 o
-1 6 2 1 185.25 109.93 65.29 <
-1 6 2 2 97.55 9.11 69.24 <
0 6 2 -2 27.78 -47.22 61.50 <
0 6 2 -1 44.83 70.46 81.39 <
0 6 2 0 7339.50 8465.41 681.02 o
0 6 2 1 32.29 28.55 43.58 <
0 6 2 2 117.41 35.68 47.07 <
1 6 2 -2 55.70 87.77 93.69 <
1 6 2 -1 26.37 23.38 29.00 <
1 6 2 0 677.18 594.31 92.93 o
1 6 2 1 665.56 468.74 92.32 o
1 6 2 2 150.13 39.02 37.35 <
2 6 2 -2 0.45 6.23 26.72 <
2 6 2 -1 164.94 537.22 165.81 o
2 6 2 0 528.52 657.33 188.74 o
2 6 2 1 149.73 70.91 96.42 <
2 6 2 2 2539.81 2213.11 390.24 o
3 6 2 -2 214.23 -44.79 92.32 <
3 6 2 -1 141.09 123.90 154.58 <
3 6 2 0 593.37 1041.04 298.52 o
3 6 2 1 36.70 63.17 110.85 <
3 6 2 2 52.36 226.25 155.64 <
4 6 2 -2 40.67 225.34 163.38 <
4 6 2 -1 284.85 823.29 302.47 <
4 6 2 0 69.47 -59.67 85.49 <
4 6 2 1 31.34 294.27 221.69 <
4 6 2 2 407.18 576.85 313.40 <
5 6 2 -2 135.07 27.79 52.69 <
5 6 2 -1 57.31 84.12 113.28 <
5 6 2 0 109.70 217.59 126.18 <
-5 7 2 0 349.72 914.10 370.80 <
-5 7 2 1 402.04 42.52 85.34 <
-5 7 2 2 189.53 25.97 77.29 <
-4 7 2 -2 76.32 -153.51 144.86 <
-4 7 2 -1 936.01 1460.43 446.72 o
-4 7 2 0 150.76 131.19 85.94 <
-4 7 2 1 1280.42 927.46 233.84 o
-4 7 2 2 317.52 114.19 52.39 <
-3 7 2 -2 43.48 22.78 128.61 <
-3 7 2 -1 769.30 1167.83 353.49 o
-3 7 2 0 1823.84 1963.48 301.56 o
-3 7 2 1 1352.58 865.51 194.36 o
-3 7 2 2 260.61 13.36 27.48 <
-2 7 2 -2 3020.13 3576.67 541.02 o
-2 7 2 -1 80.17 11.39 44.03 <
-2 7 2 0 1337.06 1144.44 299.43 o
-2 7 2 1 2099.62 1073.53 282.58 o
-2 7 2 2 151.58 177.05 118.13 <
-1 7 2 -2 82.31 101.74 63.77 <
-1 7 2 -1 5752.38 6362.53 384.01 o
-1 7 2 0 5827.89 5126.53 353.34 o
-1 7 2 1 864.67 740.84 242.49 o
-1 7 2 2 55.93 -9.72 50.72 <
0 7 2 -2 79.71 -0.46 34.62 <
0 7 2 -1 1659.25 1967.28 324.34 o
0 7 2 0 5578.47 6023.31 614.36 o
0 7 2 1 454.31 530.39 170.98 o
0 7 2 2 58.01 -37.96 48.29 <
1 7 2 -2 2.90 2.28 80.78 <
1 7 2 -1 94.51 104.47 45.55 <
1 7 2 0 5393.72 5075.21 293.67 o
1 7 2 1 3535.82 3749.16 268.15 o
1 7 2 2 39.31 -53.90 46.31 <
2 7 2 -2 15.73 4.56 37.05 <
2 7 2 -1 5346.06 4561.06 525.68 o
2 7 2 0 1283.38 1123.03 261.32 o
2 7 2 1 266.96 189.20 103.56 <
2 7 2 2 7.89 51.17 85.94 <
3 7 2 -2 115.47 61.95 53.30 <
3 7 2 -1 168.76 61.34 70.91 <
3 7 2 0 1653.19 1960.30 420.61 o
3 7 2 1 110.65 -76.23 108.72 <
3 7 2 2 5.35 84.73 59.37 <
4 7 2 -2 6.77 -0.61 34.16 <
4 7 2 -1 3243.34 2428.58 539.04 o
4 7 2 0 118.58 556.35 264.81 <
4 7 2 1 918.48 1808.60 476.79 o
4 7 2 2 21.69 181.76 157.01 <
5 7 2 -2 111.85 115.25 127.70 <
5 7 2 -1 29.73 -279.85 204.38 <
5 7 2 0 376.55 675.25 328.13 <
-5 8 2 1 75.18 56.49 94.60 <
-5 8 2 2 37.20 336.18 222.15 <
-4 8 2 -2 260.76 229.13 178.87 <
-4 8 2 -1 320.43 681.02 315.68 <
-4 8 2 0 2066.27 2429.19 549.82 o
-4 8 2 1 105.47 -55.42 84.12 <
-4 8 2 2 168.38 -90.80 104.16 <
-3 8 2 -2 64.68 -165.05 132.86 <
-3 8 2 -1 1534.09 2420.99 513.68 o
-3 8 2 0 1705.96 1791.75 416.66 o
-3 8 2 1 119.96 286.53 212.88 <
-3 8 2 2 79.55 -72.28 91.41 <
-2 8 2 -2 1447.56 764.53 247.66 o
-2 8 2 -1 282.79 152.45 89.44 <
-2 8 2 0 7127.68 8370.81 498.20 o
-2 8 2 1 144.13 45.55 55.12 <
-2 8 2 2 189.73 32.95 61.50 <
-1 8 2 -2 174.78 129.83 73.95 <
-1 8 2 -1 72.07 -6.83 44.95 <
-1 8 2 0 3899.29 4095.97 594.77 o
-1 8 2 1 234.74 118.59 53.90 <
-1 8 2 2 31.80 -15.34 63.01 <
0 8 2 -2 45.98 62.71 63.32 <
0 8 2 -1 43.43 54.97 92.78 <
0 8 2 0 15191.10 18005.30 1115.29 o
0 8 2 1 579.43 649.59 223.66 <
0 8 2 2 47.59 83.21 57.40 <
1 8 2 -2 51.58 -12.15 67.11 <
1 8 2 -1 2663.46 2570.86 340.74 o
1 8 2 0 4351.14 4593.86 292.75 o
1 8 2 1 9951.95 10233.80 442.32 o
1 8 2 2 246.87 170.67 61.19 <
2 8 2 -2 40.12 8.20 17.31 <
2 8 2 -1 427.61 59.52 82.30 <
2 8 2 0 5395.05 5727.68 607.07 o
2 8 2 1 1229.52 1324.83 299.89 o
2 8 2 2 203.93 177.51 93.54 <
3 8 2 -2 220.16 182.67 110.54 <
3 8 2 -1 593.91 341.04 153.82 <
3 8 2 0 2054.33 2433.59 462.06 o
3 8 2 1 702.16 1177.54 324.03 o
3 8 2 2 266.65 135.75 119.20 <
4 8 2 -2 66.15 2.43 124.82 <
4 8 2 -1 451.69 167.94 146.07 <
4 8 2 0 1253.75 1566.57 441.86 o
4 8 2 1 707.79 998.52 358.35 <
4 8 2 2 13.04 13.67 47.83 <
5 8 2 -2 193.14 -40.85 79.57 <
5 8 2 -1 148.56 -22.93 64.08 <
5 8 2 0 209.41 -37.35 80.02 <
-5 9 2 1 427.30 506.24 284.55 <
-5 9 2 2 72.98 -234.75 190.71 <
-4 9 2 -2 11.29 137.87 142.58 <
-4 9 2 -1 135.28 -252.21 185.86 <
-4 9 2 0 788.66 990.02 362.60 <
-4 9 2 1 700.55 472.84 248.26 <
-4 9 2 2 123.68 125.57 124.21 <
-3 9 2 -2 9.94 -33.10 95.51 <
-3 9 2 -1 1352.29 1808.45 451.13 o
-3 9 2 0 4957.99 5528.76 768.48 o
-3 9 2 1 678.03 664.62 288.35 <
-3 9 2 2 13.84 202.56 145.62 <
-2 9 2 -2 49.45 201.19 152.91 <
-2 9 2 -1 495.27 631.82 235.66 <
-2 9 2 0 4031.59 3876.25 353.04 o
-2 9 2 1 1334.84 1009.91 184.03 o
-2 9 2 2 101.27 59.07 49.50 <
-1 9 2 -2 162.65 -141.97 111.15 <
-1 9 2 -1 410.33 474.96 236.88 <
-1 9 2 0 24625.90 26383.80 1646.28 o
-1 9 2 1 49.64 74.56 109.18 <
-1 9 2 2 217.82 265.73 87.31 o
0 9 2 -2 6.13 25.97 80.78 <
0 9 2 -1 2083.63 1775.35 352.43 o
0 9 2 0 9722.65 14136.40 1033.29 o
0 9 2 1 1782.27 2030.90 377.63 o
0 9 2 2 89.08 -87.31 92.32 <
1 9 2 -2 131.76 -58.00 64.23 <
1 9 2 -1 29.36 -36.44 88.07 <
1 9 2 0 26865.90 27496.40 1114.98 o
1 9 2 1 1045.65 1264.55 171.58 o
1 9 2 2 399.67 377.48 95.05 o
2 9 2 -2 136.38 11.08 34.77 <
2 9 2 -1 635.31 494.25 111.30 o
2 9 2 0 4270.87 4012.00 316.44 o
2 9 2 1 266.08 390.54 98.39 o
2 9 2 2 7.34 -35.68 47.22 <
3 9 2 -2 306.43 137.87 122.69 <
3 9 2 -1 1082.78 750.41 266.03 <
3 9 2 0 5788.22 5547.74 721.10 o
3 9 2 1 1775.26 2864.67 522.80 o
3 9 2 2 18.20 72.88 89.44 <
4 9 2 -2 150.14 36.29 49.96 <
4 9 2 -1 274.11 118.13 191.47 <
4 9 2 0 950.83 395.70 224.73 <
4 9 2 1 179.90 100.37 116.92 <
4 9 2 2 7.94 -78.50 79.11 <
5 9 2 -2 166.92 -209.54 174.77 <
5 9 2 -1 512.87 317.05 211.21 <
-5 10 2 2 136.98 -0.61 78.35 <
-4 10 2 -2 144.55 128.31 159.89 <
-4 10 2 -1 30.37 673.73 308.09 <
-4 10 2 0 1585.65 1437.35 455.98 o
-4 10 2 1 259.93 309.00 202.10 <
-4 10 2 2 75.77 217.44 167.48 <
-3 10 2 -2 8.08 49.80 78.96 <
-3 10 2 -1 474.26 442.93 217.44 <
-3 10 2 0 1206.91 1316.48 409.07 o
-3 10 2 1 646.16 771.21 307.63 <
-3 10 2 2 236.30 382.95 228.37 <
-2 10 2 -2 1833.87 1710.82 413.01 o
-2 10 2 -1 59.48 418.63 252.82 <
-2 10 2 0 5899.56 6278.87 821.78 o
-2 10 2 1 259.33 295.33 110.69 <
-2 10 2 2 224.66 -31.13 89.44 <
-1 10 2 -2 50.56 -7.74 102.49 <
-1 10 2 -1 2677.89 2724.98 548.61 o
-1 10 2 0 3759.56 4021.11 434.88 o
-1 10 2 1 2091.01 2249.25 328.59 o
-1 10 2 2 69.80 94.14 90.95 <
0 10 2 -2 160.81 137.72 32.04 o
0 10 2 -1 119.91 2.89 67.72 <
0 10 2 0 16946.90 20654.50 1282.92 o
0 10 2 1 224.10 181.60 89.59 <
0 10 2 2 214.54 -9.41 61.95 <
1 10 2 -2 77.45 57.40 115.25 <
1 10 2 -1 386.54 371.11 146.83 <
1 10 2 0 3686.33 3132.68 395.86 o
1 10 2 1 3129.44 3324.00 282.88 o
1 10 2 2 131.95 25.05 32.65 <
2 10 2 -2 45.93 -112.06 87.31 <
2 10 2 -1 104.88 40.85 43.88 <
2 10 2 0 8004.29 8576.56 463.27 o
2 10 2 1 373.54 325.10 100.07 o
2 10 2 2 188.93 164.60 73.34 <
3 10 2 -2 190.32 59.98 74.25 <
3 10 2 -1 1057.22 930.34 305.51 o
3 10 2 0 1236.47 1105.87 324.18 o
3 10 2 1 1271.44 1516.91 404.21 o
3 10 2 2 190.86 95.66 80.93 <
4 10 2 -2 166.79 -46.16 92.62 <
4 10 2 -1 32.72 154.58 166.88 <
4 10 2 0 2513.61 2231.18 532.21 o
4 10 2 1 97.43 123.45 131.34 <
4 10 2 2 13.63 182.67 164.60 <
5 10 2 -2 79.57 41.00 80.48 <
5 10 2 -1 323.36 214.25 184.79 <
-5 11 2 2 169.16 177.05 172.49 <
-4 11 2 -2 16.56 -227.01 188.13 <
-4 11 2 -1 319.54 704.25 328.74 <
-4 11 2 0 296.78 790.34 324.79 <
-4 11 2 1 484.26 896.63 358.80 <
-4 11 2 2 108.55 -28.70 45.55 <
-3 11 2 -2 14.84 115.25 108.87 <
-3 11 2 -1 135.63 63.32 32.95 <
-3 11 2 0 1691.39 2310.90 534.34 o
-3 11 2 1 1897.14 1400.91 437.16 o
-3 11 2 2 186.20 686.64 327.83 <
-2 11 2 -2 2219.04 2316.22 523.71 o
-2 11 2 -1 118.79 469.20 244.92 <
-2 11 2 0 2977.17 3306.23 628.02 o
-2 11 2 1 1583.65 1621.08 459.63 o
-2 11 2 2 32.96 236.12 176.59 <
-1 11 2 -2 14.45 95.05 156.40 <
-1 11 2 -1 3850.51 4553.47 750.56 o
-1 11 2 0 5759.59 4495.17 473.30 o
-1 11 2 1 2219.81 1584.48 288.05 o
-1 11 2 2 55.45 -44.64 89.59 <
0 11 2 -2 87.34 13.51 59.37 <
0 11 2 -1 185.98 353.04 189.96 <
0 11 2 0 725.46 690.28 242.80 <
0 11 2 1 1662.15 2209.62 407.85 o
0 11 2 2 47.69 -62.41 105.07 <
1 11 2 -2 58.95 -10.93 121.78 <
1 11 2 -1 3185.02 2245.61 380.21 o
1 11 2 0 5349.62 3785.75 475.88 o
1 11 2 1 615.75 358.65 145.16 <
1 11 2 2 91.46 51.47 23.54 <
2 11 2 -2 55.65 -103.71 97.03 <
2 11 2 -1 78.84 140.61 95.21 <
2 11 2 0 2689.17 3329.77 528.11 o
2 11 2 1 1131.97 2153.74 431.54 o
2 11 2 2 95.53 87.61 88.22 <
3 11 2 -2 63.23 94.75 95.81 <
3 11 2 -1 2018.12 1842.77 427.74 o
3 11 2 0 1548.94 1800.40 425.01 o
3 11 2 1 103.41 -8.20 76.98 <
3 11 2 2 48.97 49.65 58.92 <
4 11 2 -2 189.12 -163.08 138.79 <
4 11 2 -1 2.20 -99.91 112.21 <
4 11 2 0 199.06 637.44 297.31 <
4 11 2 1 542.26 1338.19 434.12 o
4 11 2 2 29.09 -16.70 54.51 <
5 11 2 -2 34.93 79.57 111.76 <
-4 12 2 -2 45.93 -272.56 209.54 <
-4 12 2 -1 0.91 174.32 141.21 <
-4 12 2 0 1502.28 1377.22 468.28 <
-4 12 2 1 52.90 421.36 250.69 <
-4 12 2 2 159.33 216.07 194.36 <
-3 12 2 -2 77.92 -107.05 121.02 <
-3 12 2 -1 63.11 171.74 151.99 <
-3 12 2 0 3058.96 3558.60 694.68 o
-3 12 2 1 4.93 29.61 67.87 <
-3 12 2 2 9.20 -11.24 45.86 <
-2 12 2 -2 129.92 196.33 141.82 <
-2 12 2 -1 241.84 607.37 286.38 <
-2 12 2 0 2927.87 3574.54 690.13 o
-2 12 2 1 411.45 302.02 204.84 <
-2 12 2 2 121.99 -132.41 141.97 <
-1 12 2 -2 142.90 139.09 130.43 <
-1 12 2 -1 1654.94 1608.63 476.18 o
-1 12 2 0 8935.10 9451.48 735.98 o
-1 12 2 1 43.16 -52.39 121.32 <
-1 12 2 2 53.81 70.61 76.53 <
0 12 2 -2 180.57 24.60 80.48 <
0 12 2 -1 883.73 910.91 280.91 o
0 12 2 0 25485.70 31622.10 1660.71 o
0 12 2 1 28.14 78.50 48.13 <
0 12 2 2 80.19 150.32 75.47 <
1 12 2 -2 5.01 125.73 132.56 <
1 12 2 -1 166.04 -281.06 144.40 <
1 12 2 0 7032.65 5656.46 619.07 o
1 12 2 1 71.59 -74.71 77.29 <
1 12 2 2 384.08 239.46 152.15 <
2 12 2 -2 177.38 52.08 99.15 <
2 12 2 -1 1086.52 1220.67 336.64 o
2 12 2 0 2870.38 2695.06 505.33 o
2 12 2 1 17.95 88.98 99.46 <
2 12 2 2 1395.78 732.79 267.70 <
3 12 2 -2 46.53 -167.79 132.26 <
3 12 2 -1 45.74 15.94 97.64 <
3 12 2 0 1588.53 1903.51 448.24 o
3 12 2 1 42.79 -16.85 46.46 <
3 12 2 2 60.90 38.72 162.78 <
4 12 2 -2 119.32 179.48 149.72 <
4 12 2 -1 382.20 658.85 285.92 <
4 12 2 0 1586.81 1624.87 467.68 o
4 12 2 1 31.44 127.55 220.63 <
4 12 2 2 313.08 459.78 293.36 <
5 12 2 -2 72.86 -151.99 155.34 <
-4 13 2 -1 76.83 163.84 164.60 <
-4 13 2 0 575.43 -124.66 145.31 <
-4 13 2 1 145.59 206.81 183.27 <
-4 13 2 2 270.50 -10.93 46.46 <
-3 13 2 -2 12.37 -17.77 57.55 <
-3 13 2 -1 86.55 546.64 313.56 <
-3 13 2 0 3648.62 3459.75 716.24 o
-3 13 2 1 1788.24 1818.17 539.04 o
-3 13 2 2 126.23 333.75 227.76 <
-2 13 2 -2 68.24 84.12 112.82 <
-2 13 2 -1 91.72 -51.93 102.19 <
-2 13 2 0 2713.76 2081.47 554.38 o
-2 13 2 1 100.48 240.67 239.15 <
-2 13 2 2 56.91 6.53 46.01 <
-1 13 2 -2 172.37 8.96 194.51 <
-1 13 2 -1 2631.09 3362.87 730.52 o
-1 13 2 0 8894.44 7257.34 682.99 o
-1 13 2 1 3357.84 2950.16 453.40 o
-1 13 2 2 158.09 23.08 115.70 <
0 13 2 -2 20.94 84.88 116.46 <
0 13 2 -1 72.39 46.77 82.60 <
0 13 2 0 2603.26 2547.47 461.30 o
0 13 2 1 192.78 132.56 81.84 <
0 13 2 2 70.38 169.15 157.01 <
1 13 2 -2 60.13 63.47 165.51 <
1 13 2 -1 2690.49 1798.28 369.43 o
1 13 2 0 8873.46 7554.05 964.66 o
1 13 2 1 2258.94 1690.77 333.14 o
1 13 2 2 56.04 -25.36 139.39 <
2 13 2 -2 60.25 7.44 157.61 <
2 13 2 -1 1277.61 866.27 309.15 <
2 13 2 0 2270.62 1718.56 413.92 o
2 13 2 1 204.86 584.14 253.73 <
2 13 2 2 123.63 49.05 73.64 <
3 13 2 -2 37.93 172.80 166.27 <
3 13 2 -1 1422.50 875.07 330.71 <
3 13 2 0 3437.76 3621.46 650.04 o
3 13 2 1 293.92 450.67 230.19 <
3 13 2 2 8.45 104.32 105.23 <
4 13 2 -2 148.04 -42.82 78.35 <
4 13 2 -1 721.49 1060.93 373.99 <
4 13 2 0 419.23 268.31 195.57 <
4 13 2 1 85.27 119.35 134.23 <
4 13 2 2 22.75 346.96 234.75 <
-4 14 2 0 134.15 215.31 194.06 <
-4 14 2 1 584.18 584.75 350.76 <
-4 14 2 2 102.47 344.38 245.38 <
-3 14 2 -2 3.46 12.60 50.26 <
-3 14 2 -1 279.98 447.79 297.61 <
-3 14 2 0 605.50 756.33 338.46 <
-3 14 2 1 353.06 420.15 233.08 <
-3 14 2 2 119.45 -58.16 103.71 <
-2 14 2 -2 278.17 311.73 256.01 <
-2 14 2 -1 567.71 236.88 153.82 <
-2 14 2 0 322.54 727.78 346.35 <
-2 14 2 1 743.06 627.11 282.43 <
-2 14 2 2 165.51 -8.35 127.25 <
-1 14 2 -2 186.30 -137.27 149.57 <
-1 14 2 -1 2751.28 2807.58 434.12 o
-1 14 2 0 1681.23 1589.95 327.68 o
-1 14 2 1 113.85 168.85 123.75 <
-1 14 2 2 143.43 75.16 76.53 <
0 14 2 -2 19.34 -68.03 68.33 <
0 14 2 -1 1944.49 1811.79 413.62 o
0 14 2 0 4798.83 5796.76 739.17 o
0 14 2 1 50.17 222.91 144.55 <
0 14 2 2 59.41 -62.26 55.57 <
1 14 2 -2 56.70 -9.11 131.04 <
1 14 2 -1 245.98 230.65 146.53 <
1 14 2 0 2240.26 1331.36 336.03 o
1 14 2 1 444.60 27.64 128.31 <
1 14 2 2 317.16 165.21 120.71 <
2 14 2 -2 148.15 88.07 28.55 o
2 14 2 -1 2049.56 1533.46 419.69 o
2 14 2 0 685.42 326.31 175.23 <
2 14 2 1 171.59 42.21 72.28 <
2 14 2 2 1125.17 449.30 256.46 <
3 14 2 -2 6.45 -33.41 71.06 <
3 14 2 -1 159.86 27.48 73.95 <
3 14 2 0 1392.42 1283.53 399.80 o
3 14 2 1 292.28 289.41 191.63 <
3 14 2 2 1.74 -81.24 104.77 <
4 14 2 -2 155.83 431.39 245.38 <
4 14 2 -1 930.92 667.81 315.08 <
4 14 2 0 156.26 -153.97 152.15 <
4 14 2 1 83.42 402.84 251.15 <
-4 15 2 0 614.21 332.39 250.54 <
-4 15 2 1 586.10 65.14 91.11 <
-4 15 2 2 199.21 54.82 86.10 <
-3 15 2 -2 55.80 209.85 188.74 <
-3 15 2 -1 503.89 1012.64 413.32 <
-3 15 2 0 385.95 376.12 255.86 <
-3 15 2 1 964.82 701.21 354.10 <
-3 15 2 2 153.89 -34.47 137.72 <
-2 15 2 -2 449.32 -106.59 133.32 <
-2 15 2 -1 3.69 -113.58 141.52 <
-2 15 2 0 1492.76 1456.02 501.54 <
-2 15 2 1 690.19 166.42 178.87 <
-2 15 2 2 169.43 -244.62 219.72 <
-1 15 2 -2 1.66 242.95 190.11 <
-1 15 2 -1 7226.87 7097.30 714.12 o
-1 15 2 0 2050.40 2034.55 400.87 o
-1 15 2 1 2064.71 1547.89 348.78 o
-1 15 2 2 23.00 -41.76 71.67 <
0 15 2 -2 46.07 47.22 103.71 <
0 15 2 -1 560.56 599.17 271.65 <
0 15 2 0 13212.20 15703.30 1229.02 o
0 15 2 1 269.32 291.39 174.92 <
0 15 2 2 66.65 86.10 103.40 <
1 15 2 -2 122.88 68.63 131.80 <
1 15 2 -1 535.63 522.95 215.46 <
1 15 2 0 2098.98 1151.73 351.06 o
1 15 2 1 5011.30 4391.76 785.64 o
1 15 2 2 11.17 25.05 77.59 <
2 15 2 -2 115.42 -59.52 73.49 <
2 15 2 -1 554.84 524.77 244.47 <
2 15 2 0 1343.11 1029.80 373.53 <
2 15 2 1 5.99 -70.15 95.66 <
2 15 2 2 53.67 12.15 27.94 <
3 15 2 -2 314.50 99.00 55.12 <
3 15 2 -1 265.40 254.79 237.48 <
3 15 2 0 469.73 262.23 189.04 <
3 15 2 1 701.14 1223.55 405.73 o
3 15 2 2 92.77 264.05 192.99 <
4 15 2 -2 144.26 66.96 102.95 <
4 15 2 -1 536.01 667.35 325.10 <
4 15 2 0 569.70 788.37 357.59 <
-4 16 2 2 27.20 169.46 186.77 <
-3 16 2 -2 29.72 -0.61 30.37 <
-3 16 2 -1 54.18 -6.23 45.70 <
-3 16 2 0 295.05 -207.42 200.28 <
-3 16 2 1 506.85 587.94 333.14 <
-3 16 2 2 174.09 -194.06 200.43 <
-2 16 2 -2 212.47 -0.61 36.29 <
-2 16 2 -1 21.67 -216.83 201.80 <
-2 16 2 0 325.23 48.74 115.10 <
-2 16 2 1 16.49 -29.46 85.03 <
-2 16 2 2 45.91 48.74 151.39 <
-1 16 2 -2 45.29 54.51 87.31 <
-1 16 2 -1 316.03 500.32 211.52 <
-1 16 2 0 35.56 -0.15 106.75 <
-1 16 2 1 250.96 293.36 152.45 <
-1 16 2 2 114.23 -142.58 128.61 <
0 16 2 -2 56.44 -110.85 112.97 <
0 16 2 -1 40.55 47.22 175.83 <
0 16 2 0 95.68 101.28 113.58 <
0 16 2 1 1196.77 1549.56 399.20 o
0 16 2 2 154.11 -96.88 134.23 <
1 16 2 -2 86.96 -1.82 137.11 <
1 16 2 -1 500.42 323.27 182.21 <
1 16 2 0 35.08 -4.10 62.71 <
1 16 2 1 2222.55 1638.54 389.33 o
1 16 2 2 243.58 175.38 136.81 <
2 16 2 -2 193.37 112.52 150.48 <
2 16 2 -1 149.97 120.87 162.78 <
2 16 2 0 545.52 374.29 254.18 <
2 16 2 1 718.00 770.91 305.05 <
2 16 2 2 238.36 78.05 104.92 <
3 16 2 -2 105.75 -117.68 134.23 <
3 16 2 -1 144.56 210.00 176.14 <
3 16 2 0 86.23 23.84 62.26 <
3 16 2 1 121.26 352.28 229.89 <
3 16 2 2 12.04 -144.40 148.96 <
4 16 2 -2 134.87 306.42 223.21 <
4 16 2 -1 106.15 -100.07 131.34 <
4 16 2 0 164.04 -113.12 141.06 <
-3 17 2 -2 68.27 444.29 294.73 <
-3 17 2 -1 842.29 985.77 442.77 <
-3 17 2 0 6190.60 5109.67 1022.06 o
-3 17 2 1 114.14 183.27 199.83 <
-3 17 2 2 302.33 459.17 320.85 <
-2 17 2 -2 316.93 74.25 124.06 <
-2 17 2 -1 440.42 311.13 303.38 <
-2 17 2 0 6122.63 5061.24 1051.51 o
-2 17 2 1 2296.06 2003.72 686.03 <
-2 17 2 2 181.10 269.98 258.74 <
-1 17 2 -2 139.14 52.84 107.05 <
-1 17 2 -1 402.21 770.00 286.07 <
-1 17 2 0 15347.10 14857.10 1138.06 o
-1 17 2 1 564.28 912.12 266.03 o
-1 17 2 2 108.62 178.87 118.13 <
0 17 2 -2 77.13 67.11 108.72 <
0 17 2 -1 2258.81 2776.76 522.19 o
0 17 2 0 5960.09 7964.17 898.15 o
0 17 2 1 3171.21 3786.06 621.80 o
0 17 2 2 20.20 42.52 82.15 <
1 17 2 -2 26.92 -79.11 139.24 <
1 17 2 -1 1594.35 1430.67 397.22 o
1 17 2 0 14830.70 13311.00 1166.76 o
1 17 2 1 525.87 539.50 256.92 <
1 17 2 2 46.38 93.23 156.70 <
2 17 2 -2 66.59 -16.10 62.41 <
2 17 2 -1 1070.00 662.49 342.25 <
2 17 2 0 6015.62 6461.38 1030.56 o
2 17 2 1 901.72 952.21 367.76 <
2 17 2 2 0.14 -189.80 169.91 <
3 17 2 -2 26.36 219.57 190.11 <
3 17 2 -1 593.82 706.83 354.10 <
3 17 2 0 6222.51 4854.12 895.88 o
3 17 2 1 669.97 978.17 396.92 <
3 17 2 2 50.47 78.35 115.10 <
4 17 2 -2 48.18 146.98 162.32 <
4 17 2 -1 408.96 -7.90 37.51 <
-3 18 2 -1 21.28 163.99 190.41 <
-3 18 2 0 1028.01 708.04 399.04 <
-3 18 2 1 86.81 -332.99 280.15 <
-3 18 2 2 62.37 546.33 365.79 <
-2 18 2 -2 602.49 377.94 283.95 <
-2 18 2 -1 1173.29 2010.86 680.26 <
-2 18 2 0 858.57 420.45 311.28 <
-2 18 2 1 94.67 366.70 292.75 <
-2 18 2 2 10.48 135.75 249.63 <
-1 18 2 -2 177.96 178.87 199.52 <
-1 18 2 -1 1978.41 2157.39 457.05 o
-1 18 2 0 2771.60 2888.36 518.70 o
-1 18 2 1 438.06 364.42 199.67 <
-1 18 2 2 19.20 77.74 108.11 <
0 18 2 -2 31.50 34.01 105.99 <
0 18 2 -1 850.61 733.71 287.74 <
0 18 2 0 888.41 1161.14 332.39 o
0 18 2 1 25.29 -21.56 125.12 <
0 18 2 2 52.73 -46.46 85.64 <
1 18 2 -2 31.79 -161.87 131.65 <
1 18 2 -1 942.16 718.98 275.29 <
1 18 2 0 2516.60 2286.91 502.30 o
1 18 2 1 2475.49 1884.22 440.35 o
1 18 2 2 187.03 189.20 63.62 <
2 18 2 -2 49.26 333.14 249.02 <
2 18 2 -1 252.27 -12.00 56.33 <
2 18 2 0 449.97 611.78 318.87 <
2 18 2 1 202.37 166.88 168.70 <
2 18 2 2 84.35 103.56 133.62 <
3 18 2 -2 94.42 203.77 192.84 <
3 18 2 -1 889.58 182.97 180.69 <
3 18 2 0 862.97 469.65 286.07 <
3 18 2 1 83.48 13.06 53.45 <
3 18 2 2 262.00 118.13 145.31 <
4 18 2 -2 91.39 -57.70 106.29 <
-3 19 2 0 46.09 -28.09 91.41 <
-3 19 2 1 150.15 211.21 234.45 <
-3 19 2 2 49.03 251.91 246.14 <
-2 19 2 -2 427.96 600.39 383.71 <
-2 19 2 -1 934.07 679.19 368.98 <
-2 19 2 0 1102.33 841.67 536.61 <
-2 19 2 1 1025.41 1230.39 559.24 <
-2 19 2 2 128.68 -250.09 254.95 <
-1 19 2 -2 255.69 -187.98 211.52 <
-1 19 2 -1 461.92 260.56 155.49 <
-1 19 2 0 29.52 64.38 187.83 <
-1 19 2 1 202.26 57.55 107.81 <
-1 19 2 2 9.65 -153.51 141.97 <
0 19 2 -2 22.83 60.13 63.47 <
0 19 2 -1 1091.54 1516.76 401.62 o
0 19 2 0 181.62 115.10 131.65 <
0 19 2 1 1031.28 767.57 280.00 <
0 19 2 2 14.81 73.19 117.83 <
1 19 2 -2 18.05 12.15 133.77 <
1 19 2 -1 327.86 180.85 135.29 <
1 19 2 0 59.34 -157.76 174.62 <
1 19 2 1 372.51 308.39 250.85 <
1 19 2 2 36.47 316.44 176.44 <
2 19 2 -2 98.71 220.78 208.78 <
2 19 2 -1 1182.43 672.97 370.95 <
2 19 2 0 1415.73 950.23 409.67 <
2 19 2 1 603.59 463.73 255.25 <
2 19 2 2 124.23 136.51 202.26 <
3 19 2 -2 54.41 -94.45 139.09 <
3 19 2 -1 74.53 243.40 216.07 <
3 19 2 0 61.38 381.58 270.58 <
3 19 2 1 18.42 -51.78 100.82 <
3 19 2 2 48.74 5.92 40.39 <
-2 20 2 -2 52.68 -268.31 173.40 <
-2 20 2 -1 71.78 184.34 217.90 <
-2 20 2 0 589.85 164.60 209.39 <
-2 20 2 1 269.69 -47.22 118.74 <
-2 20 2 2 24.32 49.65 123.90 <
-1 20 2 -2 32.22 489.09 345.75 <
-1 20 2 -1 15.55 204.38 144.25 <
-1 20 2 0 1194.06 1456.94 363.21 o
-1 20 2 1 232.66 177.05 126.94 <
-1 20 2 2 39.06 92.02 92.93 <
0 20 2 -2 4.15 -101.28 103.56 <
0 20 2 -1 152.26 103.10 104.77 <
0 20 2 0 88.98 -51.47 101.58 <
0 20 2 1 142.89 141.37 147.14 <
0 20 2 2 17.72 -153.82 165.36 <
1 20 2 -2 226.37 -21.11 124.51 <
1 20 2 -1 139.20 364.58 195.42 <
1 20 2 0 1360.24 2002.96 487.57 o
1 20 2 1 2074.68 1758.95 452.19 o
1 20 2 2 455.50 308.70 257.22 <
2 20 2 -2 41.85 -31.13 89.74 <
2 20 2 -1 128.42 134.99 150.63 <
2 20 2 0 1042.78 608.44 371.41 <
2 20 2 1 163.86 135.75 163.69 <
2 20 2 2 208.93 -306.42 244.47 <
3 20 2 -2 283.29 68.79 134.68 <
3 20 2 -1 20.45 2.13 36.44 <
3 20 2 0 936.23 1041.80 462.36 <
-2 21 2 -1 1829.00 1774.74 680.86 <
-2 21 2 0 5294.59 5650.54 1236.61 o
-2 21 2 1 871.82 382.19 342.25 <
-2 21 2 2 241.40 479.67 435.18 <
-1 21 2 -2 206.07 88.22 154.58 <
-1 21 2 -1 857.54 349.70 297.76 <
-1 21 2 0 4494.02 5534.84 753.29 o
-1 21 2 1 1101.43 1034.51 339.98 o
-1 21 2 2 86.96 254.79 250.54 <
0 21 2 -2 61.69 -59.98 105.68 <
0 21 2 -1 1824.90 2634.33 537.68 o
0 21 2 0 5240.72 6782.83 859.28 o
0 21 2 1 2308.65 2834.15 545.57 o
0 21 2 2 116.35 392.52 204.84 <
1 21 2 -2 52.81 20.80 89.28 <
1 21 2 -1 79.14 -34.92 166.57 <
1 21 2 0 4674.83 5760.63 810.84 o
1 21 2 1 1122.34 1645.83 428.80 o
1 21 2 2 20.56 343.92 147.14 <
2 21 2 -2 105.33 -141.21 178.87 <
2 21 2 -1 1181.71 1359.45 543.14 <
2 21 2 0 5896.41 4140.61 947.20 o
2 21 2 1 2243.64 2062.49 651.41 o
2 21 2 2 5.58 12.00 68.48 <
3 21 2 -2 101.55 -365.03 286.98 <
3 21 2 -1 193.32 -503.21 336.33 <
-1 22 2 -2 36.63 115.10 177.96 <
-1 22 2 -1 1362.18 1744.98 702.28 <
-1 22 2 0 1038.37 1090.08 337.70 o
-1 22 2 1 70.32 -214.71 234.14 <
-1 22 2 2 129.58 -47.22 113.73 <
0 22 2 -2 84.97 -48.59 103.10 <
0 22 2 -1 39.53 91.71 97.79 <
0 22 2 0 67.05 454.62 222.45 <
0 22 2 1 75.09 302.62 210.46 <
1 22 2 -2 116.17 -26.42 75.77 <
1 22 2 -1 320.05 185.10 152.75 <
1 22 2 0 995.17 997.61 327.37 o
1 22 2 1 425.60 188.89 143.19 <
1 22 2 2 120.10 464.49 316.74 <
2 22 2 -2 45.28 117.98 167.03 <
2 22 2 -1 38.70 -201.80 215.31 <
2 22 2 0 1269.72 798.70 423.79 <
2 22 2 1 12.62 157.92 188.29 <
2 22 2 2 196.49 -150.02 185.40 <
-1 23 2 0 473.94 1301.14 575.94 <
0 23 2 -2 3.98 90.80 95.66 <
0 23 2 -1 845.07 1027.22 357.89 <
0 23 2 0 1103.74 1087.05 329.35 o
0 23 2 1 240.52 310.98 281.06 <
1 23 2 -2 25.28 98.39 138.02 <
1 23 2 -1 848.15 959.80 330.41 <
1 23 2 0 504.05 831.19 317.81 <
2 23 2 -2 29.36 82.30 143.95 <
2 23 2 -1 19.63 64.23 126.64 <
2 23 2 0 1418.24 1365.22 552.56 <
0 24 2 -2 32.61 187.98 178.11 <
0 24 2 -1 683.77 913.49 424.70 <
1 24 2 -2 63.54 -107.05 155.79 <
1 24 2 -1 341.75 42.52 101.43 <
1 -23 3 -2 66.74 307.33 176.44 <
1 -23 3 -1 3.38 -325.86 269.37 <
-1 -22 3 -2 671.24 310.52 239.15 <
-1 -22 3 -1 130.07 -18.07 51.02 <
-1 -22 3 0 465.89 585.35 236.42 <
-1 -22 3 1 53.09 19.13 147.44 <
-1 -22 3 2 12.44 132.71 170.82 <
0 -22 3 -2 88.84 -4.10 47.53 <
0 -22 3 -1 614.82 863.84 294.42 <
0 -22 3 0 2683.74 2786.32 517.78 o
0 -22 3 1 486.10 308.09 168.24 <
0 -22 3 2 18.17 -66.81 84.12 <
1 -22 3 -2 304.35 328.29 183.88 <
1 -22 3 -1 5.88 221.69 149.26 <
1 -22 3 0 383.62 455.53 217.90 <
1 -22 3 1 274.99 35.68 76.53 <
1 -22 3 2 69.84 209.24 193.15 <
2 -22 3 -2 7.11 -44.19 153.36 <
2 -22 3 -1 1116.33 1166.76 475.12 <
-2 -21 3 -2 172.88 129.52 204.68 <
-2 -21 3 -1 130.68 182.51 200.74 <
-2 -21 3 0 214.26 -260.26 231.87 <
-2 -21 3 1 147.82 171.89 188.59 <
-2 -21 3 2 157.00 -25.36 82.15 <
-1 -21 3 -2 60.99 -70.46 121.17 <
-1 -21 3 -1 29.58 -34.01 99.76 <
-1 -21 3 0 284.12 32.95 85.03 <
-1 -21 3 1 942.42 1000.95 454.92 <
-1 -21 3 2 22.86 12.30 54.21 <
0 -21 3 -2 20.53 16.85 66.20 <
0 -21 3 -1 94.92 249.78 159.74 <
0 -21 3 0 4267.81 4225.95 631.97 o
0 -21 3 1 1139.61 1399.39 369.13 o
0 -21 3 2 192.56 -199.98 208.48 <
1 -21 3 -2 61.21 -126.49 119.50 <
1 -21 3 -1 52.16 221.99 148.50 <
1 -21 3 0 380.70 533.58 223.97 <
1 -21 3 1 274.60 93.38 116.77 <
1 -21 3 2 45.17 -2.28 28.85 <
2 -21 3 -2 5.35 -85.03 94.29 <
2 -21 3 -1 114.59 61.65 107.35 <
2 -21 3 0 225.46 166.12 169.46 <
2 -21 3 1 708.29 1034.05 420.15 <
2 -21 3 2 420.30 587.18 294.42 <
-2 -20 3 -2 296.63 137.72 201.65 <
-2 -20 3 -1 276.14 580.19 287.14 <
-2 -20 3 0 801.67 1387.85 517.78 <
-2 -20 3 1 154.10 316.29 253.58 <
-2 -20 3 2 43.22 -273.32 224.88 <
-1 -20 3 -2 142.12 299.43 239.00 <
-1 -20 3 -1 2186.51 2755.65 705.77 o
-1 -20 3 0 448.16 827.39 395.25 <
-1 -20 3 2 26.71 230.65 210.46 <
0 -20 3 -2 85.15 381.89 185.70 <
0 -20 3 -1 24.02 91.87 92.78 <
0 -20 3 0 2072.95 2842.96 502.45 o
0 -20 3 1 20.45 19.59 53.90 <
0 -20 3 2 37.52 322.21 239.76 <
1 -20 3 -2 134.37 338.61 193.30 <
1 -20 3 -1 669.43 14.12 115.40 <
1 -20 3 0 273.81 621.19 245.83 <
1 -20 3 1 191.61 220.93 143.64 <
1 -20 3 2 6.40 497.29 278.02 <
2 -20 3 -2 175.85 137.72 161.87 <
2 -20 3 -1 316.33 514.45 211.37 <
2 -20 3 0 714.26 940.67 371.71 <
2 -20 3 1 104.41 112.82 137.57 <
2 -20 3 2 110.16 -376.72 244.16 <
-3 -19 3 0 1716.74 1510.38 571.84 <
-3 -19 3 1 18.36 477.85 315.38 <
-3 -19 3 2 270.93 39.78 234.75 <
-2 -19 3 -2 36.25 291.23 245.53 <
-2 -19 3 -1 131.88 287.89 213.95 <
-2 -19 3 0 944.72 1198.19 497.14 <
-2 -19 3 1 474.15 666.14 338.00 <
-2 -19 3 2 36.29 75.31 157.61 <
-1 -19 3 -2 190.67 154.58 111.45 <
-1 -19 3 -1 2941.88 3037.32 730.06 o
-1 -19 3 0 6850.26 5367.96 951.45 o
0 -19 3 -2 37.64 107.66 136.96 <
0 -19 3 -1 99.50 398.74 180.85 <
0 -19 3 0 1138.66 1156.44 315.08 o
0 -19 3 1 604.90 1202.29 304.14 o
0 -19 3 2 91.90 118.44 87.16 <
1 -19 3 -2 69.51 -5.92 93.69 <
1 -19 3 -1 59.36 97.18 88.37 <
1 -19 3 0 6911.67 7506.82 799.30 o
1 -19 3 1 3109.38 3084.09 508.37 o
1 -19 3 2 229.42 319.17 215.31 <
2 -19 3 -2 133.80 -499.72 313.71 <
2 -19 3 -1 187.58 53.30 93.08 <
2 -19 3 0 694.79 654.90 292.60 <
2 -19 3 1 119.86 522.49 278.63 <
2 -19 3 2 22.71 130.13 119.04 <
-3 -18 3 -2 10.95 -122.99 136.96 <
-3 -18 3 -1 124.61 30.52 86.25 <
-3 -18 3 0 156.82 -77.44 133.93 <
-3 -18 3 1 21.81 -89.89 75.62 <
-3 -18 3 2 129.77 387.20 267.85 <
-2 -18 3 -2 41.89 580.65 332.23 <
-2 -18 3 -1 851.76 1075.35 433.66 <
-2 -18 3 0 539.74 393.58 260.41 <
-2 -18 3 1 127.65 199.37 138.94 <
-2 -18 3 2 103.53 -230.19 194.21 <
-1 -18 3 -2 232.74 128.46 205.75 <
-1 -18 3 -1 556.49 703.64 356.22 <
-1 -18 3 0 277.73 383.10 286.22 <
0 -18 3 -2 446.55 441.10 163.54 <
0 -18 3 -1 167.08 174.01 149.26 <
0 -18 3 0 969.03 543.45 199.83 <
0 -18 3 1 481.96 630.15 194.66 o
0 -18 3 2 1.40 -13.97 47.07 <
1 -18 3 -2 4.27 88.07 87.61 <
1 -18 3 -1 366.53 239.30 111.91 <
1 -18 3 0 100.80 192.84 128.00 <
1 -18 3 1 16.23 41.76 116.92 <
1 -18 3 2 159.49 -8.50 92.78 <
2 -18 3 -2 283.32 181.60 155.34 <
2 -18 3 -1 38.84 58.92 89.74 <
2 -18 3 0 354.58 715.64 237.33 o
2 -18 3 1 866.66 960.41 364.42 <
2 -18 3 2 15.20 -2.28 28.70 <
3 -18 3 -2 9.60 -95.66 127.70 <
-3 -17 3 -2 82.37 96.88 153.66 <
-3 -17 3 -1 677.85 710.17 365.03 <
-3 -17 3 0 426.05 267.24 277.57 <
-3 -17 3 1 21.76 159.28 174.62 <
-3 -17 3 2 305.34 374.45 255.10 <
-2 -17 3 -2 23.96 384.47 262.84 <
-2 -17 3 -1 56.33 146.07 159.89 <
-2 -17 3 0 233.88 478.76 277.11 <
-2 -17 3 1 33.24 -90.95 123.14 <
-2 -17 3 2 49.30 -401.93 246.90 <
-1 -17 3 -2 198.65 -17.01 227.16 <
-1 -17 3 -1 1619.21 1372.66 444.14 o
-1 -17 3 0 3282.87 3812.17 745.55 o
0 -17 3 -2 8.08 150.32 165.36 <
0 -17 3 -1 22.72 -141.37 104.32 <
0 -17 3 0 6.43 -31.58 69.09 <
0 -17 3 1 109.59 174.47 133.47 <
0 -17 3 2 52.08 49.20 62.26 <
1 -17 3 -2 173.83 176.74 120.26 <
1 -17 3 -1 233.99 147.14 95.66 <
1 -17 3 0 3989.18 4341.65 576.40 o
1 -17 3 1 86.37 213.95 139.70 <
1 -17 3 2 126.46 75.92 126.49 <
2 -17 3 -2 9.16 -231.87 201.65 <
2 -17 3 -1 36.90 -246.44 201.95 <
2 -17 3 0 422.16 729.15 301.11 <
3 -17 3 -2 232.55 407.55 244.77 <
-4 -16 3 1 32.15 131.65 169.46 <
-4 -16 3 2 23.37 50.26 104.01 <
-3 -16 3 -2 66.85 358.35 237.63 <
-3 -16 3 -1 65.98 208.94 257.68 <
-3 -16 3 0 599.62 443.99 230.50 <
-3 -16 3 1 303.51 93.08 130.28 <
-3 -16 3 2 30.83 332.84 233.38 <
-2 -16 3 -2 375.98 461.76 275.44 <
-2 -16 3 -1 2543.63 2704.18 651.71 o
-2 -16 3 0 9868.37 8459.94 1147.93 o
-2 -16 3 1 54.69 167.48 208.63 <
-2 -16 3 2 37.21 -53.90 169.00 <
-1 -16 3 -2 26.54 -19.13 97.33 <
-1 -16 3 -1 549.44 328.44 214.55 <
-1 -16 3 0 3004.89 2498.28 594.47 o
0 -16 3 -2 282.27 348.02 207.42 <
0 -16 3 -1 2596.91 2342.33 551.19 o
0 -16 3 0 14807.40 15684.80 1032.08 o
0 -16 3 1 138.99 122.84 103.10 <
0 -16 3 2 50.77 8.50 77.90 <
1 -16 3 -2 75.29 60.74 56.18 <
1 -16 3 -1 556.70 432.60 194.82 <
1 -16 3 0 3223.67 2680.34 431.69 o
1 -16 3 1 585.16 837.41 230.95 o
1 -16 3 2 3.62 71.67 105.68 <
2 -16 3 -2 190.28 83.36 119.04 <
2 -16 3 -1 626.98 290.63 230.80 <
2 -16 3 0 8834.89 8378.71 1065.64 o
2 -16 3 1 51.97 127.70 118.29 <
3 -16 3 -2 67.23 138.33 136.35 <
3 -16 3 -1 843.74 414.23 220.93 <
-4 -15 3 -1 374.22 760.13 467.22 <
-4 -15 3 0 287.11 -215.62 206.20 <
-4 -15 3 1 114.16 -79.11 128.76 <
-4 -15 3 2 60.42 88.83 169.76 <
-3 -15 3 -2 2.37 65.75 96.27 <
-3 -15 3 -1 22.25 267.24 216.68 <
-3 -15 3 0 156.08 494.25 319.78 <
-3 -15 3 1 328.43 56.64 97.79 <
-3 -15 3 2 68.32 177.20 167.03 <
-2 -15 3 -2 916.19 882.21 371.56 <
-2 -15 3 -1 478.02 587.03 316.90 <
-2 -15 3 0 262.58 95.05 99.15 <
-2 -15 3 1 82.40 69.70 64.99 <
-2 -15 3 2 172.97 -114.19 125.57 <
-1 -15 3 -2 90.86 -34.16 188.13 <
-1 -15 3 -1 206.22 67.72 118.74 <
-1 -15 3 0 332.61 -196.79 159.13 <
0 -15 3 -2 87.37 20.80 92.62 <
0 -15 3 -1 310.09 110.09 157.92 <
0 -15 3 0 8265.34 8690.44 744.79 o
0 -15 3 1 763.61 696.20 200.13 o
0 -15 3 2 126.97 80.93 76.07 <
1 -15 3 -2 7.93 -120.41 101.74 <
1 -15 3 -1 88.96 18.83 50.87 <
1 -15 3 0 410.28 -103.71 83.67 <
1 -15 3 1 393.64 510.35 189.50 <
1 -15 3 2 35.00 10.63 82.91 <
2 -15 3 -2 44.55 -366.55 231.87 <
2 -15 3 -1 367.18 16.55 171.13 <
2 -15 3 0 112.94 -10.63 99.91 <
2 -15 3 1 850.67 902.71 310.82 <
3 -15 3 -2 3.45 106.59 113.88 <
3 -15 3 -1 233.63 5.62 33.10 <
-4 -14 3 -2 257.39 531.91 222.60 <
-4 -14 3 -1 138.92 268.91 223.36 <
-4 -14 3 0 662.55 536.61 320.39 <
-4 -14 3 1 2.82 288.50 228.68 <
-4 -14 3 2 33.22 157.46 174.47 <
-3 -14 3 -2 23.93 128.91 147.29 <
-3 -14 3 -1 2337.79 2800.14 661.73 o
-3 -14 3 0 641.01 160.35 101.43 <
-3 -14 3 1 230.07 378.39 129.22 <
-3 -14 3 2 70.89 77.59 158.98 <
-2 -14 3 -2 87.50 96.72 119.96 <
-2 -14 3 -1 527.99 264.21 251.30 <
-2 -14 3 0 2430.70 2691.42 600.39 o
-2 -14 3 1 128.76 3.34 31.89 <
-2 -14 3 2 86.59 -288.65 189.04 <
-1 -14 3 -2 470.69 358.05 220.17 <
-1 -14 3 -1 3505.84 3958.10 705.01 o
-1 -14 3 0 2683.16 2859.21 582.32 o
0 -14 3 -2 21.27 -71.97 90.35 <
0 -14 3 -1 879.09 742.21 170.22 o
0 -14 3 0 4469.97 4243.11 671.45 o
0 -14 3 1 219.99 41.91 73.34 <
0 -14 3 2 95.45 155.49 65.90 <
1 -14 3 -2 223.68 226.25 100.98 <
1 -14 3 -1 275.73 151.54 130.43 <
1 -14 3 0 2601.88 3213.46 320.54 o
1 -14 3 1 39.32 117.38 65.29 <
1 -14 3 2 95.03 32.65 73.34 <
2 -14 3 -2 60.96 9.11 112.82 <
2 -14 3 -1 29.12 -282.58 183.27 <
2 -14 3 0 2119.40 1860.99 437.92 o
2 -14 3 1 378.87 363.82 208.02 <
3 -14 3 -2 167.85 253.58 177.35 <
3 -14 3 -1 146.07 79.41 88.83 <
-4 -13 3 -2 329.09 385.38 258.89 <
-4 -13 3 -1 18.04 -269.98 213.95 <
-4 -13 3 0 2382.07 3741.57 794.75 o
-4 -13 3 1 311.23 370.19 241.13 <
-4 -13 3 2 187.45 412.25 340.58 <
-3 -13 3 -2 1.21 162.78 158.07 <
-3 -13 3 -1 409.06 449.91 257.37 <
-3 -13 3 0 31.47 37.66 76.38 <
-3 -13 3 1 241.95 190.87 170.67 <
-3 -13 3 2 70.06 147.74 143.04 <
-2 -13 3 -2 882.47 541.62 300.35 <
-2 -13 3 -1 252.04 162.78 169.91 <
-2 -13 3 0 25648.50 23146.70 1698.21 o
-2 -13 3 1 69.94 -19.89 57.70 <
-2 -13 3 2 574.55 258.59 157.31 <
-1 -13 3 -2 4.05 57.40 49.20 <
-1 -13 3 -1 1753.56 1410.93 411.49 o
-1 -13 3 0 103.79 292.75 173.40 <
-1 -13 3 1 539.93 211.82 121.63 <
-1 -13 3 2 67.81 116.77 121.78 <
0 -13 3 -2 179.70 294.42 120.41 <
0 -13 3 -1 251.94 338.00 98.39 o
0 -13 3 0 6665.61 7137.39 832.40 o
0 -13 3 1 1383.50 1829.10 231.56 o
0 -13 3 2 468.25 627.26 130.28 o
1 -13 3 -2 85.01 133.32 79.57 <
1 -13 3 -1 74.34 101.89 72.28 <
1 -13 3 0 191.16 297.01 90.04 o
1 -13 3 1 1063.01 1330.91 194.06 o
1 -13 3 2 21.35 6.07 53.30 <
2 -13 3 -2 325.76 160.04 118.59 <
2 -13 3 -1 260.83 172.95 153.06 <
2 -13 3 0 27368.10 27230.90 1565.81 o
2 -13 3 1 3591.94 5357.94 649.43 o
2 -13 3 2 1441.83 1404.25 314.47 o
3 -13 3 -2 147.28 118.13 139.09 <
3 -13 3 -1 16.94 -2.58 26.57 <
3 -13 3 0 36.16 126.94 124.66 <
4 -13 3 -2 245.70 28.39 109.33 <
-4 -12 3 -2 261.98 421.97 313.25 <
-4 -12 3 -1 35.46 -159.59 160.95 <
-4 -12 3 0 270.81 294.42 302.62 <
-4 -12 3 1 198.58 362.75 251.15 <
-4 -12 3 2 148.45 -140.46 148.96 <
-3 -12 3 -2 45.82 -62.41 96.88 <
-3 -12 3 -1 2291.73 2850.40 662.49 o
-3 -12 3 0 11764.40 14464.70 1400.91 o
-3 -12 3 1 190.09 240.98 204.99 <
-3 -12 3 2 189.65 43.58 61.65 <
-2 -12 3 -2 276.13 201.80 124.51 <
-2 -12 3 -1 118.71 326.31 205.90 <
-2 -12 3 0 794.68 1228.41 373.38 o
-2 -12 3 1 146.77 256.61 215.16 <
-2 -12 3 2 96.37 -92.17 131.50 <
-1 -12 3 -2 37.30 -5.16 89.28 <
-1 -12 3 -1 6117.76 5899.41 786.85 o
-1 -12 3 0 36176.30 35841.20 1135.03 o
-1 -12 3 1 77.89 6.68 26.57 <
-1 -12 3 2 94.87 85.03 105.07 <
0 -12 3 -2 30.82 -37.51 52.54 <
0 -12 3 -1 587.09 618.61 154.12 o
0 -12 3 0 417.60 476.48 214.25 <
0 -12 3 1 265.36 402.08 113.12 o
0 -12 3 2 121.54 -58.46 49.65 <
1 -12 3 -2 307.09 184.95 86.55 <
1 -12 3 -1 572.33 567.44 123.90 o
1 -12 3 0 35449.90 36059.60 993.36 o
1 -12 3 1 1171.72 1104.36 173.40 o
1 -12 3 2 243.93 155.34 63.93 <
2 -12 3 -2 69.83 -43.58 66.20 <
2 -12 3 -1 490.72 385.07 103.10 o
2 -12 3 0 590.86 575.33 215.62 <
2 -12 3 1 385.47 507.61 181.76 <
2 -12 3 2 468.39 369.74 174.16 <
3 -12 3 -2 251.37 -26.12 58.46 <
3 -12 3 -1 55.48 -18.98 98.39 <
3 -12 3 0 12359.60 13490.80 1017.50 o
4 -12 3 -2 49.18 74.40 83.67 <
-5 -11 3 2 69.09 3.49 39.63 <
-4 -11 3 -2 30.58 -228.52 186.77 <
-4 -11 3 -1 423.92 231.87 186.16 <
-4 -11 3 0 103.06 131.34 156.85 <
-4 -11 3 1 389.98 -82.91 90.50 <
-4 -11 3 2 26.55 -4.86 92.93 <
-3 -11 3 -2 64.54 44.34 126.33 <
-3 -11 3 -1 53.24 71.21 142.73 <
-3 -11 3 0 545.20 518.09 218.20 <
-3 -11 3 1 82.96 129.22 162.47 <
-3 -11 3 2 48.04 9.26 159.59 <
-2 -11 3 -2 620.34 191.47 147.59 <
-2 -11 3 -1 358.75 188.59 150.32 <
-2 -11 3 0 82.20 47.53 132.41 <
-2 -11 3 1 99.65 78.81 155.18 <
-2 -11 3 2 49.35 -64.53 32.34 <
-1 -11 3 -2 328.86 234.75 127.70 <
-1 -11 3 -1 1392.03 1580.99 390.69 o
-1 -11 3 0 776.33 759.37 159.13 o
-1 -11 3 1 244.38 2.13 80.32 <
-1 -11 3 2 32.37 43.73 57.09 <
0 -11 3 -2 41.00 79.57 71.06 <
0 -11 3 -1 92.03 17.01 43.43 <
0 -11 3 0 2558.86 2944.69 312.64 o
0 -11 3 1 410.87 510.04 129.83 o
0 -11 3 2 67.65 61.34 50.72 <
1 -11 3 -2 7.13 7.29 50.56 <
1 -11 3 -1 637.83 565.62 101.58 o
1 -11 3 0 1033.82 981.67 158.37 o
1 -11 3 1 3716.48 2857.38 561.82 o
1 -11 3 2 47.18 -39.48 73.64 <
2 -11 3 -2 99.54 -116.01 67.27 <
2 -11 3 -1 162.56 48.89 71.97 <
2 -11 3 0 361.28 57.24 52.23 <
2 -11 3 1 1463.86 1659.49 319.33 o
2 -11 3 2 997.12 1102.08 257.98 o
3 -11 3 -2 36.82 -24.75 37.05 <
3 -11 3 -1 442.49 271.65 126.64 <
3 -11 3 0 920.74 886.01 250.39 o
4 -11 3 -2 154.39 -15.49 79.87 <
-5 -10 3 1 45.97 -283.19 219.41 <
-5 -10 3 2 38.00 176.29 171.89 <
-4 -10 3 -2 22.32 -43.58 83.06 <
-4 -10 3 -1 1732.98 2510.42 587.94 o
-4 -10 3 0 1396.67 1150.36 412.41 <
-4 -10 3 1 95.71 229.59 178.42 <
-4 -10 3 2 44.11 -170.98 153.51 <
-3 -10 3 -2 505.95 600.39 275.29 <
-3 -10 3 -1 1113.58 1587.22 450.21 o
-3 -10 3 0 113.76 155.34 134.08 <
-3 -10 3 1 68.46 112.97 142.43 <
-3 -10 3 2 4.03 217.90 175.38 <
-2 -10 3 -2 860.80 683.75 273.62 <
-2 -10 3 -1 2575.79 3407.36 583.99 o
-2 -10 3 0 8914.31 8612.09 911.36 o
-2 -10 3 1 246.93 408.31 198.15 <
-2 -10 3 2 20.85 -5.01 69.24 <
-1 -10 3 -2 337.23 121.93 55.73 <
-1 -10 3 -1 387.92 371.56 176.29 <
-1 -10 3 0 201.62 164.14 92.78 <
-1 -10 3 1 102.16 93.69 84.12 <
-1 -10 3 2 94.55 127.85 58.61 <
0 -10 3 -2 18.74 12.00 50.26 <
0 -10 3 -1 1028.91 1177.85 191.32 o
0 -10 3 0 16278.10 17307.10 713.97 o
0 -10 3 1 148.68 165.81 60.74 <
0 -10 3 2 31.04 36.75 37.51 <
1 -10 3 -2 144.55 52.69 37.05 <
1 -10 3 -1 1346.72 1100.41 129.83 o
1 -10 3 0 108.75 103.71 59.37 <
1 -10 3 1 2281.24 2278.71 303.23 o
1 -10 3 2 490.39 389.63 151.39 <
2 -10 3 -2 109.74 -17.31 102.95 <
2 -10 3 -1 60.76 45.55 55.12 <
2 -10 3 0 9890.46 9517.38 734.47 o
2 -10 3 1 90.68 48.89 116.31 <
2 -10 3 2 736.32 576.85 166.72 o
3 -10 3 -2 102.42 167.79 136.66 <
3 -10 3 -1 62.06 85.03 98.09 <
3 -10 3 0 162.17 274.99 131.50 <
3 -10 3 1 233.54 296.55 140.15 <
4 -10 3 -2 187.49 85.94 106.90 <
4 -10 3 -1 83.60 -23.54 41.30 <
-5 -9 3 1 747.19 178.26 134.84 <
-5 -9 3 2 123.19 -224.12 189.65 <
-4 -9 3 -2 8.98 -50.11 86.85 <
-4 -9 3 -1 987.57 624.68 262.69 <
-4 -9 3 0 139.28 54.97 82.30 <
-4 -9 3 1 457.44 264.05 203.93 <
-4 -9 3 2 102.04 0.46 78.81 <
-3 -9 3 -2 163.26 45.86 105.99 <
-3 -9 3 -1 709.16 653.38 290.32 <
-3 -9 3 0 16603.40 15256.30 1301.14 o
-3 -9 3 1 2877.42 1333.33 399.35 o
-3 -9 3 2 182.11 124.82 153.66 <
-2 -9 3 -2 38.05 -61.04 99.61 <
-2 -9 3 -1 1450.69 1659.95 391.15 o
-2 -9 3 0 146.79 152.45 164.90 <
-2 -9 3 1 2083.30 1420.19 355.77 o
-2 -9 3 2 530.33 277.72 203.77 <
-1 -9 3 -2 59.87 -7.29 38.26 <
-1 -9 3 -1 9394.11 9517.53 495.16 o
-1 -9 3 0 61681.20 58981.70 1351.40 o
-1 -9 3 1 176.24 86.40 38.57 <
-1 -9 3 2 200.69 236.12 76.53 o
0 -9 3 -2 92.17 38.11 38.42 <
0 -9 3 -1 1124.08 1060.93 134.68 o
0 -9 3 0 2216.48 2419.77 255.55 o
0 -9 3 1 2090.36 2044.87 235.21 o
0 -9 3 2 373.05 346.05 103.56 o
1 -9 3 -2 146.28 117.22 49.80 <
1 -9 3 -1 1697.61 1582.51 215.01 o
1 -9 3 0 60841.80 55353.70 2184.57 o
1 -9 3 1 4416.71 4377.18 389.63 o
1 -9 3 2 11.30 -31.74 55.12 <
2 -9 3 -2 101.92 15.64 67.72 <
2 -9 3 -1 70.70 -3.19 22.02 <
2 -9 3 0 87.92 69.09 61.65 <
2 -9 3 1 398.59 421.52 148.81 <
2 -9 3 2 10.23 52.54 51.02 <
3 -9 3 -2 47.57 -4.25 42.52 <
3 -9 3 -1 339.35 189.80 124.06 <
3 -9 3 0 15788.40 14669.60 963.14 o
3 -9 3 1 5195.95 6617.78 657.18 o
4 -9 3 -2 50.20 71.21 101.13 <
4 -9 3 -1 182.64 369.89 170.67 <
-5 -8 3 0 1311.41 1048.33 407.55 <
-5 -8 3 1 73.38 85.64 87.92 <
-5 -8 3 2 135.69 -17.92 58.31 <
-4 -8 3 -2 8.26 7.59 198.76 <
-4 -8 3 -1 1945.23 2894.89 613.14 o
-4 -8 3 0 2614.32 2990.55 619.82 o
-4 -8 3 1 66.73 -17.31 54.66 <
-4 -8 3 2 214.42 241.58 214.86 <
-3 -8 3 -2 101.61 63.01 124.06 <
-3 -8 3 -1 23.31 145.16 131.19 <
-3 -8 3 0 9997.11 10636.30 1047.87 o
-3 -8 3 1 8.60 11.84 122.08 <
-3 -8 3 2 164.23 -54.66 61.95 <
-2 -8 3 -2 861.66 512.02 219.26 <
-2 -8 3 -1 3602.08 4283.19 598.87 o
-2 -8 3 0 17919.30 17660.00 1214.59 o
-2 -8 3 1 104.59 122.69 168.85 <
-2 -8 3 2 372.09 172.34 132.56 <
-1 -8 3 -2 193.44 131.34 79.41 <
-1 -8 3 -1 299.09 333.30 87.31 o
-1 -8 3 0 32185.60 32681.50 968.15 o
-1 -8 3 1 679.18 677.52 122.23 o
-1 -8 3 2 43.25 11.24 23.69 <
0 -8 3 -2 6.74 18.68 43.43 <
0 -8 3 -1 1682.58 1684.55 161.87 o
0 -8 3 0 34992.70 35344.10 939.45 o
0 -8 3 1 188.55 147.74 59.98 <
0 -8 3 2 198.12 110.09 38.87 <
1 -8 3 -2 23.15 -2.28 31.89 <
1 -8 3 -1 143.40 174.92 103.86 <
1 -8 3 0 32741.90 30853.20 1517.82 o
1 -8 3 1 5786.66 6294.66 422.73 o
1 -8 3 2 95.30 96.27 64.99 <
2 -8 3 -2 43.95 -45.86 25.81 <
2 -8 3 -1 140.12 145.01 80.02 <
2 -8 3 0 18876.00 18053.50 885.55 o
2 -8 3 1 53.52 41.60 34.01 <
2 -8 3 2 451.01 136.96 79.26 <
3 -8 3 -2 32.10 53.45 74.10 <
3 -8 3 -1 114.80 -85.18 90.50 <
3 -8 3 0 9640.60 10557.80 787.31 o
3 -8 3 1 1076.04 1997.95 356.22 o
4 -8 3 -2 70.71 48.59 53.90 <
4 -8 3 -1 291.23 10.78 49.50 <
-5 -7 3 0 152.77 113.73 134.08 <
-5 -7 3 1 212.05 140.15 148.20 <
-5 -7 3 2 33.39 97.64 146.83 <
-4 -7 3 -2 82.43 169.91 150.32 <
-4 -7 3 -1 273.64 166.57 194.97 <
-4 -7 3 0 354.70 437.76 255.70 <
-4 -7 3 1 122.71 45.55 70.76 <
-4 -7 3 2 186.45 -22.32 151.84 <
-3 -7 3 -2 35.37 124.51 136.96 <
-3 -7 3 -1 51.81 -1.37 27.79 <
-3 -7 3 0 1304.23 1635.65 410.43 o
-3 -7 3 1 122.48 -37.96 74.86 <
-3 -7 3 2 141.68 -43.88 77.44 <
-2 -7 3 -2 393.42 336.79 178.57 <
-2 -7 3 -1 32.65 -5.47 48.89 <
-2 -7 3 0 5015.81 4617.85 596.44 o
-2 -7 3 1 520.47 357.89 176.90 <
-2 -7 3 2 83.49 11.39 111.15 <
-1 -7 3 -2 28.27 51.47 25.97 <
-1 -7 3 -1 9000.18 9361.28 778.65 o
-1 -7 3 0 2113.83 1913.38 225.03 o
-1 -7 3 1 443.25 422.12 76.38 o
-1 -7 3 2 64.29 0.91 31.58 <
0 -7 3 -2 86.22 66.66 34.62 <
0 -7 3 -1 5.39 32.65 26.12 <
0 -7 3 0 4176.48 3970.55 230.95 o
0 -7 3 1 1514.60 1784.46 186.16 o
0 -7 3 2 37.74 125.27 74.10 <
1 -7 3 -2 142.10 42.36 36.59 <
1 -7 3 -1 99.77 207.11 92.47 <
1 -7 3 0 2158.55 1945.26 343.01 o
1 -7 3 1 14113.30 15668.40 600.39 o
1 -7 3 2 64.42 30.37 38.11 <
2 -7 3 -2 82.82 4.56 43.73 <
2 -7 3 -1 126.07 21.71 32.65 <
2 -7 3 0 4992.35 4849.72 433.82 o
2 -7 3 1 451.51 814.79 175.99 o
2 -7 3 2 280.51 111.61 79.11 <
3 -7 3 -2 181.94 -13.97 43.43 <
3 -7 3 -1 182.13 46.16 68.03 <
3 -7 3 0 1296.13 1309.50 268.76 o
3 -7 3 1 1488.90 2248.80 362.30 o
4 -7 3 -2 36.33 -61.34 68.33 <
4 -7 3 -1 81.39 88.07 82.75 <
4 -7 3 0 389.86 386.90 171.89 <
5 -7 3 -2 78.72 -48.29 117.83 <
-5 -6 3 -1 335.78 18.52 60.59 <
-5 -6 3 0 1321.35 1315.87 453.40 <
-5 -6 3 1 152.91 235.96 226.09 <
-5 -6 3 2 178.54 -116.92 131.80 <
-4 -6 3 -2 1003.01 2090.12 519.91 o
-4 -6 3 -1 435.39 277.72 157.46 <
-4 -6 3 0 473.63 627.72 261.17 <
-4 -6 3 1 366.54 420.61 221.99 <
-4 -6 3 2 154.75 -293.67 181.15 <
-3 -6 3 -2 7.34 82.75 99.76 <
-3 -6 3 -1 514.20 392.36 171.13 <
-3 -6 3 0 10628.30 11034.30 1013.70 o
-3 -6 3 1 315.68 383.10 206.81 <
-3 -6 3 2 278.94 -63.01 42.67 <
-2 -6 3 -2 465.48 220.63 133.32 <
-2 -6 3 -1 1055.73 1114.07 278.02 o
-2 -6 3 0 3402.08 3352.24 492.28 o
-2 -6 3 1 331.90 389.17 155.34 <
-2 -6 3 2 77.26 29.91 35.38 <
-1 -6 3 -2 25.62 90.65 80.32 <
-1 -6 3 -1 4657.88 5272.91 547.55 o
-1 -6 3 0 34515.50 37710.20 649.28 o
-1 -6 3 1 942.58 1023.42 114.49 o
-1 -6 3 2 67.82 3.80 21.56 <
0 -6 3 -2 30.59 -15.94 36.90 <
0 -6 3 -1 561.73 594.01 86.25 o
0 -6 3 0 8339.38 8652.02 284.10 o
0 -6 3 1 39.87 45.25 29.76 <
0 -6 3 2 144.32 74.71 55.88 <
1 -6 3 -2 65.11 -32.65 37.81 <
1 -6 3 -1 267.84 85.79 97.03 <
1 -6 3 0 35586.70 35072.00 846.07 o
1 -6 3 1 7767.16 9234.19 468.44 o
1 -6 3 2 89.29 83.67 49.35 <
2 -6 3 -2 407.38 43.88 46.92 <
2 -6 3 -1 160.37 166.27 64.84 <
2 -6 3 0 3098.82 3036.56 324.79 o
2 -6 3 1 308.24 352.58 118.89 <
2 -6 3 2 457.84 162.47 72.43 <
3 -6 3 -2 211.67 -10.93 43.88 <
3 -6 3 -1 52.30 232.17 106.75 <
3 -6 3 0 11649.90 11055.50 765.29 o
3 -6 3 1 705.72 863.84 216.07 o
3 -6 3 2 93.74 42.21 36.90 <
4 -6 3 -2 73.76 165.66 107.50 <
4 -6 3 -1 208.82 52.99 31.58 <
4 -6 3 0 529.47 366.85 162.02 <
5 -6 3 -2 163.20 58.31 143.95 <
-5 -5 3 -1 452.74 723.53 317.96 <
-5 -5 3 0 319.61 261.02 198.15 <
-5 -5 3 1 423.67 281.67 202.10 <
-5 -5 3 2 6.48 42.97 80.48 <
-4 -5 3 -2 564.08 486.05 268.31 <
-4 -5 3 -1 448.07 802.49 312.04 <
-4 -5 3 0 637.70 750.41 281.36 <
-4 -5 3 1 1374.69 204.84 153.21 <
-4 -5 3 2 5.27 -31.58 95.21 <
-3 -5 3 -2 23.47 -33.71 58.00 <
-3 -5 3 -1 979.93 1417.15 359.41 o
-3 -5 3 0 1541.17 1260.30 324.94 o
-3 -5 3 1 1348.57 867.48 265.27 o
-3 -5 3 2 113.21 60.59 30.37 <
-2 -5 3 -2 2951.08 2551.88 445.51 o
-2 -5 3 -1 256.98 355.92 181.45 <
-2 -5 3 0 17810.10 18947.40 1133.05 o
-2 -5 3 1 2841.74 2790.27 430.93 o
-2 -5 3 2 31.65 -57.55 83.06 <
-1 -5 3 -2 102.07 149.41 115.40 <
-1 -5 3 -1 3127.92 3507.12 427.29 o
-1 -5 3 0 4563.33 4953.43 222.60 o
-1 -5 3 1 2249.36 2262.31 159.89 o
-1 -5 3 2 188.40 44.19 24.45 <
0 -5 3 -2 83.26 2.13 24.45 <
0 -5 3 -1 28.49 15.34 20.95 <
0 -5 3 0 534.95 449.00 64.08 o
0 -5 3 1 609.04 559.39 89.59 o
0 -5 3 2 64.01 117.68 35.38 o
1 -5 3 -2 1.74 2.73 24.90 <
1 -5 3 -1 278.92 18.07 42.82 <
1 -5 3 0 4601.93 4796.12 271.95 o
1 -5 3 1 2902.64 2991.77 231.10 o
1 -5 3 2 66.93 111.45 42.97 <
2 -5 3 -2 71.73 -0.15 32.34 <
2 -5 3 -1 406.33 177.05 79.87 <
2 -5 3 0 16960.90 15950.70 693.32 o
2 -5 3 1 455.08 94.45 47.68 <
2 -5 3 2 1158.26 665.22 148.96 o
3 -5 3 -2 88.58 -87.61 63.62 <
3 -5 3 -1 1024.96 580.34 171.74 o
3 -5 3 0 1219.26 1188.17 238.70 o
3 -5 3 1 130.99 69.85 68.18 <
3 -5 3 2 87.03 120.11 81.84 <
4 -5 3 -2 63.73 142.88 97.94 <
4 -5 3 -1 524.90 334.36 177.05 <
4 -5 3 0 504.82 413.47 191.78 <
5 -5 3 -2 99.05 80.48 77.74 <
-5 -4 3 -1 556.92 813.58 341.19 <
-5 -4 3 0 79.91 -355.46 228.37 <
-5 -4 3 1 14.38 -258.74 192.54 <
-5 -4 3 2 126.44 275.44 195.12 <
-4 -4 3 -2 61.35 37.66 111.91 <
-4 -4 3 -1 109.02 -13.67 46.92 <
-4 -4 3 0 4381.31 4132.56 693.32 o
-4 -4 3 1 15.49 15.79 139.70 <
-4 -4 3 2 122.76 -58.31 101.13 <
-3 -4 3 -2 77.30 -59.83 46.31 <
-3 -4 3 -1 1353.99 1829.25 400.26 o
-3 -4 3 0 1415.32 1234.79 332.08 o
-3 -4 3 1 57.83 1.06 103.56 <
-3 -4 3 2 289.63 -11.39 103.56 <
-2 -4 3 -2 391.93 428.65 200.59 <
-2 -4 3 -1 170.47 157.31 75.47 <
-2 -4 3 0 27017.00 28735.10 1360.06 o
-2 -4 3 1 570.11 492.28 191.47 <
-2 -4 3 2 133.69 15.34 74.40 <
-1 -4 3 -2 147.87 51.17 85.49 <
-1 -4 3 -1 2836.42 3463.09 397.22 o
-1 -4 3 0 7522.42 8223.98 336.18 o
-1 -4 3 1 12.46 19.44 21.87 <
-1 -4 3 2 110.72 60.59 46.46 <
0 -4 3 -2 157.27 163.08 34.92 o
0 -4 3 -1 529.52 600.39 64.38 o
0 -4 3 0 55353.70 54398.60 656.87 o
0 -4 3 1 3370.27 3650.46 238.09 o
0 -4 3 2 195.23 42.21 29.15 <
1 -4 3 -2 6.68 -10.33 51.47 <
1 -4 3 -1 141.07 132.71 37.51 o
1 -4 3 0 8217.56 8692.26 340.58 o
1 -4 3 1 19.91 40.24 22.62 <
1 -4 3 2 69.71 30.37 15.34 <
2 -4 3 -2 23.44 33.10 27.18 <
2 -4 3 -1 740.66 536.31 119.96 o
2 -4 3 0 27664.10 26545.20 849.26 o
2 -4 3 1 2263.09 3051.44 293.67 o
2 -4 3 2 480.04 233.38 87.77 <
3 -4 3 -2 95.57 -35.38 45.55 <
3 -4 3 -1 52.52 -38.11 42.36 <
3 -4 3 0 1988.20 1767.91 288.96 o
3 -4 3 1 377.67 384.16 135.75 <
3 -4 3 2 80.44 170.98 112.06 <
4 -4 3 -2 130.95 28.24 38.57 <
4 -4 3 -1 247.90 10.63 32.04 <
4 -4 3 0 4445.50 4413.93 573.21 o
5 -4 3 -2 91.07 153.06 111.45 <
-5 -3 3 -1 82.81 273.77 205.75 <
-5 -3 3 0 87.08 -84.12 166.88 <
-5 -3 3 1 63.31 331.02 215.92 <
-5 -3 3 2 215.79 -67.57 98.55 <
-4 -3 3 -2 199.58 31.58 76.07 <
-4 -3 3 -1 651.75 1368.71 409.37 o
-4 -3 3 0 3333.84 3135.56 600.54 o
-4 -3 3 1 31.74 56.18 29.76 <
-4 -3 3 2 118.45 42.36 54.36 <
-3 -3 3 -2 26.00 -31.58 64.38 <
-3 -3 3 -1 343.16 533.12 222.45 <
-3 -3 3 0 201.44 176.29 78.50 <
-3 -3 3 1 70.50 -12.30 57.55 <
-3 -3 3 2 203.98 -72.58 101.28 <
-2 -3 3 -2 3225.52 3288.92 471.02 o
-2 -3 3 -1 806.76 1009.45 260.56 o
-2 -3 3 0 7036.57 7869.88 692.10 o
-2 -3 3 1 201.28 258.59 114.94 <
-2 -3 3 2 85.74 64.99 47.98 <
-1 -3 3 -2 36.54 4.40 35.08 <
-1 -3 3 -1 81.75 -37.51 57.24 <
-1 -3 3 0 700.47 725.20 97.48 o
-1 -3 3 1 58.26 35.83 39.18 <
-1 -3 3 2 115.87 168.70 70.30 <
0 -3 3 -2 365.82 290.17 36.59 o
0 -3 3 -1 851.71 924.27 82.75 o
0 -3 3 0 82330.20 79104.20 1194.40 o
0 -3 3 1 1044.17 1039.37 121.93 o
1 -3 3 -2 152.81 70.61 47.68 <
1 -3 3 -1 132.00 170.22 37.81 o
1 -3 3 0 793.47 694.68 75.77 o
1 -3 3 1 71.54 61.34 22.02 <
1 -3 3 2 29.60 30.37 22.62 <
2 -3 3 -2 58.69 103.71 61.65 <
2 -3 3 -1 111.01 262.39 88.83 <
2 -3 3 0 6129.41 6458.35 402.08 o
2 -3 3 1 1333.43 1999.17 237.79 o
2 -3 3 2 1704.69 1480.17 221.99 o
3 -3 3 -2 246.94 36.59 62.86 <
3 -3 3 -1 453.33 448.85 131.04 o
3 -3 3 0 256.14 272.10 114.94 <
3 -3 3 1 131.45 150.48 89.13 <
3 -3 3 2 55.39 11.84 26.42 <
4 -3 3 -2 8.33 58.76 83.97 <
4 -3 3 -1 62.93 105.07 107.05 <
4 -3 3 0 2821.88 2094.37 394.64 o
4 -3 3 1 1096.98 2364.35 425.92 o
5 -3 3 -2 115.97 102.19 37.35 <
5 -3 3 -1 119.55 65.29 114.64 <
-5 -2 3 -1 221.14 -14.43 59.07 <
-5 -2 3 0 36.39 164.14 65.90 <
-5 -2 3 1 182.10 207.11 105.07 <
-5 -2 3 2 49.05 38.11 54.66 <
-4 -2 3 -2 296.42 751.93 295.03 <
-4 -2 3 -1 84.54 -28.70 89.13 <
-4 -2 3 0 1860.57 1741.19 435.64 o
-4 -2 3 1 244.36 33.10 44.49 <
-4 -2 3 2 130.35 115.70 109.48 <
-3 -2 3 -2 403.93 472.84 212.88 <
-3 -2 3 -1 563.98 485.59 174.16 <
-3 -2 3 0 114.83 -69.70 87.46 <
-3 -2 3 1 181.33 383.25 206.20 <
-2 -2 3 -2 2186.32 1274.88 299.28 o
-2 -2 3 -1 93.37 115.40 97.03 <
-2 -2 3 0 8540.24 8845.02 719.59 o
-2 -2 3 1 207.93 -0.30 55.73 <
-2 -2 3 2 199.40 -82.30 55.73 <
-1 -2 3 -2 80.80 109.78 42.06 <
-1 -2 3 -1 2125.36 2628.71 228.07 o
-1 -2 3 0 881.22 815.09 100.98 o
-1 -2 3 1 51.09 39.18 22.32 <
-1 -2 3 2 13.18 14.88 20.95 <
0 -2 3 -2 101.96 61.95 22.47 <
0 -2 3 -1 820.87 931.56 78.20 o
0 -2 3 0 15769.10 17119.70 422.12 o
0 -2 3 1 1882.01 1919.91 165.36 o
0 -2 3 2 133.50 28.70 39.18 <
1 -2 3 -2 37.95 79.26 41.00 <
1 -2 3 0 879.08 849.41 77.59 o
1 -2 3 1 5599.53 6282.36 237.03 o
2 -2 3 -2 31.95 8.35 23.99 <
2 -2 3 -1 1038.23 831.49 136.96 o
2 -2 3 0 9802.24 9075.97 487.87 o
2 -2 3 1 1912.33 2891.40 293.21 o
2 -2 3 2 2218.89 1889.99 256.92 o
3 -2 3 -2 12.94 -113.73 67.72 <
3 -2 3 -1 948.02 426.53 135.14 o
3 -2 3 0 146.50 41.15 35.23 <
3 -2 3 1 205.78 478.91 162.02 <
3 -2 3 2 208.21 320.39 135.14 <
4 -2 3 -2 29.99 184.34 108.11 <
4 -2 3 -1 209.21 118.59 75.16 <
4 -2 3 0 2142.32 2245.91 407.09 o
4 -2 3 1 1072.69 1665.87 369.59 o
5 -2 3 -2 5.69 11.24 37.51 <
5 -2 3 -1 223.87 6.68 89.13 <
-5 -1 3 -1 603.65 519.61 197.09 <
-5 -1 3 0 129.32 225.34 119.35 <
-5 -1 3 1 213.47 87.01 79.41 <
-5 -1 3 2 25.79 -34.62 84.27 <
-4 -1 3 -2 89.05 126.49 124.66 <
-4 -1 3 -1 596.89 357.14 175.38 <
-4 -1 3 0 1076.14 1426.57 398.29 o
-4 -1 3 1 444.46 102.49 105.38 <
-4 -1 3 2 67.54 -60.43 57.09 <
-3 -1 3 -2 68.41 -12.75 66.66 <
-3 -1 3 -1 842.71 201.34 166.12 <
-3 -1 3 0 1301.81 1905.18 398.13 o
-3 -1 3 1 1275.88 782.14 250.69 o
-3 -1 3 2 62.82 -2.89 53.90 <
-2 -1 3 -2 190.56 54.21 67.42 <
-2 -1 3 -1 531.28 667.81 187.68 o
-2 -1 3 0 3528.27 4471.78 504.27 o
-2 -1 3 1 732.35 737.81 196.18 o
-2 -1 3 2 41.17 -6.07 31.89 <
-1 -1 3 -2 114.73 45.40 32.49 <
-1 -1 3 -1 20013.70 23584.40 641.69 o
-1 -1 3 0 1952.78 2128.84 131.19 o
-1 -1 3 1 89.53 54.66 20.04 <
-1 -1 3 2 120.09 23.69 18.52 <
0 -1 3 -2 46.36 22.93 13.82 <
0 -1 3 -1 24.87 26.57 19.59 <
0 -1 3 0 2186.71 2505.87 148.20 o
0 -1 3 1 569.19 724.75 75.01 o
0 -1 3 2 59.64 -5.77 32.95 <
1 -1 3 0 2075.43 2120.19 189.50 o
1 -1 3 1 13409.40 14830.80 534.18 o
1 -1 3 2 298.34 289.87 79.26 o
2 -1 3 -2 248.68 110.85 57.09 <
2 -1 3 -1 1654.16 1297.65 179.02 o
2 -1 3 0 3994.48 4104.17 338.61 o
2 -1 3 1 505.10 565.77 133.93 o
2 -1 3 2 36.20 21.11 39.18 <
3 -1 3 -2 212.79 61.19 54.51 <
3 -1 3 -1 98.03 179.63 99.61 <
3 -1 3 0 1426.91 1819.23 295.79 o
3 -1 3 1 796.47 547.09 174.77 o
3 -1 3 2 86.22 -19.13 41.00 <
4 -1 3 -2 268.92 90.65 111.91 <
4 -1 3 -1 1201.82 755.42 247.05 o
4 -1 3 0 881.03 1430.36 328.89 o
4 -1 3 1 576.75 495.77 229.13 <
5 -1 3 -2 79.38 120.11 106.59 <
5 -1 3 -1 120.69 71.97 68.63 <
-5 0 3 -1 230.50 69.39 134.84 <
-5 0 3 0 31.45 -73.34 96.42 <
-5 0 3 1 20.42 81.69 74.71 <
-5 0 3 2 33.75 53.90 93.54 <
-4 0 3 -2 14.16 111.45 136.20 <
-4 0 3 -1 14.72 -276.20 177.96 <
-4 0 3 0 44.81 -5.16 97.03 <
-4 0 3 1 33.54 -20.04 79.57 <
-4 0 3 2 263.80 -84.73 73.34 <
-3 0 3 -2 21.74 -127.40 105.99 <
-3 0 3 -1 232.79 -33.86 43.88 <
-3 0 3 0 91.13 -97.48 90.95 <
-3 0 3 1 284.67 23.08 54.21 <
-3 0 3 2 91.24 -43.28 42.21 <
-2 0 3 -2 8.49 -1.37 60.89 <
-2 0 3 -1 41.19 81.84 83.67 <
-2 0 3 0 72.64 11.39 46.92 <
-2 0 3 1 18.85 -36.75 53.60 <
-2 0 3 2 206.72 -7.74 28.55 <
-1 0 3 -2 288.10 -25.21 44.79 <
-1 0 3 -1 186.59 33.25 33.10 <
-1 0 3 0 103.58 83.67 35.08 <
-1 0 3 1 214.43 -11.54 24.60 <
-1 0 3 2 3.39 22.47 18.98 <
0 0 3 -2 17.12 -1.82 8.81 <
0 0 3 -1 8.71 25.66 15.64 <
0 0 3 0 59.73 55.88 20.65 <
0 0 3 1 40.92 13.67 19.44 <
0 0 3 2 27.80 57.09 40.69 <
1 0 3 -1 28.46 -7.90 17.16 <
1 0 3 0 43.14 41.60 29.46 <
1 0 3 1 68.86 43.73 32.34 <
1 0 3 2 0.82 20.50 32.80 <
2 0 3 -2 116.01 -2.89 18.22 <
2 0 3 -1 109.26 65.75 47.07 <
2 0 3 0 40.70 -13.21 38.87 <
2 0 3 1 425.73 -11.69 25.36 <
3 0 3 -2 80.37 -21.41 41.15 <
3 0 3 -1 280.12 27.64 79.11 <
3 0 3 0 338.83 29.61 83.67 <
3 0 3 1 0.44 -95.36 74.25 <
3 0 3 2 55.42 59.67 62.26 <
4 0 3 -2 130.85 14.88 51.93 <
4 0 3 -1 8.19 83.21 118.29 <
4 0 3 0 54.84 -6.68 76.07 <
4 0 3 1 117.08 33.86 46.16 <
5 0 3 -2 68.61 -69.09 81.39 <
5 0 3 -1 91.59 -97.94 101.28 <
-5 1 3 -1 549.67 843.64 273.17 o
-5 1 3 0 130.81 200.43 132.26 <
-5 1 3 1 205.63 158.52 107.20 <
-5 1 3 2 26.35 22.62 79.11 <
-4 1 3 -2 96.59 171.13 93.54 <
-4 1 3 -1 576.18 934.59 230.95 o
-4 1 3 0 1072.38 1365.37 276.81 o
-4 1 3 1 426.04 235.66 124.97 <
-4 1 3 2 67.97 -15.94 75.47 <
-3 1 3 -2 66.26 273.77 178.72 <
-3 1 3 -1 912.52 411.49 155.94 <
-3 1 3 0 1268.31 2089.51 281.82 o
-3 1 3 1 1267.49 759.97 168.24 o
-3 1 3 2 63.41 -25.05 73.80 <
-2 1 3 -2 186.74 189.65 86.25 <
-2 1 3 -1 531.06 620.43 139.09 o
-2 1 3 0 3501.13 4406.03 337.40 o
-2 1 3 1 695.76 678.74 130.59 o
-2 1 3 2 38.67 -18.37 27.03 <
-1 1 3 -2 127.39 81.39 48.44 <
-1 1 3 -1 19740.50 23211.80 497.44 o
-1 1 3 0 1903.22 2135.07 149.11 o
-1 1 3 1 90.51 64.23 31.74 <
-1 1 3 2 119.74 46.77 32.04 <
0 1 3 -2 46.01 -3.80 12.00 <
0 1 3 -1 23.01 42.36 19.44 <
0 1 3 0 2174.39 2583.16 156.25 o
0 1 3 1 563.34 720.65 66.51 o
0 1 3 2 55.40 14.43 18.52 <
1 1 3 0 2013.01 2400.34 100.67 o
1 1 3 1 13499.00 14186.40 275.75 o
1 1 3 2 307.64 367.31 48.74 o
2 1 3 -2 253.20 77.74 34.77 <
2 1 3 -1 1650.51 1412.14 206.66 o
3 1 3 -2 221.07 75.92 85.18 <
3 1 3 -1 95.95 56.94 65.14 <
3 1 3 0 1376.15 2253.05 351.36 o
3 1 3 1 786.48 640.02 196.64 o
4 1 3 -2 267.23 10.33 72.73 <
4 1 3 -1 1193.25 920.17 273.17 o
4 1 3 0 897.10 1306.15 327.83 o
5 1 3 -2 82.01 -17.46 29.61 <
5 1 3 -1 113.63 27.48 70.00 <
-5 2 3 -1 212.31 -15.03 45.10 <
-5 2 3 0 36.19 -40.24 43.73 <
-5 2 3 1 186.82 125.12 92.32 <
-5 2 3 2 47.14 109.78 106.29 <
-4 2 3 -2 285.42 532.06 189.96 <
-4 2 3 -1 94.07 24.45 78.35 <
-4 2 3 0 1876.90 2150.55 345.90 o
-4 2 3 1 234.82 53.45 78.35 <
-4 2 3 2 132.15 135.44 83.36 <
-3 2 3 -2 419.08 417.72 139.24 o
-3 2 3 -1 572.67 514.29 154.12 o
-3 2 3 0 122.06 29.15 44.19 <
-3 2 3 1 185.05 258.13 109.33 <
-3 2 3 2 60.76 -12.60 29.46 <
-2 2 3 -2 2194.85 1619.86 230.04 o
-2 2 3 -1 95.31 -11.69 18.22 <
-2 2 3 0 8592.92 9308.59 500.93 o
-2 2 3 1 204.39 6.53 27.94 <
-2 2 3 2 199.11 12.45 29.31 <
-1 2 3 -2 85.14 112.82 36.75 o
-1 2 3 -1 2100.87 2661.96 171.28 o
-1 2 3 0 902.88 804.16 92.47 o
-1 2 3 1 56.97 29.46 23.99 <
-1 2 3 2 14.78 22.17 25.05 <
0 2 3 -2 100.35 66.51 21.71 o
0 2 3 -1 816.62 965.11 91.11 o
0 2 3 0 15863.40 16540.60 433.51 o
0 2 3 1 1890.48 2249.10 128.91 o
0 2 3 2 133.08 25.81 18.22 <
1 2 3 -2 37.89 114.34 78.65 <
1 2 3 0 888.72 906.50 68.33 o
1 2 3 1 5552.09 6482.79 200.13 o
1 2 3 2 12.85 33.10 15.18 <
2 2 3 -2 31.76 12.91 18.98 <
3 2 3 -2 14.22 19.59 42.21 <
3 2 3 -1 940.67 405.42 146.68 <
4 2 3 -2 30.40 -12.00 40.54 <
4 2 3 -1 205.91 72.58 75.31 <
5 2 3 -2 6.02 1.37 54.66 <
-5 3 3 -1 97.23 81.69 83.21 <
-5 3 3 0 85.05 97.79 87.61 <
-5 3 3 1 66.22 104.16 110.69 <
-5 3 3 2 212.06 -16.10 92.62 <
-4 3 3 -2 201.06 131.34 107.50 <
-4 3 3 -1 685.23 1343.81 288.20 o
-4 3 3 0 3393.89 2989.94 407.39 o
-4 3 3 1 31.89 -21.71 57.70 <
-4 3 3 2 120.00 33.71 51.17 <
-3 3 3 -2 23.64 25.97 47.68 <
-3 3 3 -1 361.87 394.49 130.74 o
-3 3 3 0 185.47 189.96 86.70 <
-3 3 3 1 68.65 -5.16 55.12 <
-3 3 3 2 200.35 -21.11 30.67 <
-2 3 3 -2 3177.48 3048.71 319.02 o
-2 3 3 -1 806.99 1236.61 202.86 o
-2 3 3 0 6994.71 7699.06 469.35 o
-2 3 3 1 217.50 331.02 88.83 o
-2 3 3 2 85.83 45.86 29.31 <
-1 3 3 -2 37.93 5.01 42.36 <
-1 3 3 -1 77.73 4.71 22.02 <
-1 3 3 0 680.09 717.00 90.50 o
-1 3 3 1 58.52 10.33 41.15 <
-1 3 3 2 116.07 150.48 54.82 <
0 3 3 -2 359.19 265.73 55.73 o
0 3 3 -1 844.18 1009.61 95.66 o
0 3 3 0 82203.10 77990.00 1070.80 o
0 3 3 1 1051.92 1095.40 94.14 o
0 3 3 2 61.05 68.63 51.02 <
1 3 3 -2 152.67 117.53 34.92 o
1 3 3 -1 128.35 185.86 82.91 <
1 3 3 1 82.35 74.10 43.58 <
1 3 3 2 34.44 1.52 10.17 <
2 3 3 -2 60.24 80.17 47.53 <
4 3 3 -2 6.20 -206.81 123.60 <
-5 4 3 -1 552.34 845.77 271.04 o
-5 4 3 0 78.20 -212.73 127.25 <
-5 4 3 1 12.89 -112.97 91.26 <
-5 4 3 2 129.99 133.32 106.44 <
-4 4 3 -2 52.95 -66.51 89.74 <
-4 4 3 -1 110.09 -1.67 107.96 <
-4 4 3 0 4435.59 4681.32 519.91 o
-4 4 3 1 14.12 94.45 90.35 <
-4 4 3 2 122.12 78.05 89.44 <
-3 4 3 -2 76.47 64.53 89.59 <
-3 4 3 -1 1346.79 2118.36 306.42 o
-3 4 3 0 1401.30 1577.65 257.98 o
-3 4 3 1 53.81 -5.16 45.10 <
-3 4 3 2 297.23 178.87 92.32 <
-2 4 3 -2 401.84 453.86 124.06 o
-2 4 3 -1 174.51 101.28 69.54 <
-2 4 3 0 27082.80 29382.30 947.96 o
-2 4 3 1 563.06 492.88 124.66 o
-2 4 3 2 132.33 -22.93 28.55 <
-1 4 3 -2 139.95 82.60 47.68 <
-1 4 3 -1 2833.59 3415.56 206.51 o
-1 4 3 0 7487.55 8341.35 429.11 o
-1 4 3 1 12.32 19.59 22.78 <
-1 4 3 2 113.04 208.33 59.07 o
0 4 3 -2 157.55 181.91 75.92 <
0 4 3 -1 548.28 621.49 99.46 o
0 4 3 0 55464.60 57261.40 823.14 o
0 4 3 1 3418.02 3529.75 192.38 o
0 4 3 2 187.95 29.00 31.43 <
1 4 3 -2 6.99 -13.36 20.35 <
1 4 3 -1 146.42 123.45 43.73 <
1 4 3 0 8152.75 8517.79 383.25 o
1 4 3 1 14.93 43.73 41.45 <
2 4 3 -2 20.37 7.74 14.43 <
5 4 3 -2 91.32 -88.37 110.39 <
5 4 3 -1 57.41 346.20 240.82 <
5 4 3 0 130.48 336.94 228.83 <
-5 5 3 0 314.93 199.52 128.76 <
-5 5 3 1 423.60 187.98 100.82 <
-5 5 3 2 7.25 118.89 92.02 <
-4 5 3 -2 550.64 766.05 236.12 o
-4 5 3 -1 449.60 500.17 180.39 <
-4 5 3 0 623.21 846.07 230.19 o
-4 5 3 1 1361.20 604.34 182.51 o
-4 5 3 2 5.92 72.58 92.62 <
-3 5 3 -2 23.01 62.71 53.15 <
-3 5 3 -1 994.99 1012.64 213.49 o
-3 5 3 0 1545.73 1317.09 241.89 o
-3 5 3 1 1361.18 823.14 186.92 o
-3 5 3 2 116.97 4.71 35.53 <
-2 5 3 -2 2998.96 2650.27 312.80 o
-2 5 3 -1 269.51 233.84 96.12 <
-2 5 3 0 17752.50 19704.20 805.22 o
-2 5 3 1 2829.58 3320.20 322.82 o
-2 5 3 2 32.25 32.34 31.43 <
-1 5 3 -2 105.76 92.78 52.84 <
-1 5 3 -1 3112.95 3725.02 225.49 o
-1 5 3 0 4579.85 5200.78 362.30 o
-1 5 3 1 2256.58 2360.55 249.02 o
-1 5 3 2 193.81 61.65 48.29 <
0 5 3 -2 88.48 10.78 21.41 <
0 5 3 -1 28.27 85.03 85.79 <
0 5 3 0 507.43 392.36 82.00 o
0 5 3 1 590.91 572.60 92.93 o
0 5 3 2 62.39 156.85 53.60 <
1 5 3 -2 1.85 14.58 30.82 <
1 5 3 -1 276.36 62.71 39.18 <
1 5 3 0 4614.00 5074.90 298.52 o
1 5 3 1 2892.13 3129.64 253.12 o
1 5 3 2 73.87 123.75 53.90 <
2 5 3 -2 74.63 35.08 38.72 <
2 5 3 -1 401.69 308.39 132.56 <
2 5 3 0 16983.30 17710.80 956.76 o
3 5 3 -2 90.74 67.57 92.32 <
4 5 3 -2 69.95 171.28 128.00 <
4 5 3 -1 520.27 420.30 216.83 <
4 5 3 0 488.86 749.50 292.30 <
4 5 3 1 174.42 142.28 141.37 <
4 5 3 2 463.92 854.88 364.42 <
5 5 3 -2 100.30 -89.28 111.76 <
5 5 3 -1 445.67 114.64 131.50 <
5 5 3 0 243.02 298.22 217.29 <
-5 6 3 0 1332.04 1009.15 275.14 o
-5 6 3 1 150.10 -145.62 141.21 <
-5 6 3 2 170.93 130.28 109.63 <
-4 6 3 -2 1022.53 2150.40 393.58 o
-4 6 3 -1 422.98 338.31 143.64 <
-4 6 3 0 483.21 384.77 157.92 <
-4 6 3 1 363.40 501.08 166.72 o
-4 6 3 2 154.49 -124.51 83.82 <
-3 6 3 -2 8.34 106.75 71.06 <
-3 6 3 -1 506.41 527.81 164.29 o
-3 6 3 0 10672.90 11301.80 727.48 o
-3 6 3 1 321.28 280.30 127.09 <
-3 6 3 2 268.17 37.35 73.80 <
-2 6 3 -2 453.22 203.93 88.83 <
-2 6 3 -1 1036.28 1100.56 196.64 o
-2 6 3 0 3427.84 3710.74 362.45 o
-2 6 3 1 329.43 380.97 104.92 o
-2 6 3 2 75.92 46.16 45.70 <
-1 6 3 -2 23.19 -16.55 33.25 <
-1 6 3 -1 4608.07 5384.36 269.07 o
-1 6 3 0 34635.10 35799.30 1635.65 o
-1 6 3 1 930.79 1182.40 316.14 o
-1 6 3 2 64.65 26.72 78.96 <
0 6 3 -2 27.37 41.45 56.64 <
0 6 3 -1 547.35 438.98 140.00 o
0 6 3 0 8369.13 8704.26 472.54 o
0 6 3 1 46.08 32.04 38.42 <
0 6 3 2 141.62 77.44 43.73 <
1 6 3 -2 67.53 38.11 41.00 <
1 6 3 -1 257.53 127.09 57.70 <
1 6 3 0 35644.10 36692.90 778.04 o
1 6 3 1 7667.54 9018.72 434.12 o
1 6 3 2 89.36 -64.08 52.69 <
2 6 3 -2 408.36 29.76 41.76 <
2 6 3 -1 158.29 186.92 104.01 <
2 6 3 0 3083.70 3397.04 440.35 o
2 6 3 1 298.83 325.86 183.88 <
2 6 3 2 461.53 165.96 126.33 <
3 6 3 -2 216.94 102.95 98.24 <
3 6 3 -1 43.22 -5.77 57.09 <
3 6 3 0 11643.50 13229.20 1047.41 o
3 6 3 1 734.82 1070.04 317.81 o
3 6 3 2 84.10 3.34 54.06 <
4 6 3 -2 73.43 -31.28 58.61 <
4 6 3 -1 198.15 403.14 225.34 <
4 6 3 0 502.64 426.83 225.34 <
4 6 3 1 309.78 748.59 313.56 <
4 6 3 2 494.65 1559.43 471.62 o
5 6 3 -2 169.36 -91.56 113.73 <
5 6 3 -1 88.39 26.57 65.29 <
5 6 3 0 1452.60 1801.32 533.73 o
-5 7 3 0 153.15 75.62 113.12 <
-5 7 3 1 224.52 160.35 130.28 <
-5 7 3 2 35.28 -132.41 100.52 <
-4 7 3 -2 81.34 87.16 85.79 <
-4 7 3 -1 279.09 210.91 105.68 <
-4 7 3 0 360.18 273.47 135.29 <
-4 7 3 1 123.88 124.36 77.44 <
-4 7 3 2 181.05 -40.54 71.82 <
-3 7 3 -2 32.26 199.83 98.39 <
-3 7 3 -1 53.90 89.28 57.09 <
-3 7 3 0 1337.51 1491.86 266.03 o
-3 7 3 1 125.31 65.90 78.50 <
-3 7 3 2 147.33 -13.36 78.35 <
-2 7 3 -2 391.02 304.29 142.73 <
-2 7 3 -1 41.12 26.42 42.67 <
-2 7 3 0 4984.36 5279.89 448.09 o
-2 7 3 1 509.89 542.54 227.46 <
-2 7 3 2 80.69 38.11 58.76 <
-1 7 3 -2 30.08 -37.05 44.34 <
-1 7 3 -1 9007.92 10037.60 372.62 o
-1 7 3 0 2114.80 2107.58 422.28 o
-1 7 3 1 451.99 925.79 317.05 <
-1 7 3 2 68.61 76.98 187.83 <
0 7 3 -2 86.72 177.96 98.55 <
0 7 3 -1 2.86 44.49 78.81 <
0 7 3 0 4059.58 4404.97 483.32 o
0 7 3 1 1510.20 1462.40 187.37 o
0 7 3 2 34.93 125.27 56.49 <
1 7 3 -2 134.13 83.36 64.99 <
1 7 3 -1 97.47 144.10 60.59 <
1 7 3 0 2150.58 2027.11 193.45 o
1 7 3 1 14150.80 15964.20 578.83 o
1 7 3 2 71.12 -1.52 13.06 <
2 7 3 -2 83.26 89.74 49.96 <
2 7 3 -1 131.46 -164.75 94.45 <
2 7 3 0 4933.35 5199.87 552.10 o
2 7 3 1 451.42 720.80 216.98 o
2 7 3 2 281.95 119.96 92.62 <
3 7 3 -2 178.82 -41.60 64.99 <
3 7 3 -1 186.99 113.88 126.49 <
3 7 3 0 1298.28 1497.78 360.02 o
3 7 3 1 1403.57 2546.87 486.05 o
3 7 3 2 137.25 352.12 201.34 <
4 7 3 -2 35.94 -1.97 24.45 <
4 7 3 -1 87.76 230.04 159.43 <
4 7 3 0 415.95 528.72 250.85 <
4 7 3 1 28.08 73.64 99.61 <
4 7 3 2 62.47 321.76 213.04 <
5 7 3 -2 77.48 14.12 50.26 <
5 7 3 -1 92.84 91.26 156.25 <
5 7 3 0 37.60 63.47 102.34 <
-5 8 3 1 70.18 30.98 75.47 <
-5 8 3 2 135.62 28.09 69.24 <
-4 8 3 -2 10.32 -105.53 124.06 <
-4 8 3 -1 1935.83 2933.61 630.76 o
-4 8 3 0 2606.76 2828.08 606.01 o
-4 8 3 1 67.67 -13.36 33.86 <
-4 8 3 2 209.99 133.32 101.58 <
-3 8 3 -2 104.50 10.33 86.25 <
-3 8 3 -1 26.24 -128.31 117.68 <
-3 8 3 0 10057.80 10515.40 1057.59 o
-3 8 3 1 10.32 128.16 114.79 <
-3 8 3 2 164.09 -38.72 112.06 <
-2 8 3 -2 852.95 933.99 298.22 o
-2 8 3 -1 3609.49 4582.93 649.74 o
-2 8 3 0 17846.70 17673.20 1294.16 o
-2 8 3 1 107.03 49.50 62.10 <
-2 8 3 2 366.46 172.49 76.07 <
-1 8 3 -2 181.12 110.54 61.80 <
-1 8 3 -1 291.00 368.37 119.35 o
-1 8 3 0 32148.30 35229.30 1876.78 o
-1 8 3 1 665.13 492.73 243.71 <
-1 8 3 2 42.01 181.76 169.76 <
0 8 3 -2 5.27 6.38 55.88 <
0 8 3 -1 1657.98 1612.88 288.65 o
0 8 3 0 34929.80 40045.80 1569.45 o
0 8 3 1 201.40 126.79 52.39 <
0 8 3 2 197.20 122.39 52.23 <
1 8 3 -2 20.42 -67.11 69.54 <
1 8 3 -1 142.14 -5.47 61.65 <
1 8 3 0 32572.60 32271.50 827.24 o
1 8 3 1 5698.98 6218.13 365.49 o
1 8 3 2 95.72 73.34 29.76 <
2 8 3 -2 46.82 -21.87 46.31 <
2 8 3 -1 134.05 42.67 42.36 <
2 8 3 0 18835.90 19168.70 725.66 o
2 8 3 1 50.39 -6.53 58.76 <
2 8 3 2 474.25 218.20 88.68 <
3 8 3 -2 27.19 -3.49 43.88 <
3 8 3 -1 131.49 67.11 126.33 <
3 8 3 0 9652.18 11699.80 1011.88 o
3 8 3 1 1059.19 2043.96 449.91 o
3 8 3 2 73.51 -16.10 115.70 <
4 8 3 -2 72.52 -12.15 41.76 <
4 8 3 -1 291.36 42.06 64.08 <
4 8 3 0 3197.32 3010.29 605.70 o
4 8 3 1 101.54 99.46 116.46 <
4 8 3 2 144.13 463.12 256.77 <
5 8 3 -2 77.53 375.20 230.95 <
5 8 3 -1 64.58 35.83 75.92 <
-5 9 3 1 739.43 484.83 286.07 <
-5 9 3 2 120.44 -282.28 211.82 <
-4 9 3 -2 10.27 -73.19 105.53 <
-4 9 3 -1 1021.19 651.10 290.02 <
-4 9 3 0 136.96 115.55 126.94 <
-4 9 3 1 465.34 284.55 193.30 <
-4 9 3 2 101.70 104.16 178.26 <
-3 9 3 -2 165.56 59.22 67.42 <
-3 9 3 -1 715.94 845.92 332.54 <
-3 9 3 0 16511.30 16351.70 1365.53 o
-3 9 3 1 2911.15 1709.75 441.56 o
-3 9 3 2 179.55 102.95 123.14 <
-2 9 3 -2 40.80 17.16 47.68 <
-2 9 3 -1 1469.96 1468.02 380.97 o
-2 9 3 0 129.29 -55.57 74.10 <
-2 9 3 1 2101.07 1819.84 445.20 o
-2 9 3 2 518.99 270.13 110.09 <
-1 9 3 -2 64.58 35.83 45.86 <
-1 9 3 -1 9369.50 10273.70 1033.44 o
-1 9 3 0 61737.00 57170.30 2573.89 o
-1 9 3 1 158.46 -205.14 162.17 <
-1 9 3 2 197.56 218.81 76.98 <
0 9 3 -2 94.06 -33.86 53.60 <
0 9 3 -1 1118.92 1330.15 282.43 o
0 9 3 0 2222.80 2764.15 439.74 o
0 9 3 1 2054.69 2367.84 395.10 o
0 9 3 2 364.93 344.08 97.18 o
1 9 3 -2 144.95 155.64 83.82 <
1 9 3 -1 1717.59 1135.48 228.22 o
1 9 3 0 60989.30 57727.90 1163.73 o
1 9 3 1 4408.78 4985.01 332.84 o
1 9 3 2 8.85 42.97 33.25 <
2 9 3 -2 104.52 -10.93 27.33 <
2 9 3 -1 68.83 -11.54 23.23 <
2 9 3 0 83.19 65.75 40.09 <
2 9 3 1 382.46 235.21 82.75 <
2 9 3 2 11.45 115.25 62.41 <
3 9 3 -2 45.05 29.15 71.37 <
3 9 3 -1 340.20 293.82 195.42 <
3 9 3 0 15770.90 15433.20 1188.02 o
3 9 3 1 5247.81 6002.36 770.00 o
3 9 3 2 56.45 77.14 92.17 <
4 9 3 -2 51.99 11.54 36.59 <
4 9 3 -1 178.11 18.07 125.12 <
4 9 3 0 35.71 -55.12 84.88 <
4 9 3 1 73.83 -95.51 114.94 <
4 9 3 2 165.16 2.89 30.82 <
5 9 3 -2 9.06 -133.17 138.48 <
5 9 3 -1 386.83 367.92 239.61 <
-5 10 3 2 36.58 -187.83 177.35 <
-4 10 3 -2 28.94 -77.74 112.06 <
-4 10 3 -1 1734.27 2818.66 647.91 o
-4 10 3 0 1386.12 590.67 307.63 <
-4 10 3 1 101.00 62.10 105.23 <
-4 10 3 2 43.52 94.45 114.34 <
-3 10 3 -2 507.57 313.86 184.49 <
-3 10 3 -1 1109.41 1291.73 394.94 o
-3 10 3 0 107.85 214.10 162.17 <
-3 10 3 1 68.75 -15.94 32.80 <
-3 10 3 2 3.72 -115.70 121.17 <
-2 10 3 -2 846.94 932.32 306.88 o
-2 10 3 -1 2594.02 3993.32 675.09 o
-2 10 3 0 8960.31 9487.31 1056.52 o
-2 10 3 1 257.55 342.71 212.73 <
-2 10 3 2 19.15 0.46 141.52 <
-1 10 3 -2 323.58 634.25 261.17 <
-1 10 3 -1 399.98 684.81 270.43 <
-1 10 3 0 206.46 334.66 189.65 <
-1 10 3 1 100.66 -20.35 73.04 <
-1 10 3 2 91.84 29.61 45.25 <
0 10 3 -2 18.40 -4.40 54.82 <
0 10 3 -1 1044.36 1212.62 263.60 o
0 10 3 0 16436.80 20548.50 1211.25 o
0 10 3 1 150.30 118.74 90.50 <
0 10 3 2 33.57 120.71 134.53 <
1 10 3 -2 151.03 52.39 75.92 <
1 10 3 -1 1366.26 783.21 220.78 o
1 10 3 0 113.31 155.94 60.89 <
1 10 3 1 2262.47 2306.04 244.62 o
1 10 3 2 493.51 521.28 113.43 o
2 10 3 -2 108.59 117.98 45.86 <
2 10 3 -1 63.93 69.09 47.07 <
2 10 3 0 9953.79 9268.51 499.26 o
2 10 3 1 99.60 78.96 67.42 <
2 10 3 2 742.69 625.59 150.78 o
3 10 3 -2 104.77 59.83 32.04 <
3 10 3 -1 62.37 -69.24 109.63 <
3 10 3 0 158.42 293.51 162.02 <
3 10 3 1 234.98 314.62 177.66 <
3 10 3 2 185.42 334.97 178.42 <
4 10 3 -2 185.82 -96.42 105.23 <
4 10 3 -1 85.63 55.12 104.01 <
4 10 3 0 1725.02 1405.92 425.92 o
4 10 3 1 129.32 420.15 240.67 <
4 10 3 2 80.85 56.49 94.75 <
5 10 3 -2 28.26 -250.54 193.45 <
5 10 3 -1 19.91 30.98 73.95 <
-4 11 3 -2 27.58 31.13 73.19 <
-4 11 3 -1 409.94 316.74 221.08 <
-4 11 3 0 107.05 179.63 165.05 <
-4 11 3 1 394.05 184.95 180.85 <
-4 11 3 2 25.95 290.02 260.56 <
-3 11 3 -2 66.96 -69.85 98.70 <
-3 11 3 -1 39.08 304.14 199.37 <
-3 11 3 0 547.65 1073.68 376.42 <
-3 11 3 1 81.19 -87.61 146.68 <
-3 11 3 2 45.28 -182.21 160.50 <
-2 11 3 -2 631.52 472.08 235.66 <
-2 11 3 -1 364.14 413.77 254.79 <
-2 11 3 0 92.35 5.62 73.95 <
-2 11 3 1 96.57 71.21 107.35 <
-2 11 3 2 49.63 -100.98 119.96 <
-1 11 3 -2 320.53 216.07 104.47 <
-1 11 3 -1 1412.58 1188.17 392.36 o
-1 11 3 0 753.23 514.60 264.36 <
-1 11 3 1 246.62 71.97 59.83 <
-1 11 3 2 29.63 -21.41 64.53 <
0 11 3 -2 43.62 -26.57 71.06 <
0 11 3 -1 107.40 56.33 97.94 <
0 11 3 0 2517.94 2897.62 486.66 o
0 11 3 1 435.84 531.30 212.12 <
0 11 3 2 72.09 58.92 57.70 <
1 11 3 -2 7.57 104.32 132.41 <
1 11 3 -1 646.70 611.78 205.14 <
1 11 3 0 1012.85 553.16 170.37 o
1 11 3 1 3600.12 3386.86 297.46 o
1 11 3 2 48.11 -13.97 18.37 <
2 11 3 -2 94.83 12.15 103.56 <
2 11 3 -1 164.43 129.07 33.41 o
2 11 3 0 412.68 194.36 119.65 <
2 11 3 1 1450.22 1788.26 383.10 o
2 11 3 2 1004.69 999.43 292.60 o
3 11 3 -2 34.77 10.93 36.59 <
3 11 3 -1 444.28 167.79 90.50 <
3 11 3 0 932.71 1003.99 329.04 o
3 11 3 1 681.96 354.55 192.84 <
3 11 3 2 28.43 105.38 159.74 <
4 11 3 -2 154.50 -200.59 152.60 <
4 11 3 -1 111.47 -9.87 94.14 <
4 11 3 0 247.24 188.59 157.76 <
4 11 3 1 1038.21 2200.51 569.72 o
4 11 3 2 36.90 133.47 143.95 <
5 11 3 -2 11.91 286.68 209.39 <
-4 12 3 -2 258.67 161.87 165.51 <
-4 12 3 -1 31.97 68.79 108.42 <
-4 12 3 0 271.71 593.10 307.63 <
-4 12 3 1 198.27 145.47 153.36 <
-4 12 3 2 147.03 333.30 230.65 <
-3 12 3 -2 45.58 486.66 260.71 <
-3 12 3 -1 2311.26 2246.67 577.61 o
-3 12 3 0 11756.20 14458.20 1453.14 o
-3 12 3 1 193.99 -16.70 57.09 <
-3 12 3 2 193.88 -115.55 134.38 <
-2 12 3 -2 272.86 150.32 77.44 <
-2 12 3 -1 116.83 187.07 145.31 <
-2 12 3 0 801.41 527.66 307.94 <
-2 12 3 1 145.58 -5.62 161.11 <
-2 12 3 2 99.62 184.64 223.82 <
-1 12 3 -2 39.61 63.01 143.34 <
-1 12 3 -1 6169.12 5212.32 880.39 o
-1 12 3 0 36297.30 28574.00 2134.92 o
-1 12 3 1 75.06 -5.62 35.99 <
-1 12 3 2 97.40 30.37 70.76 <
0 12 3 -2 29.55 23.38 96.72 <
0 12 3 -1 567.11 491.67 192.84 <
0 12 3 0 430.55 479.82 191.93 <
0 12 3 1 271.50 371.41 179.18 <
0 12 3 2 127.35 90.65 121.78 <
1 12 3 -2 313.74 -45.70 112.06 <
1 12 3 -1 583.21 659.61 206.05 o
1 12 3 0 35540.90 32796.60 1782.49 o
1 12 3 1 1195.75 929.43 238.85 o
1 12 3 2 238.51 167.18 82.15 <
2 12 3 -2 67.18 23.54 50.56 <
2 12 3 -1 482.25 441.10 200.89 <
2 12 3 0 604.57 280.61 159.89 <
2 12 3 1 400.39 249.02 146.68 <
2 12 3 2 471.67 507.31 235.21 <
3 12 3 -2 254.92 92.93 86.85 <
3 12 3 -1 54.64 41.00 65.44 <
3 12 3 0 12419.80 12539.10 1152.03 o
3 12 3 1 100.05 151.24 129.22 <
3 12 3 2 25.45 -11.84 33.10 <
4 12 3 -2 49.24 -98.39 109.93 <
4 12 3 -1 225.09 256.92 151.08 <
4 12 3 0 161.82 -28.39 66.51 <
4 12 3 1 397.54 334.36 221.08 <
4 12 3 2 119.49 152.30 155.79 <
5 12 3 -2 45.68 -234.45 192.99 <
-4 13 3 -1 19.13 378.09 256.31 <
-4 13 3 0 2375.08 2201.12 613.45 o
-4 13 3 1 312.08 -0.61 30.06 <
-4 13 3 2 186.93 6.38 47.22 <
-3 13 3 -2 1.77 13.97 52.54 <
-3 13 3 -1 405.90 -213.04 182.36 <
-3 13 3 0 30.81 -24.29 66.66 <
-3 13 3 1 250.21 252.06 251.60 <
-3 13 3 2 67.85 -92.78 127.40 <
-2 13 3 -2 896.35 431.99 246.74 <
-2 13 3 -1 229.01 385.53 261.02 <
-2 13 3 0 25707.00 26904.60 2099.38 o
-2 13 3 1 71.01 241.89 162.32 <
-2 13 3 2 569.42 459.93 270.58 <
-1 13 3 -2 3.68 94.75 204.99 <
-1 13 3 -1 1732.22 1822.27 564.25 o
-1 13 3 0 105.16 114.49 93.08 <
-1 13 3 1 546.13 160.35 89.44 <
-1 13 3 2 67.56 136.35 108.11 <
0 13 3 -2 183.84 198.76 121.78 <
0 13 3 -1 246.41 649.74 224.27 <
0 13 3 0 6824.00 7466.43 793.08 o
0 13 3 1 1380.57 2207.19 432.15 o
0 13 3 2 473.81 618.00 235.96 <
1 13 3 -2 85.51 5.62 53.30 <
1 13 3 -1 68.94 129.83 163.54 <
1 13 3 0 194.07 443.23 194.21 <
1 13 3 1 1066.89 893.14 245.07 o
1 13 3 2 22.46 -32.49 58.16 <
2 13 3 -2 335.56 76.83 91.11 <
2 13 3 -1 264.43 28.70 57.09 <
2 13 3 0 27318.90 25201.90 1583.27 o
2 13 3 1 3625.57 4420.91 659.30 o
2 13 3 2 1468.63 1230.23 349.24 o
3 13 3 -2 145.94 -62.41 83.06 <
3 13 3 -1 16.30 11.24 133.47 <
3 13 3 0 38.64 49.20 75.92 <
3 13 3 1 6.32 77.74 97.18 <
3 13 3 2 48.08 -88.22 105.83 <
4 13 3 -2 247.28 -12.91 45.40 <
4 13 3 -1 243.26 336.03 211.82 <
4 13 3 0 2804.06 2920.40 644.57 o
4 13 3 1 1221.42 2150.55 583.23 o
4 13 3 2 254.70 915.61 383.25 <
-4 14 3 0 646.34 426.53 145.92 <
-4 14 3 1 2.44 149.41 167.63 <
-4 14 3 2 31.59 -150.17 169.00 <
-3 14 3 -2 27.14 353.80 242.34 <
-3 14 3 -1 2338.61 3559.05 774.86 o
-3 14 3 0 631.24 536.01 295.03 <
-3 14 3 1 219.18 109.02 102.65 <
-3 14 3 2 70.46 47.07 97.94 <
-2 14 3 -2 101.81 29.61 143.04 <
-2 14 3 -1 499.32 602.67 335.42 <
-2 14 3 0 2424.66 2394.87 646.55 o
-2 14 3 1 133.13 432.15 383.86 <
-2 14 3 2 84.63 76.07 136.66 <
-1 14 3 -2 458.78 373.84 302.77 <
-1 14 3 -1 3442.20 3736.86 853.21 o
-1 14 3 0 2689.78 2757.62 434.58 o
-1 14 3 1 55.34 35.38 74.25 <
-1 14 3 2 54.10 40.54 62.26 <
0 14 3 -2 20.47 101.89 84.58 <
0 14 3 -1 837.41 947.20 289.11 o
0 14 3 0 4465.86 4902.10 652.62 o
0 14 3 1 211.30 -87.77 123.90 <
0 14 3 2 89.22 -87.16 142.58 <
1 14 3 -2 215.56 179.02 120.56 <
1 14 3 -1 261.30 293.51 186.77 <
1 14 3 0 2615.28 2159.36 412.86 o
1 14 3 1 42.80 -38.57 125.73 <
1 14 3 2 92.06 61.19 87.92 <
2 14 3 -2 62.38 22.32 56.94 <
2 14 3 -1 25.43 62.10 37.20 <
2 14 3 0 2112.08 2099.08 470.41 o
2 14 3 1 382.21 241.73 161.87 <
2 14 3 2 47.94 -124.51 117.22 <
3 14 3 -2 165.27 129.22 124.21 <
3 14 3 -1 144.70 30.98 145.77 <
3 14 3 0 574.20 467.83 270.28 <
3 14 3 1 633.20 963.60 354.86 <
3 14 3 2 17.95 -167.48 147.44 <
4 14 3 -2 14.56 -112.82 123.90 <
4 14 3 -1 10.99 18.07 54.21 <
4 14 3 0 481.37 481.19 277.11 <
4 14 3 1 233.11 358.65 237.94 <
-4 15 3 1 111.75 76.23 125.57 <
-4 15 3 2 63.22 -8.20 50.11 <
-3 15 3 -2 2.13 -109.93 142.43 <
-3 15 3 -1 25.40 141.37 163.38 <
-3 15 3 0 145.35 56.18 103.40 <
-3 15 3 1 330.61 -329.35 254.34 <
-3 15 3 2 70.81 -66.96 119.50 <
-2 15 3 -2 908.07 698.48 359.72 <
-2 15 3 -1 487.85 461.30 319.48 <
-2 15 3 0 269.86 122.69 118.44 <
-2 15 3 1 86.83 155.03 180.54 <
-2 15 3 2 176.02 -95.05 142.28 <
-1 15 3 -2 85.51 111.15 177.81 <
-1 15 3 -1 209.85 -71.82 181.30 <
-1 15 3 0 345.77 90.35 91.41 <
-1 15 3 1 143.73 77.14 38.26 <
-1 15 3 2 82.33 2.43 90.80 <
0 15 3 -2 81.64 224.12 194.97 <
0 15 3 -1 312.11 299.28 181.00 <
0 15 3 0 8253.73 9236.77 912.73 o
0 15 3 1 747.20 727.63 246.44 <
0 15 3 2 121.74 138.63 111.45 <
1 15 3 -2 9.06 140.91 172.04 <
1 15 3 -1 96.84 30.06 136.20 <
1 15 3 0 431.81 -38.42 142.73 <
1 15 3 1 412.69 264.21 130.59 <
1 15 3 2 31.63 -54.66 63.93 <
2 15 3 -2 40.65 -110.54 123.30 <
2 15 3 -1 363.45 454.92 253.88 <
2 15 3 0 119.48 124.82 135.44 <
2 15 3 1 854.11 963.29 337.85 <
2 15 3 2 212.98 134.53 172.95 <
3 15 3 -2 2.77 -5.62 35.68 <
3 15 3 -1 234.96 276.51 184.03 <
3 15 3 0 207.03 138.02 121.63 <
3 15 3 1 82.23 394.34 229.59 <
3 15 3 2 35.08 7.59 38.26 <
4 15 3 -2 31.16 360.48 263.75 <
4 15 3 -1 273.66 103.86 126.33 <
4 15 3 0 127.98 62.41 102.04 <
-4 16 3 2 23.49 435.64 308.55 <
-3 16 3 -2 66.96 -186.01 192.23 <
-3 16 3 -1 62.02 -40.24 92.17 <
-3 16 3 0 604.82 498.80 276.51 <
-3 16 3 1 302.55 564.86 348.02 <
-3 16 3 2 32.49 105.53 155.64 <
-2 16 3 -2 389.53 43.73 98.24 <
-2 16 3 -1 2596.25 2047.30 645.64 o
-2 16 3 0 9907.05 8303.54 1334.85 o
-2 16 3 1 57.97 -182.97 201.50 <
-2 16 3 2 39.68 638.65 375.51 <
-1 16 3 -2 25.76 42.52 245.53 <
-1 16 3 -1 556.98 562.88 345.44 <
-1 16 3 0 2989.17 2728.77 467.22 o
-1 16 3 1 398.77 231.87 133.62 <
-1 16 3 2 29.82 -73.64 136.05 <
0 16 3 -2 280.96 377.94 185.55 <
0 16 3 -1 2601.38 2273.85 441.26 o
0 16 3 0 14939.70 18443.90 1299.32 o
0 16 3 1 139.59 160.95 123.30 <
0 16 3 2 48.71 -34.47 126.33 <
1 16 3 -2 73.49 23.99 91.87 <
1 16 3 -1 561.28 543.60 245.99 <
1 16 3 0 3230.25 2350.53 491.52 o
1 16 3 1 588.25 546.33 268.76 <
1 16 3 2 2.52 86.85 95.36 <
2 16 3 -2 190.90 83.67 110.39 <
2 16 3 -1 634.36 -215.92 174.32 <
2 16 3 0 8877.98 8446.28 1069.28 o
2 16 3 1 56.47 134.53 134.38 <
2 16 3 2 650.59 754.21 384.01 <
3 16 3 -2 64.78 -59.52 94.60 <
3 16 3 -1 836.71 627.57 293.97 <
3 16 3 0 772.62 715.94 318.72 <
3 16 3 1 13.89 254.95 193.15 <
3 16 3 2 87.02 -148.81 151.08 <
4 16 3 -2 70.31 98.55 126.33 <
4 16 3 -1 8.20 90.80 123.30 <
4 16 3 0 1996.20 2150.86 597.66 o
-3 17 3 -2 86.21 -46.92 103.86 <
-3 17 3 -1 665.71 475.42 321.30 <
-3 17 3 0 423.20 171.13 197.70 <
-3 17 3 1 25.66 47.07 103.86 <
-3 17 3 2 303.09 261.47 254.79 <
-2 17 3 -2 24.58 -0.76 34.77 <
-2 17 3 -1 52.83 109.18 114.94 <
-2 17 3 0 237.50 177.96 203.17 <
-2 17 3 1 32.69 35.08 150.78 <
-2 17 3 2 48.53 363.97 295.33 <
-1 17 3 -2 198.92 203.17 258.59 <
-1 17 3 -1 1662.30 1256.05 570.93 <
-1 17 3 0 3263.08 3821.89 547.09 o
-1 17 3 1 2238.19 1851.88 418.93 o
-1 17 3 2 596.39 778.96 269.98 <
0 17 3 -2 8.61 2.43 164.90 <
0 17 3 -1 19.53 31.74 121.63 <
0 17 3 0 9.65 -19.59 89.28 <
0 17 3 1 111.55 196.49 148.50 <
0 17 3 2 49.81 -15.34 134.08 <
1 17 3 -2 175.86 246.74 179.93 <
1 17 3 -1 243.79 189.80 140.15 <
1 17 3 0 3935.11 3749.77 621.65 o
1 17 3 1 106.29 254.18 194.21 <
1 17 3 2 128.77 21.11 126.94 <
2 17 3 -2 10.36 14.88 114.64 <
2 17 3 -1 36.21 312.04 220.48 <
2 17 3 0 425.70 554.99 247.96 <
2 17 3 1 23.67 -129.52 139.39 <
2 17 3 2 3.58 -79.72 110.69 <
3 17 3 -2 237.05 -136.81 106.90 <
3 17 3 -1 141.42 -219.72 185.40 <
3 17 3 0 915.48 479.37 286.07 <
3 17 3 1 3448.47 4565.62 865.81 o
3 17 3 2 30.68 8.81 42.52 <
4 17 3 -2 30.04 49.50 93.23 <
4 17 3 -1 8.94 11.84 52.84 <
-3 18 3 -1 112.07 -191.17 214.71 <
-3 18 3 0 151.18 649.89 454.16 <
-3 18 3 1 21.99 69.09 215.92 <
-3 18 3 2 126.11 -286.83 317.96 <
-2 18 3 -2 43.28 -204.23 218.81 <
-2 18 3 -1 857.21 1447.98 627.26 <
-2 18 3 0 532.30 235.66 239.46 <
-2 18 3 1 122.92 194.97 222.15 <
-2 18 3 2 101.38 -95.96 160.35 <
-1 18 3 -2 232.06 240.82 168.39 <
-1 18 3 -1 536.09 598.41 376.42 <
-1 18 3 0 266.24 222.45 157.46 <
-1 18 3 1 12.79 -121.93 107.35 <
-1 18 3 2 31.88 27.94 105.53 <
0 18 3 -2 440.76 223.36 157.31 <
0 18 3 -1 171.50 173.71 141.67 <
0 18 3 0 951.23 711.39 269.98 <
0 18 3 1 471.26 815.55 314.62 <
0 18 3 2 1.90 170.67 132.71 <
1 18 3 -2 3.92 17.61 150.32 <
1 18 3 -1 352.50 562.58 257.22 <
1 18 3 0 88.65 205.14 135.75 <
1 18 3 1 15.09 161.87 146.07 <
1 18 3 2 154.31 199.52 138.18 <
2 18 3 -2 280.87 184.34 138.94 <
2 18 3 -1 37.07 108.42 163.99 <
2 18 3 0 346.95 440.65 288.05 <
2 18 3 1 852.23 939.45 371.56 <
2 18 3 2 15.66 -200.89 180.85 <
3 18 3 -2 8.89 16.70 57.09 <
3 18 3 -1 302.22 90.65 124.82 <
3 18 3 0 34.88 185.10 179.18 <
3 18 3 1 19.99 -136.66 155.18 <
3 18 3 2 11.45 304.14 231.71 <
4 18 3 -2 22.57 -180.85 183.12 <
-3 19 3 2 267.10 -54.82 132.56 <
-2 19 3 -2 36.49 77.74 144.40 <
-2 19 3 -1 126.41 46.01 114.79 <
-2 19 3 0 950.53 1014.01 521.43 <
-2 19 3 1 481.74 -77.14 150.63 <
-2 19 3 2 36.24 12.60 191.93 <
-1 19 3 -2 186.35 89.28 153.51 <
-1 19 3 -1 2899.38 2321.68 741.15 o
-1 19 3 0 6815.46 6533.66 791.71 o
-1 19 3 1 14.10 56.94 44.19 <
-1 19 3 2 643.68 379.00 266.18 <
0 19 3 -2 38.88 -77.74 105.83 <
0 19 3 -1 93.26 333.45 177.05 <
0 19 3 0 1131.73 1285.81 375.66 o
0 19 3 1 588.24 938.24 307.63 o
0 19 3 2 97.46 30.22 93.23 <
1 19 3 -2 70.16 -2.89 72.13 <
1 19 3 -1 51.10 -13.36 68.63 <
1 19 3 0 6884.12 6201.88 841.82 o
1 19 3 1 3100.62 3337.66 629.24 o
1 19 3 2 237.87 245.38 172.95 <
2 19 3 -2 134.35 58.00 107.35 <
2 19 3 -1 186.33 188.59 173.71 <
2 19 3 0 700.92 230.35 205.29 <
2 19 3 1 118.04 157.01 169.61 <
2 19 3 2 29.69 -51.63 99.31 <
3 19 3 -2 92.96 15.79 62.26 <
3 19 3 -1 106.81 -251.45 215.92 <
3 19 3 0 1809.43 901.80 372.93 <
3 19 3 1 206.50 -70.61 116.01 <
3 19 3 2 38.03 460.08 312.19 <
-2 20 3 -2 309.65 765.59 445.81 <
-2 20 3 -1 268.98 378.39 319.93 <
-2 20 3 0 811.58 462.06 356.22 <
-2 20 3 1 152.71 96.57 96.57 <
-2 20 3 2 43.36 -123.14 190.56 <
-1 20 3 -2 148.09 462.97 345.44 <
-1 20 3 -1 2213.84 2399.27 779.72 o
-1 20 3 0 449.88 712.60 486.35 <
-1 20 3 1 49.33 -446.27 333.90 <
-1 20 3 2 26.79 281.52 263.14 <
0 20 3 -2 88.61 252.21 171.74 <
0 20 3 -1 25.40 -29.31 77.14 <
0 20 3 0 2057.63 2789.81 554.08 o
0 20 3 1 21.15 -115.70 170.67 <
0 20 3 2 40.65 17.61 120.11 <
1 20 3 -2 132.90 27.03 145.47 <
1 20 3 -1 655.82 50.72 102.65 <
1 20 3 0 267.46 651.10 270.13 <
1 20 3 1 176.12 327.07 178.11 <
1 20 3 2 4.58 205.44 240.37 <
2 20 3 -2 180.85 230.19 215.01 <
2 20 3 -1 318.00 507.46 313.40 <
2 20 3 0 718.00 763.16 378.39 <
2 20 3 1 112.63 572.90 330.41 <
3 20 3 -2 52.27 -12.30 60.89 <
3 20 3 -1 178.13 -222.91 214.10 <
3 20 3 0 141.97 -103.86 146.98 <
3 20 3 1 14.31 -565.46 338.61 <
-2 21 3 0 180.37 56.18 130.89 <
-2 21 3 1 144.42 305.36 299.89 <
-2 21 3 2 157.30 292.90 289.57 <
-1 21 3 -2 67.38 5.31 64.08 <
-1 21 3 -1 34.92 647.91 410.58 <
-1 21 3 0 286.67 -119.04 176.59 <
-1 21 3 1 942.19 530.08 365.18 <
-1 21 3 2 20.58 399.65 316.90 <
0 21 3 -2 20.85 -59.07 135.29 <
0 21 3 -1 81.74 -30.06 150.48 <
0 21 3 0 4248.44 5084.01 1136.24 o
0 21 3 1 1138.12 636.98 398.13 <
0 21 3 2 193.77 -59.52 127.25 <
1 21 3 -2 59.90 75.47 99.61 <
1 21 3 -1 52.50 161.26 147.90 <
1 21 3 0 384.89 215.62 149.72 <
1 21 3 1 274.08 311.43 288.65 <
1 21 3 2 42.09 102.19 99.31 <
2 21 3 -2 6.46 170.98 223.82 <
2 21 3 -1 119.35 119.50 61.04 <
2 21 3 0 169.32 381.28 278.78 <
3 21 3 -2 22.70 225.64 222.15 <
3 21 3 -1 6.60 90.80 102.19 <
-1 22 3 -2 663.91 666.44 423.19 <
-1 22 3 0 456.53 256.77 182.97 <
-1 22 3 1 50.53 427.89 332.69 <
-1 22 3 2 13.10 240.67 235.36 <
0 22 3 -2 88.79 -27.94 64.84 <
0 22 3 -1 636.32 837.72 454.16 <
0 22 3 0 2736.05 2091.03 718.98 <
0 22 3 1 475.58 811.45 475.73 <
0 22 3 2 20.07 21.26 83.36 <
1 22 3 -2 300.53 372.62 224.73 <
1 22 3 -1 6.18 290.32 186.16 <
1 22 3 0 381.70 371.71 316.44 <
1 22 3 1 272.74 221.08 58.46 o
2 22 3 -2 6.31 200.28 211.97 <
2 22 3 -1 1120.78 691.95 261.63 <
3 22 3 -2 116.44 294.73 261.17 <
0 23 3 -2 33.03 -147.59 192.84 <
0 23 3 -1 332.13 356.98 299.59 <
1 23 3 -2 68.82 106.44 139.70 <
1 23 3 -1 5.13 -48.44 337.85 <
2 23 3 -2 68.43 526.14 342.86 <
-1 -22 4 0 1924.13 2373.76 711.99 o
-1 -22 4 1 614.76 694.53 365.94 <
-1 -22 4 2 131.15 518.09 412.56 <
0 -22 4 -2 50.20 -146.53 178.42 <
0 -22 4 -1 560.19 118.13 161.87 <
0 -22 4 0 9640.48 11341.80 1588.58 o
0 -22 4 1 862.04 1913.68 607.98 o
0 -22 4 2 54.95 -37.51 99.91 <
1 -22 4 -2 33.90 146.07 124.06 <
1 -22 4 -1 388.82 349.09 183.73 <
1 -22 4 0 1991.34 2050.49 456.44 o
1 -22 4 1 449.10 448.39 210.91 <
1 -22 4 2 45.70 66.96 108.26 <
2 -22 4 -2 82.28 92.32 134.08 <
2 -22 4 -1 306.90 242.80 208.94 <
-1 -21 4 -2 1.86 -203.93 200.43 <
-1 -21 4 -1 356.76 444.45 293.97 <
-1 -21 4 0 945.56 221.84 204.84 <
-1 -21 4 1 121.59 124.36 139.70 <
-1 -21 4 2 28.50 -167.94 129.98 <
0 -21 4 -2 125.68 60.59 114.49 <
0 -21 4 -1 693.55 1125.01 464.79 <
0 -21 4 0 572.35 620.28 358.35 <
0 -21 4 1 343.85 470.26 318.26 <
0 -21 4 2 12.59 -127.85 165.66 <
1 -21 4 -2 13.93 -115.86 122.69 <
1 -21 4 -1 18.73 -179.78 132.10 <
1 -21 4 0 689.62 893.75 295.03 o
1 -21 4 1 648.69 587.18 227.76 <
1 -21 4 2 69.04 -49.80 90.19 <
2 -21 4 -2 351.70 374.45 252.67 <
2 -21 4 -1 167.85 -153.51 162.62 <
2 -21 4 0 95.04 -318.42 230.19 <
2 -21 4 1 749.51 1623.66 521.13 o
2 -21 4 2 31.94 18.52 61.50 <
3 -21 4 -2 63.51 -76.07 118.29 <
-2 -20 4 -2 276.27 -21.11 76.98 <
-2 -20 4 -1 59.45 279.09 235.81 <
-2 -20 4 0 371.37 968.76 426.07 <
-2 -20 4 1 259.77 -153.21 169.76 <
-2 -20 4 2 67.03 546.48 337.85 <
-1 -20 4 -2 414.64 -79.26 123.45 <
-1 -20 4 -1 3636.45 4246.29 883.73 o
-1 -20 4 0 6164.13 6670.47 1088.26 o
-1 -20 4 1 496.99 528.72 302.47 <
-1 -20 4 2 83.54 -115.70 196.03 <
0 -20 4 -2 9.79 108.26 238.70 <
0 -20 4 -1 301.36 588.24 332.84 <
0 -20 4 0 39.08 19.13 67.27 <
0 -20 4 1 192.84 -53.45 104.47 <
0 -20 4 2 96.90 32.19 118.29 <
1 -20 4 -2 41.08 -177.96 127.55 <
1 -20 4 -1 1498.65 1505.68 370.04 o
1 -20 4 0 6425.25 7620.25 826.79 o
1 -20 4 1 1647.76 1882.25 406.33 o
1 -20 4 2 62.01 -34.92 76.98 <
2 -20 4 -2 85.83 179.48 122.39 <
2 -20 4 -1 69.23 -80.17 115.86 <
2 -20 4 0 369.26 496.07 275.75 <
2 -20 4 1 30.32 -137.72 146.83 <
2 -20 4 2 173.49 384.01 240.37 <
3 -20 4 -2 87.52 -154.88 162.02 <
3 -20 4 -1 515.29 421.21 261.47 <
3 -20 4 0 2147.32 2679.42 660.67 o
-2 -19 4 -2 47.22 -42.52 155.03 <
-2 -19 4 -1 367.95 288.96 219.72 <
-2 -19 4 0 268.71 263.14 216.98 <
-2 -19 4 1 56.79 -325.10 237.79 <
-2 -19 4 2 22.27 -50.11 96.72 <
-1 -19 4 -2 36.04 258.29 210.61 <
-1 -19 4 -1 1320.39 2242.88 625.14 o
-1 -19 4 0 136.91 70.30 160.35 <
-1 -19 4 1 36.54 -286.38 216.23 <
0 -19 4 -2 3.85 81.54 203.93 <
0 -19 4 -1 1076.79 822.53 381.58 <
0 -19 4 0 119.06 214.71 117.07 <
0 -19 4 1 71.01 -65.90 122.08 <
0 -19 4 2 99.42 123.60 127.85 <
1 -19 4 -2 33.41 214.25 134.23 <
1 -19 4 -1 457.84 728.24 241.28 o
1 -19 4 0 281.57 62.26 133.93 <
1 -19 4 1 522.78 205.90 169.15 <
1 -19 4 2 183.44 -65.60 161.87 <
2 -19 4 -2 83.81 132.26 123.75 <
2 -19 4 -1 573.01 144.86 146.98 <
2 -19 4 0 589.56 157.61 151.54 <
2 -19 4 1 66.71 122.54 133.17 <
2 -19 4 2 696.94 647.76 305.66 <
3 -19 4 0 398.66 260.11 200.43 <
-3 -18 4 -1 1459.60 2345.07 701.21 o
-3 -18 4 0 3607.46 3642.72 846.98 o
-3 -18 4 1 1389.85 1027.07 459.63 <
-3 -18 4 2 118.41 333.75 246.44 <
-2 -18 4 -2 221.90 796.87 382.80 <
-2 -18 4 -1 507.55 1005.81 433.82 <
-2 -18 4 0 1445.45 665.07 440.50 <
-2 -18 4 1 50.48 4.40 138.02 <
-2 -18 4 2 80.42 244.47 227.16 <
-1 -18 4 -2 67.08 112.52 137.42 <
-1 -18 4 -1 24.94 692.71 322.06 <
-1 -18 4 0 9867.35 10996.00 1322.71 o
-1 -18 4 1 3558.02 3471.74 734.92 o
0 -18 4 -1 904.73 1791.75 548.76 o
0 -18 4 0 1528.96 1622.60 358.80 o
0 -18 4 1 86.20 142.58 645.33 <
0 -18 4 2 43.76 80.17 87.16 <
1 -18 4 -2 21.26 -63.32 108.72 <
1 -18 4 -1 2496.48 2350.08 439.28 o
1 -18 4 0 10249.50 9879.07 895.27 o
1 -18 4 1 1321.74 1367.04 331.78 o
1 -18 4 2 12.86 -29.46 93.69 <
2 -18 4 -2 13.04 111.76 143.34 <
2 -18 4 -1 799.33 930.80 346.35 <
2 -18 4 0 1364.32 1388.61 444.45 o
2 -18 4 1 175.99 192.69 160.80 <
2 -18 4 2 360.52 266.03 181.00 <
-3 -17 4 -2 6.59 -179.48 195.57 <
-3 -17 4 -1 211.02 900.43 421.52 <
-3 -17 4 0 857.04 759.67 377.33 <
-3 -17 4 1 63.94 2.43 111.76 <
-3 -17 4 2 30.91 368.98 253.43 <
-2 -17 4 -2 70.71 209.85 192.23 <
-2 -17 4 -1 77.52 443.53 271.34 <
-2 -17 4 0 4304.21 4188.29 820.71 o
-2 -17 4 1 229.99 233.84 224.42 <
-2 -17 4 2 209.11 98.39 126.03 <
-1 -17 4 -2 3.65 -131.04 142.12 <
-1 -17 4 -1 1116.81 1208.37 416.96 <
-1 -17 4 0 815.47 730.06 351.82 <
-1 -17 4 1 68.62 338.46 224.58 <
0 -17 4 -1 15.55 110.54 111.30 <
0 -17 4 0 12031.30 12314.60 943.10 o
0 -17 4 1 544.11 439.43 211.21 <
0 -17 4 2 90.56 79.11 70.46 <
1 -17 4 -2 110.94 61.04 115.70 <
1 -17 4 -1 64.04 121.17 91.26 <
1 -17 4 0 656.41 816.16 249.48 o
1 -17 4 1 1.81 -106.44 152.45 <
1 -17 4 2 61.17 -152.45 129.07 <
2 -17 4 -2 200.32 44.19 87.92 <
2 -17 4 -1 315.86 280.45 154.42 <
2 -17 4 0 4155.69 3276.62 639.56 o
2 -17 4 1 9.51 -40.09 74.10 <
2 -17 4 2 75.30 -9.57 41.15 <
-3 -16 4 -2 21.19 242.80 290.78 <
-3 -16 4 -1 519.63 607.98 336.18 <
-3 -16 4 0 1621.49 1805.57 566.83 o
-3 -16 4 1 1310.45 1008.09 411.80 <
-3 -16 4 2 110.04 73.64 120.11 <
-2 -16 4 -2 261.78 251.30 199.83 <
-2 -16 4 -1 999.85 1798.58 559.09 o
-2 -16 4 0 2716.04 2982.20 674.34 o
-2 -16 4 1 297.88 355.16 226.55 <
-2 -16 4 2 88.78 -45.10 85.18 <
-1 -16 4 -2 167.29 0.91 131.50 <
-1 -16 4 -1 880.42 763.16 348.18 <
-1 -16 4 0 6435.62 6471.86 940.36 o
-1 -16 4 1 1068.51 755.42 358.20 <
0 -16 4 -1 1886.89 2040.47 497.74 o
0 -16 4 0 8774.89 8502.00 756.63 o
0 -16 4 1 678.84 579.28 203.47 <
0 -16 4 2 34.18 104.16 54.36 <
1 -16 4 -2 24.91 15.18 82.91 <
1 -16 4 -1 36.33 -7.90 65.29 <
1 -16 4 0 6310.62 5924.16 650.65 o
1 -16 4 1 1802.23 1952.55 372.62 o
1 -16 4 2 105.37 -55.88 78.20 <
2 -16 4 -2 84.14 -60.13 112.67 <
2 -16 4 -1 346.60 469.35 188.29 <
2 -16 4 0 2960.08 2563.11 543.60 o
2 -16 4 1 732.95 1098.74 361.08 o
2 -16 4 2 415.00 597.66 260.87 <
-4 -15 4 1 41.78 6.53 47.38 <
-4 -15 4 2 30.61 -240.67 213.04 <
-3 -15 4 -2 55.53 221.84 217.29 <
-3 -15 4 -1 75.35 -46.92 93.99 <
-3 -15 4 0 164.77 194.21 181.60 <
-3 -15 4 1 343.29 184.64 152.15 <
-3 -15 4 2 48.35 -69.39 106.29 <
-2 -15 4 -2 47.84 30.37 64.08 <
-2 -15 4 -1 410.24 332.39 210.91 <
-2 -15 4 0 735.52 489.09 248.72 <
-2 -15 4 1 30.50 153.21 105.99 <
-2 -15 4 2 53.38 49.05 46.01 <
-1 -15 4 -2 24.90 9.26 71.82 <
-1 -15 4 -1 250.58 598.72 276.81 <
-1 -15 4 0 860.34 940.06 340.28 <
-1 -15 4 1 84.74 -140.61 134.08 <
0 -15 4 -1 1271.35 1043.47 334.81 o
0 -15 4 0 8254.20 8026.58 606.92 o
0 -15 4 1 499.74 501.84 121.32 o
0 -15 4 2 105.21 134.38 78.05 <
1 -15 4 -2 117.18 -10.78 101.89 <
1 -15 4 -1 654.00 373.38 114.79 o
1 -15 4 0 1150.65 1056.68 194.36 o
1 -15 4 1 2859.24 2958.21 320.08 o
1 -15 4 2 44.06 9.72 38.87 <
2 -15 4 -2 0.99 -6.68 86.70 <
2 -15 4 -1 913.02 860.34 227.31 o
2 -15 4 0 1072.40 732.04 279.39 <
2 -15 4 1 600.33 515.66 234.45 <
2 -15 4 2 194.94 221.39 154.27 <
3 -15 4 -2 178.36 3.95 44.79 <
-4 -14 4 0 743.46 469.50 298.07 <
-4 -14 4 1 869.33 566.07 321.30 <
-4 -14 4 2 88.73 372.17 256.16 <
-3 -14 4 -2 18.28 -48.74 97.48 <
-3 -14 4 -1 93.02 94.14 83.36 <
-3 -14 4 0 440.55 -36.75 82.00 <
-3 -14 4 1 36.14 -84.73 115.10 <
-3 -14 4 2 97.24 -61.19 147.29 <
-2 -14 4 -2 1239.09 734.01 322.97 <
-2 -14 4 -1 1238.44 1879.51 539.50 o
-2 -14 4 0 1290.35 1131.99 399.04 <
-2 -14 4 1 2577.49 1603.31 462.06 o
-2 -14 4 2 197.93 -32.04 67.27 <
-1 -14 4 -2 292.06 390.24 205.90 <
-1 -14 4 -1 231.76 99.91 104.32 <
-1 -14 4 0 882.85 369.43 236.12 <
-1 -14 4 1 255.13 60.59 130.13 <
-1 -14 4 2 93.54 -15.64 43.43 <
0 -14 4 -2 26.97 13.97 40.39 <
0 -14 4 -1 1073.04 1238.74 231.87 o
0 -14 4 0 13993.80 14459.90 797.03 o
0 -14 4 1 3811.42 4376.42 324.64 o
0 -14 4 2 78.78 48.44 50.41 <
1 -14 4 -2 148.06 206.05 137.42 <
1 -14 4 -1 741.38 666.29 151.99 o
1 -14 4 0 869.67 742.06 158.07 o
1 -14 4 1 3345.69 3216.80 319.63 o
1 -14 4 2 38.77 -8.50 42.06 <
2 -14 4 -2 95.53 24.14 62.10 <
2 -14 4 -1 451.04 118.29 104.16 <
2 -14 4 0 1614.38 1807.84 395.25 o
3 -14 4 -2 216.68 -105.83 98.09 <
-4 -13 4 -1 132.09 315.83 293.67 <
-4 -13 4 0 355.91 330.56 243.86 <
-4 -13 4 1 371.58 53.30 74.10 <
-4 -13 4 2 105.07 32.34 180.24 <
-3 -13 4 -2 113.63 -320.54 224.73 <
-3 -13 4 -1 114.38 107.81 131.04 <
-3 -13 4 0 1876.14 2025.13 542.23 o
-3 -13 4 1 239.27 156.55 122.69 <
-3 -13 4 2 265.02 331.47 202.10 <
-2 -13 4 -2 183.66 230.80 198.31 <
-2 -13 4 -1 625.51 655.51 291.54 <
-2 -13 4 0 1238.99 1411.69 436.70 o
-2 -13 4 1 371.04 341.34 181.15 <
-2 -13 4 2 168.35 175.99 148.05 <
-1 -13 4 -2 165.01 -30.06 47.98 <
-1 -13 4 -1 82.80 49.20 48.13 <
-1 -13 4 0 8087.29 7735.95 932.16 o
-1 -13 4 1 83.17 -121.47 99.31 <
-1 -13 4 2 281.56 226.85 95.36 <
0 -13 4 -2 195.06 175.68 104.01 <
0 -13 4 -1 718.26 676.77 168.70 o
0 -13 4 0 126.08 155.94 60.28 <
0 -13 4 1 898.61 754.96 172.65 o
0 -13 4 2 42.04 21.56 75.01 <
1 -13 4 -2 138.71 84.12 51.17 <
1 -13 4 -1 870.14 641.84 133.47 o
1 -13 4 0 8770.64 8737.21 521.73 o
1 -13 4 1 85.42 -24.90 67.11 <
1 -13 4 2 35.15 -68.18 58.31 <
2 -13 4 -2 5.21 -192.08 89.59 <
2 -13 4 -1 16.72 -10.63 41.60 <
2 -13 4 0 382.36 287.89 157.92 <
3 -13 4 -2 198.71 57.55 93.84 <
-4 -12 4 -2 365.09 806.59 370.65 <
-4 -12 4 -1 58.30 211.52 190.41 <
-4 -12 4 0 1118.52 1549.71 517.18 <
-4 -12 4 1 1000.88 583.08 305.81 <
-4 -12 4 2 131.37 -7.90 177.51 <
-3 -12 4 -2 91.53 249.48 147.90 <
-3 -12 4 -1 31.69 410.13 242.19 <
-3 -12 4 0 452.88 445.20 250.39 <
-3 -12 4 1 630.63 741.60 336.94 <
-3 -12 4 2 94.68 -145.47 138.48 <
-2 -12 4 -2 1422.33 964.51 384.01 <
-2 -12 4 -1 1.53 -140.46 130.89 <
-2 -12 4 0 12104.30 11804.90 1172.99 o
-2 -12 4 1 3051.56 2655.59 542.99 o
-2 -12 4 2 107.05 228.37 154.73 <
-1 -12 4 -2 395.10 627.26 250.54 <
-1 -12 4 -1 318.38 356.98 111.00 o
-1 -12 4 0 703.62 633.19 168.70 o
-1 -12 4 1 517.91 519.76 163.99 o
-1 -12 4 2 4.80 -10.48 39.02 <
0 -12 4 -2 13.67 -2.28 45.70 <
0 -12 4 -1 553.22 474.36 105.99 o
0 -12 4 0 4756.56 5123.95 346.35 o
0 -12 4 1 2643.05 2513.00 301.11 o
0 -12 4 2 41.40 22.78 41.30 <
1 -12 4 -2 2.64 26.12 47.38 <
1 -12 4 -1 385.97 297.31 80.48 o
1 -12 4 0 654.86 723.23 129.37 o
1 -12 4 1 2846.37 3154.54 297.76 o
1 -12 4 2 12.83 24.29 47.38 <
2 -12 4 -2 9.50 23.23 54.66 <
2 -12 4 -1 2230.23 2321.99 421.82 o
2 -12 4 0 10860.40 10895.20 829.22 o
3 -12 4 -2 34.69 -24.45 78.81 <
3 -12 4 -1 241.49 730.21 219.87 o
-4 -11 4 -2 20.99 -208.48 185.86 <
-4 -11 4 -1 273.69 212.12 185.40 <
-4 -11 4 0 409.84 197.85 53.15 o
-4 -11 4 1 148.56 280.30 234.29 <
-4 -11 4 2 64.34 360.78 253.88 <
-3 -11 4 -2 11.94 2.73 149.41 <
-3 -11 4 -1 47.53 -184.03 157.16 <
-3 -11 4 0 77.88 72.73 80.78 <
-3 -11 4 1 249.18 -8.81 113.12 <
-3 -11 4 2 36.06 17.61 51.78 <
-2 -11 4 -2 86.17 -58.31 195.27 <
-2 -11 4 -1 309.81 637.59 276.20 <
-2 -11 4 0 226.25 148.35 129.98 <
-2 -11 4 1 271.14 187.53 124.66 <
-2 -11 4 2 46.01 53.90 68.94 <
-1 -11 4 -2 71.94 -54.51 110.85 <
-1 -11 4 -1 4583.96 4554.84 401.17 o
-1 -11 4 0 90.76 85.64 66.20 <
-1 -11 4 1 224.64 122.99 58.61 <
-1 -11 4 2 39.66 23.08 24.60 <
0 -11 4 -2 107.04 192.08 123.14 <
0 -11 4 -1 316.91 325.86 99.91 o
0 -11 4 0 10543.20 11386.40 502.30 o
0 -11 4 1 187.04 348.48 116.16 <
0 -11 4 2 38.48 28.85 53.90 <
1 -11 4 -2 42.17 12.75 36.29 <
1 -11 4 -1 1374.27 988.50 164.29 o
1 -11 4 0 155.77 5.16 35.99 <
1 -11 4 1 1691.13 1154.46 183.27 o
1 -11 4 2 59.85 -50.87 35.68 <
2 -11 4 -2 130.56 22.47 74.10 <
2 -11 4 -1 46.47 88.83 74.71 <
2 -11 4 0 80.31 8.20 39.33 <
2 -11 4 1 67.79 15.49 56.33 <
3 -11 4 -2 101.63 -79.26 68.48 <
3 -11 4 -1 771.44 536.16 186.92 <
-4 -10 4 -2 13.17 -14.58 52.84 <
-4 -10 4 -1 1029.16 1753.48 549.37 o
-4 -10 4 0 45.40 114.03 167.18 <
-4 -10 4 1 319.69 373.53 244.01 <
-4 -10 4 2 78.48 -50.11 153.51 <
-3 -10 4 -2 223.42 181.00 148.20 <
-3 -10 4 -1 1227.44 1825.46 483.77 o
-3 -10 4 0 43.04 170.22 97.33 <
-3 -10 4 1 957.75 600.54 257.68 <
-3 -10 4 2 125.33 195.88 149.41 <
-2 -10 4 -2 19.38 14.58 157.16 <
-2 -10 4 -1 865.67 909.24 306.57 <
-2 -10 4 0 169.80 56.18 144.40 <
-2 -10 4 1 30.90 189.20 135.90 <
-2 -10 4 2 121.54 33.71 39.18 <
-1 -10 4 -2 69.14 200.13 125.73 <
-1 -10 4 -1 3232.28 2982.50 315.99 o
-1 -10 4 0 222.10 104.16 50.72 <
-1 -10 4 1 2463.51 2290.25 249.78 o
-1 -10 4 2 121.48 75.47 55.88 <
0 -10 4 -2 51.33 -10.78 31.74 <
0 -10 4 -1 207.81 77.14 45.40 <
0 -10 4 0 3661.98 3694.95 279.24 o
0 -10 4 1 1925.47 1959.99 250.85 o
0 -10 4 2 118.32 171.43 74.56 <
1 -10 4 -2 74.76 -79.11 60.89 <
1 -10 4 -1 62.07 172.65 75.16 <
1 -10 4 0 159.32 239.15 96.72 <
1 -10 4 1 110.96 124.51 59.37 <
1 -10 4 2 77.56 -11.54 23.99 <
2 -10 4 -2 180.89 95.05 84.27 <
2 -10 4 -1 1447.93 996.55 227.46 o
2 -10 4 0 218.29 272.26 112.52 <
2 -10 4 1 3102.34 3800.79 418.93 o
3 -10 4 -2 295.21 -5.62 29.61 <
3 -10 4 -1 337.14 325.10 140.30 <
-5 -9 4 2 182.47 38.72 120.56 <
-4 -9 4 -2 5.31 25.97 70.61 <
-4 -9 4 -1 158.03 278.78 200.74 <
-4 -9 4 0 182.71 -382.64 231.87 <
-4 -9 4 1 182.71 231.87 154.58 <
-4 -9 4 2 40.97 -416.05 235.21 <
-3 -9 4 -2 45.54 78.05 50.41 <
-3 -9 4 -1 197.50 42.06 182.21 <
-3 -9 4 0 180.72 184.34 143.79 <
-3 -9 4 1 406.57 296.55 169.91 <
-3 -9 4 2 494.28 202.41 151.99 <
-2 -9 4 -2 163.02 -7.74 63.01 <
-2 -9 4 -1 652.54 570.47 244.01 <
-2 -9 4 0 187.14 159.74 122.69 <
-2 -9 4 1 151.29 110.39 126.94 <
-2 -9 4 2 27.22 74.86 57.40 <
-1 -9 4 -2 268.15 405.42 181.45 <
-1 -9 4 -1 425.61 543.90 132.26 o
-1 -9 4 0 1785.91 1728.58 204.23 o
-1 -9 4 1 1085.76 937.48 156.25 o
-1 -9 4 2 570.70 475.42 90.65 o
0 -9 4 -2 89.06 14.27 33.10 <
0 -9 4 -1 1157.51 1343.36 195.73 o
0 -9 4 0 409.38 465.86 114.94 o
0 -9 4 1 381.39 478.00 97.33 o
0 -9 4 2 78.87 -13.82 32.65 <
1 -9 4 -2 228.38 281.06 74.40 o
1 -9 4 -1 1163.15 861.56 175.83 o
1 -9 4 0 2480.73 2299.51 296.25 o
1 -9 4 1 740.62 668.11 119.35 o
1 -9 4 2 16.14 1.82 32.95 <
2 -9 4 -2 129.31 16.85 61.80 <
2 -9 4 -1 2229.63 1923.25 292.75 o
2 -9 4 0 185.57 27.18 54.21 <
2 -9 4 1 62.92 134.38 78.50 <
3 -9 4 -2 48.44 90.65 98.09 <
3 -9 4 -1 634.28 260.56 116.92 <
3 -9 4 0 673.10 720.50 204.23 o
4 -9 4 -2 174.98 107.96 99.00 <
-5 -8 4 1 309.30 220.17 115.70 <
-5 -8 4 2 184.78 97.79 112.52 <
-4 -8 4 -2 12.47 133.32 139.85 <
-4 -8 4 -1 272.32 21.41 61.65 <
-4 -8 4 0 3835.69 3965.99 730.52 o
-4 -8 4 1 1379.62 1127.28 341.04 o
-4 -8 4 2 97.97 -22.02 59.98 <
-3 -8 4 -2 360.49 353.64 186.01 <
-3 -8 4 -1 884.20 668.72 297.01 <
-3 -8 4 0 1586.46 790.49 313.40 <
-3 -8 4 1 1650.16 1479.41 395.10 o
-3 -8 4 2 200.04 -15.49 68.79 <
-2 -8 4 -2 299.74 78.81 103.86 <
-2 -8 4 -1 244.76 1.82 30.82 <
-2 -8 4 0 25191.50 25839.80 1493.98 o
-2 -8 4 1 2258.73 1804.81 401.32 o
-2 -8 4 2 36.63 3.64 50.11 <
-1 -8 4 -2 211.99 118.74 74.71 <
-1 -8 4 -1 13395.10 15203.80 680.56 o
-1 -8 4 0 7714.55 7069.82 402.08 o
-1 -8 4 1 1209.80 992.60 125.27 o
-1 -8 4 2 13.55 -29.61 27.94 <
0 -8 4 -2 46.91 15.03 31.28 <
0 -8 4 -1 12.52 55.88 31.13 <
0 -8 4 0 39837.50 41360.60 812.06 o
0 -8 4 1 1452.56 1384.20 178.11 o
0 -8 4 2 316.94 205.90 97.48 <
1 -8 4 -2 13.25 -23.99 35.38 <
1 -8 4 -1 2578.63 2297.54 272.86 o
1 -8 4 0 7531.59 7153.64 490.30 o
1 -8 4 1 2659.71 2907.49 224.88 o
1 -8 4 2 31.36 5.31 24.45 <
2 -8 4 -2 100.45 -9.87 30.82 <
2 -8 4 -1 78.74 111.76 54.66 <
2 -8 4 0 26491.00 27217.00 995.48 o
2 -8 4 1 151.02 193.60 84.27 <
2 -8 4 2 2148.01 1852.49 254.64 o
3 -8 4 -2 33.10 25.05 71.82 <
3 -8 4 -1 4192.98 3299.40 411.49 o
3 -8 4 0 1232.54 582.47 178.57 o
4 -8 4 -2 222.09 -2.28 22.32 <
-5 -7 4 1 103.15 -123.75 142.28 <
-5 -7 4 2 101.43 155.79 156.55 <
-4 -7 4 -2 17.60 -17.16 84.73 <
-4 -7 4 -1 198.76 -81.24 107.35 <
-4 -7 4 0 567.45 292.75 216.23 <
-4 -7 4 1 373.76 642.30 283.34 <
-4 -7 4 2 28.81 -215.77 162.62 <
-3 -7 4 -2 3.17 -0.76 70.46 <
-3 -7 4 -1 629.70 695.74 276.36 <
-3 -7 4 0 7857.92 8533.13 947.50 o
-3 -7 4 1 320.65 18.52 84.58 <
-3 -7 4 2 242.84 492.58 229.59 <
-2 -7 4 -2 54.71 -16.10 61.80 <
-2 -7 4 -1 480.74 621.19 239.61 <
-2 -7 4 0 7795.82 7863.20 805.38 o
-2 -7 4 1 535.34 783.05 259.04 o
-2 -7 4 2 40.95 0.91 37.66 <
-1 -7 4 -2 168.85 183.43 68.94 <
-1 -7 4 -1 9626.76 11382.20 571.23 o
-1 -7 4 0 23975.40 24041.00 596.29 o
-1 -7 4 1 102.30 75.62 40.69 <
-1 -7 4 2 285.19 186.31 58.16 o
0 -7 4 -2 43.78 66.81 38.42 <
0 -7 4 -1 2003.91 2108.65 179.93 o
0 -7 4 0 273.20 373.08 76.53 o
0 -7 4 1 98.55 173.71 106.14 <
0 -7 4 2 126.10 141.21 51.63 <
1 -7 4 -2 86.17 -13.06 48.59 <
1 -7 4 -1 773.08 521.43 118.29 o
1 -7 4 0 23188.30 22299.40 596.90 o
1 -7 4 1 3644.17 3631.78 224.88 o
1 -7 4 2 142.92 111.15 47.38 <
2 -7 4 -2 200.34 39.18 25.51 <
2 -7 4 -1 799.87 580.04 136.66 o
2 -7 4 0 7265.31 8253.59 508.67 o
2 -7 4 1 153.49 62.41 43.58 <
2 -7 4 2 1988.18 2317.58 263.45 o
3 -7 4 -2 118.46 64.53 45.70 <
3 -7 4 -1 41.08 23.99 64.23 <
3 -7 4 0 7274.66 8017.62 622.71 o
4 -7 4 -2 269.38 -22.47 68.48 <
-5 -6 4 0 273.50 106.29 133.62 <
-5 -6 4 1 656.76 345.90 232.62 <
-5 -6 4 2 71.80 28.09 53.60 <
-4 -6 4 -2 408.58 1258.32 409.52 o
-4 -6 4 -1 144.74 160.35 65.14 <
-4 -6 4 0 219.15 46.16 59.67 <
-4 -6 4 1 708.15 377.48 206.05 <
-4 -6 4 2 129.06 68.33 81.84 <
-3 -6 4 -2 183.48 394.94 192.84 <
-3 -6 4 -1 1445.01 1777.32 422.73 o
-3 -6 4 0 4903.66 5480.63 730.21 o
-3 -6 4 1 838.94 487.72 228.37 <
-3 -6 4 2 10.60 87.31 77.44 <
-2 -6 4 -2 1805.49 1129.26 307.03 o
-2 -6 4 -1 161.64 249.02 126.79 <
-2 -6 4 0 276.01 194.66 104.32 <
-2 -6 4 1 928.78 542.08 216.07 <
-2 -6 4 2 100.57 15.79 54.06 <
-1 -6 4 -2 129.05 -8.20 49.50 <
-1 -6 4 -1 2460.90 2775.69 224.58 o
-1 -6 4 0 22719.70 23467.40 554.99 o
-1 -6 4 1 225.31 243.40 61.95 o
-1 -6 4 2 242.93 230.80 78.50 <
0 -6 4 -2 32.98 4.25 22.47 <
0 -6 4 -1 934.16 728.85 99.46 o
0 -6 4 0 3104.11 3202.52 191.78 o
0 -6 4 1 1258.27 1105.42 158.22 o
0 -6 4 2 36.88 9.57 39.93 <
1 -6 4 -2 16.54 21.87 48.44 <
1 -6 4 -1 660.19 545.27 119.20 o
1 -6 4 0 22423.80 21925.40 524.92 o
1 -6 4 1 7883.98 7998.34 327.22 o
1 -6 4 2 42.39 28.09 24.29 <
2 -6 4 -2 210.23 42.52 37.96 <
2 -6 4 -1 616.30 417.87 107.20 o
2 -6 4 0 340.72 258.13 81.84 o
2 -6 4 1 365.01 354.86 95.51 o
2 -6 4 2 31.96 7.74 17.01 <
3 -6 4 -2 48.68 49.96 50.41 <
3 -6 4 -1 2069.77 1418.52 248.26 o
3 -6 4 0 4640.16 5839.43 512.47 o
4 -6 4 -2 144.78 53.30 95.05 <
4 -6 4 -1 122.80 99.15 82.00 <
-5 -5 4 0 497.57 467.83 271.80 <
-5 -5 4 1 11.78 -125.88 140.91 <
-5 -5 4 2 38.00 115.10 89.13 <
-4 -5 4 -2 0.02 -10.63 62.26 <
-4 -5 4 -1 375.34 1119.08 383.10 <
-4 -5 4 0 678.11 782.14 269.83 <
-4 -5 4 1 4.22 11.84 75.77 <
-4 -5 4 2 67.80 -225.34 161.71 <
-3 -5 4 -2 19.88 -47.98 99.15 <
-3 -5 4 -1 493.54 761.34 274.38 <
-3 -5 4 0 4164.74 3514.71 577.31 o
-3 -5 4 1 31.71 -8.35 24.60 <
-3 -5 4 2 168.18 -59.22 80.78 <
-2 -5 4 -2 81.37 54.97 88.37 <
-2 -5 4 -1 23.36 197.24 147.29 <
-2 -5 4 0 4910.11 5120.76 605.55 o
-2 -5 4 1 41.94 -19.74 97.79 <
-2 -5 4 2 242.28 114.34 54.97 <
-1 -5 4 -2 12.52 45.25 60.89 <
-1 -5 4 -1 3795.64 4469.05 274.38 o
-1 -5 4 0 11447.80 11653.80 373.84 o
-1 -5 4 1 101.52 120.56 41.91 <
-1 -5 4 2 134.41 82.00 53.15 <
0 -5 4 -2 220.79 194.06 46.92 o
0 -5 4 -1 1131.29 1114.98 106.14 o
0 -5 4 0 3289.75 3882.17 289.26 o
0 -5 4 1 1375.64 1587.37 191.47 o
0 -5 4 2 132.79 124.06 60.13 <
1 -5 4 -2 66.41 1.52 42.82 <
1 -5 4 -1 1823.06 1770.34 190.56 o
1 -5 4 0 11452.50 10903.70 319.93 o
1 -5 4 1 245.24 141.97 37.66 o
1 -5 4 2 178.95 168.70 72.88 <
2 -5 4 -2 124.99 162.32 67.42 <
2 -5 4 -1 2287.89 1904.87 214.71 o
2 -5 4 0 5715.86 5754.40 363.21 o
2 -5 4 1 1341.37 1428.24 187.22 o
2 -5 4 2 373.86 186.31 74.86 <
3 -5 4 -2 68.52 82.91 37.81 <
3 -5 4 -1 1100.84 1022.97 200.13 o
3 -5 4 0 3998.31 3602.78 395.10 o
3 -5 4 1 667.38 1256.50 243.10 o
4 -5 4 -2 9.63 16.85 36.14 <
4 -5 4 -1 1086.30 554.38 209.39 <
-5 -4 4 0 1999.73 1569.60 488.93 o
-5 -4 4 1 1207.63 416.66 244.16 <
-5 -4 4 2 30.64 15.03 44.95 <
-4 -4 4 -2 1314.00 1026.61 391.76 <
-4 -4 4 -1 103.21 -127.85 128.31 <
-4 -4 4 0 1839.30 1677.72 474.66 o
-4 -4 4 1 61.60 6.98 118.59 <
-4 -4 4 2 232.28 -143.64 127.40 <
-3 -4 4 -2 44.29 -21.26 81.69 <
-3 -4 4 -1 1541.86 1389.67 372.17 o
-3 -4 4 0 20992.90 22122.20 1429.30 o
-3 -4 4 1 4185.80 3982.85 602.06 o
-3 -4 4 2 24.90 -55.12 71.97 <
-2 -4 4 -2 4754.92 3982.39 553.92 o
-2 -4 4 -1 233.66 121.93 129.07 <
-2 -4 4 0 1734.24 1482.44 320.08 o
-2 -4 4 1 54.84 70.00 58.31 <
-2 -4 4 2 17.16 64.53 39.48 <
-1 -4 4 -2 47.78 193.15 97.64 <
-1 -4 4 -1 4261.15 4763.32 275.60 o
-1 -4 4 0 71542.20 70645.60 1106.48 o
-1 -4 4 1 2041.76 1998.41 126.79 o
-1 -4 4 2 21.40 39.63 33.86 <
0 -4 4 -2 39.35 27.33 25.05 <
0 -4 4 -1 390.22 441.86 77.44 o
0 -4 4 0 31298.10 29644.20 757.55 o
0 -4 4 1 1510.82 1336.52 155.49 o
0 -4 4 2 23.89 13.06 12.75 <
1 -4 4 -2 79.43 21.71 13.06 <
1 -4 4 -1 310.15 337.09 52.99 o
1 -4 4 0 73762.20 72163.90 976.66 o
1 -4 4 1 2653.47 2901.57 263.75 o
1 -4 4 2 135.33 162.62 65.14 <
2 -4 4 -2 23.87 -25.81 30.98 <
2 -4 4 -1 2979.67 3159.86 249.93 o
2 -4 4 0 1506.21 1302.51 164.29 o
2 -4 4 1 1641.47 1904.42 216.23 o
2 -4 4 2 12.92 42.36 28.70 <
3 -4 4 -2 318.49 -32.49 33.10 <
3 -4 4 -1 5.38 -117.53 67.87 <
3 -4 4 0 23201.40 22656.40 992.90 o
3 -4 4 1 1746.42 2552.18 352.73 o
4 -4 4 -2 89.23 29.00 57.70 <
4 -4 4 -1 1412.68 1510.99 323.12 o
-5 -3 4 -1 331.24 494.86 259.20 <
-5 -3 4 0 262.17 -16.85 114.49 <
-5 -3 4 1 381.16 183.12 126.79 <
-5 -3 4 2 19.85 -154.27 83.82 <
-4 -3 4 -2 13.63 215.01 169.00 <
-4 -3 4 -1 1381.33 1310.71 410.58 o
-4 -3 4 0 3068.91 2629.01 555.90 o
-4 -3 4 2 338.84 -23.38 56.49 <
-3 -3 4 -2 48.14 126.49 135.90 <
-3 -3 4 -1 282.01 352.12 195.42 <
-3 -3 4 0 1323.33 1382.08 356.38 o
-3 -3 4 1 1671.78 1210.04 326.16 o
-3 -3 4 2 71.00 100.22 93.54 <
-2 -3 4 -2 122.81 150.93 132.41 <
-2 -3 4 -1 2560.56 2714.50 431.08 o
-2 -3 4 0 9492.71 11550.00 849.26 o
-2 -3 4 1 195.96 68.18 48.74 <
-2 -3 4 2 416.89 264.81 73.49 o
-1 -3 4 -2 56.30 -54.51 82.91 <
-1 -3 4 -1 6841.23 7830.40 346.81 o
-1 -3 4 0 4779.66 4834.08 282.43 o
-1 -3 4 1 740.23 788.67 92.93 o
-1 -3 4 2 3.29 30.37 32.19 <
0 -3 4 -2 107.19 59.52 38.26 <
0 -3 4 -1 2364.24 2609.88 181.91 o
0 -3 4 0 60946.40 59740.30 849.87 o
0 -3 4 1 452.39 443.38 84.27 o
0 -3 4 2 189.42 285.46 181.45 <
1 -3 4 -2 15.67 14.88 25.81 <
1 -3 4 -1 711.12 676.01 85.49 o
1 -3 4 0 4297.12 4466.92 282.58 o
1 -3 4 1 6750.73 7457.17 362.75 o
1 -3 4 2 294.06 205.29 59.37 o
2 -3 4 -2 62.57 33.10 31.43 <
2 -3 4 -1 75.88 5.31 15.18 <
2 -3 4 0 9048.53 9704.90 460.39 o
2 -3 4 1 2026.58 2232.40 238.09 o
2 -3 4 2 584.54 292.75 104.16 <
3 -3 4 -2 101.05 -12.00 22.47 <
3 -3 4 -1 407.97 158.07 80.63 <
3 -3 4 0 1138.08 671.75 172.19 o
3 -3 4 1 1041.09 743.73 185.55 o
4 -3 4 -2 76.66 18.22 35.68 <
4 -3 4 -1 271.27 243.56 134.99 <
-5 -2 4 -1 556.04 526.14 270.28 <
-5 -2 4 0 649.50 442.77 178.72 <
-5 -2 4 1 810.84 909.69 241.73 o
-5 -2 4 2 240.43 6.53 56.79 <
-4 -2 4 -1 1157.91 1694.11 463.58 o
-4 -2 4 0 5029.70 4718.22 736.29 o
-4 -2 4 1 1584.53 1215.35 252.82 o
-4 -2 4 2 114.19 48.59 44.64 <
-3 -2 4 -2 72.78 189.96 150.48 <
-3 -2 4 -1 247.71 30.82 77.90 <
-3 -2 4 0 5791.69 6507.85 758.91 o
-3 -2 4 1 1258.34 1352.32 330.11 o
-3 -2 4 2 183.88 30.67 59.83 <
-2 -2 4 -2 1642.83 1254.38 294.42 o
-2 -2 4 -1 1262.88 2185.02 399.80 o
-2 -2 4 0 22603.00 23668.40 1218.39 o
-2 -2 4 1 2219.12 2015.72 186.46 o
-2 -2 4 2 42.06 17.92 31.13 <
-1 -2 4 -2 178.97 146.23 68.94 <
-1 -2 4 -1 5742.60 6507.54 379.61 o
-1 -2 4 0 15970.90 16572.80 408.61 o
-1 -2 4 1 2273.65 2355.69 179.02 o
-1 -2 4 2 20.53 7.29 36.59 <
0 -2 4 -2 276.59 218.81 43.73 o
0 -2 4 -1 6.93 -8.66 24.90 <
0 -2 4 0 86349.20 81340.70 957.22 o
0 -2 4 1 223.40 191.32 60.13 o
0 -2 4 2 87.52 91.56 43.28 <
1 -2 4 -2 90.78 82.15 80.48 <
1 -2 4 -1 130.80 112.52 35.38 o
1 -2 4 0 15144.40 16038.00 420.30 o
1 -2 4 1 558.15 410.74 66.66 o
1 -2 4 2 262.85 60.43 27.18 <
2 -2 4 -2 113.10 54.51 33.71 <
2 -2 4 -1 1435.67 1034.81 144.86 o
2 -2 4 0 22191.10 23384.80 744.34 o
2 -2 4 1 375.64 439.28 119.35 o
3 -2 4 -2 211.06 129.67 90.65 <
3 -2 4 -1 252.01 64.84 47.68 <
3 -2 4 0 5282.97 6920.40 566.07 o
3 -2 4 1 140.79 315.99 128.16 <
4 -2 4 -2 138.14 42.67 58.16 <
4 -2 4 -1 1376.77 1208.67 297.92 o
4 -2 4 0 4469.96 4987.90 603.27 o
5 -2 4 -2 95.14 -95.66 93.84 <
-5 -1 4 -1 791.28 1279.58 427.74 <
-5 -1 4 0 32.82 95.66 114.19 <
-5 -1 4 1 94.62 211.52 137.27 <
-5 -1 4 2 51.99 72.28 67.27 <
-4 -1 4 -2 104.23 85.79 71.06 <
-4 -1 4 -1 567.63 857.91 226.25 o
-4 -1 4 0 360.62 273.32 110.09 <
-4 -1 4 1 418.03 117.22 75.01 <
-4 -1 4 2 140.43 -39.33 79.41 <
-3 -1 4 -2 1.16 47.22 87.77 <
-3 -1 4 -1 928.66 998.82 303.69 o
-3 -1 4 0 306.40 192.08 75.62 <
-3 -1 4 1 174.68 17.31 41.76 <
-3 -1 4 2 145.82 29.61 46.77 <
-2 -1 4 -2 2.31 43.28 53.15 <
-2 -1 4 -1 1114.42 984.25 264.36 o
-2 -1 4 0 306.10 424.10 102.34 o
-2 -1 4 1 848.95 705.77 105.07 o
-2 -1 4 2 185.79 126.79 53.45 <
-1 -1 4 -2 16.93 36.44 32.04 <
-1 -1 4 -1 3738.46 3840.11 216.07 o
-1 -1 4 0 897.33 937.48 94.75 o
-1 -1 4 1 335.98 292.90 51.47 o
-1 -1 4 2 65.53 20.04 33.25 <
0 -1 4 -2 33.00 10.48 16.40 <
0 -1 4 -1 2240.69 2424.48 122.84 o
0 -1 4 0 12201.90 13554.00 380.52 o
0 -1 4 1 89.21 20.04 34.47 <
0 -1 4 2 8.84 74.86 66.96 <
1 -1 4 -2 0.59 -58.76 42.36 <
1 -1 4 1 363.54 414.84 89.44 o
1 -1 4 2 45.46 42.67 29.15 <
2 -1 4 -2 5.23 0.30 13.82 <
2 -1 4 -1 927.00 651.10 121.63 o
3 -1 4 -2 30.26 -10.33 27.94 <
3 -1 4 -1 1418.30 1261.06 234.60 o
3 -1 4 0 558.60 269.07 112.21 <
3 -1 4 1 2911.56 3883.84 465.40 o
4 -1 4 -2 71.88 -0.61 65.75 <
4 -1 4 -1 247.42 68.94 88.37 <
4 -1 4 0 441.60 149.57 64.99 <
5 -1 4 -2 26.37 -105.23 99.46 <
-5 0 4 -1 48.91 174.16 159.13 <
-5 0 4 0 923.66 708.50 233.99 o
-5 0 4 1 19.45 291.69 169.30 <
-5 0 4 2 287.17 82.60 110.54 <
-4 0 4 -2 23.30 -207.87 115.10 <
-4 0 4 -1 2086.83 2569.03 386.59 o
-4 0 4 0 8664.84 7886.28 661.28 o
-4 0 4 1 3402.41 2385.15 358.50 o
-4 0 4 2 0.25 13.06 55.73 <
-3 0 4 -2 510.11 217.14 164.75 <
-3 0 4 -1 3488.10 4467.38 433.36 o
-3 0 4 0 8167.81 11539.90 679.50 o
-3 0 4 1 5.71 158.52 103.40 <
-3 0 4 2 28.67 18.98 53.60 <
-2 0 4 -2 1307.69 1350.04 305.96 o
-2 0 4 -1 3419.44 4330.42 348.94 o
-2 0 4 0 61320.60 63745.90 1311.92 o
-2 0 4 1 5155.38 4010.03 260.56 o
-2 0 4 2 26.22 129.07 49.80 <
-1 0 4 -2 42.25 20.35 29.00 <
-1 0 4 -1 9739.22 11495.00 374.75 o
-1 0 4 0 17275.50 18029.10 427.59 o
-1 0 4 1 3466.48 3168.36 171.89 o
-1 0 4 2 230.87 430.48 64.08 o
0 0 4 -2 45.99 18.52 17.61 <
0 0 4 -1 2057.60 2251.99 113.12 o
0 0 4 0 112925.00 103691.00 880.39 o
0 0 4 1 1681.34 1898.34 158.83 o
0 0 4 2 188.86 179.93 42.36 o
1 0 4 -2 6.39 -1.67 63.47 <
1 0 4 0 16134.30 15942.00 418.02 o
1 0 4 1 1582.47 1943.74 155.49 o
1 0 4 2 2.04 49.20 31.43 <
2 0 4 -2 60.02 18.07 22.32 <
2 0 4 -1 305.76 476.03 104.32 o
3 0 4 -2 15.29 8.20 51.47 <
3 0 4 -1 2937.67 2169.54 321.00 o
4 0 4 -2 34.53 -22.47 39.93 <
4 0 4 -1 2.06 49.20 123.75 <
5 0 4 -2 52.73 -85.79 90.35 <
-5 1 4 -1 774.01 1077.78 396.77 <
-5 1 4 0 33.31 -135.44 101.58 <
-5 1 4 1 94.60 162.17 135.14 <
-5 1 4 2 49.94 203.17 109.02 <
-4 1 4 -2 106.27 239.00 124.66 <
-4 1 4 -1 557.91 643.36 192.99 o
-4 1 4 0 366.28 272.56 139.85 <
-4 1 4 1 415.43 315.38 149.11 <
-4 1 4 2 139.32 -14.88 72.88 <
-3 1 4 -2 1.16 1.82 42.36 <
-3 1 4 -1 887.32 1384.51 249.48 o
-3 1 4 0 323.09 285.92 108.87 <
-3 1 4 1 173.12 10.93 59.83 <
-3 1 4 2 141.18 58.46 44.95 <
-2 1 4 -2 3.51 7.74 31.28 <
-2 1 4 -1 1087.84 1381.47 205.75 o
-2 1 4 0 294.66 341.95 93.38 o
-2 1 4 1 841.59 697.11 109.02 o
-2 1 4 2 181.85 115.25 51.93 <
-1 1 4 -2 17.43 5.16 20.80 <
-1 1 4 -1 3637.81 3880.50 219.87 o
-1 1 4 0 912.72 928.07 111.61 o
-1 1 4 1 338.24 329.80 70.00 o
-1 1 4 2 63.55 4.10 16.25 <
0 1 4 -2 35.29 13.51 21.87 <
0 1 4 -1 2235.39 2261.40 118.89 o
0 1 4 0 12121.10 12967.90 334.81 o
0 1 4 1 93.01 64.23 26.12 <
0 1 4 2 9.30 -5.16 16.25 <
1 1 4 -2 0.83 77.29 84.27 <
1 1 4 -1 798.30 878.87 214.40 o
1 1 4 1 394.45 338.15 49.50 o
1 1 4 2 48.21 20.35 16.10 <
2 1 4 -2 5.19 26.57 30.22 <
2 1 4 -1 940.86 627.11 116.46 o
3 1 4 -2 28.76 29.31 77.14 <
4 1 4 -2 74.99 50.26 74.86 <
5 1 4 -2 23.93 73.34 84.88 <
-5 2 4 -1 523.65 313.71 222.45 <
-5 2 4 0 654.31 894.36 257.98 o
-5 2 4 1 820.15 529.17 209.24 <
-5 2 4 2 242.22 72.73 62.56 <
-4 2 4 -2 32.49 247.66 152.45 <
-4 2 4 -1 1186.23 1980.34 346.51 o
-4 2 4 0 5045.36 4776.38 521.43 o
-4 2 4 1 1551.25 1098.59 242.95 o
-4 2 4 2 115.31 1.21 70.00 <
-3 2 4 -2 77.15 4.40 74.71 <
-3 2 4 -1 263.17 -26.72 53.90 <
-3 2 4 0 5790.76 6875.15 533.73 o
-3 2 4 1 1276.18 1100.86 207.27 o
-3 2 4 2 187.47 59.98 76.68 <
-2 2 4 -2 1620.29 1680.60 235.81 o
-2 2 4 -1 1256.65 1706.11 226.70 o
-2 2 4 0 22538.60 24521.60 837.57 o
-2 2 4 1 2178.05 1876.33 180.24 o
-2 2 4 2 45.13 -8.05 24.29 <
-1 2 4 -2 192.36 124.51 51.47 <
-1 2 4 -1 5677.19 6235.44 283.19 o
-1 2 4 0 16003.20 16577.90 572.30 o
-1 2 4 1 2265.76 2620.66 201.50 o
-1 2 4 2 22.59 24.90 30.52 <
0 2 4 -2 274.53 235.51 50.56 o
0 2 4 -1 5.28 -11.84 29.61 <
0 2 4 0 85907.60 78431.70 997.15 o
0 2 4 1 222.11 144.86 33.41 o
0 2 4 2 95.28 83.97 24.14 o
1 2 4 -2 90.93 126.64 119.65 <
1 2 4 -1 133.55 137.57 86.10 <
1 2 4 0 15065.10 15067.40 915.77 o
1 2 4 1 565.21 428.20 173.56 <
2 2 4 -2 114.77 51.63 37.35 <
2 2 4 -1 1414.31 1167.22 153.36 o
2 2 4 0 22052.90 21501.30 693.32 o
-5 3 4 -1 340.32 173.40 164.45 <
-5 3 4 0 257.27 100.98 91.87 <
-5 3 4 1 380.14 157.76 149.11 <
-5 3 4 2 19.29 1.97 54.36 <
-4 3 4 -2 14.81 75.01 83.97 <
-4 3 4 -1 1373.10 1773.07 332.39 o
-4 3 4 0 3033.31 3107.62 427.14 o
-4 3 4 1 218.22 -17.61 53.90 <
-4 3 4 2 349.10 95.36 60.43 <
-3 3 4 -2 46.62 38.26 45.25 <
-3 3 4 -1 281.92 482.86 152.45 o
-3 3 4 0 1305.14 1061.99 213.19 o
-3 3 4 1 1665.16 920.62 201.04 o
-3 3 4 2 68.95 63.47 47.98 <
-2 3 4 -2 118.58 131.65 85.64 <
-2 3 4 -1 2555.60 2819.73 301.56 o
-2 3 4 0 9443.83 11397.30 587.48 o
-2 3 4 1 192.78 40.24 35.83 <
-2 3 4 2 425.49 199.52 61.19 o
-1 3 4 -2 53.60 0.76 17.46 <
-1 3 4 -1 6847.23 7963.26 329.95 o
-1 3 4 0 4761.58 4676.92 319.17 o
-1 3 4 1 726.65 787.76 117.83 o
-1 3 4 2 2.73 10.33 34.62 <
0 3 4 -2 107.68 20.80 30.37 <
0 3 4 -1 2374.77 2351.29 191.17 o
0 3 4 0 60870.10 58863.70 766.35 o
0 3 4 1 442.99 336.64 58.46 o
0 3 4 2 193.85 169.30 56.03 o
1 3 4 -2 16.60 -1.06 33.86 <
1 3 4 -1 710.03 869.61 211.97 o
1 3 4 0 4291.88 4484.99 505.64 o
1 3 4 1 6663.41 7854.09 700.00 o
1 3 4 2 286.03 264.21 140.61 <
2 3 4 -2 64.60 72.43 42.67 <
2 3 4 -1 89.99 77.90 29.61 <
2 3 4 0 9063.67 9210.65 342.71 o
-5 4 4 0 1995.41 1967.28 398.13 o
-5 4 4 1 1179.17 735.68 240.06 o
-5 4 4 2 29.32 68.03 71.21 <
-4 4 4 -2 1314.14 1235.24 293.67 o
-4 4 4 -1 100.24 39.63 50.56 <
-4 4 4 0 1864.94 1480.93 298.68 o
-4 4 4 1 66.07 142.88 89.13 <
-4 4 4 2 238.68 96.42 79.11 <
-3 4 4 -2 41.86 -47.83 86.10 <
-3 4 4 -1 1557.62 1445.55 258.74 o
-3 4 4 0 20970.40 22949.90 1012.49 o
-3 4 4 1 4116.67 3684.17 400.26 o
-3 4 4 2 25.46 76.53 91.41 <
-2 4 4 -2 4739.14 4311.13 396.46 o
-2 4 4 -1 231.60 101.58 69.09 <
-2 4 4 0 1710.21 1717.19 233.38 o
-2 4 4 1 52.51 101.74 53.15 <
-2 4 4 2 17.21 27.48 31.58 <
-1 4 4 -2 48.93 23.23 18.52 <
-1 4 4 -1 4242.24 4557.88 257.98 o
-1 4 4 0 71361.70 70679.80 1337.13 o
-1 4 4 1 2033.19 2043.51 234.14 o
-1 4 4 2 19.97 47.98 32.95 <
0 4 4 -2 40.41 46.16 44.95 <
0 4 4 -1 386.26 397.83 111.61 o
0 4 4 0 31422.20 30360.40 988.50 o
0 4 4 1 1501.45 1431.12 126.49 o
0 4 4 2 25.18 8.96 29.76 <
1 4 4 -2 77.71 87.77 33.10 <
1 4 4 -1 315.23 342.56 75.16 o
1 4 4 0 73658.80 71403.50 1965.31 o
1 4 4 1 2717.50 3219.23 445.20 o
1 4 4 2 129.86 186.01 120.41 <
2 4 4 -2 25.06 7.90 15.34 <
2 4 4 -1 3030.82 2731.35 248.57 o
2 4 4 0 1485.83 1416.24 184.64 o
5 4 4 0 2282.98 2386.06 628.78 o
-5 5 4 0 493.64 317.05 221.24 <
-5 5 4 1 13.25 -62.56 102.49 <
-5 5 4 2 36.98 66.20 57.09 <
-4 5 4 -2 0.01 -55.88 113.12 <
-4 5 4 -1 372.51 1678.17 345.14 o
-4 5 4 0 654.96 755.27 211.06 o
-4 5 4 1 3.07 87.16 82.00 <
-4 5 4 2 71.32 -6.07 40.39 <
-3 5 4 -2 22.15 118.13 105.83 <
-3 5 4 -1 459.62 500.17 149.41 o
-3 5 4 0 4183.06 3844.21 423.19 o
-3 5 4 1 36.31 19.44 40.09 <
-3 5 4 2 166.18 38.11 74.25 <
-2 5 4 -2 75.64 112.52 92.17 <
-2 5 4 -1 22.96 171.89 157.76 <
-2 5 4 0 4893.19 5940.26 454.01 o
-2 5 4 1 44.07 59.67 48.29 <
-2 5 4 2 248.49 105.38 48.29 <
-1 5 4 -2 13.46 -9.41 25.66 <
-1 5 4 -1 3784.30 4305.06 263.60 o
-1 5 4 0 11406.70 11564.70 577.16 o
-1 5 4 1 102.93 126.18 56.33 <
-1 5 4 2 130.97 46.62 29.76 <
0 5 4 -2 212.95 154.73 103.86 <
0 5 4 -1 1159.69 1072.16 126.94 o
0 5 4 0 3236.72 3527.62 258.74 o
0 5 4 1 1390.26 1387.69 159.89 o
0 5 4 2 132.07 109.63 36.29 o
1 5 4 -2 64.56 51.47 43.58 <
1 5 4 -1 1851.86 1985.65 175.83 o
1 5 4 0 11377.80 10974.90 469.65 o
1 5 4 1 241.27 100.07 46.31 <
1 5 4 2 171.85 169.46 97.94 <
2 5 4 -2 133.39 20.20 38.57 <
4 5 4 1 241.81 789.43 316.14 <
4 5 4 2 198.12 115.10 102.19 <
5 5 4 -2 73.97 83.21 108.42 <
5 5 4 -1 266.77 349.24 228.37 <
5 5 4 0 457.57 279.70 213.04 <
-5 6 4 0 277.81 116.31 126.94 <
-5 6 4 1 671.13 426.07 182.97 <
-5 6 4 2 70.55 -100.52 125.88 <
-4 6 4 -2 417.33 519.46 189.35 <
-4 6 4 -1 139.82 373.08 177.96 <
-4 6 4 0 230.14 227.16 120.26 <
-4 6 4 1 720.62 489.85 153.97 o
-4 6 4 2 129.65 -5.77 113.88 <
-3 6 4 -2 174.06 407.55 145.16 <
-3 6 4 -1 1457.42 2539.73 356.83 o
-3 6 4 0 4950.28 5513.43 514.75 o
-3 6 4 1 852.83 503.36 158.52 o
-3 6 4 2 9.50 24.29 54.82 <
-2 6 4 -2 1799.57 1500.36 250.24 o
-2 6 4 -1 167.27 430.48 126.18 o
-2 6 4 0 267.75 291.23 97.48 <
-2 6 4 1 928.05 684.36 114.79 o
-2 6 4 2 99.40 17.77 29.91 <
-1 6 4 -2 143.99 -11.08 26.27 <
-1 6 4 -1 2466.24 3113.39 315.08 o
-1 6 4 0 22820.50 24777.00 1460.43 o
-1 6 4 1 223.85 224.27 168.70 <
-1 6 4 2 244.06 206.20 72.43 <
0 6 4 -2 35.79 85.03 63.32 <
0 6 4 -1 955.74 956.46 153.06 o
0 6 4 0 3247.92 3150.75 260.87 o
0 6 4 1 1237.02 1225.98 160.95 o
0 6 4 2 34.14 24.14 26.27 <
1 6 4 -2 15.23 14.88 27.79 <
1 6 4 -1 643.67 554.68 96.12 o
1 6 4 0 22544.20 22443.90 671.91 o
1 6 4 1 7902.27 8268.47 439.74 o
1 6 4 2 39.28 67.57 44.95 <
2 6 4 -2 209.26 48.59 32.65 <
2 6 4 -1 614.09 408.00 101.43 o
2 6 4 0 298.02 266.48 118.74 <
2 6 4 1 353.53 245.07 119.04 <
2 6 4 2 37.89 70.46 63.77 <
3 6 4 -2 49.84 -31.13 24.60 <
3 6 4 -1 2049.73 1708.99 365.03 o
3 6 4 0 4684.61 5658.59 691.19 o
3 6 4 1 1292.15 2347.65 467.07 o
3 6 4 2 37.82 57.85 56.79 <
4 6 4 -2 145.61 -46.01 70.46 <
4 6 4 -1 118.60 75.47 91.87 <
4 6 4 0 218.62 227.31 151.69 <
4 6 4 1 8.65 167.33 148.81 <
4 6 4 2 50.81 109.33 126.94 <
5 6 4 -2 2.67 -59.52 94.14 <
5 6 4 -1 1061.34 728.39 332.39 <
5 6 4 0 259.28 429.41 265.42 <
-5 7 4 1 106.61 -24.60 174.77 <
-5 7 4 2 98.84 58.46 105.53 <
-4 7 4 -2 18.21 94.45 89.13 <
-4 7 4 -1 191.71 194.66 108.87 <
-4 7 4 0 550.66 325.86 166.72 <
-4 7 4 1 376.14 550.43 188.44 <
-4 7 4 2 34.81 -150.48 108.42 <
-3 7 4 -2 3.43 -25.66 36.59 <
-3 7 4 -1 618.41 645.94 210.76 o
-3 7 4 0 7806.92 8154.74 644.42 o
-3 7 4 1 328.74 0.15 63.47 <
-3 7 4 2 235.01 138.02 102.95 <
-2 7 4 -2 50.35 37.81 48.59 <
-2 7 4 -1 453.96 639.26 161.71 o
-2 7 4 0 7749.28 7610.83 558.93 o
-2 7 4 1 542.13 817.52 130.89 o
-2 7 4 2 44.05 63.17 52.39 <
-1 7 4 -2 174.23 170.52 80.78 <
-1 7 4 -1 9620.17 11396.40 1022.82 o
-1 7 4 0 23907.50 24072.60 1542.27 o
-1 7 4 1 94.22 158.83 147.14 <
-1 7 4 2 277.34 179.93 163.99 <
0 7 4 -2 39.48 -118.44 79.26 <
0 7 4 -1 1954.15 1906.69 286.22 o
0 7 4 0 324.79 382.95 92.47 o
0 7 4 1 96.01 89.13 41.91 <
0 7 4 2 127.85 194.21 79.72 <
1 7 4 -2 87.20 -15.94 45.70 <
1 7 4 -1 763.66 601.75 112.67 o
1 7 4 0 23230.90 23601.30 684.36 o
1 7 4 1 3597.84 3853.02 300.19 o
1 7 4 2 140.73 112.97 54.06 <
2 7 4 -2 199.93 41.60 21.26 <
2 7 4 -1 802.78 638.96 131.19 o
2 7 4 0 7242.85 7439.86 469.65 o
2 7 4 1 149.47 27.18 27.18 <
2 7 4 2 1962.67 2080.40 279.70 o
3 7 4 -2 116.76 54.51 73.95 <
3 7 4 -1 46.53 132.26 101.58 <
3 7 4 0 7299.52 7272.68 802.19 o
3 7 4 1 1101.63 1502.49 379.91 o
3 7 4 2 88.01 -57.40 78.20 <
4 7 4 -2 272.51 40.39 111.00 <
4 7 4 -1 192.32 -9.41 51.93 <
4 7 4 0 457.02 673.73 285.46 <
4 7 4 1 23.91 40.39 77.14 <
4 7 4 2 29.00 319.17 215.31 <
5 7 4 -2 48.33 65.90 98.39 <
5 7 4 -1 68.25 198.61 298.98 <
-5 8 4 1 311.85 439.89 267.09 <
-5 8 4 2 190.99 -25.36 51.17 <
-4 8 4 -2 10.64 224.42 180.39 <
-4 8 4 -1 278.19 -149.87 145.16 <
-4 8 4 0 3851.35 4725.51 570.63 o
-4 8 4 1 1342.21 1224.16 279.85 o
-4 8 4 2 97.49 77.44 78.96 <
-3 8 4 -2 367.38 261.02 172.80 <
-3 8 4 -1 839.55 808.57 223.36 o
-3 8 4 0 1588.40 875.07 212.28 o
-3 8 4 1 1666.88 1380.25 274.53 o
-3 8 4 2 201.38 51.32 87.31 <
-2 8 4 -2 299.97 258.13 174.16 <
-2 8 4 -1 247.26 186.62 135.44 <
-2 8 4 0 25116.30 29085.90 1731.32 o
-2 8 4 1 2220.61 1881.49 235.96 o
-2 8 4 2 33.88 32.04 41.76 <
-1 8 4 -2 220.32 340.13 178.57 <
-1 8 4 -1 13429.90 15401.60 1253.47 o
-1 8 4 0 7713.49 6875.00 881.75 o
-1 8 4 1 1208.66 1039.67 374.29 <
-1 8 4 2 13.76 -174.47 154.27 <
0 8 4 -2 43.75 99.31 92.47 <
0 8 4 -1 18.03 3.34 45.55 <
0 8 4 0 39676.30 42229.40 1455.11 o
0 8 4 1 1447.63 1577.95 208.48 o
0 8 4 2 312.40 43.28 77.74 <
1 8 4 -2 12.44 -5.77 47.07 <
1 8 4 -1 2571.95 2244.55 220.63 o
1 8 4 0 7538.51 7315.50 407.85 o
1 8 4 1 2660.11 2882.14 259.96 o
1 8 4 2 33.47 40.85 29.76 <
2 8 4 -2 97.68 -21.11 35.99 <
2 8 4 -1 78.77 88.37 53.15 <
2 8 4 0 26400.90 26491.50 888.89 o
2 8 4 1 153.80 154.12 79.41 <
2 8 4 2 2122.58 2019.36 275.44 o
3 8 4 -2 33.50 -96.57 85.49 <
3 8 4 -1 4273.39 2753.98 474.51 o
3 8 4 0 1221.93 823.45 270.28 o
3 8 4 1 321.55 268.15 180.39 <
3 8 4 2 14.01 130.74 132.71 <
4 8 4 -2 216.80 -46.31 72.58 <
4 8 4 -1 269.92 306.27 198.15 <
4 8 4 0 4705.62 5028.59 801.58 o
4 8 4 1 100.25 263.75 169.15 <
4 8 4 2 160.35 61.65 96.27 <
5 8 4 -2 33.44 -182.51 162.78 <
5 8 4 -1 779.49 828.15 359.11 <
-5 9 4 2 182.46 -210.91 187.07 <
-4 9 4 -2 4.39 -300.50 213.19 <
-4 9 4 -1 161.56 230.95 179.02 <
-4 9 4 0 198.08 269.22 195.27 <
-4 9 4 1 188.66 -36.90 75.62 <
-4 9 4 2 37.75 -124.82 131.19 <
-3 9 4 -2 47.78 335.42 201.34 <
-3 9 4 -1 206.10 256.77 202.56 <
-3 9 4 0 173.91 48.44 79.87 <
-3 9 4 1 410.56 461.60 231.56 <
-3 9 4 2 497.22 351.06 207.57 <
-2 9 4 -2 164.57 -16.85 116.92 <
-2 9 4 -1 651.80 519.76 250.54 <
-2 9 4 0 195.84 13.21 43.88 <
-2 9 4 1 160.88 -6.23 58.31 <
-2 9 4 2 23.90 -18.68 45.86 <
-1 9 4 -2 279.39 342.71 196.18 <
-1 9 4 -1 423.94 632.88 296.70 <
-1 9 4 0 1783.72 1686.98 462.82 o
-1 9 4 1 1091.98 822.23 357.14 <
-1 9 4 2 571.00 292.60 263.30 <
0 9 4 -2 88.90 131.50 107.35 <
0 9 4 -1 1174.39 1546.67 300.50 o
0 9 4 0 385.67 322.52 109.02 <
0 9 4 1 375.36 386.74 101.89 o
0 9 4 2 84.65 -28.09 42.82 <
1 9 4 -2 232.14 172.65 78.96 <
1 9 4 -1 1137.23 766.66 133.93 o
1 9 4 0 2495.27 2598.34 253.88 o
1 9 4 1 720.64 688.61 123.75 o
1 9 4 2 20.25 56.18 43.43 <
2 9 4 -2 134.80 47.83 35.83 <
2 9 4 -1 2242.92 1587.67 203.93 o
2 9 4 0 166.53 12.30 45.70 <
2 9 4 1 69.61 74.40 53.60 <
2 9 4 2 20.46 45.70 42.52 <
3 9 4 -2 49.94 -35.83 44.79 <
3 9 4 -1 633.77 329.50 107.20 o
3 9 4 0 666.70 556.96 151.24 o
3 9 4 1 273.21 530.84 244.32 <
3 9 4 2 74.29 12.60 41.45 <
4 9 4 -2 175.22 107.66 98.09 <
4 9 4 -1 815.87 524.16 245.83 <
4 9 4 0 43.88 58.31 87.46 <
4 9 4 1 104.22 -134.38 136.66 <
4 9 4 2 73.01 182.21 165.81 <
5 9 4 -2 69.92 -293.67 208.02 <
5 9 4 -1 171.34 126.49 141.97 <
-5 10 4 2 76.69 35.83 84.42 <
-4 10 4 -2 11.55 161.26 159.43 <
-4 10 4 -1 1024.09 1261.06 442.17 <
-4 10 4 0 47.08 87.01 115.10 <
-4 10 4 1 333.77 271.65 151.39 <
-4 10 4 2 78.11 -130.89 151.39 <
-3 10 4 -2 217.47 324.49 204.53 <
-3 10 4 -1 1240.03 1961.51 504.58 o
-3 10 4 0 29.33 1.37 29.91 <
-3 10 4 1 945.63 1184.98 398.89 <
-3 10 4 2 126.64 -37.20 75.92 <
-2 10 4 -2 19.93 63.62 140.61 <
-2 10 4 -1 858.49 919.11 325.25 <
-2 10 4 0 168.26 102.95 168.55 <
-2 10 4 1 34.13 91.41 113.43 <
-2 10 4 2 118.70 18.22 32.65 <
-1 10 4 -2 73.91 11.24 86.25 <
-1 10 4 -1 3216.43 3304.71 661.28 o
-1 10 4 0 203.80 185.70 197.85 <
-1 10 4 1 2427.65 2255.02 580.34 o
-1 10 4 2 124.24 108.26 49.50 <
0 10 4 -2 52.57 -25.36 102.49 <
0 10 4 -1 216.67 102.80 46.92 <
0 10 4 0 3643.32 4759.37 539.04 o
0 10 4 1 1939.40 2025.28 370.35 o
0 10 4 2 133.99 171.58 73.80 <
1 10 4 -2 75.63 3.19 91.87 <
1 10 4 -1 60.97 120.41 68.33 <
1 10 4 0 172.65 179.48 51.32 o
1 10 4 1 106.24 174.62 71.21 <
1 10 4 2 73.97 7.14 53.90 <
2 10 4 -2 181.74 -26.42 30.67 <
2 10 4 -1 1475.47 804.62 146.07 o
2 10 4 0 206.35 306.12 94.29 o
2 10 4 1 3128.62 4160.20 367.01 o
2 10 4 2 815.35 341.65 107.35 o
3 10 4 -2 296.41 73.64 79.72 <
3 10 4 -1 342.10 88.68 110.54 <
3 10 4 0 9.01 39.33 56.79 <
3 10 4 1 613.38 682.53 262.54 <
3 10 4 2 54.24 -133.93 122.08 <
4 10 4 -2 109.84 -16.40 47.38 <
4 10 4 -1 1441.31 807.50 297.46 <
4 10 4 0 77.92 151.24 140.76 <
4 10 4 1 1440.29 3109.44 663.40 o
4 10 4 2 199.07 250.09 195.88 <
5 10 4 -2 189.71 92.32 119.96 <
5 10 4 -1 43.41 -36.59 178.11 <
-4 11 4 -2 23.83 103.71 132.71 <
-4 11 4 -1 266.52 457.96 271.50 <
-4 11 4 0 421.29 263.90 174.01 <
-4 11 4 1 148.08 66.51 105.07 <
-4 11 4 2 62.78 -50.11 93.23 <
-3 11 4 -2 11.36 -0.46 126.33 <
-3 11 4 -1 44.70 -23.84 63.93 <
-3 11 4 0 81.45 310.06 247.20 <
-3 11 4 1 238.88 343.32 223.21 <
-3 11 4 2 34.66 -27.64 182.06 <
-2 11 4 -2 80.95 104.62 119.35 <
-2 11 4 -1 300.34 640.63 291.99 <
-2 11 4 0 218.58 252.06 190.87 <
-2 11 4 1 273.93 565.62 312.80 <
-2 11 4 2 46.61 234.90 192.23 <
-1 11 4 -2 71.01 87.16 111.76 <
-1 11 4 -1 4583.52 4403.45 805.53 o
-1 11 4 0 89.65 111.15 229.74 <
-1 11 4 1 241.26 60.43 187.22 <
-1 11 4 2 38.17 48.13 91.41 <
0 11 4 -2 104.25 28.85 50.56 <
0 11 4 -1 319.81 479.98 158.22 o
0 11 4 0 10550.80 12496.40 915.92 o
0 11 4 1 188.30 213.49 120.11 <
0 11 4 2 39.47 29.91 64.99 <
1 11 4 -2 43.06 -5.47 102.34 <
1 11 4 -1 1392.43 881.45 222.60 o
1 11 4 0 152.23 29.91 56.64 <
1 11 4 1 1680.46 1368.87 206.35 o
1 11 4 2 61.23 81.69 52.99 <
2 11 4 -2 129.89 71.21 38.87 <
2 11 4 -1 41.16 29.00 25.51 <
2 11 4 0 85.40 180.69 76.98 <
2 11 4 1 58.73 135.60 103.56 <
2 11 4 2 1089.70 1137.00 317.20 o
3 11 4 -2 104.62 86.70 115.25 <
3 11 4 -1 786.41 313.40 203.62 <
3 11 4 0 171.48 234.14 149.41 <
3 11 4 1 734.19 1954.68 454.32 o
3 11 4 2 1.76 147.29 169.15 <
4 11 4 -2 85.13 28.24 61.50 <
4 11 4 -1 104.97 14.88 45.55 <
4 11 4 0 308.46 233.54 176.90 <
4 11 4 1 90.78 434.27 249.02 <
4 11 4 2 23.75 95.81 122.69 <
5 11 4 -2 129.87 -179.48 167.48 <
-4 12 4 -1 60.53 -20.35 65.29 <
-4 12 4 0 1110.75 1602.25 529.33 o
-4 12 4 1 999.77 819.80 372.77 <
-4 12 4 2 129.33 87.61 123.45 <
-3 12 4 -2 96.76 839.39 354.55 <
-3 12 4 -1 28.62 205.29 178.42 <
-3 12 4 0 439.55 385.38 294.27 <
-3 12 4 1 625.21 654.60 344.53 <
-3 12 4 2 93.77 -164.90 166.72 <
-2 12 4 -2 1425.25 290.48 205.75 <
-2 12 4 -1 0.14 51.02 91.11 <
-2 12 4 0 12103.30 13544.60 1469.54 o
-2 12 4 1 3064.47 3104.89 736.74 o
-2 12 4 2 108.60 -7.44 144.40 <
-1 12 4 -2 396.56 253.88 219.87 <
-1 12 4 -1 315.31 388.11 269.37 <
-1 12 4 0 701.11 499.11 301.26 <
-1 12 4 1 526.17 516.11 349.70 <
-1 12 4 2 5.15 -48.89 66.66 <
0 12 4 -2 14.32 88.83 76.68 <
0 12 4 -1 556.10 445.66 181.00 <
0 12 4 0 4833.89 5945.42 652.32 o
0 12 4 1 2689.01 2856.47 445.66 o
0 12 4 2 46.51 56.03 30.52 <
1 12 4 -2 2.40 21.11 100.67 <
1 12 4 -1 384.70 392.67 186.46 <
1 12 4 0 654.74 736.29 211.06 o
1 12 4 1 2855.80 3206.78 315.68 o
1 12 4 2 13.50 -2.43 29.76 <
2 12 4 -2 12.49 11.08 43.73 <
2 12 4 -1 2204.68 2278.71 440.65 o
2 12 4 0 10942.80 10301.20 936.57 o
2 12 4 1 405.81 703.79 255.70 <
2 12 4 2 93.61 114.64 101.43 <
3 12 4 -2 34.56 94.90 95.36 <
3 12 4 -1 236.07 530.24 228.98 <
3 12 4 0 500.05 567.89 251.76 <
3 12 4 1 133.61 278.48 195.27 <
3 12 4 2 7.81 -69.09 92.47 <
4 12 4 -2 6.84 -6.38 69.39 <
4 12 4 -1 636.46 651.41 291.54 <
4 12 4 0 796.33 686.18 324.18 <
4 12 4 1 51.31 112.06 129.83 <
4 12 4 2 2.15 189.96 173.40 <
5 12 4 -2 72.93 -163.84 162.02 <
-4 13 4 0 361.68 402.84 271.65 <
-4 13 4 1 376.58 11.84 139.70 <
-4 13 4 2 100.70 -194.36 191.78 <
-3 13 4 -2 112.69 3.80 63.32 <
-3 13 4 -1 113.73 -171.74 170.52 <
-3 13 4 0 1871.40 1963.64 559.69 o
-3 13 4 1 241.35 265.73 217.44 <
-3 13 4 2 267.24 558.02 318.72 <
-2 13 4 -2 179.21 196.49 65.75 <
-2 13 4 -1 609.50 214.10 152.45 <
-2 13 4 0 1241.16 1065.94 435.49 <
-2 13 4 1 369.24 189.80 210.15 <
-2 13 4 2 162.44 125.73 153.82 <
-1 13 4 -2 173.32 -58.46 189.35 <
-1 13 4 -1 85.79 150.48 188.13 <
-1 13 4 0 8066.01 7354.22 1165.55 o
-1 13 4 1 84.25 38.11 91.11 <
-1 13 4 2 284.61 104.62 108.11 <
0 13 4 -2 190.62 151.84 115.55 <
0 13 4 -1 711.72 687.70 198.61 o
0 13 4 0 120.88 30.22 70.46 <
0 13 4 1 891.97 803.10 254.34 o
0 13 4 2 40.15 79.87 45.55 <
1 13 4 -2 141.84 108.87 157.61 <
1 13 4 -1 884.39 613.75 213.79 <
1 13 4 0 8756.17 8230.20 793.68 o
1 13 4 1 97.08 -11.84 114.94 <
1 13 4 2 29.49 -42.36 64.23 <
2 13 4 -2 6.77 13.97 42.67 <
2 13 4 -1 16.39 90.50 93.69 <
2 13 4 0 384.40 250.85 151.39 <
2 13 4 1 30.31 -23.54 49.96 <
2 13 4 2 16.88 54.51 74.10 <
3 13 4 -2 198.08 54.97 77.14 <
3 13 4 -1 788.78 585.20 250.39 <
3 13 4 0 2199.82 2173.79 489.09 o
3 13 4 1 106.57 554.84 252.21 <
3 13 4 2 52.68 61.34 88.68 <
4 13 4 -2 65.94 17.77 48.13 <
4 13 4 -1 6.11 -88.98 110.54 <
4 13 4 0 70.81 180.24 160.95 <
4 13 4 1 54.28 249.48 195.42 <
4 13 4 2 55.16 76.53 113.12 <
-4 14 4 1 865.62 543.29 327.07 <
-4 14 4 2 89.75 -298.98 244.92 <
-3 14 4 -2 18.81 142.73 169.61 <
-3 14 4 -1 97.49 -41.30 93.54 <
-3 14 4 0 430.23 161.11 148.65 <
-3 14 4 1 34.36 -330.11 253.27 <
-3 14 4 2 94.57 220.63 212.58 <
-2 14 4 -2 1227.69 482.41 309.15 <
-2 14 4 -1 1229.82 2261.70 627.87 o
-2 14 4 0 1318.08 983.94 415.14 <
-2 14 4 1 2560.92 1454.20 531.45 <
-2 14 4 2 204.52 3.95 48.59 <
-1 14 4 -2 278.09 276.96 233.23 <
-1 14 4 -1 230.00 317.96 257.98 <
-1 14 4 0 852.05 847.59 376.27 <
-1 14 4 1 239.24 -29.31 87.46 <
-1 14 4 2 94.30 -24.90 122.54 <
0 14 4 -2 26.68 66.51 122.08 <
0 14 4 -1 1091.05 1285.05 311.58 o
0 14 4 0 13931.10 15782.30 1120.45 o
0 14 4 1 3785.28 4923.51 630.76 o
0 14 4 2 88.59 -121.02 119.20 <
1 14 4 -2 145.13 201.50 158.83 <
1 14 4 -1 731.57 301.26 130.74 <
1 14 4 0 830.33 569.72 230.65 <
1 14 4 1 3370.61 2538.51 458.57 o
1 14 4 2 46.82 104.47 103.40 <
2 14 4 -2 97.90 35.99 40.24 <
2 14 4 -1 446.33 19.13 48.29 <
2 14 4 0 1628.62 1744.98 418.93 o
2 14 4 1 1590.07 1358.39 396.92 o
2 14 4 2 5.75 56.33 79.41 <
3 14 4 -2 209.60 127.25 153.36 <
3 14 4 -1 1206.79 536.01 259.80 <
3 14 4 0 366.31 -19.44 50.72 <
3 14 4 1 183.06 44.79 77.14 <
3 14 4 2 75.20 116.16 124.06 <
4 14 4 -2 43.97 1.37 26.27 <
4 14 4 -1 74.04 250.24 187.68 <
4 14 4 0 1050.86 1136.39 409.37 <
4 14 4 1 167.32 312.19 223.06 <
-4 15 4 2 31.53 -348.48 275.44 <
-3 15 4 -2 56.17 434.12 326.01 <
-3 15 4 -1 81.14 377.63 271.80 <
-3 15 4 0 160.05 403.30 286.98 <
-3 15 4 1 325.63 147.59 178.42 <
-3 15 4 2 49.07 164.45 324.64 <
-2 15 4 -2 46.83 -30.37 80.02 <
-2 15 4 -1 395.55 611.32 311.43 <
-2 15 4 0 724.72 572.15 319.78 <
-2 15 4 1 29.71 79.11 135.44 <
-2 15 4 2 56.71 73.34 131.34 <
-1 15 4 -2 25.39 187.83 126.94 <
-1 15 4 -1 254.09 106.14 158.07 <
-1 15 4 0 870.78 656.11 370.65 <
-1 15 4 1 84.59 181.76 161.71 <
-1 15 4 2 30.47 457.05 304.14 <
0 15 4 -2 60.96 -203.77 147.14 <
0 15 4 -1 1257.55 1581.29 366.25 o
0 15 4 0 8260.62 8604.95 856.40 o
0 15 4 1 491.46 656.27 235.81 <
0 15 4 2 105.64 49.80 80.48 <
1 15 4 -2 115.25 114.34 90.04 <
1 15 4 -1 633.62 364.73 197.24 <
1 15 4 0 1175.17 968.15 295.49 o
1 15 4 1 2841.35 2495.69 477.24 o
1 15 4 2 47.38 109.78 67.72 <
2 15 4 -2 0.89 -277.72 186.16 <
2 15 4 -1 917.67 634.70 265.12 <
2 15 4 0 1065.67 852.14 309.61 <
2 15 4 1 590.71 560.76 254.49 <
2 15 4 2 190.78 41.00 73.04 <
3 15 4 -2 174.55 154.27 138.94 <
3 15 4 -1 330.74 84.88 104.77 <
3 15 4 0 446.29 -263.60 184.49 <
3 15 4 1 81.23 -33.41 70.00 <
3 15 4 2 82.69 384.47 243.40 <
4 15 4 -2 18.60 172.65 158.07 <
4 15 4 -1 179.90 7.59 41.00 <
4 15 4 0 757.09 111.76 133.62 <
-3 16 4 -2 18.36 -230.80 219.87 <
-3 16 4 -1 505.07 726.27 404.21 <
-3 16 4 0 1614.32 2400.03 766.35 o
-3 16 4 1 1281.43 530.54 349.70 <
-3 16 4 2 109.76 438.22 384.01 <
-2 16 4 -2 263.26 438.22 304.29 <
-2 16 4 -1 1007.21 1328.17 537.22 <
-2 16 4 0 2726.44 2144.94 686.33 o
-2 16 4 1 300.78 350.15 283.34 <
-2 16 4 2 88.37 17.92 79.87 <
-1 16 4 -2 165.24 531.76 351.21 <
-1 16 4 -1 902.84 607.98 386.14 <
-1 16 4 0 6395.25 5342.91 1088.11 o
-1 16 4 1 1052.18 998.82 462.82 <
-1 16 4 2 59.68 -409.67 294.27 <
0 16 4 -2 84.00 91.71 100.67 <
0 16 4 -1 1886.09 2494.48 467.98 o
0 16 4 0 8803.31 9410.78 903.92 o
0 16 4 1 671.40 695.74 236.72 <
0 16 4 2 32.11 147.74 182.36 <
1 16 4 -2 26.87 -138.18 134.68 <
1 16 4 -1 38.54 47.83 89.44 <
1 16 4 0 6282.96 6212.06 781.39 o
1 16 4 1 1800.51 1463.77 373.53 o
1 16 4 2 103.60 64.53 117.38 <
2 16 4 -2 84.70 394.64 187.37 <
2 16 4 -1 357.03 751.17 319.17 <
2 16 4 0 2996.91 2108.65 526.29 o
2 16 4 1 731.76 1090.84 371.41 <
2 16 4 2 415.22 425.77 234.90 <
3 16 4 -2 67.12 -84.58 109.33 <
3 16 4 -1 393.75 80.02 151.24 <
3 16 4 0 1287.88 1383.44 427.74 o
3 16 4 1 57.64 220.63 179.02 <
3 16 4 2 20.87 -65.44 102.65 <
4 16 4 -2 142.16 127.40 141.52 <
4 16 4 -1 152.37 280.91 287.74 <
4 16 4 0 908.99 1429.45 488.78 <
-3 17 4 -1 219.90 368.22 294.88 <
-3 17 4 0 856.69 458.57 334.05 <
-3 17 4 1 63.77 -380.06 308.70 <
-3 17 4 2 30.94 501.69 360.32 <
-2 17 4 -2 73.36 201.04 218.20 <
-2 17 4 -1 74.73 131.34 216.68 <
-2 17 4 0 4289.29 4021.41 982.27 o
-2 17 4 1 231.51 -111.45 169.00 <
-2 17 4 2 207.87 101.58 106.59 <
-1 17 4 -2 2.93 -293.67 261.02 <
-1 17 4 -1 1097.65 1400.60 562.73 <
-1 17 4 0 808.29 1027.83 533.12 <
-1 17 4 1 72.00 364.58 288.05 <
-1 17 4 2 37.06 -189.80 205.44 <
0 17 4 -2 145.52 82.60 114.64 <
0 17 4 -1 17.65 70.15 83.82 <
0 17 4 0 12052.40 13479.30 1108.00 o
0 17 4 1 536.77 69.09 85.03 <
0 17 4 2 84.86 186.31 242.19 <
1 17 4 -2 111.57 79.41 131.04 <
1 17 4 -1 62.69 -8.35 93.54 <
1 17 4 0 648.50 832.86 295.49 <
1 17 4 1 6.26 248.57 166.42 <
1 17 4 2 59.20 377.94 349.54 <
2 17 4 -2 202.70 -30.37 173.10 <
2 17 4 -1 314.43 330.26 222.15 <
2 17 4 0 4151.37 2945.76 662.79 o
2 17 4 1 8.42 -51.32 89.44 <
3 17 4 -2 231.19 -50.26 88.37 <
3 17 4 -1 48.90 189.04 168.39 <
3 17 4 0 417.93 719.28 330.56 <
3 17 4 1 567.03 806.59 332.39 <
4 17 4 -2 150.06 87.01 121.02 <
4 17 4 -1 132.09 -120.41 146.98 <
-3 18 4 1 1406.48 475.12 337.55 <
-3 18 4 2 121.53 -275.90 276.96 <
-2 18 4 -2 205.34 -56.03 203.93 <
-2 18 4 -1 512.33 135.44 187.53 <
-2 18 4 0 1439.65 216.38 156.25 <
-2 18 4 1 48.96 -8.05 68.63 <
-2 18 4 2 81.85 -133.62 191.63 <
-1 18 4 -2 69.59 94.45 180.69 <
-1 18 4 -1 44.42 255.25 295.18 <
-1 18 4 0 9841.89 11005.60 1633.98 o
-1 18 4 1 3558.85 4060.13 1001.10 o
-1 18 4 2 105.20 -208.63 219.11 <
0 18 4 -2 14.43 -3.04 110.24 <
0 18 4 -1 878.26 1210.34 332.69 o
0 18 4 0 1544.13 1972.75 402.38 o
0 18 4 1 93.26 -52.39 114.64 <
0 18 4 2 45.92 446.87 322.52 <
1 18 4 -2 21.38 -175.53 129.67 <
1 18 4 -1 2540.65 2395.93 509.13 o
1 18 4 0 10141.40 11463.60 1110.73 o
1 18 4 1 1297.76 2003.11 739.17 <
1 18 4 2 14.02 -383.40 313.40 <
2 18 4 -2 13.20 -15.18 102.95 <
2 18 4 -1 803.69 306.42 223.82 <
2 18 4 0 1363.58 894.51 377.63 <
2 18 4 1 169.32 41.00 85.34 <
3 18 4 -2 54.81 -256.92 204.84 <
3 18 4 -1 439.31 325.25 230.50 <
3 18 4 0 4222.14 4558.64 879.93 o
4 18 4 -2 24.11 -166.27 175.07 <
-2 19 4 -2 48.51 360.48 308.70 <
-2 19 4 -1 380.42 -29.00 226.55 <
-2 19 4 0 261.69 -275.44 278.63 <
-2 19 4 1 51.66 58.31 133.17 <
-2 19 4 2 21.67 241.13 260.41 <
-1 19 4 -2 36.33 -146.07 198.00 <
-1 19 4 -1 1314.09 1771.71 676.01 <
-1 19 4 0 110.42 119.04 174.47 <
-1 19 4 1 25.46 -132.56 183.27 <
-1 19 4 2 14.88 355.16 290.63 <
0 19 4 -2 4.14 11.69 103.86 <
0 19 4 -1 1084.90 1120.00 315.83 o
0 19 4 1 69.95 145.62 154.58 <
0 19 4 2 95.67 438.67 360.48 <
1 19 4 -2 32.28 -125.12 96.88 <
1 19 4 -1 472.94 316.14 159.13 <
1 19 4 0 262.51 592.34 392.82 <
1 19 4 1 540.10 982.58 507.31 <
1 19 4 2 184.07 268.91 270.43 <
2 19 4 -2 81.21 140.46 209.85 <
2 19 4 -1 577.32 178.42 175.23 <
2 19 4 0 597.66 168.70 213.95 <
3 19 4 -2 15.91 206.35 199.22 <
3 19 4 -1 220.10 257.07 199.83 <
3 19 4 0 399.69 94.75 134.23 <
-2 20 4 -1 60.83 218.05 253.12 <
-2 20 4 0 374.02 482.56 367.46 <
-2 20 4 1 253.78 587.63 414.68 <
-2 20 4 2 65.78 314.32 299.43 <
-1 20 4 -2 404.33 396.92 331.78 <
-1 20 4 -1 3623.06 3661.09 1002.32 o
-1 20 4 0 6115.91 7875.04 1426.41 o
-1 20 4 1 519.08 496.68 267.70 <
-1 20 4 2 78.17 -455.68 334.36 <
0 20 4 -2 11.45 -122.23 118.74 <
0 20 4 -1 300.33 817.98 435.64 <
0 20 4 0 37.31 326.01 293.51 <
0 20 4 1 184.90 43.58 111.15 <
0 20 4 2 98.88 -242.34 246.74 <
1 20 4 -2 42.46 -137.27 143.64 <
1 20 4 -1 1485.28 1490.95 621.19 <
1 20 4 0 6353.20 6881.38 1369.78 o
1 20 4 1 1649.24 2153.59 784.72 <
1 20 4 2 60.77 -167.63 217.44 <
2 20 4 -2 90.35 27.79 80.32 <
2 20 4 -1 58.54 37.51 102.34 <
3 20 4 -2 85.25 638.80 354.25 <
3 20 4 -1 515.84 81.54 130.74 <
-1 21 4 -2 2.23 138.33 198.15 <
-1 21 4 -1 362.31 -52.54 124.51 <
-1 21 4 0 910.56 920.62 490.61 <
-1 21 4 1 116.57 235.96 247.66 <
-1 21 4 2 27.88 -5.92 54.36 <
0 21 4 -2 132.22 242.34 245.23 <
0 21 4 -1 687.77 491.21 348.33 <
0 21 4 0 575.15 1097.07 581.56 <
0 21 4 1 370.16 864.44 451.89 <
0 21 4 2 12.25 -370.19 308.70 <
1 21 4 -2 15.65 -234.29 246.14 <
1 21 4 -1 16.98 -66.36 181.76 <
1 21 4 0 675.53 72.58 148.50 <
1 21 4 1 640.68 744.03 437.16 <
2 21 4 -2 351.09 267.40 234.60 <
3 21 4 -2 66.32 -214.86 214.10 <
0 22 4 -2 53.95 561.82 377.18 <
0 22 4 -1 567.84 205.60 229.13 <
0 22 4 0 9690.34 14004.80 1902.90 o
1 22 4 -2 34.80 -102.95 168.55 <
1 22 4 -1 382.00 949.63 506.55 <
0 -22 5 -2 29.48 97.79 151.24 <
0 -22 5 -1 24.98 293.67 257.68 <
0 -22 5 0 350.23 606.92 371.86 <
0 -22 5 1 358.12 209.39 223.21 <
0 -22 5 2 13.20 90.04 151.69 <
1 -22 5 -2 104.21 300.19 167.48 <
1 -22 5 -1 70.84 -40.54 81.08 <
1 -22 5 0 896.55 633.19 261.78 <
1 -22 5 1 806.58 360.78 217.74 <
2 -22 5 -2 6.04 657.94 334.97 <
2 -22 5 -1 28.40 137.42 154.42 <
-1 -21 5 -2 128.75 41.00 91.87 <
-1 -21 5 -1 412.55 626.35 337.40 <
-1 -21 5 0 6776.07 7861.22 1195.76 o
-1 -21 5 2 105.83 26.88 84.73 <
0 -21 5 -2 103.99 99.76 147.14 <
0 -21 5 -1 849.80 785.79 427.74 <
0 -21 5 0 1013.03 1206.09 518.70 <
0 -21 5 1 31.09 -26.12 85.79 <
0 -21 5 2 148.32 150.78 186.77 <
1 -21 5 -2 35.36 -49.96 69.24 <
1 -21 5 -1 285.99 253.43 146.68 <
1 -21 5 0 6729.19 6498.74 784.12 o
1 -21 5 1 828.33 669.78 249.63 <
1 -21 5 2 4.21 -158.07 151.99 <
2 -21 5 -2 67.05 -25.21 74.71 <
2 -21 5 -1 319.22 6.98 49.05 <
2 -21 5 0 1035.86 279.85 210.76 <
2 -21 5 1 19.54 -249.33 196.18 <
3 -21 5 -2 14.73 27.03 174.77 <
-1 -20 5 -2 76.48 -219.57 178.57 <
-1 -20 5 -1 457.68 819.35 394.34 <
-1 -20 5 0 108.68 1.82 38.87 <
-1 -20 5 1 30.96 110.54 141.67 <
-1 -20 5 2 117.87 -24.45 138.94 <
0 -20 5 -2 178.45 109.33 145.62 <
0 -20 5 -1 409.74 52.23 105.23 <
0 -20 5 0 7.13 66.51 150.63 <
0 -20 5 1 33.19 166.57 188.74 <
0 -20 5 2 97.38 -156.85 186.92 <
1 -20 5 -2 14.48 -254.03 143.95 <
1 -20 5 -1 21.05 18.37 97.03 <
1 -20 5 0 71.74 -43.43 94.45 <
1 -20 5 1 119.70 242.80 150.78 <
1 -20 5 2 192.20 559.54 273.17 <
2 -20 5 -2 29.29 -42.36 84.73 <
2 -20 5 -1 69.33 15.18 52.69 <
2 -20 5 0 518.54 342.41 225.18 <
2 -20 5 1 169.11 -73.49 105.99 <
3 -20 5 -2 5.04 154.73 156.25 <
3 -20 5 -1 70.18 65.90 105.38 <
-2 -19 5 -2 62.95 -0.61 40.85 <
-2 -19 5 -1 167.30 363.06 300.95 <
-2 -19 5 0 682.47 775.61 376.57 <
-2 -19 5 1 7.48 103.40 136.20 <
-2 -19 5 2 50.88 -358.35 248.87 <
-1 -19 5 -2 90.84 -54.66 140.00 <
-1 -19 5 -1 472.12 821.62 368.67 <
-1 -19 5 0 133.07 -185.55 177.20 <
-1 -19 5 1 58.52 -163.99 166.88 <
-1 -19 5 2 18.45 -321.60 230.35 <
0 -19 5 -2 5.75 -194.21 187.98 <
0 -19 5 -1 205.53 96.12 137.27 <
0 -19 5 0 352.45 274.23 39.02 o
0 -19 5 1 162.68 299.43 244.32 <
0 -19 5 2 52.32 -111.45 152.91 <
1 -19 5 -2 391.24 242.80 137.42 <
1 -19 5 -1 262.72 33.10 106.44 <
1 -19 5 0 101.30 113.28 100.67 <
1 -19 5 1 509.90 461.15 187.53 <
1 -19 5 2 136.27 -199.83 140.61 <
2 -19 5 -2 0.05 -158.98 151.99 <
2 -19 5 -1 15.40 116.01 122.08 <
2 -19 5 0 560.76 746.01 320.54 <
2 -19 5 1 27.69 116.16 129.07 <
3 -19 5 -2 176.10 -56.79 94.45 <
3 -19 5 -1 476.71 -36.59 78.05 <
-2 -18 5 -2 139.07 -39.02 81.39 <
-2 -18 5 -1 118.60 0.61 128.16 <
-2 -18 5 0 1336.85 1255.89 499.41 <
-2 -18 5 1 385.52 640.63 339.98 <
-2 -18 5 2 682.34 582.47 307.18 <
-1 -18 5 -2 260.93 289.87 167.48 <
-1 -18 5 -1 29.75 64.84 104.47 <
-1 -18 5 0 137.79 455.83 265.88 <
-1 -18 5 1 107.66 295.79 201.65 <
-1 -18 5 2 17.73 -47.98 84.73 <
0 -18 5 -1 139.96 331.93 240.67 <
0 -18 5 0 4540.60 5435.83 995.48 o
0 -18 5 1 1208.46 1510.38 534.79 <
0 -18 5 2 559.39 818.13 375.36 <
1 -18 5 -2 34.12 75.47 110.69 <
1 -18 5 -1 73.32 199.98 140.76 <
1 -18 5 0 257.37 228.52 146.23 <
1 -18 5 1 59.48 183.88 158.52 <
1 -18 5 2 20.18 -180.24 137.72 <
2 -18 5 -2 256.68 -40.09 78.65 <
2 -18 5 -1 21.64 14.12 50.26 <
2 -18 5 0 2013.40 1528.91 445.96 o
2 -18 5 1 1477.60 1686.37 469.04 o
3 -18 5 -2 57.43 -29.15 68.18 <
3 -18 5 -1 143.77 378.39 228.22 <
-3 -17 5 -1 1804.14 2571.31 718.67 o
-3 -17 5 0 2361.16 2587.86 693.77 o
-3 -17 5 1 321.94 37.81 146.53 <
-3 -17 5 2 76.67 -253.88 210.15 <
-2 -17 5 -2 38.41 7.44 155.64 <
-2 -17 5 -1 151.59 369.13 296.40 <
-2 -17 5 0 1014.51 1850.97 553.62 o
-2 -17 5 1 266.29 433.51 259.50 <
-2 -17 5 2 60.85 -282.28 208.94 <
-1 -17 5 -2 58.36 117.83 127.55 <
-1 -17 5 -1 652.46 721.10 316.14 <
-1 -17 5 0 5721.08 5598.91 915.77 o
-1 -17 5 1 249.00 528.57 276.51 <
-1 -17 5 2 75.76 -36.90 60.74 <
0 -17 5 0 242.30 264.36 211.97 <
0 -17 5 1 12.96 0.61 84.58 <
0 -17 5 2 16.23 178.26 97.64 <
1 -17 5 -2 321.97 307.48 148.20 <
1 -17 5 -1 869.76 507.16 186.62 <
1 -17 5 0 5762.30 6211.75 688.46 o
1 -17 5 1 12.19 -95.36 114.19 <
1 -17 5 2 210.40 -121.02 95.36 <
2 -17 5 -2 50.07 419.09 227.76 <
2 -17 5 -1 866.64 576.70 273.17 <
2 -17 5 0 1223.96 1201.69 389.63 o
2 -17 5 1 38.16 415.60 221.99 <
3 -17 5 -1 11.49 -88.52 109.63 <
-3 -16 5 -2 147.58 184.64 194.21 <
-3 -16 5 -1 642.66 1053.49 474.81 <
-3 -16 5 0 587.48 416.51 335.73 <
-3 -16 5 1 103.08 -448.39 275.90 <
-3 -16 5 2 24.48 1.06 35.83 <
-2 -16 5 -2 597.79 353.64 237.94 <
-2 -16 5 -1 66.13 -118.29 137.11 <
-2 -16 5 0 764.27 717.00 306.57 <
-2 -16 5 1 48.91 168.09 170.37 <
-2 -16 5 2 93.27 32.34 157.76 <
-1 -16 5 -2 106.93 57.85 54.66 <
-1 -16 5 -1 703.07 749.80 319.93 <
-1 -16 5 0 1521.33 1093.42 385.98 <
-1 -16 5 1 72.90 -21.56 116.62 <
-1 -16 5 2 32.26 -25.97 42.06 <
0 -16 5 1 64.84 47.98 67.87 <
0 -16 5 2 133.97 43.88 62.86 <
1 -16 5 -2 37.10 -109.93 90.95 <
1 -16 5 -1 63.78 -50.26 44.03 <
1 -16 5 0 1270.94 1264.70 300.95 o
1 -16 5 1 318.39 189.35 111.30 <
1 -16 5 2 8.03 46.77 72.13 <
2 -16 5 -2 102.76 18.37 48.59 <
2 -16 5 -1 11.49 -108.11 111.91 <
2 -16 5 0 1170.99 680.86 271.04 <
2 -16 5 1 317.70 420.61 246.90 <
-3 -15 5 -2 69.58 43.88 93.23 <
-3 -15 5 -1 483.92 550.13 345.44 <
-3 -15 5 0 874.82 869.61 413.77 <
-3 -15 5 1 36.31 -31.74 58.76 <
-3 -15 5 2 51.40 413.17 294.73 <
-2 -15 5 -2 414.57 432.15 325.25 <
-2 -15 5 -1 333.68 765.59 343.92 <
-2 -15 5 0 811.30 836.96 332.08 <
-2 -15 5 1 11.31 0.91 53.60 <
-2 -15 5 2 24.59 -48.74 122.99 <
-1 -15 5 -2 64.51 -269.22 189.35 <
-1 -15 5 -1 5803.87 5680.15 873.10 o
-1 -15 5 0 3373.30 3601.11 680.11 o
-1 -15 5 1 146.92 21.11 80.17 <
-1 -15 5 2 186.23 170.98 149.57 <
0 -15 5 0 3694.81 4210.61 422.43 o
0 -15 5 1 2.61 -77.44 72.58 <
0 -15 5 2 75.04 217.59 89.44 <
1 -15 5 -2 5.23 49.80 85.18 <
1 -15 5 -1 1423.49 941.28 184.49 o
1 -15 5 0 3303.31 3206.93 342.41 o
1 -15 5 1 1518.02 1050.91 188.29 o
1 -15 5 2 58.20 64.99 121.17 <
2 -15 5 -2 67.71 61.95 60.13 <
2 -15 5 -1 281.82 66.05 83.97 <
2 -15 5 0 1003.37 939.15 311.28 o
2 -15 5 1 351.52 766.96 294.12 <
2 -15 5 2 45.54 284.86 171.74 <
-4 -14 5 2 7.91 137.72 251.15 <
-3 -14 5 -2 24.89 -166.88 171.28 <
-3 -14 5 -1 79.63 54.36 92.62 <
-3 -14 5 0 1916.62 1981.25 537.07 o
-3 -14 5 1 36.51 -106.90 130.89 <
-3 -14 5 2 382.95 97.03 121.32 <
-2 -14 5 -2 31.37 342.86 220.02 <
-2 -14 5 -1 935.76 1346.70 450.37 <
-2 -14 5 0 465.82 566.07 232.62 <
-2 -14 5 1 45.16 35.68 73.04 <
-2 -14 5 2 25.25 -110.85 122.08 <
-1 -14 5 -2 71.97 170.37 167.33 <
-1 -14 5 -1 1649.04 1795.70 483.17 o
-1 -14 5 0 4108.58 3924.54 696.96 o
-1 -14 5 1 295.89 80.93 134.38 <
-1 -14 5 2 631.59 618.61 151.39 o
0 -14 5 -2 141.64 65.90 74.25 <
0 -14 5 -1 1683.51 1886.35 406.64 o
0 -14 5 0 3311.48 3352.09 378.70 o
0 -14 5 1 638.29 548.76 163.08 o
0 -14 5 2 11.89 -9.57 45.55 <
1 -14 5 -2 239.21 213.95 105.38 <
1 -14 5 -1 69.59 46.77 42.21 <
1 -14 5 0 4039.72 3332.50 334.81 o
1 -14 5 1 3257.41 3327.34 334.05 o
1 -14 5 2 230.81 -9.57 104.77 <
2 -14 5 -2 124.02 -52.99 72.58 <
2 -14 5 -1 314.77 155.79 123.30 <
2 -14 5 0 770.66 898.91 290.17 o
2 -14 5 1 331.10 465.86 209.39 <
2 -14 5 2 27.99 80.93 88.83 <
-4 -13 5 0 798.28 879.93 413.01 <
-4 -13 5 1 297.02 418.93 271.80 <
-4 -13 5 2 80.64 3.95 122.23 <
-3 -13 5 -2 85.51 -90.65 124.06 <
-3 -13 5 -1 24.65 -71.06 118.74 <
-3 -13 5 0 4262.85 4240.83 819.50 o
-3 -13 5 1 63.35 325.10 263.75 <
-3 -13 5 2 75.43 82.15 120.56 <
-2 -13 5 -2 896.97 751.78 340.43 <
-2 -13 5 -1 2852.60 2670.01 584.14 o
-2 -13 5 0 5722.11 4353.04 738.11 o
-2 -13 5 1 453.57 291.84 196.49 <
-2 -13 5 2 130.12 53.60 125.42 <
-1 -13 5 -2 29.20 -297.01 184.64 <
-1 -13 5 -1 2788.38 2823.68 558.33 o
-1 -13 5 0 10430.50 8151.70 661.12 o
-1 -13 5 1 722.19 727.63 197.09 o
-1 -13 5 2 48.62 -33.41 63.32 <
0 -13 5 -2 161.46 150.02 114.19 <
0 -13 5 -1 1687.99 1859.02 267.40 o
0 -13 5 0 10113.40 10682.90 661.28 o
0 -13 5 1 227.56 290.17 110.24 <
0 -13 5 2 45.86 11.54 74.86 <
1 -13 5 -2 70.69 -36.90 41.76 <
1 -13 5 -1 513.85 482.41 124.21 o
1 -13 5 0 10124.10 8827.86 535.25 o
1 -13 5 1 1107.84 758.61 137.72 o
1 -13 5 2 5.12 -28.70 51.63 <
2 -13 5 -2 216.02 87.92 61.34 <
2 -13 5 -1 78.10 -11.08 26.57 <
2 -13 5 0 5351.85 5186.81 670.08 o
2 -13 5 1 46.52 111.61 99.31 <
2 -13 5 2 129.70 196.03 131.50 <
-4 -12 5 -1 219.83 170.52 175.38 <
-4 -12 5 0 144.22 26.57 74.86 <
-4 -12 5 1 156.82 94.60 129.52 <
-4 -12 5 2 88.18 -254.79 203.47 <
-3 -12 5 -2 28.33 154.42 227.01 <
-3 -12 5 -1 225.77 566.22 301.86 <
-3 -12 5 0 2987.11 2221.62 578.07 o
-3 -12 5 1 415.22 356.83 222.60 <
-3 -12 5 2 90.41 -46.16 75.01 <
-2 -12 5 -2 470.95 164.75 176.90 <
-2 -12 5 -1 173.35 223.21 163.69 <
-2 -12 5 0 656.03 644.27 266.48 <
-2 -12 5 1 434.32 216.68 170.82 <
-2 -12 5 2 215.22 189.80 117.38 <
-1 -12 5 -2 503.79 270.58 128.91 <
-1 -12 5 -1 1656.72 1649.17 275.75 o
-1 -12 5 0 8885.25 7275.57 613.29 o
-1 -12 5 1 88.49 45.10 45.55 <
-1 -12 5 2 91.56 57.40 80.17 <
0 -12 5 -2 38.36 6.98 54.66 <
0 -12 5 -1 132.01 40.54 48.74 <
0 -12 5 0 1159.97 1193.49 213.19 o
0 -12 5 1 512.54 461.15 133.32 o
0 -12 5 2 156.23 41.76 46.01 <
1 -12 5 -2 193.47 71.37 70.61 <
1 -12 5 -1 10.18 -20.65 40.85 <
1 -12 5 0 9762.00 8980.92 515.66 o
1 -12 5 1 2174.67 1959.69 232.32 o
1 -12 5 2 146.05 45.40 54.21 <
2 -12 5 -2 33.97 -84.73 64.08 <
2 -12 5 -1 265.83 134.99 72.88 <
2 -12 5 0 312.35 73.64 91.87 <
2 -12 5 1 275.21 128.46 97.33 <
2 -12 5 2 82.77 119.20 98.09 <
-4 -11 5 -2 22.18 -64.84 109.33 <
-4 -11 5 -1 1297.29 2027.11 581.71 o
-4 -11 5 0 3831.94 3341.46 731.12 o
-4 -11 5 1 171.66 575.79 306.72 <
-4 -11 5 2 161.21 32.95 77.59 <
-3 -11 5 -2 30.03 159.59 109.02 <
-3 -11 5 -1 56.79 124.51 170.67 <
-3 -11 5 0 2039.44 2158.45 551.19 o
-3 -11 5 1 122.04 42.52 79.41 <
-3 -11 5 2 187.25 83.06 104.32 <
-2 -11 5 -2 1130.25 1113.77 366.85 o
-2 -11 5 -1 3553.45 3890.07 655.66 o
-2 -11 5 0 13134.10 14008.10 1249.37 o
-2 -11 5 1 394.10 127.09 61.80 <
-2 -11 5 2 346.20 110.24 64.53 <
-1 -11 5 -2 126.37 63.93 77.44 <
-1 -11 5 -1 1643.20 1875.87 284.86 o
-1 -11 5 0 4780.26 3733.37 332.69 o
-1 -11 5 1 319.13 231.71 88.52 <
-1 -11 5 2 115.55 58.76 54.06 <
0 -11 5 -2 63.26 63.17 40.39 <
0 -11 5 -1 4209.94 3919.38 379.00 o
0 -11 5 0 45165.40 44915.10 1309.80 o
0 -11 5 1 24.72 -68.18 58.16 <
0 -11 5 2 298.45 458.26 127.55 o
1 -11 5 -2 100.90 -8.35 27.03 <
1 -11 5 -1 8.48 73.34 55.12 <
1 -11 5 0 5231.28 4500.48 469.04 o
1 -11 5 1 375.21 220.32 76.68 <
1 -11 5 2 746.32 428.20 137.87 o
2 -11 5 -2 53.70 -2.58 21.56 <
2 -11 5 -1 1035.11 869.45 207.57 o
2 -11 5 1 145.14 128.61 96.88 <
2 -11 5 2 68.97 72.28 57.09 <
3 -11 5 -2 114.06 8.35 24.75 <
-4 -10 5 -2 5.83 221.39 259.96 <
-4 -10 5 -1 98.74 -236.12 196.18 <
-4 -10 5 0 826.26 808.26 352.12 <
-4 -10 5 1 456.26 171.13 72.58 <
-4 -10 5 2 30.90 -153.97 151.84 <
-3 -10 5 -2 159.51 346.81 228.37 <
-3 -10 5 -1 1764.07 3321.57 660.67 o
-3 -10 5 0 195.54 234.14 153.36 <
-3 -10 5 1 131.22 310.67 180.85 <
-3 -10 5 2 111.59 148.20 141.21 <
-2 -10 5 -2 1237.91 1312.53 393.12 o
-2 -10 5 -1 202.63 203.62 145.47 <
-2 -10 5 0 2126.01 1940.40 447.63 o
-2 -10 5 1 316.95 49.20 121.02 <
-2 -10 5 2 31.92 30.98 86.70 <
-1 -10 5 -2 312.33 220.78 99.61 <
-1 -10 5 -1 56.25 54.82 57.40 <
-1 -10 5 0 60.34 57.40 55.73 <
-1 -10 5 1 850.46 1064.42 183.27 o
-1 -10 5 2 161.18 2.58 66.36 <
0 -10 5 -2 60.54 140.76 56.18 <
0 -10 5 -1 120.65 63.17 57.40 <
0 -10 5 0 13914.00 13448.10 717.61 o
0 -10 5 1 220.92 -70.15 83.82 <
0 -10 5 2 45.27 66.81 126.64 <
1 -10 5 -2 60.71 -51.02 44.34 <
1 -10 5 -1 1146.32 963.14 203.32 o
1 -10 5 0 181.84 73.49 74.56 <
1 -10 5 1 207.62 41.91 54.66 <
1 -10 5 2 38.37 -46.16 38.57 <
2 -10 5 -2 18.85 -11.24 54.66 <
2 -10 5 -1 132.87 105.38 70.76 <
2 -10 5 0 1775.20 1534.38 242.80 o
3 -10 5 -2 6.18 51.93 52.99 <
-4 -9 5 -2 391.41 179.33 228.83 <
-4 -9 5 -1 29.71 -75.31 111.61 <
-4 -9 5 0 5954.73 6051.71 956.16 o
-4 -9 5 1 43.49 101.74 122.08 <
-4 -9 5 2 310.91 67.72 86.70 <
-3 -9 5 -2 131.22 169.76 109.48 <
-3 -9 5 -1 4134.51 5243.60 814.64 o
-3 -9 5 0 3080.78 1782.49 463.42 o
-3 -9 5 1 387.54 809.78 312.34 <
-3 -9 5 2 67.78 319.17 205.44 <
-2 -9 5 -2 88.76 -36.59 69.54 <
-2 -9 5 -1 102.21 91.26 111.76 <
-2 -9 5 0 16540.10 16517.00 1267.74 o
-2 -9 5 1 745.91 405.42 207.42 <
-2 -9 5 2 110.48 -2.43 49.65 <
-1 -9 5 -2 127.10 85.64 75.16 <
-1 -9 5 -1 946.61 968.15 155.03 o
-1 -9 5 0 12979.40 10655.60 442.47 o
-1 -9 5 1 773.14 574.73 120.87 o
-1 -9 5 2 25.22 25.81 69.09 <
0 -9 5 -2 270.58 166.72 77.14 <
0 -9 5 -1 365.42 299.74 72.73 o
0 -9 5 0 82725.80 79913.80 1237.07 o
0 -9 5 1 2222.76 2330.19 446.87 o
0 -9 5 2 57.75 18.37 63.01 <
1 -9 5 -2 22.51 206.05 110.85 <
1 -9 5 -1 631.99 667.05 171.43 o
1 -9 5 0 14054.50 11694.80 660.67 o
1 -9 5 1 108.30 27.64 37.66 <
1 -9 5 2 27.28 41.30 26.57 <
2 -9 5 -2 233.01 233.08 106.14 <
2 -9 5 -1 231.55 285.31 99.31 <
2 -9 5 0 15668.70 17442.20 754.96 o
3 -9 5 -2 62.33 9.11 24.14 <
-4 -8 5 -2 11.77 85.34 116.77 <
-4 -8 5 -1 0.35 29.61 77.14 <
-4 -8 5 0 1341.95 1204.88 432.90 <
-4 -8 5 1 789.56 547.40 272.26 <
-3 -8 5 -2 31.68 56.64 76.68 <
-3 -8 5 -1 860.26 1180.58 367.92 o
-3 -8 5 0 993.13 1109.97 356.53 o
-3 -8 5 1 1487.66 838.33 304.75 <
-3 -8 5 2 312.60 326.77 178.87 <
-2 -8 5 -2 1046.90 1116.81 342.25 o
-2 -8 5 -1 134.73 114.19 97.48 <
-2 -8 5 0 5162.13 4512.02 646.70 o
-2 -8 5 1 261.96 136.20 69.85 <
-2 -8 5 2 44.75 75.77 52.69 <
-1 -8 5 -2 141.25 121.02 73.80 <
-1 -8 5 -1 770.46 850.62 146.68 o
-1 -8 5 0 4266.97 3951.26 262.69 o
-1 -8 5 1 3517.16 2831.88 216.53 o
-1 -8 5 2 410.32 430.17 111.00 o
0 -8 5 -2 417.80 373.84 83.21 o
0 -8 5 -1 1346.44 1732.07 175.38 o
0 -8 5 0 19916.80 19664.30 842.43 o
0 -8 5 1 711.72 688.46 254.95 <
0 -8 5 2 143.22 -21.26 49.20 <
1 -8 5 -2 127.23 16.40 13.82 <
1 -8 5 -1 138.32 73.49 33.86 <
1 -8 5 0 4171.95 3897.05 353.34 o
1 -8 5 1 855.94 920.17 118.74 o
1 -8 5 2 13.44 7.90 17.16 <
2 -8 5 -2 305.99 109.63 76.23 <
2 -8 5 -1 822.11 716.70 143.79 o
2 -8 5 0 5228.07 4711.69 355.77 o
3 -8 5 -2 93.11 -43.43 67.87 <
-5 -7 5 2 71.92 58.92 100.52 <
-4 -7 5 -2 30.38 -129.52 140.91 <
-4 -7 5 -1 61.06 -112.36 127.70 <
-4 -7 5 0 196.03 411.65 191.63 <
-4 -7 5 1 224.23 64.38 119.50 <
-4 -7 5 2 83.44 -184.95 153.66 <
-3 -7 5 -2 142.79 465.86 218.35 <
-3 -7 5 -1 721.47 946.89 326.61 <
-3 -7 5 0 6936.27 10897.30 1072.92 o
-3 -7 5 1 360.64 456.14 218.65 <
-3 -7 5 2 257.73 -33.71 155.64 <
-2 -7 5 -2 377.58 201.19 166.12 <
-2 -7 5 -1 163.62 211.37 204.99 <
-2 -7 5 0 47.93 32.65 45.55 <
-2 -7 5 1 246.13 -42.97 74.10 <
-2 -7 5 2 29.40 -49.65 51.47 <
-1 -7 5 -2 17.18 -12.30 51.02 <
-1 -7 5 -1 6657.68 7028.97 329.04 o
-1 -7 5 0 27232.10 23842.60 631.82 o
-1 -7 5 1 525.12 445.81 89.59 o
-1 -7 5 2 357.55 86.10 57.40 <
0 -7 5 -2 21.66 22.62 35.53 <
0 -7 5 -1 638.75 404.05 80.17 o
0 -7 5 0 4511.11 4753.30 618.61 o
0 -7 5 1 214.41 428.05 119.20 o
0 -7 5 2 66.97 41.60 64.38 <
1 -7 5 -2 46.69 24.14 28.39 <
1 -7 5 -1 276.12 88.07 50.26 <
1 -7 5 0 26573.00 24287.90 588.54 o
1 -7 5 1 440.65 383.71 58.16 o
1 -7 5 2 3.48 35.08 51.78 <
2 -7 5 -2 132.27 28.55 19.59 <
2 -7 5 -1 379.79 219.57 78.96 <
2 -7 5 0 87.87 9.57 17.92 <
3 -7 5 -2 138.63 21.71 37.35 <
3 -7 5 -1 7.30 -34.16 37.20 <
-5 -6 5 2 94.51 -296.40 216.98 <
-4 -6 5 -2 474.23 1259.84 422.28 <
-4 -6 5 -1 639.36 575.64 259.96 <
-4 -6 5 0 765.07 844.85 336.64 <
-4 -6 5 1 246.33 0.91 78.20 <
-4 -6 5 2 97.84 249.18 175.38 <
-3 -6 5 -2 2.12 -38.11 144.40 <
-3 -6 5 -1 1479.39 1683.49 429.11 o
-3 -6 5 0 2036.37 2265.50 479.22 o
-3 -6 5 1 1080.78 901.65 306.72 <
-3 -6 5 2 79.17 92.62 111.30 <
-2 -6 5 -2 462.67 98.09 93.69 <
-2 -6 5 -1 2253.56 2322.29 443.08 o
-2 -6 5 0 6797.06 8064.09 802.19 o
-2 -6 5 1 253.63 51.32 54.82 <
-2 -6 5 2 358.65 30.98 51.17 <
-1 -6 5 -2 52.58 63.32 48.44 <
-1 -6 5 -1 2023.91 1752.42 156.55 o
-1 -6 5 0 3954.99 4123.91 251.45 o
-1 -6 5 1 1986.83 1892.57 217.44 o
-1 -6 5 2 59.51 148.65 55.57 <
0 -6 5 -2 96.30 60.43 37.66 <
0 -6 5 -1 539.65 539.95 138.63 o
0 -6 5 0 1211.29 1246.94 178.11 o
0 -6 5 1 1076.09 1348.06 179.63 o
0 -6 5 2 88.06 5.92 31.89 <
1 -6 5 -2 19.64 -5.47 25.51 <
1 -6 5 -1 816.86 717.76 92.47 o
1 -6 5 0 3498.25 3380.03 150.93 o
1 -6 5 1 60.17 102.95 62.56 <
1 -6 5 2 154.12 51.02 40.69 <
2 -6 5 -2 53.42 13.82 15.94 <
2 -6 5 -1 647.07 325.10 80.32 o
2 -6 5 0 6887.01 7124.03 354.55 o
3 -6 5 -2 59.64 -31.28 32.04 <
3 -6 5 -1 149.02 14.88 24.75 <
-5 -5 5 1 34.61 80.32 115.40 <
-4 -5 5 -2 391.29 534.94 273.01 <
-4 -5 5 -1 857.53 892.08 346.05 <
-4 -5 5 0 2586.24 2903.39 613.90 o
-4 -5 5 1 142.07 60.43 90.04 <
-4 -5 5 2 436.39 255.10 174.92 <
-3 -5 5 -2 169.68 290.48 159.74 <
-3 -5 5 -1 335.15 339.67 211.52 <
-3 -5 5 0 2817.68 2962.46 547.85 o
-3 -5 5 1 227.26 -3.80 54.21 <
-3 -5 5 2 86.56 60.74 71.82 <
-2 -5 5 -2 689.73 688.00 249.93 <
-2 -5 5 -1 2837.21 3103.98 500.93 o
-2 -5 5 0 18830.70 18941.50 1198.95 o
-2 -5 5 1 670.70 1152.49 210.30 o
-2 -5 5 2 381.88 286.07 71.52 o
-1 -5 5 -2 51.22 22.93 34.16 <
-1 -5 5 -1 2979.96 2800.60 237.63 o
-1 -5 5 0 10095.50 10294.20 381.43 o
-1 -5 5 1 2873.76 1767.76 210.00 o
-1 -5 5 2 84.18 174.47 85.34 <
0 -5 5 -2 180.48 251.91 73.64 o
0 -5 5 -1 3277.56 3586.99 332.39 o
0 -5 5 0 39439.10 39865.50 806.74 o
0 -5 5 1 949.51 1061.38 167.63 o
0 -5 5 2 32.13 48.59 47.38 <
1 -5 5 -2 49.85 -7.44 17.92 <
1 -5 5 -1 32.81 30.98 23.99 <
1 -5 5 0 10333.10 10654.70 434.73 o
1 -5 5 1 2034.55 1676.35 210.00 o
1 -5 5 2 510.03 520.97 112.67 o
2 -5 5 -2 58.13 21.11 21.56 <
2 -5 5 -1 396.63 68.18 29.91 <
2 -5 5 0 19930.70 21245.60 595.68 o
2 -5 5 1 910.58 1212.92 152.15 o
3 -5 5 -2 28.42 91.71 63.47 <
3 -5 5 -1 261.52 258.29 90.80 <
-5 -4 5 -1 156.97 -89.28 111.15 <
-5 -4 5 0 85.44 77.14 98.55 <
-5 -4 5 1 270.03 198.00 177.51 <
-5 -4 5 2 11.03 -271.04 204.23 <
-4 -4 5 -2 95.78 -42.21 151.99 <
-4 -4 5 -1 246.32 760.28 322.82 <
-4 -4 5 0 831.31 618.15 290.48 <
-4 -4 5 1 723.46 428.35 153.82 <
-4 -4 5 2 161.44 -107.81 76.98 <
-3 -4 5 -2 116.16 81.84 79.26 <
-3 -4 5 -1 124.77 44.34 80.78 <
-3 -4 5 0 1057.01 1344.72 360.93 o
-3 -4 5 1 275.95 20.35 78.81 <
-3 -4 5 2 3.31 39.33 28.39 <
-2 -4 5 -2 474.48 510.65 221.84 <
-2 -4 5 -1 407.25 540.71 198.00 <
-2 -4 5 0 3853.73 3446.54 494.55 o
-2 -4 5 1 2671.75 2091.34 203.93 o
-2 -4 5 2 371.38 242.34 67.42 o
-1 -4 5 -2 274.08 362.60 107.05 o
-1 -4 5 -1 2468.83 2938.01 242.34 o
-1 -4 5 0 3944.73 3819.01 222.15 o
-1 -4 5 1 96.80 -3.34 33.25 <
-1 -4 5 2 34.31 -70.15 49.65 <
0 -4 5 -2 20.66 -29.91 54.51 <
0 -4 5 -1 153.81 94.45 38.72 <
0 -4 5 0 13624.10 14500.00 471.32 o
0 -4 5 1 3286.58 3405.69 228.52 o
0 -4 5 2 225.27 83.36 36.90 <
1 -4 5 -2 40.89 10.63 8.35 <
1 -4 5 -1 1359.60 1273.05 222.45 o
1 -4 5 0 3856.60 3613.26 319.33 o
2 -4 5 -2 78.01 46.77 27.64 <
2 -4 5 -1 257.47 127.85 44.19 <
2 -4 5 0 3425.87 3527.32 242.65 o
3 -4 5 -2 98.27 6.38 30.82 <
3 -4 5 -1 1000.67 882.06 189.80 o
4 -4 5 -2 128.65 165.96 96.72 <
-5 -3 5 -1 112.59 -146.68 142.12 <
-5 -3 5 0 316.60 88.68 90.35 <
-5 -3 5 1 78.57 -130.59 97.33 <
-5 -3 5 2 8.93 -141.97 148.65 <
-4 -3 5 -2 38.54 106.44 133.17 <
-4 -3 5 -1 391.59 1100.71 256.46 o
-4 -3 5 0 98.93 75.92 83.51 <
-4 -3 5 1 149.03 -32.49 42.06 <
-4 -3 5 2 2.26 -43.12 62.71 <
-3 -3 5 -2 22.93 138.18 89.74 <
-3 -3 5 -1 498.92 404.66 186.01 <
-3 -3 5 0 2179.17 2142.81 451.58 o
-3 -3 5 1 249.20 97.03 65.90 <
-3 -3 5 2 18.26 -1.97 19.28 <
-2 -3 5 -2 1727.47 1518.13 350.30 o
-2 -3 5 -1 59.22 64.69 43.12 <
-2 -3 5 0 259.28 249.93 91.41 <
-2 -3 5 1 73.61 17.77 36.14 <
-2 -3 5 2 2.95 43.73 33.41 <
-1 -3 5 -2 33.04 4.40 49.35 <
-1 -3 5 -1 3801.57 4388.12 230.65 o
-1 -3 5 0 9320.69 9585.71 350.91 o
-1 -3 5 1 172.68 46.01 44.34 <
-1 -3 5 2 58.88 65.44 33.25 <
0 -3 5 -2 84.34 81.39 26.72 o
0 -3 5 -1 663.77 637.74 96.57 o
0 -3 5 0 317.33 375.36 75.16 o
0 -3 5 1 494.22 457.05 82.45 o
0 -3 5 2 9.01 -20.80 67.42 <
1 -3 5 -1 474.66 248.57 73.49 o
2 -3 5 -2 142.59 71.82 30.98 <
3 -3 5 -2 16.71 -5.77 46.31 <
3 -3 5 -1 586.22 435.79 131.19 o
3 -3 5 0 2054.56 2141.75 305.81 o
4 -3 5 -2 154.28 74.40 66.36 <
-5 -2 5 -1 287.64 477.24 249.33 <
-5 -2 5 0 245.29 130.43 130.89 <
-5 -2 5 1 295.07 -65.44 110.85 <
-5 -2 5 2 94.37 16.70 93.99 <
-4 -2 5 -2 344.31 515.66 171.28 o
-4 -2 5 -1 627.32 598.57 193.30 o
-4 -2 5 0 9.55 65.60 59.37 <
-4 -2 5 1 581.21 625.29 176.90 o
-4 -2 5 2 152.39 17.77 94.29 <
-3 -2 5 -2 381.46 617.39 261.32 <
-3 -2 5 -1 2759.78 3911.18 408.91 o
-3 -2 5 0 1156.98 1174.81 213.34 o
-3 -2 5 1 422.09 591.73 147.14 o
-3 -2 5 2 197.53 86.55 65.14 <
-2 -2 5 -2 1945.52 1546.22 341.49 o
-2 -2 5 -1 2059.47 2441.79 267.85 o
-2 -2 5 0 1061.30 1159.78 147.90 o
-2 -2 5 1 970.00 632.58 111.45 o
-2 -2 5 2 267.47 90.95 35.53 <
-1 -2 5 -2 37.43 10.78 36.44 <
-1 -2 5 -1 2694.38 2849.64 184.64 o
-1 -2 5 0 5715.93 5586.46 264.51 o
-1 -2 5 1 1224.02 1159.02 139.70 o
-1 -2 5 2 246.28 96.57 47.07 <
0 -2 5 -2 27.32 -7.59 23.69 <
0 -2 5 -1 665.10 475.12 81.08 o
0 -2 5 0 3096.75 3224.39 211.21 o
0 -2 5 1 2574.54 2970.20 208.78 o
0 -2 5 2 61.53 6.38 61.65 <
1 -2 5 -2 22.01 -18.83 33.10 <
3 -2 5 -2 215.39 -2.73 10.78 <
3 -2 5 -1 778.75 353.95 127.25 <
4 -2 5 -2 31.25 -117.68 84.42 <
-5 -1 5 -1 33.94 282.12 199.07 <
-5 -1 5 0 1135.22 899.97 344.53 <
-5 -1 5 1 74.98 -126.33 90.95 <
-5 -1 5 2 203.99 135.75 101.89 <
-4 -1 5 -2 228.43 376.72 161.71 <
-4 -1 5 -1 193.43 172.80 97.94 <
-4 -1 5 0 177.63 2.28 80.48 <
-4 -1 5 1 23.89 -14.12 44.19 <
-4 -1 5 2 69.02 -86.10 77.44 <
-3 -1 5 -2 45.75 72.88 84.58 <
-3 -1 5 -1 882.77 1123.34 224.42 o
-3 -1 5 0 7493.66 7313.22 547.85 o
-3 -1 5 1 208.32 375.20 119.20 o
-3 -1 5 2 373.67 193.15 83.82 <
-2 -1 5 -2 126.48 151.54 63.93 <
-2 -1 5 -1 113.70 11.24 51.78 <
-2 -1 5 0 5867.74 6044.72 341.49 o
-2 -1 5 1 45.50 73.34 41.45 <
-2 -1 5 2 93.02 -5.01 32.65 <
-1 -1 5 -2 298.94 306.42 68.94 o
-1 -1 5 -1 132.51 165.05 50.56 o
-1 -1 5 0 26494.10 26833.30 576.70 o
-1 -1 5 1 1162.28 1310.25 150.63 o
-1 -1 5 2 179.44 113.88 50.56 <
0 -1 5 -2 111.19 -7.29 13.97 <
0 -1 5 -1 462.66 581.86 65.90 o
0 -1 5 0 1048.54 1248.45 126.18 o
0 -1 5 1 6.45 14.43 25.36 <
0 -1 5 2 495.88 457.20 116.46 o
1 -1 5 -2 167.11 40.39 58.16 <
1 -1 5 -1 3734.87 4112.22 513.99 o
1 -1 5 1 1368.09 1487.15 171.28 o
1 -1 5 2 31.07 22.02 21.11 <
2 -1 5 -2 11.69 19.74 31.74 <
3 -1 5 -2 189.75 16.55 25.66 <
4 -1 5 -2 7.23 -25.05 41.91 <
-5 0 5 -1 0.77 -191.02 165.81 <
-5 0 5 0 208.45 -125.57 131.80 <
-5 0 5 1 87.05 290.32 168.39 <
-5 0 5 2 41.52 -56.49 65.60 <
-4 0 5 -2 158.79 139.85 97.48 <
-4 0 5 -1 368.82 92.62 73.04 <
-4 0 5 0 89.42 13.21 58.00 <
-4 0 5 1 1.13 130.89 100.07 <
-4 0 5 2 5.75 25.21 64.84 <
-3 0 5 -2 116.34 -14.73 49.96 <
-3 0 5 -1 8.11 96.57 77.14 <
-3 0 5 0 564.24 -64.69 73.19 <
-3 0 5 1 92.65 3.95 67.72 <
-3 0 5 2 49.74 -76.07 51.02 <
-2 0 5 -2 104.01 -16.85 52.99 <
-2 0 5 -1 261.22 298.52 92.32 o
-2 0 5 0 37.05 37.96 36.90 <
-2 0 5 1 10.03 -34.92 38.72 <
-2 0 5 2 68.02 43.73 28.24 <
-1 0 5 -2 109.93 37.66 31.58 <
-1 0 5 -1 46.05 15.64 25.05 <
-1 0 5 0 575.70 2.73 25.51 <
-1 0 5 1 10.72 28.24 22.78 <
-1 0 5 2 4.64 21.56 22.93 <
0 0 5 -2 12.63 5.01 13.82 <
0 0 5 -1 160.10 -10.78 14.88 <
0 0 5 0 16.15 38.26 26.27 <
0 0 5 1 215.01 37.81 30.06 <
0 0 5 2 633.63 16.40 50.41 <
1 0 5 -2 12.70 -9.41 34.01 <
1 0 5 -1 222.99 12.75 53.30 <
1 0 5 0 102.01 31.13 21.56 <
1 0 5 1 100.18 -20.35 32.04 <
1 0 5 2 190.85 -26.12 50.41 <
2 0 5 -2 267.33 -10.33 8.35 <
2 0 5 -1 2.74 43.73 31.13 <
2 0 5 0 61.65 7.74 8.20 <
-5 1 5 -1 31.72 211.37 166.12 <
-5 1 5 0 1139.27 1453.14 447.33 o
-5 1 5 1 75.20 -15.18 128.31 <
-5 1 5 2 199.82 67.27 137.57 <
-4 1 5 -2 229.16 551.19 199.22 <
-4 1 5 -1 187.24 -96.27 79.57 <
-4 1 5 0 177.10 86.40 85.79 <
-4 1 5 1 23.67 122.39 98.70 <
-4 1 5 2 65.87 -70.15 65.44 <
-3 1 5 -2 42.46 -62.71 83.67 <
-3 1 5 -1 870.84 895.57 198.46 o
-3 1 5 0 7478.10 6554.31 522.80 o
-3 1 5 1 203.90 246.59 82.60 <
-3 1 5 2 367.63 260.87 94.60 <
-2 1 5 -2 127.05 24.75 28.85 <
-2 1 5 -1 113.83 32.04 52.69 <
-2 1 5 0 5902.85 6028.48 338.31 o
-2 1 5 1 45.80 46.16 41.76 <
-2 1 5 2 102.58 13.67 21.71 <
-1 1 5 -2 300.15 236.12 64.08 o
-1 1 5 -1 122.03 152.91 51.93 <
-1 1 5 0 26547.20 27898.10 679.19 o
-1 1 5 1 1155.96 1240.86 155.94 o
-1 1 5 2 176.71 117.98 38.72 o
0 1 5 -2 109.39 -0.46 17.01 <
0 1 5 -1 471.15 529.33 63.47 o
0 1 5 0 1021.83 1030.71 95.81 o
0 1 5 1 9.06 43.43 27.48 <
0 1 5 2 499.43 393.27 57.24 o
1 1 5 -2 172.05 39.33 35.68 <
1 1 5 -1 3744.20 3579.85 488.93 o
1 1 5 0 27899.80 29093.30 1430.06 o
1 1 5 1 1402.84 1643.25 356.22 o
1 1 5 2 32.02 157.16 138.33 <
2 1 5 -2 11.85 3.80 13.82 <
2 1 5 -1 346.00 295.49 46.77 o
2 1 5 0 5577.40 5294.16 206.51 o
-5 2 5 -1 281.71 569.11 307.48 <
-5 2 5 0 246.24 251.60 190.11 <
-5 2 5 1 293.16 25.21 87.61 <
-5 2 5 2 97.12 80.32 93.23 <
-4 2 5 -2 335.12 532.21 204.23 <
-4 2 5 -1 636.08 995.33 246.29 o
-4 2 5 0 16.02 -212.73 112.52 <
-4 2 5 1 595.33 439.13 158.83 <
-4 2 5 2 150.45 12.00 47.07 <
-3 2 5 -2 389.21 732.34 186.77 o
-3 2 5 -1 2763.88 4192.24 444.14 o
-3 2 5 0 1142.80 1116.35 218.05 o
-3 2 5 1 423.34 366.40 124.82 <
-3 2 5 2 200.93 101.43 63.93 <
-2 2 5 -2 1962.57 1307.07 210.30 o
-2 2 5 -1 2040.97 2436.78 285.01 o
-2 2 5 0 1056.00 1137.76 149.87 o
-2 2 5 1 977.59 483.17 96.72 o
-2 2 5 2 265.27 97.48 45.70 <
-1 2 5 -2 39.95 72.43 33.86 <
-1 2 5 -1 2702.05 2821.55 209.54 o
-1 2 5 0 5702.78 5893.19 317.35 o
-1 2 5 1 1223.74 1224.46 153.36 o
-1 2 5 2 248.80 97.79 53.30 <
0 2 5 -2 27.36 -8.81 30.52 <
0 2 5 -1 666.75 570.78 93.69 o
0 2 5 0 3052.81 3281.48 213.19 o
0 2 5 1 2559.47 2469.58 133.93 o
0 2 5 2 57.23 -5.92 18.07 <
1 2 5 -2 19.53 -169.00 97.33 <
1 2 5 -1 125.29 169.46 78.81 <
1 2 5 0 5658.11 5748.02 636.53 o
1 2 5 1 43.33 85.18 88.68 <
1 2 5 2 81.47 89.28 121.32 <
2 2 5 -2 43.38 11.54 13.51 <
2 2 5 -1 129.58 48.29 22.93 <
2 2 5 0 1133.52 1275.79 102.34 o
-5 3 5 -1 126.16 -19.59 61.34 <
-5 3 5 0 319.46 215.77 178.87 <
-5 3 5 1 81.36 248.41 138.48 <
-5 3 5 2 8.55 -280.45 144.55 <
-4 3 5 -2 31.62 -61.34 68.48 <
-4 3 5 -1 385.68 1415.33 306.27 o
-4 3 5 0 103.84 41.30 104.32 <
-4 3 5 1 140.02 97.64 83.82 <
-4 3 5 2 2.54 -8.81 110.24 <
-3 3 5 -2 20.59 254.95 119.04 <
-3 3 5 -1 470.15 164.29 86.25 <
-3 3 5 0 2163.17 2328.97 319.78 o
-3 3 5 1 231.85 50.11 64.84 <
-3 3 5 2 16.38 41.30 63.77 <
-2 3 5 -2 1719.66 2062.94 277.42 o
-2 3 5 -1 59.49 367.01 114.03 o
-2 3 5 0 265.87 251.45 68.03 o
-2 3 5 1 70.65 25.81 29.91 <
-2 3 5 2 4.14 3.80 44.79 <
-1 3 5 -2 37.02 70.00 41.15 <
-1 3 5 -1 3887.61 4501.24 337.70 o
-1 3 5 0 9329.99 9586.31 494.70 o
-1 3 5 1 190.10 92.62 57.09 <
-1 3 5 2 54.46 62.41 42.36 <
0 3 5 -2 88.12 25.05 29.31 <
0 3 5 -1 665.36 556.20 95.05 o
0 3 5 0 302.82 319.48 70.46 o
0 3 5 1 491.80 481.95 61.34 o
0 3 5 2 8.88 23.69 28.85 <
1 3 5 -2 29.11 52.39 51.32 <
1 3 5 -1 482.70 295.33 154.73 <
1 3 5 0 9204.65 8730.68 786.55 o
1 3 5 1 5422.96 5256.96 640.02 o
1 3 5 2 66.43 273.17 125.42 <
2 3 5 -2 138.90 92.78 37.66 <
2 3 5 -1 1241.70 645.33 74.86 o
2 3 5 0 265.58 182.82 39.48 o
-5 4 5 0 82.78 154.58 153.82 <
-5 4 5 1 266.06 21.26 80.63 <
-5 4 5 2 10.85 78.50 95.21 <
-4 4 5 -2 104.06 -53.45 62.26 <
-4 4 5 -1 255.41 352.28 150.93 <
-4 4 5 0 823.07 839.24 226.25 o
-4 4 5 1 713.88 469.35 162.78 <
-4 4 5 2 160.52 12.00 35.38 <
-3 4 5 -2 116.09 -14.12 75.77 <
-3 4 5 -1 120.00 70.15 69.70 <
-3 4 5 0 1035.77 821.02 187.98 o
-3 4 5 1 275.68 142.58 85.64 <
-3 4 5 2 3.01 -38.11 70.00 <
-2 4 5 -2 463.35 530.24 149.11 o
-2 4 5 -1 405.49 563.34 143.04 o
-2 4 5 0 3881.39 4080.94 288.96 o
-2 4 5 1 2651.82 2071.75 208.18 o
-2 4 5 2 365.01 239.76 76.68 o
-1 4 5 -2 262.99 214.10 59.07 o
-1 4 5 -1 2505.40 3097.15 292.45 o
-1 4 5 0 3903.41 4101.28 347.11 o
-1 4 5 1 106.53 36.14 37.05 <
-1 4 5 2 34.74 -8.81 32.04 <
0 4 5 -2 19.26 -1.67 33.41 <
0 4 5 -1 158.92 202.86 69.70 <
0 4 5 0 13576.10 13918.20 683.75 o
0 4 5 1 3295.22 3574.69 344.23 o
0 4 5 2 231.89 266.48 47.83 o
1 4 5 -2 41.97 133.62 50.11 <
1 4 5 -1 1376.19 1413.51 282.58 o
1 4 5 0 3858.58 3155.00 455.68 o
1 4 5 1 2096.01 2239.38 411.95 o
1 4 5 2 90.34 83.97 40.24 <
2 4 5 -2 74.67 -33.56 52.08 <
-5 5 5 0 297.04 366.55 239.15 <
-5 5 5 1 36.11 -136.20 145.77 <
-5 5 5 2 98.91 -125.42 97.48 <
-4 5 5 -2 388.22 471.47 193.60 <
-4 5 5 -1 864.64 678.74 196.94 o
-4 5 5 0 2551.97 2611.09 404.81 o
-4 5 5 1 144.80 328.44 151.84 <
-4 5 5 2 442.16 276.51 138.79 <
-3 5 5 -2 165.21 193.75 82.45 <
-3 5 5 -1 339.66 302.32 134.99 <
-3 5 5 0 2842.79 3461.11 405.88 o
-3 5 5 1 206.24 41.15 61.04 <
-3 5 5 2 90.94 48.59 49.96 <
-2 5 5 -2 708.89 440.04 130.28 o
-2 5 5 -1 2866.20 3358.01 355.01 o
-2 5 5 0 18725.50 18459.00 628.02 o
-2 5 5 1 677.45 1050.00 152.75 o
-2 5 5 2 387.64 165.96 60.28 <
-1 5 5 -2 54.35 1.06 37.35 <
-1 5 5 -1 3027.43 3204.19 314.16 o
-1 5 5 0 10179.80 11456.40 608.44 o
-1 5 5 1 2894.67 2005.09 208.63 o
-1 5 5 2 79.64 90.35 44.34 <
0 5 5 -2 179.17 259.50 104.92 <
0 5 5 -1 3304.52 3251.11 344.38 o
0 5 5 0 39224.30 40335.30 1223.25 o
0 5 5 1 957.53 1087.35 200.59 o
0 5 5 2 32.10 97.48 46.01 <
1 5 5 -2 52.46 -32.19 33.86 <
1 5 5 -1 32.57 70.91 35.23 <
1 5 5 0 10397.60 11541.40 516.72 o
1 5 5 1 2099.71 1935.24 228.22 o
1 5 5 2 497.87 462.82 192.84 <
2 5 5 -2 57.24 35.99 33.56 <
2 5 5 -1 383.53 41.76 18.22 <
2 5 5 0 19815.00 20315.40 1213.23 o
2 5 5 1 910.58 1379.04 334.21 o
2 5 5 2 347.53 242.65 146.98 <
4 5 5 2 51.13 -7.74 43.73 <
5 5 5 -2 3.93 -41.30 81.24 <
5 5 5 -1 152.64 73.34 108.11 <
5 5 5 0 395.61 1065.18 417.42 <
-5 6 5 1 519.04 439.28 260.87 <
-5 6 5 2 93.46 193.15 122.99 <
-4 6 5 -2 480.53 954.49 260.41 o
-4 6 5 -1 631.36 999.58 262.99 o
-4 6 5 0 726.03 1068.67 259.20 o
-4 6 5 1 238.13 -45.70 108.42 <
-4 6 5 2 97.56 43.12 96.72 <
-3 6 5 -2 0.62 14.12 50.26 <
-3 6 5 -1 1437.10 2500.71 359.57 o
-3 6 5 0 2066.16 2488.41 352.28 o
-3 6 5 1 1089.98 1017.80 231.41 o
-3 6 5 2 79.88 50.11 90.19 <
-2 6 5 -2 448.33 2.58 72.13 <
-2 6 5 -1 2248.60 2411.88 312.04 o
-2 6 5 0 6728.90 7226.22 399.65 o
-2 6 5 1 248.05 39.48 26.88 <
-2 6 5 2 356.41 -101.74 65.14 <
-1 6 5 -2 56.37 65.14 40.09 <
-1 6 5 -1 2078.50 1837.91 248.41 o
-1 6 5 0 4012.76 4897.55 421.67 o
-1 6 5 1 2002.36 1778.84 447.18 o
-1 6 5 2 61.88 80.17 78.81 <
0 6 5 -2 97.65 257.37 165.51 <
0 6 5 -1 546.93 329.95 102.95 o
0 6 5 0 1313.12 1190.60 218.20 o
0 6 5 1 1085.73 1373.73 168.24 o
0 6 5 2 85.13 7.29 43.43 <
1 6 5 -2 20.24 25.05 34.62 <
1 6 5 -1 838.40 839.24 129.07 o
1 6 5 0 3511.50 3661.85 286.38 o
1 6 5 1 43.73 15.34 33.25 <
1 6 5 2 151.72 46.62 38.11 <
2 6 5 -2 51.85 -6.53 17.92 <
2 6 5 -1 653.63 356.68 100.82 o
2 6 5 0 6944.61 7078.78 482.10 o
2 6 5 1 635.11 669.33 154.12 o
2 6 5 2 132.54 103.71 83.21 <
3 6 5 -2 62.06 -79.41 74.86 <
3 6 5 -1 132.06 -20.80 19.89 <
3 6 5 0 1717.01 2258.36 448.70 o
3 6 5 1 196.77 604.94 241.73 <
3 6 5 2 11.65 34.77 63.47 <
4 6 5 -2 127.29 145.31 168.24 <
4 6 5 -1 676.76 437.31 236.57 <
4 6 5 0 465.31 613.75 257.83 <
4 6 5 1 200.20 31.43 68.33 <
4 6 5 2 113.54 175.68 160.95 <
5 6 5 -2 20.10 -117.07 132.41 <
5 6 5 -1 16.11 -92.78 120.26 <
-5 7 5 1 195.58 155.79 159.43 <
-5 7 5 2 72.67 195.73 123.75 <
-4 7 5 -2 26.25 19.89 87.77 <
-4 7 5 -1 63.31 5.77 97.94 <
-4 7 5 0 212.19 280.00 133.47 <
-4 7 5 1 235.52 -58.16 82.00 <
-4 7 5 2 81.30 51.93 45.86 <
-3 7 5 -2 138.16 415.29 152.45 <
-3 7 5 -1 732.26 1231.75 260.87 o
-3 7 5 0 6939.90 8332.85 664.31 o
-3 7 5 1 366.03 517.78 165.96 o
-3 7 5 2 256.12 -3.04 47.53 <
-2 7 5 -2 388.64 247.81 117.07 <
-2 7 5 -1 163.95 122.23 68.63 <
-2 7 5 0 43.03 -42.36 54.36 <
-2 7 5 1 251.40 23.08 48.29 <
-2 7 5 2 29.50 -40.09 54.66 <
-1 7 5 -2 18.20 31.89 35.23 <
-1 7 5 -1 6700.08 6616.72 817.37 o
-1 7 5 0 27426.00 22974.00 1610.60 o
-1 7 5 1 534.63 242.80 166.12 <
-1 7 5 2 358.43 51.78 83.51 <
0 7 5 -2 22.71 21.26 112.97 <
0 7 5 -1 630.39 476.64 104.47 o
0 7 5 0 4534.18 4345.14 303.23 o
0 7 5 1 219.57 254.03 77.29 o
0 7 5 2 67.19 -27.64 21.71 <
1 7 5 -2 47.25 9.26 17.01 <
1 7 5 -1 270.27 132.41 69.54 <
1 7 5 0 26829.90 25814.40 739.78 o
1 7 5 1 418.67 348.94 101.89 o
1 7 5 2 4.39 -72.28 56.03 <
2 7 5 -2 125.66 -29.00 35.83 <
2 7 5 -1 382.74 181.91 79.41 <
2 7 5 0 87.95 14.58 44.95 <
2 7 5 1 306.11 346.35 118.89 <
2 7 5 2 569.23 355.01 126.94 <
3 7 5 -2 140.41 -104.77 87.01 <
3 7 5 -1 5.92 2.89 76.38 <
3 7 5 0 7137.55 8710.94 874.92 o
3 7 5 1 197.08 126.64 110.39 <
3 7 5 2 67.13 -113.73 80.32 <
4 7 5 -2 69.28 117.22 111.61 <
4 7 5 -1 60.66 4.25 108.11 <
4 7 5 0 232.23 254.03 189.65 <
4 7 5 1 62.81 -5.01 34.01 <
4 7 5 2 230.88 318.42 218.81 <
5 7 5 -2 22.85 42.52 80.48 <
5 7 5 -1 67.56 175.38 168.39 <
-5 8 5 2 88.16 257.37 206.05 <
-4 8 5 -2 11.03 70.91 101.74 <
-4 8 5 -1 0.93 68.18 93.99 <
-4 8 5 0 1343.12 800.82 225.49 o
-4 8 5 1 784.55 406.03 165.05 <
-4 8 5 2 31.80 -23.84 52.08 <
-3 8 5 -2 36.73 18.37 77.90 <
-3 8 5 -1 852.30 1118.63 247.96 o
-3 8 5 0 987.48 1280.04 265.42 o
-3 8 5 1 1508.25 611.93 185.40 o
-3 8 5 2 314.29 461.30 177.96 <
-2 8 5 -2 1046.71 790.19 289.57 <
-2 8 5 -1 128.70 314.92 196.33 <
-2 8 5 0 5167.35 5428.24 447.94 o
-2 8 5 1 262.29 153.36 73.95 <
-2 8 5 2 41.74 -12.15 64.84 <
-1 8 5 -2 139.19 57.24 60.13 <
-1 8 5 -1 785.28 754.66 297.92 <
-1 8 5 0 4256.86 3747.79 669.63 o
-1 8 5 1 3515.55 2628.86 599.48 o
-1 8 5 2 413.34 302.62 199.98 <
0 8 5 -2 416.92 242.34 100.22 <
0 8 5 -1 1289.48 1519.49 234.60 o
0 8 5 0 19875.70 20934.00 725.81 o
0 8 5 1 679.87 667.81 140.91 o
0 8 5 2 154.95 25.51 49.80 <
1 8 5 -2 127.95 129.22 83.06 <
1 8 5 -1 123.18 192.23 86.40 <
1 8 5 0 4155.82 4355.92 319.33 o
1 8 5 1 851.86 907.26 150.78 o
1 8 5 2 12.58 -22.62 37.81 <
2 8 5 -2 315.57 155.94 68.48 <
2 8 5 -1 800.43 1065.64 180.39 o
2 8 5 0 5229.72 4338.46 378.55 o
2 8 5 1 2947.26 3943.97 380.82 o
2 8 5 2 184.17 56.94 54.21 <
3 8 5 -2 90.77 79.11 63.47 <
3 8 5 -1 99.35 80.17 58.16 <
3 8 5 0 1070.59 1297.50 241.58 o
3 8 5 1 316.47 410.28 132.86 o
3 8 5 2 75.82 52.23 76.83 <
4 8 5 -2 176.65 -224.42 155.03 <
4 8 5 -1 409.30 648.37 273.92 <
4 8 5 0 1260.30 1091.45 377.94 <
4 8 5 1 2062.94 3920.29 734.01 o
4 8 5 2 69.16 463.27 264.36 <
5 8 5 -2 27.80 204.23 174.32 <
5 8 5 -1 12.47 -24.60 67.72 <
-5 9 5 2 58.49 184.79 214.86 <
-4 9 5 -2 377.75 -45.40 88.07 <
-4 9 5 -1 32.59 99.46 102.65 <
-4 9 5 0 5973.92 6220.56 962.53 o
-4 9 5 1 48.14 492.43 268.15 <
-4 9 5 2 312.35 138.79 143.95 <
-3 9 5 -2 127.51 -10.33 43.28 <
-3 9 5 -1 4107.26 5877.70 877.35 o
-3 9 5 0 3058.43 2125.05 522.95 o
-3 9 5 1 384.88 205.14 225.64 <
-3 9 5 2 74.61 -154.88 144.86 <
-2 9 5 -2 97.64 -14.73 47.22 <
-2 9 5 -1 105.07 31.13 145.77 <
-2 9 5 0 16561.50 16997.60 1470.60 o
-2 9 5 1 765.29 569.87 168.09 o
-2 9 5 2 106.32 116.16 102.49 <
-1 9 5 -2 126.75 -17.31 81.69 <
-1 9 5 -1 941.09 994.72 346.20 <
-1 9 5 0 12930.30 10982.80 1221.12 o
-1 9 5 1 764.03 692.41 316.74 <
-1 9 5 2 27.84 180.09 162.02 <
0 9 5 -2 275.97 296.09 119.04 <
0 9 5 -1 379.36 273.01 118.74 <
0 9 5 0 82708.00 82379.90 1957.56 o
0 9 5 1 2253.92 2374.37 254.95 o
0 9 5 2 50.41 30.67 56.03 <
1 9 5 -2 22.44 56.49 60.13 <
1 9 5 -1 584.64 597.50 117.38 o
1 9 5 0 14004.70 13228.60 584.14 o
1 9 5 1 127.92 -22.32 33.10 <
1 9 5 2 25.49 -28.55 35.08 <
2 9 5 -2 228.90 138.02 81.84 <
2 9 5 -1 224.95 253.27 83.82 o
2 9 5 0 15602.70 15839.50 714.27 o
2 9 5 1 3062.69 3936.23 379.46 o
2 9 5 2 3100.07 2755.95 336.79 o
3 9 5 -2 62.78 4.10 41.15 <
3 9 5 -1 223.35 8.66 47.68 <
3 9 5 0 3633.28 2615.65 490.45 o
3 9 5 1 100.77 281.06 169.15 <
3 9 5 2 8.49 -45.10 72.43 <
4 9 5 -2 38.46 50.11 76.23 <
4 9 5 -1 269.83 230.65 165.66 <
4 9 5 0 5471.91 6985.24 957.37 o
4 9 5 1 703.27 1760.01 503.66 o
4 9 5 2 341.44 232.47 159.89 <
5 9 5 -2 68.66 -342.10 227.31 <
5 9 5 -1 66.47 345.14 237.33 <
-4 10 5 -2 4.69 61.50 102.65 <
-4 10 5 -1 102.52 79.57 116.92 <
-4 10 5 0 843.85 509.89 302.77 <
-4 10 5 1 462.32 214.10 184.34 <
-4 10 5 2 31.68 24.90 66.66 <
-3 10 5 -2 159.60 -97.33 118.29 <
-3 10 5 -1 1767.91 2541.55 601.75 o
-3 10 5 0 198.48 369.74 262.69 <
-3 10 5 1 134.36 101.28 110.39 <
-3 10 5 2 113.14 -93.99 119.96 <
-2 10 5 -2 1212.42 1184.68 406.94 <
-2 10 5 -1 188.49 40.24 73.80 <
-2 10 5 0 2159.31 2368.75 571.84 o
-2 10 5 1 319.11 -199.67 172.80 <
-2 10 5 2 33.46 78.50 109.93 <
-1 10 5 -2 315.99 352.28 143.34 <
-1 10 5 -1 89.19 237.48 141.67 <
-1 10 5 0 57.08 310.06 237.48 <
-1 10 5 1 861.70 474.51 252.21 <
-1 10 5 2 165.34 125.88 241.43 <
0 10 5 -2 54.87 24.29 58.61 <
0 10 5 -1 106.29 53.75 57.70 <
0 10 5 0 14079.00 14836.30 881.30 o
0 10 5 1 219.50 84.58 69.70 <
0 10 5 2 49.23 17.61 56.79 <
1 10 5 -2 60.95 18.37 31.74 <
1 10 5 -1 1156.78 1027.83 169.61 o
1 10 5 0 180.61 -29.31 30.06 <
1 10 5 1 204.05 172.19 87.46 <
1 10 5 2 35.93 -77.74 48.13 <
2 10 5 -2 15.38 -29.00 32.34 <
2 10 5 -1 137.73 81.69 53.60 <
2 10 5 0 1773.99 1347.15 205.90 o
2 10 5 1 425.60 676.77 157.61 o
2 10 5 2 8.58 17.92 47.83 <
3 10 5 -2 6.83 84.73 83.97 <
3 10 5 -1 278.60 -93.84 91.41 <
3 10 5 0 170.71 377.94 186.77 <
3 10 5 1 411.43 371.56 195.73 <
3 10 5 2 114.54 -269.98 174.47 <
4 10 5 -2 3.62 -41.60 89.13 <
4 10 5 -1 21.16 -155.18 138.18 <
4 10 5 0 596.05 130.59 176.14 <
4 10 5 1 649.22 1123.79 400.56 <
4 10 5 2 2.62 -89.59 119.50 <
5 10 5 -2 6.97 304.45 216.53 <
-4 11 5 -2 27.04 116.46 143.79 <
-4 11 5 -1 1312.24 1391.64 486.81 <
-4 11 5 0 3832.44 4099.01 848.65 o
-4 11 5 1 176.37 1114.98 440.80 <
-4 11 5 2 164.97 -66.51 107.35 <
-3 11 5 -2 32.22 125.73 138.48 <
-3 11 5 -1 52.92 239.91 228.83 <
-3 11 5 0 2083.23 2120.19 562.43 o
-3 11 5 1 119.80 90.19 120.41 <
-3 11 5 2 179.71 217.74 189.50 <
-2 11 5 -2 1137.62 1079.60 389.33 <
-2 11 5 -1 3604.29 4614.82 824.96 o
-2 11 5 0 13161.50 13696.30 1463.77 o
-2 11 5 1 400.93 790.65 357.14 <
-2 11 5 2 353.76 190.87 179.48 <
-1 11 5 -2 129.41 97.33 175.83 <
-1 11 5 -1 1604.33 1466.96 467.52 o
-1 11 5 0 4797.86 3554.19 763.32 o
-1 11 5 1 315.43 489.54 278.94 <
-1 11 5 2 111.68 325.10 229.43 <
0 11 5 -2 67.76 43.28 47.98 <
0 11 5 -1 4265.67 4042.67 488.18 o
0 11 5 0 45153.20 48887.60 1682.88 o
0 11 5 1 28.12 -5.47 95.81 <
0 11 5 2 308.91 504.88 117.53 o
1 11 5 -2 97.68 -101.58 99.61 <
1 11 5 -1 10.89 -73.04 44.95 <
1 11 5 0 5201.10 4661.74 379.00 o
1 11 5 1 399.38 389.02 110.39 o
1 11 5 2 747.02 772.88 156.10 o
2 11 5 -2 51.73 21.26 25.36 <
2 11 5 -1 1021.13 856.40 156.40 o
2 11 5 0 12872.00 12692.40 633.03 o
2 11 5 1 138.00 146.68 106.14 <
2 11 5 2 84.85 35.99 55.88 <
3 11 5 -2 112.32 -307.18 162.47 <
3 11 5 -1 24.24 -36.59 59.52 <
3 11 5 0 2496.55 2569.34 508.22 o
3 11 5 1 258.94 3.19 24.45 <
3 11 5 2 173.37 189.20 173.25 <
4 11 5 -2 27.70 32.80 112.21 <
4 11 5 -1 58.83 166.88 145.77 <
4 11 5 0 3559.35 4168.25 763.77 o
4 11 5 1 3.14 92.02 117.22 <
4 11 5 2 204.21 722.47 336.94 <
5 11 5 -2 75.01 224.88 188.29 <
-4 12 5 -1 235.24 -41.00 90.50 <
-4 12 5 0 148.22 -107.66 143.04 <
-4 12 5 1 158.98 38.11 87.92 <
-4 12 5 2 89.73 174.16 180.39 <
-3 12 5 -2 28.78 263.60 206.81 <
-3 12 5 -1 236.08 327.22 287.74 <
-3 12 5 0 3013.51 3889.16 811.75 o
-3 12 5 1 433.55 327.83 239.30 <
-3 12 5 2 90.87 183.88 183.43 <
-2 12 5 -2 479.10 498.65 265.42 <
-2 12 5 -1 185.48 2.73 128.16 <
-2 12 5 0 611.70 274.53 218.20 <
-2 12 5 1 439.56 91.41 53.90 <
-2 12 5 2 215.56 339.67 275.90 <
-1 12 5 -2 505.51 -46.77 93.08 <
-1 12 5 -1 1645.57 1176.63 501.23 <
-1 12 5 0 8892.09 8665.84 1250.88 o
-1 12 5 1 108.38 20.20 66.36 <
-1 12 5 2 92.10 -18.83 63.47 <
0 12 5 -2 39.12 130.43 59.67 <
0 12 5 -1 123.15 26.42 73.49 <
0 12 5 0 1233.51 1464.07 291.99 o
0 12 5 1 517.04 753.90 226.85 o
0 12 5 2 162.40 -54.66 75.77 <
1 12 5 -2 190.56 164.60 110.54 <
1 12 5 -1 8.65 13.51 69.70 <
1 12 5 0 9706.64 10166.80 595.07 o
1 12 5 1 2223.14 2256.69 279.54 o
1 12 5 2 146.29 114.49 31.74 o
2 12 5 -2 34.76 23.08 30.67 <
2 12 5 -1 258.36 149.11 123.45 <
2 12 5 0 297.79 116.46 97.64 <
2 12 5 1 271.38 286.98 154.88 <
2 12 5 2 86.91 30.37 52.99 <
3 12 5 -2 370.44 -242.34 149.26 <
3 12 5 -1 219.51 -0.91 17.01 <
3 12 5 0 3554.52 3801.24 632.43 o
3 12 5 1 1287.99 1662.23 422.12 o
3 12 5 2 12.65 85.64 102.65 <
4 12 5 -2 18.06 73.80 95.96 <
4 12 5 -1 168.91 -12.60 44.64 <
4 12 5 0 35.43 -31.13 71.37 <
4 12 5 1 95.64 -50.56 90.35 <
4 12 5 2 64.26 94.60 124.82 <
5 12 5 -2 191.11 -203.77 181.60 <
-4 13 5 0 790.50 548.00 326.77 <
-4 13 5 1 294.15 163.23 179.02 <
-4 13 5 2 77.86 44.34 98.85 <
-3 13 5 -2 87.41 371.26 255.40 <
-3 13 5 -1 15.42 -240.82 207.11 <
-3 13 5 0 4326.80 4126.19 882.06 o
-3 13 5 1 68.44 117.68 152.15 <
-3 13 5 2 80.13 308.55 273.77 <
-2 13 5 -2 892.22 961.17 405.27 <
-2 13 5 -1 2826.27 3932.74 840.30 o
-2 13 5 0 5653.34 4613.60 930.95 o
-2 13 5 1 451.96 337.55 196.79 <
-2 13 5 2 128.01 -117.38 153.82 <
-1 13 5 -2 27.87 -14.43 138.33 <
-1 13 5 -1 2731.20 2159.21 624.99 o
-1 13 5 0 10477.50 9268.66 1331.66 o
-1 13 5 1 712.91 941.73 404.81 <
-1 13 5 2 49.48 208.63 205.29 <
0 13 5 -2 159.28 315.53 129.37 <
0 13 5 -1 1669.93 1957.26 389.63 o
0 13 5 0 9981.51 11901.50 905.29 o
0 13 5 1 243.34 312.95 159.59 <
0 13 5 2 47.88 -242.80 206.51 <
1 13 5 -2 69.06 -144.71 118.74 <
1 13 5 -1 499.44 773.95 250.69 o
1 13 5 0 10149.20 9474.41 839.09 o
1 13 5 1 1138.08 959.19 242.95 o
1 13 5 2 5.34 -123.45 105.23 <
2 13 5 -2 220.44 -42.36 114.49 <
2 13 5 -1 76.03 -75.92 83.67 <
2 13 5 0 5323.43 5591.78 718.52 o
2 13 5 1 52.30 0.91 19.44 <
2 13 5 2 124.87 178.26 131.50 <
3 13 5 -2 54.76 -85.49 92.17 <
3 13 5 -1 650.34 436.70 214.40 <
3 13 5 0 3854.09 4308.40 688.46 o
3 13 5 1 2039.33 3204.19 611.02 o
3 13 5 2 49.43 132.86 129.67 <
4 13 5 -2 27.21 59.07 87.31 <
4 13 5 -1 93.98 226.55 174.77 <
4 13 5 0 789.29 712.30 344.68 <
4 13 5 1 69.43 -128.46 142.58 <
-4 14 5 1 7.30 -213.64 214.25 <
-4 14 5 2 6.97 -222.15 220.32 <
-3 14 5 -2 22.06 285.92 232.62 <
-3 14 5 -1 79.85 -271.19 231.10 <
-3 14 5 0 1918.20 2146.61 655.35 o
-3 14 5 1 32.79 25.21 82.75 <
-3 14 5 2 376.88 -277.27 246.44 <
-2 14 5 -2 35.72 49.05 100.98 <
-2 14 5 -1 928.95 962.84 491.82 <
-2 14 5 0 467.35 24.14 83.97 <
-2 14 5 1 44.69 -1.37 56.49 <
-2 14 5 2 23.11 482.71 319.33 <
-1 14 5 -2 84.67 136.35 198.00 <
-1 14 5 -1 1622.38 1834.27 615.72 <
-1 14 5 0 4122.29 3082.87 775.31 o
-1 14 5 1 288.02 304.29 236.27 <
-1 14 5 2 628.70 536.46 367.46 <
0 14 5 -2 140.80 109.18 117.38 <
0 14 5 -1 1660.54 1735.57 345.75 o
0 14 5 0 3310.11 3243.52 482.10 o
0 14 5 1 635.00 824.36 399.35 <
1 14 5 -2 233.59 112.97 134.38 <
1 14 5 -1 64.53 -15.18 136.35 <
1 14 5 0 4047.08 3902.67 571.08 o
1 14 5 1 3226.87 3333.72 508.67 o
2 14 5 -2 124.58 -68.48 86.25 <
2 14 5 -1 301.68 478.61 218.50 <
2 14 5 0 757.23 1003.53 326.01 o
2 14 5 1 326.54 123.60 113.88 <
3 14 5 -2 99.74 186.46 140.30 <
3 14 5 -1 71.42 269.83 173.86 <
3 14 5 0 2059.48 2781.92 574.88 o
3 14 5 1 1518.46 1719.17 467.52 o
4 14 5 -2 67.81 90.04 109.48 <
4 14 5 -1 157.31 306.88 208.48 <
4 14 5 0 415.99 183.58 166.42 <
4 14 5 1 63.29 -103.40 131.50 <
-3 15 5 -2 68.86 203.47 159.28 <
-3 15 5 -1 494.49 130.13 169.00 <
-3 15 5 0 884.10 440.19 178.26 <
-3 15 5 1 34.87 310.98 267.55 <
-3 15 5 2 53.13 35.53 103.56 <
-2 15 5 -2 398.89 367.01 269.98 <
-2 15 5 -1 334.21 610.56 364.88 <
-2 15 5 0 840.53 253.58 239.61 <
-2 15 5 1 13.20 -32.95 95.05 <
-2 15 5 2 22.47 -99.61 153.21 <
-1 15 5 -2 66.17 71.37 127.55 <
-1 15 5 -1 5785.22 5539.24 1092.36 o
-1 15 5 0 3411.71 3359.38 856.55 o
-1 15 5 1 135.16 -33.71 89.28 <
-1 15 5 2 188.67 53.15 248.11 <
0 15 5 -2 4.86 -271.50 183.12 <
0 15 5 -1 18.67 234.29 164.14 <
0 15 5 0 3762.52 4098.70 918.80 o
0 15 5 1 2.75 -23.23 213.64 <
0 15 5 2 69.70 121.17 215.31 <
1 15 5 -2 4.62 -27.03 147.90 <
1 15 5 -1 1395.70 901.80 286.07 o
1 15 5 0 3334.07 3313.22 545.42 o
1 15 5 1 1540.26 1572.18 602.06 <
2 15 5 -1 267.54 44.19 101.74 <
2 15 5 0 1036.38 827.39 322.21 <
2 15 5 1 344.27 558.93 252.21 <
3 15 5 -2 7.55 53.90 49.65 <
3 15 5 -1 375.95 346.51 239.61 <
3 15 5 0 908.79 1105.72 380.82 <
3 15 5 1 124.99 91.87 111.91 <
4 15 5 -2 32.67 -43.28 82.91 <
4 15 5 -1 394.43 -50.87 87.92 <
4 15 5 0 263.65 28.09 68.33 <
-3 16 5 -2 145.86 174.16 212.43 <
-3 16 5 -1 648.58 1003.68 463.58 <
-3 16 5 0 584.82 243.25 198.00 <
-3 16 5 1 100.01 339.67 265.27 <
-3 16 5 2 23.03 -95.36 161.26 <
-2 16 5 -2 616.67 702.58 400.87 <
-2 16 5 -1 71.90 -249.63 243.56 <
-2 16 5 0 786.14 557.87 354.86 <
-2 16 5 1 50.26 87.61 152.45 <
-2 16 5 2 97.43 48.74 115.25 <
-1 16 5 -2 117.17 -175.68 203.01 <
-1 16 5 -1 706.75 520.06 343.62 <
-1 16 5 0 1508.75 1402.73 524.47 <
-1 16 5 1 65.34 127.25 168.09 <
-1 16 5 2 32.10 254.95 231.10 <
0 16 5 -2 95.83 109.18 88.68 <
0 16 5 -1 43.62 72.73 88.07 <
0 16 5 0 5964.52 7894.78 1290.97 o
0 16 5 1 56.43 23.54 153.66 <
1 16 5 -2 38.68 206.81 137.27 <
1 16 5 -1 53.80 -142.88 117.68 <
1 16 5 0 1268.95 588.70 333.90 <
1 16 5 1 330.58 693.01 395.40 <
2 16 5 -2 102.22 22.62 118.29 <
2 16 5 -1 10.95 -170.06 149.87 <
2 16 5 0 1177.41 887.22 343.32 <
3 16 5 -2 11.10 124.97 130.28 <
3 16 5 -1 210.29 2.73 30.06 <
3 16 5 0 217.68 303.53 201.04 <
4 16 5 -2 108.84 131.50 141.97 <
4 16 5 -1 18.55 7.14 46.31 <
-3 17 5 0 2374.09 1654.03 666.14 <
-3 17 5 1 309.25 38.42 106.59 <
-3 17 5 2 79.40 -143.95 198.00 <
-2 17 5 -2 35.73 -0.76 203.77 <
-2 17 5 -1 142.17 250.09 253.43 <
-2 17 5 0 1000.37 952.06 491.97 <
-2 17 5 1 268.64 -23.38 88.07 <
-2 17 5 2 64.68 207.42 266.94 <
-1 17 5 -2 57.13 -46.16 112.82 <
-1 17 5 -1 641.40 591.12 376.88 <
-1 17 5 0 5685.25 6705.39 1259.39 o
-1 17 5 1 241.97 214.25 222.15 <
-1 17 5 2 74.30 420.30 340.43 <
0 17 5 -2 110.28 -61.95 111.00 <
0 17 5 -1 803.61 1261.66 574.73 <
0 17 5 0 314.11 -130.43 171.58 <
0 17 5 1 11.75 -44.95 104.32 <
0 17 5 2 16.57 160.65 189.96 <
1 17 5 -2 321.23 496.22 252.97 <
1 17 5 -1 872.36 552.56 229.13 <
1 17 5 0 5753.83 7788.80 1388.91 o
1 17 5 1 10.75 154.58 182.36 <
2 17 5 -2 47.90 111.30 111.76 <
2 17 5 -1 876.34 597.35 294.12 <
3 17 5 -2 93.21 56.18 91.41 <
3 17 5 -1 12.45 15.49 54.06 <
4 17 5 -2 27.86 -198.31 183.58 <
4 17 5 -1 357.23 135.90 155.64 <
-2 18 5 -2 135.17 308.55 286.22 <
-2 18 5 -1 119.99 -16.25 77.14 <
-2 18 5 0 1326.20 914.25 530.24 <
-2 18 5 1 379.76 -80.17 152.30 <
-2 18 5 2 681.57 295.64 282.28 <
-1 18 5 -2 260.03 111.00 99.61 <
-1 18 5 -1 25.38 154.27 293.97 <
-1 18 5 0 124.71 637.89 391.91 <
-1 18 5 1 107.67 74.10 232.32 <
-1 18 5 2 16.27 -47.68 157.46 <
0 18 5 -2 123.23 105.99 244.01 <
0 18 5 -1 145.14 543.14 323.27 <
0 18 5 0 4439.33 5564.44 1135.48 o
0 18 5 1 1230.93 1620.17 646.70 <
0 18 5 2 587.01 777.28 388.42 <
1 18 5 -2 33.30 -229.59 151.99 <
1 18 5 -1 69.01 169.46 206.81 <
1 18 5 0 249.75 294.88 223.66 <
2 18 5 -2 251.22 177.96 169.76 <
3 18 5 -2 59.01 -22.78 66.05 <
4 18 5 -2 156.09 -479.67 293.06 <
-2 19 5 -2 61.81 254.18 338.76 <
-2 19 5 -1 147.83 44.19 149.72 <
-2 19 5 0 682.87 566.38 405.73 <
-2 19 5 1 5.44 -134.23 201.50 <
-2 19 5 2 50.55 470.56 360.78 <
-1 19 5 -2 98.61 654.14 417.11 <
-1 19 5 -1 476.92 453.56 343.92 <
-1 19 5 0 139.13 182.97 254.64 <
-1 19 5 1 61.67 361.99 265.27 <
-1 19 5 2 17.82 199.52 218.05 <
0 19 5 -2 4.92 483.92 433.82 <
0 19 5 -1 188.86 -107.96 162.32 <
0 19 5 0 288.45 719.13 394.49 <
0 19 5 1 177.26 184.34 209.70 <
0 19 5 2 51.57 34.77 94.90 <
1 19 5 -2 391.94 -155.34 199.52 <
1 19 5 -1 257.97 11.08 129.07 <
-1 20 5 -2 79.09 -148.50 209.24 <
-1 20 5 -1 469.45 -104.32 176.29 <
-1 20 5 0 117.34 209.09 236.57 <
-1 20 5 1 24.74 526.14 362.30 <
-1 20 5 2 121.38 -29.76 92.02 <
0 20 5 -2 179.39 30.22 278.78 <
0 20 5 -1 432.23 1079.76 547.40 <
0 20 5 0 0.97 -37.20 101.58 <
0 20 5 1 33.96 -34.16 277.11 <
0 20 5 2 100.34 56.03 123.90 <
1 20 5 -2 16.43 -291.08 272.86 <
1 20 5 -1 13.50 -78.81 147.29 <
1 20 5 0 80.76 -305.96 287.29 <
1 20 5 1 135.07 -93.84 164.29 <
-1 21 5 -2 120.46 800.82 552.86 <
-1 21 5 -1 400.75 659.00 405.12 <
-1 21 5 0 6783.16 8959.51 1554.42 o
0 21 5 -2 99.99 450.82 336.03 <
0 21 5 -1 865.69 961.17 490.00 <
0 21 5 0 999.18 1977.91 740.54 <
0 21 5 1 27.98 209.09 230.19 <
1 21 5 -2 34.13 -146.53 370.65 <
1 21 5 -1 295.15 465.10 231.87 <
1 21 5 0 6735.98 7494.67 1435.37 o
0 22 5 -2 26.86 -282.28 272.26 <
1 22 5 -2 104.04 256.31 261.78 <
0 -22 6 -2 13.54 338.15 274.99 <
0 -22 6 -1 32.38 186.01 208.18 <
0 -22 6 0 156.52 -89.59 147.59 <
0 -22 6 1 69.44 2.43 52.23 <
0 -22 6 2 10.32 -534.03 356.68 <
1 -22 6 -2 226.14 -167.63 198.31 <
1 -22 6 -1 654.47 712.60 410.43 <
1 -22 6 0 121.04 -357.74 292.45 <
2 -22 6 -2 76.77 -316.29 225.34 <
-1 -21 6 2 27.24 425.16 306.12 <
0 -21 6 -2 37.75 -109.63 108.42 <
0 -21 6 -1 839.92 725.66 374.14 <
0 -21 6 0 5108.51 6484.01 1187.11 o
0 -21 6 1 305.68 182.06 156.25 <
0 -21 6 2 34.88 241.13 233.99 <
1 -21 6 -2 45.19 74.40 134.53 <
1 -21 6 -1 52.76 -495.77 336.03 <
1 -21 6 0 2559.81 2203.24 715.79 o
2 -21 6 -2 43.35 69.54 106.59 <
2 -21 6 -1 364.22 499.56 272.56 <
-1 -20 6 -2 126.17 179.63 199.07 <
-1 -20 6 -1 1786.77 2594.09 713.21 o
-1 -20 6 0 462.52 355.62 251.45 <
-1 -20 6 1 40.63 -16.55 162.32 <
-1 -20 6 2 17.20 -266.03 215.62 <
0 -20 6 -2 46.13 -2.73 40.69 <
0 -20 6 -1 458.60 338.61 262.23 <
0 -20 6 0 246.23 655.66 367.46 <
0 -20 6 1 258.71 353.95 275.29 <
0 -20 6 2 38.28 -86.85 144.40 <
1 -20 6 -2 121.51 81.08 119.80 <
1 -20 6 -1 695.45 119.20 109.78 <
1 -20 6 0 584.13 457.65 218.05 <
1 -20 6 1 39.88 -176.74 158.68 <
2 -20 6 -2 6.64 -126.18 136.35 <
2 -20 6 -1 101.47 267.85 194.97 <
2 -20 6 0 616.13 461.30 252.06 <
3 -20 6 -2 220.68 -351.21 229.74 <
-1 -19 6 -2 325.24 247.20 206.66 <
-1 -19 6 -1 17.46 5.62 42.21 <
-1 -19 6 0 1054.93 741.30 370.80 <
-1 -19 6 1 70.70 35.08 234.60 <
-1 -19 6 2 28.23 -64.99 107.35 <
0 -19 6 -1 1474.44 1919.45 590.82 o
0 -19 6 0 340.13 551.19 290.48 <
0 -19 6 1 1729.00 1723.12 617.70 <
0 -19 6 2 37.64 -140.15 174.32 <
1 -19 6 -2 129.08 22.93 72.73 <
1 -19 6 -1 219.27 343.01 174.92 <
1 -19 6 0 977.27 611.32 216.53 <
1 -19 6 1 168.24 40.39 104.32 <
1 -19 6 2 58.82 177.20 146.53 <
2 -19 6 -2 7.14 -176.90 154.88 <
2 -19 6 -1 1217.28 1064.12 360.17 <
2 -19 6 0 140.60 253.12 182.51 <
3 -19 6 -2 116.69 77.74 106.75 <
-2 -18 6 -2 366.48 86.40 127.70 <
-2 -18 6 -1 702.54 826.03 378.39 <
-2 -18 6 0 971.75 1087.50 413.01 <
-2 -18 6 1 6.77 229.28 174.16 <
-2 -18 6 2 29.69 116.16 141.97 <
-1 -18 6 -2 46.06 -47.38 92.93 <
-1 -18 6 -1 12.54 -126.94 143.95 <
-1 -18 6 0 739.33 1261.82 445.20 <
-1 -18 6 1 92.33 290.93 218.65 <
-1 -18 6 2 74.99 -318.87 222.75 <
0 -18 6 0 769.88 809.02 384.62 <
0 -18 6 1 65.81 33.86 86.40 <
0 -18 6 2 23.47 185.40 192.54 <
1 -18 6 -2 93.23 -40.09 74.56 <
1 -18 6 -1 1.08 -44.49 103.10 <
1 -18 6 0 587.57 534.03 173.71 o
1 -18 6 1 28.85 50.87 112.97 <
1 -18 6 2 152.06 156.25 120.41 <
2 -18 6 -2 53.43 45.10 79.57 <
2 -18 6 -1 139.58 -47.38 79.57 <
2 -18 6 0 1626.52 1679.84 446.87 o
3 -18 6 -2 123.43 26.57 64.84 <
-2 -17 6 -2 45.24 -51.32 44.64 <
-2 -17 6 -1 33.38 145.01 155.79 <
-2 -17 6 0 10313.40 11892.20 1397.41 o
-2 -17 6 1 2819.78 2679.73 663.25 o
-2 -17 6 2 60.68 126.03 141.97 <
-1 -17 6 -2 95.15 31.43 72.43 <
-1 -17 6 -1 148.88 178.72 147.90 <
-1 -17 6 0 1096.20 1034.51 360.63 <
-1 -17 6 1 44.53 173.56 161.56 <
-1 -17 6 2 14.84 30.52 72.28 <
0 -17 6 0 22308.80 24398.90 2072.51 o
0 -17 6 1 1896.39 2115.78 380.21 o
0 -17 6 2 40.51 -143.95 112.82 <
1 -17 6 -2 59.05 73.64 115.40 <
1 -17 6 -1 399.97 339.83 157.16 <
1 -17 6 0 1156.96 904.23 253.27 o
1 -17 6 1 408.38 182.06 139.70 <
1 -17 6 2 363.99 393.88 204.08 <
2 -17 6 -2 69.89 140.91 78.05 <
2 -17 6 -1 100.62 266.64 176.14 <
2 -17 6 0 10763.70 10695.20 1114.83 o
3 -17 6 -2 15.59 -102.95 113.58 <
-3 -16 6 0 943.51 1104.20 458.26 <
-3 -16 6 1 38.67 334.66 261.63 <
-3 -16 6 2 47.13 158.07 157.76 <
-2 -16 6 -2 282.56 200.13 203.93 <
-2 -16 6 -1 65.28 379.91 243.56 <
-2 -16 6 0 754.28 1192.58 419.24 <
-2 -16 6 1 1.62 228.68 172.49 <
-2 -16 6 2 19.71 221.99 245.53 <
-1 -16 6 -2 140.79 12.45 53.75 <
-1 -16 6 -1 948.41 819.95 322.21 <
-1 -16 6 0 1168.61 848.35 359.11 <
-1 -16 6 1 29.52 -201.34 169.61 <
-1 -16 6 2 5.85 74.71 106.75 <
0 -16 6 0 423.45 355.16 179.78 <
0 -16 6 1 526.71 887.22 239.61 o
0 -16 6 2 17.71 138.02 90.04 <
1 -16 6 -2 22.79 47.83 45.25 <
1 -16 6 -1 957.79 693.92 180.09 o
1 -16 6 0 1049.34 1212.47 223.21 o
1 -16 6 1 43.28 -6.23 30.06 <
1 -16 6 2 22.85 9.26 37.35 <
2 -16 6 -2 181.53 17.61 55.57 <
2 -16 6 -1 275.87 248.11 164.14 <
2 -16 6 0 832.44 650.50 257.37 <
3 -16 6 -2 51.75 361.99 203.62 <
-3 -15 6 -2 98.38 131.34 243.10 <
-3 -15 6 -1 592.83 950.84 426.22 <
-3 -15 6 0 1671.73 2002.20 584.44 o
-3 -15 6 1 360.51 -22.02 63.47 <
-3 -15 6 2 296.97 129.83 198.61 <
-2 -15 6 -2 142.48 141.52 147.90 <
-2 -15 6 -1 82.84 364.27 289.26 <
-2 -15 6 0 430.76 141.52 162.93 <
-2 -15 6 1 32.84 85.18 112.21 <
-2 -15 6 2 45.17 -55.88 91.87 <
-1 -15 6 -2 5.99 185.25 213.79 <
-1 -15 6 -1 2954.41 3111.11 643.66 o
-1 -15 6 0 3916.99 5029.80 815.70 o
-1 -15 6 1 1266.09 1838.52 497.29 o
-1 -15 6 2 296.82 54.51 55.12 <
0 -15 6 -1 247.22 238.09 161.56 <
0 -15 6 0 1104.13 1249.67 246.29 o
0 -15 6 1 273.56 334.36 119.96 <
0 -15 6 2 14.75 60.74 76.53 <
1 -15 6 -2 8.65 19.59 30.98 <
1 -15 6 -1 642.42 251.15 90.04 <
1 -15 6 0 3585.02 3697.53 370.95 o
1 -15 6 1 344.18 393.27 126.18 o
1 -15 6 2 62.83 -47.68 56.03 <
2 -15 6 -2 257.18 -56.94 93.38 <
2 -15 6 -1 509.03 388.42 196.64 <
2 -15 6 0 418.46 437.92 202.86 <
3 -15 6 -2 106.07 137.11 122.54 <
-3 -14 6 -2 82.94 -182.67 179.48 <
-3 -14 6 -1 1856.29 2081.92 598.57 o
-3 -14 6 0 98.11 218.50 188.74 <
-3 -14 6 1 219.42 -8.35 82.45 <
-3 -14 6 2 353.10 250.69 280.00 <
-2 -14 6 -2 12.92 -172.80 158.68 <
-2 -14 6 -1 126.06 62.41 98.09 <
-2 -14 6 0 1167.50 1580.08 475.12 o
-2 -14 6 1 53.36 138.33 138.02 <
-2 -14 6 2 18.15 69.70 91.11 <
-1 -14 6 -2 32.05 189.04 155.18 <
-1 -14 6 -1 362.98 241.13 174.16 <
-1 -14 6 0 467.47 699.54 287.74 <
-1 -14 6 1 812.12 926.24 233.54 o
-1 -14 6 2 315.02 433.06 135.60 o
0 -14 6 -2 55.87 -190.26 134.23 <
0 -14 6 -1 212.24 170.22 86.40 <
0 -14 6 0 655.31 933.08 211.52 o
0 -14 6 1 52.83 -1.97 32.19 <
0 -14 6 2 68.33 -75.16 68.33 <
1 -14 6 -2 152.09 183.88 82.91 <
1 -14 6 -1 2367.93 2640.86 311.73 o
1 -14 6 0 886.15 634.55 153.21 o
1 -14 6 1 1202.72 1105.72 191.47 o
1 -14 6 2 13.58 10.78 60.74 <
2 -14 6 -2 192.86 2.43 57.85 <
2 -14 6 -1 322.86 141.82 81.54 <
2 -14 6 0 1202.50 1334.85 352.88 o
-3 -13 6 -2 17.73 -53.30 123.14 <
-3 -13 6 -1 274.73 613.60 321.60 <
-3 -13 6 0 5222.41 6113.05 981.67 o
-3 -13 6 1 2966.41 2279.77 583.38 o
-3 -13 6 2 125.18 84.42 113.12 <
-2 -13 6 -2 34.42 -71.67 102.49 <
-2 -13 6 -1 16.69 40.54 169.15 <
-2 -13 6 0 412.06 590.97 250.69 <
-2 -13 6 1 34.42 -163.08 144.86 <
-2 -13 6 2 59.95 215.77 163.99 <
-1 -13 6 -2 131.51 262.84 208.94 <
-1 -13 6 -1 450.03 890.86 335.12 <
-1 -13 6 0 17547.10 17101.00 1002.47 o
-1 -13 6 1 5871.99 5386.48 447.63 o
-1 -13 6 2 65.56 -6.68 57.70 <
0 -13 6 -2 129.01 155.18 88.68 <
0 -13 6 -1 69.71 112.82 78.81 <
0 -13 6 0 512.01 366.09 124.82 <
0 -13 6 1 39.05 191.47 93.08 <
0 -13 6 2 342.78 134.84 73.64 <
1 -13 6 -2 30.84 7.44 54.21 <
1 -13 6 -1 571.77 590.52 135.75 o
1 -13 6 0 17240.30 16347.90 741.45 o
1 -13 6 1 2326.73 2402.31 278.18 o
1 -13 6 2 221.91 219.87 129.52 <
2 -13 6 -2 17.88 -46.62 109.93 <
2 -13 6 -1 467.32 415.44 181.30 <
2 -13 6 0 516.54 559.24 216.07 <
-4 -12 6 1 9.30 19.44 51.32 <
-4 -12 6 2 57.25 -114.49 139.70 <
-3 -12 6 -2 19.73 -23.38 142.28 <
-3 -12 6 -1 823.83 1504.01 484.68 o
-3 -12 6 0 212.38 304.29 210.15 <
-3 -12 6 1 24.77 29.00 69.09 <
-3 -12 6 2 4.39 149.41 144.25 <
-2 -12 6 -2 131.41 -83.82 106.14 <
-2 -12 6 -1 419.60 511.26 225.34 <
-2 -12 6 0 1020.90 634.55 292.15 <
-2 -12 6 1 125.69 205.75 141.67 <
-2 -12 6 2 143.52 333.75 203.32 <
-1 -12 6 -2 45.83 67.42 74.40 <
-1 -12 6 -1 795.60 478.46 158.22 o
-1 -12 6 0 1300.30 1113.47 189.96 o
-1 -12 6 1 473.34 695.29 162.93 o
-1 -12 6 2 5.15 62.56 52.23 <
0 -12 6 -2 28.40 65.29 65.14 <
0 -12 6 -1 1596.71 1506.59 254.79 o
0 -12 6 0 1988.51 2168.17 319.93 o
0 -12 6 1 14.71 -46.77 61.04 <
0 -12 6 2 171.28 122.23 53.90 <
1 -12 6 -2 48.85 196.03 78.35 <
1 -12 6 -1 956.64 1084.62 186.77 o
1 -12 6 0 972.20 1019.48 235.05 o
1 -12 6 1 452.08 365.49 136.51 <
1 -12 6 2 62.36 3.19 54.97 <
2 -12 6 -2 217.62 157.01 73.64 <
2 -12 6 -1 796.14 695.14 226.70 o
2 -12 6 0 1001.09 609.65 215.01 <
-4 -11 6 0 90.48 -243.56 203.17 <
-4 -11 6 1 581.45 669.02 332.69 <
-4 -11 6 2 168.80 83.97 119.35 <
-3 -11 6 -2 72.82 199.37 130.89 <
-3 -11 6 -1 628.18 581.71 312.64 <
-3 -11 6 0 823.99 1477.59 455.83 o
-3 -11 6 1 188.67 484.38 325.25 <
-3 -11 6 2 12.43 -225.34 171.28 <
-2 -11 6 -2 1102.59 1201.84 385.53 o
-2 -11 6 -1 59.77 85.94 99.46 <
-2 -11 6 0 100.85 23.99 54.66 <
-2 -11 6 1 1217.45 1652.36 299.28 o
-2 -11 6 2 184.61 -108.87 95.05 <
-1 -11 6 -2 6.31 13.36 36.44 <
-1 -11 6 -1 743.81 750.26 206.51 o
-1 -11 6 0 2532.60 2200.06 267.70 o
-1 -11 6 1 150.43 194.82 94.29 <
-1 -11 6 2 101.20 94.45 44.49 <
0 -11 6 -2 20.67 23.69 49.65 <
0 -11 6 -1 59.04 -4.71 50.11 <
0 -11 6 0 0.34 -9.57 51.17 <
0 -11 6 1 1389.35 1426.57 264.51 o
0 -11 6 2 78.24 -51.93 108.72 <
1 -11 6 -2 68.55 26.12 53.45 <
1 -11 6 -1 650.11 624.68 168.24 o
1 -11 6 0 2396.14 1899.25 292.75 o
1 -11 6 1 40.25 30.82 45.25 <
1 -11 6 2 258.98 253.73 120.11 <
2 -11 6 -2 129.35 23.08 59.67 <
2 -11 6 -1 59.79 0.30 35.68 <
2 -11 6 0 32.05 -99.00 83.67 <
-4 -10 6 -1 189.16 17.31 61.50 <
-4 -10 6 0 130.51 122.23 71.67 <
-4 -10 6 1 413.44 218.96 124.51 <
-4 -10 6 2 233.46 -31.13 75.77 <
-3 -10 6 -2 17.39 83.97 189.50 <
-3 -10 6 -1 49.05 136.35 186.01 <
-3 -10 6 0 1277.85 1580.54 451.89 o
-3 -10 6 1 88.86 -122.84 126.49 <
-3 -10 6 2 146.70 -62.71 131.95 <
-2 -10 6 -2 776.07 797.18 312.64 <
-2 -10 6 -1 1648.35 1992.18 475.88 o
-2 -10 6 0 646.75 447.79 213.34 <
-2 -10 6 1 807.33 330.11 123.14 <
-2 -10 6 2 524.21 201.19 77.90 <
-1 -10 6 -2 12.11 21.87 92.32 <
-1 -10 6 -1 211.81 105.68 55.42 <
-1 -10 6 0 2909.88 2678.51 289.57 o
-1 -10 6 1 107.03 150.63 69.24 <
-1 -10 6 2 69.43 -13.36 59.98 <
0 -10 6 -2 143.49 47.53 48.44 <
0 -10 6 -1 2934.95 3259.92 370.50 o
0 -10 6 0 4962.57 5039.07 471.62 o
0 -10 6 1 526.86 402.38 119.20 o
0 -10 6 2 226.92 170.52 124.66 <
1 -10 6 -2 177.46 140.61 94.45 <
1 -10 6 -1 328.86 226.85 80.48 <
1 -10 6 0 2987.67 2118.06 288.05 o
1 -10 6 1 210.49 79.41 60.59 <
1 -10 6 2 130.05 395.25 137.57 <
2 -10 6 -2 88.88 0.30 47.53 <
2 -10 6 -1 3564.09 2780.55 418.33 o
2 -10 6 0 1183.84 1042.40 249.18 o
-4 -9 6 -2 14.58 294.88 222.30 <
-4 -9 6 -1 111.79 529.93 289.41 <
-4 -9 6 0 63.90 99.76 126.79 <
-4 -9 6 1 643.38 379.76 185.70 <
-4 -9 6 2 161.56 154.73 149.11 <
-3 -9 6 -2 13.34 -77.59 104.77 <
-3 -9 6 -1 401.70 912.58 333.75 <
-3 -9 6 0 635.32 739.02 321.00 <
-3 -9 6 1 232.10 331.93 220.48 <
-3 -9 6 2 73.39 -134.53 126.79 <
-2 -9 6 -2 5.43 50.41 135.44 <
-2 -9 6 -1 406.31 398.74 235.51 <
-2 -9 6 0 208.25 -29.76 59.07 <
-2 -9 6 1 1709.95 1174.05 246.29 o
-2 -9 6 2 198.54 63.17 61.50 <
-1 -9 6 -2 44.43 -29.61 52.08 <
-1 -9 6 -1 135.73 88.37 84.58 <
-1 -9 6 0 2362.02 2220.25 260.41 o
-1 -9 6 1 42.40 -10.63 59.37 <
-1 -9 6 2 44.67 16.85 52.69 <
0 -9 6 -2 51.90 18.52 26.12 <
0 -9 6 -1 1189.56 1006.42 125.12 o
0 -9 6 0 0.43 -100.82 76.53 <
0 -9 6 1 898.72 961.62 325.86 <
0 -9 6 2 266.31 239.30 183.58 <
1 -9 6 -2 181.72 163.23 110.09 <
1 -9 6 -1 358.27 259.35 98.09 <
1 -9 6 0 2586.74 1945.57 184.34 o
1 -9 6 1 445.59 300.04 102.49 <
1 -9 6 2 307.52 312.49 129.67 <
2 -9 6 -2 4.43 4.10 16.10 <
2 -9 6 -1 555.13 396.01 157.16 <
2 -9 6 0 77.94 77.59 66.05 <
-4 -8 6 -2 224.93 151.24 158.52 <
-4 -8 6 -1 501.30 787.76 347.27 <
-4 -8 6 0 69.42 52.54 170.06 <
-4 -8 6 1 26.50 -175.07 158.98 <
-4 -8 6 2 173.98 -95.51 116.31 <
-3 -8 6 -1 449.55 364.27 210.91 <
-3 -8 6 0 124.42 74.56 97.33 <
-3 -8 6 1 52.62 66.51 77.29 <
-3 -8 6 2 0.33 95.66 156.70 <
-2 -8 6 -2 2090.44 1810.73 423.34 o
-2 -8 6 -1 2337.94 2285.85 471.02 o
-2 -8 6 0 2457.64 2596.37 497.74 o
-2 -8 6 1 122.27 213.19 88.37 <
-2 -8 6 2 221.03 91.56 71.37 <
-1 -8 6 -2 141.93 -61.65 54.36 <
-1 -8 6 -1 560.81 591.43 129.98 o
-1 -8 6 0 377.70 298.22 95.96 o
-1 -8 6 1 23.52 62.26 68.03 <
-1 -8 6 2 21.76 8.35 38.11 <
0 -8 6 -2 82.30 5.47 25.66 <
0 -8 6 -1 1780.03 1931.60 222.45 o
0 -8 6 0 5090.00 4320.55 424.40 o
0 -8 6 1 26.31 105.99 104.92 <
1 -8 6 -1 2052.07 1713.70 203.77 o
1 -8 6 0 181.51 145.31 58.00 <
1 -8 6 1 513.00 240.67 141.21 <
2 -8 6 -2 22.45 28.85 34.16 <
2 -8 6 -1 215.27 80.93 68.79 <
2 -8 6 0 1916.69 2129.45 319.02 o
-4 -7 6 -2 89.70 163.08 161.41 <
-4 -7 6 -1 939.88 1291.88 437.01 <
-4 -7 6 0 1998.99 1962.12 528.11 o
-4 -7 6 2 7.38 33.86 46.46 <
-3 -7 6 -2 9.06 -4.86 103.71 <
-3 -7 6 -1 431.70 300.50 206.05 <
-3 -7 6 0 7349.97 6678.82 870.21 o
-3 -7 6 1 2420.96 2753.52 560.30 o
-3 -7 6 2 7.25 70.30 46.77 <
-2 -7 6 -2 2149.98 2472.77 491.67 o
-2 -7 6 -1 656.98 1178.61 348.33 o
-2 -7 6 0 11860.60 11498.20 1014.62 o
-2 -7 6 1 81.21 71.52 75.47 <
-2 -7 6 2 233.68 109.18 60.74 <
-1 -7 6 -2 68.56 21.56 51.32 <
-1 -7 6 -1 109.92 69.09 42.82 <
-1 -7 6 0 24528.90 21961.10 793.23 o
-1 -7 6 1 3985.52 4326.92 355.92 o
-1 -7 6 2 50.73 118.44 63.17 <
0 -7 6 -2 166.54 126.64 54.51 <
0 -7 6 -1 289.37 99.00 44.34 <
0 -7 6 0 15857.60 16334.70 812.66 o
0 -7 6 1 2.26 -29.61 48.29 <
0 -7 6 2 759.17 606.61 220.17 <
1 -7 6 -2 286.29 112.36 46.62 <
1 -7 6 -1 2169.71 1543.64 174.62 o
1 -7 6 1 126.05 204.84 109.93 <
2 -7 6 -2 55.02 -28.55 23.54 <
2 -7 6 -1 882.58 587.78 88.07 o
2 -7 6 0 10460.70 9800.72 646.09 o
-4 -6 6 -2 34.32 -194.36 172.80 <
-4 -6 6 -1 85.95 103.10 125.57 <
-4 -6 6 0 683.36 888.89 357.74 <
-4 -6 6 1 15.77 -139.70 138.48 <
-4 -6 6 2 47.03 -32.49 134.99 <
-3 -6 6 -2 15.75 -189.50 148.35 <
-3 -6 6 -1 1113.46 1182.40 373.53 o
-3 -6 6 0 52.57 224.12 141.82 <
-3 -6 6 1 242.76 368.52 202.41 <
-3 -6 6 2 161.58 60.59 92.32 <
-2 -6 6 -2 198.73 200.43 106.44 <
-2 -6 6 -1 79.54 64.23 138.18 <
-2 -6 6 0 2138.27 1935.85 405.57 o
-2 -6 6 1 87.98 3.19 31.74 <
-2 -6 6 2 54.89 12.91 65.44 <
-1 -6 6 -2 17.95 6.83 30.06 <
-1 -6 6 -1 550.00 454.47 87.61 o
-1 -6 6 0 438.17 656.72 131.19 o
-1 -6 6 1 1191.23 1023.12 163.08 o
-1 -6 6 2 112.94 84.58 66.81 <
0 -6 6 -2 187.29 64.84 39.18 <
0 -6 6 -1 144.00 79.26 61.80 <
0 -6 6 0 5733.46 5706.87 465.70 o
0 -6 6 1 372.35 284.10 82.30 o
0 -6 6 2 200.17 42.97 41.76 <
1 -6 6 -2 56.20 50.41 28.24 <
1 -6 6 -1 4863.90 2480.97 233.84 o
1 -6 6 0 489.95 508.07 179.63 <
2 -6 6 -2 176.02 206.81 53.45 o
2 -6 6 -1 118.84 61.04 49.20 <
2 -6 6 0 2486.64 2342.64 288.20 o
-4 -5 6 -2 180.13 458.11 309.30 <
-4 -5 6 -1 791.31 635.01 273.17 <
-4 -5 6 0 896.71 503.66 217.90 <
-4 -5 6 1 1280.21 710.63 305.51 <
-4 -5 6 2 38.95 68.33 102.34 <
-3 -5 6 -2 1.88 255.25 170.37 <
-3 -5 6 -1 44.70 561.97 244.77 <
-3 -5 6 0 5350.97 5128.35 730.97 o
-3 -5 6 1 23.67 -68.48 47.38 <
-3 -5 6 2 168.53 50.87 78.05 <
-2 -5 6 -2 24.73 32.19 116.01 <
-2 -5 6 -1 1285.52 1585.39 357.89 o
-2 -5 6 0 6961.42 7319.75 402.84 o
-2 -5 6 1 1313.77 1323.62 158.52 o
-2 -5 6 2 13.00 -25.66 42.97 <
-1 -5 6 -2 186.03 164.75 61.34 <
-1 -5 6 -1 58.90 14.73 23.54 <
-1 -5 6 0 17468.20 16352.40 661.58 o
-1 -5 6 1 299.20 245.99 84.73 <
-1 -5 6 2 30.78 7.29 52.23 <
0 -5 6 -2 27.04 2.13 52.54 <
0 -5 6 -1 114.90 56.18 68.48 <
0 -5 6 0 16123.30 16582.50 555.75 o
0 -5 6 1 1.77 -10.17 49.80 <
0 -5 6 2 0.30 -36.14 32.65 <
1 -5 6 -2 21.29 -10.78 33.86 <
1 -5 6 -1 836.12 621.19 146.68 o
1 -5 6 0 17572.10 17781.60 884.34 o
2 -5 6 -2 95.78 -14.73 29.61 <
2 -5 6 -1 704.57 827.70 153.97 o
2 -5 6 0 7754.10 8909.25 499.56 o
3 -5 6 -2 20.05 30.67 35.68 <
-4 -4 6 -2 49.58 2.43 25.21 <
-4 -4 6 -1 794.54 1141.41 255.55 o
-4 -4 6 0 180.33 332.23 222.45 <
-4 -4 6 1 407.67 329.35 209.39 <
-4 -4 6 2 277.82 250.39 186.92 <
-3 -4 6 -2 94.28 184.19 121.02 <
-3 -4 6 -1 4623.00 6101.51 519.00 o
-3 -4 6 0 1457.26 1096.92 211.67 o
-3 -4 6 1 326.97 75.01 59.98 <
-3 -4 6 2 189.96 -73.49 130.89 <
-2 -4 6 -2 48.64 38.26 68.33 <
-2 -4 6 -1 3257.45 4314.93 366.70 o
-2 -4 6 0 878.65 838.17 137.11 o
-2 -4 6 1 415.15 307.03 74.10 o
-2 -4 6 2 247.04 150.02 59.22 <
-1 -4 6 -2 98.24 202.41 52.69 o
-1 -4 6 -1 5075.78 5241.93 277.27 o
-1 -4 6 0 6487.84 6081.62 400.71 o
-1 -4 6 1 294.78 255.70 92.02 <
-1 -4 6 2 145.41 98.24 83.21 <
0 -4 6 -2 54.19 -73.19 54.97 <
0 -4 6 -1 4604.01 4862.32 403.60 o
0 -4 6 0 121.05 66.96 23.99 <
0 -4 6 1 203.91 92.78 46.62 <
0 -4 6 2 5.97 -39.18 71.37 <
1 -4 6 -2 33.08 -0.30 61.50 <
1 -4 6 -1 90.20 69.39 64.08 <
1 -4 6 0 5979.74 5253.47 376.42 o
2 -4 6 -2 8.17 22.02 22.78 <
2 -4 6 -1 3255.09 3230.46 268.46 o
2 -4 6 0 1077.35 1167.98 157.16 o
3 -4 6 -2 97.81 -2.28 30.98 <
-4 -3 6 -2 248.34 -34.16 76.23 <
-4 -3 6 -1 588.41 145.01 103.56 <
-4 -3 6 0 8034.16 8843.50 713.51 o
-4 -3 6 1 3071.58 2581.49 580.95 o
-4 -3 6 2 112.36 -33.71 69.54 <
-3 -3 6 -2 253.92 369.74 127.09 <
-3 -3 6 -1 630.49 736.74 190.87 o
-3 -3 6 0 2608.59 3070.27 356.22 o
-3 -3 6 1 124.68 116.16 55.73 <
-3 -3 6 2 35.34 -77.74 57.55 <
-2 -3 6 -2 415.85 421.36 119.65 o
-2 -3 6 -1 2249.04 2290.25 264.81 o
-2 -3 6 0 43282.80 44671.80 970.73 o
-2 -3 6 1 6246.91 6619.30 376.27 o
-2 -3 6 2 79.87 60.74 39.48 <
-1 -3 6 -2 308.84 291.39 65.75 o
-1 -3 6 -1 1169.46 961.62 120.87 o
-1 -3 6 0 6137.61 5633.99 291.23 o
-1 -3 6 1 228.64 15.79 34.16 <
-1 -3 6 2 469.47 236.27 110.24 <
0 -3 6 -2 206.91 193.90 60.89 o
0 -3 6 -1 3270.00 2987.21 223.51 o
0 -3 6 0 92132.00 85773.20 1206.39 o
0 -3 6 1 2375.20 2743.35 218.50 o
0 -3 6 2 66.16 76.53 47.98 <
1 -3 6 -2 108.88 63.01 95.51 <
1 -3 6 -1 628.95 491.36 110.09 o
1 -3 6 0 5681.66 6004.94 714.12 o
1 -3 6 1 554.33 278.33 160.50 <
1 -3 6 2 1012.77 1700.19 409.98 o
2 -3 6 -2 235.72 216.68 60.74 o
2 -3 6 -1 650.18 198.76 52.99 o
2 -3 6 0 43941.90 45834.30 794.14 o
-5 -2 6 2 22.18 69.39 142.28 <
-4 -2 6 -2 104.28 -5.01 54.36 <
-4 -2 6 -1 121.72 247.50 120.71 <
-4 -2 6 0 171.62 73.64 101.43 <
-4 -2 6 1 175.98 32.49 48.13 <
-4 -2 6 2 75.74 3.49 56.18 <
-3 -2 6 -2 20.24 -35.38 73.04 <
-3 -2 6 -1 138.73 72.43 82.75 <
-3 -2 6 0 746.84 883.12 192.69 o
-3 -2 6 1 57.03 -58.31 37.35 <
-3 -2 6 2 52.50 43.12 55.27 <
-2 -2 6 -2 937.50 917.89 177.51 o
-2 -2 6 -1 161.90 252.67 89.44 <
-2 -2 6 0 78.98 76.53 37.81 <
-2 -2 6 1 153.76 -16.25 50.87 <
-2 -2 6 2 123.97 19.28 48.89 <
-1 -2 6 -2 5.39 -19.28 24.75 <
-1 -2 6 -1 2500.10 2807.43 200.13 o
-1 -2 6 0 1942.56 2006.91 175.99 o
-1 -2 6 1 159.62 90.35 35.99 <
-1 -2 6 2 123.14 97.03 48.44 <
0 -2 6 -2 112.00 40.09 63.47 <
0 -2 6 -1 33.52 32.49 33.86 <
0 -2 6 0 7594.49 7850.90 351.67 o
0 -2 6 1 80.86 6.07 67.72 <
0 -2 6 2 91.52 107.66 36.75 <
1 -2 6 -2 61.45 29.15 30.22 <
1 -2 6 -1 203.08 77.44 106.14 <
1 -2 6 0 2031.29 1972.75 410.28 o
1 -2 6 1 756.31 1033.90 315.23 o
1 -2 6 2 141.66 -27.18 30.98 <
2 -2 6 -2 59.01 -2.58 4.71 <
-5 -1 6 2 85.07 113.43 117.07 <
-4 -1 6 -2 24.90 168.70 103.56 <
-4 -1 6 -1 333.26 803.71 245.53 o
-4 -1 6 0 912.36 1000.65 235.51 o
-4 -1 6 1 0.35 -1.21 56.79 <
-4 -1 6 2 119.85 -39.48 59.98 <
-3 -1 6 -2 315.76 283.95 115.25 <
-3 -1 6 -1 1896.30 2406.41 324.18 o
-3 -1 6 0 11841.80 11697.20 703.95 o
-3 -1 6 1 3482.94 3022.74 348.02 o
-3 -1 6 2 106.55 25.05 64.69 <
-2 -1 6 -2 1036.55 827.09 161.56 o
-2 -1 6 -1 160.81 296.70 86.10 o
-2 -1 6 0 4563.98 4902.26 322.21 o
-2 -1 6 1 487.80 212.12 69.54 o
-2 -1 6 2 16.39 32.65 46.62 <
-1 -1 6 -2 342.63 276.51 68.03 o
-1 -1 6 -1 719.83 882.66 111.15 o
-1 -1 6 0 47162.70 46080.00 933.08 o
-1 -1 6 1 2895.10 2838.40 234.60 o
-1 -1 6 2 42.87 -25.51 50.41 <
0 -1 6 -2 7.31 18.37 37.66 <
0 -1 6 -1 135.04 125.27 44.34 <
0 -1 6 0 10908.90 10752.80 411.19 o
0 -1 6 1 1096.07 804.01 145.47 o
0 -1 6 2 303.26 242.04 97.79 <
1 -1 6 -2 31.10 35.53 43.28 <
1 -1 6 -1 435.27 512.93 110.39 o
1 -1 6 0 48632.70 47615.70 1131.54 o
1 -1 6 1 716.00 549.67 123.45 o
1 -1 6 2 26.74 88.68 82.75 <
2 -1 6 -2 56.26 21.26 33.41 <
2 -1 6 -1 514.99 254.18 75.16 o
-5 0 6 -1 695.68 1448.58 460.54 o
-5 0 6 2 336.22 298.52 216.98 <
-4 0 6 -2 361.63 729.15 227.61 o
-4 0 6 -1 732.57 1328.17 283.34 o
-4 0 6 0 210.44 272.41 113.43 <
-4 0 6 1 2.38 44.64 60.13 <
-4 0 6 2 23.35 -32.34 46.62 <
-3 0 6 -2 10.26 24.29 81.84 <
-3 0 6 -1 3299.06 5307.07 490.45 o
-3 0 6 0 857.79 728.85 177.20 o
-3 0 6 1 901.72 1423.99 240.22 o
-3 0 6 2 818.03 558.63 149.57 o
-2 0 6 -2 3682.75 3040.05 327.22 o
-2 0 6 -1 1201.96 704.10 123.45 o
-2 0 6 0 9629.48 9742.11 454.32 o
-2 0 6 1 992.41 1432.03 176.59 o
-2 0 6 2 83.60 67.42 64.69 <
-1 0 6 -2 1.77 25.66 27.79 <
-1 0 6 -1 2641.87 3441.68 220.78 o
-1 0 6 0 4022.91 3425.89 260.56 o
-1 0 6 1 871.69 618.61 86.55 o
-1 0 6 2 627.05 840.45 99.15 o
0 0 6 -2 168.63 181.00 37.05 o
0 0 6 -1 329.59 637.74 83.67 o
0 0 6 0 2284.73 2431.01 210.46 o
0 0 6 1 4446.08 5061.08 319.17 o
0 0 6 2 0.80 -18.22 24.14 <
1 0 6 -2 302.04 244.47 59.22 o
1 0 6 -1 7289.55 7758.43 439.28 o
1 0 6 0 4078.03 4045.10 321.30 o
1 0 6 1 156.50 219.26 54.21 o
1 0 6 2 70.06 11.08 51.02 <
2 0 6 -2 1.13 38.11 29.61 <
2 0 6 -1 1924.83 2340.66 195.73 o
-5 1 6 -1 478.00 455.83 259.65 <
-5 1 6 0 1145.23 1207.15 422.43 <
-5 1 6 2 89.81 -63.32 102.95 <
-4 1 6 -2 25.99 -92.47 80.63 <
-4 1 6 -1 342.25 553.62 184.49 o
-4 1 6 0 889.83 1293.86 280.45 o
-4 1 6 1 0.36 46.31 63.01 <
-4 1 6 2 116.09 -61.80 88.07 <
-3 1 6 -2 309.57 236.57 82.75 <
-3 1 6 -1 1872.20 2435.72 334.97 o
-3 1 6 0 11868.90 11528.80 709.11 o
-3 1 6 1 3498.64 2707.21 333.75 o
-3 1 6 2 109.66 -76.07 67.11 <
-2 1 6 -2 1037.76 767.72 168.70 o
-2 1 6 -1 176.21 299.28 80.02 o
-2 1 6 0 4500.14 4462.82 306.57 o
-2 1 6 1 469.49 204.38 64.99 o
-2 1 6 2 18.46 -4.25 38.72 <
-1 1 6 -2 340.04 269.67 67.87 o
-1 1 6 -1 730.47 802.34 106.44 o
-1 1 6 0 47325.30 46052.80 964.05 o
-1 1 6 1 2887.63 2847.36 247.20 o
-1 1 6 2 43.31 69.54 34.92 <
0 1 6 -2 6.26 -29.91 25.36 <
0 1 6 -1 123.01 64.23 25.21 <
0 1 6 0 10907.10 10783.90 339.22 o
0 1 6 1 1123.19 1051.82 136.51 o
0 1 6 2 307.15 182.82 50.26 o
1 1 6 -2 32.71 37.35 17.46 <
1 1 6 -1 454.64 360.02 177.35 <
1 1 6 0 48886.50 48067.30 2033.94 o
1 1 6 1 748.91 718.22 264.66 <
1 1 6 2 28.73 51.17 81.84 <
2 1 6 -2 55.92 29.91 23.23 <
2 1 6 -1 507.87 249.93 54.82 o
-5 2 6 -1 161.90 116.16 133.77 <
-5 2 6 0 62.24 93.69 119.35 <
-5 2 6 1 62.14 13.36 49.05 <
-5 2 6 2 21.13 157.76 157.01 <
-4 2 6 -2 101.16 -21.26 41.15 <
-4 2 6 -1 124.07 361.99 153.06 <
-4 2 6 0 175.30 72.43 103.71 <
-4 2 6 1 177.47 26.42 98.70 <
-4 2 6 2 76.75 -44.03 63.17 <
-3 2 6 -2 18.84 65.75 59.83 <
-3 2 6 -1 119.72 360.02 134.53 <
-3 2 6 0 749.64 959.34 206.20 o
-3 2 6 1 64.16 -23.08 72.88 <
-3 2 6 2 52.31 -51.93 53.90 <
-2 2 6 -2 943.17 794.44 174.16 o
-2 2 6 -1 181.12 169.76 57.40 <
-2 2 6 0 85.48 -1.67 41.60 <
-2 2 6 1 157.58 47.07 44.19 <
-2 2 6 2 131.62 56.03 42.21 <
-1 2 6 -2 4.72 -13.06 26.12 <
-1 2 6 -1 2519.02 2881.38 271.50 o
-1 2 6 0 1934.44 1886.80 196.64 o
-1 2 6 1 169.17 85.64 58.16 <
-1 2 6 2 124.89 113.12 49.50 <
0 2 6 -2 111.66 -48.44 27.64 <
0 2 6 -1 38.92 18.83 34.62 <
0 2 6 0 7595.81 7803.37 282.73 o
0 2 6 1 75.55 19.13 20.20 <
0 2 6 2 81.54 170.37 49.20 o
1 2 6 -2 60.50 86.25 32.80 <
1 2 6 -1 223.63 72.28 48.74 <
1 2 6 0 1992.90 1638.54 391.76 o
1 2 6 1 732.89 729.30 300.35 <
1 2 6 2 124.22 23.99 121.02 <
-5 3 6 0 273.10 -87.31 117.68 <
-5 3 6 1 99.57 361.84 229.13 <
-5 3 6 2 94.83 45.86 64.38 <
-4 3 6 -2 245.93 215.31 117.68 <
-4 3 6 -1 593.08 157.46 110.85 <
-4 3 6 0 8013.51 8950.40 756.33 o
-4 3 6 1 3052.07 2866.95 414.23 o
-4 3 6 2 109.59 89.44 83.97 <
-3 3 6 -2 255.71 346.66 128.00 <
-3 3 6 -1 635.77 606.01 169.46 o
-3 3 6 0 2592.56 3017.12 372.47 o
-3 3 6 1 122.82 302.02 120.71 <
-3 3 6 2 34.41 25.36 52.39 <
-2 3 6 -2 401.76 460.69 133.32 o
-2 3 6 -1 2227.39 2077.52 218.05 o
-2 3 6 0 43220.80 43981.20 991.84 o
-2 3 6 1 6212.31 6429.65 390.84 o
-2 3 6 2 74.27 7.29 46.46 <
-1 3 6 -2 295.66 317.50 75.01 o
-1 3 6 -1 1197.69 963.90 164.75 o
-1 3 6 0 6071.79 6041.84 360.93 o
-1 3 6 1 225.12 -5.47 42.36 <
-1 3 6 2 472.20 426.98 100.07 o
0 3 6 -2 204.89 208.02 69.54 <
0 3 6 -1 3254.98 2943.94 231.41 o
0 3 6 0 92007.50 84696.30 1207.61 o
0 3 6 1 2370.50 2461.23 164.45 o
0 3 6 2 70.39 120.87 45.25 <
1 3 6 -2 110.53 121.78 61.19 <
1 3 6 -1 626.18 827.85 257.83 o
1 3 6 0 5626.49 5800.26 695.74 o
1 3 6 1 582.78 443.08 194.06 <
1 3 6 2 1029.86 1553.81 389.93 o
2 3 6 -2 234.77 96.57 79.72 <
2 3 6 -1 650.96 303.53 170.67 <
2 3 6 0 43918.50 44325.00 1927.80 o
2 3 6 1 252.00 456.59 206.66 <
2 3 6 2 785.80 452.95 228.98 <
-5 4 6 0 318.29 138.02 147.90 <
-5 4 6 1 30.80 157.16 153.66 <
-5 4 6 2 110.93 -88.98 98.85 <
-4 4 6 -2 47.69 2.13 72.43 <
-4 4 6 -1 797.52 1341.23 305.81 o
-4 4 6 0 179.42 154.12 93.08 <
-4 4 6 1 416.41 416.51 170.22 <
-4 4 6 2 275.01 182.97 102.49 <
-3 4 6 -2 87.06 68.94 61.34 <
-3 4 6 -1 4699.12 6063.86 552.10 o
-3 4 6 0 1462.64 1167.22 236.72 o
-3 4 6 1 314.11 74.56 71.82 <
-3 4 6 2 190.72 168.09 60.89 <
-2 4 6 -2 51.46 47.68 24.45 <
-2 4 6 -1 3273.40 4213.50 310.82 o
-2 4 6 0 877.24 681.62 123.75 o
-2 4 6 1 423.71 275.29 80.63 o
-2 4 6 2 240.38 129.22 87.46 <
-1 4 6 -2 102.96 164.90 58.76 <
-1 4 6 -1 4985.14 5242.84 408.00 o
-1 4 6 0 6519.06 5573.56 353.64 o
-1 4 6 1 294.04 231.10 71.97 o
-1 4 6 2 145.76 58.31 37.81 <
0 4 6 -2 51.40 69.54 54.66 <
0 4 6 -1 4604.37 4766.05 300.95 o
0 4 6 0 139.85 21.56 40.24 <
0 4 6 1 195.45 174.92 71.82 <
0 4 6 2 6.38 17.01 18.83 <
1 4 6 -2 31.73 -4.10 21.11 <
1 4 6 -1 94.26 15.03 74.10 <
1 4 6 0 6036.18 5013.41 631.67 o
1 4 6 1 16557.80 17427.50 1263.49 o
1 4 6 2 19.46 37.66 73.64 <
2 4 6 -2 8.14 -149.26 104.62 <
2 4 6 -1 3245.75 3234.72 512.32 o
2 4 6 0 1092.75 1352.32 341.65 o
2 4 6 1 282.39 75.47 85.64 <
2 4 6 2 322.54 237.79 159.43 <
-5 5 6 0 739.73 623.47 315.99 <
-5 5 6 1 81.60 400.26 248.72 <
-5 5 6 2 202.59 73.49 107.96 <
-4 5 6 -2 181.46 600.69 206.35 <
-4 5 6 -1 772.11 1304.33 294.12 o
-4 5 6 0 893.99 830.73 233.08 o
-4 5 6 1 1279.29 721.41 213.64 o
-4 5 6 2 40.50 148.81 99.15 <
-3 5 6 -2 2.27 -11.84 81.69 <
-3 5 6 -1 45.79 212.43 139.70 <
-3 5 6 0 5293.51 5411.08 521.13 o
-3 5 6 1 25.20 185.40 109.33 <
-3 5 6 2 168.89 113.43 61.04 <
-2 5 6 -2 30.26 44.64 66.20 <
-2 5 6 -1 1246.86 1424.59 185.55 o
-2 5 6 0 6940.45 7523.37 426.38 o
-2 5 6 1 1318.65 1196.37 175.53 o
-2 5 6 2 13.01 -73.04 47.38 <
-1 5 6 -2 181.27 155.03 51.78 <
-1 5 6 -1 67.58 0.30 79.41 <
-1 5 6 0 17243.80 15532.30 730.06 o
-1 5 6 1 292.60 217.74 87.61 <
-1 5 6 2 30.58 -15.03 38.26 <
0 5 6 -2 28.15 35.38 47.83 <
0 5 6 -1 102.28 193.30 81.39 <
0 5 6 0 16129.50 16918.20 815.55 o
0 5 6 1 2.94 2.89 38.87 <
0 5 6 2 0.11 -1.82 37.05 <
1 5 6 -2 22.63 -6.07 26.57 <
1 5 6 -1 878.55 958.13 132.86 o
1 5 6 0 17450.90 17599.40 673.27 o
1 5 6 1 271.52 252.21 83.67 o
1 5 6 2 66.79 -71.82 84.58 <
2 5 6 -2 93.28 8.50 20.95 <
2 5 6 -1 704.67 741.45 240.22 o
2 5 6 0 7796.86 8382.81 857.76 o
2 5 6 1 1200.49 1156.89 321.91 o
2 5 6 2 191.98 236.42 150.32 <
4 5 6 2 50.83 149.57 148.50 <
5 5 6 -2 33.63 6.83 40.09 <
5 5 6 -1 268.82 512.47 283.95 <
-5 6 6 1 174.17 267.55 208.33 <
-5 6 6 2 71.73 -150.93 154.73 <
-4 6 6 -2 31.85 187.53 119.35 <
-4 6 6 -1 82.61 5.92 64.84 <
-4 6 6 0 699.16 1175.87 278.63 o
-4 6 6 1 17.15 85.03 99.76 <
-4 6 6 2 44.26 -18.37 68.03 <
-3 6 6 -2 15.46 76.53 91.26 <
-3 6 6 -1 1134.78 1340.78 269.52 o
-3 6 6 0 51.98 134.84 69.85 <
-3 6 6 1 241.95 378.70 145.77 <
-3 6 6 2 161.21 204.08 119.04 <
-2 6 6 -2 199.55 242.19 97.94 <
-2 6 6 -1 73.08 94.60 74.25 <
-2 6 6 0 2138.55 2298.45 240.98 o
-2 6 6 1 89.89 37.96 53.75 <
-2 6 6 2 51.80 110.39 93.23 <
-1 6 6 -2 20.89 73.95 45.70 <
-1 6 6 -1 521.95 623.16 143.95 o
-1 6 6 0 448.52 648.22 159.43 o
-1 6 6 1 1175.91 959.34 185.55 o
-1 6 6 2 111.94 46.62 50.41 <
0 6 6 -2 192.29 76.38 67.57 <
0 6 6 -1 162.76 9.11 45.55 <
0 6 6 0 5673.13 6076.46 508.52 o
0 6 6 1 359.23 336.18 126.94 <
0 6 6 2 206.97 -8.81 37.81 <
1 6 6 -2 55.79 37.20 25.21 <
1 6 6 -1 4893.89 4409.07 298.68 o
1 6 6 0 505.86 372.32 91.41 o
1 6 6 1 1057.85 1527.09 216.07 o
1 6 6 2 57.71 78.96 67.72 <
2 6 6 -2 174.34 193.90 80.17 <
2 6 6 -1 123.48 99.15 45.40 <
2 6 6 0 2432.17 2544.59 305.66 o
2 6 6 1 207.44 160.65 67.11 <
2 6 6 2 136.44 249.63 105.23 <
3 6 6 -2 15.84 9.11 61.95 <
3 6 6 -1 1589.72 1435.22 250.09 o
3 6 6 0 59.67 110.54 96.88 <
3 6 6 1 529.08 559.39 166.12 o
3 6 6 2 107.56 68.33 53.45 <
4 6 6 -2 91.58 341.49 196.64 <
4 6 6 -1 168.16 252.97 190.26 <
4 6 6 0 747.26 1333.18 410.28 o
4 6 6 1 128.48 5.16 32.95 <
4 6 6 2 53.28 -44.64 84.88 <
5 6 6 -2 73.67 6.53 40.24 <
5 6 6 -1 474.02 225.18 192.08 <
-5 7 6 2 52.67 275.90 214.55 <
-4 7 6 -2 100.08 204.38 125.27 <
-4 7 6 -1 964.11 1327.41 318.72 o
-4 7 6 0 1995.21 1344.12 310.82 o
-4 7 6 1 228.61 -32.80 49.20 <
-4 7 6 2 8.12 -228.52 171.43 <
-3 7 6 -2 7.47 356.22 157.61 <
-3 7 6 -1 403.78 341.04 128.61 <
-3 7 6 0 7283.13 7079.69 628.93 o
-3 7 6 1 2390.86 2663.63 386.59 o
-3 7 6 2 8.30 -67.87 78.81 <
-2 7 6 -2 2147.97 2769.77 374.14 o
-2 7 6 -1 679.38 880.54 219.41 o
-2 7 6 0 11876.50 11477.80 552.56 o
-2 7 6 1 81.24 0.91 55.27 <
-2 7 6 2 239.31 38.26 41.45 <
-1 7 6 -2 68.67 96.88 92.02 <
-1 7 6 -1 110.22 199.98 130.74 <
-1 7 6 0 24338.60 19063.30 1520.25 o
-1 7 6 1 3982.08 3504.24 665.53 o
-1 7 6 2 49.94 207.42 95.21 <
0 7 6 -2 168.11 0.76 49.96 <
0 7 6 -1 268.71 58.46 79.87 <
0 7 6 0 15939.60 15469.80 835.14 o
0 7 6 1 0.78 -19.44 95.36 <
0 7 6 2 757.49 667.20 133.77 o
1 7 6 -2 287.42 122.99 49.05 <
1 7 6 -1 2185.81 1992.03 205.90 o
1 7 6 0 25562.10 23797.80 768.78 o
1 7 6 1 155.21 -8.66 71.37 <
1 7 6 2 123.72 -49.96 55.57 <
2 7 6 -2 51.82 -14.73 46.46 <
2 7 6 -1 887.59 647.16 145.01 o
2 7 6 0 10439.20 11386.70 642.60 o
2 7 6 1 641.18 804.31 179.02 o
2 7 6 2 2404.38 3072.24 368.98 o
3 7 6 -2 456.17 178.26 90.80 <
3 7 6 -1 637.93 375.05 129.37 <
3 7 6 0 7527.72 7653.05 601.15 o
3 7 6 1 837.14 2082.68 329.80 o
3 7 6 2 39.68 52.69 78.65 <
4 7 6 -2 30.63 128.76 118.59 <
4 7 6 -1 1156.82 1004.44 347.27 <
4 7 6 0 1557.22 1478.80 429.41 o
4 7 6 1 497.39 1190.60 407.70 <
4 7 6 2 54.83 187.37 169.15 <
5 7 6 -2 188.10 69.24 103.56 <
5 7 6 -1 233.57 260.56 206.66 <
-5 8 6 2 2.35 -5.92 43.12 <
-4 8 6 -2 209.22 177.96 110.09 <
-4 8 6 -1 498.55 273.77 122.08 <
-4 8 6 0 67.98 50.56 95.96 <
-4 8 6 1 26.37 -128.76 120.56 <
-4 8 6 2 173.91 58.92 82.15 <
-3 8 6 -2 86.10 94.90 84.73 <
-3 8 6 -1 460.64 624.08 196.64 o
-3 8 6 0 134.20 30.37 95.96 <
-3 8 6 1 55.35 -19.74 39.78 <
-3 8 6 2 0.83 -50.11 101.13 <
-2 8 6 -2 2122.24 1728.89 298.37 o
-2 8 6 -1 2390.82 2780.86 378.24 o
-2 8 6 0 2527.55 2942.26 282.12 o
-2 8 6 1 109.53 234.75 116.92 <
-2 8 6 2 230.95 -35.38 74.25 <
-1 8 6 -2 145.49 -127.85 124.51 <
-1 8 6 -1 576.17 580.19 295.33 <
-1 8 6 0 392.97 315.99 204.38 <
-1 8 6 1 22.94 139.24 139.24 <
-1 8 6 2 22.83 -99.46 114.79 <
0 8 6 -2 82.70 -33.71 135.60 <
0 8 6 -1 1813.86 1908.52 295.94 o
0 8 6 0 4933.75 4543.75 469.95 o
0 8 6 1 24.95 -29.00 68.48 <
0 8 6 2 143.41 -18.98 38.26 <
1 8 6 -2 20.54 -3.04 62.71 <
1 8 6 -1 2048.39 1913.83 216.38 o
1 8 6 0 196.04 195.27 68.63 <
1 8 6 1 539.74 424.70 115.86 o
1 8 6 2 341.08 418.02 116.62 o
2 8 6 -2 23.26 65.90 53.90 <
2 8 6 -1 214.56 32.80 55.27 <
2 8 6 0 2071.33 2088.91 274.68 o
2 8 6 1 37.43 63.01 71.67 <
2 8 6 2 583.81 467.37 144.25 o
3 8 6 -2 136.01 56.03 63.01 <
3 8 6 -1 844.72 658.24 164.75 o
3 8 6 0 62.89 165.05 95.05 <
3 8 6 1 465.47 203.47 88.37 <
3 8 6 2 68.25 378.39 204.23 <
4 8 6 -2 138.04 175.07 154.88 <
4 8 6 -1 24.09 253.58 173.71 <
4 8 6 0 319.67 -50.41 83.06 <
4 8 6 1 136.72 285.16 201.95 <
4 8 6 2 158.58 191.32 70.91 <
5 8 6 -2 131.68 51.17 90.65 <
5 8 6 -1 230.97 -73.64 112.52 <
-4 9 6 -2 15.69 126.79 145.92 <
-4 9 6 -1 107.65 336.03 232.32 <
-4 9 6 0 56.79 441.56 264.21 <
-4 9 6 1 650.47 394.03 248.87 <
-4 9 6 2 163.76 122.54 140.30 <
-3 9 6 -2 14.38 40.85 78.65 <
-3 9 6 -1 409.01 550.73 279.70 <
-3 9 6 0 635.11 621.95 293.06 <
-3 9 6 1 237.74 335.42 217.74 <
-3 9 6 2 75.41 258.29 195.12 <
-2 9 6 -2 6.46 -13.06 119.80 <
-2 9 6 -1 403.58 740.69 309.61 <
-2 9 6 0 192.62 47.22 160.20 <
-2 9 6 1 1729.99 965.42 240.98 o
-2 9 6 2 202.91 -37.20 78.96 <
-1 9 6 -2 49.01 -36.44 107.35 <
-1 9 6 -1 145.36 342.56 201.19 <
-1 9 6 0 2357.44 2170.29 560.60 o
-1 9 6 1 43.19 -14.58 65.60 <
-1 9 6 2 48.29 -84.27 111.45 <
0 9 6 -2 60.32 40.09 153.36 <
0 9 6 -1 1166.69 1198.19 408.61 <
0 9 6 0 2.76 22.62 45.10 <
0 9 6 1 869.13 772.73 161.71 o
0 9 6 2 259.12 198.76 105.07 <
1 9 6 -2 180.08 21.26 50.26 <
1 9 6 -1 339.30 237.03 84.58 <
1 9 6 0 2576.35 2572.53 255.40 o
1 9 6 1 445.55 347.87 102.65 o
1 9 6 2 303.21 326.77 95.96 o
2 9 6 -2 4.75 -73.34 45.25 <
2 9 6 -1 553.80 313.40 100.22 o
2 9 6 0 78.09 16.55 42.06 <
2 9 6 1 298.94 208.33 93.38 <
2 9 6 2 160.64 174.01 92.62 <
3 9 6 -2 288.74 -132.26 72.13 <
3 9 6 -1 807.64 553.47 158.07 o
3 9 6 0 1026.88 1280.95 343.77 o
3 9 6 1 528.98 921.38 312.95 <
3 9 6 2 86.88 -95.36 105.07 <
4 9 6 -2 42.57 -54.21 79.57 <
4 9 6 -1 199.84 213.04 175.99 <
4 9 6 0 30.63 132.56 133.47 <
4 9 6 1 41.09 -6.38 37.35 <
4 9 6 2 48.42 -42.52 82.91 <
5 9 6 -2 137.81 -299.13 215.77 <
5 9 6 -1 349.86 178.11 173.25 <
-4 10 6 -2 220.40 220.32 196.03 <
-4 10 6 -1 190.26 209.54 190.87 <
-4 10 6 0 117.54 295.33 223.97 <
-4 10 6 1 413.27 348.02 242.19 <
-4 10 6 2 231.74 -14.88 59.83 <
-3 10 6 -2 17.81 -242.95 189.80 <
-3 10 6 -1 48.01 -13.97 53.30 <
-3 10 6 0 1305.83 1131.69 397.37 <
-3 10 6 1 86.26 273.62 206.51 <
-3 10 6 2 136.76 78.20 156.70 <
-2 10 6 -2 791.43 252.51 188.29 <
-2 10 6 -1 1628.92 1045.29 415.14 <
-2 10 6 0 690.22 39.78 98.55 <
-2 10 6 1 818.72 47.07 94.45 <
-2 10 6 2 510.06 321.15 227.92 <
-1 10 6 -2 13.55 182.36 218.05 <
-1 10 6 -1 214.31 190.87 201.34 <
-1 10 6 0 2933.89 2708.73 651.56 o
-1 10 6 1 115.74 210.91 237.18 <
-1 10 6 2 64.69 -335.88 223.51 <
0 10 6 -2 157.70 201.50 252.21 <
0 10 6 -1 2920.68 3683.56 422.88 o
0 10 6 0 4911.69 5328.48 466.92 o
0 10 6 1 544.29 578.52 180.54 o
0 10 6 2 233.92 148.81 108.57 <
1 10 6 -2 172.14 126.49 48.74 <
1 10 6 -1 319.77 396.46 115.55 o
1 10 6 0 2982.35 3222.11 308.24 o
1 10 6 1 220.45 181.60 72.28 <
1 10 6 2 133.74 105.83 88.07 <
2 10 6 -2 89.51 25.05 43.73 <
2 10 6 -1 3566.30 2410.36 275.60 o
2 10 6 0 1198.35 861.25 168.09 o
2 10 6 1 278.62 121.78 90.65 <
2 10 6 2 374.68 301.56 112.97 <
3 10 6 -2 126.18 283.49 156.55 <
3 10 6 -1 519.87 481.04 208.18 <
3 10 6 0 1462.18 2123.98 459.33 o
3 10 6 1 304.17 45.55 71.67 <
3 10 6 2 62.35 130.89 123.75 <
4 10 6 -2 7.94 -152.15 132.41 <
4 10 6 -1 987.46 1137.31 374.60 o
4 10 6 0 32.09 203.93 167.18 <
4 10 6 1 1.89 -133.01 140.30 <
5 10 6 -2 60.21 -158.07 158.52 <
-4 11 6 -1 201.79 612.53 298.22 <
-4 11 6 0 84.87 22.17 68.79 <
-4 11 6 1 575.16 458.87 287.89 <
-4 11 6 2 169.64 116.62 86.25 <
-3 11 6 -2 77.30 79.87 79.87 <
-3 11 6 -1 659.57 688.61 355.31 <
-3 11 6 0 844.21 1398.63 477.39 <
-3 11 6 1 185.55 -164.75 168.85 <
-3 11 6 2 11.45 -47.98 98.39 <
-2 11 6 -2 1120.55 1082.49 428.35 <
-2 11 6 -1 60.45 41.30 180.54 <
-2 11 6 0 93.55 1.06 130.43 <
-2 11 6 1 1196.67 1660.10 584.60 <
-1 11 6 -2 4.66 -6.98 129.22 <
-1 11 6 -1 752.56 891.93 422.12 <
-1 11 6 0 2558.60 1904.11 549.98 o
-1 11 6 1 157.61 -11.69 176.14 <
-1 11 6 2 102.51 2.13 35.38 <
0 11 6 -2 23.63 -49.96 108.72 <
0 11 6 -1 65.97 38.42 62.56 <
0 11 6 0 3.60 -146.83 152.60 <
0 11 6 1 1395.80 1407.59 455.83 o
0 11 6 2 77.44 -6.23 82.30 <
1 11 6 -2 66.92 0.15 56.03 <
1 11 6 -1 649.16 732.04 158.52 o
1 11 6 0 2386.86 2714.04 300.80 o
1 11 6 1 78.41 -62.71 45.86 <
1 11 6 2 263.44 300.35 141.97 <
2 11 6 -2 130.51 77.29 51.02 <
2 11 6 -1 62.31 41.60 36.75 <
2 11 6 0 25.59 50.87 42.21 <
2 11 6 1 745.73 1256.20 310.22 o
3 11 6 -2 84.18 186.46 120.26 <
3 11 6 -1 1176.08 715.94 255.10 <
3 11 6 0 578.76 1135.94 338.61 o
3 11 6 1 1805.44 3475.23 619.67 o
4 11 6 -2 195.48 -112.06 115.86 <
4 11 6 -1 142.63 6.83 37.51 <
4 11 6 0 22.33 328.59 212.88 <
4 11 6 1 157.12 413.92 248.72 <
5 11 6 -2 11.50 304.90 220.48 <
-4 12 6 0 145.12 -127.09 159.59 <
-4 12 6 1 9.02 -172.49 184.79 <
-4 12 6 2 55.78 692.86 369.43 <
-3 12 6 -2 20.63 -226.85 199.52 <
-3 12 6 -1 848.35 780.02 369.89 <
-3 12 6 0 196.40 192.23 188.13 <
-3 12 6 1 21.86 78.50 124.66 <
-3 12 6 2 3.08 20.80 70.46 <
-2 12 6 -2 123.64 -126.33 148.05 <
-2 12 6 -1 442.79 684.81 357.29 <
-2 12 6 0 1005.85 747.22 402.69 <
-2 12 6 1 127.98 61.34 156.10 <
-2 12 6 2 137.61 98.70 273.32 <
-1 12 6 -2 48.18 150.17 163.69 <
-1 12 6 -1 726.49 420.30 275.44 <
-1 12 6 0 1307.87 1279.28 494.55 <
-1 12 6 1 480.83 277.27 250.39 <
-1 12 6 2 3.87 70.00 83.67 <
0 12 6 -2 22.52 -112.21 99.15 <
0 12 6 -1 1634.96 1563.68 319.17 o
0 12 6 0 1916.35 2160.27 605.40 o
0 12 6 1 11.43 -140.76 151.99 <
0 12 6 2 175.37 254.49 208.48 <
1 12 6 -2 49.77 66.66 102.04 <
1 12 6 -1 975.50 970.58 247.81 o
1 12 6 0 1000.62 1003.68 199.67 o
1 12 6 1 453.85 222.60 124.36 <
1 12 6 2 68.18 117.83 109.93 <
2 12 6 -2 216.92 90.50 54.06 <
2 12 6 -1 797.39 829.67 263.30 o
2 12 6 0 967.49 913.03 272.10 o
3 12 6 -2 179.31 -96.12 94.60 <
3 12 6 -1 7.04 67.87 81.84 <
3 12 6 0 93.70 -171.43 133.32 <
3 12 6 1 1113.69 2167.71 491.67 o
4 12 6 -2 205.93 36.59 51.78 <
4 12 6 -1 350.83 497.74 255.25 <
4 12 6 0 224.10 -102.19 123.30 <
5 12 6 -2 134.03 394.64 254.03 <
-4 13 6 1 40.92 373.99 280.76 <
-4 13 6 2 51.89 156.70 184.95 <
-3 13 6 -2 19.04 -26.72 80.63 <
-3 13 6 -1 286.38 879.93 409.98 <
-3 13 6 0 5194.25 5501.58 1036.79 o
-3 13 6 1 2958.95 2126.72 652.02 o
-3 13 6 2 132.59 58.76 84.58 <
-2 13 6 -2 36.33 -164.60 176.29 <
-2 13 6 -1 18.28 -278.02 234.45 <
-2 13 6 0 420.46 383.25 275.90 <
-2 13 6 1 34.22 138.33 171.43 <
-2 13 6 2 61.28 -91.87 142.88 <
-1 13 6 -2 130.40 -74.71 121.93 <
-1 13 6 -1 504.15 549.52 286.83 <
-1 13 6 0 17565.10 18027.30 1887.56 o
-1 13 6 1 5944.95 5996.13 1069.43 o
-1 13 6 2 68.35 -227.61 201.80 <
0 13 6 -2 125.43 236.72 134.68 <
0 13 6 -1 78.19 49.65 136.20 <
0 13 6 0 531.90 296.40 205.14 <
0 13 6 1 38.44 24.90 70.46 <
0 13 6 2 336.89 377.03 251.30 <
1 13 6 -2 31.38 31.43 93.38 <
1 13 6 -1 605.47 584.29 222.15 <
1 13 6 0 17317.80 17658.30 1788.86 o
1 13 6 1 2391.44 3192.96 746.31 o
2 13 6 -2 16.64 21.26 26.72 <
2 13 6 -1 487.05 345.14 198.76 <
2 13 6 0 515.93 916.68 284.40 o
3 13 6 -2 11.97 82.00 100.98 <
3 13 6 -1 224.61 235.36 155.49 <
3 13 6 0 5288.23 5495.81 780.32 o
4 13 6 -2 54.01 87.61 107.50 <
4 13 6 -1 406.52 338.46 215.46 <
-3 14 6 -2 86.25 62.71 169.46 <
-3 14 6 -1 1854.72 2201.12 696.20 o
-3 14 6 0 101.06 -258.89 237.48 <
-3 14 6 1 222.97 136.35 188.89 <
-3 14 6 2 352.52 196.94 308.85 <
-2 14 6 -2 11.48 -182.36 194.82 <
-2 14 6 -1 122.50 228.22 192.38 <
-2 14 6 0 1218.43 773.18 404.36 <
-2 14 6 1 52.27 -109.02 156.85 <
-2 14 6 2 16.82 12.45 92.17 <
-1 14 6 -2 31.71 -40.85 96.42 <
-1 14 6 -1 435.37 128.46 166.72 <
-1 14 6 0 482.58 338.61 223.36 <
-1 14 6 1 810.63 873.86 414.68 <
-1 14 6 2 310.92 490.15 306.42 <
0 14 6 -2 59.41 44.79 100.07 <
0 14 6 -1 209.37 547.85 359.87 <
0 14 6 0 685.87 1048.63 437.16 <
0 14 6 1 50.93 -4.25 41.76 <
0 14 6 2 62.33 167.48 222.75 <
1 14 6 -2 153.01 107.96 67.87 <
1 14 6 -1 2432.55 4215.01 926.85 o
1 14 6 0 911.34 890.86 421.06 <
1 14 6 1 1134.48 1264.09 500.63 <
2 14 6 -2 189.59 10.02 35.99 <
2 14 6 -1 325.20 194.21 140.15 <
3 14 6 -2 8.09 -142.88 124.06 <
3 14 6 -1 331.83 450.21 226.85 <
4 14 6 -2 110.12 150.17 141.82 <
4 14 6 -1 317.51 145.92 145.62 <
-3 15 6 -2 96.57 247.20 234.29 <
-3 15 6 -1 578.32 851.23 448.09 <
-3 15 6 0 1653.92 1941.47 685.88 <
-3 15 6 1 366.34 297.76 346.66 <
-3 15 6 2 291.30 263.60 340.43 <
-2 15 6 -2 139.19 146.83 153.06 <
-2 15 6 -1 90.41 329.80 198.46 <
-2 15 6 0 420.99 267.70 249.63 <
-2 15 6 1 30.93 79.41 141.97 <
-2 15 6 2 43.89 -77.74 136.81 <
-1 15 6 -2 4.32 -38.26 101.28 <
-1 15 6 -1 2882.24 2646.93 775.31 o
-1 15 6 0 3949.61 5185.44 1036.48 o
-1 15 6 1 1273.28 1491.25 578.22 <
-1 15 6 2 293.91 -90.35 106.75 <
0 15 6 -2 137.62 155.03 232.78 <
0 15 6 -1 249.72 -73.95 124.82 <
0 15 6 0 1069.42 1374.64 541.47 <
0 15 6 1 268.54 488.93 341.65 <
1 15 6 -2 7.20 2.13 51.02 <
1 15 6 -1 613.90 393.43 284.71 <
1 15 6 0 3587.75 4357.90 961.47 o
1 15 6 1 371.35 633.19 331.47 <
2 15 6 -2 259.59 -44.95 75.31 <
3 15 6 -2 106.60 52.23 104.62 <
4 15 6 -2 155.25 -91.26 114.94 <
-3 16 6 -1 6.98 -144.71 192.99 <
-3 16 6 0 954.99 964.81 488.02 <
-3 16 6 1 38.64 -398.59 319.63 <
-3 16 6 2 48.23 -73.04 140.30 <
-2 16 6 -2 276.03 319.33 320.85 <
-2 16 6 -1 61.52 284.71 278.33 <
-2 16 6 0 731.33 470.71 341.34 <
-2 16 6 1 2.24 -368.98 303.99 <
-2 16 6 2 21.19 120.71 175.99 <
-1 16 6 -2 136.47 111.00 164.90 <
-1 16 6 -1 957.92 1020.08 484.83 <
-1 16 6 0 1177.83 929.43 476.79 <
-1 16 6 1 30.21 -342.10 271.19 <
-1 16 6 2 6.36 -17.16 72.43 <
0 16 6 -2 43.28 219.87 217.29 <
0 16 6 -1 37.53 -443.38 302.02 <
0 16 6 0 495.68 -213.95 210.30 <
0 16 6 1 540.56 871.28 455.53 <
0 16 6 2 18.55 123.75 226.85 <
1 16 6 -2 23.81 -193.90 206.20 <
1 16 6 -1 953.13 427.29 241.89 <
1 16 6 0 1047.59 892.84 404.21 <
1 16 6 1 49.59 18.52 70.15 <
3 16 6 -2 52.57 -49.20 156.70 <
-3 17 6 2 13.91 109.18 177.66 <
-2 17 6 -2 46.49 -45.25 115.40 <
-2 17 6 -1 33.00 828.15 465.25 <
-2 17 6 0 10226.70 9280.35 1576.89 o
-2 17 6 1 2839.82 2865.28 864.44 o
-2 17 6 2 62.38 277.11 224.42 <
-1 17 6 -2 105.00 213.79 233.99 <
-1 17 6 -1 141.61 -46.16 113.43 <
-1 17 6 0 1080.83 812.97 381.43 <
-1 17 6 1 45.49 -184.34 204.84 <
-1 17 6 2 15.33 -5.77 52.08 <
0 17 6 -2 16.03 175.99 197.70 <
0 17 6 -1 114.24 560.91 347.57 <
0 17 6 0 22087.10 24060.60 2286.45 o
0 17 6 1 1897.64 2218.88 669.17 o
0 17 6 2 37.70 -145.77 177.35 <
1 17 6 -2 58.87 356.38 282.12 <
1 17 6 -1 397.83 290.63 202.41 <
1 17 6 0 1156.48 1513.88 583.84 <
1 17 6 1 397.81 258.74 242.04 <
-2 18 6 -2 361.86 195.12 234.45 <
-2 18 6 -1 715.82 1277.76 596.14 <
-2 18 6 0 953.20 1294.46 602.97 <
-2 18 6 1 6.92 -56.94 182.21 <
-2 18 6 2 29.95 -74.56 115.86 <
-1 18 6 -2 42.39 229.89 248.26 <
-1 18 6 -1 16.30 338.76 228.52 <
-1 18 6 0 770.53 586.42 375.51 <
-1 18 6 1 91.26 435.18 287.44 <
-1 18 6 2 74.87 155.34 288.35 <
0 18 6 -2 4.40 -7.59 173.40 <
0 18 6 -1 506.24 599.48 370.04 <
0 18 6 0 861.76 1043.31 478.31 <
0 18 6 1 60.27 263.60 241.28 <
0 18 6 2 24.31 -279.09 249.33 <
1 18 6 -2 97.74 75.92 135.75 <
1 18 6 0 620.66 673.12 424.86 <
1 18 6 1 23.11 476.03 334.81 <
-1 19 6 -2 338.29 653.84 420.15 <
-1 19 6 -1 19.12 -15.64 266.33 <
-1 19 6 0 1055.48 505.33 391.45 <
-1 19 6 1 74.30 -25.81 84.42 <
-1 19 6 2 27.38 -137.87 182.36 <
0 19 6 -2 37.83 11.84 188.29 <
0 19 6 -1 1477.82 1622.90 610.71 <
0 19 6 0 340.98 595.22 368.83 <
0 19 6 1 1734.99 2494.33 768.93 o
0 19 6 2 40.74 211.82 207.87 <
1 19 6 -2 127.02 -4.86 57.70 <
1 19 6 -1 216.41 92.93 154.42 <
1 19 6 0 992.72 998.98 495.01 <
1 19 6 1 145.43 266.33 258.74 <
-1 20 6 -2 122.14 707.59 444.75 <
-1 20 6 -1 1788.93 1989.45 702.73 <
-1 20 6 0 433.81 459.63 253.58 <
-1 20 6 1 40.98 -194.82 257.98 <
0 20 6 -2 48.17 81.24 143.04 <
0 20 6 -1 432.59 901.49 530.84 <
0 20 6 0 247.83 465.40 333.30 <
0 20 6 1 278.49 484.68 392.67 <
1 20 6 -2 122.31 246.29 392.67 <
1 20 6 0 558.84 207.27 232.47 <
0 21 6 -1 880.82 1537.72 616.18 <
1 21 6 -2 47.71 -368.22 309.76 <
1 -22 7 -2 312.59 375.96 300.65 <
1 -22 7 -1 164.53 196.79 217.44 <
0 -21 7 -2 150.74 84.73 139.85 <
0 -21 7 -1 75.15 333.75 270.89 <
0 -21 7 0 1912.70 1324.53 541.02 <
0 -21 7 1 35.45 -261.78 244.32 <
1 -21 7 -2 74.50 -101.74 155.03 <
1 -21 7 -1 19.68 207.11 219.41 <
2 -21 7 -2 43.27 225.64 179.02 <
0 -20 7 -2 37.07 27.94 54.06 <
0 -20 7 -1 185.46 355.46 182.97 <
0 -20 7 0 4055.68 4387.05 642.15 o
0 -20 7 1 80.21 36.44 94.75 <
1 -20 7 -2 1.58 -11.08 62.56 <
1 -20 7 -1 566.43 270.58 247.05 <
2 -20 7 -2 34.30 133.01 133.62 <
-1 -19 7 -2 437.00 97.03 186.62 <
-1 -19 7 -1 282.02 28.24 103.10 <
-1 -19 7 0 103.21 15.94 171.74 <
-1 -19 7 1 543.32 497.44 286.98 <
-1 -19 7 2 237.82 157.46 143.19 <
0 -19 7 -2 3.60 -93.23 188.13 <
0 -19 7 -1 150.80 33.71 81.24 <
0 -19 7 0 4397.38 4541.63 630.30 o
0 -19 7 1 55.03 399.65 284.86 <
1 -19 7 -2 145.69 400.56 289.87 <
1 -19 7 -1 90.66 -97.48 150.02 <
2 -19 7 -2 20.89 -51.32 119.35 <
-1 -18 7 -2 3.47 -123.14 119.96 <
-1 -18 7 -1 56.20 -37.51 86.85 <
-1 -18 7 0 219.60 143.79 190.87 <
-1 -18 7 1 309.02 109.48 81.69 <
-1 -18 7 2 48.92 -266.33 204.38 <
0 -18 7 -2 227.52 59.67 99.00 <
0 -18 7 -1 182.51 80.93 140.76 <
0 -18 7 0 1157.35 2000.38 630.76 o
0 -18 7 1 230.52 347.11 170.98 <
0 -18 7 2 39.18 -90.80 99.61 <
1 -18 7 -2 2.32 -80.78 131.19 <
1 -18 7 -1 205.99 192.54 201.34 <
2 -18 7 -2 386.26 362.15 184.03 <
2 -18 7 -1 241.26 37.05 68.63 <
-2 -17 7 -2 1045.17 1183.62 468.74 <
-2 -17 7 -1 25.66 51.78 48.74 <
-2 -17 7 0 131.39 0.61 254.34 <
-2 -17 7 1 153.40 105.53 132.41 <
-2 -17 7 2 3.22 354.55 273.62 <
-1 -17 7 -2 208.59 -286.07 210.30 <
-1 -17 7 -1 150.62 75.01 110.39 <
-1 -17 7 0 4501.71 4036.14 787.16 o
-1 -17 7 1 35.90 -178.42 165.21 <
-1 -17 7 2 356.69 315.99 229.59 <
0 -17 7 -2 20.12 57.09 108.72 <
0 -17 7 -1 26.09 -64.38 100.52 <
0 -17 7 0 2030.73 1737.39 349.70 o
0 -17 7 1 247.87 -23.99 52.54 <
0 -17 7 2 25.85 51.93 75.01 <
1 -17 7 -2 70.72 -58.00 105.23 <
1 -17 7 -1 27.44 13.97 68.18 <
1 -17 7 0 5382.82 5218.24 657.94 o
1 -17 7 1 1425.65 1866.91 523.71 o
1 -17 7 2 135.35 262.39 194.36 <
2 -17 7 -2 26.26 28.85 59.37 <
2 -17 7 -1 79.17 84.27 97.94 <
-2 -16 7 -2 61.10 -109.18 135.75 <
-2 -16 7 -1 2653.55 2843.26 683.29 o
-2 -16 7 0 3907.72 3665.34 764.23 o
-2 -16 7 1 114.50 250.09 198.91 <
-2 -16 7 2 220.50 134.68 159.74 <
-1 -16 7 -2 72.24 25.97 67.87 <
-1 -16 7 -1 145.91 72.73 112.82 <
-1 -16 7 0 423.01 431.54 248.41 <
-1 -16 7 1 10.80 192.69 191.02 <
-1 -16 7 2 113.53 186.92 127.40 <
0 -16 7 -2 25.68 68.79 58.92 <
0 -16 7 -1 3227.77 3139.36 431.84 o
0 -16 7 0 1157.61 1126.83 325.55 o
0 -16 7 1 7.34 -65.29 73.19 <
0 -16 7 2 217.30 96.27 84.12 <
1 -16 7 -2 64.94 115.55 72.28 <
1 -16 7 -1 559.97 621.34 177.51 o
1 -16 7 0 467.19 198.76 113.43 <
1 -16 7 1 1844.60 2024.22 521.89 o
1 -16 7 2 193.51 234.75 160.04 <
2 -16 7 -2 0.68 -94.14 138.94 <
2 -16 7 -1 1861.16 2049.12 453.56 o
-3 -15 7 1 61.53 226.40 152.91 <
-3 -15 7 2 6.87 35.38 113.73 <
-2 -15 7 -2 177.70 800.06 348.78 <
-2 -15 7 -1 738.09 1698.52 525.23 o
-2 -15 7 0 2439.17 2050.03 553.01 o
-2 -15 7 1 80.82 -39.18 114.94 <
-2 -15 7 2 387.61 561.97 276.05 <
-1 -15 7 -2 31.15 103.10 125.12 <
-1 -15 7 -1 222.28 -337.70 213.95 <
-1 -15 7 0 13.95 41.45 79.26 <
-1 -15 7 1 252.63 85.34 92.02 <
-1 -15 7 2 22.70 -17.77 41.00 <
0 -15 7 -2 244.62 95.51 65.14 <
0 -15 7 -1 993.94 929.58 247.20 o
0 -15 7 0 992.05 1046.81 240.37 o
0 -15 7 1 74.42 154.42 94.60 <
0 -15 7 2 481.79 698.02 179.18 o
1 -15 7 -2 116.14 95.05 94.90 <
1 -15 7 -1 390.28 361.84 126.49 <
1 -15 7 0 80.19 -36.90 70.00 <
1 -15 7 1 201.39 94.90 73.64 <
1 -15 7 2 42.86 41.00 53.15 <
2 -15 7 -2 49.50 -229.43 137.11 <
2 -15 7 -1 120.44 71.21 23.23 o
-3 -14 7 -2 50.57 71.37 105.38 <
-3 -14 7 -1 774.06 716.24 347.11 <
-3 -14 7 0 1424.81 1369.32 480.89 <
-3 -14 7 1 422.97 727.03 328.29 <
-3 -14 7 2 1.98 -125.12 142.12 <
-2 -14 7 -2 82.56 -121.47 133.93 <
-2 -14 7 -1 53.65 236.72 246.44 <
-2 -14 7 0 918.45 1082.34 386.74 <
-2 -14 7 1 17.62 138.18 115.55 <
-2 -14 7 2 53.63 -55.12 134.53 <
-1 -14 7 -2 60.33 99.00 127.40 <
-1 -14 7 -1 202.91 256.01 226.25 <
-1 -14 7 0 7570.36 8670.70 1054.70 o
-1 -14 7 1 174.88 263.60 141.21 <
-1 -14 7 2 28.65 -7.59 93.84 <
0 -14 7 -2 22.63 -47.68 64.53 <
0 -14 7 -1 153.58 184.03 76.98 <
0 -14 7 0 230.78 4.86 37.96 <
0 -14 7 1 84.52 -141.67 89.59 <
0 -14 7 2 134.91 -51.17 61.04 <
1 -14 7 -2 122.56 144.10 84.73 <
1 -14 7 -1 143.90 27.03 47.22 <
1 -14 7 0 7430.92 7263.42 551.04 o
1 -14 7 1 240.58 186.62 105.07 <
1 -14 7 2 3.34 93.38 68.03 <
2 -14 7 -2 18.26 3.49 70.76 <
2 -14 7 -1 42.84 -49.96 67.72 <
-3 -13 7 -2 10.37 70.15 78.05 <
-3 -13 7 -1 46.16 369.13 243.71 <
-3 -13 7 0 968.52 440.65 244.16 <
-3 -13 7 1 269.79 210.46 167.79 <
-3 -13 7 2 32.26 -132.71 61.50 <
-2 -13 7 -2 29.11 -46.46 114.34 <
-2 -13 7 -1 90.53 122.54 187.68 <
-2 -13 7 0 603.94 631.52 275.14 <
-2 -13 7 1 56.26 -51.63 84.73 <
-2 -13 7 2 30.29 -123.60 128.16 <
-1 -13 7 -2 12.49 24.14 114.64 <
-1 -13 7 -1 2916.13 3549.18 660.52 o
-1 -13 7 0 4512.91 4138.49 404.21 o
-1 -13 7 1 245.23 332.99 122.84 <
-1 -13 7 2 1.73 -9.41 53.45 <
0 -13 7 -2 240.30 219.11 95.81 <
0 -13 7 -1 163.32 -66.96 68.18 <
0 -13 7 0 2636.84 2885.02 317.96 o
0 -13 7 1 1418.85 1291.27 269.52 o
0 -13 7 2 17.48 40.24 82.45 <
1 -13 7 -2 45.43 -45.55 83.06 <
1 -13 7 -1 135.34 54.82 66.96 <
1 -13 7 0 4892.87 5096.31 454.77 o
1 -13 7 1 763.39 658.70 308.85 <
1 -13 7 2 19.23 335.73 282.28 <
2 -13 7 -2 229.20 112.06 84.88 <
2 -13 7 -1 3.54 -115.70 97.03 <
-3 -12 7 -2 45.85 -64.53 106.29 <
-3 -12 7 -1 3854.74 6068.41 971.49 o
-3 -12 7 0 3805.10 4746.16 851.08 o
-3 -12 7 1 896.06 199.22 213.04 <
-3 -12 7 2 231.32 27.48 91.71 <
-2 -12 7 -2 112.32 121.32 132.10 <
-2 -12 7 -1 30.31 -54.51 88.22 <
-2 -12 7 0 2324.63 2563.26 563.64 o
-2 -12 7 1 125.98 57.09 38.26 <
-2 -12 7 2 14.92 -99.15 83.21 <
-1 -12 7 -2 65.17 17.46 59.67 <
-1 -12 7 -1 2056.37 1835.02 256.31 o
-1 -12 7 0 10494.00 10048.70 617.55 o
-1 -12 7 1 482.99 386.59 136.66 <
-1 -12 7 2 215.95 119.04 86.40 <
0 -12 7 -2 54.45 -71.06 59.22 <
0 -12 7 -1 89.38 55.42 41.76 <
0 -12 7 0 193.36 161.87 80.63 <
0 -12 7 1 765.70 1007.18 223.97 o
0 -12 7 2 184.11 60.28 92.47 <
1 -12 7 -2 11.87 -37.51 71.82 <
1 -12 7 -1 3794.68 3379.88 357.89 o
1 -12 7 0 10572.80 9623.21 789.43 o
1 -12 7 1 2057.51 1978.67 488.78 o
1 -12 7 2 101.61 -33.25 106.59 <
2 -12 7 -2 132.23 148.65 104.77 <
2 -12 7 -1 498.13 640.63 202.10 o
-4 -11 7 2 18.41 265.12 206.96 <
-3 -11 7 -2 221.76 356.53 233.54 <
-3 -11 7 -1 696.80 656.87 334.97 <
-3 -11 7 0 3101.89 2589.38 614.51 o
-3 -11 7 1 66.14 -206.81 169.61 <
-3 -11 7 2 247.53 600.54 300.19 <
-2 -11 7 -2 90.32 6.98 61.50 <
-2 -11 7 -1 275.72 144.25 139.39 <
-2 -11 7 0 7281.79 7030.95 908.48 o
-2 -11 7 1 142.26 72.43 89.28 <
-2 -11 7 2 104.77 -21.26 84.27 <
-1 -11 7 -2 775.43 645.94 187.37 o
-1 -11 7 -1 56.49 -53.45 68.33 <
-1 -11 7 0 9025.86 8596.45 563.79 o
-1 -11 7 1 134.60 -104.32 60.59 <
-1 -11 7 2 409.23 448.70 122.69 o
0 -11 7 -2 149.22 175.07 75.31 <
0 -11 7 -1 189.76 145.77 60.28 <
0 -11 7 0 5477.08 5455.27 428.80 o
0 -11 7 1 46.75 21.41 68.33 <
0 -11 7 2 148.46 90.80 93.08 <
1 -11 7 -2 109.44 -49.80 52.23 <
1 -11 7 -1 416.59 318.26 131.80 <
1 -11 7 0 8894.97 7060.10 654.29 o
1 -11 7 1 1205.26 933.68 359.57 <
1 -11 7 2 546.76 328.59 196.64 <
2 -11 7 -2 193.25 104.77 96.57 <
2 -11 7 -1 360.76 267.40 128.00 <
-4 -10 7 1 173.06 525.38 313.40 <
-4 -10 7 2 164.33 -18.07 93.38 <
-3 -10 7 -2 181.54 -78.20 109.33 <
-3 -10 7 -1 18.57 167.18 153.97 <
-3 -10 7 0 60.79 364.27 220.93 <
-3 -10 7 1 148.88 -92.47 113.28 <
-3 -10 7 2 9.49 -108.87 119.04 <
-2 -10 7 -2 37.88 -45.25 107.20 <
-2 -10 7 -1 1567.82 2030.60 490.76 o
-2 -10 7 0 8895.59 9166.77 1020.99 o
-2 -10 7 1 535.72 606.61 158.37 o
-2 -10 7 2 234.05 21.56 88.07 <
-1 -10 7 -2 96.22 152.91 88.37 <
-1 -10 7 -1 1209.79 1029.50 184.49 o
-1 -10 7 0 603.47 615.88 147.44 o
-1 -10 7 1 348.74 -47.38 51.93 <
-1 -10 7 2 126.18 74.56 66.81 <
0 -10 7 -2 88.99 -23.23 42.67 <
0 -10 7 -1 890.77 769.39 150.32 o
0 -10 7 0 8050.93 8654.76 528.87 o
0 -10 7 1 91.22 235.81 90.19 <
0 -10 7 2 75.05 191.17 124.06 <
1 -10 7 -2 22.21 -26.27 32.34 <
1 -10 7 -1 12.92 -183.27 136.20 <
1 -10 7 0 582.29 722.92 208.02 o
1 -10 7 1 3497.88 3538.71 626.66 o
1 -10 7 2 373.90 609.04 294.42 <
2 -10 7 -2 37.62 26.12 34.01 <
2 -10 7 -1 44.46 -18.07 35.08 <
-4 -9 7 0 508.49 919.41 380.06 <
-4 -9 7 1 630.67 981.36 380.52 <
-4 -9 7 2 173.15 50.11 92.32 <
-3 -9 7 -2 71.03 14.27 51.63 <
-3 -9 7 -1 103.72 50.56 181.15 <
-3 -9 7 0 80.85 -52.54 90.80 <
-3 -9 7 1 295.49 205.90 189.96 <
-3 -9 7 2 96.87 9.72 42.36 <
-2 -9 7 -2 3317.18 2365.87 511.10 o
-2 -9 7 -1 651.56 1552.14 440.80 o
-2 -9 7 0 6868.54 7350.88 885.70 o
-2 -9 7 1 2437.19 2789.36 327.68 o
-2 -9 7 2 270.32 249.78 107.35 <
-1 -9 7 -2 252.78 11.24 56.94 <
-1 -9 7 -1 178.01 47.22 66.96 <
-1 -9 7 0 643.73 416.96 115.40 o
-1 -9 7 1 2.50 -30.98 67.42 <
-1 -9 7 2 97.77 -31.13 77.44 <
0 -9 7 -2 178.37 27.48 35.99 <
0 -9 7 -1 220.51 336.03 95.05 o
0 -9 7 0 1665.13 1741.03 233.99 o
0 -9 7 1 1752.85 2069.01 325.10 o
0 -9 7 2 89.42 82.15 83.67 <
1 -9 7 -2 97.26 70.76 89.89 <
1 -9 7 -1 60.38 71.52 64.69 <
1 -9 7 0 488.52 318.72 131.50 <
1 -9 7 1 5784.13 5334.86 765.90 o
1 -9 7 2 356.52 59.83 83.51 <
2 -9 7 -2 80.86 39.02 45.70 <
2 -9 7 -1 50.91 312.49 140.15 <
-4 -8 7 -1 1216.05 2607.30 643.66 o
-4 -8 7 0 1415.70 1766.70 526.59 o
-4 -8 7 1 694.92 343.62 225.49 <
-4 -8 7 2 47.73 -117.07 131.65 <
-3 -8 7 -1 297.29 359.87 222.75 <
-3 -8 7 0 2859.39 3315.80 642.75 o
-3 -8 7 1 119.19 57.70 86.10 <
-3 -8 7 2 78.40 59.67 61.95 <
-2 -8 7 -2 50.27 -49.05 56.33 <
-2 -8 7 -1 1907.70 2176.82 474.51 o
-2 -8 7 0 11829.90 12341.20 1113.62 o
-2 -8 7 1 1815.37 1258.48 215.01 o
-2 -8 7 2 71.41 110.09 71.06 <
-1 -8 7 -2 61.56 50.87 61.65 <
-1 -8 7 -1 96.25 126.03 79.41 <
-1 -8 7 0 7208.24 6269.15 452.04 o
-1 -8 7 1 262.58 387.96 115.70 o
-1 -8 7 2 14.73 5.47 54.21 <
0 -8 7 -2 59.70 -9.72 41.00 <
0 -8 7 -1 568.95 481.49 121.32 o
0 -8 7 0 9235.22 9597.25 671.75 o
0 -8 7 1 2342.87 2530.47 353.19 o
0 -8 7 2 3.17 -104.92 83.67 <
1 -8 7 -2 203.07 274.68 97.79 <
1 -8 7 -1 777.37 562.28 171.89 o
1 -8 7 0 7014.54 5224.01 507.92 o
1 -8 7 1 2741.82 2124.29 483.17 o
1 -8 7 2 97.24 37.81 146.53 <
2 -8 7 -2 43.04 18.98 38.26 <
2 -8 7 -1 78.78 -6.07 43.88 <
-4 -7 7 -2 149.08 88.98 124.51 <
-4 -7 7 -1 236.30 418.02 254.79 <
-4 -7 7 0 79.47 39.02 49.80 <
-4 -7 7 1 19.56 -50.87 176.59 <
-4 -7 7 2 26.79 -164.60 151.24 <
-3 -7 7 -2 190.98 -174.62 149.72 <
-3 -7 7 -1 600.56 996.24 345.14 <
-3 -7 7 0 3589.79 4488.18 729.91 o
-3 -7 7 2 48.64 115.10 137.27 <
-2 -7 7 -2 742.23 428.20 203.77 <
-2 -7 7 -1 172.46 -6.38 101.13 <
-2 -7 7 0 1380.48 1547.43 277.42 o
-2 -7 7 1 32.74 49.50 53.15 <
-2 -7 7 2 159.99 34.32 40.24 <
-1 -7 7 -2 35.03 -102.19 58.46 <
-1 -7 7 -1 93.19 106.75 56.03 <
-1 -7 7 0 9373.49 8161.57 511.56 o
-1 -7 7 1 84.12 128.31 59.37 <
-1 -7 7 2 59.30 64.84 44.95 <
0 -7 7 -2 4.54 16.70 34.77 <
0 -7 7 -1 91.05 64.99 43.58 <
0 -7 7 0 504.20 228.83 103.40 <
0 -7 7 1 2.43 -0.91 37.96 <
0 -7 7 2 248.81 116.62 99.31 <
1 -7 7 -2 170.76 31.13 49.35 <
1 -7 7 -1 723.10 378.39 76.38 o
1 -7 7 0 9415.64 7590.64 587.18 o
1 -7 7 1 88.73 48.44 86.10 <
1 -7 7 2 50.34 -13.97 102.80 <
2 -7 7 -2 23.86 -65.29 49.80 <
2 -7 7 -1 65.34 63.47 48.89 <
-4 -6 7 -2 117.00 287.59 178.57 <
-4 -6 7 -1 319.37 142.12 168.70 <
-4 -6 7 0 41.21 -127.85 138.48 <
-4 -6 7 1 7.99 -360.02 224.12 <
-3 -6 7 -2 6.95 -6.53 72.13 <
-3 -6 7 -1 1679.61 2292.38 521.43 o
-3 -6 7 0 1436.27 1024.18 337.70 o
-3 -6 7 1 308.73 -35.23 131.34 <
-3 -6 7 2 230.86 192.08 134.53 <
-2 -6 7 -2 351.02 647.76 259.20 <
-2 -6 7 -1 412.53 386.74 225.94 <
-2 -6 7 0 257.28 249.63 124.06 <
-2 -6 7 1 527.39 564.55 142.28 o
-2 -6 7 2 134.93 191.17 91.71 <
-1 -6 7 -2 34.43 -21.41 37.05 <
-1 -6 7 -1 677.49 785.94 149.87 o
-1 -6 7 0 5598.33 4653.08 382.80 o
-1 -6 7 1 104.89 97.48 53.30 <
-1 -6 7 2 158.74 230.95 137.42 <
0 -6 7 -2 0.48 1.82 57.85 <
0 -6 7 -1 408.27 551.19 153.66 o
0 -6 7 0 3938.41 3335.84 370.95 o
0 -6 7 1 1411.66 1497.17 259.96 o
0 -6 7 2 549.99 1067.15 221.08 o
1 -6 7 -2 310.80 235.21 80.63 <
1 -6 7 -1 4612.77 3269.34 376.27 o
1 -6 7 0 5938.31 5066.70 452.95 o
1 -6 7 1 3646.49 3966.90 640.02 o
1 -6 7 2 50.41 132.10 143.19 <
2 -6 7 -2 97.89 54.66 40.85 <
2 -6 7 -1 13.49 15.18 31.13 <
-4 -5 7 -2 6.39 -209.39 181.15 <
-4 -5 7 -1 395.63 150.78 150.32 <
-4 -5 7 0 360.13 25.66 69.09 <
-4 -5 7 1 716.85 182.06 158.83 <
-4 -5 7 2 89.42 -250.39 181.76 <
-3 -5 7 -2 33.42 87.92 129.52 <
-3 -5 7 -1 345.01 176.44 156.40 <
-3 -5 7 0 318.46 242.65 141.67 <
-3 -5 7 1 1336.36 783.97 292.60 <
-3 -5 7 2 603.76 55.42 70.76 <
-2 -5 7 -2 310.47 167.18 96.88 <
-2 -5 7 -1 488.57 351.36 190.26 <
-2 -5 7 0 955.91 639.41 172.65 o
-2 -5 7 1 1137.29 1135.18 196.94 o
-2 -5 7 2 320.66 206.96 79.41 <
-1 -5 7 -2 510.04 493.64 90.50 o
-1 -5 7 -1 13283.10 12773.70 610.41 o
-1 -5 7 0 225.76 80.63 56.94 <
-1 -5 7 1 1234.98 982.58 165.66 o
-1 -5 7 2 576.54 264.51 116.62 <
0 -5 7 -2 96.53 191.02 101.43 <
0 -5 7 -1 51.69 172.95 91.11 <
0 -5 7 0 4191.40 3696.47 270.58 o
0 -5 7 1 36.12 65.60 64.08 <
0 -5 7 2 329.30 43.73 44.79 <
1 -5 7 -2 227.65 249.18 163.08 <
1 -5 7 -1 126.65 69.54 59.07 <
1 -5 7 0 57.16 84.73 69.85 <
1 -5 7 1 1999.92 2014.66 461.00 o
1 -5 7 2 279.85 415.75 207.57 <
2 -5 7 -2 41.15 87.16 47.68 <
-4 -4 7 -2 44.08 36.90 78.96 <
-4 -4 7 -1 185.54 -48.13 86.70 <
-4 -4 7 0 642.39 657.63 282.58 <
-4 -4 7 1 3.05 -179.48 199.83 <
-4 -4 7 2 87.47 -20.50 80.63 <
-3 -4 7 -2 67.50 344.23 128.61 <
-3 -4 7 -1 516.19 583.23 261.63 <
-3 -4 7 0 2079.31 1979.73 460.69 o
-3 -4 7 1 830.60 434.27 210.91 <
-3 -4 7 2 78.08 13.51 42.21 <
-2 -4 7 -2 50.41 26.88 42.21 <
-2 -4 7 -1 254.89 247.81 77.74 o
-2 -4 7 0 4182.78 4303.69 432.75 o
-2 -4 7 1 75.35 88.37 65.44 <
-2 -4 7 2 30.79 81.24 55.57 <
-1 -4 7 -2 85.97 -9.11 26.12 <
-1 -4 7 -1 284.73 173.71 61.80 <
-1 -4 7 0 6529.06 5580.39 401.17 o
-1 -4 7 1 1336.06 1077.33 214.86 o
-1 -4 7 2 62.30 -65.14 61.34 <
0 -4 7 -2 19.79 19.74 56.94 <
0 -4 7 -1 286.74 240.22 93.38 <
0 -4 7 0 3405.84 3252.02 252.21 o
0 -4 7 1 404.77 464.49 98.55 o
0 -4 7 2 35.84 -22.47 32.65 <
1 -4 7 -2 3.81 -17.92 58.61 <
1 -4 7 -1 335.91 193.30 95.51 <
1 -4 7 0 6598.93 6989.65 441.86 o
1 -4 7 1 2380.10 1987.78 458.42 o
1 -4 7 2 54.29 247.50 155.34 <
-4 -3 7 -2 154.56 169.76 160.65 <
-4 -3 7 -1 304.89 694.68 315.23 <
-4 -3 7 0 37.24 -39.33 31.28 <
-4 -3 7 1 153.77 -88.07 72.13 <
-4 -3 7 2 21.92 51.78 138.79 <
-3 -3 7 -2 49.34 236.88 103.86 <
-3 -3 7 -1 42.04 97.18 104.16 <
-3 -3 7 0 2953.34 3827.66 636.68 o
-3 -3 7 1 21.23 84.58 109.18 <
-3 -3 7 2 48.27 34.32 56.79 <
-2 -3 7 -2 146.33 96.57 46.16 <
-2 -3 7 -1 522.37 746.92 134.53 o
-2 -3 7 0 514.00 460.39 95.81 o
-2 -3 7 1 460.53 335.42 102.95 o
-2 -3 7 2 103.94 -106.75 77.90 <
-1 -3 7 -2 110.13 255.10 63.32 o
-1 -3 7 -1 7027.20 6897.48 341.19 o
-1 -3 7 0 7740.34 9145.51 509.74 o
-1 -3 7 1 530.72 455.83 128.31 o
-1 -3 7 2 41.63 42.67 34.47 <
0 -3 7 -2 36.55 17.46 54.06 <
0 -3 7 -1 305.90 384.62 117.53 o
0 -3 7 0 34.07 114.79 60.74 <
0 -3 7 1 1340.64 1162.97 213.19 o
0 -3 7 2 22.68 -8.81 23.54 <
1 -3 7 -2 12.64 7.90 25.51 <
1 -3 7 -1 203.90 49.80 29.76 <
1 -3 7 0 7770.69 8344.09 529.48 o
1 -3 7 1 273.62 54.36 51.17 <
1 -3 7 2 74.70 -51.17 145.62 <
-4 -2 7 -2 11.09 623.47 336.64 <
-4 -2 7 -1 151.93 375.20 229.89 <
-4 -2 7 0 117.29 -101.74 120.11 <
-4 -2 7 1 143.87 190.71 201.04 <
-4 -2 7 2 49.37 157.76 131.95 <
-3 -2 7 -2 79.75 235.81 126.03 <
-3 -2 7 -1 122.27 17.01 54.51 <
-3 -2 7 0 337.65 9.72 89.13 <
-3 -2 7 1 188.05 239.15 172.19 <
-3 -2 7 2 77.62 58.92 54.51 <
-2 -2 7 -2 144.26 163.08 80.02 <
-2 -2 7 -1 1224.90 1435.37 180.24 o
-2 -2 7 0 1051.61 867.18 141.21 o
-2 -2 7 1 210.58 283.95 81.24 o
-2 -2 7 2 13.89 -12.45 39.33 <
-1 -2 7 -2 218.30 301.41 66.81 o
-1 -2 7 -1 1462.97 1339.56 150.17 o
-1 -2 7 0 1001.41 1174.36 158.68 o
-1 -2 7 1 312.63 189.80 54.97 o
-1 -2 7 2 273.04 162.17 92.47 <
0 -2 7 -2 68.97 65.75 39.93 <
0 -2 7 -1 3133.85 2662.11 289.11 o
0 -2 7 0 3152.93 3497.71 247.50 o
0 -2 7 1 475.17 677.68 165.51 o
0 -2 7 2 48.53 -12.30 47.68 <
1 -2 7 -2 109.65 93.38 42.36 <
1 -2 7 -1 1423.89 1089.93 167.48 o
1 -2 7 0 1034.90 1028.59 173.25 o
1 -2 7 1 9209.16 9864.79 561.36 o
1 -2 7 2 661.39 653.68 255.10 <
-4 -1 7 -2 52.47 190.11 221.54 <
-4 -1 7 -1 913.92 1209.28 427.59 <
-4 -1 7 0 3042.85 2665.46 607.22 o
-4 -1 7 1 96.13 131.95 131.19 <
-4 -1 7 2 294.34 -111.00 118.44 <
-3 -1 7 -2 2.01 4.10 72.58 <
-3 -1 7 -1 861.48 864.59 197.40 o
-3 -1 7 0 1562.67 1123.94 222.15 o
-3 -1 7 1 864.22 971.64 316.14 o
-3 -1 7 2 116.94 83.06 66.81 <
-2 -1 7 -2 5739.93 5594.81 450.82 o
-2 -1 7 -1 1441.32 2123.83 228.52 o
-2 -1 7 0 7548.12 7989.08 431.08 o
-2 -1 7 1 45.75 33.10 32.19 <
-2 -1 7 2 588.32 286.83 126.94 <
-1 -1 7 -2 60.07 55.57 27.03 <
-1 -1 7 -1 1068.02 988.65 133.17 o
-1 -1 7 0 5340.83 5076.72 336.64 o
-1 -1 7 1 3251.31 3220.29 256.31 o
-1 -1 7 2 59.35 -74.10 66.96 <
0 -1 7 -2 643.42 446.72 98.24 o
0 -1 7 -1 1397.19 1313.14 198.46 o
0 -1 7 0 39717.30 40968.30 1171.62 o
0 -1 7 1 168.17 61.04 67.72 <
0 -1 7 2 576.36 366.09 103.86 o
1 -1 7 -2 9.13 13.82 29.31 <
1 -1 7 -1 134.73 99.61 53.15 <
1 -1 7 0 4936.28 5321.65 401.62 o
1 -1 7 1 133.13 339.83 128.00 <
1 -1 7 2 101.37 267.70 169.91 <
2 -1 7 -2 85.92 4.86 23.84 <
-4 0 7 -2 32.44 -108.11 150.48 <
-4 0 7 -1 7.30 32.95 51.47 <
-4 0 7 0 4.33 53.45 89.89 <
-4 0 7 1 88.14 -23.38 101.28 <
-4 0 7 2 330.64 60.59 89.59 <
-3 0 7 -2 7.54 25.51 42.06 <
-3 0 7 -1 43.06 -32.95 87.16 <
-3 0 7 0 32.66 63.77 61.04 <
-3 0 7 1 84.30 90.35 65.14 <
-3 0 7 2 0.59 3.64 75.62 <
-2 0 7 -2 52.80 143.79 100.82 <
-2 0 7 -1 4.51 160.35 74.25 <
-2 0 7 0 91.47 -39.78 64.99 <
-2 0 7 1 63.54 -23.38 55.42 <
-2 0 7 2 291.14 -2.89 25.51 <
-1 0 7 -2 55.40 -0.61 32.80 <
-1 0 7 -1 0.07 -17.01 40.54 <
-1 0 7 0 226.41 20.95 26.42 <
-1 0 7 1 15.69 -27.18 25.05 <
-1 0 7 2 11.63 -3.95 32.95 <
0 0 7 -2 129.35 50.11 25.05 <
0 0 7 -1 9.69 6.53 20.95 <
0 0 7 0 505.74 16.10 32.19 <
0 0 7 1 40.51 -9.26 25.97 <
0 0 7 2 108.52 83.82 68.03 <
1 0 7 -2 35.45 25.97 20.65 <
1 0 7 -1 27.85 15.94 55.42 <
1 0 7 0 249.45 39.78 59.52 <
1 0 7 1 51.07 64.84 83.82 <
1 0 7 2 296.45 -4.56 108.42 <
2 0 7 -2 53.41 -18.52 52.23 <
2 0 7 -1 130.38 40.69 45.25 <
2 0 7 0 87.96 112.97 99.15 <
2 0 7 1 282.12 102.19 94.90 <
2 0 7 2 29.23 -103.71 108.87 <
-4 1 7 -2 39.56 1.21 36.75 <
-4 1 7 -1 923.05 1351.40 295.94 o
-4 1 7 0 3048.16 2655.89 413.32 o
-4 1 7 1 90.43 84.88 117.07 <
-4 1 7 2 293.33 130.13 145.31 <
-3 1 7 -2 2.27 -167.18 106.59 <
-3 1 7 -1 863.71 1091.75 225.64 o
-3 1 7 0 1546.72 1549.10 264.66 o
-3 1 7 1 865.93 800.67 185.25 o
-3 1 7 2 117.99 204.84 75.92 <
-2 1 7 -2 5759.34 5986.72 470.41 o
-2 1 7 -1 1470.30 2184.11 228.83 o
-2 1 7 0 7529.89 8085.19 439.13 o
-2 1 7 1 40.20 203.62 72.73 <
-2 1 7 2 590.75 113.28 65.75 <
-1 1 7 -2 60.09 39.93 42.82 <
-1 1 7 -1 1094.64 1008.54 147.44 o
-1 1 7 0 5382.53 4869.46 337.24 o
-1 1 7 1 3297.14 3366.06 272.86 o
-1 1 7 2 59.29 -25.05 34.77 <
0 1 7 -2 642.16 342.25 65.60 o
0 1 7 -1 1397.88 1518.28 136.20 o
0 1 7 0 39915.30 39888.00 696.35 o
0 1 7 1 170.23 56.79 26.27 <
0 1 7 2 556.62 347.27 114.94 o
1 1 7 -2 9.61 -18.22 26.72 <
1 1 7 -1 146.41 79.72 121.47 <
1 1 7 0 4992.28 4939.61 706.98 o
1 1 7 1 178.37 204.84 194.66 <
1 1 7 2 90.03 229.59 167.18 <
2 1 7 -2 81.06 0.61 78.05 <
2 1 7 -1 453.49 499.41 204.99 <
2 1 7 0 7647.94 7860.16 866.42 o
2 1 7 1 182.52 52.69 77.59 <
2 1 7 2 141.08 18.52 101.13 <
-4 2 7 -2 11.16 242.04 122.99 <
-4 2 7 -1 152.11 -52.84 103.71 <
-4 2 7 0 123.40 58.61 97.79 <
-4 2 7 1 153.39 118.29 86.10 <
-4 2 7 2 48.03 539.04 255.86 <
-3 2 7 -2 80.56 608.13 177.81 o
-3 2 7 -1 106.67 -35.23 60.74 <
-3 2 7 0 313.57 113.12 93.99 <
-3 2 7 1 176.73 26.12 35.83 <
-3 2 7 2 73.00 52.39 52.69 <
-2 2 7 -2 142.90 197.70 94.60 <
-2 2 7 -1 1242.73 1441.30 186.62 o
-2 2 7 0 1121.17 1099.95 167.18 o
-2 2 7 1 234.66 185.10 65.14 <
-2 2 7 2 12.49 32.04 46.16 <
-1 2 7 -2 222.94 195.42 58.92 o
-1 2 7 -1 1481.19 1444.79 182.36 o
-1 2 7 0 975.47 1036.48 160.20 o
-1 2 7 1 301.88 285.92 84.27 o
-1 2 7 2 269.62 126.79 57.24 <
0 2 7 -2 65.36 77.44 54.06 <
0 2 7 -1 3179.09 3132.98 239.30 o
0 2 7 0 3103.80 3249.60 187.68 o
0 2 7 1 489.88 550.89 91.11 o
0 2 7 2 47.51 40.24 35.23 <
1 2 7 -2 109.91 79.87 34.77 <
1 2 7 -1 1432.17 1041.95 320.24 o
1 2 7 0 1001.49 838.48 302.77 <
1 2 7 1 9148.01 10775.20 1060.62 o
1 2 7 2 656.11 626.81 259.35 <
2 2 7 -2 547.30 51.32 64.08 <
2 2 7 -1 4977.33 4303.69 637.13 o
2 2 7 0 1391.64 1185.90 335.57 o
2 2 7 1 458.98 639.41 273.17 <
2 2 7 2 331.94 267.09 182.82 <
-4 3 7 -2 153.63 -87.46 88.52 <
-4 3 7 -1 287.66 388.42 153.51 <
-4 3 7 0 32.98 -8.20 64.99 <
-4 3 7 1 150.88 18.83 59.52 <
-4 3 7 2 21.70 181.91 149.72 <
-3 3 7 -2 51.20 306.72 126.18 <
-3 3 7 -1 60.64 216.38 115.55 <
-3 3 7 0 2943.86 4350.46 459.48 o
-3 3 7 1 26.20 62.26 66.66 <
-3 3 7 2 47.28 -28.70 48.13 <
-2 3 7 -2 147.03 145.47 89.28 <
-2 3 7 -1 492.47 615.57 127.09 o
-2 3 7 0 497.31 428.20 106.90 o
-2 3 7 1 452.94 408.15 107.81 o
-2 3 7 2 105.58 -16.55 47.07 <
-1 3 7 -2 112.13 152.15 65.44 <
-1 3 7 -1 6978.41 7210.42 480.28 o
-1 3 7 0 7808.32 8380.07 454.47 o
-1 3 7 1 551.18 477.24 111.91 o
-1 3 7 2 41.01 -27.33 36.44 <
0 3 7 -2 35.25 -24.90 34.16 <
0 3 7 -1 298.58 409.67 84.58 o
0 3 7 0 41.64 135.44 65.90 <
0 3 7 1 1380.70 1364.46 166.72 o
0 3 7 2 24.74 98.39 112.67 <
1 3 7 -2 11.79 75.16 53.60 <
1 3 7 -1 186.84 -40.09 57.70 <
1 3 7 0 7840.01 8167.95 890.86 o
1 3 7 1 310.15 255.40 180.54 <
1 3 7 2 68.15 -35.23 93.08 <
2 3 7 -2 17.96 -255.10 148.50 <
2 3 7 -1 114.51 257.83 154.42 <
2 3 7 0 378.49 294.27 169.30 <
2 3 7 1 2164.96 2806.21 547.85 o
2 3 7 2 481.48 -133.62 123.45 <
3 3 7 2 26.44 40.54 127.55 <
-4 4 7 -2 44.42 -58.46 59.83 <
-4 4 7 -1 190.24 95.81 88.83 <
-4 4 7 0 651.19 586.27 214.10 <
-4 4 7 1 4.72 -91.56 87.01 <
-4 4 7 2 83.00 -37.81 50.87 <
-3 4 7 -2 63.89 101.74 71.21 <
-3 4 7 -1 504.88 935.96 227.16 o
-3 4 7 0 2069.70 2387.58 345.60 o
-3 4 7 1 819.34 531.45 164.14 o
-3 4 7 2 73.80 44.19 61.34 <
-2 4 7 -2 44.04 51.47 47.38 <
-2 4 7 -1 253.84 418.33 105.38 o
-2 4 7 0 4212.20 4100.98 331.93 o
-2 4 7 1 86.51 -27.33 33.25 <
-2 4 7 2 29.51 85.49 45.40 <
-1 4 7 -2 80.49 53.90 44.64 <
-1 4 7 -1 295.85 332.69 109.93 o
-1 4 7 0 6456.10 6272.79 401.62 o
-1 4 7 1 1312.47 1088.56 162.62 o
-1 4 7 2 57.40 13.51 18.22 <
0 4 7 -2 23.64 63.17 39.33 <
0 4 7 -1 282.52 305.51 76.23 o
0 4 7 0 3428.30 3397.64 263.14 o
0 4 7 1 412.34 487.42 133.77 o
0 4 7 2 32.26 47.22 56.33 <
1 4 7 -2 3.72 -1.82 24.60 <
1 4 7 -1 323.59 262.84 90.65 <
1 4 7 0 6523.35 6772.96 791.56 o
1 4 7 1 2335.94 3161.68 576.70 o
1 4 7 2 56.56 76.98 69.70 <
2 4 7 -2 222.14 142.12 135.29 <
2 4 7 -1 695.80 819.80 277.11 <
2 4 7 0 4057.45 3297.43 583.53 o
2 4 7 1 252.66 522.95 256.61 <
2 4 7 2 9.86 5.31 146.38 <
3 4 7 0 2276.05 2210.53 507.76 o
3 4 7 1 228.05 108.87 116.92 <
3 4 7 2 48.78 308.24 204.38 <
-4 5 7 -2 5.51 -30.37 44.79 <
-4 5 7 -1 386.39 607.07 212.73 <
-4 5 7 0 362.36 165.21 148.50 <
-4 5 7 1 703.83 479.82 189.50 <
-4 5 7 2 87.95 32.80 68.79 <
-3 5 7 -2 33.92 263.30 138.94 <
-3 5 7 -1 362.12 267.09 108.72 <
-3 5 7 0 326.38 174.01 100.37 <
-3 5 7 1 1349.59 536.01 160.95 o
-3 5 7 2 601.12 189.80 84.58 <
-2 5 7 -2 328.84 -37.51 90.04 <
-2 5 7 -1 497.08 493.19 119.20 o
-2 5 7 0 942.16 590.67 123.75 o
-2 5 7 1 1126.29 1230.84 188.89 o
-2 5 7 2 323.28 172.65 80.93 <
-1 5 7 -2 504.72 447.48 131.80 o
-1 5 7 -1 13114.60 13190.00 708.80 o
-1 5 7 0 210.38 47.98 64.69 <
-1 5 7 1 1256.56 1261.51 184.64 o
-1 5 7 2 576.87 200.13 82.30 <
0 5 7 -2 91.49 235.96 78.65 <
0 5 7 -1 52.80 87.01 52.99 <
0 5 7 0 4183.75 3691.31 387.35 o
0 5 7 1 27.65 -3.34 60.43 <
0 5 7 2 316.78 45.86 72.88 <
1 5 7 -2 225.96 222.15 62.10 o
1 5 7 -1 113.01 51.32 35.53 <
1 5 7 0 48.82 28.55 19.74 <
1 5 7 1 2041.85 2569.79 298.68 o
1 5 7 2 280.88 81.24 96.12 <
2 5 7 -2 41.48 -42.06 54.82 <
2 5 7 -1 24.39 100.07 75.16 <
2 5 7 0 856.41 655.66 252.51 <
2 5 7 1 83.66 168.70 93.23 <
2 5 7 2 1656.83 1243.44 393.12 o
3 5 7 -2 53.81 65.75 22.32 <
3 5 7 -1 480.77 -21.11 47.68 <
3 5 7 0 234.00 638.04 271.80 <
3 5 7 1 119.31 -10.17 40.69 <
3 5 7 2 34.28 128.46 138.63 <
4 5 7 2 198.12 494.86 273.32 <
5 5 7 -2 51.85 -37.96 78.96 <
5 5 7 -1 255.46 -92.78 124.51 <
-4 6 7 -2 115.53 244.92 135.90 <
-4 6 7 -1 318.65 241.58 138.79 <
-4 6 7 0 48.15 174.16 111.91 <
-4 6 7 1 7.12 -26.57 91.41 <
-4 6 7 2 34.11 13.36 66.20 <
-3 6 7 -2 6.80 -98.55 79.11 <
-3 6 7 -1 1678.49 2364.35 367.31 o
-3 6 7 0 1453.36 1102.69 252.82 o
-3 6 7 1 317.68 209.85 119.65 <
-3 6 7 2 229.38 177.96 76.83 <
-2 6 7 -2 355.85 483.62 149.57 o
-2 6 7 -1 400.66 363.97 99.76 o
-2 6 7 0 242.51 288.05 93.69 o
-2 6 7 1 523.47 488.78 115.70 o
-2 6 7 2 137.04 193.75 97.64 <
-1 6 7 -2 34.47 32.65 54.06 <
-1 6 7 -1 675.92 679.04 140.00 o
-1 6 7 0 5654.92 4474.82 433.51 o
-1 6 7 1 103.45 136.05 64.99 <
-1 6 7 2 158.46 297.46 118.59 <
0 6 7 -2 0.33 55.42 75.16 <
0 6 7 -1 394.48 243.71 106.90 <
0 6 7 0 4029.23 3960.07 413.32 o
0 6 7 1 1426.57 1376.31 244.47 o
0 6 7 2 562.39 807.50 191.63 o
1 6 7 -2 315.08 221.54 62.86 o
1 6 7 -1 4600.05 3736.10 274.68 o
1 6 7 0 5967.40 5400.30 388.42 o
1 6 7 1 3624.71 3978.14 364.27 o
1 6 7 2 45.82 64.53 93.54 <
2 6 7 -2 99.19 45.55 42.36 <
2 6 7 -1 14.09 28.09 38.57 <
2 6 7 0 409.28 331.02 119.20 <
2 6 7 1 1394.57 2012.07 290.17 o
2 6 7 2 17.95 213.79 93.23 <
3 6 7 -2 289.55 -45.10 63.17 <
3 6 7 -1 1534.07 1275.94 248.57 o
3 6 7 0 1979.89 1998.86 323.27 o
3 6 7 1 61.62 53.45 70.91 <
3 6 7 2 71.92 13.36 74.10 <
4 6 7 -2 29.88 63.77 84.73 <
4 6 7 -1 87.43 99.31 109.78 <
4 6 7 0 38.68 108.72 93.54 <
4 6 7 1 972.09 1876.33 528.72 o
4 6 7 2 425.66 1372.21 458.42 <
5 6 7 -2 133.77 34.32 102.65 <
5 6 7 -1 315.31 283.04 216.98 <
-4 7 7 -2 161.35 13.97 111.45 <
-4 7 7 -1 226.68 249.18 141.52 <
-4 7 7 0 80.11 127.55 119.80 <
-4 7 7 1 21.04 -15.49 111.91 <
-4 7 7 2 29.20 21.87 57.24 <
-3 7 7 -2 192.55 40.09 97.18 <
-3 7 7 -1 598.40 521.89 171.58 o
-3 7 7 0 3608.39 4137.57 492.73 o
-3 7 7 1 498.98 -20.04 69.09 <
-3 7 7 2 50.62 -47.68 64.99 <
-2 7 7 -2 729.10 653.08 215.01 o
-2 7 7 -1 176.35 118.74 54.97 <
-2 7 7 0 1375.86 1316.48 196.49 o
-2 7 7 1 38.41 52.69 46.92 <
-2 7 7 2 166.42 50.56 103.86 <
-1 7 7 -2 33.96 279.85 110.54 <
-1 7 7 -1 85.13 1.06 36.75 <
-1 7 7 0 9458.94 7408.73 978.78 o
-1 7 7 1 73.00 48.89 82.91 <
-1 7 7 2 61.50 -90.04 71.06 <
0 7 7 -2 5.00 -4.25 64.38 <
0 7 7 -1 94.33 70.15 94.45 <
0 7 7 0 524.35 372.17 138.48 <
0 7 7 1 3.89 38.26 57.40 <
0 7 7 2 246.39 137.57 85.18 <
1 7 7 -2 167.60 104.47 38.42 <
1 7 7 -1 736.15 657.63 123.60 o
1 7 7 0 9478.65 8618.31 487.42 o
1 7 7 1 74.49 -14.12 31.58 <
1 7 7 2 46.52 123.30 120.26 <
2 7 7 -2 24.16 45.70 29.15 <
2 7 7 -1 75.42 32.19 38.42 <
2 7 7 0 1180.30 1388.00 235.21 o
2 7 7 1 85.55 206.51 95.81 <
2 7 7 2 240.20 207.27 90.19 <
3 7 7 -2 140.26 -48.89 75.62 <
3 7 7 -1 153.02 255.40 131.50 <
3 7 7 0 3326.53 3471.13 420.30 o
3 7 7 1 1201.49 1689.86 307.03 o
3 7 7 2 107.39 146.98 139.70 <
4 7 7 -2 18.55 -85.94 87.77 <
4 7 7 -1 75.36 111.61 155.64 <
4 7 7 0 160.37 -145.47 140.00 <
4 7 7 1 119.66 231.87 184.19 <
5 7 7 -2 90.82 214.86 182.82 <
5 7 7 -1 106.90 479.98 282.88 <
-4 8 7 -2 123.85 101.13 131.19 <
-4 8 7 -1 1241.16 1795.39 382.64 o
-4 8 7 0 1397.41 1552.14 345.14 o
-4 8 7 1 692.73 474.36 189.50 <
-4 8 7 2 48.22 91.11 84.58 <
-3 8 7 -2 74.33 172.80 92.32 <
-3 8 7 -1 288.93 414.38 154.73 <
-3 8 7 0 2882.02 2863.00 424.40 o
-3 8 7 1 111.01 78.96 48.44 <
-3 8 7 2 83.50 83.97 76.38 <
-2 8 7 -2 56.92 172.34 89.59 <
-2 8 7 -1 1924.39 2590.29 370.95 o
-2 8 7 0 11771.90 11534.00 607.68 o
-2 8 7 1 1812.36 1003.38 240.37 o
-2 8 7 2 73.19 160.80 154.73 <
-1 8 7 -2 59.12 -176.59 153.36 <
-1 8 7 -1 116.95 151.69 145.31 <
-1 8 7 0 7282.44 7123.42 1008.09 o
-1 8 7 1 261.20 -12.15 54.21 <
-1 8 7 2 14.09 119.20 95.66 <
0 8 7 -2 58.31 2.58 78.81 <
0 8 7 -1 554.95 346.51 122.39 <
0 8 7 0 9295.36 9216.12 678.74 o
0 8 7 1 2368.88 2416.89 349.85 o
0 8 7 2 2.96 -43.73 71.21 <
1 8 7 -2 206.42 157.31 56.03 <
1 8 7 -1 782.32 649.59 124.82 o
1 8 7 0 7056.68 6520.30 429.72 o
1 8 7 1 2749.77 2979.47 512.17 o
1 8 7 2 104.70 -93.84 94.75 <
2 8 7 -2 42.78 51.17 56.18 <
2 8 7 -1 85.44 74.25 48.44 <
2 8 7 0 11747.70 12488.60 696.35 o
2 8 7 1 460.23 853.05 192.23 o
2 8 7 2 88.78 88.83 103.56 <
3 8 7 -2 187.02 -7.29 39.63 <
3 8 7 -1 604.59 798.39 189.65 o
3 8 7 0 3025.71 3267.06 409.67 o
3 8 7 1 172.62 302.77 128.91 <
4 8 7 -2 28.30 50.72 77.29 <
4 8 7 -1 13.19 -46.16 77.59 <
4 8 7 0 1485.22 2058.84 523.71 o
5 8 7 -2 51.36 -83.97 116.77 <
-4 9 7 -2 174.73 200.13 186.62 <
-4 9 7 -1 810.22 1732.23 548.76 o
-4 9 7 0 527.08 933.99 397.83 <
-4 9 7 1 638.12 431.99 270.43 <
-4 9 7 2 168.40 76.53 150.78 <
-3 9 7 -2 68.41 252.36 192.99 <
-3 9 7 -1 94.78 97.33 121.78 <
-3 9 7 0 80.70 336.33 224.73 <
-3 9 7 1 286.92 237.63 191.47 <
-3 9 7 2 100.12 15.03 54.51 <
-2 9 7 -2 3295.16 2439.36 582.02 o
-2 9 7 -1 627.92 1305.40 455.23 <
-2 9 7 0 6895.42 7375.02 1059.56 o
-2 9 7 1 2429.65 2837.49 661.58 o
-2 9 7 2 267.62 35.23 78.81 <
-1 9 7 -2 253.49 -113.28 129.52 <
-1 9 7 -1 171.65 128.31 240.82 <
-1 9 7 0 654.64 389.33 281.67 <
-1 9 7 1 1.75 37.35 77.44 <
0 9 7 -2 177.62 297.31 203.62 <
0 9 7 -1 208.06 382.80 235.05 <
0 9 7 0 1628.92 1859.78 306.72 o
0 9 7 1 1759.69 1829.56 306.12 o
0 9 7 2 82.10 138.63 93.38 <
1 9 7 -2 94.52 11.84 52.69 <
1 9 7 -1 60.06 83.67 43.28 <
1 9 7 0 502.76 571.84 170.67 o
1 9 7 1 5706.46 6072.21 706.83 o
1 9 7 2 359.55 235.21 157.76 <
2 9 7 -2 82.67 -103.25 56.64 <
2 9 7 -1 55.27 196.18 74.25 <
2 9 7 0 6631.37 6929.97 513.84 o
2 9 7 1 689.34 911.52 312.49 <
2 9 7 2 11.80 1540.75 415.90 o
3 9 7 -2 22.41 106.75 92.02 <
3 9 7 -1 44.24 75.16 81.39 <
3 9 7 0 26.77 -152.45 120.71 <
4 9 7 -2 5.43 -20.80 52.99 <
4 9 7 -1 100.61 155.03 140.76 <
4 9 7 0 443.06 345.44 215.92 <
5 9 7 -2 14.86 -163.08 161.41 <
-4 10 7 -1 538.11 901.80 405.27 <
-4 10 7 0 1040.26 817.07 389.93 <
-4 10 7 1 173.74 594.16 280.45 <
-4 10 7 2 166.30 -126.33 154.88 <
-3 10 7 -2 179.66 -14.43 54.97 <
-3 10 7 -1 17.46 -69.39 108.72 <
-3 10 7 0 60.16 -152.30 159.28 <
-3 10 7 1 144.59 29.00 73.95 <
-3 10 7 2 7.95 -142.58 159.74 <
-2 10 7 -2 34.78 19.89 61.50 <
-2 10 7 -1 1557.44 1385.72 477.09 <
-2 10 7 0 8902.92 8076.84 1159.32 o
-2 10 7 1 544.27 1266.68 489.24 <
-2 10 7 2 231.40 67.42 149.41 <
-1 10 7 -2 100.17 -145.01 151.84 <
-1 10 7 -1 1202.38 691.04 312.19 <
-1 10 7 0 593.11 802.04 399.04 <
-1 10 7 1 328.72 32.19 75.77 <
-1 10 7 2 121.62 117.98 132.86 <
0 10 7 -2 80.17 61.65 175.68 <
0 10 7 -1 883.82 754.51 335.73 <
0 10 7 0 8141.79 8639.12 688.15 o
0 10 7 1 86.90 371.86 145.01 <
0 10 7 2 72.95 379.30 137.11 <
1 10 7 -2 23.15 81.39 45.70 <
1 10 7 -1 13.70 13.06 57.40 <
1 10 7 0 571.51 597.35 169.91 o
1 10 7 1 3468.22 3975.10 560.15 o
1 10 7 2 353.43 383.86 185.70 <
2 10 7 -2 37.23 -28.24 30.98 <
2 10 7 -1 38.65 -38.26 36.14 <
2 10 7 0 10626.50 10689.60 934.75 o
2 10 7 1 5.29 -75.31 84.27 <
3 10 7 -2 24.78 -51.78 65.90 <
3 10 7 -1 10.53 -59.67 74.40 <
3 10 7 0 37.00 121.32 109.63 <
4 10 7 -2 30.35 -160.35 138.02 <
4 10 7 -1 62.01 -45.70 80.02 <
5 10 7 -2 0.75 -181.76 170.67 <
-4 11 7 0 1241.25 1503.85 539.04 <
-4 11 7 1 299.86 264.66 228.07 <
-4 11 7 2 19.25 -224.42 213.04 <
-3 11 7 -2 226.43 -8.20 50.41 <
-3 11 7 -1 696.64 669.02 340.89 <
-3 11 7 0 3095.15 3687.97 821.47 o
-3 11 7 1 64.99 -122.84 154.73 <
-3 11 7 2 248.74 309.00 242.95 <
-2 11 7 -2 71.19 -81.24 120.56 <
-2 11 7 -1 277.38 -70.76 114.03 <
-2 11 7 0 7295.01 5147.64 970.28 o
-2 11 7 1 143.45 402.23 233.54 <
-2 11 7 2 101.89 -160.65 174.32 <
-1 11 7 -2 774.15 802.04 369.43 <
-1 11 7 -1 69.96 -0.61 35.68 <
-1 11 7 0 8972.12 8451.74 1211.86 o
-1 11 7 1 121.26 -25.05 44.95 <
-1 11 7 2 410.04 494.25 349.85 <
0 11 7 -2 150.19 -24.45 192.08 <
0 11 7 -1 196.96 259.20 169.30 <
0 11 7 0 5394.33 6310.30 975.44 o
0 11 7 1 46.96 56.18 59.83 <
0 11 7 2 162.86 -42.06 89.89 <
1 11 7 -2 111.40 48.74 46.46 <
1 11 7 -1 414.14 119.35 83.67 <
1 11 7 0 8847.71 8524.78 684.66 o
1 11 7 1 1231.58 655.81 216.07 o
1 11 7 2 552.77 659.61 252.97 <
2 11 7 -2 198.10 82.91 49.96 <
2 11 7 -1 367.46 186.46 75.16 <
2 11 7 0 6544.24 6682.92 710.17 o
3 11 7 -2 33.63 0.91 18.37 <
3 11 7 -1 19.37 94.14 93.69 <
4 11 7 -2 110.27 13.82 43.73 <
4 11 7 -1 162.63 100.67 116.46 <
5 11 7 -2 9.08 -171.89 167.79 <
-4 12 7 1 57.03 -288.35 247.66 <
-4 12 7 2 63.14 -334.66 266.94 <
-3 12 7 -2 45.01 -59.67 111.30 <
-3 12 7 -1 3877.96 4742.06 948.72 o
-3 12 7 0 3828.49 4294.12 910.15 o
-3 12 7 1 880.10 539.50 397.07 <
-3 12 7 2 236.10 51.93 236.27 <
-2 12 7 -2 107.10 -108.72 145.01 <
-2 12 7 -1 31.79 101.89 161.41 <
-2 12 7 0 2301.09 1645.07 558.93 <
-2 12 7 1 122.61 110.39 151.54 <
-2 12 7 2 14.60 -318.42 252.06 <
-1 12 7 -2 67.59 15.34 102.49 <
-1 12 7 -1 2136.13 1780.21 595.68 <
-1 12 7 0 10507.40 12202.30 1493.23 o
-1 12 7 1 469.39 725.35 328.74 <
-1 12 7 2 216.41 297.01 194.36 <
0 12 7 -2 54.31 240.37 202.41 <
0 12 7 -1 99.13 90.19 123.45 <
0 12 7 0 222.33 298.07 195.73 <
0 12 7 1 755.18 729.00 333.75 <
0 12 7 2 184.64 388.26 270.13 <
1 12 7 -2 11.99 114.79 214.25 <
1 12 7 -1 3846.11 3441.98 439.74 o
1 12 7 0 10545.80 11098.70 787.61 o
1 12 7 1 2080.95 1642.34 334.81 o
1 12 7 2 100.54 215.16 123.45 <
2 12 7 -2 128.65 40.54 27.03 <
3 12 7 -2 8.53 6.07 37.81 <
4 12 7 -2 90.76 54.36 84.88 <
-3 13 7 -2 10.93 -22.47 75.92 <
-3 13 7 -1 46.65 320.08 258.29 <
-3 13 7 0 971.53 641.08 367.76 <
-3 13 7 1 264.82 -197.40 208.63 <
-3 13 7 2 34.59 301.56 256.92 <
-2 13 7 -2 30.34 -60.28 114.49 <
-2 13 7 -1 88.20 31.89 79.26 <
-2 13 7 0 600.25 68.03 120.87 <
-2 13 7 1 61.33 89.28 141.21 <
-2 13 7 2 30.35 186.31 199.22 <
-1 13 7 -2 12.40 -35.23 90.35 <
-1 13 7 -1 2894.32 2207.80 707.28 o
-1 13 7 0 4523.42 4924.58 971.49 o
-1 13 7 1 240.85 74.40 110.09 <
-1 13 7 2 2.94 -238.85 205.60 <
0 13 7 -2 238.71 503.06 297.76 <
0 13 7 -1 159.78 -23.08 71.97 <
0 13 7 0 2601.53 2224.65 604.18 o
0 13 7 1 1405.20 1916.41 575.49 o
0 13 7 2 15.21 202.71 183.58 <
1 13 7 -2 45.73 -0.61 66.96 <
1 13 7 -1 140.81 111.30 234.29 <
1 13 7 0 4934.46 5345.94 573.82 o
-3 14 7 -2 48.77 165.21 193.45 <
-3 14 7 -1 754.72 1601.19 635.61 <
-3 14 7 0 1421.90 1555.94 596.29 <
-3 14 7 1 423.29 772.27 422.58 <
-3 14 7 2 1.92 161.26 194.97 <
-2 14 7 -2 84.12 447.94 313.25 <
-2 14 7 -1 55.08 59.37 146.83 <
-2 14 7 0 909.84 1060.93 485.14 <
-2 14 7 1 17.01 -146.23 182.51 <
-2 14 7 2 50.24 303.38 264.97 <
-1 14 7 -2 56.54 -330.26 266.48 <
-1 14 7 -1 190.37 338.46 303.99 <
-1 14 7 0 7591.63 8559.10 1313.90 o
-1 14 7 1 176.76 404.81 278.33 <
-1 14 7 2 29.45 63.47 124.21 <
0 14 7 -2 19.79 86.25 130.74 <
0 14 7 -1 156.62 367.92 295.49 <
0 14 7 0 198.36 186.01 140.91 <
0 14 7 1 73.69 289.87 226.85 <
0 14 7 2 126.95 53.90 103.71 <
1 14 7 -2 125.90 188.74 187.07 <
1 14 7 -1 151.68 167.63 107.81 <
1 14 7 0 7455.00 8961.02 1288.39 o
1 14 7 1 235.99 25.51 72.28 <
-3 15 7 -1 216.21 254.49 249.63 <
-3 15 7 0 31.04 -12.60 67.11 <
-3 15 7 1 58.29 62.71 130.43 <
-3 15 7 2 7.59 140.15 190.41 <
-2 15 7 -2 185.36 308.39 289.87 <
-2 15 7 -1 750.29 994.12 482.71 <
-2 15 7 0 2457.90 1157.35 524.31 <
-2 15 7 1 76.80 266.64 242.65 <
-2 15 7 2 398.00 -217.29 225.18 <
-1 15 7 -2 34.79 27.48 82.91 <
-1 15 7 -1 195.63 217.74 217.74 <
-1 15 7 0 12.15 32.95 90.80 <
-1 15 7 1 243.16 138.33 169.76 <
0 15 7 -2 237.97 -22.32 76.83 <
0 15 7 -1 1002.04 1439.47 518.85 <
0 15 7 0 1041.42 630.76 289.26 <
0 15 7 1 73.73 198.61 193.75 <
0 15 7 2 460.42 638.50 343.77 <
1 15 7 -2 117.42 -7.14 149.11 <
1 15 7 -1 398.11 27.64 101.74 <
1 15 7 0 71.02 -67.72 116.92 <
1 15 7 1 174.65 203.01 231.41 <
-3 16 7 2 38.63 332.69 241.13 <
-2 16 7 -2 63.00 -114.64 173.71 <
-2 16 7 -1 2676.40 3367.58 925.18 o
-2 16 7 0 3925.54 3522.46 948.56 o
-2 16 7 1 114.63 147.44 195.12 <
-2 16 7 2 218.37 84.58 148.05 <
-1 16 7 -2 77.91 25.05 87.16 <
-1 16 7 -1 167.31 289.41 294.88 <
-1 16 7 0 414.24 543.45 344.99 <
-1 16 7 1 8.45 -267.40 238.39 <
-1 16 7 2 114.28 142.12 229.59 <
0 16 7 -2 25.52 -226.55 217.44 <
0 16 7 -1 3203.71 4501.09 967.85 o
0 16 7 0 1235.16 1309.80 514.29 <
0 16 7 1 5.91 155.18 175.23 <
0 16 7 2 216.06 319.93 247.96 <
1 16 7 -2 60.83 10.33 58.31 <
1 16 7 -1 543.81 414.53 245.23 <
1 16 7 0 471.18 312.04 252.06 <
1 16 7 1 1855.34 2154.05 667.05 o
-2 17 7 -2 1035.77 309.46 290.32 <
-2 17 7 -1 23.68 16.55 85.03 <
-2 17 7 0 148.28 -4.56 61.34 <
-2 17 7 1 156.33 140.91 196.18 <
-2 17 7 2 2.96 -68.03 135.60 <
-1 17 7 -2 217.67 48.13 233.38 <
-1 17 7 -1 157.17 147.90 192.54 <
-1 17 7 0 4488.63 6257.30 1181.34 o
-1 17 7 1 39.78 415.29 300.95 <
-1 17 7 2 348.96 437.76 399.20 <
0 17 7 -2 18.93 278.02 246.44 <
0 17 7 -1 26.31 467.83 314.77 <
0 17 7 0 1986.60 1650.84 597.35 <
0 17 7 1 244.97 -96.27 146.98 <
0 17 7 2 26.95 77.44 129.07 <
1 17 7 -2 69.69 -80.02 107.20 <
1 17 7 -1 27.19 16.85 71.97 <
1 17 7 0 5410.58 6332.62 1184.07 o
1 17 7 1 1422.38 1732.23 619.22 <
-2 18 7 -1 714.80 194.51 239.00 <
-2 18 7 0 645.91 181.91 232.17 <
-2 18 7 1 131.19 936.27 527.66 <
-2 18 7 2 48.46 -90.80 155.49 <
-1 18 7 -2 3.91 126.64 149.41 <
-1 18 7 -1 57.55 -153.97 200.28 <
-1 18 7 0 228.45 340.89 321.60 <
-1 18 7 1 304.67 399.95 302.47 <
-1 18 7 2 51.90 150.63 188.89 <
0 18 7 -2 237.44 426.83 306.42 <
0 18 7 -1 189.95 415.90 302.32 <
0 18 7 0 1176.57 2120.03 674.49 o
0 18 7 1 216.40 130.28 169.30 <
0 18 7 2 37.55 -134.84 176.29 <
1 18 7 -2 1.65 -51.02 115.86 <
1 18 7 -1 203.89 -7.74 148.20 <
1 18 7 0 219.72 122.23 273.62 <
1 18 7 1 136.13 74.10 94.29 <
-1 19 7 -2 409.33 980.00 512.47 <
-1 19 7 -1 294.13 -230.95 245.68 <
-1 19 7 0 95.85 -260.87 254.64 <
-1 19 7 1 549.28 639.72 391.00 <
-1 19 7 2 240.12 468.59 331.32 <
0 19 7 -2 3.90 285.77 259.65 <
0 19 7 -1 159.92 -6.23 45.55 <
0 19 7 0 4462.94 6115.03 1189.08 o
0 19 7 1 56.79 -240.67 235.96 <
1 19 7 -2 149.81 -70.00 131.65 <
1 19 7 -1 88.90 -130.89 181.30 <
1 19 7 0 99.12 -312.95 274.38 <
0 20 7 -2 37.29 -77.14 210.61 <
0 20 7 -1 191.55 -56.18 55.88 <
1 20 7 -2 0.91 77.29 290.48 <
0 -21 8 -2 37.27 1.52 46.31 <
0 -21 8 -1 1300.93 1287.93 530.24 <
1 -21 8 -2 1.39 46.01 107.20 <
0 -20 8 -2 50.60 598.41 352.58 <
0 -20 8 -1 113.92 -94.29 143.95 <
1 -20 8 -2 4.93 -37.35 100.22 <
0 -19 8 -2 46.59 128.16 118.44 <
0 -19 8 -1 240.77 178.42 165.81 <
0 -19 8 0 1653.70 1195.31 336.03 o
0 -19 8 1 27.73 -285.01 208.48 <
1 -19 8 -2 10.89 30.67 86.85 <
-1 -18 8 -2 231.35 423.04 264.81 <
-1 -18 8 -1 1336.25 1851.12 548.15 o
-1 -18 8 0 1604.70 1704.74 525.23 o
-1 -18 8 1 1197.49 761.80 353.80 <
-1 -18 8 2 81.40 192.99 175.38 <
0 -18 8 -2 74.45 78.20 111.91 <
0 -18 8 -1 15.28 153.51 180.69 <
0 -18 8 0 1480.27 1322.86 260.26 o
0 -18 8 1 125.14 292.15 142.12 <
0 -18 8 2 51.42 -171.43 104.32 <
1 -18 8 -2 9.66 -162.93 181.91 <
-1 -17 8 -2 246.24 27.18 63.01 <
-1 -17 8 -1 1296.05 1256.05 439.13 <
-1 -17 8 0 1710.95 1506.74 473.14 o
-1 -17 8 1 353.13 929.74 346.35 <
-1 -17 8 2 51.98 52.69 70.46 <
0 -17 8 -2 102.84 -58.76 95.36 <
0 -17 8 -1 18.64 27.18 43.73 <
0 -17 8 0 726.48 646.85 183.12 o
0 -17 8 1 17.02 -196.18 133.32 <
0 -17 8 2 99.94 117.07 85.18 <
1 -17 8 -2 45.16 -220.78 128.46 <
1 -17 8 -1 447.69 237.63 172.80 <
1 -17 8 1 1147.81 1304.94 432.60 o
1 -17 8 2 132.82 237.63 195.57 <
-2 -16 8 -2 100.34 356.38 242.95 <
-2 -16 8 -1 474.96 453.71 273.17 <
-2 -16 8 0 1131.28 1600.43 525.83 o
-2 -16 8 1 178.08 112.52 120.71 <
-2 -16 8 2 55.90 -234.45 192.54 <
-1 -16 8 -2 55.77 106.75 179.93 <
-1 -16 8 -1 166.99 411.65 246.90 <
-1 -16 8 0 2964.72 2501.16 603.12 o
-1 -16 8 1 699.38 896.18 247.20 o
-1 -16 8 2 24.11 9.57 43.73 <
0 -16 8 -2 55.45 -82.15 106.75 <
0 -16 8 -1 492.57 447.48 169.76 <
0 -16 8 0 378.98 379.91 152.45 <
0 -16 8 1 76.16 66.20 66.66 <
0 -16 8 2 45.01 -276.20 127.85 <
1 -16 8 -2 37.93 50.56 64.84 <
1 -16 8 -1 144.12 406.79 154.27 <
1 -16 8 0 3072.30 2904.30 418.78 o
1 -16 8 1 146.57 115.10 86.25 <
1 -16 8 2 39.21 24.45 67.27 <
-2 -15 8 -2 604.78 651.41 319.33 <
-2 -15 8 -1 332.08 373.99 246.29 <
-2 -15 8 0 3402.51 4335.43 824.96 o
-2 -15 8 1 407.43 890.86 363.51 <
-2 -15 8 2 13.69 1.06 35.83 <
-1 -15 8 -2 134.67 -6.53 38.11 <
-1 -15 8 -1 733.28 721.86 326.01 <
-1 -15 8 0 4138.04 4903.32 815.25 o
-1 -15 8 1 170.91 186.31 100.98 <
-1 -15 8 2 25.92 90.04 67.27 <
0 -15 8 -2 40.28 101.43 93.23 <
0 -15 8 -1 786.79 1016.44 247.35 o
0 -15 8 0 983.93 1360.36 240.22 o
0 -15 8 1 181.65 -89.74 72.28 <
0 -15 8 2 21.27 -46.46 71.82 <
1 -15 8 -2 334.87 105.38 86.85 <
1 -15 8 -1 64.44 -91.26 78.96 <
1 -15 8 0 4394.81 4620.89 528.11 o
1 -15 8 1 28.21 27.33 94.14 <
1 -15 8 2 0.86 -238.55 119.20 <
-3 -14 8 2 57.00 -427.29 263.30 <
-2 -14 8 -2 587.91 593.71 285.92 <
-2 -14 8 -1 1134.87 1124.85 422.28 <
-2 -14 8 0 197.45 177.81 161.26 <
-2 -14 8 1 2381.57 2093.01 545.42 o
-2 -14 8 2 483.93 581.41 280.91 <
-1 -14 8 -2 52.34 71.52 100.67 <
-1 -14 8 -1 62.51 55.57 65.90 <
-1 -14 8 0 149.36 -225.64 118.74 <
-1 -14 8 1 161.54 316.29 143.49 <
-1 -14 8 2 88.91 -56.94 113.12 <
0 -14 8 -2 290.70 317.05 115.40 <
0 -14 8 -1 1693.27 1959.23 278.94 o
0 -14 8 0 2164.93 1765.78 262.54 o
0 -14 8 1 4023.01 4240.83 422.88 o
0 -14 8 2 414.95 404.36 125.88 o
1 -14 8 -2 278.74 383.71 131.65 <
1 -14 8 -1 228.78 226.40 119.96 <
1 -14 8 0 150.08 -8.35 60.74 <
1 -14 8 1 705.69 530.54 170.98 o
1 -14 8 2 42.70 -5.62 90.19 <
2 -14 8 -2 19.14 17.92 43.88 <
-3 -13 8 -1 48.67 -166.57 167.94 <
-3 -13 8 0 85.84 227.31 248.41 <
-3 -13 8 1 40.94 52.54 95.36 <
-3 -13 8 2 90.87 238.55 171.58 <
-2 -13 8 -2 160.79 0.91 46.31 <
-2 -13 8 -1 307.56 62.86 163.08 <
-2 -13 8 0 1891.65 1749.08 497.74 o
-2 -13 8 1 98.30 276.20 189.80 <
-2 -13 8 2 256.57 166.12 104.92 <
-1 -13 8 -2 167.51 598.57 277.42 <
-1 -13 8 -1 55.19 117.07 122.39 <
-1 -13 8 0 313.33 96.57 70.91 <
-1 -13 8 1 35.57 90.04 68.03 <
-1 -13 8 2 37.88 -102.80 80.17 <
0 -13 8 -2 198.81 164.45 73.95 <
0 -13 8 -1 611.55 433.82 129.83 o
0 -13 8 0 4208.50 3323.85 361.39 o
0 -13 8 1 534.92 619.98 157.76 o
0 -13 8 2 192.09 12.00 65.60 <
1 -13 8 -2 74.59 199.07 95.81 <
1 -13 8 -1 372.85 293.51 116.31 <
1 -13 8 0 246.09 56.18 92.78 <
1 -13 8 1 39.65 -73.80 101.43 <
1 -13 8 2 1.62 -264.21 102.49 <
2 -13 8 -2 3.80 -133.01 100.22 <
-3 -12 8 -2 63.32 305.05 254.95 <
-3 -12 8 -1 95.53 -12.30 53.15 <
-3 -12 8 0 27.95 129.52 179.78 <
-3 -12 8 1 110.18 199.52 190.26 <
-3 -12 8 2 3.89 -65.14 53.45 <
-2 -12 8 -2 369.11 389.33 229.43 <
-2 -12 8 -1 257.87 300.95 239.15 <
-2 -12 8 0 3765.05 3472.05 672.06 o
-2 -12 8 1 442.95 364.88 214.10 <
-2 -12 8 2 6.46 146.98 111.76 <
-1 -12 8 -2 77.64 76.83 112.82 <
-1 -12 8 -1 738.34 514.45 146.68 o
-1 -12 8 0 113.70 192.69 94.29 <
-1 -12 8 1 126.88 58.46 67.72 <
-1 -12 8 2 154.37 108.57 77.14 <
0 -12 8 -2 241.71 249.18 104.77 <
0 -12 8 -1 229.66 215.62 87.01 <
0 -12 8 0 18074.50 18246.70 835.44 o
0 -12 8 1 237.26 172.80 99.76 <
0 -12 8 2 73.29 138.48 69.70 <
1 -12 8 -2 79.12 152.75 78.35 <
1 -12 8 -1 210.28 160.65 89.44 <
1 -12 8 0 104.63 61.04 62.71 <
1 -12 8 1 12.78 17.61 55.12 <
1 -12 8 2 75.20 228.98 177.35 <
2 -12 8 -2 49.24 35.68 73.95 <
-3 -11 8 -2 29.02 204.68 255.55 <
-3 -11 8 -1 182.71 253.88 197.55 <
-3 -11 8 0 190.84 -27.64 68.79 <
-3 -11 8 1 299.83 60.28 166.42 <
-3 -11 8 2 103.36 75.16 121.93 <
-2 -11 8 -2 820.53 607.68 238.85 <
-2 -11 8 -1 158.51 260.87 128.91 <
-2 -11 8 0 1459.58 1482.14 425.92 o
-2 -11 8 1 97.96 49.20 92.02 <
-2 -11 8 2 8.14 -37.05 74.71 <
-1 -11 8 -2 298.35 150.17 81.69 <
-1 -11 8 -1 8316.60 9299.79 709.72 o
-1 -11 8 0 1008.31 694.08 164.14 o
-1 -11 8 1 118.00 -118.13 67.42 <
-1 -11 8 2 37.48 51.02 52.99 <
0 -11 8 -2 134.31 163.69 76.68 <
0 -11 8 -1 317.80 280.91 107.20 <
0 -11 8 0 8238.72 8433.82 555.59 o
0 -11 8 1 484.24 442.93 127.40 o
0 -11 8 2 31.08 23.84 51.93 <
1 -11 8 -1 2616.67 2161.34 374.45 o
1 -11 8 0 895.99 870.52 346.51 <
1 -11 8 1 283.41 247.96 155.94 <
1 -11 8 2 20.95 170.67 151.84 <
2 -11 8 -2 304.22 183.43 105.68 <
-3 -10 8 -2 75.11 580.50 290.02 <
-3 -10 8 -1 247.21 384.47 261.02 <
-3 -10 8 0 420.22 131.80 138.18 <
-3 -10 8 1 1698.37 1480.93 446.27 o
-3 -10 8 2 531.78 73.19 136.05 <
-2 -10 8 -2 143.10 187.83 186.31 <
-2 -10 8 -1 251.85 197.70 153.21 <
-2 -10 8 0 1093.35 1197.13 372.17 o
-2 -10 8 1 1.13 -85.49 68.79 <
-2 -10 8 2 51.77 -20.80 55.73 <
-1 -10 8 -2 177.55 282.73 101.28 <
-1 -10 8 -1 4763.74 4384.77 402.54 o
-1 -10 8 0 1286.62 1145.05 214.55 o
-1 -10 8 1 1595.97 1551.23 237.48 o
-1 -10 8 2 668.43 314.92 103.71 o
0 -10 8 -2 27.08 16.85 46.31 <
0 -10 8 -1 186.47 40.85 107.35 <
0 -10 8 0 1905.67 1903.05 262.23 o
0 -10 8 1 607.07 609.50 192.38 o
0 -10 8 2 197.23 -77.29 92.78 <
1 -10 8 -2 10.38 55.57 92.17 <
1 -10 8 -1 668.65 618.91 191.17 o
1 -10 8 0 1163.10 1290.36 393.12 o
1 -10 8 1 7699.29 6891.71 935.66 o
1 -10 8 2 149.63 273.47 206.51 <
-3 -9 8 -2 14.70 -89.44 104.01 <
-3 -9 8 -1 76.12 -28.09 75.31 <
-3 -9 8 0 361.08 480.13 253.73 <
-3 -9 8 1 297.40 351.82 236.12 <
-3 -9 8 2 206.67 295.94 212.73 <
-2 -9 8 -2 32.36 8.05 39.63 <
-2 -9 8 -1 101.87 121.17 183.88 <
-2 -9 8 0 2486.74 2615.95 386.29 o
-2 -9 8 1 180.12 178.57 80.17 <
-2 -9 8 2 92.29 -29.15 72.88 <
-1 -9 8 -2 228.10 202.86 90.04 <
-1 -9 8 -1 289.13 -51.32 66.20 <
-1 -9 8 0 373.39 464.18 131.50 o
-1 -9 8 1 463.16 372.02 116.62 o
-1 -9 8 2 100.89 54.66 71.37 <
0 -9 8 -2 183.12 181.76 91.56 <
0 -9 8 -1 116.93 269.98 93.38 <
0 -9 8 0 3345.02 3754.47 444.29 o
0 -9 8 1 257.02 92.62 84.12 <
0 -9 8 2 92.71 108.11 104.47 <
1 -9 8 -2 20.19 87.01 135.29 <
1 -9 8 -1 440.03 493.95 163.84 o
1 -9 8 0 280.16 -276.81 180.39 <
1 -9 8 1 89.41 12.60 65.90 <
1 -9 8 2 155.65 -147.44 138.18 <
-4 -8 8 1 641.01 139.54 189.35 <
-4 -8 8 2 49.20 264.81 198.46 <
-3 -8 8 -1 76.45 70.00 97.64 <
-3 -8 8 0 794.75 1159.93 377.48 o
-3 -8 8 1 54.87 202.26 215.77 <
-3 -8 8 2 23.32 -170.67 143.34 <
-2 -8 8 -2 528.50 329.95 215.31 <
-2 -8 8 -1 646.86 763.01 291.08 <
-2 -8 8 0 3161.08 3848.92 459.48 o
-2 -8 8 1 860.51 509.59 149.41 o
-2 -8 8 2 32.18 -25.81 81.24 <
-1 -8 8 -2 358.41 346.96 109.02 o
-1 -8 8 -1 2452.31 1975.18 262.23 o
-1 -8 8 0 2318.22 2533.81 307.18 o
-1 -8 8 1 328.39 445.96 135.90 o
-1 -8 8 2 136.51 19.59 59.22 <
0 -8 8 -2 82.55 -34.77 46.62 <
0 -8 8 -1 626.58 551.49 130.89 o
0 -8 8 0 6498.03 6838.86 582.17 o
0 -8 8 1 215.32 291.39 128.61 <
0 -8 8 2 49.52 110.54 73.04 <
1 -8 8 -2 51.99 -79.72 140.46 <
1 -8 8 -1 10.13 -10.17 149.72 <
1 -8 8 0 2404.01 1926.59 483.17 o
1 -8 8 1 3304.35 2957.45 597.81 o
1 -8 8 2 182.93 199.07 168.70 <
-4 -7 8 0 735.90 566.38 306.72 <
-4 -7 8 1 29.08 347.87 232.93 <
-4 -7 8 2 173.18 140.61 121.63 <
-3 -7 8 -2 1.05 10.02 46.16 <
-3 -7 8 -1 322.68 -24.45 59.37 <
-3 -7 8 0 184.21 216.07 163.08 <
-3 -7 8 1 11.21 -126.03 122.84 <
-3 -7 8 2 92.79 29.31 59.07 <
-2 -7 8 -2 1972.95 1978.21 457.96 o
-2 -7 8 -1 1438.00 2040.16 465.86 o
-2 -7 8 0 930.53 760.43 191.47 o
-2 -7 8 1 3.46 -20.80 36.14 <
-2 -7 8 2 132.51 -87.77 85.79 <
-1 -7 8 -2 154.05 10.63 60.43 <
-1 -7 8 -1 6108.27 6135.68 456.14 o
-1 -7 8 0 160.50 283.49 92.32 o
-1 -7 8 1 126.11 57.24 44.19 <
-1 -7 8 2 20.92 58.92 35.83 <
0 -7 8 -2 310.04 173.10 82.00 <
0 -7 8 -1 4310.13 4836.36 481.19 o
0 -7 8 0 8567.86 8326.62 643.66 o
0 -7 8 1 929.92 1076.11 223.66 o
0 -7 8 2 39.14 -95.36 68.48 <
1 -7 8 -2 76.52 84.27 97.03 <
1 -7 8 -1 204.51 150.17 72.13 <
1 -7 8 0 261.80 554.99 287.74 <
1 -7 8 1 101.52 109.78 156.55 <
1 -7 8 2 119.60 -222.91 165.36 <
-4 -6 8 0 58.81 81.69 112.82 <
-4 -6 8 1 599.94 972.86 366.25 <
-4 -6 8 2 188.79 43.88 84.12 <
-3 -6 8 -2 353.29 766.20 279.85 <
-3 -6 8 -1 1604.67 1907.15 506.40 o
-3 -6 8 0 2726.60 2366.48 522.80 o
-3 -6 8 1 227.92 335.57 188.13 <
-3 -6 8 2 78.69 40.54 69.54 <
-2 -6 8 -2 284.35 362.90 171.13 <
-2 -6 8 -1 33.48 66.81 82.00 <
-2 -6 8 0 296.79 15.79 81.24 <
-2 -6 8 1 956.79 1015.53 197.55 o
-2 -6 8 2 70.35 64.23 75.77 <
-1 -6 8 -2 316.63 253.88 95.66 <
-1 -6 8 -1 6.81 96.12 58.00 <
-1 -6 8 0 10715.20 10571.90 604.64 o
-1 -6 8 1 46.17 -20.35 49.96 <
-1 -6 8 2 321.37 195.27 91.71 <
0 -6 8 -2 80.40 -7.44 40.09 <
0 -6 8 -1 19.12 -1.21 71.52 <
0 -6 8 0 2732.21 2738.04 351.97 o
0 -6 8 1 1178.91 1451.92 261.17 o
0 -6 8 2 63.10 55.57 67.87 <
1 -6 8 -2 35.02 -40.24 29.31 <
1 -6 8 -1 102.06 55.42 45.55 <
1 -6 8 0 10838.00 11417.40 1153.10 o
1 -6 8 1 587.59 791.10 302.47 <
1 -6 8 2 240.95 224.73 157.16 <
-4 -5 8 -1 276.64 465.86 258.89 <
-4 -5 8 0 1375.13 1263.94 433.06 <
-4 -5 8 1 299.02 197.24 167.63 <
-4 -5 8 2 24.84 -75.16 104.32 <
-3 -5 8 -2 40.93 47.38 78.50 <
-3 -5 8 -1 200.59 526.29 236.88 <
-3 -5 8 0 1527.01 2140.84 496.38 o
-3 -5 8 1 468.94 143.19 118.89 <
-3 -5 8 2 48.35 -68.33 62.71 <
-2 -5 8 -2 155.52 125.88 99.61 <
-2 -5 8 -1 103.74 8.96 51.32 <
-2 -5 8 0 5145.49 5671.19 529.63 o
-2 -5 8 1 1344.14 913.18 192.99 o
-2 -5 8 2 72.93 39.63 65.29 <
-1 -5 8 -2 77.12 -95.66 67.72 <
-1 -5 8 -1 1936.65 2043.81 264.21 o
-1 -5 8 0 5407.63 5323.01 426.83 o
-1 -5 8 1 741.41 648.83 157.61 o
-1 -5 8 2 40.25 5.31 60.59 <
0 -5 8 -2 27.51 -72.73 59.83 <
0 -5 8 -1 292.03 334.66 115.86 <
0 -5 8 0 14380.60 15860.60 838.78 o
0 -5 8 1 3699.12 3711.50 414.38 o
0 -5 8 2 69.31 76.83 69.85 <
1 -5 8 -2 12.65 60.28 59.83 <
1 -5 8 -1 471.18 667.65 133.17 o
1 -5 8 0 5108.03 5237.68 461.15 o
1 -5 8 1 721.24 927.61 202.26 o
1 -5 8 2 71.36 -79.72 99.15 <
2 -5 8 2 105.59 297.16 264.81 <
-4 -4 8 -1 136.85 401.78 246.14 <
-4 -4 8 0 181.28 -123.60 112.36 <
-4 -4 8 1 20.08 -50.87 86.85 <
-4 -4 8 2 4.98 -32.80 53.45 <
-3 -4 8 -2 4.53 75.47 98.09 <
-3 -4 8 -1 152.72 220.02 187.37 <
-3 -4 8 0 6158.99 8320.85 962.38 o
-3 -4 8 1 3091.64 2875.30 553.77 o
-3 -4 8 2 137.17 137.72 85.49 <
-2 -4 8 -2 451.27 290.02 148.05 <
-2 -4 8 -1 94.70 37.05 91.87 <
-2 -4 8 0 4008.92 3677.49 420.45 o
-2 -4 8 1 331.99 226.40 111.45 <
-2 -4 8 2 19.86 98.85 70.15 <
-1 -4 8 -2 29.21 38.72 39.33 <
-1 -4 8 -1 1398.62 1241.32 197.09 o
-1 -4 8 0 19860.10 20167.70 813.73 o
-1 -4 8 1 2816.93 3137.99 389.93 o
-1 -4 8 2 76.88 20.04 59.52 <
0 -4 8 -2 60.01 -22.47 28.09 <
0 -4 8 -1 176.86 89.59 67.27 <
0 -4 8 0 233.41 363.51 133.93 <
0 -4 8 1 793.89 1269.41 248.11 o
0 -4 8 2 139.58 1.06 50.56 <
1 -4 8 -2 25.35 141.67 82.15 <
1 -4 8 -1 59.09 4.40 48.13 <
1 -4 8 0 20051.60 22064.00 935.05 o
1 -4 8 1 1470.82 1420.80 402.38 o
1 -4 8 2 84.60 122.08 112.36 <
2 -4 8 1 256.10 668.87 295.94 <
2 -4 8 2 1100.38 1114.98 388.42 <
-4 -3 8 -2 91.41 319.93 157.76 <
-4 -3 8 -1 868.40 1317.39 438.83 o
-4 -3 8 0 80.57 302.17 143.34 <
-4 -3 8 1 107.93 -1.37 30.37 <
-4 -3 8 2 145.35 43.43 72.13 <
-3 -3 8 -2 4.99 149.87 66.96 <
-3 -3 8 -1 277.33 196.18 151.99 <
-3 -3 8 0 2699.14 2966.26 568.35 o
-3 -3 8 1 21.25 -242.49 159.28 <
-3 -3 8 2 392.20 72.43 115.10 <
-2 -3 8 -2 1030.91 749.80 193.15 o
-2 -3 8 -1 1057.77 1508.11 266.94 o
-2 -3 8 0 66.36 7.90 83.82 <
-2 -3 8 1 233.85 10.48 56.18 <
-2 -3 8 2 111.32 100.52 79.72 <
-1 -3 8 -2 484.01 335.42 77.59 o
-1 -3 8 -1 8270.45 8845.78 526.90 o
-1 -3 8 0 5538.82 5851.43 433.36 o
-1 -3 8 1 570.83 747.07 189.65 o
-1 -3 8 2 124.67 -49.35 37.96 <
0 -3 8 -2 50.44 16.55 35.23 <
0 -3 8 -1 747.35 868.54 194.82 o
0 -3 8 0 3055.60 3232.29 357.14 o
0 -3 8 1 1185.83 1170.26 226.55 o
0 -3 8 2 214.30 100.07 77.14 <
1 -3 8 -2 166.79 73.34 60.13 <
1 -3 8 -1 1774.63 1886.95 270.28 o
1 -3 8 0 5651.70 6004.79 470.56 o
1 -3 8 1 985.64 1131.99 373.99 o
1 -3 8 2 60.48 -30.22 38.42 <
2 -3 8 -2 50.17 47.07 96.42 <
2 -3 8 -1 24.07 14.88 95.05 <
2 -3 8 0 226.37 23.23 29.91 <
2 -3 8 1 628.57 439.43 231.87 <
2 -3 8 2 84.52 -20.65 136.51 <
-4 -2 8 -2 542.88 589.76 323.73 <
-4 -2 8 -1 1019.50 210.46 176.90 <
-4 -2 8 0 1397.44 902.86 346.96 <
-4 -2 8 1 349.61 85.18 108.11 <
-4 -2 8 2 100.85 31.13 40.85 <
-3 -2 8 -2 130.28 69.85 71.67 <
-3 -2 8 -1 1943.46 1738.76 443.53 o
-3 -2 8 0 1663.87 1323.92 374.29 o
-3 -2 8 1 777.34 269.52 160.80 <
-3 -2 8 2 29.84 32.04 56.18 <
-2 -2 8 -2 24.94 56.33 53.75 <
-2 -2 8 -1 2530.74 2560.83 341.95 o
-2 -2 8 0 11182.00 10196.00 687.85 o
-2 -2 8 1 193.85 439.28 125.88 o
-2 -2 8 2 420.96 303.08 105.53 <
-1 -2 8 -2 228.30 101.13 56.94 <
-1 -2 8 -1 510.89 354.25 85.49 o
-1 -2 8 0 5203.48 4433.97 447.03 o
-1 -2 8 1 55.08 84.73 66.51 <
-1 -2 8 2 268.82 502.45 142.58 o
0 -2 8 -2 259.94 298.98 119.50 <
0 -2 8 -1 2165.48 1857.35 257.07 o
0 -2 8 0 10581.10 10786.90 643.51 o
0 -2 8 1 218.53 142.43 64.84 <
0 -2 8 2 663.16 1287.78 409.98 o
1 -2 8 -2 280.98 295.79 107.81 <
1 -2 8 -1 2589.94 2415.37 286.98 o
1 -2 8 0 5354.74 4635.47 401.93 o
1 -2 8 1 521.77 901.80 317.50 <
1 -2 8 2 316.88 600.69 275.90 <
2 -2 8 -2 76.86 4.25 96.42 <
2 -2 8 -1 347.97 74.40 76.98 <
2 -2 8 0 10517.80 11631.80 1121.82 o
2 -2 8 1 1104.54 775.01 328.74 <
2 -2 8 2 702.48 1019.78 385.83 <
-4 -1 8 -2 109.75 -187.68 170.67 <
-4 -1 8 -1 397.17 898.00 359.72 <
-4 -1 8 0 31.46 189.65 162.78 <
-4 -1 8 1 213.12 264.05 216.68 <
-4 -1 8 2 204.70 -41.30 74.40 <
-3 -1 8 -2 84.32 -147.29 131.34 <
-3 -1 8 -1 316.31 108.87 111.91 <
-3 -1 8 0 2966.60 4501.39 684.05 o
-3 -1 8 1 553.60 623.62 233.23 <
-3 -1 8 2 60.89 12.15 90.04 <
-2 -1 8 -2 569.46 435.79 109.02 o
-2 -1 8 -1 787.88 1220.21 172.95 o
-2 -1 8 0 445.86 315.23 132.71 <
-2 -1 8 1 325.49 367.31 122.69 <
-2 -1 8 2 114.22 32.04 78.20 <
-1 -1 8 -2 67.65 66.20 46.01 <
-1 -1 8 -1 2448.01 2344.91 216.68 o
-1 -1 8 0 8208.86 8217.75 594.62 o
-1 -1 8 1 2642.59 2593.78 343.47 o
-1 -1 8 2 60.73 45.86 51.78 <
0 -1 8 -2 54.35 35.99 36.75 <
0 -1 8 -1 1736.08 2040.62 274.84 o
0 -1 8 0 689.71 296.70 91.87 o
0 -1 8 1 48.89 82.91 71.67 <
0 -1 8 2 18.13 73.04 148.65 <
1 -1 8 -2 62.14 -34.47 41.91 <
1 -1 8 -1 499.35 543.75 123.60 o
1 -1 8 0 8434.22 8224.74 972.40 o
1 -1 8 1 2360.82 2831.88 577.16 o
1 -1 8 2 340.40 37.66 71.82 <
2 -1 8 -2 54.35 -46.31 46.16 <
2 -1 8 -1 1387.03 1828.04 427.89 o
2 -1 8 0 337.87 352.43 206.66 <
2 -1 8 1 351.98 404.66 224.42 <
2 -1 8 2 43.46 -7.14 37.81 <
-4 0 8 -2 20.29 -53.30 96.72 <
-4 0 8 -1 264.89 1111.19 404.36 <
-4 0 8 0 3199.71 3986.04 743.42 o
-4 0 8 1 3454.23 2367.39 577.91 o
-4 0 8 2 156.41 430.02 235.81 <
-3 0 8 -2 158.78 -26.12 39.93 <
-3 0 8 -1 149.29 -207.87 151.54 <
-3 0 8 0 3436.44 3458.53 601.45 o
-3 0 8 1 624.09 355.16 174.92 <
-3 0 8 2 7.58 43.58 108.72 <
-2 0 8 -2 1457.52 1089.02 172.80 o
-2 0 8 -1 164.77 326.61 95.96 o
-2 0 8 0 18254.00 18725.60 917.59 o
-2 0 8 1 6713.34 4907.57 476.18 o
-2 0 8 2 257.95 190.26 86.55 <
-1 0 8 -2 129.20 77.14 54.51 <
-1 0 8 -1 348.14 282.43 75.01 o
-1 0 8 0 10834.70 9651.30 475.73 o
-1 0 8 1 294.05 346.81 137.57 <
-1 0 8 2 43.68 -97.18 75.47 <
0 0 8 -2 4.52 -14.27 26.12 <
0 0 8 -1 90.53 71.67 43.43 <
0 0 8 0 33034.50 32614.70 1071.56 o
0 0 8 1 3656.55 4258.44 402.54 o
0 0 8 2 370.89 62.56 81.24 <
1 0 8 -2 162.94 355.31 66.05 o
1 0 8 -1 3272.26 3074.52 321.15 o
1 0 8 0 10502.70 9998.42 1063.66 o
1 0 8 1 9542.26 11715.60 1189.69 o
1 0 8 2 45.91 -67.11 94.60 <
2 0 8 -2 9.83 97.03 69.09 <
2 0 8 -1 112.88 32.19 97.18 <
2 0 8 0 20478.70 19768.50 1465.74 o
2 0 8 1 74.74 221.69 188.74 <
2 0 8 2 0.65 58.61 131.04 <
3 0 8 2 48.62 21.11 187.37 <
-4 1 8 -2 111.68 58.76 98.55 <
-4 1 8 -1 420.10 800.21 349.70 <
-4 1 8 0 33.66 214.25 173.40 <
-4 1 8 1 202.65 163.84 155.64 <
-4 1 8 2 207.13 21.56 56.94 <
-3 1 8 -2 78.53 -73.95 61.19 <
-3 1 8 -1 314.71 177.35 74.10 <
-3 1 8 0 2958.85 3212.70 582.77 o
-3 1 8 1 548.23 665.68 187.22 o
-3 1 8 2 60.34 57.85 90.95 <
-2 1 8 -2 570.41 330.26 89.89 o
-2 1 8 -1 811.70 1202.60 182.97 o
-2 1 8 0 431.10 310.82 87.61 o
-2 1 8 1 321.33 602.82 181.91 o
-2 1 8 2 117.24 -1.52 68.48 <
-1 1 8 -2 70.65 56.94 56.64 <
-1 1 8 -1 2384.89 2245.61 243.10 o
-1 1 8 0 8268.03 8605.86 462.36 o
-1 1 8 1 2683.65 2628.41 247.35 o
-1 1 8 2 63.24 12.45 86.55 <
0 1 8 -2 56.85 19.28 27.18 <
0 1 8 -1 1768.34 1972.90 153.36 o
0 1 8 0 740.80 312.19 122.39 <
0 1 8 1 45.07 -2.73 10.02 <
0 1 8 2 16.81 -23.08 56.94 <
1 1 8 -2 61.35 4.40 32.04 <
1 1 8 -1 530.94 480.73 120.87 o
1 1 8 0 8445.29 9293.26 1026.61 o
1 1 8 1 2422.65 2953.05 601.91 o
1 1 8 2 334.09 -110.85 118.29 <
2 1 8 -2 58.53 -13.21 57.09 <
2 1 8 -1 1406.91 2127.32 476.33 o
2 1 8 0 331.34 353.64 209.39 <
2 1 8 1 347.98 413.47 222.30 <
2 1 8 2 43.75 108.57 60.13 <
3 1 8 1 2004.00 3127.97 698.63 o
3 1 8 2 32.73 -127.09 147.90 <
-4 2 8 -2 550.36 544.97 289.57 <
-4 2 8 -1 1001.16 1047.87 410.28 <
-4 2 8 0 1399.26 1409.56 452.80 o
-4 2 8 1 362.12 377.33 228.68 <
-4 2 8 2 103.18 -31.89 68.48 <
-3 2 8 -2 129.05 -81.84 87.16 <
-3 2 8 -1 1947.76 2148.88 330.11 o
-3 2 8 0 1658.75 941.43 302.62 o
-3 2 8 1 753.87 679.04 209.54 o
-3 2 8 2 27.35 57.09 72.58 <
-2 2 8 -2 16.97 94.14 61.80 <
-2 2 8 -1 2536.97 2613.07 268.46 o
-2 2 8 0 11166.10 10179.40 543.45 o
-2 2 8 1 206.95 361.84 104.16 o
-2 2 8 2 418.10 485.59 145.92 o
-1 2 8 -2 212.20 74.25 46.01 <
-1 2 8 -1 599.31 336.64 101.89 o
-1 2 8 0 5083.64 4362.00 336.03 o
-1 2 8 1 52.74 52.99 39.93 <
-1 2 8 2 269.24 389.48 88.07 o
0 2 8 -2 249.44 324.18 80.17 o
0 2 8 -1 2197.07 1937.06 192.84 o
0 2 8 0 10529.90 11198.40 472.38 o
0 2 8 1 221.59 56.79 103.25 <
0 2 8 2 661.16 1157.50 379.15 o
1 2 8 -2 286.02 116.31 36.14 o
1 2 8 -1 2650.25 2509.51 506.09 o
1 2 8 0 5224.96 4578.68 723.99 o
1 2 8 1 512.04 731.58 309.15 <
1 2 8 2 309.42 788.98 322.52 <
2 2 8 -2 77.07 211.21 161.56 <
2 2 8 -1 346.39 376.88 199.67 <
2 2 8 0 10457.40 10432.70 1092.21 o
2 2 8 1 1139.80 1154.01 384.01 o
2 2 8 2 719.86 1360.36 416.20 o
3 2 8 -2 244.52 70.15 95.36 <
3 2 8 -1 487.12 384.62 244.92 <
3 2 8 0 1802.97 1107.70 382.49 <
3 2 8 1 716.28 592.80 315.83 <
3 2 8 2 144.61 388.72 249.18 <
-4 3 8 -2 99.62 1.06 105.23 <
-4 3 8 -1 876.71 1669.67 506.24 o
-4 3 8 0 81.89 147.44 68.03 <
-4 3 8 1 107.71 97.64 116.16 <
-4 3 8 2 147.68 -188.29 155.49 <
-3 3 8 -2 6.50 198.76 106.90 <
-3 3 8 -1 275.22 153.06 108.72 <
-3 3 8 0 2699.77 3638.31 433.51 o
-3 3 8 1 23.14 -19.44 48.59 <
-3 3 8 2 386.41 111.45 103.40 <
-2 3 8 -2 1004.09 801.28 145.47 o
-2 3 8 -1 1070.83 1679.69 221.99 o
-2 3 8 0 58.75 3.34 58.31 <
-2 3 8 1 233.70 56.79 54.97 <
-2 3 8 2 114.29 172.19 58.46 <
-1 3 8 -2 484.34 373.53 119.65 o
-1 3 8 -1 8282.59 7942.61 461.91 o
-1 3 8 0 5584.89 5685.16 389.63 o
-1 3 8 1 573.14 626.51 124.21 o
-1 3 8 2 121.88 -17.61 40.69 <
0 3 8 -2 47.15 33.71 34.77 <
0 3 8 -1 756.44 853.21 133.01 o
0 3 8 0 3134.44 3264.32 261.93 o
0 3 8 1 1193.20 952.51 311.73 o
0 3 8 2 215.28 119.65 118.44 <
1 3 8 -2 162.85 81.24 47.53 <
1 3 8 -1 1758.71 2129.90 459.93 o
1 3 8 0 5687.97 6857.39 869.15 o
1 3 8 1 965.83 1100.56 348.33 o
1 3 8 2 56.49 73.49 153.06 <
2 3 8 -2 52.02 20.95 99.46 <
2 3 8 -1 23.08 4.25 31.58 <
2 3 8 0 208.43 76.23 103.86 <
2 3 8 1 633.91 771.36 326.16 <
2 3 8 2 85.46 74.40 99.00 <
3 3 8 -2 6.77 36.90 64.38 <
3 3 8 -1 1749.89 1191.36 377.48 o
3 3 8 0 2870.70 2798.17 591.89 o
3 3 8 1 1775.42 2645.87 619.52 o
3 3 8 2 101.50 242.65 140.30 <
4 3 8 1 128.84 -239.61 218.50 <
4 3 8 2 11.15 -127.25 168.09 <
-4 4 8 -2 54.13 253.73 141.37 <
-4 4 8 -1 145.96 -153.51 177.35 <
-4 4 8 0 175.33 201.19 170.52 <
-4 4 8 1 23.09 -40.24 83.51 <
-4 4 8 2 5.43 -46.77 79.87 <
-3 4 8 -2 3.98 37.96 64.08 <
-3 4 8 -1 157.30 233.69 114.34 <
-3 4 8 0 6144.91 8005.93 655.20 o
-3 4 8 1 3122.32 2218.88 274.23 o
-3 4 8 2 133.64 13.97 106.90 <
-2 4 8 -2 432.05 288.05 85.64 o
-2 4 8 -1 109.38 31.74 52.23 <
-2 4 8 0 4050.87 3385.04 322.21 o
-2 4 8 1 342.97 215.01 89.28 <
-2 4 8 2 20.34 114.49 78.20 <
-1 4 8 -2 23.81 13.97 37.66 <
-1 4 8 -1 1384.04 1516.00 237.48 o
-1 4 8 0 19935.60 21271.30 772.12 o
-1 4 8 1 2832.38 3111.11 285.62 o
-1 4 8 2 76.57 65.90 52.69 <
0 4 8 -2 59.20 101.89 61.04 <
0 4 8 -1 200.71 103.86 41.45 <
0 4 8 0 224.48 349.85 86.85 o
0 4 8 1 781.13 1222.34 228.98 o
0 4 8 2 142.29 52.84 76.38 <
1 4 8 -2 23.47 62.10 26.72 <
1 4 8 -1 56.57 51.32 73.64 <
1 4 8 0 20104.90 21721.60 1531.79 o
1 4 8 1 1473.91 1922.49 483.77 o
1 4 8 2 84.42 18.52 101.13 <
2 4 8 -2 157.34 54.51 89.59 <
2 4 8 -1 1268.83 1189.24 352.58 o
2 4 8 0 4033.93 4028.25 682.53 o
2 4 8 1 245.80 391.76 231.71 <
2 4 8 2 1096.78 793.23 313.56 <
3 4 8 -2 108.95 -9.72 33.86 <
3 4 8 -1 37.37 198.00 141.97 <
3 4 8 0 6836.97 8149.88 1013.70 o
3 4 8 1 151.59 332.39 212.88 <
3 4 8 2 69.89 204.38 175.38 <
4 4 8 0 215.98 23.54 66.66 <
4 4 8 1 229.09 -14.12 61.50 <
4 4 8 2 281.69 146.98 172.65 <
-4 5 8 -2 25.23 -109.63 130.89 <
-4 5 8 -1 290.55 351.97 190.71 <
-4 5 8 0 1374.92 1838.06 506.55 o
-4 5 8 1 302.86 814.79 330.56 <
-4 5 8 2 24.74 43.58 97.03 <
-3 5 8 -2 41.70 -3.64 85.49 <
-3 5 8 -1 193.50 426.68 152.15 <
-3 5 8 0 1523.01 1972.29 330.41 o
-3 5 8 1 477.20 430.48 121.02 o
-3 5 8 2 50.21 59.52 90.95 <
-2 5 8 -2 162.82 14.43 50.87 <
-2 5 8 -1 104.10 45.10 42.06 <
-2 5 8 0 5132.75 5380.56 415.60 o
-2 5 8 1 1365.97 810.54 167.33 o
-2 5 8 2 74.47 13.36 65.29 <
-1 5 8 -2 73.77 140.61 74.71 <
-1 5 8 -1 1929.48 2081.77 293.21 o
-1 5 8 0 5432.79 6120.95 424.86 o
-1 5 8 1 740.17 640.93 128.46 o
-1 5 8 2 37.83 -225.94 105.07 <
0 5 8 -2 28.12 92.62 51.63 <
0 5 8 -1 289.13 363.51 136.66 <
0 5 8 0 14303.60 15051.00 815.70 o
0 5 8 1 3655.02 3838.44 413.77 o
0 5 8 2 72.29 -3.64 30.52 <
1 5 8 -2 11.67 61.34 29.61 <
1 5 8 -1 457.15 694.68 146.07 o
1 5 8 0 5150.54 4710.48 695.44 o
1 5 8 1 721.75 708.80 271.50 <
1 5 8 2 73.59 128.61 145.47 <
2 5 8 -2 45.37 -14.88 44.19 <
2 5 8 -1 597.35 783.21 281.82 <
2 5 8 0 4179.75 5610.15 816.46 o
2 5 8 1 2603.33 3162.89 624.84 o
2 5 8 2 109.47 267.09 186.01 <
3 5 8 -2 56.02 240.67 164.29 <
3 5 8 -1 580.92 665.83 260.71 <
3 5 8 0 1320.35 2063.85 504.88 o
3 5 8 1 52.90 211.52 216.68 <
3 5 8 2 82.67 347.27 225.64 <
4 5 8 -2 50.25 104.32 153.97 <
4 5 8 -1 481.03 570.32 282.28 <
4 5 8 0 1091.39 1347.91 452.49 <
4 5 8 1 685.58 1434.31 503.06 <
5 5 8 -2 55.70 146.98 150.93 <
5 5 8 -1 143.76 419.09 267.55 <
-4 6 8 -2 75.52 245.99 198.00 <
-4 6 8 -1 85.86 124.21 122.39 <
-4 6 8 0 56.55 -193.45 119.80 <
-4 6 8 1 604.34 619.82 296.70 <
-4 6 8 2 189.07 159.59 144.71 <
-3 6 8 -2 351.79 424.25 160.95 <
-3 6 8 -1 1602.30 1618.34 315.53 o
-3 6 8 0 2763.07 2388.34 377.63 o
-3 6 8 1 231.88 325.86 127.09 <
-3 6 8 2 76.99 95.96 68.94 <
-2 6 8 -2 294.60 378.09 107.66 o
-2 6 8 -1 38.99 -6.53 47.98 <
-2 6 8 0 291.20 149.87 79.87 <
-2 6 8 1 948.62 904.53 172.19 o
-2 6 8 2 70.68 -20.04 33.86 <
-1 6 8 -2 315.46 283.95 114.34 <
-1 6 8 -1 4.32 32.04 91.87 <
-1 6 8 0 10879.00 11130.90 688.61 o
-1 6 8 1 45.50 20.35 46.01 <
-1 6 8 2 319.24 356.83 155.03 <
0 6 8 -2 88.83 -1.37 63.62 <
0 6 8 -1 11.51 -71.37 59.98 <
0 6 8 0 2745.89 2350.68 328.89 o
0 6 8 1 1148.25 1638.69 276.20 o
0 6 8 2 62.96 10.78 39.63 <
1 6 8 -2 34.05 -25.05 35.23 <
1 6 8 -1 105.71 36.44 133.77 <
1 6 8 0 11012.60 10602.10 1021.15 o
1 6 8 1 576.47 379.61 175.38 <
1 6 8 2 249.02 1017.50 452.80 <
2 6 8 -2 59.10 57.85 65.60 <
2 6 8 -1 147.83 61.34 69.39 <
2 6 8 0 409.28 189.35 82.00 <
2 6 8 1 311.60 469.35 220.32 <
2 6 8 2 375.21 210.91 219.26 <
3 6 8 -2 59.67 -5.31 89.59 <
3 6 8 -1 1006.63 1077.78 235.96 o
3 6 8 0 2633.34 3051.14 407.24 o
3 6 8 1 1242.64 1605.29 470.56 o
3 6 8 2 72.22 304.29 210.46 <
4 6 8 -2 90.10 69.09 79.57 <
4 6 8 -1 37.90 92.62 79.11 <
4 6 8 0 26.43 140.46 145.16 <
5 6 8 -2 55.14 533.73 289.11 <
-4 7 8 -2 42.22 175.23 172.65 <
-4 7 8 -1 421.39 211.82 132.71 <
-4 7 8 0 736.36 527.20 195.73 <
-4 7 8 1 29.42 -113.43 128.91 <
-4 7 8 2 177.94 106.59 85.94 <
-3 7 8 -2 1.74 -165.21 105.23 <
-3 7 8 -1 327.10 54.97 89.74 <
-3 7 8 0 185.26 405.27 155.79 <
-3 7 8 1 13.85 -105.99 68.94 <
-3 7 8 2 91.47 -23.99 80.78 <
-2 7 8 -2 1949.24 1493.07 275.14 o
-2 7 8 -1 1454.43 1520.86 218.81 o
-2 7 8 0 930.03 831.80 162.47 o
-2 7 8 1 4.41 -159.43 77.14 <
-2 7 8 2 139.94 -31.74 52.84 <
-1 7 8 -2 146.61 35.23 28.70 <
-1 7 8 -1 6209.98 6412.34 549.67 o
-1 7 8 0 146.95 79.72 105.23 <
-1 7 8 1 124.11 213.04 99.31 <
-1 7 8 2 18.41 47.98 77.14 <
0 7 8 -2 299.32 177.20 120.41 <
0 7 8 -1 4306.55 4674.34 478.31 o
0 7 8 0 8605.32 8677.38 648.67 o
0 7 8 1 925.64 1005.51 224.73 o
0 7 8 2 43.24 13.06 75.31 <
1 7 8 -2 73.87 33.86 61.80 <
1 7 8 -1 209.87 301.41 144.25 <
1 7 8 0 240.44 283.04 174.77 <
1 7 8 1 99.31 23.23 52.69 <
1 7 8 2 117.31 11.69 96.27 <
2 7 8 -2 78.76 19.74 67.57 <
2 7 8 -1 3751.68 3901.61 395.25 o
2 7 8 0 881.20 1022.66 333.45 o
2 7 8 1 1159.71 1686.67 459.33 o
2 7 8 2 9.12 -88.22 68.94 <
3 7 8 -2 86.75 92.78 82.30 <
3 7 8 -1 119.28 -2.28 68.03 <
3 7 8 0 218.78 484.68 252.51 <
3 7 8 1 99.46 239.30 180.39 <
3 7 8 2 40.15 113.12 56.18 <
4 7 8 -2 19.23 26.88 41.00 <
4 7 8 -1 1032.08 623.16 277.57 <
5 7 8 -2 71.60 -63.47 102.49 <
-4 8 8 -2 134.89 378.24 259.04 <
-4 8 8 -1 261.67 436.70 275.60 <
-4 8 8 0 859.92 801.28 255.40 o
-4 8 8 1 642.03 88.22 111.76 <
-4 8 8 2 48.99 143.64 141.06 <
-3 8 8 -2 129.79 124.82 106.14 <
-3 8 8 -1 73.61 72.73 104.47 <
-3 8 8 0 786.09 756.94 217.14 o
-3 8 8 1 48.65 8.20 34.01 <
-3 8 8 2 22.80 -13.06 41.91 <
-2 8 8 -2 556.05 202.41 106.29 <
-2 8 8 -1 637.15 691.19 197.24 o
-2 8 8 0 3163.89 3489.81 434.88 o
-2 8 8 1 867.17 389.93 169.61 <
-2 8 8 2 33.75 -152.15 154.88 <
-1 8 8 -2 350.48 352.73 194.51 <
-1 8 8 -1 2452.14 1898.19 527.35 o
-1 8 8 0 2244.91 2786.78 636.68 o
-1 8 8 1 317.86 141.21 150.32 <
-1 8 8 2 134.15 246.14 118.44 <
0 8 8 -2 86.05 -12.45 62.56 <
0 8 8 -1 623.57 663.25 187.98 o
0 8 8 0 6528.13 7377.00 609.20 o
0 8 8 1 206.92 408.15 143.19 <
0 8 8 2 49.14 101.43 82.15 <
1 8 8 -2 51.93 89.13 97.03 <
1 8 8 -1 10.58 -73.19 80.78 <
1 8 8 0 2336.12 2310.75 457.35 o
1 8 8 1 3287.11 3387.47 576.70 o
1 8 8 2 182.42 117.98 66.81 <
2 8 8 -2 115.89 28.39 41.60 <
2 8 8 -1 649.57 848.50 289.72 <
2 8 8 0 3745.62 4567.29 706.37 o
2 8 8 1 27.45 -136.66 128.31 <
2 8 8 2 195.02 466.16 255.10 <
3 8 8 -2 137.81 74.71 59.67 <
3 8 8 -1 71.82 174.92 92.93 <
3 8 8 0 701.07 882.66 331.47 <
4 8 8 -2 107.42 77.59 95.21 <
5 8 8 -2 79.11 12.00 46.62 <
-4 9 8 -1 42.36 1.21 24.75 <
-4 9 8 0 608.29 285.77 230.35 <
-4 9 8 1 43.80 -157.01 172.49 <
-4 9 8 2 57.62 -56.49 106.44 <
-3 9 8 -2 16.45 181.00 169.15 <
-3 9 8 -1 72.69 179.33 170.37 <
-3 9 8 0 363.27 380.52 249.63 <
-3 9 8 1 284.11 164.60 127.70 <
-3 9 8 2 211.87 -51.17 97.79 <
-2 9 8 -2 32.18 -80.17 112.52 <
-2 9 8 -1 89.90 -132.10 93.23 <
-2 9 8 0 2495.24 2133.09 597.66 o
-2 9 8 1 182.70 508.22 288.05 <
-2 9 8 2 93.40 110.85 137.27 <
-1 9 8 -2 226.79 85.64 116.46 <
-1 9 8 -1 295.76 -58.76 146.53 <
-1 9 8 0 392.78 257.37 196.49 <
-1 9 8 1 466.84 386.29 232.62 <
-1 9 8 2 102.63 -95.96 115.70 <
0 9 8 -2 178.71 552.10 297.76 <
0 9 8 -1 112.54 109.78 77.44 <
0 9 8 0 3382.21 3336.60 420.15 o
0 9 8 1 267.71 109.18 72.28 <
0 9 8 2 85.73 -8.05 68.03 <
1 9 8 -2 17.60 61.95 61.50 <
1 9 8 -1 459.87 433.66 143.64 o
1 9 8 0 295.55 44.64 64.23 <
1 9 8 1 103.60 55.12 70.30 <
1 9 8 2 155.95 129.07 116.01 <
2 9 8 -2 158.30 217.59 138.18 <
2 9 8 -1 877.74 644.88 240.22 <
2 9 8 0 2478.36 2426.00 495.46 o
2 9 8 1 217.82 -78.50 95.66 <
2 9 8 2 24.97 -331.02 202.26 <
3 9 8 -2 59.17 52.99 87.92 <
3 9 8 -1 319.12 315.53 178.11 <
4 9 8 -2 131.03 -286.07 182.67 <
-4 10 8 0 102.90 -278.78 235.21 <
-4 10 8 1 43.28 -6.68 44.79 <
-4 10 8 2 10.12 217.29 208.63 <
-3 10 8 -2 71.65 254.03 169.30 <
-3 10 8 -1 237.04 20.04 65.44 <
-3 10 8 0 400.61 408.15 269.22 <
-3 10 8 1 1736.65 1672.86 548.15 o
-3 10 8 2 533.27 11.08 132.41 <
-2 10 8 -2 146.13 180.39 174.32 <
-2 10 8 -1 247.72 -216.07 193.60 <
-2 10 8 0 1083.15 488.48 285.16 <
-2 10 8 1 1.15 281.52 223.51 <
-2 10 8 2 49.51 268.31 218.96 <
-1 10 8 -2 179.58 187.53 231.26 <
-1 10 8 -1 4734.65 4320.39 848.65 o
-1 10 8 0 1275.03 1601.64 501.84 o
-1 10 8 1 1599.38 2291.31 599.48 o
-1 10 8 2 661.69 537.22 254.03 <
0 10 8 -2 29.10 22.32 52.23 <
0 10 8 -1 168.80 -124.97 133.77 <
0 10 8 0 1852.30 2267.32 352.58 o
0 10 8 1 594.67 735.68 209.09 o
0 10 8 2 196.40 104.77 81.39 <
1 10 8 -2 10.58 49.50 56.03 <
1 10 8 -1 654.63 652.47 188.29 o
1 10 8 0 1178.05 1072.92 301.86 o
1 10 8 1 7648.53 9348.07 927.15 o
1 10 8 2 148.07 39.63 65.90 <
2 10 8 -2 442.17 133.32 61.95 <
2 10 8 -1 1903.82 1690.32 387.35 o
2 10 8 0 1102.87 1561.40 385.53 o
2 10 8 1 926.20 1149.45 351.82 o
-4 11 8 1 50.76 -573.06 348.78 <
-4 11 8 2 24.40 -574.88 350.30 <
-3 11 8 -2 31.78 217.44 201.19 <
-3 11 8 -1 184.07 327.07 189.35 <
-3 11 8 0 195.81 -162.93 179.02 <
-3 11 8 1 297.18 333.30 256.77 <
-3 11 8 2 101.17 25.51 221.08 <
-2 11 8 -2 829.58 734.47 388.11 <
-2 11 8 -1 153.32 83.06 127.55 <
-2 11 8 0 1461.39 1344.12 498.05 <
-2 11 8 1 94.31 106.75 145.31 <
-2 11 8 2 9.04 -118.89 150.02 <
-1 11 8 -2 300.99 -12.00 57.40 <
-1 11 8 -1 8318.37 8206.52 1216.42 o
-1 11 8 0 993.21 1209.89 457.81 <
-1 11 8 1 119.18 -10.17 52.69 <
-1 11 8 2 38.72 169.30 163.54 <
0 11 8 -2 130.81 83.21 115.10 <
0 11 8 -1 294.15 746.46 295.33 <
0 11 8 0 8168.71 9887.88 1205.63 o
0 11 8 1 490.13 692.71 200.89 o
0 11 8 2 33.96 62.26 59.07 <
1 11 8 -2 142.85 47.98 63.32 <
1 11 8 -1 2584.40 2162.40 343.01 o
1 11 8 0 889.48 522.95 159.43 o
1 11 8 1 288.14 199.22 130.89 <
1 11 8 2 21.45 -168.70 127.55 <
2 11 8 -2 301.13 5.92 26.57 <
2 11 8 -1 155.10 170.52 42.06 o
-4 12 8 2 1.03 151.54 186.77 <
-3 12 8 -2 61.98 101.74 144.25 <
-3 12 8 -1 99.13 236.72 75.47 o
-3 12 8 0 25.43 210.00 211.21 <
-3 12 8 1 103.23 166.57 189.35 <
-3 12 8 2 4.18 232.78 222.15 <
-2 12 8 -2 372.23 373.69 271.50 <
-2 12 8 -1 255.03 301.71 245.23 <
-2 12 8 0 3743.70 3778.62 869.30 o
-2 12 8 1 436.10 270.89 109.93 <
-2 12 8 2 5.55 -32.65 228.37 <
-1 12 8 -2 72.72 -107.96 192.08 <
-1 12 8 -1 751.65 155.18 141.67 <
-1 12 8 0 104.54 365.79 254.79 <
-1 12 8 2 152.05 425.16 263.75 <
0 12 8 -2 249.41 582.62 308.70 <
0 12 8 -1 218.76 103.56 158.22 <
0 12 8 0 17972.60 20829.10 1807.09 o
0 12 8 1 238.86 413.32 297.61 <
0 12 8 2 74.03 228.07 132.26 <
1 12 8 -2 77.67 345.60 139.39 <
1 12 8 -1 207.60 127.55 87.01 <
1 12 8 0 100.42 117.38 81.08 <
1 12 8 1 13.17 129.98 102.95 <
1 12 8 2 80.60 22.47 48.29 <
2 12 8 -2 47.52 74.10 71.67 <
-3 13 8 -2 5.89 -196.33 207.87 <
-3 13 8 -1 53.02 105.83 155.79 <
-3 13 8 0 89.71 46.31 187.53 <
-3 13 8 1 38.17 176.44 201.04 <
-3 13 8 2 94.21 136.20 176.90 <
-2 13 8 -2 162.51 230.65 225.34 <
-2 13 8 -1 297.62 513.23 324.79 <
-2 13 8 0 1912.94 1821.51 601.91 o
-2 13 8 1 92.21 634.25 368.22 <
-2 13 8 2 260.39 208.63 208.48 <
-1 13 8 -2 174.50 181.15 256.61 <
-1 13 8 -1 53.96 158.37 242.80 <
-1 13 8 0 334.15 144.71 99.61 <
-1 13 8 1 38.54 -164.75 174.77 <
-1 13 8 2 39.55 -246.29 207.27 <
0 13 8 -2 195.22 -9.26 94.75 <
0 13 8 -1 573.13 424.25 301.41 <
0 13 8 0 4335.37 4365.49 854.27 o
0 13 8 1 566.55 1008.69 441.56 <
0 13 8 2 174.48 99.76 128.76 <
1 13 8 -2 74.78 166.72 167.94 <
1 13 8 -1 370.96 406.64 258.29 <
1 13 8 0 259.62 271.65 122.54 <
-3 14 8 -1 229.79 456.14 388.11 <
-3 14 8 0 161.68 -408.46 314.77 <
-3 14 8 1 29.47 201.19 221.24 <
-3 14 8 2 57.41 -92.32 154.12 <
-2 14 8 -2 579.83 79.41 140.00 <
-2 14 8 -1 1128.54 1462.10 582.47 <
-2 14 8 0 195.60 -58.46 121.02 <
-2 14 8 1 2418.37 2129.90 698.48 o
-2 14 8 2 476.50 -125.12 168.24 <
-1 14 8 -2 47.57 242.19 231.87 <
-1 14 8 -1 59.72 29.91 84.27 <
-1 14 8 0 149.67 172.19 188.29 <
-1 14 8 1 158.09 370.80 240.67 <
-1 14 8 2 87.82 -33.86 237.79 <
0 14 8 -2 286.70 760.89 422.28 <
0 14 8 -1 1708.20 1950.27 592.04 o
0 14 8 0 2074.13 2080.40 602.36 o
0 14 8 1 4014.66 4812.52 931.56 o
0 14 8 2 415.51 714.42 349.39 <
1 14 8 -2 279.88 642.45 352.58 <
1 14 8 -1 230.67 315.38 310.98 <
1 14 8 0 146.52 58.00 103.10 <
-3 15 8 1 53.74 375.36 309.15 <
-3 15 8 2 61.76 -599.33 391.91 <
-2 15 8 -2 603.16 224.88 235.21 <
-2 15 8 -1 322.68 398.29 312.95 <
-2 15 8 0 3389.13 2990.85 857.46 o
-2 15 8 1 408.22 723.53 410.28 <
-2 15 8 2 12.11 -255.55 242.19 <
-1 15 8 -2 119.91 -72.13 132.10 <
-1 15 8 -1 713.53 1095.09 498.50 <
-1 15 8 0 4092.48 6905.52 1199.71 o
-1 15 8 1 172.53 -22.02 74.10 <
-1 15 8 2 26.33 -23.23 130.59 <
0 15 8 -2 37.29 112.67 150.63 <
0 15 8 -1 769.76 1012.49 435.18 <
0 15 8 0 1049.64 1743.46 581.86 <
0 15 8 1 185.81 140.00 166.72 <
0 15 8 2 18.39 -71.37 172.80 <
1 15 8 -2 335.84 12.00 84.12 <
1 15 8 -1 63.02 -44.79 140.30 <
1 15 8 0 4338.08 4595.38 916.68 o
-2 16 8 -2 107.09 -183.27 221.84 <
-2 16 8 -1 471.14 55.73 130.74 <
-2 16 8 0 1161.32 620.58 400.26 <
-2 16 8 1 171.38 90.95 152.60 <
-2 16 8 2 58.78 -210.15 223.66 <
-1 16 8 -2 55.16 -102.49 159.74 <
-1 16 8 -1 162.18 -122.39 170.67 <
-1 16 8 0 2940.75 3875.95 899.52 o
-1 16 8 1 682.21 769.09 398.89 <
-1 16 8 2 22.54 -129.98 165.96 <
0 16 8 -2 56.31 -60.74 113.43 <
0 16 8 -1 484.78 715.03 364.58 <
0 16 8 0 370.54 537.22 298.07 <
0 16 8 1 88.61 58.61 111.61 <
0 16 8 2 48.28 -279.09 232.32 <
1 16 8 -2 39.93 108.72 151.69 <
1 16 8 -1 144.34 269.67 231.71 <
1 16 8 0 3044.43 3519.57 821.32 o
-2 17 8 -2 85.39 -359.41 317.05 <
-2 17 8 -1 56.57 -92.17 159.59 <
-2 17 8 0 101.76 -209.24 240.82 <
-2 17 8 1 23.89 199.22 230.19 <
-2 17 8 2 44.59 -17.31 75.16 <
-1 17 8 -2 247.57 500.48 352.73 <
-1 17 8 -1 1305.06 1878.45 662.79 <
-1 17 8 0 1671.94 1927.35 664.16 <
-1 17 8 1 342.31 456.14 315.68 <
0 17 8 -2 100.05 25.05 85.79 <
0 17 8 -1 14.21 -0.76 37.05 <
0 17 8 0 728.97 1138.37 496.68 <
0 17 8 1 14.84 -71.67 126.64 <
0 17 8 2 101.30 32.34 87.16 <
1 17 8 -2 45.26 56.79 116.77 <
1 17 8 -1 443.81 738.11 372.02 <
1 17 8 0 2013.87 2937.25 789.13 o
-1 18 8 -2 238.31 -220.93 240.98 <
-1 18 8 -1 1306.42 1292.49 574.42 <
-1 18 8 0 1630.45 1948.76 666.59 <
-1 18 8 1 1189.47 573.97 361.54 <
-1 18 8 2 79.65 -221.08 222.15 <
0 18 8 -2 75.61 -66.66 126.49 <
0 18 8 -1 15.01 256.61 236.72 <
0 18 8 0 1537.39 1606.50 573.97 <
0 18 8 1 118.11 271.19 241.43 <
1 18 8 -2 9.60 -65.60 125.27 <
1 18 8 -1 91.63 407.70 389.78 <
1 18 8 0 1707.35 2830.05 786.70 o
0 19 8 -2 45.92 85.94 147.14 <
0 19 8 -1 251.77 170.67 197.70 <
1 19 8 -2 10.19 -196.94 215.62 <
1 19 8 -1 25.43 90.80 222.30 <
0 -20 9 -2 319.56 419.54 295.79 <
0 -18 9 -2 84.77 179.78 167.94 <
0 -18 9 -1 20.41 124.06 109.93 <
0 -18 9 0 601.53 623.16 206.20 o
0 -18 9 1 519.09 539.35 177.51 o
0 -18 9 2 45.73 257.53 179.18 <
-1 -17 9 -2 30.23 -80.78 118.89 <
-1 -17 9 -1 4758.37 4708.35 873.10 o
-1 -17 9 0 259.41 497.89 287.29 <
-1 -17 9 1 62.35 150.32 152.15 <
-1 -17 9 2 78.02 -69.09 82.45 <
0 -17 9 -2 29.87 -73.64 123.14 <
0 -17 9 -1 73.30 0.91 50.26 <
0 -17 9 0 517.33 416.66 166.12 <
0 -17 9 1 106.71 209.39 114.64 <
0 -17 9 2 4.66 -82.45 73.95 <
1 -17 9 -2 72.62 -31.13 59.98 <
1 -17 9 -1 356.08 202.41 147.29 <
1 -17 9 2 118.00 359.11 251.00 <
2 -17 9 -2 32.03 188.74 168.24 <
2 -17 9 -1 280.64 27.64 70.30 <
2 -17 9 0 119.41 480.43 279.24 <
-1 -16 9 -2 374.88 292.60 241.89 <
-1 -16 9 -1 1220.52 654.75 334.05 <
-1 -16 9 0 1722.17 1014.16 382.19 <
-1 -16 9 1 11.65 51.17 108.42 <
-1 -16 9 2 290.68 322.52 147.90 <
0 -16 9 -2 133.11 -48.13 78.20 <
0 -16 9 -1 10.88 -128.16 92.47 <
0 -16 9 0 1231.38 942.19 240.98 o
0 -16 9 1 75.20 79.57 102.95 <
0 -16 9 2 97.82 76.83 50.26 <
1 -16 9 -2 210.91 91.41 125.42 <
1 -16 9 -1 1181.67 1270.78 290.63 o
1 -16 9 0 1410.57 1333.49 301.56 o
1 -16 9 1 497.74 525.07 199.22 <
1 -16 9 2 58.01 179.02 176.74 <
2 -16 9 -2 183.94 143.34 144.40 <
2 -16 9 -1 175.24 379.00 238.55 <
2 -16 9 0 1150.10 764.68 346.66 <
-2 -15 9 -2 277.44 336.94 234.45 <
-2 -15 9 -1 43.03 -280.76 212.88 <
-2 -15 9 0 1468.28 1163.27 426.07 <
-2 -15 9 1 5.77 -51.47 108.87 <
-2 -15 9 2 74.97 -290.32 211.21 <
-1 -15 9 -2 129.39 458.26 256.46 <
-1 -15 9 -1 433.14 536.77 266.64 <
-1 -15 9 0 506.70 416.81 168.85 <
-1 -15 9 1 87.00 336.79 157.61 <
-1 -15 9 2 29.36 140.00 107.50 <
0 -15 9 -2 114.21 -57.24 72.13 <
0 -15 9 -1 624.76 426.38 161.56 <
0 -15 9 0 186.00 3.04 27.33 <
0 -15 9 1 82.80 33.10 54.21 <
0 -15 9 2 159.33 134.38 76.68 <
1 -15 9 -2 7.98 80.17 64.23 <
1 -15 9 -1 713.73 524.16 195.42 <
1 -15 9 0 646.69 435.94 163.08 <
1 -15 9 1 281.86 505.18 188.74 <
1 -15 9 2 89.53 43.28 113.28 <
2 -15 9 -2 73.52 -72.43 103.71 <
2 -15 9 -1 663.70 194.97 169.00 <
2 -15 9 0 1417.43 1525.42 483.47 o
-2 -14 9 -2 131.22 -255.40 199.83 <
-2 -14 9 -1 16.47 -50.26 166.72 <
-2 -14 9 0 956.30 456.74 237.79 <
-2 -14 9 1 35.60 -39.33 82.91 <
-2 -14 9 2 24.71 84.12 112.36 <
-1 -14 9 -2 75.09 -40.09 95.96 <
-1 -14 9 -1 46.78 282.88 136.05 <
-1 -14 9 0 1188.50 1037.09 258.74 o
-1 -14 9 1 111.86 102.19 98.55 <
-1 -14 9 2 103.46 94.60 82.00 <
0 -14 9 -2 55.08 50.87 45.25 <
0 -14 9 -1 27.68 75.16 71.37 <
0 -14 9 0 2353.79 2162.55 303.69 o
0 -14 9 1 140.70 -31.58 66.36 <
0 -14 9 2 10.35 -116.62 94.14 <
1 -14 9 -2 211.59 164.45 109.93 <
1 -14 9 -1 40.95 118.29 92.17 <
1 -14 9 0 1350.96 1307.67 287.14 o
1 -14 9 1 245.43 316.14 155.03 <
1 -14 9 2 29.93 -113.58 129.22 <
2 -14 9 -2 13.99 100.52 122.69 <
2 -14 9 -1 150.56 -22.32 59.07 <
2 -14 9 0 1137.39 1192.88 430.93 <
2 -14 9 1 50.57 159.74 163.38 <
-2 -13 9 -2 1012.02 462.82 266.79 <
-2 -13 9 -1 1566.86 1936.91 513.99 o
-2 -13 9 0 5096.38 4690.89 813.58 o
-2 -13 9 1 1166.73 731.58 307.03 <
-2 -13 9 2 43.20 60.89 90.50 <
-1 -13 9 -2 26.92 72.73 76.53 <
-1 -13 9 -1 453.28 505.79 192.84 <
-1 -13 9 0 227.85 154.73 99.15 <
-1 -13 9 1 120.33 106.14 70.61 <
-1 -13 9 2 122.07 157.01 86.85 <
0 -13 9 -2 27.60 -24.90 48.44 <
0 -13 9 -1 1304.42 1685.16 266.48 o
0 -13 9 0 27892.00 29054.90 1096.46 o
0 -13 9 1 1358.72 1055.61 207.11 o
0 -13 9 2 80.47 147.29 73.19 <
1 -13 9 -2 10.17 28.24 71.67 <
1 -13 9 -1 131.25 307.33 141.52 <
1 -13 9 0 323.45 231.56 91.41 <
1 -13 9 1 94.78 425.31 290.78 <
1 -13 9 2 37.89 -7.90 44.19 <
2 -13 9 -2 0.54 57.70 90.50 <
2 -13 9 -1 196.45 356.98 221.39 <
2 -13 9 0 4956.15 5104.51 883.73 o
2 -13 9 1 446.45 213.95 185.86 <
-3 -12 9 1 194.30 -365.03 238.70 <
-3 -12 9 2 1.69 14.27 55.73 <
-2 -12 9 -2 16.59 99.91 189.35 <
-2 -12 9 -1 1104.23 1000.49 371.56 <
-2 -12 9 0 39.31 25.36 110.24 <
-2 -12 9 1 105.94 -10.78 57.09 <
-2 -12 9 2 262.51 113.73 122.39 <
-1 -12 9 -2 46.20 29.46 71.37 <
-1 -12 9 -1 114.17 188.44 107.50 <
-1 -12 9 0 1726.94 1768.21 276.36 o
-1 -12 9 1 134.30 151.24 70.46 <
-1 -12 9 2 7.86 80.78 57.70 <
0 -12 9 -2 172.10 112.06 77.29 <
0 -12 9 -1 1306.19 1412.60 232.78 o
0 -12 9 0 626.91 186.01 85.64 <
0 -12 9 1 502.83 399.80 126.33 o
0 -12 9 2 114.63 97.79 62.41 <
1 -12 9 -2 35.35 -27.94 68.48 <
1 -12 9 -1 68.71 -5.62 69.24 <
1 -12 9 0 1729.98 1654.63 487.27 o
1 -12 9 1 78.94 -54.21 91.56 <
1 -12 9 2 69.51 -75.62 109.18 <
2 -12 9 -2 44.95 53.45 57.70 <
2 -12 9 -1 445.17 11.24 45.10 <
2 -12 9 0 158.63 -38.72 78.65 <
2 -12 9 1 277.55 -14.88 55.12 <
2 -12 9 2 194.73 356.83 250.39 <
-3 -11 9 -1 320.29 501.54 312.80 <
-3 -11 9 0 312.56 593.10 296.55 <
-3 -11 9 1 72.52 10.93 51.32 <
-3 -11 9 2 49.86 96.27 120.87 <
-2 -11 9 -2 50.52 72.28 115.40 <
-2 -11 9 -1 1396.56 2073.72 515.66 o
-2 -11 9 0 43.23 -158.52 143.34 <
-2 -11 9 1 30.07 158.22 112.06 <
-2 -11 9 2 25.29 90.95 89.59 <
-1 -11 9 -2 102.52 150.02 76.83 <
-1 -11 9 -1 420.34 330.41 122.39 <
-1 -11 9 0 861.05 1155.83 228.37 o
-1 -11 9 1 612.34 421.06 130.59 o
-1 -11 9 2 54.12 99.61 68.48 <
0 -11 9 -2 0.97 -15.79 30.06 <
0 -11 9 -1 2102.15 2285.54 298.83 o
0 -11 9 0 468.17 396.77 121.63 o
0 -11 9 1 190.92 101.28 63.62 <
0 -11 9 2 96.87 -14.12 85.64 <
1 -11 9 -2 39.91 -289.72 194.97 <
1 -11 9 -1 33.16 -236.88 181.15 <
1 -11 9 0 731.05 902.71 347.57 <
1 -11 9 1 313.31 381.13 233.99 <
1 -11 9 2 136.40 795.81 343.32 <
2 -11 9 -2 42.63 -18.37 52.54 <
2 -11 9 -1 546.84 245.68 235.66 <
2 -11 9 0 35.92 -128.00 136.35 <
2 -11 9 1 287.07 167.33 161.56 <
2 -11 9 2 233.54 6.38 44.49 <
-3 -10 9 -2 166.09 13.36 53.90 <
-3 -10 9 -1 728.04 646.85 330.56 <
-3 -10 9 0 49.30 241.89 254.79 <
-3 -10 9 1 208.84 82.45 111.91 <
-3 -10 9 2 170.65 273.92 194.51 <
-2 -10 9 -2 483.29 301.26 194.36 <
-2 -10 9 -1 22.36 -0.46 25.81 <
-2 -10 9 0 1961.34 1073.68 220.02 o
-2 -10 9 1 44.34 17.16 73.19 <
-2 -10 9 2 51.35 9.72 97.18 <
-1 -10 9 -2 603.82 485.44 146.53 o
-1 -10 9 -1 301.19 322.21 111.76 <
-1 -10 9 0 132.76 104.01 85.18 <
-1 -10 9 1 370.84 169.00 86.55 <
-1 -10 9 2 146.78 153.97 91.11 <
0 -10 9 -2 119.77 124.21 81.24 <
0 -10 9 -1 6.04 -117.38 73.34 <
0 -10 9 0 2446.72 1965.91 272.26 o
0 -10 9 1 22.89 -20.20 36.44 <
0 -10 9 2 16.45 107.66 71.21 <
1 -10 9 -2 233.56 83.97 86.40 <
1 -10 9 -1 576.83 794.75 213.34 o
1 -10 9 0 131.47 84.88 133.01 <
1 -10 9 1 975.91 1240.56 423.95 <
1 -10 9 2 81.72 154.12 150.93 <
2 -10 9 -2 83.75 97.79 81.24 <
2 -10 9 -1 106.11 252.06 206.66 <
2 -10 9 0 1984.59 1241.62 425.77 <
2 -10 9 1 263.55 122.99 123.90 <
2 -10 9 2 263.54 261.02 211.82 <
-3 -9 9 -2 4.52 -129.22 138.94 <
-3 -9 9 -1 145.46 -187.83 178.42 <
-3 -9 9 0 7454.83 8792.17 1106.48 o
-3 -9 9 1 1656.66 1763.20 502.75 o
-3 -9 9 2 35.52 -57.40 89.59 <
-2 -9 9 -2 19.69 -16.40 50.87 <
-2 -9 9 -1 73.48 231.41 159.74 <
-2 -9 9 0 240.49 325.25 126.33 <
-2 -9 9 1 157.12 119.96 82.00 <
-2 -9 9 2 43.15 67.11 81.84 <
-1 -9 9 -2 277.08 56.18 63.93 <
-1 -9 9 -1 8008.46 8260.12 571.84 o
-1 -9 9 0 21278.20 22962.20 970.43 o
-1 -9 9 1 5815.00 5672.71 479.37 o
-1 -9 9 2 8.73 83.67 72.88 <
0 -9 9 -2 33.34 6.68 58.16 <
0 -9 9 -1 484.38 580.65 145.31 o
0 -9 9 0 2002.02 1736.33 320.24 o
0 -9 9 1 747.31 721.26 206.05 o
0 -9 9 2 184.15 78.96 84.73 <
1 -9 9 -2 64.87 -111.61 80.17 <
1 -9 9 -1 70.88 192.54 97.79 <
1 -9 9 0 22313.90 23533.00 1108.61 o
1 -9 9 1 362.30 3.19 34.16 <
1 -9 9 2 17.10 -53.60 126.49 <
2 -9 9 -2 132.90 17.92 59.83 <
2 -9 9 -1 510.94 284.55 204.38 <
2 -9 9 0 319.16 169.15 208.18 <
2 -9 9 1 374.31 353.49 211.37 <
2 -9 9 2 62.83 174.32 135.90 <
-3 -8 9 -2 34.67 23.54 64.38 <
-3 -8 9 -1 171.38 369.43 227.76 <
-3 -8 9 1 329.33 118.44 165.05 <
-3 -8 9 2 116.07 166.12 167.94 <
-2 -8 9 -2 150.98 88.07 103.25 <
-2 -8 9 -1 333.92 214.40 111.61 <
-2 -8 9 0 520.81 415.14 142.12 <
-2 -8 9 1 173.60 -17.16 59.83 <
-2 -8 9 2 148.64 161.71 99.76 <
-1 -8 9 -2 76.46 -32.49 65.75 <
-1 -8 9 -1 122.13 355.46 123.90 <
-1 -8 9 0 1540.75 1410.93 238.39 o
-1 -8 9 1 317.65 326.31 115.55 <
-1 -8 9 2 79.12 -142.73 80.93 <
0 -8 9 -2 40.12 23.84 66.81 <
0 -8 9 -1 485.24 612.08 145.62 o
0 -8 9 0 450.15 161.87 96.27 <
0 -8 9 1 61.70 80.63 76.83 <
0 -8 9 2 206.94 -178.42 164.45 <
1 -8 9 -2 63.42 -144.86 97.79 <
1 -8 9 -1 2.96 -1.67 71.21 <
1 -8 9 0 1705.06 1385.11 265.57 o
1 -8 9 1 763.40 571.99 305.81 <
1 -8 9 2 140.14 264.81 193.15 <
2 -8 9 -2 38.44 -175.68 141.52 <
2 -8 9 -1 90.87 151.39 135.75 <
2 -8 9 0 487.01 668.57 280.91 <
2 -8 9 1 1014.86 1165.24 416.05 <
2 -8 9 2 34.70 -34.77 78.50 <
-3 -7 9 -2 171.06 92.02 176.44 <
-3 -7 9 -1 1618.31 1843.68 492.58 o
-3 -7 9 0 446.99 21.56 59.22 <
-3 -7 9 1 149.53 219.57 188.74 <
-3 -7 9 2 55.09 136.35 128.46 <
-2 -7 9 -2 93.73 134.08 118.89 <
-2 -7 9 -1 168.74 27.79 35.53 <
-2 -7 9 0 1043.44 1157.96 228.52 o
-2 -7 9 1 131.69 2.13 67.27 <
-2 -7 9 2 45.98 -92.93 96.57 <
-1 -7 9 -2 132.64 -119.04 70.15 <
-1 -7 9 -1 10.97 73.64 72.73 <
-1 -7 9 0 1718.61 1428.69 235.51 o
-1 -7 9 1 40.56 -21.41 43.28 <
-1 -7 9 2 131.96 54.66 69.54 <
0 -7 9 -2 7.85 50.41 58.92 <
0 -7 9 -1 366.37 5.31 79.11 <
0 -7 9 0 3792.73 4685.12 492.73 o
0 -7 9 1 140.30 183.43 93.99 <
0 -7 9 2 61.70 -302.02 212.28 <
1 -7 9 -2 11.42 31.28 75.77 <
1 -7 9 -1 415.80 202.71 96.57 <
1 -7 9 0 1457.02 1148.09 225.79 o
1 -7 9 1 218.89 -17.92 54.66 <
1 -7 9 2 101.28 119.04 129.52 <
2 -7 9 -2 130.29 24.60 69.24 <
2 -7 9 -1 224.28 -211.21 159.43 <
2 -7 9 0 1019.65 1186.81 384.47 o
2 -7 9 1 284.26 467.98 247.66 <
2 -7 9 2 131.07 -472.08 272.86 <
-4 -6 9 2 354.51 168.09 157.61 <
-3 -6 9 -2 13.04 -1.37 112.21 <
-3 -6 9 -1 218.62 311.73 199.22 <
-3 -6 9 0 935.57 1516.00 438.52 o
-3 -6 9 1 288.79 644.57 273.77 <
-3 -6 9 2 2.12 17.16 107.35 <
-2 -6 9 -2 33.19 255.10 198.61 <
-2 -6 9 -1 3942.42 4190.57 491.21 o
-2 -6 9 0 3623.45 2484.00 318.11 o
-2 -6 9 1 337.25 87.92 59.37 <
-2 -6 9 2 744.86 605.09 160.80 o
-1 -6 9 -2 35.72 -37.05 49.65 <
-1 -6 9 -1 66.35 4.71 63.17 <
-1 -6 9 0 1567.39 1585.55 254.64 o
-1 -6 9 1 97.89 266.33 101.43 <
-1 -6 9 2 21.21 135.60 87.31 <
0 -6 9 -2 991.35 999.58 229.74 o
0 -6 9 -1 5617.77 5774.75 526.74 o
0 -6 9 0 7495.38 8081.55 638.20 o
0 -6 9 1 893.77 926.24 201.65 o
0 -6 9 2 605.43 452.64 257.37 <
1 -6 9 -2 60.75 22.17 44.19 <
1 -6 9 -1 24.63 -118.13 86.70 <
1 -6 9 0 1528.01 1051.36 388.26 <
1 -6 9 1 921.34 563.49 234.29 <
1 -6 9 2 107.77 733.25 300.80 <
2 -6 9 -2 307.47 147.29 133.01 <
2 -6 9 -1 1487.58 710.02 300.65 <
2 -6 9 0 3615.17 2680.64 592.49 o
2 -6 9 1 482.37 285.46 185.10 <
2 -6 9 2 122.96 188.74 161.87 <
-4 -5 9 1 534.46 564.40 286.53 <
-4 -5 9 2 167.72 -7.59 42.21 <
-3 -5 9 -2 150.10 119.80 62.26 <
-3 -5 9 -1 33.16 14.43 69.85 <
-3 -5 9 0 582.40 346.66 198.76 <
-3 -5 9 1 483.06 383.25 211.97 <
-3 -5 9 2 22.84 2.58 88.22 <
-2 -5 9 -2 1714.03 1196.83 244.77 o
-2 -5 9 -1 620.99 1118.48 250.24 o
-2 -5 9 0 1733.36 1316.78 276.20 o
-2 -5 9 1 1284.66 660.67 176.90 o
-2 -5 9 2 142.53 54.97 62.56 <
-1 -5 9 -2 67.30 10.33 67.87 <
-1 -5 9 -1 782.16 803.55 174.62 o
-1 -5 9 0 1541.00 1494.44 229.74 o
-1 -5 9 1 1974.80 1792.51 256.92 o
-1 -5 9 2 245.72 200.43 96.57 <
0 -5 9 -2 352.94 151.54 69.39 <
0 -5 9 -1 1582.85 1693.20 272.41 o
0 -5 9 0 25006.80 24691.10 1102.69 o
0 -5 9 1 2287.47 2461.83 351.06 o
0 -5 9 2 7.39 -320.39 215.31 <
1 -5 9 -2 142.11 57.55 64.53 <
1 -5 9 -1 471.89 463.12 140.91 o
1 -5 9 0 1756.20 1350.65 422.73 o
1 -5 9 1 2069.08 2639.49 585.81 o
1 -5 9 2 76.96 259.50 213.49 <
2 -5 9 -2 260.11 310.98 202.56 <
2 -5 9 -1 712.05 590.06 293.51 <
2 -5 9 0 2143.24 1958.32 500.63 o
2 -5 9 1 1225.11 1725.09 495.77 o
2 -5 9 2 442.02 578.22 314.47 <
-4 -4 9 1 143.76 -124.51 134.99 <
-4 -4 9 2 57.56 -56.79 73.19 <
-3 -4 9 -2 16.83 73.34 123.45 <
-3 -4 9 -1 354.38 212.12 121.17 <
-3 -4 9 0 18.00 -198.15 151.99 <
-3 -4 9 1 151.98 122.99 66.51 <
-3 -4 9 2 154.40 94.14 120.41 <
-2 -4 9 -2 81.77 218.65 131.65 <
-2 -4 9 -1 137.93 255.86 121.78 <
-2 -4 9 0 1881.70 1758.04 303.38 o
-2 -4 9 1 331.84 223.97 89.89 <
-2 -4 9 2 48.14 105.38 58.61 <
-1 -4 9 -2 44.92 40.69 63.62 <
-1 -4 9 -1 498.56 585.96 150.17 o
-1 -4 9 0 113.29 -119.50 76.98 <
-1 -4 9 1 20.82 29.31 46.01 <
-1 -4 9 2 304.75 215.77 111.76 <
0 -4 9 -2 72.68 -69.70 76.07 <
0 -4 9 -1 418.04 186.46 125.88 <
0 -4 9 0 1992.05 1951.03 307.63 o
0 -4 9 1 423.98 728.39 197.40 o
0 -4 9 2 137.72 -9.11 67.42 <
1 -4 9 -2 81.05 -36.44 60.28 <
1 -4 9 -1 671.50 360.17 137.42 <
1 -4 9 0 195.01 -235.96 171.74 <
1 -4 9 1 101.38 -147.59 139.39 <
1 -4 9 2 134.58 49.20 66.66 <
2 -4 9 -2 44.80 -85.18 141.82 <
2 -4 9 -1 340.90 275.90 228.98 <
2 -4 9 0 1558.32 1585.85 458.26 o
2 -4 9 1 15.13 117.98 127.85 <
2 -4 9 2 374.83 574.88 290.78 <
3 -4 9 2 121.61 538.89 365.33 <
-4 -3 9 0 463.30 127.85 138.79 <
-4 -3 9 1 191.13 119.50 130.74 <
-4 -3 9 2 3.53 370.04 221.84 <
-3 -3 9 -2 1.26 229.74 165.36 <
-3 -3 9 -1 121.80 -2.73 57.70 <
-3 -3 9 0 41.93 20.04 51.47 <
-3 -3 9 1 187.87 220.63 162.02 <
-3 -3 9 2 32.79 204.53 114.79 <
-2 -3 9 -2 401.12 6.23 40.24 <
-2 -3 9 -1 111.53 -12.15 80.32 <
-2 -3 9 0 6526.38 6234.68 577.61 o
-2 -3 9 1 373.59 552.71 155.94 o
-2 -3 9 2 93.25 34.62 77.74 <
-1 -3 9 -2 19.24 -48.13 48.59 <
-1 -3 9 -1 295.51 142.12 70.30 <
-1 -3 9 0 147.51 150.02 77.90 <
-1 -3 9 1 427.26 501.84 155.64 o
-1 -3 9 2 22.88 -36.59 78.81 <
0 -3 9 -2 39.70 29.76 50.11 <
0 -3 9 -1 224.98 556.96 140.91 o
0 -3 9 0 862.86 1306.00 246.74 o
0 -3 9 1 52.56 -46.92 82.30 <
0 -3 9 2 247.86 70.91 161.71 <
1 -3 9 -2 31.43 -64.84 59.37 <
1 -3 9 -1 736.17 489.85 147.14 o
1 -3 9 0 208.82 -85.64 106.14 <
1 -3 9 1 1044.10 955.24 357.29 <
1 -3 9 2 76.52 4.40 52.54 <
2 -3 9 -2 180.57 198.31 178.11 <
2 -3 9 -1 908.90 1360.21 412.10 o
2 -3 9 0 5757.46 5416.85 829.97 o
2 -3 9 1 16.64 -56.94 88.83 <
2 -3 9 2 676.97 491.97 279.39 <
3 -3 9 1 441.87 780.47 390.39 <
3 -3 9 2 15.27 -773.34 421.82 <
-4 -2 9 0 44.56 514.14 271.19 <
-4 -2 9 1 131.09 196.64 165.21 <
-4 -2 9 2 112.05 158.07 145.62 <
-3 -2 9 -2 491.37 698.93 306.42 <
-3 -2 9 -1 2604.74 3012.42 597.35 o
-3 -2 9 0 1716.50 1285.81 370.95 o
-3 -2 9 1 384.27 207.42 116.62 <
-3 -2 9 2 529.07 384.16 158.07 <
-2 -2 9 -2 29.32 27.33 84.12 <
-2 -2 9 -1 1527.69 1629.88 291.08 o
-2 -2 9 0 209.65 256.31 114.19 <
-2 -2 9 1 198.20 215.92 94.14 <
-2 -2 9 2 155.02 63.77 87.92 <
-1 -2 9 -2 1195.53 788.98 150.78 o
-1 -2 9 -1 3431.75 4009.87 365.18 o
-1 -2 9 0 6816.37 6520.60 563.03 o
-1 -2 9 1 377.38 209.85 65.29 o
-1 -2 9 2 588.09 91.71 116.16 <
0 -2 9 -2 273.73 337.40 130.89 <
0 -2 9 -1 1553.49 1556.39 253.73 o
0 -2 9 0 1668.59 1913.07 291.54 o
0 -2 9 1 544.64 836.66 343.92 <
0 -2 9 2 122.30 -32.19 71.82 <
1 -2 9 -2 352.23 221.08 86.85 <
1 -2 9 -1 4314.81 4038.12 722.62 o
1 -2 9 0 6909.26 7246.56 978.78 o
1 -2 9 1 2447.33 2786.17 616.94 o
1 -2 9 2 60.37 -149.26 142.12 <
2 -2 9 -2 16.63 57.85 114.49 <
2 -2 9 -1 12.21 0.46 141.21 <
2 -2 9 0 327.74 401.17 256.31 <
2 -2 9 1 181.75 271.34 137.11 <
2 -2 9 2 640.49 583.84 287.89 <
3 -2 9 0 1651.07 1358.84 490.45 <
3 -2 9 1 30.23 304.60 219.26 <
3 -2 9 2 20.83 -37.96 100.98 <
-4 -1 9 0 413.26 448.85 253.27 <
-4 -1 9 1 247.67 435.49 243.10 <
-4 -1 9 2 7.82 -29.91 65.60 <
-3 -1 9 -2 152.39 179.33 148.20 <
-3 -1 9 -1 139.99 2.28 94.75 <
-3 -1 9 0 660.49 558.17 258.89 <
-3 -1 9 1 146.69 40.69 59.07 <
-3 -1 9 2 70.96 -49.96 73.49 <
-2 -1 9 -2 9.19 -119.96 74.40 <
-2 -1 9 -1 23.04 47.83 96.57 <
-2 -1 9 0 1625.78 1656.46 288.81 o
-2 -1 9 1 1233.80 911.36 216.23 o
-2 -1 9 2 33.94 39.78 72.28 <
-1 -1 9 -2 49.89 21.56 28.85 <
-1 -1 9 -1 7499.11 8298.23 520.82 o
-1 -1 9 0 2708.73 2652.09 352.28 o
-1 -1 9 1 192.68 183.43 97.18 <
-1 -1 9 2 132.24 258.59 190.71 <
0 -1 9 -2 96.44 21.56 26.88 <
0 -1 9 -1 558.57 515.20 152.30 o
0 -1 9 0 3846.86 4236.12 427.59 o
0 -1 9 1 3741.84 3810.96 715.79 o
0 -1 9 2 64.75 238.70 218.50 <
1 -1 9 -2 104.43 -9.57 54.66 <
1 -1 9 -1 923.12 1242.99 425.77 <
1 -1 9 0 2367.08 1907.15 499.11 o
1 -1 9 1 1317.17 1749.54 488.02 o
1 -1 9 2 60.72 100.82 175.68 <
2 -1 9 -2 144.90 127.25 160.80 <
2 -1 9 -1 670.02 187.22 176.44 <
2 -1 9 0 1467.82 1906.09 489.54 o
2 -1 9 1 2510.18 3813.54 713.36 o
2 -1 9 2 8.13 119.20 134.99 <
3 -1 9 -2 257.85 -74.40 96.12 <
3 -1 9 -1 1664.10 1105.72 389.48 <
3 -1 9 0 352.39 628.02 309.15 <
3 -1 9 1 477.76 587.94 364.27 <
3 -1 9 2 55.39 415.75 380.21 <
-4 0 9 0 16.08 -95.96 117.53 <
-4 0 9 1 2.70 189.04 162.02 <
-4 0 9 2 3.15 -38.26 76.23 <
-3 0 9 -2 22.62 68.33 99.31 <
-3 0 9 -1 154.84 90.95 85.34 <
-3 0 9 0 114.75 219.41 152.91 <
-3 0 9 1 5.54 123.90 83.82 <
-3 0 9 2 107.48 56.79 66.20 <
-2 0 9 -2 124.54 -3.34 35.38 <
-2 0 9 -1 126.73 60.28 58.46 <
-2 0 9 0 4.00 7.59 60.74 <
-2 0 9 1 42.04 -19.59 49.50 <
-2 0 9 2 0.25 -79.26 57.70 <
-1 0 9 -2 57.39 9.57 80.02 <
-1 0 9 -1 21.67 -33.10 67.57 <
-1 0 9 0 199.93 -9.26 63.77 <
-1 0 9 1 228.99 -16.40 69.85 <
-1 0 9 2 99.55 -236.72 180.24 <
0 0 9 -2 97.09 -33.56 43.28 <
0 0 9 -1 5.05 -41.30 73.80 <
0 0 9 0 2.07 -178.11 148.65 <
0 0 9 1 48.98 -36.75 84.88 <
0 0 9 2 15.95 -39.02 119.04 <
1 0 9 -2 10.88 -11.08 39.78 <
1 0 9 -1 84.24 -39.78 125.27 <
1 0 9 0 602.40 -93.84 110.39 <
1 0 9 1 446.91 -161.71 146.68 <
1 0 9 2 0.22 75.01 93.23 <
2 0 9 -2 20.21 2.89 97.18 <
2 0 9 -1 114.04 383.56 209.85 <
2 0 9 0 23.75 111.30 111.00 <
2 0 9 1 34.80 14.27 88.22 <
2 0 9 2 39.69 271.19 194.36 <
3 0 9 -2 88.11 -31.58 124.66 <
3 0 9 -1 58.26 -364.73 218.96 <
3 0 9 0 154.43 -185.86 166.57 <
3 0 9 1 45.74 -105.07 134.84 <
3 0 9 2 4.55 98.85 140.30 <
-4 1 9 -1 58.34 -57.09 158.52 <
-4 1 9 0 412.08 324.34 216.68 <
-4 1 9 1 258.72 400.56 233.54 <
-4 1 9 2 8.65 136.20 136.20 <
-3 1 9 -2 146.71 3.64 109.18 <
-3 1 9 -1 142.77 109.78 114.19 <
-3 1 9 0 668.21 320.39 184.64 <
-3 1 9 1 147.31 14.88 47.53 <
-3 1 9 2 66.43 -118.44 104.16 <
-2 1 9 -2 9.46 143.95 87.16 <
-2 1 9 -1 26.22 34.62 62.71 <
-2 1 9 0 1638.33 1333.33 259.50 o
-2 1 9 1 1256.58 1141.41 260.26 o
-2 1 9 2 34.52 -88.22 63.93 <
-1 1 9 -2 46.67 -95.21 72.73 <
-1 1 9 -1 7468.57 8321.01 612.23 o
-1 1 9 0 2681.02 2603.81 353.34 o
-1 1 9 1 203.99 242.80 92.32 <
-1 1 9 2 128.47 -32.04 41.76 <
0 1 9 -2 91.58 46.77 35.68 <
0 1 9 -1 575.11 550.89 133.93 o
0 1 9 0 3887.30 3671.42 667.35 o
0 1 9 1 3783.49 4533.28 757.39 o
0 1 9 2 67.51 54.51 77.44 <
1 1 9 -2 104.19 118.89 157.31 <
1 1 9 -1 913.06 1068.67 389.78 <
1 1 9 0 2322.54 1925.67 500.32 o
1 1 9 1 1339.48 1343.96 427.44 o
1 1 9 2 52.60 -5.01 113.88 <
2 1 9 -2 144.75 51.93 58.16 <
2 1 9 -1 665.07 94.90 107.05 <
2 1 9 0 1484.99 1172.38 378.39 o
2 1 9 1 2499.14 3840.11 707.13 o
2 1 9 2 8.76 217.74 175.38 <
3 1 9 -2 256.08 143.04 156.10 <
3 1 9 -1 1642.29 1307.22 429.56 o
3 1 9 0 362.26 690.28 315.68 <
3 1 9 1 459.97 708.50 336.79 <
3 1 9 2 56.46 121.17 150.32 <
4 1 9 0 501.86 888.74 440.95 <
-4 2 9 0 45.47 -51.02 91.26 <
-4 2 9 1 139.05 -131.50 136.51 <
-4 2 9 2 109.03 111.76 107.66 <
-3 2 9 -2 504.72 274.99 186.62 <
-3 2 9 -1 2619.38 3253.09 612.84 o
-3 2 9 0 1749.16 1513.88 401.47 o
-3 2 9 1 375.42 246.29 131.80 <
-3 2 9 2 533.01 171.28 108.11 <
-2 2 9 -2 39.44 35.53 60.74 <
-2 2 9 -1 1507.13 1703.53 291.08 o
-2 2 9 0 210.13 488.93 170.98 <
-2 2 9 1 202.18 32.95 36.29 <
-2 2 9 2 149.75 -53.30 66.81 <
-1 2 9 -2 1194.78 940.82 145.77 o
-1 2 9 -1 3470.41 3993.02 341.80 o
-1 2 9 0 6838.15 6288.43 514.29 o
-1 2 9 1 383.57 297.46 106.75 <
-1 2 9 2 590.57 206.20 83.82 <
0 2 9 -2 270.44 164.90 73.19 <
0 2 9 -1 1536.69 1604.83 186.31 o
0 2 9 0 1638.55 2037.28 487.27 o
0 2 9 1 556.25 907.11 338.00 <
0 2 9 2 122.61 -163.69 148.05 <
1 2 9 -2 352.18 105.83 146.98 <
1 2 9 -1 4354.99 3887.64 682.99 o
1 2 9 0 6904.60 8499.27 1037.85 o
1 2 9 1 2440.09 2783.59 602.51 o
1 2 9 2 65.53 11.84 46.46 <
2 2 9 -2 18.69 11.69 51.17 <
2 2 9 -1 12.73 -181.15 147.29 <
2 2 9 0 326.43 440.65 236.72 <
2 2 9 1 178.49 268.91 187.53 <
2 2 9 2 649.26 1050.45 400.71 <
3 2 9 -2 79.48 24.60 58.00 <
3 2 9 -1 687.11 737.96 336.79 <
3 2 9 0 1667.14 1673.31 524.47 o
3 2 9 1 25.49 28.39 70.46 <
3 2 9 2 23.99 22.93 71.67 <
4 2 9 -1 25.79 180.85 181.45 <
4 2 9 0 86.05 273.17 247.35 <
-4 3 9 0 446.50 173.25 158.98 <
-4 3 9 1 191.99 265.27 191.32 <
-4 3 9 2 4.21 144.55 180.85 <
-3 3 9 -2 1.52 305.36 225.34 <
-3 3 9 -1 127.27 194.51 149.41 <
-3 3 9 0 47.42 29.76 87.01 <
-3 3 9 1 179.63 314.47 141.37 <
-3 3 9 2 33.73 101.89 83.21 <
-2 3 9 -2 395.09 158.68 68.18 <
-2 3 9 -1 119.67 126.03 78.65 <
-2 3 9 0 6593.19 6241.21 564.25 o
-2 3 9 1 384.92 297.31 114.94 <
-2 3 9 2 97.89 1.37 56.79 <
-1 3 9 -2 16.15 73.95 59.37 <
-1 3 9 -1 284.65 355.62 104.47 o
-1 3 9 0 152.22 84.27 63.77 <
-1 3 9 1 433.20 496.98 242.04 <
-1 3 9 2 24.87 24.60 59.52 <
0 3 9 -2 41.44 29.31 46.46 <
0 3 9 -1 210.38 406.79 86.85 o
0 3 9 0 835.64 1111.04 358.65 o
0 3 9 1 61.33 -7.59 39.33 <
0 3 9 2 235.87 -151.84 141.06 <
1 3 9 -2 32.81 -0.76 24.60 <
1 3 9 -1 742.25 510.80 239.00 <
1 3 9 0 215.32 70.30 146.68 <
1 3 9 1 1059.55 1125.61 380.21 <
1 3 9 2 78.34 349.70 224.27 <
2 3 9 -2 182.97 -97.64 108.11 <
2 3 9 -1 914.83 1249.21 401.47 o
2 3 9 0 5796.80 7326.28 962.23 o
2 3 9 1 17.41 368.22 220.93 <
2 3 9 2 680.86 491.21 280.91 <
3 3 9 -2 68.42 61.50 87.77 <
3 3 9 -1 441.08 33.86 69.70 <
3 3 9 0 69.64 -84.27 110.39 <
3 3 9 1 461.01 354.25 242.80 <
3 3 9 2 15.18 -19.44 67.42 <
4 3 9 -2 169.29 155.18 160.35 <
4 3 9 -1 397.03 269.07 186.46 <
4 3 9 0 271.78 377.63 266.03 <
4 3 9 1 39.74 -34.01 89.13 <
-4 4 9 0 410.12 221.69 180.39 <
-4 4 9 1 149.96 211.21 171.89 <
-4 4 9 2 56.34 99.76 116.46 <
-3 4 9 -2 16.94 -48.89 81.39 <
-3 4 9 -1 351.67 382.49 234.90 <
-3 4 9 0 19.13 115.25 112.82 <
-3 4 9 1 152.24 228.07 114.49 <
-3 4 9 2 156.24 199.07 129.22 <
-2 4 9 -2 80.80 97.03 75.47 <
-2 4 9 -1 135.83 73.49 42.06 <
-2 4 9 0 1920.00 1453.90 267.40 o
-2 4 9 1 331.90 230.04 87.92 <
-2 4 9 2 46.26 45.25 97.03 <
-1 4 9 -2 42.85 63.32 27.03 <
-1 4 9 -1 475.03 406.18 110.54 o
-1 4 9 0 113.39 -7.59 50.11 <
-1 4 9 1 22.42 49.35 79.11 <
-1 4 9 2 305.39 193.15 150.02 <
0 4 9 -2 68.86 13.67 31.28 <
0 4 9 -1 407.80 144.40 83.82 <
0 4 9 0 2079.04 1818.93 284.71 o
0 4 9 1 451.21 979.69 338.00 <
0 4 9 2 135.03 -42.67 76.23 <
1 4 9 -2 81.14 114.79 141.21 <
1 4 9 -1 648.62 237.18 179.02 <
1 4 9 0 195.91 -155.49 136.66 <
1 4 9 1 111.15 36.75 74.10 <
1 4 9 2 139.13 322.97 207.27 <
2 4 9 -2 47.68 152.75 166.27 <
2 4 9 -1 338.99 186.77 160.35 <
2 4 9 0 1584.17 1732.53 471.17 o
2 4 9 1 20.29 200.89 153.51 <
2 4 9 2 368.90 392.21 214.71 <
3 4 9 -2 45.34 176.74 146.38 <
3 4 9 -1 140.80 171.58 148.96 <
3 4 9 0 44.32 205.29 168.55 <
3 4 9 1 727.75 1203.66 424.25 <
3 4 9 2 109.56 -122.23 143.34 <
4 4 9 -2 24.62 191.63 166.72 <
4 4 9 -1 214.07 118.13 140.15 <
4 4 9 0 322.97 165.81 173.86 <
4 4 9 1 67.77 317.50 248.87 <
5 4 9 -2 7.79 -69.54 121.02 <
-4 5 9 0 1178.02 631.06 303.99 <
-4 5 9 1 535.96 609.20 302.32 <
-4 5 9 2 162.87 29.31 64.84 <
-3 5 9 -2 151.25 211.06 117.38 <
-3 5 9 -1 33.24 133.17 125.42 <
-3 5 9 0 596.59 951.75 326.01 <
-3 5 9 1 475.97 636.53 254.49 <
-3 5 9 2 22.96 157.01 123.90 <
-2 5 9 -2 1714.71 1448.28 218.20 o
-2 5 9 -1 612.06 909.39 182.21 o
-2 5 9 0 1752.29 1133.36 200.59 o
-2 5 9 1 1281.29 502.60 153.06 o
-1 5 9 -2 63.62 152.45 90.04 <
-1 5 9 -1 767.04 1115.14 230.35 o
-1 5 9 0 1557.23 1352.16 198.31 o
-1 5 9 1 1962.42 1451.77 283.49 o
-1 5 9 2 247.57 93.54 129.98 <
0 5 9 -2 348.19 126.49 39.78 o
0 5 9 -1 1564.51 1934.18 301.26 o
0 5 9 0 24734.70 24796.60 1090.54 o
0 5 9 1 2303.06 2169.99 507.61 o
0 5 9 2 10.59 -241.89 172.65 <
1 5 9 -2 142.36 -6.53 33.41 <
1 5 9 -1 458.35 276.51 171.28 <
1 5 9 0 1774.76 2153.29 495.92 o
1 5 9 1 2061.61 2536.24 559.69 o
1 5 9 2 71.50 -6.23 117.38 <
2 5 9 -2 263.15 -129.67 119.80 <
2 5 9 -1 712.73 1053.34 354.40 <
2 5 9 0 2192.68 1793.12 488.78 o
2 5 9 1 1221.71 1293.70 412.10 o
2 5 9 2 449.36 755.57 332.54 <
3 5 9 -2 224.83 100.82 41.00 <
3 5 9 -1 696.33 168.85 138.94 <
3 5 9 0 747.31 435.18 244.77 <
3 5 9 1 1134.44 1518.58 469.04 o
3 5 9 2 115.92 25.05 40.54 <
4 5 9 -2 91.89 -213.04 172.65 <
4 5 9 -1 208.02 383.25 242.65 <
4 5 9 0 1607.68 1191.97 446.11 <
-4 6 9 1 136.19 1.97 27.48 <
-4 6 9 2 349.51 -22.93 60.28 <
-3 6 9 -2 14.18 -33.25 95.05 <
-3 6 9 -1 209.58 509.28 178.57 <
-3 6 9 0 927.84 904.07 310.37 <
-3 6 9 1 287.32 219.87 150.63 <
-3 6 9 2 2.15 264.36 161.11 <
-2 6 9 -2 28.85 184.03 85.34 <
-2 6 9 -1 3909.92 3345.41 339.67 o
-2 6 9 0 3675.89 2428.58 291.84 o
-2 6 9 1 333.67 119.80 41.45 <
-1 6 9 -2 36.21 60.43 82.30 <
-1 6 9 -1 71.25 15.94 32.19 <
-1 6 9 0 1548.54 1364.01 246.90 o
-1 6 9 1 94.67 351.06 157.31 <
-1 6 9 2 20.80 160.80 85.79 <
0 6 9 -2 1011.38 925.33 212.73 o
0 6 9 -1 5568.72 6187.91 552.25 o
0 6 9 0 7571.20 8239.47 640.02 o
0 6 9 1 877.63 1067.61 232.02 o
0 6 9 2 591.96 701.97 287.44 <
1 6 9 -2 63.95 255.10 113.28 <
1 6 9 -1 23.73 -17.01 80.93 <
1 6 9 0 1499.18 1564.59 423.95 o
1 6 9 1 914.21 938.85 347.57 <
1 6 9 2 109.04 246.59 156.40 <
2 6 9 -2 299.55 270.13 148.65 <
2 6 9 -1 1486.02 896.79 323.12 <
2 6 9 0 3655.98 3487.23 678.28 o
2 6 9 1 472.33 575.49 285.77 <
2 6 9 2 108.11 302.32 209.24 <
3 6 9 -2 75.78 146.23 161.71 <
3 6 9 -1 297.37 -68.03 96.88 <
3 6 9 0 814.41 680.11 307.18 <
3 6 9 1 142.19 21.11 61.34 <
3 6 9 2 12.48 -206.35 183.12 <
4 6 9 -2 129.76 -95.21 116.77 <
4 6 9 -1 361.38 97.79 123.30 <
-4 7 9 1 29.75 -68.18 101.74 <
-4 7 9 2 114.51 -8.81 45.86 <
-3 7 9 -2 174.44 92.02 91.56 <
-3 7 9 -1 1606.84 2078.43 379.76 o
-3 7 9 0 445.86 100.37 97.94 <
-3 7 9 1 152.19 171.13 41.45 o
-3 7 9 2 55.28 -185.25 136.96 <
-2 7 9 -2 107.73 69.09 53.90 <
-2 7 9 -1 162.18 43.73 92.32 <
-2 7 9 0 1047.96 993.36 194.97 o
-2 7 9 1 131.03 -44.95 54.21 <
-1 7 9 -2 132.51 49.35 78.20 <
-1 7 9 -1 25.46 -130.13 134.84 <
-1 7 9 0 1762.84 1565.96 436.24 o
-1 7 9 1 38.80 -5.01 84.12 <
-1 7 9 2 131.71 241.73 117.07 <
0 7 9 -2 9.93 38.26 70.76 <
0 7 9 -1 348.08 99.91 95.81 <
0 7 9 0 3788.87 4286.99 468.59 o
0 7 9 1 146.92 125.57 94.14 <
0 7 9 2 64.29 191.63 148.05 <
1 7 9 -2 13.25 -86.85 82.30 <
1 7 9 -1 408.25 282.12 167.03 <
1 7 9 0 1494.70 1086.13 342.56 o
1 7 9 1 238.92 302.47 199.52 <
1 7 9 2 114.16 370.50 216.23 <
2 7 9 -2 128.57 -210.91 148.65 <
2 7 9 -1 229.85 -41.60 142.73 <
2 7 9 0 1032.92 951.45 353.04 <
2 7 9 1 275.54 102.04 75.16 <
2 7 9 2 142.33 26.57 157.61 <
3 7 9 -2 22.16 30.06 100.82 <
3 7 9 -1 85.36 247.35 180.24 <
3 7 9 0 286.81 -37.20 76.07 <
3 7 9 1 758.53 1271.69 442.62 <
4 7 9 -2 78.43 255.55 187.83 <
-4 8 9 1 381.14 224.73 181.60 <
-4 8 9 2 75.90 -100.67 119.80 <
-3 8 9 -2 36.58 58.31 101.28 <
-3 8 9 -1 168.57 523.86 193.15 <
-3 8 9 0 662.36 187.07 122.39 <
-3 8 9 1 335.53 49.20 108.26 <
-3 8 9 2 116.49 192.08 134.08 <
-2 8 9 -2 151.49 121.47 85.18 <
-2 8 9 -1 338.34 331.93 128.31 <
-2 8 9 0 511.88 -8.96 188.89 <
-2 8 9 1 172.81 -122.23 140.15 <
-2 8 9 2 145.30 137.87 145.16 <
-1 8 9 -2 86.09 -126.64 140.30 <
-1 8 9 -1 107.93 139.54 144.71 <
-1 8 9 0 1493.05 1156.13 382.49 o
-1 8 9 1 301.27 471.62 292.75 <
-1 8 9 2 80.20 117.68 116.01 <
0 8 9 -2 40.50 70.61 81.84 <
0 8 9 -1 494.27 388.72 123.30 o
0 8 9 0 474.05 305.20 123.14 <
0 8 9 1 66.75 208.63 121.32 <
0 8 9 2 211.22 269.22 159.74 <
1 8 9 -2 63.23 -154.42 86.40 <
1 8 9 -1 1.61 -54.06 73.34 <
1 8 9 0 1643.69 1730.10 434.73 o
1 8 9 1 723.03 738.72 288.20 <
1 8 9 2 139.81 176.29 132.86 <
2 8 9 -2 38.94 11.69 39.02 <
2 8 9 -1 94.20 -109.93 111.45 <
2 8 9 0 485.71 254.95 114.34 <
2 8 9 1 989.55 937.18 361.39 <
2 8 9 2 48.73 346.20 221.24 <
3 8 9 -2 13.51 113.28 118.59 <
3 8 9 -1 59.37 6.07 84.27 <
3 8 9 0 698.25 534.03 274.23 <
-3 9 9 -2 3.87 -94.60 130.74 <
-3 9 9 -1 153.83 -66.20 111.45 <
-3 9 9 0 7422.22 7360.14 1152.03 o
-3 9 9 1 1617.11 1307.67 478.76 <
-2 9 9 -2 24.22 -95.36 126.18 <
-2 9 9 -1 70.64 128.91 146.83 <
-2 9 9 0 233.52 253.27 206.81 <
-2 9 9 1 158.18 135.44 152.15 <
-2 9 9 2 48.80 106.75 132.56 <
-1 9 9 -2 276.25 249.63 219.41 <
-1 9 9 -1 7894.71 9385.88 1210.19 o
-1 9 9 0 21172.90 24166.80 1901.08 o
-1 9 9 1 5753.26 6752.16 976.20 o
-1 9 9 2 8.50 186.77 158.37 <
0 9 9 -2 30.29 -75.16 101.58 <
0 9 9 -1 485.79 887.07 228.07 o
0 9 9 0 2013.36 1788.41 317.05 o
0 9 9 1 770.40 633.79 181.60 o
0 9 9 2 197.23 6.38 64.84 <
1 9 9 -2 67.67 -41.30 46.92 <
1 9 9 -1 73.40 -87.77 86.55 <
1 9 9 0 22251.50 23303.40 1536.80 o
1 9 9 1 345.71 359.26 213.19 <
1 9 9 2 16.93 -213.64 159.59 <
2 9 9 -2 134.00 151.54 151.84 <
2 9 9 -1 528.10 413.62 207.11 <
2 9 9 0 306.18 148.05 131.34 <
2 9 9 1 383.40 779.87 330.11 <
2 9 9 2 71.26 148.81 144.40 <
3 9 9 -2 24.49 74.40 95.05 <
3 9 9 -1 136.81 -205.60 162.02 <
-3 10 9 -2 165.80 327.83 248.26 <
-3 10 9 -1 722.09 658.85 351.36 <
-3 10 9 0 53.65 147.44 190.71 <
-3 10 9 1 205.63 -255.55 220.02 <
-2 10 9 -2 463.64 737.05 344.08 <
-2 10 9 -1 21.39 82.45 122.99 <
-2 10 9 0 1944.25 1524.35 537.37 <
-2 10 9 1 44.37 16.40 64.53 <
-1 10 9 -2 595.33 240.82 204.99 <
-1 10 9 -1 327.07 657.33 329.04 <
-1 10 9 0 135.13 143.64 137.72 <
-1 10 9 1 376.76 332.54 222.75 <
-1 10 9 2 144.31 85.94 112.67 <
0 10 9 -2 118.22 189.50 157.46 <
0 10 9 -1 7.94 0.91 174.62 <
0 10 9 0 2447.05 2148.43 359.41 o
0 10 9 1 22.06 5.31 26.88 <
0 10 9 2 16.54 176.44 101.13 <
1 10 9 -2 227.98 63.01 56.64 <
1 10 9 -1 603.47 922.90 226.70 o
1 10 9 0 126.29 -211.67 143.04 <
1 10 9 1 995.33 994.72 324.64 o
1 10 9 2 81.85 -24.60 56.33 <
2 10 9 -2 84.76 139.24 112.67 <
2 10 9 -1 104.45 11.39 44.79 <
2 10 9 0 1962.82 1696.54 420.91 o
2 10 9 1 261.87 459.63 234.29 <
-3 11 9 -2 12.44 183.43 193.15 <
-3 11 9 -1 326.36 742.82 380.82 <
-3 11 9 0 308.66 350.45 268.76 <
-3 11 9 1 73.44 77.59 127.25 <
-3 11 9 2 50.48 42.67 98.70 <
-2 11 9 -2 53.82 -354.25 259.65 <
-2 11 9 -1 1379.62 1157.65 468.44 <
-2 11 9 0 59.53 27.48 80.32 <
-2 11 9 1 26.79 -219.41 206.35 <
-2 11 9 2 25.47 227.92 202.56 <
-1 11 9 -2 100.72 -51.32 103.25 <
-1 11 9 -1 402.14 329.04 142.12 <
-1 11 9 0 852.51 1898.34 570.93 o
-1 11 9 1 593.29 349.70 253.12 <
-1 11 9 2 57.58 31.28 73.04 <
0 11 9 -2 2.38 -48.59 90.65 <
0 11 9 -1 2095.39 2198.99 564.10 o
0 11 9 0 445.99 862.32 353.95 <
0 11 9 1 179.21 159.74 99.31 <
0 11 9 2 91.41 222.45 117.07 <
1 11 9 -2 42.01 -116.77 85.34 <
1 11 9 -1 31.33 100.37 85.79 <
1 11 9 0 733.30 1150.82 315.53 o
1 11 9 1 289.02 436.40 210.00 <
1 11 9 2 136.65 327.22 188.44 <
2 11 9 -2 42.94 63.62 83.97 <
2 11 9 -1 548.34 192.69 135.29 <
-3 12 9 -2 11.71 -238.85 228.22 <
-3 12 9 -1 35.51 -235.81 229.28 <
-3 12 9 0 872.05 598.11 359.26 <
-3 12 9 1 197.98 326.61 265.73 <
-3 12 9 2 1.74 -0.76 37.35 <
-2 12 9 -2 12.55 -75.77 129.83 <
-2 12 9 -1 1138.84 1064.42 500.78 <
-2 12 9 0 45.09 133.17 169.00 <
-2 12 9 1 107.55 -154.12 176.29 <
-2 12 9 2 262.49 239.30 213.49 <
-1 12 9 -2 44.79 -22.17 76.53 <
-1 12 9 -1 123.72 29.61 157.61 <
-1 12 9 0 1729.12 2057.93 595.83 o
-1 12 9 1 138.95 117.53 163.23 <
-1 12 9 2 9.10 -85.64 121.02 <
0 12 9 -2 173.16 198.91 181.91 <
0 12 9 -1 1374.25 1879.06 562.43 o
0 12 9 0 693.86 338.91 257.53 <
0 12 9 1 500.03 491.67 271.34 <
0 12 9 2 125.06 -10.02 83.82 <
1 12 9 -2 35.97 28.39 75.62 <
1 12 9 -1 68.00 -34.16 73.95 <
1 12 9 0 1731.45 1167.83 320.24 o
1 12 9 1 100.05 120.41 107.50 <
-3 13 9 -2 174.16 102.49 160.20 <
-3 13 9 -1 18.35 -48.29 112.82 <
-3 13 9 0 193.25 -204.99 218.96 <
-3 13 9 1 26.74 -382.95 299.43 <
-3 13 9 2 48.93 835.90 436.09 <
-2 13 9 -2 998.37 618.30 367.16 <
-2 13 9 -1 1587.23 1717.19 630.15 <
-2 13 9 0 5062.15 3967.21 942.64 o
-2 13 9 1 1161.47 634.10 361.84 <
-2 13 9 2 41.12 -265.88 229.74 <
-1 13 9 -2 30.53 417.57 291.54 <
-1 13 9 -1 441.62 640.47 355.92 <
-1 13 9 0 222.32 283.95 221.69 <
-1 13 9 1 120.57 274.38 221.54 <
-1 13 9 2 119.12 39.33 87.77 <
0 13 9 -2 26.32 -186.46 180.69 <
0 13 9 -1 1324.74 1596.78 553.32 <
0 13 9 0 27713.20 31866.40 2308.02 o
0 13 9 1 1361.22 1512.36 500.93 o
0 13 9 2 77.31 147.14 178.42 <
1 13 9 -2 9.66 -44.79 142.12 <
1 13 9 -1 129.74 420.30 166.12 <
-3 14 9 1 25.19 288.05 266.18 <
-3 14 9 2 91.05 -36.90 103.40 <
-2 14 9 -2 139.58 -30.82 98.39 <
-2 14 9 -1 17.99 83.82 146.83 <
-2 14 9 0 958.73 1139.58 523.10 <
-2 14 9 1 41.28 -335.27 271.19 <
-2 14 9 2 26.09 -85.94 136.81 <
-1 14 9 -2 83.30 183.73 198.91 <
-1 14 9 -1 36.45 217.29 212.73 <
-1 14 9 0 1188.31 1469.23 523.25 <
-1 14 9 1 107.55 -171.13 181.30 <
-1 14 9 2 95.09 60.59 108.57 <
0 14 9 -2 53.17 96.72 100.22 <
0 14 9 -1 33.70 -193.15 187.53 <
0 14 9 0 2363.96 2520.14 669.17 o
0 14 9 1 140.01 -68.48 158.83 <
0 14 9 2 13.58 130.89 188.89 <
1 14 9 -2 209.45 425.01 263.60 <
1 14 9 -1 49.10 131.95 151.84 <
-2 15 9 -2 272.18 1263.49 592.64 <
-2 15 9 -1 43.78 -97.18 163.23 <
-2 15 9 0 1474.95 1467.26 608.74 <
-2 15 9 1 5.26 53.75 116.92 <
-2 15 9 2 75.54 215.16 218.81 <
-1 15 9 -2 125.41 7.44 55.42 <
-1 15 9 -1 431.85 683.75 398.13 <
-1 15 9 0 487.83 1032.69 455.83 <
-1 15 9 1 86.08 -27.94 82.00 <
-1 15 9 2 25.40 -273.92 229.28 <
0 15 9 -2 109.00 117.22 179.18 <
0 15 9 -1 648.19 600.54 271.65 <
0 15 9 0 211.60 -3.64 80.63 <
1 15 9 -2 8.50 51.02 102.65 <
1 15 9 -1 702.13 617.24 327.68 <
1 15 9 0 629.32 291.54 229.74 <
-2 16 9 -2 329.17 684.05 428.05 <
-2 16 9 -1 43.22 -3.49 58.31 <
-2 16 9 0 939.00 451.28 335.27 <
-2 16 9 1 14.58 262.84 251.76 <
-2 16 9 2 113.98 -111.61 161.41 <
-1 16 9 -2 398.11 249.48 242.19 <
-1 16 9 -1 1197.58 931.71 444.60 <
-1 16 9 0 1769.84 1751.66 605.55 <
-1 16 9 1 15.40 -231.41 219.41 <
-1 16 9 2 291.20 694.83 372.17 <
0 16 9 -2 125.73 8.05 54.21 <
0 16 9 -1 8.90 -13.21 62.56 <
0 16 9 0 1270.00 525.38 340.58 <
0 16 9 1 80.20 -53.75 107.20 <
0 16 9 2 96.93 -24.60 76.23 <
1 16 9 -2 212.55 -154.27 175.99 <
1 16 9 -1 1182.97 796.87 468.59 <
1 16 9 0 1472.61 1116.05 460.69 <
-1 17 9 -2 30.61 179.63 180.69 <
-1 17 9 -1 4762.41 5809.67 1177.39 o
-1 17 9 0 252.16 218.50 289.57 <
-1 17 9 1 56.43 282.28 248.87 <
-1 17 9 2 82.57 -39.18 95.21 <
0 17 9 -2 30.28 -228.68 222.75 <
0 17 9 0 498.54 619.37 355.46 <
0 17 9 1 116.50 82.30 132.10 <
1 17 9 -2 69.77 75.62 129.83 <
1 17 9 -1 342.10 285.01 139.39 <
1 17 9 0 230.15 303.53 186.01 <
0 18 9 -2 83.45 -53.45 111.76 <
0 18 9 -1 21.73 159.74 187.37 <
1 18 9 -2 37.40 -71.52 127.40 <
1 18 9 -1 173.45 798.39 412.41 <
0 -18 10 -1 1002.46 767.57 318.42 <
1 -18 10 -2 161.04 -79.87 73.34 <
1 -18 10 -1 19.34 -79.72 107.81 <
0 -17 10 -2 4.08 192.54 117.38 <
0 -17 10 -1 25.39 -45.86 95.51 <
0 -17 10 0 1593.27 1902.44 347.11 o
0 -17 10 1 137.28 210.76 170.06 <
1 -17 10 -2 28.29 -39.63 50.56 <
1 -17 10 -1 12.21 -152.60 97.64 <
2 -17 10 -2 33.25 408.15 258.13 <
-1 -16 10 -2 260.02 328.44 226.25 <
-1 -16 10 -1 151.42 -29.61 74.10 <
-1 -16 10 0 758.02 1584.79 479.82 o
-1 -16 10 1 226.01 179.48 160.20 <
-1 -16 10 2 40.55 152.30 145.77 <
0 -16 10 -2 28.25 82.45 109.02 <
0 -16 10 -1 30.68 110.85 99.31 <
0 -16 10 0 97.91 196.03 112.36 <
0 -16 10 1 55.02 -65.90 67.72 <
1 -16 10 -2 9.77 -37.20 50.56 <
1 -16 10 -1 378.91 282.58 114.64 <
1 -16 10 0 568.10 499.26 190.11 <
1 -16 10 1 22.91 128.91 170.37 <
2 -16 10 -2 41.71 -216.38 185.10 <
2 -16 10 -1 97.46 -126.49 144.71 <
-1 -15 10 -2 66.39 49.96 90.95 <
-1 -15 10 -1 226.90 184.03 136.20 <
-1 -15 10 0 94.09 71.82 117.53 <
-1 -15 10 1 1728.43 1611.97 334.36 o
-1 -15 10 2 176.27 52.69 84.27 <
0 -15 10 -2 4.73 -186.16 108.87 <
0 -15 10 -1 28.24 30.06 64.69 <
0 -15 10 0 1056.36 1026.46 252.21 o
0 -15 10 1 16.91 23.99 86.40 <
0 -15 10 2 17.01 -129.67 107.96 <
1 -15 10 -2 35.73 394.34 138.18 <
1 -15 10 -1 701.55 799.61 180.85 o
1 -15 10 0 58.51 365.64 163.84 <
1 -15 10 1 428.56 350.45 169.30 <
1 -15 10 2 10.23 345.44 213.95 <
2 -15 10 -2 85.69 -130.89 115.10 <
2 -15 10 -1 167.61 -420.45 259.04 <
-2 -14 10 -1 406.38 367.92 241.73 <
-2 -14 10 0 2924.41 2757.17 660.67 o
-2 -14 10 1 103.33 49.50 92.17 <
-2 -14 10 2 90.40 -59.67 98.09 <
-1 -14 10 -2 32.27 244.62 251.00 <
-1 -14 10 -1 511.89 1040.43 267.55 o
-1 -14 10 0 141.93 327.07 148.35 <
-1 -14 10 1 53.99 169.30 115.70 <
-1 -14 10 2 8.41 -176.74 107.20 <
0 -14 10 -2 460.43 742.06 213.34 o
0 -14 10 -1 300.48 158.98 128.16 <
0 -14 10 0 1863.25 1597.09 266.48 o
0 -14 10 1 83.86 109.02 86.70 <
0 -14 10 2 44.51 153.21 110.09 <
1 -14 10 -2 29.33 -77.14 60.89 <
1 -14 10 -1 713.57 888.74 196.33 o
1 -14 10 0 181.31 114.19 83.82 <
1 -14 10 1 206.32 28.39 99.61 <
1 -14 10 2 127.43 182.06 93.69 <
2 -14 10 -2 613.50 -39.33 81.24 <
2 -14 10 -1 48.61 61.34 101.58 <
2 -14 10 0 3221.11 3110.81 723.08 o
-2 -13 10 -2 131.68 91.11 122.39 <
-2 -13 10 -1 57.62 202.86 167.63 <
-2 -13 10 0 610.80 284.55 205.60 <
-2 -13 10 1 473.81 240.98 186.31 <
-2 -13 10 2 130.88 36.75 73.95 <
-1 -13 10 -2 2.46 -203.62 136.66 <
-1 -13 10 -1 55.35 -154.73 102.19 <
-1 -13 10 0 196.92 248.72 131.95 <
-1 -13 10 1 586.59 539.20 160.50 o
-1 -13 10 2 228.05 -29.31 94.60 <
0 -13 10 -2 90.81 -41.91 76.38 <
0 -13 10 -1 127.23 59.22 123.60 <
0 -13 10 0 2088.22 2221.47 312.95 o
0 -13 10 1 359.53 298.83 105.53 <
0 -13 10 2 190.48 96.27 134.53 <
1 -13 10 -2 19.11 165.51 86.70 <
1 -13 10 -1 86.62 -8.35 57.09 <
1 -13 10 0 191.67 -9.41 107.50 <
1 -13 10 1 130.99 160.20 182.82 <
1 -13 10 2 108.25 -67.11 109.93 <
2 -13 10 -2 26.83 111.15 127.85 <
2 -13 10 -1 57.98 -23.69 122.69 <
2 -13 10 0 452.52 517.18 288.81 <
-2 -12 10 -2 272.85 117.53 114.94 <
-2 -12 10 -1 946.38 862.16 338.31 <
-2 -12 10 0 112.22 139.24 141.82 <
-2 -12 10 1 34.39 59.98 94.14 <
-2 -12 10 2 40.38 379.91 213.79 <
-1 -12 10 -2 49.85 -242.34 125.57 <
-1 -12 10 -1 22.34 40.09 46.62 <
-1 -12 10 0 214.62 168.39 96.88 <
-1 -12 10 1 38.80 -46.16 73.64 <
-1 -12 10 2 102.31 153.06 88.07 <
0 -12 10 -2 153.89 95.05 65.75 <
0 -12 10 -1 2831.03 2294.81 307.03 o
0 -12 10 0 732.64 1238.28 236.88 o
0 -12 10 1 9.21 -2.13 49.20 <
0 -12 10 2 86.83 58.92 86.25 <
1 -12 10 -2 44.72 -10.78 70.46 <
1 -12 10 -1 70.93 149.72 126.64 <
1 -12 10 0 283.31 -82.75 117.68 <
1 -12 10 1 316.70 13.21 50.56 <
1 -12 10 2 57.22 348.48 241.13 <
2 -12 10 -2 15.64 165.51 153.97 <
2 -12 10 -1 1898.00 779.41 348.78 <
2 -12 10 0 107.16 155.03 157.92 <
-2 -11 10 -2 32.13 -43.28 147.59 <
-2 -11 10 -1 249.88 122.39 112.82 <
-2 -11 10 0 500.33 380.67 173.71 <
-2 -11 10 1 656.50 643.82 221.54 <
-2 -11 10 2 179.10 138.63 94.45 <
-1 -11 10 -2 41.14 -69.70 93.84 <
-1 -11 10 -1 136.24 31.58 63.62 <
-1 -11 10 0 4999.71 5325.14 484.38 o
-1 -11 10 1 19.55 26.27 68.94 <
-1 -11 10 2 221.55 276.20 96.12 <
0 -11 10 -2 45.41 30.98 50.87 <
0 -11 10 -1 110.40 0.15 59.67 <
0 -11 10 0 733.96 785.94 187.68 o
0 -11 10 1 863.64 1262.58 297.76 o
0 -11 10 2 88.56 120.87 93.99 <
1 -11 10 -2 31.09 72.88 93.99 <
1 -11 10 -1 18.14 25.51 79.72 <
1 -11 10 0 4759.00 4733.86 858.22 o
1 -11 10 1 98.43 4.86 35.23 <
1 -11 10 2 83.68 -24.75 69.09 <
2 -11 10 -2 7.35 254.03 232.93 <
2 -11 10 -1 100.89 -51.32 43.73 <
2 -11 10 0 351.82 260.41 183.73 <
2 -11 10 1 575.21 863.53 364.88 <
-3 -10 10 1 220.49 25.05 67.72 <
-3 -10 10 2 131.71 309.00 197.55 <
-2 -10 10 -2 40.48 -248.87 181.30 <
-2 -10 10 -1 243.05 371.41 218.96 <
-2 -10 10 0 1414.10 1357.48 257.37 o
-2 -10 10 1 82.18 152.60 103.86 <
-2 -10 10 2 16.11 -130.13 104.62 <
-1 -10 10 -2 106.19 140.91 87.16 <
-1 -10 10 -1 86.51 92.47 76.83 <
-1 -10 10 0 5796.51 5794.94 507.00 o
-1 -10 10 1 218.70 258.59 105.68 <
-1 -10 10 2 143.29 279.09 116.92 <
0 -10 10 -2 194.98 106.44 85.49 <
0 -10 10 -1 760.37 819.04 180.85 o
0 -10 10 0 324.87 406.03 126.79 o
0 -10 10 1 194.35 314.47 162.17 <
0 -10 10 2 211.60 246.29 160.35 <
1 -10 10 -2 535.12 432.15 157.01 <
1 -10 10 -1 1793.20 1564.29 292.15 o
1 -10 10 0 5974.71 5569.76 927.91 o
1 -10 10 1 586.99 554.84 264.81 <
1 -10 10 2 10.59 5.47 40.85 <
2 -10 10 -2 49.46 -168.70 151.54 <
2 -10 10 -1 717.64 674.18 326.16 <
2 -10 10 0 754.52 490.00 311.73 <
2 -10 10 1 15.16 92.17 127.70 <
-3 -9 10 -1 359.41 881.15 341.80 <
-3 -9 10 0 1009.71 782.30 304.75 <
-3 -9 10 1 106.48 -121.02 132.26 <
-3 -9 10 2 35.46 -21.26 60.13 <
-2 -9 10 -2 1.89 -106.44 117.07 <
-2 -9 10 -1 107.20 37.96 72.73 <
-2 -9 10 0 18.23 46.77 61.04 <
-2 -9 10 1 727.98 496.83 157.92 o
-2 -9 10 2 199.91 -123.90 98.24 <
-1 -9 10 -2 60.87 -57.70 80.02 <
-1 -9 10 -1 133.53 88.37 70.91 <
-1 -9 10 0 2509.23 2719.51 343.17 o
-1 -9 10 1 33.51 -53.60 67.87 <
-1 -9 10 2 131.27 193.15 91.26 <
0 -9 10 -2 40.40 -117.07 81.69 <
0 -9 10 -1 123.60 181.30 69.85 <
0 -9 10 0 63.15 57.70 61.95 <
0 -9 10 1 614.16 372.02 283.04 <
0 -9 10 2 214.74 -6.68 44.19 <
1 -9 10 -2 69.51 75.62 61.65 <
1 -9 10 -1 1.67 59.07 95.66 <
1 -9 10 0 2811.09 2413.55 608.13 o
1 -9 10 1 37.71 212.28 181.15 <
1 -9 10 2 184.19 146.98 152.15 <
2 -9 10 -2 49.89 -73.64 101.13 <
2 -9 10 -1 163.43 168.55 191.02 <
2 -9 10 0 53.66 -133.93 143.04 <
2 -9 10 1 362.02 298.98 221.54 <
-3 -8 10 -2 69.18 390.08 238.24 <
-3 -8 10 -1 1792.27 1800.56 510.04 o
-3 -8 10 0 153.32 62.71 95.51 <
-3 -8 10 1 4.59 -172.34 152.45 <
-3 -8 10 2 108.68 187.68 95.66 <
-2 -8 10 -2 113.19 -89.44 153.06 <
-2 -8 10 -1 270.96 401.02 147.14 <
-2 -8 10 0 26.66 -17.01 47.07 <
-2 -8 10 1 281.67 163.99 106.75 <
-2 -8 10 2 110.06 69.54 66.20 <
-1 -8 10 -2 162.88 -30.06 77.44 <
-1 -8 10 -1 211.08 100.67 75.01 <
-1 -8 10 0 561.86 354.40 119.96 <
-1 -8 10 1 111.87 53.90 59.37 <
-1 -8 10 2 87.77 8.81 114.03 <
0 -8 10 -2 87.51 54.66 72.43 <
0 -8 10 -1 137.64 3.49 52.69 <
0 -8 10 0 133.90 387.20 146.98 <
0 -8 10 1 167.44 -42.82 158.22 <
0 -8 10 2 69.50 -174.47 170.37 <
1 -8 10 -2 52.99 58.61 62.56 <
1 -8 10 -1 5374.31 4876.29 840.60 o
1 -8 10 0 563.14 395.10 226.70 <
1 -8 10 1 718.97 520.22 285.31 <
1 -8 10 2 5.96 21.87 65.14 <
2 -8 10 -2 18.32 -230.95 172.95 <
2 -8 10 -1 46.83 314.32 202.41 <
2 -8 10 0 51.45 -102.04 125.27 <
2 -8 10 1 150.31 189.04 174.16 <
2 -8 10 2 577.20 273.47 271.19 <
3 -8 10 -1 1669.21 1483.05 518.70 <
3 -8 10 0 122.46 443.08 308.55 <
-3 -7 10 -2 46.39 167.79 155.49 <
-3 -7 10 -1 35.79 309.61 204.68 <
-3 -7 10 0 67.65 91.87 131.34 <
-3 -7 10 1 262.05 538.74 270.43 <
-3 -7 10 2 97.01 -64.84 74.71 <
-2 -7 10 -2 194.43 301.11 181.60 <
-2 -7 10 -1 987.38 1083.70 264.97 o
-2 -7 10 0 1538.52 1166.31 227.76 o
-2 -7 10 1 222.58 -83.67 95.81 <
-2 -7 10 2 481.10 324.94 124.36 <
-1 -7 10 -2 39.39 -25.05 49.05 <
-1 -7 10 -1 1960.06 2571.92 325.40 o
-1 -7 10 0 234.22 177.05 85.49 <
-1 -7 10 1 391.33 449.00 136.51 o
-1 -7 10 2 86.22 -174.92 114.49 <
0 -7 10 -2 133.44 157.01 101.13 <
0 -7 10 -1 135.30 50.11 39.48 <
0 -7 10 0 20.64 2.73 22.02 <
0 -7 10 1 1334.58 903.62 373.99 <
0 -7 10 2 433.26 313.86 213.79 <
1 -7 10 -2 13.09 22.78 62.10 <
1 -7 10 -1 416.79 217.74 103.10 <
1 -7 10 0 291.32 -91.41 116.46 <
1 -7 10 1 901.90 518.39 272.26 <
1 -7 10 2 11.37 4.56 36.59 <
2 -7 10 -2 12.32 392.67 222.60 <
2 -7 10 -1 9.03 99.15 116.31 <
2 -7 10 0 1582.45 1269.41 427.14 <
2 -7 10 1 1722.46 2528.95 624.53 o
2 -7 10 2 556.48 601.15 321.76 <
3 -7 10 -1 515.33 865.51 391.60 <
3 -7 10 0 51.68 -51.32 49.50 <
-3 -6 10 -2 60.03 -406.33 236.42 <
-3 -6 10 -1 28.79 -38.26 75.16 <
-3 -6 10 0 213.97 121.93 125.88 <
-3 -6 10 1 293.02 37.96 73.49 <
-3 -6 10 2 66.19 -67.42 112.67 <
-2 -6 10 -2 353.99 481.49 172.95 <
-2 -6 10 -1 414.24 709.41 216.53 o
-2 -6 10 0 1702.41 2335.96 332.69 o
-2 -6 10 1 402.96 447.63 141.21 o
-2 -6 10 2 29.30 79.72 69.24 <
-1 -6 10 -2 161.32 87.16 40.54 <
-1 -6 10 -1 2041.85 1976.54 282.58 o
-1 -6 10 0 395.18 418.93 132.41 o
-1 -6 10 1 322.24 121.78 82.15 <
-1 -6 10 2 21.39 105.23 141.82 <
0 -6 10 -2 39.67 -140.46 90.35 <
0 -6 10 -1 535.03 386.59 135.44 <
0 -6 10 0 411.76 791.71 351.97 <
0 -6 10 1 344.20 258.89 200.74 <
0 -6 10 2 28.30 157.46 161.26 <
1 -6 10 -2 163.90 200.59 114.94 <
1 -6 10 -1 2238.79 2363.74 573.66 o
1 -6 10 0 360.46 202.71 169.30 <
1 -6 10 1 1505.37 1322.55 433.66 o
1 -6 10 2 271.13 345.75 228.22 <
2 -6 10 -2 99.90 99.15 28.55 o
2 -6 10 -1 182.94 -223.06 172.34 <
2 -6 10 0 1666.49 1984.13 532.67 o
2 -6 10 1 185.55 224.88 186.16 <
2 -6 10 2 25.66 323.43 235.05 <
3 -6 10 -2 16.87 -72.13 108.11 <
3 -6 10 -1 1416.56 1731.47 549.67 o
3 -6 10 0 157.45 155.79 179.33 <
-3 -5 10 -2 61.32 53.15 88.52 <
-3 -5 10 -1 29.72 61.34 80.17 <
-3 -5 10 0 40.86 -243.86 174.32 <
-3 -5 10 1 198.66 101.28 111.61 <
-3 -5 10 2 30.55 -24.29 49.20 <
-2 -5 10 -2 104.19 150.32 96.12 <
-2 -5 10 -1 217.73 222.91 126.49 <
-2 -5 10 0 10702.80 11710.90 843.18 o
-2 -5 10 1 1803.54 1369.32 260.87 o
-2 -5 10 2 16.19 119.04 79.26 <
-1 -5 10 -2 10.43 34.01 52.99 <
-1 -5 10 -1 530.34 763.47 178.87 o
-1 -5 10 0 90.86 29.15 79.57 <
-1 -5 10 1 240.99 293.36 105.68 <
-1 -5 10 2 0.97 -164.45 165.66 <
0 -5 10 -2 161.85 -7.59 61.95 <
0 -5 10 -1 67.78 90.65 77.14 <
0 -5 10 0 24531.30 29986.90 2114.11 o
0 -5 10 1 1262.55 1229.02 431.08 <
0 -5 10 2 94.49 2.13 167.33 <
1 -5 10 -2 8.38 -104.16 84.88 <
1 -5 10 -1 214.01 462.97 277.57 <
1 -5 10 0 103.74 -269.52 196.33 <
1 -5 10 1 1155.65 1347.76 443.08 o
1 -5 10 2 92.42 -144.71 148.65 <
2 -5 10 -2 76.37 134.84 131.19 <
2 -5 10 -1 158.60 120.11 58.16 <
2 -5 10 0 10777.60 10966.30 1245.27 o
2 -5 10 1 71.25 365.64 234.75 <
2 -5 10 2 1.10 14.43 72.28 <
3 -5 10 -2 26.67 62.26 140.61 <
3 -5 10 -1 256.63 462.51 310.52 <
3 -5 10 0 12.62 281.52 314.77 <
-3 -4 10 -2 69.64 -227.76 172.80 <
-3 -4 10 -1 1142.08 1227.80 395.70 o
-3 -4 10 0 1453.97 930.65 351.21 <
-3 -4 10 1 510.90 599.02 210.15 <
-3 -4 10 2 79.74 -24.75 56.03 <
-2 -4 10 -2 1414.34 1565.35 310.98 o
-2 -4 10 -1 1405.76 1743.46 318.57 o
-2 -4 10 0 141.43 40.54 82.00 <
-2 -4 10 1 25.84 42.21 47.83 <
-2 -4 10 2 96.99 122.54 82.15 <
-1 -4 10 -2 190.00 -70.15 76.38 <
-1 -4 10 -1 1139.72 1115.90 203.17 o
-1 -4 10 0 6052.43 6332.16 499.11 o
-1 -4 10 1 1970.52 2096.04 339.67 o
-1 -4 10 2 80.44 372.32 217.74 <
0 -4 10 -2 41.46 78.65 98.24 <
0 -4 10 -1 2253.50 2717.08 368.52 o
0 -4 10 0 1610.48 1635.96 518.54 o
0 -4 10 1 71.04 137.72 198.46 <
0 -4 10 2 129.89 247.81 197.09 <
1 -4 10 -2 237.30 122.54 171.74 <
1 -4 10 -1 634.66 486.96 273.01 <
1 -4 10 0 5743.17 6762.18 988.20 o
1 -4 10 1 233.25 340.74 242.34 <
1 -4 10 2 16.59 -29.31 68.94 <
2 -4 10 -2 0.60 17.77 65.14 <
2 -4 10 -1 1206.59 1167.52 391.45 <
2 -4 10 0 88.52 267.40 192.54 <
2 -4 10 1 370.89 701.97 321.76 <
2 -4 10 2 373.47 421.52 271.80 <
3 -4 10 -2 303.82 -14.27 54.36 <
3 -4 10 -1 7.92 143.04 155.03 <
3 -4 10 0 1342.10 999.73 401.32 <
3 -4 10 1 1460.45 3164.11 841.67 o
-3 -3 10 -2 334.13 371.86 225.03 <
-3 -3 10 -1 1363.58 1266.52 386.74 o
-3 -3 10 0 106.68 83.67 84.42 <
-3 -3 10 1 155.93 242.19 131.80 <
-3 -3 10 2 223.41 73.34 73.19 <
-2 -3 10 -2 142.20 97.48 99.31 <
-2 -3 10 -1 653.41 831.95 233.99 o
-2 -3 10 0 524.28 324.64 122.23 <
-2 -3 10 1 778.59 544.21 157.31 o
-2 -3 10 2 143.85 -70.46 62.41 <
-1 -3 10 -2 47.79 -0.76 53.75 <
-1 -3 10 -1 136.17 -80.32 81.08 <
-1 -3 10 0 227.53 313.86 124.82 <
-1 -3 10 1 1760.56 1665.11 488.78 o
-1 -3 10 2 727.40 768.02 362.60 <
0 -3 10 -2 125.85 134.53 96.57 <
0 -3 10 -1 1671.50 2312.88 340.89 o
0 -3 10 0 6750.60 6987.97 1009.45 o
0 -3 10 1 108.87 -1.06 42.36 <
0 -3 10 2 14.17 8.81 44.49 <
1 -3 10 -2 103.66 124.97 123.75 <
1 -3 10 -1 388.05 295.33 228.07 <
1 -3 10 0 401.03 697.11 306.88 <
1 -3 10 1 418.89 478.91 289.11 <
1 -3 10 2 392.33 535.25 282.73 <
2 -3 10 -2 54.83 163.84 117.98 <
2 -3 10 -1 793.13 688.91 323.12 <
2 -3 10 0 471.95 982.27 394.49 <
2 -3 10 1 71.94 299.74 127.70 <
2 -3 10 2 155.91 514.14 285.62 <
3 -3 10 -2 118.86 -85.94 112.06 <
3 -3 10 -1 12.96 -266.03 204.99 <
3 -3 10 0 161.63 -122.69 150.48 <
3 -3 10 1 1895.48 2786.32 770.91 o
-4 -2 10 2 120.94 85.18 110.09 <
-3 -2 10 -2 3.22 -154.12 140.15 <
-3 -2 10 -1 74.71 141.52 130.89 <
-3 -2 10 0 111.81 239.00 166.72 <
-3 -2 10 1 247.98 277.11 139.54 <
-3 -2 10 2 113.04 1.97 89.74 <
-2 -2 10 -2 424.96 166.12 102.65 <
-2 -2 10 -1 604.67 400.11 162.32 <
-2 -2 10 0 107.49 -75.31 82.30 <
-2 -2 10 1 305.70 184.64 109.78 <
-2 -2 10 2 94.32 32.49 80.02 <
-1 -2 10 -2 57.59 170.67 71.67 <
-1 -2 10 -1 1676.79 1195.76 208.18 o
-1 -2 10 0 111.75 69.09 69.85 <
-1 -2 10 1 99.00 94.75 122.84 <
-1 -2 10 2 85.47 3.19 31.58 <
0 -2 10 -2 299.27 322.82 124.36 <
0 -2 10 -1 2519.51 2610.79 331.17 o
0 -2 10 0 1914.15 1109.37 396.77 <
0 -2 10 1 295.98 298.07 198.76 <
0 -2 10 2 91.85 -14.27 54.36 <
1 -2 10 -2 57.13 53.15 133.17 <
1 -2 10 -1 408.47 560.00 284.86 <
1 -2 10 0 96.09 -35.68 74.86 <
1 -2 10 1 483.90 241.73 121.78 <
1 -2 10 2 71.66 160.80 176.44 <
2 -2 10 -2 142.04 295.33 190.41 <
2 -2 10 -1 2726.71 2927.69 631.36 o
2 -2 10 0 370.59 -23.23 61.95 <
2 -2 10 1 132.56 -72.58 106.29 <
2 -2 10 2 317.26 114.19 136.51 <
3 -2 10 -2 6.72 119.96 170.37 <
3 -2 10 -1 725.37 944.62 381.89 <
3 -2 10 0 167.07 66.20 65.75 <
3 -2 10 1 92.19 123.14 44.49 <
4 -2 10 -1 1047.56 1332.27 615.42 <
-4 -1 10 2 4.88 9.72 45.40 <
-3 -1 10 -2 70.11 88.98 107.20 <
-3 -1 10 -1 194.36 178.42 111.61 <
-3 -1 10 0 5044.67 5486.25 789.89 o
-3 -1 10 1 1756.78 1511.14 316.74 o
-3 -1 10 2 73.42 69.24 123.30 <
-2 -1 10 -2 69.81 -84.42 77.74 <
-2 -1 10 -1 360.36 19.74 91.71 <
-2 -1 10 0 112.22 3.80 60.59 <
-2 -1 10 1 96.46 -26.12 59.98 <
-2 -1 10 2 205.41 176.44 120.41 <
-1 -1 10 -2 305.77 262.84 120.11 <
-1 -1 10 -1 1562.67 1506.44 239.00 o
-1 -1 10 0 15289.00 15629.80 900.13 o
-1 -1 10 1 2275.58 2592.87 629.09 o
-1 -1 10 2 55.89 -123.14 139.54 <
0 -1 10 -2 46.92 -62.56 61.04 <
0 -1 10 -1 214.29 136.66 176.44 <
0 -1 10 0 2274.89 1371.90 453.71 o
0 -1 10 1 374.52 205.75 173.71 <
0 -1 10 2 213.27 79.87 195.42 <
1 -1 10 -2 27.58 -139.70 137.11 <
1 -1 10 -1 299.24 84.27 108.11 <
1 -1 10 0 15661.50 18074.30 1613.18 o
1 -1 10 1 79.62 -15.34 52.23 <
1 -1 10 2 4.55 -44.64 84.58 <
2 -1 10 -2 78.62 -213.79 163.38 <
2 -1 10 -1 74.31 261.32 260.87 <
2 -1 10 0 274.88 -114.49 126.49 <
2 -1 10 1 148.55 -92.02 117.68 <
2 -1 10 2 258.81 310.98 220.48 <
3 -1 10 -2 9.72 -270.58 190.11 <
3 -1 10 -1 107.34 37.35 80.63 <
3 -1 10 0 5190.90 6547.93 1054.10 o
3 -1 10 1 5.23 -65.90 114.94 <
4 -1 10 -2 53.63 -164.75 184.64 <
4 -1 10 -1 120.90 143.49 188.59 <
-4 0 10 2 152.76 -165.96 151.69 <
-3 0 10 -2 31.18 35.53 110.39 <
-3 0 10 -1 1556.99 2642.68 556.96 o
-3 0 10 0 301.61 830.43 293.97 <
-3 0 10 1 6.35 50.11 84.42 <
-3 0 10 2 45.81 220.17 108.42 <
-2 0 10 -2 8.39 186.16 102.04 <
-2 0 10 -1 3137.17 3122.65 409.22 o
-2 0 10 0 5755.51 5987.94 583.08 o
-2 0 10 1 1593.95 1590.86 303.23 o
-2 0 10 2 165.58 55.42 81.24 <
-1 0 10 -2 35.38 150.63 78.50 <
-1 0 10 -1 494.91 203.32 118.29 <
-1 0 10 0 90.17 277.11 128.61 <
-1 0 10 1 0.08 -11.69 86.10 <
-1 0 10 2 43.46 158.07 156.85 <
0 0 10 -2 524.41 606.16 165.66 o
0 0 10 -1 2854.09 3040.96 637.29 o
0 0 10 0 14987.90 16940.10 1551.53 o
0 0 10 1 1882.93 1719.78 520.52 o
0 0 10 2 73.12 158.07 53.75 <
1 0 10 -2 20.34 119.50 85.79 <
1 0 10 -1 1180.00 1567.93 464.18 o
1 0 10 0 50.39 304.45 176.29 <
1 0 10 1 511.45 826.48 337.55 <
1 0 10 2 742.61 715.48 324.49 <
2 0 10 -2 487.40 -24.14 60.43 <
2 0 10 -1 441.53 77.74 146.38 <
2 0 10 0 5749.10 6784.50 977.11 o
2 0 10 1 2400.22 2434.20 590.97 o
2 0 10 2 481.79 259.50 164.90 <
3 0 10 -2 1.44 -107.81 121.78 <
3 0 10 -1 92.56 326.61 176.74 <
3 0 10 0 166.52 485.75 255.55 <
3 0 10 1 178.57 486.20 297.01 <
4 0 10 -2 301.00 -116.46 151.99 <
4 0 10 -1 110.59 179.93 211.67 <
-4 1 10 2 4.17 315.38 206.81 <
-3 1 10 -2 70.61 18.68 54.66 <
-3 1 10 -1 202.02 111.61 117.07 <
-3 1 10 0 5130.46 5944.66 819.19 o
-3 1 10 1 1787.47 1764.72 345.29 o
-3 1 10 2 72.35 244.32 137.11 <
-2 1 10 -2 64.81 179.78 99.46 <
-2 1 10 -1 344.42 98.39 63.77 <
-2 1 10 0 96.85 -74.40 95.51 <
-2 1 10 1 96.44 72.88 109.93 <
-2 1 10 2 204.47 214.40 119.96 <
-1 1 10 -2 292.73 292.15 96.57 o
-1 1 10 -1 1577.02 1744.83 294.58 o
-1 1 10 0 15292.00 17235.60 1539.84 o
-1 1 10 1 2296.38 2417.19 600.99 o
-1 1 10 2 54.42 -124.66 137.27 <
0 1 10 -2 44.42 28.55 93.54 <
0 1 10 -1 217.80 -3.80 81.24 <
0 1 10 0 2297.68 2079.19 523.55 o
0 1 10 1 367.30 144.10 138.63 <
0 1 10 2 201.24 -233.08 186.01 <
1 1 10 -2 27.94 -42.36 55.27 <
1 1 10 -1 305.13 -67.11 170.37 <
1 1 10 0 15564.50 15975.90 1501.58 o
1 1 10 1 59.32 25.51 65.75 <
1 1 10 2 4.67 -0.46 88.83 <
2 1 10 -2 78.83 -294.42 193.45 <
2 1 10 -1 72.45 29.31 78.20 <
2 1 10 0 247.85 2.73 36.29 <
2 1 10 1 157.58 225.34 255.25 <
2 1 10 2 250.71 24.75 66.96 <
3 1 10 -2 9.45 -3.49 104.32 <
3 1 10 -1 104.36 62.71 137.42 <
3 1 10 0 5232.04 5710.52 960.10 o
3 1 10 1 8.50 444.75 280.76 <
4 1 10 -2 55.42 -75.01 119.65 <
4 1 10 -1 118.80 6.23 49.05 <
-4 2 10 2 122.74 77.29 158.37 <
-3 2 10 -2 2.68 122.39 160.80 <
-3 2 10 -1 90.28 459.63 234.60 <
-3 2 10 0 109.95 9.41 39.78 <
-3 2 10 1 244.91 527.20 192.08 <
-3 2 10 2 116.62 22.78 114.79 <
-2 2 10 -2 415.48 150.32 82.75 <
-2 2 10 -1 609.27 664.77 193.45 o
-2 2 10 0 98.17 46.01 74.10 <
-2 2 10 1 307.39 128.76 110.54 <
-2 2 10 2 91.77 104.32 102.04 <
-1 2 10 -2 58.90 114.03 74.56 <
-1 2 10 -1 1667.71 1426.26 257.22 o
-1 2 10 0 98.06 -32.49 70.76 <
-1 2 10 1 109.95 -135.44 137.57 <
-1 2 10 2 90.01 -46.16 84.58 <
0 2 10 -2 297.16 365.94 196.64 <
0 2 10 -1 2524.94 2305.28 541.17 o
0 2 10 0 1924.52 1332.58 422.28 o
0 2 10 1 319.41 237.03 182.36 <
0 2 10 2 95.68 -79.57 110.85 <
1 2 10 -2 56.69 -27.48 50.26 <
1 2 10 -1 422.75 736.74 314.32 <
1 2 10 0 86.27 138.33 159.59 <
1 2 10 1 517.14 591.43 306.27 <
1 2 10 2 79.17 303.38 184.95 <
2 2 10 -2 145.56 414.23 229.59 <
2 2 10 -1 2700.81 2760.66 613.75 o
2 2 10 0 356.57 152.75 146.53 <
2 2 10 1 142.70 41.45 80.78 <
2 2 10 2 312.86 42.97 82.60 <
3 2 10 -2 5.64 236.27 283.49 <
3 2 10 -1 717.17 493.04 317.66 <
3 2 10 0 161.73 383.86 218.81 <
3 2 10 1 83.46 -302.47 227.31 <
3 2 10 2 17.20 470.56 297.31 <
4 2 10 -2 6.72 339.67 240.67 <
4 2 10 -1 1024.05 1161.90 467.98 <
-4 3 10 2 132.50 -176.29 155.64 <
-3 3 10 -2 325.63 367.76 200.89 <
-3 3 10 -1 1369.72 1183.92 382.19 o
-3 3 10 0 108.18 277.27 195.27 <
-3 3 10 1 163.53 478.61 179.33 <
-3 3 10 2 226.37 273.17 133.17 <
-2 3 10 -2 144.65 127.40 88.07 <
-2 3 10 -1 664.95 496.98 165.21 o
-2 3 10 0 514.70 252.67 116.31 <
-2 3 10 1 765.09 452.80 260.41 <
-2 3 10 2 140.12 243.40 192.84 <
-1 3 10 -2 50.37 -120.87 87.16 <
-1 3 10 -1 108.93 58.61 83.21 <
-1 3 10 0 226.12 179.93 197.55 <
-1 3 10 1 1778.14 1667.69 473.60 o
-1 3 10 2 738.57 805.53 342.86 <
0 3 10 -2 126.93 176.44 91.11 <
0 3 10 -1 1715.30 1690.47 442.77 o
0 3 10 0 6764.84 6222.53 905.74 o
0 3 10 1 99.57 -193.45 163.08 <
0 3 10 2 15.08 -75.16 107.35 <
1 3 10 -2 105.89 -36.75 50.72 <
1 3 10 -1 389.08 266.33 183.58 <
1 3 10 0 395.98 437.31 243.10 <
1 3 10 1 420.45 629.84 298.98 <
1 3 10 2 374.35 540.41 294.27 <
2 3 10 -2 58.52 240.06 175.68 <
2 3 10 -1 783.46 845.61 335.73 <
2 3 10 0 470.05 317.66 226.70 <
2 3 10 1 79.10 47.38 86.70 <
2 3 10 2 155.38 -108.11 164.29 <
3 3 10 -2 118.34 61.34 93.54 <
3 3 10 -1 13.82 -93.38 117.07 <
3 3 10 0 158.88 246.90 195.57 <
3 3 10 1 1874.15 3199.18 763.16 o
3 3 10 2 27.36 -83.67 125.73 <
4 3 10 -2 91.01 -42.82 86.10 <
4 3 10 -1 321.30 118.89 149.11 <
-4 4 10 2 153.57 -12.75 52.39 <
-3 4 10 -2 69.28 44.64 78.05 <
-3 4 10 -1 1142.11 1345.79 400.71 o
-3 4 10 0 1449.60 1385.42 399.65 o
-3 4 10 1 514.49 650.65 266.03 <
-3 4 10 2 81.58 -302.77 222.75 <
-2 4 10 -2 1430.62 1246.63 254.64 o
-2 4 10 -1 1406.66 1137.15 241.13 o
-2 4 10 0 115.61 -155.64 102.80 <
-2 4 10 1 27.53 -59.37 44.64 <
-2 4 10 2 102.94 67.72 104.62 <
-1 4 10 -2 193.35 226.85 133.17 <
-1 4 10 -1 1160.33 1255.14 238.85 o
-1 4 10 0 6061.81 6512.71 913.03 o
-1 4 10 1 1952.87 1664.66 494.55 o
-1 4 10 2 81.78 385.83 224.88 <
0 4 10 -2 39.47 144.10 73.49 <
0 4 10 -1 2254.13 2858.30 589.76 o
0 4 10 0 1632.54 1497.78 447.33 o
0 4 10 1 65.79 -27.18 121.17 <
0 4 10 2 131.16 61.65 177.51 <
1 4 10 -2 240.08 24.60 72.28 <
1 4 10 -1 648.60 751.93 291.84 <
1 4 10 0 5774.38 6705.39 952.21 o
1 4 10 1 240.42 387.96 233.38 <
1 4 10 2 20.69 -231.87 186.62 <
2 4 10 -2 0.46 12.75 110.39 <
2 4 10 -1 1210.81 880.84 343.92 <
2 4 10 0 83.71 52.54 25.21 <
2 4 10 1 369.68 526.74 278.63 <
2 4 10 2 376.40 430.93 298.98 <
3 4 10 -2 306.47 -54.82 89.89 <
3 4 10 -1 7.85 -52.08 148.35 <
3 4 10 0 1340.12 901.65 382.34 <
3 4 10 1 1456.21 2384.24 640.02 o
3 4 10 2 38.61 -70.61 113.88 <
4 4 10 -2 0.65 -227.61 189.96 <
4 4 10 -1 777.65 454.92 281.36 <
4 4 10 0 90.76 145.47 169.61 <
-4 5 10 2 8.68 -101.43 119.04 <
-3 5 10 -2 61.08 -7.59 37.81 <
-3 5 10 -1 22.43 -201.65 155.18 <
-3 5 10 0 38.28 68.03 102.49 <
-3 5 10 1 202.74 285.46 173.86 <
-2 5 10 -2 109.43 122.84 102.49 <
-2 5 10 -1 213.39 122.99 81.08 <
-2 5 10 0 10791.20 11366.80 959.50 o
-2 5 10 1 1822.95 1191.82 426.38 <
-1 5 10 -2 10.40 72.58 49.20 <
-1 5 10 0 77.34 25.36 184.34 <
-1 5 10 1 243.10 276.51 227.01 <
-1 5 10 2 1.16 -48.74 82.91 <
0 5 10 -2 156.03 -95.05 77.59 <
0 5 10 -1 64.77 163.54 90.35 <
0 5 10 0 24569.50 26510.60 1818.78 o
0 5 10 1 1292.66 1990.21 507.46 o
0 5 10 2 95.17 86.70 70.00 <
1 5 10 -2 9.69 -254.18 169.61 <
1 5 10 -1 215.44 131.34 127.40 <
1 5 10 0 89.17 -79.72 36.90 <
1 5 10 1 1135.29 1232.81 1262.12 <
1 5 10 2 90.58 -0.46 30.67 <
2 5 10 -2 78.62 -155.34 140.91 <
2 5 10 -1 156.21 212.88 163.69 <
2 5 10 0 10758.40 10859.40 1257.11 o
2 5 10 1 83.00 259.65 216.53 <
2 5 10 2 1.06 -12.75 100.98 <
3 5 10 -2 26.76 219.57 171.89 <
3 5 10 -1 251.71 330.87 202.41 <
3 5 10 0 12.87 -30.37 71.82 <
3 5 10 1 117.52 574.73 305.81 <
3 5 10 2 5.49 -134.53 154.27 <
4 5 10 -2 117.66 309.00 217.74 <
4 5 10 -1 193.22 209.24 188.59 <
4 5 10 0 2520.50 1355.50 494.25 <
-3 6 10 -2 59.08 -60.74 89.89 <
-3 6 10 -1 32.02 -145.47 133.47 <
-3 6 10 0 216.54 92.62 103.71 <
-3 6 10 1 291.93 -148.65 127.70 <
-2 6 10 -2 345.61 116.77 104.77 <
-2 6 10 -1 408.22 518.39 173.86 <
-2 6 10 0 1658.39 786.24 345.75 <
-2 6 10 1 403.62 122.39 138.18 <
-1 6 10 -2 169.17 80.63 74.71 <
-1 6 10 -1 2066.34 2664.39 577.16 o
-1 6 10 1 292.72 553.77 262.08 <
-1 6 10 2 20.73 343.77 209.85 <
0 6 10 -2 38.92 -40.54 91.41 <
0 6 10 -1 535.61 585.51 177.81 o
0 6 10 0 364.44 562.58 169.00 o
0 6 10 1 333.43 102.19 62.71 <
0 6 10 2 25.31 82.45 140.46 <
1 6 10 -2 164.96 -44.95 30.67 <
1 6 10 -1 2262.78 2478.38 549.82 o
1 6 10 0 343.18 227.31 168.09 <
1 6 10 1 1502.64 1145.66 402.08 <
1 6 10 2 285.01 237.33 204.08 <
2 6 10 -2 100.38 90.35 137.87 <
2 6 10 -1 177.26 53.60 32.49 <
2 6 10 0 1618.89 2316.06 572.45 o
2 6 10 1 184.15 93.69 119.80 <
2 6 10 2 22.29 -199.52 177.51 <
3 6 10 -2 17.17 -2.73 72.13 <
3 6 10 -1 1450.39 1383.59 473.45 <
3 6 10 0 155.87 -40.39 81.69 <
3 6 10 1 13.56 142.12 153.21 <
3 6 10 2 102.92 411.49 266.03 <
4 6 10 -2 142.56 209.85 179.33 <
4 6 10 -1 32.59 -59.67 101.58 <
-3 7 10 -2 44.06 216.98 169.91 <
-3 7 10 -1 44.65 419.54 177.51 <
-3 7 10 0 65.84 177.96 143.95 <
-2 7 10 -2 203.88 190.11 104.62 <
-2 7 10 -1 985.12 1377.37 340.58 o
-2 7 10 1 223.26 -85.18 116.62 <
-1 7 10 -2 42.18 27.33 52.39 <
-1 7 10 -1 1956.92 2979.01 625.29 o
-1 7 10 1 372.99 467.07 270.74 <
-1 7 10 2 88.60 -24.60 59.98 <
0 7 10 -2 138.08 -16.70 42.52 <
0 7 10 -1 142.61 262.08 118.44 <
0 7 10 0 51.43 19.89 51.47 <
0 7 10 1 1361.24 1416.70 1169.04 <
0 7 10 2 441.09 363.06 217.14 <
1 7 10 -2 13.93 -9.87 38.11 <
1 7 10 -1 406.88 479.22 244.32 <
1 7 10 0 260.16 -35.23 111.76 <
1 7 10 1 897.72 992.45 401.93 <
1 7 10 2 10.99 -113.88 129.67 <
2 7 10 -2 12.08 -91.41 106.14 <
2 7 10 -1 10.14 25.05 62.86 <
2 7 10 0 1577.93 1434.46 448.70 o
2 7 10 1 1733.80 2502.68 609.50 o
2 7 10 2 550.93 747.22 347.72 <
3 7 10 -2 195.51 -60.74 92.62 <
3 7 10 -1 520.31 455.23 255.10 <
3 7 10 0 43.76 102.65 191.32 <
3 7 10 1 41.45 -41.60 49.96 <
-3 8 10 -2 66.74 561.06 288.96 <
-3 8 10 -1 1777.75 2315.61 533.88 o
-3 8 10 0 161.30 -110.54 116.01 <
-2 8 10 -2 111.73 31.13 117.83 <
-2 8 10 -1 283.46 336.03 174.16 <
-1 8 10 -2 159.26 72.73 108.87 <
-1 8 10 -1 229.73 12.00 103.71 <
-1 8 10 0 543.72 453.71 249.93 <
-1 8 10 2 83.88 9.57 40.39 <
0 8 10 -2 80.68 1.82 64.84 <
0 8 10 -1 147.22 166.27 96.88 <
0 8 10 0 162.03 234.14 107.20 <
0 8 10 1 175.08 61.65 47.07 <
0 8 10 2 67.68 590.82 271.04 <
1 8 10 -2 52.27 8.50 83.36 <
1 8 10 -1 5344.09 4972.41 747.68 o
1 8 10 0 545.88 224.73 163.69 <
1 8 10 1 736.09 453.71 241.58 <
1 8 10 2 8.36 66.81 98.70 <
2 8 10 -2 17.62 43.88 73.80 <
2 8 10 -1 45.79 -38.72 73.49 <
2 8 10 0 53.43 242.19 180.69 <
2 8 10 1 147.99 165.81 156.10 <
2 8 10 2 579.59 356.98 234.14 <
3 8 10 -2 20.49 -128.76 131.04 <
3 8 10 -1 1648.94 1958.93 529.17 o
3 8 10 0 111.75 -342.71 227.92 <
-2 9 10 -2 1.49 227.01 196.49 <
-2 9 10 -1 107.50 81.08 121.78 <
-1 9 10 -2 62.51 148.50 156.10 <
-1 9 10 -1 136.68 264.66 202.41 <
-1 9 10 0 2496.46 2695.06 625.44 o
0 9 10 -2 42.19 -47.07 81.39 <
0 9 10 -1 124.77 141.52 89.74 <
0 9 10 0 59.98 -85.34 70.61 <
0 9 10 1 638.60 722.01 205.90 o
0 9 10 2 229.79 140.61 131.34 <
1 9 10 -2 70.48 120.11 80.63 <
1 9 10 -1 1.50 62.10 83.36 <
1 9 10 0 2770.53 2502.53 535.40 o
1 9 10 1 38.09 72.13 96.12 <
1 9 10 2 181.43 -32.34 68.79 <
2 9 10 -2 47.87 -291.39 178.87 <
2 9 10 -1 164.37 108.26 114.34 <
2 9 10 0 62.32 249.63 180.54 <
2 9 10 1 348.52 295.33 204.38 <
2 9 10 2 22.86 66.66 101.74 <
3 9 10 -2 128.75 38.42 74.71 <
-2 10 10 -2 39.16 8.05 47.98 <
-2 10 10 -1 240.48 223.06 204.53 <
-2 10 10 0 1439.34 1062.45 436.85 <
-1 10 10 -2 108.82 44.64 89.74 <
-1 10 10 -1 58.84 37.96 83.21 <
-1 10 10 0 5831.14 6583.92 1005.96 o
-1 10 10 1 233.71 553.47 284.55 <
0 10 10 -2 197.07 336.03 203.32 <
0 10 10 -1 777.21 724.90 313.56 <
0 10 10 0 376.32 192.99 106.14 <
0 10 10 1 210.68 547.85 185.25 <
0 10 10 2 199.40 -178.26 145.01 <
1 10 10 -2 533.06 384.01 148.65 <
1 10 10 -1 1797.86 1835.33 431.23 o
1 10 10 0 6033.93 5417.00 781.23 o
1 10 10 1 599.34 698.48 287.59 <
1 10 10 2 8.28 278.94 190.71 <
2 10 10 -2 50.97 23.69 54.06 <
2 10 10 -1 717.72 872.64 321.30 <
2 10 10 0 777.80 890.41 332.84 <
-3 11 10 -2 206.93 566.53 384.47 <
-2 11 10 -2 40.84 14.58 67.11 <
-2 11 10 -1 251.76 207.87 204.68 <
-2 11 10 0 505.39 -163.08 180.69 <
-1 11 10 -2 49.83 -75.47 118.44 <
-1 11 10 -1 161.35 -27.48 75.77 <
-1 11 10 0 5033.10 6380.30 1029.34 o
-1 11 10 1 22.78 156.70 146.68 <
0 11 10 -2 50.80 31.89 75.16 <
0 11 10 -1 112.96 267.85 199.07 <
0 11 10 0 652.26 685.42 354.40 <
0 11 10 1 847.54 1185.14 274.23 o
0 11 10 2 86.66 -97.03 107.05 <
1 11 10 -2 32.21 -5.47 82.60 <
1 11 10 -1 16.24 49.50 71.06 <
1 11 10 0 4800.78 4894.97 724.14 o
1 11 10 1 91.81 -112.36 114.94 <
1 11 10 2 79.77 30.67 66.66 <
2 11 10 -2 7.07 -5.01 130.89 <
2 11 10 -1 108.22 36.90 64.99 <
-3 12 10 -2 2.16 74.86 137.72 <
-2 12 10 -2 292.11 483.32 319.78 <
-2 12 10 -1 931.51 581.71 280.45 <
-2 12 10 0 122.65 97.48 143.64 <
-1 12 10 -2 44.65 -131.95 162.02 <
-1 12 10 -1 19.79 140.91 160.50 <
-1 12 10 0 221.06 -150.32 162.32 <
-1 12 10 1 37.43 -146.83 158.52 <
-1 12 10 2 105.21 135.60 151.08 <
0 12 10 -2 152.65 -12.45 52.23 <
0 12 10 -1 2794.98 3256.88 714.88 o
0 12 10 0 703.85 1596.63 511.10 o
0 12 10 1 7.83 -7.29 42.06 <
0 12 10 2 83.55 -183.88 116.01 <
1 12 10 -2 46.36 27.48 89.13 <
1 12 10 -1 68.17 310.52 146.98 <
1 12 10 0 291.12 276.51 167.18 <
1 12 10 1 317.16 168.09 135.29 <
-2 13 10 -2 127.82 -248.57 238.70 <
-2 13 10 -1 50.49 -243.71 234.60 <
-2 13 10 0 607.41 200.74 207.57 <
-2 13 10 1 480.66 695.14 372.02 <
-1 13 10 -2 1.12 207.42 204.23 <
-1 13 10 -1 63.03 -48.44 78.96 <
-1 13 10 0 218.23 -116.46 147.74 <
-1 13 10 1 593.72 723.68 371.86 <
-1 13 10 2 232.50 170.98 173.10 <
0 13 10 -2 82.32 -47.53 194.97 <
0 13 10 -1 119.00 -54.36 98.39 <
0 13 10 0 2078.06 2283.87 612.08 o
0 13 10 1 360.38 384.77 250.24 <
0 13 10 2 193.98 385.83 248.72 <
1 13 10 -2 19.18 110.69 134.68 <
1 13 10 -1 93.64 101.58 75.01 <
-2 14 10 -2 226.38 18.68 100.52 <
-2 14 10 -1 381.66 280.30 257.68 <
-2 14 10 0 2905.57 2385.91 714.12 o
-2 14 10 1 102.43 175.83 193.90 <
-1 14 10 -2 33.76 -423.79 297.76 <
-1 14 10 -1 496.32 1857.19 682.38 <
-1 14 10 0 132.55 -118.74 152.15 <
-1 14 10 1 56.38 -135.60 160.95 <
-1 14 10 2 9.00 157.76 210.00 <
0 14 10 -2 467.76 529.48 309.15 <
0 14 10 -1 289.45 213.95 252.36 <
0 14 10 0 1776.13 3074.82 723.08 o
0 14 10 1 86.97 176.90 176.74 <
0 14 10 2 49.11 8.20 48.44 <
1 14 10 -2 28.52 224.88 196.64 <
1 14 10 -1 716.57 882.36 332.69 <
-2 15 10 -2 38.67 -426.07 329.35 <
-2 15 10 -1 128.26 208.48 221.69 <
-2 15 10 0 1989.71 1912.01 658.24 <
-2 15 10 1 118.39 204.84 212.28 <
-1 15 10 -2 64.56 126.79 172.04 <
-1 15 10 -1 257.00 586.87 377.63 <
-1 15 10 0 95.75 -19.13 71.97 <
-1 15 10 1 1741.48 1448.74 572.15 <
-1 15 10 2 182.01 -80.93 129.07 <
0 15 10 -2 5.47 39.02 139.85 <
0 15 10 -1 24.90 -34.01 86.85 <
0 15 10 0 1123.01 1445.24 521.28 <
0 15 10 1 13.65 -140.61 164.14 <
0 15 10 2 18.35 130.28 155.79 <
1 15 10 -2 38.11 424.55 276.81 <
1 15 10 -1 714.74 406.94 270.43 <
-1 16 10 -2 253.33 409.83 305.51 <
-1 16 10 -1 167.12 198.91 210.46 <
-1 16 10 0 760.64 1396.96 541.17 <
-1 16 10 1 232.65 256.46 175.53 <
0 16 10 -2 26.16 77.90 129.07 <
0 16 10 -1 34.65 137.11 163.38 <
0 16 10 0 96.76 126.03 158.98 <
1 16 10 -2 10.91 -199.67 197.24 <
1 16 10 -1 384.49 -113.73 150.02 <
0 17 10 -2 5.74 183.73 196.18 <
0 17 10 -1 25.06 -403.45 289.26 <
1 17 10 -2 25.63 100.37 144.10 <
1 -17 11 -2 10.48 -106.29 83.67 <
0 -16 11 -2 44.27 -90.95 79.57 <
0 -16 11 -1 248.73 102.49 119.20 <
1 -16 11 -2 88.99 163.69 96.12 <
1 -16 11 -1 1255.47 858.07 330.56 <
2 -16 11 -2 22.75 232.93 201.34 <
-1 -15 11 -2 16.17 152.75 152.91 <
-1 -15 11 -1 99.17 7.74 42.97 <
-1 -15 11 0 161.56 452.19 251.00 <
0 -15 11 -2 391.29 458.42 170.82 <
0 -15 11 -1 346.79 449.76 168.39 <
1 -15 11 -2 25.65 20.35 50.11 <
1 -15 11 -1 42.93 -50.11 66.36 <
1 -15 11 0 252.44 220.78 201.95 <
2 -15 11 -2 177.27 88.52 78.96 <
-1 -14 11 -2 50.59 -112.21 92.78 <
-1 -14 11 -1 206.23 44.34 80.48 <
-1 -14 11 0 5575.55 5614.86 875.68 o
-1 -14 11 1 294.77 71.82 94.29 <
0 -14 11 -2 0.65 25.66 76.53 <
0 -14 11 -1 92.88 120.41 102.95 <
0 -14 11 0 259.66 42.36 107.35 <
0 -14 11 1 24.97 -190.56 187.07 <
1 -14 11 -2 20.65 -33.86 59.37 <
1 -14 11 -1 295.48 90.35 125.12 <
1 -14 11 0 5575.37 4922.15 623.62 o
2 -14 11 -2 10.96 -26.88 74.10 <
-1 -13 11 -2 18.42 -198.46 118.59 <
-1 -13 11 -1 46.51 85.64 76.07 <
-1 -13 11 0 146.79 46.31 80.48 <
-1 -13 11 2 10.38 -433.66 280.15 <
0 -13 11 -2 34.90 -12.15 53.75 <
0 -13 11 -1 63.18 92.78 62.86 <
0 -13 11 0 1917.86 2144.03 406.18 o
0 -13 11 1 19.98 -31.89 54.21 <
0 -13 11 2 10.69 -390.84 271.65 <
1 -13 11 -2 111.67 55.57 75.92 <
1 -13 11 -1 142.74 351.97 161.41 <
1 -13 11 0 194.89 403.30 165.51 <
1 -13 11 1 1133.60 1585.70 471.47 o
2 -13 11 -2 57.53 -40.85 84.12 <
2 -13 11 -1 161.15 150.32 132.26 <
-2 -12 11 -2 524.95 741.30 363.66 <
-2 -12 11 -1 89.47 272.86 201.34 <
-2 -12 11 0 1047.59 812.51 308.70 <
-2 -12 11 1 322.65 178.57 136.51 <
-2 -12 11 2 80.75 88.52 111.61 <
-1 -12 11 -2 53.78 -189.80 166.27 <
-1 -12 11 -1 184.06 286.53 118.59 <
-1 -12 11 0 1808.18 1645.37 285.62 o
-1 -12 11 1 607.10 321.91 238.85 <
-1 -12 11 2 3.75 52.84 98.70 <
0 -12 11 -2 23.98 -116.46 93.69 <
0 -12 11 -1 257.25 403.14 174.01 <
0 -12 11 0 382.04 395.40 167.48 <
0 -12 11 1 427.43 607.07 219.72 <
0 -12 11 2 152.17 9.41 52.08 <
1 -12 11 -2 20.62 9.57 93.69 <
1 -12 11 -1 520.05 834.99 261.93 o
1 -12 11 0 1736.45 2144.78 620.13 o
1 -12 11 1 256.13 309.30 234.90 <
2 -12 11 -2 38.44 147.44 128.91 <
2 -12 11 -1 455.69 689.22 319.48 <
-2 -11 11 -2 532.46 404.21 289.87 <
-2 -11 11 -1 269.83 758.46 323.27 <
-2 -11 11 0 127.28 229.13 176.29 <
-2 -11 11 1 259.05 -21.56 60.59 <
-2 -11 11 2 15.33 8.96 42.36 <
-1 -11 11 -2 138.32 231.41 114.79 <
-1 -11 11 -1 931.87 851.39 205.14 o
-1 -11 11 0 99.29 16.55 80.63 <
-1 -11 11 1 102.49 -174.62 120.26 <
-1 -11 11 2 126.08 17.16 61.95 <
0 -11 11 -2 292.74 62.41 80.78 <
0 -11 11 -1 609.10 952.97 211.82 o
0 -11 11 0 453.90 287.14 142.28 <
0 -11 11 1 1494.76 1893.79 385.53 o
0 -11 11 2 14.30 120.56 112.06 <
1 -11 11 -2 121.11 307.79 223.36 <
1 -11 11 -1 482.26 721.86 342.10 <
1 -11 11 0 218.77 66.05 107.81 <
1 -11 11 1 477.81 210.46 191.47 <
2 -11 11 -2 115.04 490.45 304.14 <
2 -11 11 -1 346.87 382.49 247.96 <
-2 -10 11 -2 173.01 543.29 306.12 <
-2 -10 11 -1 253.78 434.27 193.90 <
-2 -10 11 0 1713.91 1319.52 263.75 o
-2 -10 11 1 576.06 405.42 170.82 <
-2 -10 11 2 20.50 188.89 190.87 <
-1 -10 11 -2 28.83 -79.41 77.14 <
-1 -10 11 -1 458.96 425.92 134.23 o
-1 -10 11 0 514.18 230.35 99.31 <
-1 -10 11 1 177.42 285.46 147.74 <
-1 -10 11 2 70.56 -47.07 86.70 <
0 -10 11 -2 15.34 88.68 85.49 <
0 -10 11 -1 117.98 34.92 64.23 <
0 -10 11 0 1114.29 1154.16 290.02 o
0 -10 11 1 185.49 147.90 100.52 <
0 -10 11 2 24.11 50.26 99.91 <
1 -10 11 -2 47.95 35.38 129.67 <
1 -10 11 -1 26.93 -45.10 90.19 <
1 -10 11 0 456.31 139.09 185.40 <
1 -10 11 1 542.90 937.48 397.83 <
2 -10 11 -2 11.36 -269.83 201.80 <
2 -10 11 -1 32.39 82.75 114.79 <
2 -10 11 0 2032.42 2452.87 629.24 o
3 -10 11 -2 65.20 -28.39 76.98 <
-2 -9 11 -2 34.94 169.91 150.17 <
-2 -9 11 -1 298.65 113.58 94.60 <
-2 -9 11 0 627.27 716.55 201.04 o
-2 -9 11 1 13.61 166.27 101.58 <
-2 -9 11 2 240.63 46.77 101.28 <
-1 -9 11 -2 72.53 118.13 107.20 <
-1 -9 11 -1 994.72 1402.73 257.22 o
-1 -9 11 0 2921.85 3397.79 397.37 o
-1 -9 11 1 266.43 253.43 142.73 <
-1 -9 11 2 115.38 364.73 184.79 <
0 -9 11 -2 133.84 146.07 74.10 <
0 -9 11 -1 52.75 30.98 48.74 <
0 -9 11 0 1088.17 810.84 248.41 o
0 -9 11 1 124.15 -12.30 48.89 <
0 -9 11 2 20.73 147.90 125.73 <
1 -9 11 -2 131.40 169.91 172.65 <
1 -9 11 -1 388.65 521.28 288.96 <
1 -9 11 0 2977.66 3423.30 759.97 o
1 -9 11 1 128.16 131.80 150.32 <
1 -9 11 2 30.64 8.05 46.16 <
2 -9 11 -2 134.46 -56.49 92.78 <
2 -9 11 -1 51.83 -63.93 104.62 <
2 -9 11 0 731.08 478.31 280.76 <
3 -9 11 -2 61.06 53.30 239.46 <
-3 -8 11 1 234.54 117.22 63.01 <
-3 -8 11 2 100.96 109.78 122.23 <
-2 -8 11 -2 0.92 19.89 52.54 <
-2 -8 11 -1 1403.20 1360.67 317.81 o
-2 -8 11 0 7536.74 7945.95 741.60 o
-2 -8 11 1 1769.00 1382.08 271.65 o
-2 -8 11 2 46.71 227.76 173.25 <
-1 -8 11 -2 220.80 131.19 57.40 <
-1 -8 11 -1 533.41 391.30 134.38 <
-1 -8 11 0 572.55 667.20 178.42 o
-1 -8 11 1 448.32 221.08 138.79 <
-1 -8 11 2 328.52 276.96 153.97 <
0 -8 11 -2 103.69 110.69 107.81 <
0 -8 11 -1 1003.59 1071.71 265.27 o
0 -8 11 0 11131.90 12313.30 1435.98 o
0 -8 11 1 1273.01 922.29 396.31 <
0 -8 11 2 102.25 66.05 74.71 <
1 -8 11 -2 13.65 -211.37 180.85 <
1 -8 11 -1 73.95 409.22 225.94 <
1 -8 11 0 596.13 1040.73 407.39 <
1 -8 11 1 460.14 486.96 283.64 <
1 -8 11 2 679.98 1007.18 410.74 <
2 -8 11 -2 44.57 177.20 160.20 <
2 -8 11 -1 365.30 297.31 138.33 <
2 -8 11 0 7684.34 7563.00 1119.84 o
3 -8 11 -2 29.57 154.88 226.09 <
-3 -7 11 0 289.25 50.41 87.46 <
-3 -7 11 1 154.76 232.47 173.10 <
-3 -7 11 2 28.63 101.89 117.83 <
-2 -7 11 -2 78.07 -120.26 117.38 <
-2 -7 11 -1 166.49 93.69 129.37 <
-2 -7 11 0 847.98 1196.68 240.22 o
-2 -7 11 1 114.20 156.10 113.12 <
-2 -7 11 2 39.82 -243.56 147.29 <
-1 -7 11 -2 194.92 298.98 117.98 <
-1 -7 11 -1 2762.42 3067.99 365.03 o
-1 -7 11 0 435.00 239.00 96.72 <
-1 -7 11 1 502.58 666.74 235.96 <
-1 -7 11 2 78.57 -198.91 128.00 <
0 -7 11 -2 25.87 -11.24 51.93 <
0 -7 11 -1 262.43 96.27 158.37 <
0 -7 11 0 323.39 348.33 235.81 <
0 -7 11 1 60.85 -24.45 148.96 <
0 -7 11 2 46.75 198.15 144.86 <
1 -7 11 -2 193.57 182.36 109.02 <
1 -7 11 -1 1250.64 1268.65 451.89 <
1 -7 11 0 349.05 519.46 298.52 <
1 -7 11 1 2130.34 2679.58 673.42 o
1 -7 11 2 48.74 149.26 159.43 <
2 -7 11 -2 70.83 -180.69 161.87 <
2 -7 11 -1 76.70 -94.60 121.47 <
2 -7 11 0 1088.14 1512.97 487.27 o
2 -7 11 1 8.76 189.04 181.76 <
3 -7 11 -2 31.47 -7.29 111.91 <
3 -7 11 -1 485.21 706.53 366.40 <
-3 -6 11 -2 7.35 322.52 214.71 <
-3 -6 11 -1 77.62 219.87 174.92 <
-3 -6 11 0 372.68 389.33 227.76 <
-3 -6 11 1 228.88 226.09 170.22 <
-3 -6 11 2 168.32 44.64 78.81 <
-2 -6 11 -2 354.73 -30.52 63.01 <
-2 -6 11 -1 110.38 29.76 103.86 <
-2 -6 11 0 1431.45 1161.60 225.03 o
-2 -6 11 1 618.45 604.03 168.55 o
-2 -6 11 2 35.21 -106.29 114.03 <
-1 -6 11 -2 24.86 73.95 97.64 <
-1 -6 11 -1 751.92 430.17 129.52 o
-1 -6 11 0 239.93 648.98 225.49 <
-1 -6 11 1 193.20 251.91 128.16 <
-1 -6 11 2 212.41 -54.82 118.89 <
0 -6 11 -2 184.95 98.85 83.97 <
0 -6 11 -1 554.18 467.07 272.26 <
0 -6 11 0 451.88 453.25 260.26 <
0 -6 11 1 828.70 743.58 350.00 <
0 -6 11 2 74.76 243.10 206.05 <
1 -6 11 -2 4.69 -58.31 96.88 <
1 -6 11 -1 184.86 100.07 164.60 <
1 -6 11 0 181.58 262.84 203.47 <
1 -6 11 1 285.41 567.44 348.02 <
1 -6 11 2 521.67 385.98 252.21 <
2 -6 11 -2 287.45 41.76 79.41 <
2 -6 11 -1 661.79 563.49 269.22 <
2 -6 11 0 1582.34 1067.61 405.27 <
2 -6 11 1 1044.09 1708.99 541.93 o
3 -6 11 -2 51.75 97.94 128.76 <
3 -6 11 -1 4.12 329.35 248.87 <
-3 -5 11 -2 176.76 -74.71 104.77 <
-3 -5 11 -1 1451.52 1099.34 389.17 <
-3 -5 11 0 154.76 -78.20 102.49 <
-3 -5 11 1 58.29 291.69 156.85 <
-3 -5 11 2 385.53 276.20 181.76 <
-2 -5 11 -2 369.57 250.09 130.13 <
-2 -5 11 -1 336.68 807.05 227.16 o
-2 -5 11 0 217.34 143.04 96.42 <
-2 -5 11 1 41.32 32.80 100.37 <
-2 -5 11 2 148.64 53.15 134.23 <
-1 -5 11 -2 159.72 109.33 67.72 <
-1 -5 11 -1 295.94 -1.21 51.93 <
-1 -5 11 0 257.59 -77.29 84.73 <
-1 -5 11 1 408.03 -91.41 87.46 <
-1 -5 11 2 387.14 9.41 147.90 <
0 -5 11 -2 24.43 -85.49 104.92 <
0 -5 11 -1 170.30 -30.06 146.98 <
0 -5 11 0 405.12 531.76 317.66 <
0 -5 11 1 90.85 91.56 125.73 <
0 -5 11 2 36.92 -214.10 192.08 <
1 -5 11 -2 516.10 584.44 323.27 <
1 -5 11 -1 810.83 595.83 317.66 <
1 -5 11 0 442.14 129.67 164.75 <
1 -5 11 1 1345.67 1718.56 520.06 o
1 -5 11 2 90.72 -174.92 168.24 <
2 -5 11 -2 71.36 87.46 135.14 <
2 -5 11 -1 241.03 31.58 76.53 <
2 -5 11 0 75.69 83.67 50.56 <
2 -5 11 1 270.83 201.34 182.21 <
3 -5 11 -2 207.39 235.05 195.27 <
3 -5 11 -1 128.17 455.68 303.08 <
-3 -4 11 -2 60.43 -155.03 146.53 <
-3 -4 11 -1 673.94 1084.62 389.17 <
-3 -4 11 0 3110.21 2341.73 538.89 o
-3 -4 11 1 928.23 683.60 234.14 <
-3 -4 11 2 41.40 43.28 80.32 <
-2 -4 11 -2 218.84 -30.22 86.70 <
-2 -4 11 -1 111.79 80.78 97.33 <
-2 -4 11 0 35.87 100.07 81.69 <
-2 -4 11 1 122.44 347.42 169.15 <
-2 -4 11 2 108.44 -16.70 65.90 <
-1 -4 11 -2 36.07 170.98 82.15 <
-1 -4 11 -1 578.07 585.05 162.17 o
-1 -4 11 0 9989.98 9579.33 865.51 o
-1 -4 11 1 1512.53 1929.17 571.69 o
-1 -4 11 2 72.43 77.90 50.11 <
0 -4 11 -2 42.31 -136.35 95.05 <
0 -4 11 -1 395.62 566.53 293.82 <
0 -4 11 0 120.71 133.17 69.70 <
0 -4 11 1 73.71 204.08 276.20 <
0 -4 11 2 376.83 435.79 270.43 <
1 -4 11 -2 113.62 215.77 231.71 <
1 -4 11 -1 688.46 455.68 288.65 <
1 -4 11 0 9877.77 10854.40 1307.98 o
1 -4 11 1 998.02 1111.95 436.55 <
1 -4 11 2 177.55 146.68 154.88 <
2 -4 11 -2 8.60 -112.52 126.18 <
2 -4 11 -1 207.56 109.78 127.85 <
2 -4 11 0 121.46 -55.57 95.51 <
2 -4 11 1 25.43 -470.87 275.60 <
3 -4 11 -2 35.72 -378.55 242.49 <
3 -4 11 -1 126.18 391.00 312.19 <
-3 -3 11 -2 79.89 134.99 64.53 <
-3 -3 11 -1 816.02 1346.70 401.17 o
-3 -3 11 0 133.22 97.48 111.76 <
-3 -3 11 1 19.74 -4.25 39.02 <
-3 -3 11 2 37.85 8.20 51.32 <
-2 -3 11 -2 1004.20 662.79 229.28 <
-2 -3 11 -1 418.90 481.04 173.10 <
-2 -3 11 0 1458.57 1471.82 280.61 o
-2 -3 11 1 86.64 -84.27 90.19 <
-2 -3 11 2 52.39 -41.15 151.08 <
-1 -3 11 -2 91.82 186.92 83.06 <
-1 -3 11 -1 107.66 158.83 92.02 <
-1 -3 11 0 525.95 346.20 166.42 <
-1 -3 11 1 358.42 259.96 209.24 <
-1 -3 11 2 52.53 -84.73 123.30 <
0 -3 11 -2 241.22 93.54 97.33 <
0 -3 11 -1 255.68 383.56 251.91 <
0 -3 11 0 3575.93 4707.59 879.02 o
0 -3 11 1 70.90 -311.58 224.42 <
0 -3 11 2 62.59 -121.63 145.62 <
1 -3 11 -2 106.54 -339.52 222.45 <
1 -3 11 -1 1169.87 1095.55 408.91 <
1 -3 11 0 526.68 -3.04 34.77 <
1 -3 11 1 216.32 -36.90 78.05 <
1 -3 11 2 25.96 -79.72 116.77 <
2 -3 11 -2 33.44 22.93 60.43 <
2 -3 11 -1 200.03 119.65 146.07 <
2 -3 11 0 1403.98 1420.64 469.80 o
2 -3 11 1 114.83 -167.79 165.81 <
3 -3 11 -2 11.24 -26.12 68.18 <
3 -3 11 -1 368.98 637.29 329.50 <
3 -3 11 0 121.69 307.33 245.53 <
-3 -2 11 -2 43.01 443.84 272.41 <
-3 -2 11 -1 121.30 119.50 44.79 <
-3 -2 11 0 73.20 -210.61 160.04 <
-3 -2 11 1 270.49 329.65 156.85 <
-3 -2 11 2 31.14 -124.51 156.70 <
-2 -2 11 -2 772.93 1101.62 265.12 o
-2 -2 11 -1 43.44 246.59 129.07 <
-2 -2 11 0 337.51 317.35 139.54 <
-2 -2 11 1 316.80 523.86 227.16 <
-2 -2 11 2 198.53 89.28 94.75 <
-1 -2 11 -2 26.33 -61.80 67.27 <
-1 -2 11 -1 56.62 219.57 109.48 <
-1 -2 11 0 260.61 133.32 148.05 <
-1 -2 11 1 676.45 702.88 347.42 <
-1 -2 11 2 81.97 -421.36 268.15 <
0 -2 11 -2 36.69 156.40 152.75 <
0 -2 11 -1 311.07 478.00 268.31 <
0 -2 11 0 2813.00 3062.83 711.39 o
0 -2 11 1 160.60 -27.03 105.68 <
0 -2 11 2 393.28 520.37 294.12 <
1 -2 11 -2 135.24 -62.10 80.02 <
1 -2 11 -1 2509.91 2651.64 639.56 o
1 -2 11 0 238.12 107.05 205.60 <
1 -2 11 1 1452.86 1961.81 573.21 o
1 -2 11 2 443.44 511.56 285.01 <
2 -2 11 -2 123.41 -3.19 44.03 <
2 -2 11 -1 366.04 313.40 212.58 <
2 -2 11 0 107.17 263.45 230.65 <
2 -2 11 1 246.89 586.42 304.45 <
2 -2 11 2 557.44 774.10 361.54 <
3 -2 11 -2 241.38 178.42 157.76 <
3 -2 11 -1 1070.66 1294.77 505.18 <
3 -2 11 0 34.78 570.17 327.22 <
4 -2 11 -2 151.23 145.31 187.53 <
-3 -1 11 -2 53.07 251.91 180.09 <
-3 -1 11 -1 191.71 82.15 103.25 <
-3 -1 11 0 629.97 1383.90 401.62 o
-3 -1 11 1 11.41 -103.71 109.48 <
-3 -1 11 2 82.30 -176.59 185.70 <
-2 -1 11 -2 22.28 -50.11 74.40 <
-2 -1 11 -1 1608.47 1258.78 265.57 o
-2 -1 11 0 563.27 425.01 143.04 <
-2 -1 11 1 226.37 552.56 300.95 <
-2 -1 11 2 386.24 361.23 177.51 <
-1 -1 11 -2 60.26 0.91 90.04 <
-1 -1 11 -1 593.07 140.46 104.77 <
-1 -1 11 0 1247.41 1058.04 420.76 <
-1 -1 11 1 139.19 52.23 94.60 <
-1 -1 11 2 77.35 184.49 176.90 <
0 -1 11 -2 197.74 203.62 121.17 <
0 -1 11 -1 1456.50 1313.29 423.79 o
0 -1 11 0 899.48 1532.40 486.66 o
0 -1 11 1 210.24 87.31 120.56 <
0 -1 11 2 156.61 308.24 225.64 <
1 -1 11 -2 77.64 -163.38 154.12 <
1 -1 11 -1 3.27 1.06 138.79 <
1 -1 11 0 1181.23 1938.73 540.41 o
1 -1 11 1 470.23 210.15 151.39 <
1 -1 11 2 10.16 279.70 161.71 <
2 -1 11 -2 244.03 37.81 20.35 <
2 -1 11 -1 1289.13 1708.39 492.88 o
2 -1 11 0 732.34 847.13 354.86 <
2 -1 11 1 302.78 275.44 208.78 <
2 -1 11 2 645.95 1047.87 418.63 <
3 -1 11 -2 14.43 31.89 73.95 <
3 -1 11 -1 67.29 112.82 138.02 <
3 -1 11 0 723.99 1411.38 504.27 <
4 -1 11 -2 116.29 18.37 232.78 <
-3 0 11 -2 4.52 -31.13 69.24 <
-3 0 11 -1 43.86 95.66 107.35 <
-3 0 11 0 5.99 -142.12 151.08 <
-3 0 11 1 21.85 3.64 146.83 <
-3 0 11 2 21.07 207.11 198.76 <
-2 0 11 -2 24.58 77.29 51.78 <
-2 0 11 -1 5.02 12.91 91.56 <
-2 0 11 0 48.43 -202.86 182.67 <
-2 0 11 1 107.60 231.87 196.49 <
-2 0 11 2 1.31 222.30 139.85 <
-1 0 11 -2 40.39 8.50 60.59 <
-1 0 11 -1 25.27 57.24 96.27 <
-1 0 11 0 57.60 521.89 283.80 <
-1 0 11 1 105.46 115.86 137.27 <
-1 0 11 2 2.78 -213.64 188.89 <
0 0 11 -2 10.21 26.72 51.93 <
0 0 11 -1 2.33 -45.40 83.67 <
0 0 11 0 12.74 -30.22 73.80 <
0 0 11 1 274.33 262.39 221.39 <
0 0 11 2 76.78 35.83 157.92 <
1 0 11 -2 9.37 16.40 154.12 <
1 0 11 -1 34.93 139.70 145.31 <
1 0 11 0 94.38 88.68 119.04 <
1 0 11 1 98.27 46.77 90.65 <
1 0 11 2 26.41 -112.82 135.60 <
2 0 11 -2 25.94 2.28 30.37 <
2 0 11 -1 0.81 175.23 177.05 <
2 0 11 0 8.31 -139.70 146.23 <
2 0 11 1 9.31 76.23 111.45 <
2 0 11 2 16.47 -33.86 79.72 <
3 0 11 -2 45.83 276.36 202.71 <
3 0 11 -1 13.40 -227.76 191.63 <
3 0 11 0 1.44 -218.20 197.55 <
4 0 11 -2 29.90 527.81 376.42 <
-3 1 11 -2 52.66 -338.00 209.09 <
-3 1 11 -1 196.55 587.63 267.85 <
-3 1 11 0 630.09 1283.07 312.04 o
-3 1 11 1 12.42 -10.63 51.93 <
-3 1 11 2 81.77 -6.38 42.06 <
-2 1 11 -2 24.21 -146.53 99.46 <
-2 1 11 -1 1575.10 1372.97 293.97 o
-2 1 11 0 577.72 740.99 348.48 <
-2 1 11 1 224.93 199.07 182.67 <
-2 1 11 2 384.10 147.14 137.42 <
-1 1 11 -2 53.81 -31.58 59.98 <
-1 1 11 -1 573.80 255.40 186.01 <
-1 1 11 0 1217.76 1428.69 481.95 <
-1 1 11 1 136.73 139.24 149.72 <
-1 1 11 2 77.38 125.42 144.10 <
0 1 11 -2 205.69 246.90 136.20 <
0 1 11 -1 1423.95 1611.97 478.00 o
0 1 11 0 918.65 1224.01 429.56 <
0 1 11 1 212.91 -17.46 59.83 <
0 1 11 2 157.38 118.13 97.18 <
1 1 11 -2 77.45 0.91 29.76 <
1 1 11 -1 3.85 -80.02 110.09 <
1 1 11 0 1142.16 1603.92 472.23 o
1 1 11 1 462.95 580.34 299.74 <
1 1 11 2 11.52 127.85 146.38 <
2 1 11 -2 236.10 -106.75 123.14 <
2 1 11 -1 1307.68 1727.82 498.20 o
2 1 11 0 726.44 323.43 221.24 <
2 1 11 1 310.69 227.46 204.99 <
2 1 11 2 637.46 267.24 212.73 <
3 1 11 -2 16.08 296.40 207.72 <
3 1 11 -1 71.54 -34.01 77.44 <
3 1 11 0 719.96 1682.12 544.51 o
4 1 11 -2 114.19 -63.32 114.79 <
-3 2 11 -2 42.54 626.96 283.04 <
-3 2 11 -1 118.11 207.72 160.20 <
-3 2 11 0 76.50 13.67 110.85 <
-3 2 11 1 271.25 360.63 257.68 <
-3 2 11 2 29.45 -26.57 79.57 <
-2 2 11 -2 782.88 1079.91 254.49 o
-2 2 11 -1 40.36 -181.00 117.83 <
-2 2 11 0 339.22 369.74 246.74 <
-2 2 11 1 319.98 187.98 227.92 <
-2 2 11 2 205.86 -14.88 56.03 <
-1 2 11 -2 22.32 69.70 66.20 <
-1 2 11 -1 57.22 -10.17 48.59 <
-1 2 11 0 250.54 -5.47 39.78 <
-1 2 11 1 670.83 703.19 362.15 <
-1 2 11 2 78.77 -71.21 108.72 <
0 2 11 -2 38.86 44.19 81.39 <
0 2 11 -1 297.12 172.49 156.55 <
0 2 11 0 2750.00 3834.04 758.91 o
0 2 11 1 176.89 66.51 209.24 <
0 2 11 2 404.19 -30.52 75.47 <
1 2 11 -2 137.78 -123.30 131.34 <
1 2 11 -1 2503.89 2052.77 551.04 o
1 2 11 0 235.49 -176.74 163.99 <
1 2 11 1 1450.91 1439.17 486.51 <
1 2 11 2 444.60 405.57 310.82 <
2 2 11 -2 120.38 367.76 267.55 <
2 2 11 -1 359.32 22.47 160.50 <
2 2 11 0 108.00 -71.82 107.05 <
2 2 11 1 252.08 78.96 114.94 <
2 2 11 2 559.18 745.70 352.28 <
3 2 11 -2 242.68 231.10 187.37 <
3 2 11 -1 1067.02 790.34 357.59 <
3 2 11 0 38.87 -561.06 308.55 <
4 2 11 -2 152.07 -11.84 57.70 <
-3 3 11 -2 82.09 -2.58 32.95 <
-3 3 11 -1 836.71 1270.02 391.30 o
-3 3 11 0 135.32 96.57 108.87 <
-3 3 11 1 17.04 126.33 152.60 <
-3 3 11 2 37.46 20.80 68.63 <
-2 3 11 -2 1004.84 756.79 216.83 o
-2 3 11 -1 435.36 502.75 172.19 <
-2 3 11 0 1433.98 1071.86 393.58 <
-2 3 11 1 84.99 44.95 91.71 <
-2 3 11 2 50.86 -285.01 215.77 <
-1 3 11 -1 100.92 285.16 200.13 <
-1 3 11 0 551.57 207.57 174.16 <
-1 3 11 1 362.68 120.71 134.23 <
-1 3 11 2 50.71 -170.82 163.54 <
0 3 11 -2 231.90 -60.13 90.95 <
0 3 11 -1 273.76 295.03 201.80 <
0 3 11 0 3551.07 4006.08 760.73 o
0 3 11 1 71.83 69.85 105.68 <
0 3 11 2 58.65 -15.64 151.84 <
1 3 11 -2 104.57 372.93 248.41 <
1 3 11 -1 1144.23 1316.18 442.02 <
1 3 11 0 558.07 453.40 280.30 <
1 3 11 1 200.71 531.45 317.20 <
1 3 11 2 26.34 87.46 121.78 <
2 3 11 -2 36.58 150.32 145.92 <
2 3 11 -1 197.66 315.08 218.20 <
2 3 11 0 1387.60 1637.17 498.50 o
2 3 11 1 124.43 96.42 126.33 <
2 3 11 2 31.63 -129.83 90.50 <
3 3 11 -2 11.17 0.46 28.39 <
3 3 11 -1 371.55 209.09 181.30 <
3 3 11 0 122.03 66.66 181.45 <
4 3 11 -2 15.96 495.16 296.70 <
-3 4 11 -2 57.00 -63.17 92.17 <
-3 4 11 -1 677.97 1243.14 387.81 o
-2 4 11 -2 226.68 8.96 76.23 <
-2 4 11 -1 112.82 -221.69 187.83 <
-2 4 11 0 35.52 -219.41 192.54 <
-2 4 11 1 127.28 142.73 157.31 <
-2 4 11 2 115.73 -12.00 55.57 <
-1 4 11 -1 542.04 465.25 249.33 <
-1 4 11 0 10034.20 10753.50 1236.00 o
-1 4 11 1 1526.99 2472.46 620.43 o
-1 4 11 2 76.38 78.81 111.30 <
0 4 11 -2 41.81 41.91 76.38 <
0 4 11 -1 405.86 149.11 142.88 <
0 4 11 0 102.72 383.10 231.56 <
0 4 11 1 72.73 -43.43 84.88 <
0 4 11 2 368.55 1040.58 448.24 <
1 4 11 -2 112.89 20.95 95.36 <
1 4 11 -1 671.55 348.33 198.31 <
1 4 11 0 9898.49 11968.30 1342.45 o
1 4 11 1 1035.62 1153.55 431.23 <
1 4 11 2 156.81 -154.27 158.37 <
2 4 11 -2 9.83 -5.16 63.62 <
2 4 11 -1 202.66 225.03 182.82 <
2 4 11 0 116.50 60.13 98.55 <
2 4 11 1 26.29 219.87 157.46 <
2 4 11 2 302.45 807.05 383.86 <
3 4 11 -2 37.57 -117.53 131.50 <
3 4 11 -1 129.99 56.94 98.24 <
3 4 11 0 3053.55 2516.04 656.87 o
4 4 11 -2 6.25 -262.23 212.73 <
-3 5 11 -2 179.52 367.46 218.05 <
-3 5 11 -1 1423.13 1355.50 405.12 o
-2 5 11 -2 384.96 334.97 144.86 <
-2 5 11 -1 346.53 382.64 245.23 <
-2 5 11 0 202.25 0.61 134.08 <
-2 5 11 1 37.16 296.55 220.63 <
-2 5 11 2 150.10 -454.01 269.37 <
-1 5 11 2 379.31 543.45 294.27 <
0 5 11 -2 27.19 118.29 139.24 <
0 5 11 -1 164.64 344.53 253.88 <
0 5 11 0 380.64 197.09 165.05 <
0 5 11 1 92.51 -200.74 171.43 <
0 5 11 2 37.72 76.68 110.85 <
1 5 11 -2 512.02 519.15 245.68 <
1 5 11 -1 797.22 898.76 348.48 <
1 5 11 0 440.87 76.38 168.24 <
1 5 11 1 1305.96 1366.74 468.89 <
1 5 11 2 86.49 129.37 211.21 <
2 5 11 -2 72.18 -64.08 98.24 <
2 5 11 -1 256.78 595.22 293.97 <
2 5 11 0 71.14 201.95 175.68 <
2 5 11 1 275.70 -50.56 94.45 <
2 5 11 2 47.83 272.86 215.31 <
3 5 11 -2 207.20 -26.12 64.08 <
3 5 11 -1 126.74 112.06 78.20 <
3 5 11 0 445.86 277.57 215.46 <
3 5 11 1 172.01 657.78 340.28 <
4 5 11 -2 0.12 103.86 134.08 <
4 5 11 -1 56.71 -246.59 212.12 <
-3 6 11 -2 5.46 -375.96 222.15 <
-3 6 11 -1 70.84 131.19 130.28 <
-2 6 11 -2 340.07 100.82 99.46 <
-2 6 11 1 622.13 416.81 274.68 <
-2 6 11 2 37.62 96.12 124.66 <
-1 6 11 1 193.88 351.06 220.93 <
-1 6 11 2 211.68 -108.87 126.03 <
0 6 11 -2 186.17 92.17 113.73 <
0 6 11 -1 570.43 582.93 279.09 <
0 6 11 0 446.86 435.33 228.37 <
0 6 11 1 823.45 952.21 376.72 <
0 6 11 2 76.49 -17.16 56.33 <
1 6 11 -2 5.28 44.64 78.20 <
1 6 11 -1 171.01 7958.10 1040.43 o
1 6 11 0 172.83 127.25 128.00 <
1 6 11 1 276.36 298.83 223.21 <
1 6 11 2 497.17 621.65 332.23 <
2 6 11 -2 289.76 271.95 192.38 <
2 6 11 -1 652.48 398.59 245.99 <
2 6 11 0 1594.92 1795.39 518.09 o
2 6 11 1 1029.80 1396.20 461.15 o
2 6 11 2 148.13 141.52 155.79 <
3 6 11 -2 52.18 -13.51 52.39 <
3 6 11 -1 3.26 223.82 201.19 <
3 6 11 0 201.33 77.44 150.17 <
3 6 11 1 11.82 -159.43 167.79 <
4 6 11 -2 172.99 -18.52 60.59 <
-3 7 11 -2 103.60 550.58 306.12 <
-1 7 11 1 495.99 553.62 245.68 <
-1 7 11 2 78.74 128.91 136.81 <
0 7 11 -2 24.92 134.53 126.33 <
0 7 11 -1 269.98 7.74 68.18 <
0 7 11 0 395.17 307.79 194.51 <
0 7 11 1 56.49 -91.87 114.64 <
0 7 11 2 49.44 134.53 166.72 <
1 7 11 -2 191.11 318.11 195.88 <
1 7 11 -1 1211.52 1001.10 345.60 <
1 7 11 0 383.71 586.72 257.22 <
1 7 11 1 2115.88 3312.16 710.78 o
1 7 11 2 44.15 -40.69 172.49 <
2 7 11 -2 70.41 -145.31 139.85 <
2 7 11 -1 82.66 194.21 167.18 <
2 7 11 0 1060.42 1425.66 461.60 o
2 7 11 1 7.83 74.56 112.21 <
2 7 11 2 109.63 343.17 239.30 <
3 7 11 -2 30.90 -60.59 96.27 <
3 7 11 -1 493.76 611.93 308.85 <
3 7 11 0 103.15 -20.65 65.75 <
-3 8 11 -2 107.31 -202.41 167.48 <
-1 8 11 2 326.51 46.31 68.18 <
0 8 11 -2 103.69 226.70 118.44 <
0 8 11 -1 1033.72 1023.12 374.60 <
0 8 11 0 10947.40 9532.71 1103.29 o
0 8 11 1 1218.29 1211.40 413.01 <
0 8 11 2 120.06 -138.94 140.91 <
1 8 11 -2 13.17 47.22 93.08 <
1 8 11 -1 62.38 76.07 122.54 <
1 8 11 0 592.11 657.48 296.70 <
1 8 11 1 472.22 483.62 281.36 <
1 8 11 2 681.12 271.95 206.20 <
2 8 11 -2 43.70 1.37 26.12 <
2 8 11 -1 367.36 156.70 117.83 <
2 8 11 0 7632.62 8694.08 1140.95 o
2 8 11 1 464.54 940.52 384.01 <
2 8 11 2 53.60 75.77 114.19 <
3 8 11 -2 28.17 253.43 192.69 <
3 8 11 -1 23.69 84.27 117.53 <
0 9 11 -2 137.29 36.75 72.73 <
0 9 11 -1 56.57 72.73 94.90 <
0 9 11 0 1198.86 627.87 286.53 <
0 9 11 1 120.52 471.02 245.07 <
0 9 11 2 19.82 32.19 103.10 <
1 9 11 -2 132.01 -98.55 106.90 <
1 9 11 -1 396.00 507.31 251.15 <
1 9 11 0 2982.79 3958.55 729.76 o
1 9 11 1 131.19 3.34 30.22 <
1 9 11 2 30.52 137.57 136.51 <
2 9 11 -2 135.58 -4.71 33.41 <
2 9 11 -1 43.51 -120.71 129.67 <
2 9 11 0 705.38 962.53 373.53 <
2 9 11 1 176.57 248.41 196.79 <
3 9 11 -2 58.93 48.29 88.37 <
-1 10 11 -2 29.43 -237.03 199.52 <
0 10 11 -2 19.09 92.78 115.86 <
0 10 11 -1 110.09 255.55 193.60 <
0 10 11 0 1192.34 926.24 317.81 <
0 10 11 1 204.87 391.45 253.73 <
0 10 11 2 27.47 -98.24 116.16 <
1 10 11 -2 49.51 61.65 82.91 <
1 10 11 -1 32.95 -61.19 85.79 <
1 10 11 0 472.24 768.78 308.39 <
1 10 11 1 539.83 621.80 289.41 <
1 10 11 2 141.72 146.53 147.59 <
2 10 11 -2 9.68 -43.12 74.86 <
2 10 11 -1 30.32 -70.00 97.18 <
2 10 11 0 2049.21 1992.64 530.24 o
-1 11 11 -2 131.82 -139.70 157.61 <
0 11 11 -2 287.24 80.32 114.19 <
0 11 11 -1 628.83 777.89 339.37 <
0 11 11 1 1514.15 1220.82 408.31 <
0 11 11 2 13.82 335.57 208.63 <
1 11 11 -2 123.06 50.87 57.40 <
1 11 11 -1 499.27 454.62 212.73 <
1 11 11 0 221.45 -124.51 122.99 <
1 11 11 1 458.55 293.06 227.01 <
1 11 11 2 102.35 -130.89 136.20 <
2 11 11 -2 119.18 47.68 77.59 <
-1 12 11 -2 63.34 65.60 114.64 <
-1 12 11 -1 167.82 443.08 279.09 <
0 12 11 -2 22.53 37.35 41.45 <
0 12 11 -1 260.08 229.89 212.58 <
0 12 11 0 375.87 433.82 261.32 <
0 12 11 2 142.52 249.93 178.72 <
1 12 11 -2 19.78 -110.54 145.92 <
1 12 11 -1 511.93 356.07 196.33 <
1 12 11 0 1766.05 1496.26 425.92 o
-2 13 11 -2 112.38 -127.85 172.65 <
-1 13 11 -2 17.49 48.89 100.22 <
-1 13 11 -1 55.32 -158.22 208.02 <
0 13 11 -1 64.95 -83.21 121.47 <
0 13 11 0 1856.96 2444.98 633.03 o
1 13 11 -2 112.03 -238.24 195.42 <
1 13 11 -1 138.16 294.58 176.74 <
-2 14 11 -2 100.04 -124.21 176.59 <
-1 14 11 -1 245.07 186.62 192.54 <
-1 14 11 0 5540.90 6423.88 1098.13 o
0 14 11 -2 0.80 122.08 150.17 <
0 14 11 -1 84.34 -79.72 123.14 <
0 14 11 0 254.47 374.14 257.22 <
1 14 11 -2 18.79 -281.82 219.57 <
-1 15 11 -2 17.84 404.81 292.75 <
-1 15 11 -1 96.00 420.91 294.27 <
-1 15 11 0 142.28 105.68 148.35 <
0 15 11 -2 395.75 450.52 291.54 <
0 15 11 -1 338.78 89.89 74.86 <
0 15 11 0 1578.54 1118.93 451.73 <
0 15 11 1 19.87 -361.69 259.20 <
1 15 11 -2 25.59 76.23 120.56 <
0 16 11 -2 40.65 14.12 68.18 <
0 16 11 -1 274.75 329.65 255.40 <
1 16 11 -2 94.04 60.59 113.28 <
0 -15 12 -2 17.29 377.03 219.26 <
1 -15 12 -2 275.29 658.24 357.74 <
0 -14 12 -2 35.49 204.84 158.52 <
1 -14 12 -2 6.96 36.75 74.71 <
-1 -13 12 -2 109.95 -94.60 115.25 <
-1 -13 12 -1 520.29 236.72 176.90 <
0 -13 12 -2 44.16 29.91 78.20 <
0 -13 12 -1 428.96 640.78 336.64 <
0 -13 12 0 134.00 361.08 249.93 <
1 -13 12 -2 87.67 59.52 69.24 <
1 -13 12 -1 294.20 -278.94 229.13 <
-1 -12 12 -2 66.63 295.49 170.37 <
-1 -12 12 -1 854.43 681.32 308.39 <
-1 -12 12 0 1322.08 2129.75 622.56 o
-1 -12 12 1 186.62 641.54 347.42 <
0 -12 12 -2 26.76 -18.83 96.57 <
0 -12 12 -1 177.79 115.55 139.09 <
0 -12 12 0 71.25 6.83 45.86 <
1 -12 12 -2 43.97 12.60 56.94 <
1 -12 12 -1 11.19 -54.36 90.04 <
2 -12 12 -2 15.11 -105.68 136.20 <
-1 -11 12 -2 72.56 12.45 41.00 <
-1 -11 12 -1 1062.71 1019.48 268.91 o
-1 -11 12 0 105.07 32.49 80.78 <
-1 -11 12 1 8.94 -227.01 207.57 <
0 -11 12 -2 33.55 56.49 68.79 <
0 -11 12 -1 313.73 289.57 154.58 <
0 -11 12 0 21.26 121.02 147.74 <
0 -11 12 1 232.21 30.98 84.27 <
1 -11 12 -2 264.19 407.55 190.56 <
1 -11 12 -1 1380.11 1079.60 440.04 <
2 -11 12 -2 200.79 314.16 229.89 <
-2 -10 12 -2 1265.85 1089.32 403.30 <
-2 -10 12 -1 1109.03 1866.30 506.40 o
-2 -10 12 0 2359.83 2935.89 628.78 o
-2 -10 12 1 34.71 -200.28 203.01 <
-1 -10 12 -2 240.06 412.56 143.49 <
-1 -10 12 -1 150.24 391.76 188.59 <
-1 -10 12 0 150.58 188.13 187.53 <
-1 -10 12 1 901.92 613.45 339.52 <
0 -10 12 -2 217.10 -97.03 116.77 <
0 -10 12 -1 1189.47 1359.45 333.90 o
0 -10 12 0 11139.00 12151.20 1002.77 o
0 -10 12 1 6.73 15.34 60.89 <
1 -10 12 -2 8.78 -169.91 172.19 <
1 -10 12 -1 33.03 -309.00 233.54 <
1 -10 12 0 70.10 129.67 153.82 <
2 -10 12 -2 76.83 -118.29 141.82 <
-2 -9 12 -2 9.07 131.95 133.01 <
-2 -9 12 -1 52.66 -112.52 123.14 <
-2 -9 12 0 415.24 114.64 96.72 <
-2 -9 12 1 24.73 -213.04 208.63 <
-1 -9 12 -2 21.91 -84.58 56.79 <
-1 -9 12 -1 45.81 172.49 123.90 <
-1 -9 12 0 396.37 -98.39 92.47 <
-1 -9 12 1 93.99 144.55 169.15 <
-1 -9 12 2 40.08 -213.49 204.53 <
0 -9 12 -2 190.26 112.67 97.94 <
0 -9 12 -1 9.64 54.82 82.75 <
0 -9 12 0 495.11 326.46 154.58 <
0 -9 12 1 247.26 419.69 278.33 <
1 -9 12 -2 0.53 -76.53 116.92 <
1 -9 12 -1 81.00 175.07 174.77 <
1 -9 12 0 277.64 128.61 152.30 <
2 -9 12 -2 252.33 -252.67 203.17 <
2 -9 12 -1 0.95 -135.90 153.36 <
-2 -8 12 -2 695.54 441.56 203.32 <
-2 -8 12 -1 37.41 -191.78 154.42 <
-2 -8 12 0 74.62 107.20 152.30 <
-2 -8 12 1 176.60 130.59 165.51 <
-1 -8 12 -2 106.04 106.90 76.98 <
-1 -8 12 -1 144.64 -5.92 77.29 <
-1 -8 12 0 467.31 258.29 139.70 <
-1 -8 12 1 58.54 -8.81 135.44 <
-1 -8 12 2 6.31 -321.00 248.87 <
0 -8 12 -2 57.46 15.34 74.71 <
0 -8 12 -1 2.08 157.16 125.27 <
0 -8 12 0 1463.72 2228.15 627.57 o
0 -8 12 1 168.32 75.16 150.17 <
1 -8 12 -2 15.65 -104.16 134.38 <
1 -8 12 -1 207.52 197.24 185.40 <
1 -8 12 0 522.34 145.31 160.04 <
2 -8 12 -2 34.73 -49.50 92.62 <
2 -8 12 -1 75.44 193.45 179.63 <
-2 -7 12 -2 419.82 549.82 200.13 <
-2 -7 12 -1 1462.59 1684.40 351.52 o
-2 -7 12 1 122.89 -490.30 317.05 <
-1 -7 12 -2 24.41 -79.11 83.97 <
-1 -7 12 -1 268.81 252.97 127.70 <
-1 -7 12 0 309.89 366.55 198.31 <
-1 -7 12 1 922.08 927.46 279.70 o
-1 -7 12 2 82.47 215.62 204.53 <
0 -7 12 -2 330.69 280.76 147.29 <
0 -7 12 -1 3578.68 4961.63 941.43 o
0 -7 12 0 933.91 1494.44 539.50 <
0 -7 12 1 13.92 176.44 180.54 <
0 -7 12 2 9.95 -95.51 135.29 <
1 -7 12 -2 69.78 -109.02 136.81 <
1 -7 12 -1 29.48 -258.59 209.39 <
1 -7 12 0 346.86 665.98 363.36 <
1 -7 12 1 2241.51 2641.01 684.81 o
2 -7 12 -2 502.98 178.42 173.10 <
2 -7 12 -1 4679.17 4998.37 916.68 o
-2 -6 12 -2 25.26 40.24 84.42 <
-2 -6 12 -1 64.23 159.43 141.67 <
-2 -6 12 0 340.97 156.85 281.52 <
-2 -6 12 1 211.54 9.57 58.31 <
-1 -6 12 -2 626.72 577.61 171.89 o
-1 -6 12 -1 3549.17 3998.49 578.98 o
-1 -6 12 0 5548.58 7673.85 803.55 o
-1 -6 12 1 157.72 166.12 141.82 <
-1 -6 12 2 338.70 199.67 124.21 <
0 -6 12 -2 51.99 -18.98 61.65 <
0 -6 12 -1 35.78 174.16 196.03 <
0 -6 12 0 265.66 210.15 193.60 <
0 -6 12 1 142.18 639.41 339.22 <
0 -6 12 2 125.33 185.55 213.34 <
1 -6 12 -2 56.06 92.62 124.66 <
1 -6 12 -1 255.56 339.52 238.85 <
1 -6 12 0 5737.79 6002.97 1007.02 o
1 -6 12 1 702.09 708.96 338.00 <
2 -6 12 -2 5.77 -156.10 155.64 <
2 -6 12 -1 96.46 502.60 283.19 <
3 -6 12 -2 42.00 229.59 251.00 <
-2 -5 12 -2 32.74 52.54 89.28 <
-2 -5 12 -1 348.52 657.48 201.50 o
-2 -5 12 0 271.99 216.68 246.44 <
-2 -5 12 1 109.98 25.36 143.34 <
-2 -5 12 2 53.96 120.11 157.61 <
-1 -5 12 -2 148.38 -159.59 119.04 <
-1 -5 12 -1 60.71 -83.97 86.10 <
-1 -5 12 0 216.23 42.06 89.89 <
-1 -5 12 1 183.49 -44.19 143.95 <
-1 -5 12 2 30.94 9.87 112.97 <
0 -5 12 -2 33.33 -89.89 125.27 <
0 -5 12 -1 106.03 67.87 131.50 <
0 -5 12 0 309.11 226.55 200.43 <
0 -5 12 1 143.69 135.29 109.18 <
0 -5 12 2 54.29 389.02 266.64 <
1 -5 12 -2 30.46 222.91 190.41 <
1 -5 12 -1 170.99 -180.24 173.86 <
1 -5 12 0 168.48 -38.42 86.55 <
1 -5 12 1 634.95 989.56 409.67 <
2 -5 12 -2 74.53 -52.69 78.35 <
2 -5 12 -1 23.97 148.96 155.94 <
2 -5 12 0 230.17 -11.84 51.78 <
3 -5 12 -2 82.39 110.85 140.91 <
-3 -4 12 0 1855.68 1594.20 456.74 o
-2 -4 12 -2 481.41 346.20 188.59 <
-2 -4 12 -1 336.71 297.31 146.98 <
-2 -4 12 0 118.76 -328.89 239.91 <
-2 -4 12 1 180.80 -164.90 126.49 <
-2 -4 12 2 300.62 235.21 217.29 <
-1 -4 12 -2 76.70 170.52 120.11 <
-1 -4 12 -1 766.72 1183.16 300.50 o
-1 -4 12 0 6298.50 5210.80 661.43 o
-1 -4 12 1 474.96 590.67 222.15 <
-1 -4 12 2 15.41 132.10 158.68 <
0 -4 12 -2 213.93 -218.96 191.32 <
0 -4 12 -1 408.36 428.50 268.91 <
0 -4 12 0 271.61 24.45 70.46 <
0 -4 12 1 30.70 226.70 213.49 <
0 -4 12 2 439.84 112.82 147.14 <
1 -4 12 -2 1.12 -33.71 78.65 <
1 -4 12 -1 377.52 105.38 219.41 <
1 -4 12 0 6101.51 6158.00 1020.39 o
1 -4 12 1 1395.80 1927.04 583.68 o
2 -4 12 -2 88.64 -46.92 88.52 <
2 -4 12 -1 20.51 -146.07 153.82 <
2 -4 12 0 301.71 192.23 247.96 <
3 -4 12 -2 5.17 61.65 107.35 <
-3 -3 12 -1 805.33 592.95 275.44 <
-3 -3 12 0 50.16 14.58 49.20 <
-2 -3 12 -2 149.71 -18.37 45.55 <
-2 -3 12 -1 50.14 562.28 312.64 <
-2 -3 12 0 778.53 757.55 361.99 <
-2 -3 12 1 1203.89 922.60 293.67 o
-2 -3 12 2 49.30 347.42 180.24 <
-1 -3 12 -2 116.71 -25.05 103.40 <
-1 -3 12 -1 2940.27 3417.84 531.91 o
-1 -3 12 0 583.01 593.55 216.83 <
-1 -3 12 1 130.96 -114.64 146.68 <
-1 -3 12 2 25.99 109.48 145.31 <
0 -3 12 -2 27.04 201.95 182.21 <
0 -3 12 -1 24.65 77.14 117.68 <
0 -3 12 0 597.00 1017.50 431.69 <
0 -3 12 1 2515.85 3571.96 798.39 o
0 -3 12 2 106.13 730.67 363.51 <
1 -3 12 -2 504.58 580.80 302.77 <
1 -3 12 -1 3592.93 4343.47 852.14 o
1 -3 12 0 707.50 230.65 195.57 <
1 -3 12 1 518.64 426.22 308.09 <
2 -3 12 -2 116.41 329.35 223.82 <
2 -3 12 -1 43.75 -227.92 189.20 <
2 -3 12 0 790.89 677.22 336.03 <
3 -3 12 -2 211.87 434.12 269.67 <
-3 -2 12 -2 33.76 -109.48 123.75 <
-3 -2 12 -1 43.98 87.16 109.02 <
-2 -2 12 -2 678.65 509.13 199.52 <
-2 -2 12 -1 287.40 565.31 314.32 <
-2 -2 12 0 128.25 216.53 196.79 <
-2 -2 12 1 15.13 -143.34 116.16 <
-2 -2 12 2 43.42 155.94 120.56 <
-1 -2 12 -2 112.71 72.43 96.72 <
-1 -2 12 -1 153.02 153.36 119.80 <
-1 -2 12 0 627.59 870.36 246.59 o
-1 -2 12 1 20.00 -95.21 133.47 <
-1 -2 12 2 15.47 -104.32 141.37 <
0 -2 12 -2 84.30 73.64 113.43 <
0 -2 12 -1 254.71 905.14 385.98 <
0 -2 12 0 1874.30 2266.41 623.47 o
0 -2 12 1 248.05 574.58 318.11 <
0 -2 12 2 78.34 -22.47 71.67 <
1 -2 12 -2 14.83 -14.73 54.66 <
1 -2 12 -1 11.78 -64.38 54.82 <
1 -2 12 0 608.52 617.55 329.65 <
1 -2 12 1 682.55 953.42 400.11 <
2 -2 12 -2 2.39 75.62 109.02 <
2 -2 12 -1 19.88 -141.82 149.87 <
2 -2 12 0 100.61 59.37 99.76 <
3 -2 12 -2 75.86 186.01 200.43 <
-3 -1 12 -2 1.87 -64.53 96.27 <
-3 -1 12 -1 322.13 537.68 262.39 <
-3 -1 12 0 304.38 -21.71 80.02 <
-2 -1 12 -2 120.46 8.05 100.37 <
-2 -1 12 -1 188.40 220.63 199.98 <
-2 -1 12 0 28.15 74.25 119.20 <
-2 -1 12 1 34.59 -305.05 232.93 <
-2 -1 12 2 29.17 507.00 201.65 <
-1 -1 12 -2 14.71 -194.51 124.82 <
-1 -1 12 -1 392.80 -90.19 126.79 <
-1 -1 12 0 693.37 1167.37 447.03 <
-1 -1 12 1 769.68 1019.32 437.16 <
-1 -1 12 2 9.17 -88.83 131.34 <
0 -1 12 -2 56.99 8.50 49.50 <
0 -1 12 -1 292.24 229.59 195.57 <
0 -1 12 0 36.80 288.96 235.51 <
0 -1 12 1 319.69 416.35 270.74 <
0 -1 12 2 154.71 394.34 266.48 <
1 -1 12 -2 159.26 -166.88 162.47 <
1 -1 12 -1 85.66 -18.83 111.15 <
1 -1 12 0 699.33 814.94 382.04 <
1 -1 12 1 1699.24 2017.54 595.38 o
1 -1 12 2 21.68 28.39 154.88 <
2 -1 12 -2 75.27 -5.62 39.78 <
2 -1 12 -1 504.95 362.15 297.61 <
2 -1 12 0 35.77 300.50 221.54 <
3 -1 12 -2 129.37 -107.05 134.23 <
3 -1 12 -1 18.98 -375.81 256.92 <
-3 0 12 -2 274.64 68.03 98.85 <
-3 0 12 -1 466.40 305.20 195.27 <
-3 0 12 0 17.86 -43.88 99.91 <
-3 0 12 1 58.80 -298.52 248.72 <
-2 0 12 -2 719.48 461.91 164.75 <
-2 0 12 -1 333.57 14.88 61.65 <
-2 0 12 0 12736.20 11679.60 1443.27 o
-2 0 12 1 2632.89 2913.57 725.81 o
-2 0 12 2 37.15 584.14 230.65 <
-1 0 12 -2 763.79 370.04 160.50 <
-1 0 12 -1 1738.26 1311.62 313.40 o
-1 0 12 0 2.21 7.29 46.01 <
-1 0 12 1 54.94 -43.12 89.28 <
-1 0 12 2 668.74 210.91 196.94 <
0 0 12 -2 17.77 167.94 158.52 <
0 0 12 -1 142.11 -64.84 105.07 <
0 0 12 0 6359.16 6738.65 1082.03 o
0 0 12 1 1275.38 1768.52 552.25 o
0 0 12 2 41.72 -197.55 188.74 <
1 0 12 -2 146.61 -207.42 179.48 <
1 0 12 -1 325.10 113.28 137.27 <
1 0 12 0 6.01 -15.94 59.37 <
1 0 12 1 4.70 -35.08 81.54 <
1 0 12 2 826.54 1625.94 530.84 o
2 0 12 -2 1.97 -12.15 37.96 <
2 0 12 -1 118.15 283.04 211.52 <
2 0 12 0 12460.20 12534.20 1450.71 o
3 0 12 -2 10.95 246.29 199.07 <
3 0 12 -1 66.36 -38.11 87.31 <
-3 1 12 -2 2.61 -129.52 133.17 <
-3 1 12 -1 309.10 296.55 193.90 <
-3 1 12 0 298.68 -10.93 53.45 <
-3 1 12 1 449.20 164.45 184.79 <
-3 1 12 2 1.75 100.67 147.44 <
-2 1 12 -2 119.45 176.29 177.81 <
-2 1 12 -1 202.72 273.62 227.46 <
-2 1 12 0 24.53 114.94 238.55 <
-2 1 12 1 33.89 -60.74 108.87 <
-2 1 12 2 26.95 -31.13 198.31 <
-1 1 12 -2 12.03 157.31 124.21 <
-1 1 12 -1 368.91 73.34 112.21 <
-1 1 12 0 689.20 567.29 305.81 <
-1 1 12 1 774.28 725.51 349.54 <
-1 1 12 2 8.08 -240.52 206.66 <
0 1 12 -2 51.80 134.23 77.90 <
0 1 12 -1 328.78 104.77 61.04 <
0 1 12 0 41.36 160.50 164.90 <
0 1 12 1 295.89 626.35 327.83 <
0 1 12 2 149.25 524.77 306.12 <
1 1 12 -2 157.83 74.56 75.92 <
1 1 12 -1 78.70 23.84 68.33 <
1 1 12 0 699.34 1048.17 453.25 <
1 1 12 1 1721.60 2718.60 669.02 o
1 1 12 2 21.89 -6.38 45.86 <
2 1 12 -2 76.56 128.00 129.22 <
2 1 12 -1 518.97 597.50 305.36 <
2 1 12 0 32.45 102.19 131.65 <
3 1 12 -2 127.65 -23.08 64.69 <
3 1 12 -1 19.10 36.59 84.88 <
-3 2 12 -2 33.23 337.24 204.38 <
-3 2 12 1 15.61 199.83 199.83 <
-3 2 12 2 40.37 -24.60 70.30 <
-2 2 12 -2 659.20 360.17 251.00 <
-2 2 12 -1 300.05 462.36 277.42 <
-2 2 12 0 141.28 -17.46 68.03 <
-2 2 12 1 14.69 263.14 218.20 <
-2 2 12 2 44.68 10.17 182.21 <
-1 2 12 -2 114.52 -140.00 123.60 <
-1 2 12 -1 141.45 113.88 134.99 <
-1 2 12 0 608.76 571.69 303.38 <
-1 2 12 1 14.92 -31.89 78.81 <
-1 2 12 2 15.78 -69.39 109.33 <
0 2 12 -2 78.76 282.43 232.62 <
0 2 12 -1 274.08 123.75 141.67 <
0 2 12 0 1846.94 2144.03 594.77 o
0 2 12 1 235.26 474.96 277.57 <
0 2 12 2 68.50 -14.88 54.51 <
1 2 12 -2 14.51 239.00 233.84 <
1 2 12 -1 11.97 187.07 172.34 <
1 2 12 0 602.77 236.57 197.24 <
1 2 12 1 671.45 938.39 396.01 <
1 2 12 2 41.29 297.16 226.85 <
2 2 12 -2 1.67 155.49 154.42 <
2 2 12 -1 22.75 174.01 106.75 <
2 2 12 0 113.89 245.99 201.50 <
2 2 12 1 567.83 736.14 354.25 <
3 2 12 -2 76.65 -75.47 111.91 <
3 2 12 -1 0.46 -41.45 86.85 <
-3 3 12 -2 9.74 20.80 59.67 <
-2 3 12 -2 145.30 91.56 128.16 <
-2 3 12 -1 50.19 196.03 187.98 <
-2 3 12 0 773.88 681.47 353.95 <
-2 3 12 1 1199.06 1441.30 516.57 <
-1 3 12 -2 101.88 291.39 212.28 <
-1 3 12 -1 2986.81 2604.57 633.49 o
-1 3 12 0 589.40 389.78 248.41 <
-1 3 12 1 136.44 -30.22 96.27 <
-1 3 12 2 25.99 -297.46 225.49 <
0 3 12 -2 29.38 -69.09 101.74 <
0 3 12 -1 30.12 -88.07 117.38 <
0 3 12 0 598.10 1468.48 483.47 o
0 3 12 1 2505.02 3714.39 800.52 o
0 3 12 2 104.91 437.31 276.05 <
1 3 12 -2 506.74 455.53 305.96 <
1 3 12 -1 3628.65 4646.70 863.08 o
1 3 12 0 714.76 480.89 311.43 <
1 3 12 1 563.19 699.69 326.77 <
1 3 12 2 8.29 162.02 168.24 <
2 3 12 -2 114.27 48.29 164.75 <
2 3 12 -1 43.73 -103.86 108.72 <
2 3 12 0 793.14 1183.47 439.89 <
2 3 12 1 1401.17 1485.48 512.77 <
3 3 12 -2 211.81 69.70 108.11 <
3 3 12 -1 2503.06 2595.00 683.75 o
-3 4 12 -2 17.53 93.84 113.73 <
-2 4 12 -2 482.83 401.62 261.17 <
-2 4 12 -1 334.90 53.30 103.25 <
-2 4 12 0 113.08 -243.56 210.15 <
-2 4 12 1 177.61 278.94 208.48 <
-2 4 12 2 301.93 -268.76 216.38 <
-1 4 12 -1 758.96 1225.53 443.84 <
-1 4 12 0 6277.57 5275.03 916.53 o
-1 4 12 1 470.70 724.60 360.17 <
-1 4 12 2 15.70 -20.65 62.86 <
0 4 12 -2 215.19 -64.23 97.18 <
0 4 12 -1 408.57 306.12 211.67 <
0 4 12 0 297.21 34.01 76.83 <
0 4 12 1 30.19 27.79 73.64 <
0 4 12 2 444.15 577.31 315.83 <
1 4 12 -2 1.22 197.70 170.82 <
1 4 12 -1 406.62 76.38 222.30 <
1 4 12 0 6106.02 8644.58 1184.68 o
1 4 12 1 1368.86 1988.08 643.66 o
1 4 12 2 60.92 59.67 103.71 <
2 4 12 -2 85.75 -51.93 93.08 <
2 4 12 -1 19.66 3.19 162.93 <
2 4 12 0 289.30 224.27 240.22 <
2 4 12 1 22.01 65.44 112.67 <
3 4 12 -2 6.03 -372.47 244.32 <
3 4 12 -1 103.31 3.95 38.87 <
-2 5 12 0 269.23 363.97 252.51 <
-2 5 12 1 106.06 397.98 262.84 <
-2 5 12 2 51.33 -289.26 222.15 <
-1 5 12 0 239.05 73.04 107.35 <
-1 5 12 1 198.42 30.67 73.49 <
-1 5 12 2 31.98 145.62 156.55 <
0 5 12 -2 32.38 184.64 159.43 <
0 5 12 -1 111.07 417.72 244.92 <
0 5 12 0 311.97 -94.14 121.47 <
0 5 12 1 142.32 180.69 171.43 <
0 5 12 2 53.27 -2.28 33.56 <
1 5 12 -2 32.36 138.48 127.09 <
1 5 12 -1 185.65 37.05 81.39 <
1 5 12 0 191.23 52.69 96.12 <
1 5 12 1 657.70 1342.75 473.30 <
1 5 12 2 120.26 43.88 162.32 <
2 5 12 -2 76.02 100.98 126.49 <
2 5 12 -1 25.64 93.54 124.66 <
2 5 12 0 235.98 2.28 35.83 <
2 5 12 1 96.03 -420.30 269.37 <
3 5 12 -2 82.47 29.31 74.71 <
3 5 12 -1 75.93 -146.23 158.22 <
-1 6 12 1 161.03 257.37 200.13 <
-1 6 12 2 339.39 198.61 179.18 <
0 6 12 -2 48.36 147.90 160.04 <
0 6 12 -1 39.42 0.46 27.18 <
0 6 12 0 247.40 46.62 87.31 <
0 6 12 1 135.17 143.19 151.08 <
0 6 12 2 117.76 67.57 108.87 <
1 6 12 -2 56.24 66.66 99.46 <
1 6 12 -1 260.04 150.02 152.30 <
1 6 12 0 5763.36 8209.25 1152.34 o
1 6 12 1 685.45 1066.24 425.16 <
1 6 12 2 356.95 294.42 219.26 <
2 6 12 -2 4.71 -60.13 95.51 <
2 6 12 -1 94.20 -184.64 171.89 <
2 6 12 0 262.46 123.75 102.34 <
2 6 12 1 96.83 -98.39 130.89 <
3 6 12 -2 42.15 194.66 178.26 <
3 6 12 -1 65.86 -42.52 87.16 <
-1 7 12 2 83.49 281.36 210.00 <
0 7 12 -2 339.74 316.44 203.17 <
0 7 12 -1 3501.73 3377.75 693.92 o
0 7 12 0 909.23 2223.44 573.51 o
0 7 12 1 7.17 -158.83 155.49 <
0 7 12 2 11.69 98.39 128.31 <
1 7 12 -2 66.84 -307.03 207.27 <
1 7 12 -1 29.71 -10.33 125.27 <
1 7 12 0 350.68 236.12 193.30 <
1 7 12 1 2250.61 2133.85 591.28 o
1 7 12 2 58.83 173.40 174.47 <
2 7 12 -2 500.15 30.37 71.82 <
2 7 12 -1 4696.46 4979.09 901.95 o
2 7 12 0 90.63 397.37 256.61 <
2 7 12 1 4.37 150.93 162.93 <
3 7 12 -2 51.69 -3.80 169.91 <
3 7 12 -1 25.70 -100.82 133.17 <
0 8 12 -2 55.38 268.46 185.25 <
0 8 12 -1 2.20 5.31 114.94 <
0 8 12 0 1469.32 1217.17 422.88 <
0 8 12 1 173.96 -32.34 72.13 <
0 8 12 2 41.13 -62.26 181.30 <
1 8 12 -2 17.34 149.41 139.70 <
1 8 12 -1 209.82 408.15 239.91 <
1 8 12 0 534.31 365.64 235.66 <
1 8 12 1 165.23 230.80 194.06 <
1 8 12 2 75.82 -210.46 190.71 <
2 8 12 -2 31.53 36.44 75.92 <
2 8 12 -1 71.66 -23.54 65.90 <
2 8 12 0 190.35 112.52 139.39 <
2 8 12 1 113.22 120.71 145.77 <
3 8 12 -2 65.62 -119.65 140.15 <
3 8 12 -1 96.48 133.47 151.08 <
0 9 12 -1 5.00 247.66 180.69 <
0 9 12 0 512.28 411.49 237.03 <
0 9 12 1 230.89 71.52 185.25 <
0 9 12 2 13.68 15.03 56.94 <
1 9 12 -2 0.60 173.10 149.11 <
1 9 12 -1 89.26 -109.02 122.39 <
1 9 12 0 285.12 153.51 151.24 <
1 9 12 1 0.86 -137.87 147.74 <
2 9 12 -2 249.32 630.15 297.76 <
2 9 12 -1 2.03 -7.74 219.41 <
2 9 12 0 595.78 92.93 124.66 <
0 10 12 0 11203.70 11412.10 1254.38 o
0 10 12 1 8.03 31.58 22.47 <
0 10 12 2 620.38 701.21 322.21 <
1 10 12 -2 9.39 191.32 152.45 <
1 10 12 -1 32.82 -50.56 84.12 <
1 10 12 0 68.12 28.55 67.57 <
1 10 12 1 656.89 742.82 333.45 <
2 10 12 -2 74.73 148.96 144.40 <
2 10 12 -1 108.41 48.89 87.92 <
0 11 12 1 228.42 30.06 67.11 <
1 11 12 -2 264.48 488.63 241.43 <
1 11 12 -1 1405.27 1268.65 395.10 o
1 11 12 0 43.26 266.48 179.63 <
1 11 12 1 387.00 403.75 242.19 <
2 11 12 -2 199.03 52.99 85.18 <
1 12 12 -2 42.60 174.77 143.19 <
1 12 12 -1 8.79 118.89 122.54 <
0 14 12 -2 33.28 214.71 198.31 <
0 15 12 -2 18.02 13.51 65.14 <
0 -13 13 -2 3.55 99.76 137.42 <
0 -12 13 -2 256.46 -174.92 180.69 <
-1 -11 13 -2 51.96 175.53 184.34 <
-1 -11 13 -1 24.08 -101.89 140.30 <
0 -11 13 -2 29.11 4.40 39.18 <
0 -11 13 -1 0.39 -295.49 238.55 <
1 -11 13 -2 21.56 248.41 216.38 <
-1 -10 13 -2 254.22 -14.88 56.18 <
-1 -10 13 -1 590.24 1240.71 522.49 <
0 -10 13 -2 13.51 -154.73 170.22 <
0 -10 13 -1 150.00 375.36 267.85 <
1 -10 13 -2 166.52 43.12 92.17 <
-1 -9 13 -2 35.87 -317.05 247.05 <
-1 -9 13 -1 921.85 890.10 421.82 <
0 -9 13 -2 48.79 232.93 136.96 <
0 -9 13 -1 350.31 166.42 178.57 <
1 -9 13 -2 71.22 -5.62 41.15 <
-2 -8 13 -2 7.19 -207.57 166.57 <
-1 -8 13 -2 375.21 519.15 314.77 <
-1 -8 13 -1 685.13 343.17 258.13 <
0 -8 13 -2 33.73 -235.66 137.57 <
0 -8 13 -1 183.56 -169.15 179.93 <
1 -8 13 -2 195.73 -198.76 192.08 <
1 -8 13 -1 182.06 192.99 252.82 <
-1 -7 13 -2 74.22 -118.89 132.10 <
-1 -7 13 -1 212.32 57.70 106.90 <
0 -7 13 -2 2.65 111.00 97.94 <
0 -7 13 -1 128.02 300.80 218.35 <
0 -7 13 0 40.13 -185.40 188.13 <
1 -7 13 -2 25.72 63.93 109.78 <
1 -7 13 -1 168.85 -129.52 154.27 <
2 -7 13 -2 5.08 217.90 192.84 <
-1 -6 13 -2 483.00 344.38 177.05 <
-1 -6 13 -1 1403.93 1735.26 402.38 o
-1 -6 13 0 965.45 1634.74 555.75 <
0 -6 13 -2 375.18 508.37 222.91 <
0 -6 13 -1 884.34 1021.60 436.55 <
0 -6 13 0 137.22 -475.57 300.95 <
1 -6 13 -2 133.37 -404.21 267.09 <
1 -6 13 -1 320.39 22.32 68.03 <
2 -6 13 -2 189.93 223.06 193.45 <
-1 -5 13 -2 6.27 -55.88 83.67 <
-1 -5 13 -1 696.60 681.17 228.98 <
-1 -5 13 0 144.61 166.88 180.24 <
0 -5 13 -2 29.26 288.65 202.56 <
0 -5 13 -1 76.72 145.47 165.81 <
0 -5 13 0 193.36 68.18 117.68 <
1 -5 13 -2 41.96 -81.24 121.02 <
1 -5 13 -1 26.32 -294.88 229.28 <
2 -5 13 -2 69.17 -118.29 141.97 <
-1 -4 13 -2 117.61 10.93 111.00 <
-1 -4 13 -1 3.50 45.70 83.06 <
-1 -4 13 0 2003.76 2610.18 486.20 o
0 -4 13 -2 122.90 155.79 238.85 <
0 -4 13 -1 329.78 116.46 148.35 <
0 -4 13 0 932.03 758.76 379.00 <
1 -4 13 -2 1.73 135.75 169.15 <
1 -4 13 -1 144.53 -219.87 197.09 <
2 -4 13 -2 92.62 2.28 31.43 <
-2 -3 13 -2 139.95 700.60 364.12 <
-1 -3 13 -2 5.26 -123.90 104.32 <
-1 -3 13 -1 1607.38 1588.43 382.80 o
-1 -3 13 0 844.11 1111.19 304.14 o
0 -3 13 -2 86.08 61.34 108.42 <
0 -3 13 -1 155.61 18.37 66.66 <
0 -3 13 0 2639.10 3275.11 780.78 o
1 -3 13 -2 78.11 191.32 157.76 <
1 -3 13 -1 517.36 809.02 374.14 <
1 -3 13 0 789.69 1041.80 447.48 <
2 -3 13 -2 4.91 103.71 137.57 <
-2 -2 13 -2 559.11 129.07 138.33 <
-2 -2 13 -1 1137.78 1286.11 492.12 <
-1 -2 13 -2 978.82 1152.95 314.77 o
-1 -2 13 -1 2813.04 3917.40 587.03 o
-1 -2 13 0 262.40 380.06 184.49 <
0 -2 13 -2 449.29 309.46 232.78 <
0 -2 13 -1 1999.21 2979.47 737.05 o
0 -2 13 0 4888.65 5867.98 1053.34 o
1 -2 13 -2 312.89 119.80 116.92 <
1 -2 13 -1 820.16 1071.56 428.96 <
1 -2 13 0 266.07 251.60 123.60 <
2 -2 13 -2 138.93 54.97 96.88 <
2 -2 13 -1 645.96 308.09 280.45 <
-2 -1 13 -2 396.27 28.39 85.64 <
-2 -1 13 -1 182.73 142.28 167.94 <
-2 -1 13 0 253.68 -59.98 110.24 <
-1 -1 13 -2 95.77 92.32 91.71 <
-1 -1 13 -1 282.63 349.85 178.42 <
-1 -1 13 0 302.32 374.90 147.44 <
0 -1 13 -2 37.63 -272.41 217.29 <
0 -1 13 -1 802.05 1269.26 473.90 <
0 -1 13 0 56.46 130.43 157.76 <
1 -1 13 -2 16.96 -36.90 61.04 <
1 -1 13 -1 100.68 527.35 365.79 <
1 -1 13 0 228.25 442.77 278.94 <
2 -1 13 -2 228.43 176.74 170.22 <
2 -1 13 -1 1283.85 1512.21 502.60 o
-2 0 13 -2 16.39 100.52 143.04 <
-2 0 13 -1 74.50 186.16 190.11 <
-2 0 13 0 268.87 -41.60 94.45 <
-1 0 13 -2 7.20 73.80 137.11 <
-1 0 13 -1 214.54 197.55 132.26 <
-1 0 13 0 234.64 -82.45 127.70 <
0 0 13 -2 65.98 -394.34 259.35 <
0 0 13 -1 53.68 126.79 149.26 <
0 0 13 0 151.29 45.70 95.51 <
1 0 13 -2 31.65 -178.57 173.71 <
1 0 13 -1 38.02 -95.96 131.04 <
1 0 13 0 551.71 0.61 27.03 <
2 0 13 -2 10.97 -72.88 113.28 <
2 0 13 -1 146.01 -283.49 218.20 <
-2 1 13 -2 393.63 601.15 339.52 <
-2 1 13 -1 182.01 25.05 78.05 <
-2 1 13 0 256.74 147.90 170.22 <
-1 1 13 -2 95.96 -17.92 145.31 <
-1 1 13 -1 274.57 189.20 129.07 <
-1 1 13 0 322.64 603.27 350.61 <
0 1 13 -2 38.85 200.59 184.03 <
0 1 13 -1 793.61 1213.68 480.89 <
0 1 13 0 51.93 -202.86 192.54 <
1 1 13 -2 17.11 -167.48 170.37 <
1 1 13 -1 97.70 233.99 202.86 <
1 1 13 0 243.93 271.34 220.32 <
2 1 13 -2 233.04 212.43 188.29 <
2 1 13 -1 1295.28 1456.78 519.61 <
-2 2 13 -2 558.94 570.02 329.35 <
-2 2 13 -1 1117.25 1040.13 442.47 <
-2 2 13 0 823.14 816.61 403.30 <
-2 2 13 1 59.43 -140.76 166.27 <
-1 2 13 -2 986.87 509.28 274.84 <
-1 2 13 -1 2837.01 2762.79 700.60 o
-1 2 13 0 267.73 145.16 161.26 <
0 2 13 -2 455.15 8.81 43.73 <
0 2 13 -1 1951.36 3069.81 722.77 o
0 2 13 0 4810.65 5915.05 1043.01 o
1 2 13 -2 310.83 217.29 192.69 <
1 2 13 -1 826.19 1391.19 502.14 <
1 2 13 0 273.64 441.71 299.59 <
2 2 13 -2 138.98 -153.82 160.04 <
2 2 13 -1 646.16 870.06 383.71 <
-2 3 13 -2 140.47 12.15 57.55 <
-2 3 13 -1 284.97 -41.45 94.60 <
-2 3 13 0 693.07 900.43 409.67 <
-2 3 13 1 5.33 202.86 195.27 <
-1 3 13 -2 5.12 17.77 62.71 <
-1 3 13 -1 1594.13 1721.60 539.20 o
-1 3 13 0 800.23 1117.41 462.82 <
0 3 13 -2 85.74 155.18 179.48 <
0 3 13 -1 150.71 186.46 177.05 <
0 3 13 0 2666.54 3441.37 799.61 o
1 3 13 -2 72.61 148.35 255.40 <
1 3 13 -1 500.33 874.16 386.74 <
1 3 13 0 754.64 1102.99 440.95 <
2 3 13 -2 5.13 132.71 150.48 <
2 3 13 -1 3.05 38.57 85.34 <
3 3 13 -2 69.84 370.95 252.67 <
-2 4 13 0 252.77 3.19 39.93 <
-2 4 13 1 57.79 -444.75 285.16 <
-1 4 13 -2 106.69 339.07 235.81 <
0 4 13 -2 119.78 -158.22 157.61 <
0 4 13 -1 330.79 341.04 235.96 <
0 4 13 0 941.90 1459.52 497.59 <
1 4 13 -2 2.45 108.42 134.38 <
1 4 13 -1 156.25 -360.48 248.72 <
1 4 13 0 1832.00 1826.22 566.07 o
2 4 13 -2 93.60 480.28 281.36 <
2 4 13 -1 49.07 53.75 98.70 <
3 4 13 -2 3.43 -154.27 164.45 <
0 5 13 -2 24.32 -133.32 144.71 <
0 5 13 -1 74.34 -68.94 107.66 <
0 5 13 0 220.65 110.09 195.27 <
1 5 13 -2 41.47 143.34 152.75 <
1 5 13 -1 34.49 -101.89 134.53 <
1 5 13 0 150.90 37.05 84.73 <
2 5 13 -2 71.35 165.81 165.66 <
2 5 13 -1 134.33 140.76 158.68 <
3 5 13 -2 61.09 476.18 286.53 <
0 6 13 -2 372.78 341.34 224.58 <
0 6 13 -1 876.01 1399.23 465.25 o
0 6 13 0 115.37 322.06 229.13 <
1 6 13 -2 134.59 52.08 93.23 <
1 6 13 -1 326.59 414.23 261.63 <
1 6 13 0 1077.95 1642.49 548.61 <
2 6 13 -2 190.17 172.65 169.46 <
2 6 13 -1 308.72 284.71 223.51 <
3 6 13 -2 68.24 87.61 124.82 <
0 7 13 -2 1.74 37.20 75.16 <
0 7 13 -1 129.23 13.82 53.15 <
0 7 13 0 30.53 -97.03 124.97 <
1 7 13 -2 25.82 50.87 92.02 <
1 7 13 -1 165.26 105.99 66.51 <
1 7 13 0 1488.69 1987.78 580.80 o
2 7 13 -2 4.40 5.62 37.96 <
2 7 13 -1 35.44 -190.26 181.45 <
3 7 13 -2 36.20 -187.83 181.30 <
0 8 13 -2 40.72 279.09 200.28 <
0 8 13 -1 160.92 -153.51 152.15 <
0 8 13 0 743.89 774.10 346.96 <
1 8 13 -2 198.81 -169.30 158.52 <
1 8 13 -1 183.25 -67.42 106.90 <
1 8 13 0 134.92 344.08 239.76 <
2 8 13 -2 1.59 -415.29 259.65 <
2 8 13 -1 29.71 -132.10 152.75 <
3 8 13 -2 118.58 56.03 102.80 <
0 9 13 -1 360.69 179.78 230.04 <
1 9 13 -2 72.23 51.17 87.92 <
1 9 13 -1 557.17 453.40 261.93 <
2 9 13 -2 14.25 -147.14 155.03 <
2 9 13 -1 74.91 29.61 73.34 <
1 10 13 -2 165.70 334.66 206.05 <
1 10 13 -1 116.25 -6.53 35.83 <
2 10 13 -2 64.75 -243.56 192.84 <
1 11 13 -2 24.01 14.12 49.50 <
1 11 13 -1 586.15 321.45 213.79 <
1 12 13 -2 2.59 -141.21 136.51 <
1 12 13 -1 42.49 653.23 300.80 <
0 -5 14 -2 24.58 -51.17 103.10 <
0 -4 14 -2 128.57 344.23 258.59 <
0 -3 14 -2 174.89 -282.43 234.75 <
1 -3 14 -2 26.94 247.20 215.62 <
-1 -2 14 -2 94.75 2408.54 655.20 o
0 -2 14 -2 38.64 -107.35 145.47 <
1 -2 14 -2 0.73 -157.92 171.13 <
-1 -1 14 -2 24.63 -191.02 187.83 <
0 -1 14 -2 208.64 223.51 180.85 <
1 -1 14 -2 0.48 -348.02 268.31 <
-1 0 14 -2 206.60 98.55 135.75 <
0 0 14 -2 109.99 57.09 68.94 <
1 0 14 -2 71.11 830.28 389.17 <
-1 1 14 -2 23.80 363.51 218.05 <
-1 1 14 -1 631.00 196.64 189.20 <
0 1 14 -2 200.88 153.51 169.46 <
1 1 14 -2 0.76 -331.17 246.14 <
-1 2 14 -2 89.10 -279.85 223.97 <
-1 2 14 -1 248.63 208.33 201.04 <
0 2 14 -2 32.74 143.04 93.08 <
1 2 14 -2 0.61 -262.54 219.11 <
-1 3 14 -2 81.35 -370.50 255.55 <
-1 3 14 -1 82.73 438.98 278.02 <
0 3 14 -2 172.41 59.83 105.07 <
1 3 14 -2 29.42 -106.75 142.28 <
-1 4 14 -2 110.17 1.82 39.33 <
0 4 14 -2 130.86 -10.33 56.03 <
1 4 14 -2 68.71 -120.41 147.74 <
-1 5 14 -2 110.53 904.83 391.45 <
1 5 14 -2 79.99 91.71 127.40 <
1 6 14 -2 127.94 196.33 184.19 <
loop_
_jana_cell_twin_matrix_id
_jana_cell_twin_volume_fraction
_jana_cell_twin_matrix_1_1
_jana_cell_twin_matrix_1_2
_jana_cell_twin_matrix_1_3
_jana_cell_twin_matrix_2_1
_jana_cell_twin_matrix_2_2
_jana_cell_twin_matrix_2_3
_jana_cell_twin_matrix_3_1
_jana_cell_twin_matrix_3_2
_jana_cell_twin_matrix_3_3
1 0.856(7) 1 0 0 0 1 0 0 0 1
2 0.144(7) -1 0 0 0 1 0 0 0 1
