#------------------------------------------------------------------------------
#$Date: 2016-02-13 21:28:24 +0200 (Sat, 13 Feb 2016) $
#$Revision: 176429 $
#$URL: svn://www.crystallography.net/cod/cif/7/03/67/7036760.cif $
#------------------------------------------------------------------------------
#
# This file is available in the Crystallography Open Database (COD),
# http://www.crystallography.net/
#
# All data on this site have been placed in the public domain by the
# contributors.
#
data_7036760
loop_
_publ_author_name
'Zimmermann, Iwan'
'Corgnet, Alexis'
'Johnsson, Mats'
'Lidin, Sven'
_publ_section_title
;
 Synthesis and crystal structure of a series of incommensurately modulated
 composite oxohalide compounds.
;
_journal_name_full
'Dalton transactions (Cambridge, England : 2003)'
_journal_paper_doi               10.1039/c4dt02084g
_journal_year                    2014
_chemical_formula_sum            'Br O2 Sb Zn0.902'
_chemical_formula_weight         292.6
_chemical_name_systematic        ' ?'
_space_group_IT_number           4
_space_group_ssg_name            P21(\a0\g)0
_symmetry_cell_setting           monoclinic
_symmetry_space_group_name_Hall  'P 2yb'
_symmetry_space_group_name_H-M   'P 1 21 1'
_cell_angle_alpha                90
_cell_angle_beta                 90.331(6)
_cell_angle_gamma                90
_cell_formula_units_Z            8
_cell_length_a                   4.1307(13)
_cell_length_b                   17.9042(2)
_cell_length_c                   10.3021(10)
_cell_measurement_temperature    293
_cell_modulation_dimension       1
_cell_subsystems_number          2
_cell_volume                     761.9(3)
_diffrn_ambient_temperature      293
_diffrn_radiation_source         'X-ray tube'
_diffrn_radiation_type           'Mo K\a'
_diffrn_radiation_wavelength     0.7107
_exptl_absorpt_coefficient_mu    23.069
_exptl_crystal_density_diffrn    5.1005
_exptl_crystal_F_000             1028
_refine_ls_extinction_method     none
_refine_ls_goodness_of_fit_gt    2.02
_refine_ls_goodness_of_fit_ref   1.40
_refine_ls_number_constraints    9
_refine_ls_number_parameters     361
_refine_ls_number_reflns         26084
_refine_ls_number_restraints     0
_refine_ls_R_factor_all          0.2549
_refine_ls_R_factor_gt           0.0982
_refine_ls_shift/su_max          0.0446
_refine_ls_shift/su_mean         0.0046
_refine_ls_structure_factor_coef F
_refine_ls_weighting_details     w=1/(\s^2^(F)+0.0001F^2^)
_refine_ls_weighting_scheme      sigma
_refine_ls_wR_factor_gt          0.1017
_refine_ls_wR_factor_ref         0.1444
_reflns_number_gt                6011
_reflns_number_total             26084
_reflns_threshold_expression     I>3\s(I)
_cod_data_source_file            c4dt02084g4.cif
_cod_data_source_block           I
_cod_original_formula_sum        'Br1 O2 Sb1 Zn0.902'
_cod_database_code               7036760
loop_
_space_group_symop_id
_space_group_symop_operation_xyz
1 x,y,z
2 -x,y+0.5,-z
loop_
_space_group_symop_ssg_id
_space_group_symop_ssg_operation_algebraic
1 x1,x2,x3,x4
2 -x1,x2+1/2,-x3,-x4
loop_
_atom_site_label
_atom_site_type_symbol
_atom_site_fract_x
_atom_site_fract_y
_atom_site_fract_z
_atom_site_adp_type
_atom_site_U_iso_or_equiv
_atom_site_symmetry_multiplicity
_atom_site_occupancy
_atom_site_calc_flag
_atom_site_subsystem_code
Br1 Br 0.0057(6) 0.2131(2) 0.1350(3) Uani 0.0427(9) 2 1 d 1
Br2 Br 0.5000(6) -0.12684(19) -0.3751(3) Uani 0.0415(9) 2 1 d 1
Br3 Br 0.5037(6) 0.33649(19) -0.1300(2) Uani 0.0343(7) 2 1 d 1
Br4 Br -0.0064(6) -0.00360(19) -0.6305(2) Uani 0.0354(8) 2 1 d 1
Sb1 Sb 0.5047(3) 0.055143 0.05706(14) Uani 0.0251(4) 2 1 d 1
Sb2 Sb 0.9976(3) -0.06084(13) -0.12495(13) Uani 0.0215(4) 2 1 d 1
Sb3 Sb 0.4966(4) 0.15516(9) -0.55025(15) Uani 0.0267(4) 2 1 d 1
Sb4 Sb -0.0095(3) 0.27147(13) -0.37398(16) Uani 0.0237(4) 2 1 d 1
O1 O 1.007(3) 0.0130(8) -0.2627(13) Uiso 0.0186(9) 2 1 d 1
O2 O 0.501(3) 0.0821(8) -0.4040(13) Uiso 0.0186(9) 2 1 d 1
O3 O 0.011(3) 0.1979(8) -0.2328(13) Uiso 0.0186(9) 2 1 d 1
O4 O 1.038(3) 0.0179(7) -0.0026(13) Uiso 0.0186(9) 2 1 d 1
O5 O 0.533(4) -0.0105(10) -0.0475(18) Uiso 0.0186(9) 2 0.969(18) d 1
O6 O 0.046(5) 0.1937(12) -0.506(2) Uiso 0.0186(9) 2 0.721(18) d 1
O7 O 0.506(3) 0.2364(7) -0.4096(12) Uiso 0.0186(9) 2 1 d 1
O8 O 0.509(3) 0.1266(8) -0.0775(13) Uiso 0.0186(9) 2 1 d 1
Zn1 Zn -0.1507(8) 0.2205(2) -0.0722(3) Uani 0.0367(9) 2 1 d 2
Zn2 Zn 0.2985(7) 0.1060(2) -0.2500(3) Uani 0.0243(6) 2 1 d 2
Zn3 Zn 0.7286(8) -0.00900(19) -0.4260(2) Uani 0.0322(8) 2 1 d 2
loop_
_atom_site_aniso_label
_atom_site_aniso_type_symbol
_atom_site_aniso_U_11
_atom_site_aniso_U_22
_atom_site_aniso_U_33
_atom_site_aniso_U_12
_atom_site_aniso_U_13
_atom_site_aniso_U_23
Br1 Br 0.0303(11) 0.072(2) 0.0262(13) 0.0039(13) 0.0011(10) -0.0084(12)
Br2 Br 0.0394(13) 0.0310(14) 0.0540(18) 0.0007(11) -0.0034(12) -0.0064(12)
Br3 Br 0.0324(11) 0.0338(14) 0.0369(13) -0.0003(10) 0.0053(10) -0.0078(10)
Br4 Br 0.0382(12) 0.0385(15) 0.0295(13) -0.0028(11) -0.0035(10) -0.0033(11)
Sb1 Sb 0.0183(6) 0.0425(10) 0.0145(6) -0.0035(6) -0.0005(5) 0.0069(6)
Sb2 Sb 0.0317(7) 0.0218(6) 0.0110(5) -0.0010(6) 0.0024(5) 0.0019(5)
Sb3 Sb 0.0226(7) 0.0318(8) 0.0259(8) 0.0057(6) 0.0054(6) 0.0028(6)
Sb4 Sb 0.0092(5) 0.0255(7) 0.0364(8) 0.0020(5) 0.0030(5) 0.0055(6)
Zn1 Zn 0.0380(15) 0.0366(15) 0.0354(15) -0.0002(13) 0.0053(12) -0.0043(12)
Zn2 Zn 0.0197(10) 0.0289(9) 0.0244(9) -0.0007(9) 0.0042(8) -0.0025(7)
Zn3 Zn 0.0579(18) 0.0194(12) 0.0189(11) 0.0003(12) 0.0047(11) -0.0025(9)
loop_
_atom_site_displace_Fourier_atom_site_label
_atom_site_displace_Fourier_axis
_atom_site_displace_Fourier_wave_vector_seq_id
_atom_site_displace_Fourier_param_cos
_atom_site_displace_Fourier_param_sin
Br1 x 1 0.0151(8) 0.0444(8)
Br1 y 1 0.0001(2) 0.0021(3)
Br1 z 1 0.0219(3) -0.0061(3)
Br1 x 2 -0.0066(9) 0.0023(9)
Br1 y 2 0.0032(3) -0.0020(3)
Br1 z 2 0.0015(4) -0.0024(4)
Br2 x 1 -0.0616(9) -0.0005(8)
Br2 y 1 0.0016(2) -0.0161(2)
Br2 z 1 -0.0013(4) 0.0234(4)
Br2 x 2 -0.0047(10) 0.0111(10)
Br2 y 2 0.0021(2) -0.0004(3)
Br2 z 2 0.0064(4) -0.0024(5)
Br3 x 1 -0.0537(8) -0.0311(8)
Br3 y 1 -0.00519(20) 0.0108(2)
Br3 z 1 0.0081(3) -0.0052(3)
Br3 x 2 0.0013(9) 0.0064(9)
Br3 y 2 -0.0029(2) -0.0044(2)
Br3 z 2 -0.0027(4) -0.0003(4)
Br4 x 1 0.0537(9) -0.0381(8)
Br4 y 1 -0.0037(2) -0.0079(2)
Br4 z 1 0.0215(4) 0.0219(3)
Br4 x 2 0.0084(9) -0.0068(10)
Br4 y 2 -0.0010(2) -0.0002(2)
Br4 z 2 0.0034(4) -0.0082(4)
Sb1 x 1 0.0049 0.0199(4)
Sb1 y 1 0.00757(13) -0.00369(13)
Sb1 z 1 0.01932(19) -0.00708(19)
Sb1 x 2 -0.0056(5) -0.0007(5)
Sb1 y 2 0.00440(15) -0.00299(14)
Sb1 z 2 0.0058(2) -0.0089(2)
Sb2 x 1 -0.0010(5) -0.0003(5)
Sb2 y 1 0.00460(10) -0.00536(11)
Sb2 z 1 0.00275(18) -0.00204(18)
Sb2 x 2 -0.0168(5) 0.0055(5)
Sb2 y 2 0.00083(12) 0.00143(13)
Sb2 z 2 -0.0012(2) -0.0027(2)
Sb3 x 1 -0.0155(4) -0.0106(4)
Sb3 y 1 0.00327(12) 0.00158(12)
Sb3 z 1 0.0098(2) 0.0083(2)
Sb3 x 2 0.0166(5) 0.0085(5)
Sb3 y 2 -0.00072(14) 0.00307(13)
Sb3 z 2 0.0034(2) -0.0020(2)
Sb4 x 1 -0.0386(4) -0.0210(4)
Sb4 y 1 -0.00147(12) 0.01147(12)
Sb4 z 1 0.0023(2) 0.0103(2)
Sb4 x 2 0.0177(4) -0.0046(5)
Sb4 y 2 -0.00461(13) -0.00148(13)
Sb4 z 2 -0.0005(2) -0.0019(2)
O1 x 1 -0.051(4) -0.028(4)
O1 y 1 0.0043(10) -0.0120(11)
O1 z 1 0.0037(17) -0.0137(18)
O1 x 2 -0.017(5) 0.059(5)
O1 y 2 0.0016(12) 0.0023(12)
O1 z 2 0.005(2) -0.001(2)
O2 x 1 0.032(5) -0.004(4)
O2 y 1 0.0033(11) 0.0125(11)
O2 z 1 0.0084(18) 0.0223(19)
O2 x 2 0.007(6) 0.084(5)
O2 y 2 -0.0057(13) 0.0032(12)
O2 z 2 0.015(2) 0.001(2)
O3 x 1 0.009(4) -0.014(4)
O3 y 1 -0.0057(11) 0.0129(11)
O3 z 1 0.0047(18) 0.0145(18)
O3 x 2 0.004(5) 0.056(5)
O3 y 2 0.0047(12) -0.0027(12)
O3 z 2 0.008(2) 0.004(2)
O4 x 1 0.065(4) -0.048(4)
O4 y 1 -0.0069(10) 0.0002(10)
O4 z 1 0.0067(17) -0.0052(17)
O4 x 2 -0.006(5) -0.033(5)
O4 y 2 -0.0014(12) 0.0071(12)
O4 z 2 -0.011(2) -0.009(2)
O5 x 1 -0.003(5) -0.045(5)
O5 y 1 0.0234(14) -0.0257(16)
O5 z 1 0.058(2) -0.006(3)
O5 x 2 0.038(5) 0.012(6)
O5 y 2 0.0092(14) -0.0034(16)
O5 z 2 0.033(3) -0.028(3)
O6 x 1 -0.064(7) 0.060(7)
O6 y 1 -0.0019(18) 0.0173(15)
O6 z 1 0.017(3) 0.014(3)
O6 x 2 -0.002(8) -0.050(7)
O6 y 2 -0.0056(18) 0.0051(18)
O6 z 2 -0.003(3) 0.005(3)
O7 x 1 -0.013(4) 0.022(4)
O7 y 1 0.0056(10) 0.0029(10)
O7 z 1 0.0077(17) 0.0049(17)
O7 x 2 0.024(4) -0.007(5)
O7 y 2 -0.0048(11) 0.0046(11)
O7 z 2 0.010(2) -0.004(2)
O8 x 1 -0.019(4) -0.029(4)
O8 y 1 0.0046(10) -0.0078(10)
O8 z 1 0.0119(17) -0.0158(18)
O8 x 2 -0.030(5) 0.016(5)
O8 y 2 -0.0050(12) 0.0059(12)
O8 z 2 0.002(2) 0.003(2)
Zn1 x 1 -0.0088(12) -0.0063(13)
Zn1 y 1 -0.0037(2) 0.0046(2)
Zn1 z 1 0.0063(4) -0.0035(4)
Zn1 x 2 -0.0539(12) 0.0326(13)
Zn1 y 2 0.0012(2) 0.0001(2)
Zn1 z 2 0.0005(4) -0.0001(4)
Zn2 x 1 -0.0009(8) -0.0071(14)
Zn2 y 1 0.00065(15) 0.0006(2)
Zn2 z 1 0.0022(3) -0.0008(4)
Zn2 x 2 -0.0425(11) 0.0655(10)
Zn2 y 2 -0.0006(2) -0.00194(19)
Zn2 z 2 0.0007(4) 0.0016(3)
Zn3 x 1 -0.0089(11) -0.0075(13)
Zn3 y 1 0.0005(2) -0.00880(19)
Zn3 z 1 0.0021(3) 0.0128(3)
Zn3 x 2 0.0133(13) 0.0493(13)
Zn3 y 2 -0.0022(2) 0.0001(2)
Zn3 z 2 0.0000(4) -0.0009(3)
loop_
_atom_site_Fourier_wave_vector_seq_id
_jana_atom_site_fourier_wave_vector_q1_coeff
1 1
2 2
loop_
_atom_site_occ_Fourier_atom_site_label
_atom_site_occ_Fourier_wave_vector_seq_id
_atom_site_occ_Fourier_param_cos
_atom_site_occ_Fourier_param_sin
O5 1 -0.10(4) -0.21(4)
O5 2 0.08(5) -0.11(5)
O6 1 -0.08(4) -0.17(4)
O6 2 -0.11(4) 0.21(5)
loop_
_atom_type_symbol
_atom_type_scat_dispersion_real
_atom_type_scat_dispersion_imag
_atom_type_scat_source
Br -0.2901 2.4595 'International Tables Vol C tables 4.2.6.8 and 6.1.1.1'
O 0.0106 0.0060 'International Tables Vol C tables 4.2.6.8 and 6.1.1.1'
Sb -0.5866 1.5461 'International Tables Vol C tables 4.2.6.8 and 6.1.1.1'
Zn 0.2839 1.4301 'International Tables Vol C tables 4.2.6.8 and 6.1.1.1'
loop_
_cell_subsystem_code
_cell_subsystem_description
_cell_subsystem_matrix_W_1_1
_cell_subsystem_matrix_W_1_2
_cell_subsystem_matrix_W_1_3
_cell_subsystem_matrix_W_1_4
_cell_subsystem_matrix_W_2_1
_cell_subsystem_matrix_W_2_2
_cell_subsystem_matrix_W_2_3
_cell_subsystem_matrix_W_2_4
_cell_subsystem_matrix_W_3_1
_cell_subsystem_matrix_W_3_2
_cell_subsystem_matrix_W_3_3
_cell_subsystem_matrix_W_3_4
_cell_subsystem_matrix_W_4_1
_cell_subsystem_matrix_W_4_2
_cell_subsystem_matrix_W_4_3
_cell_subsystem_matrix_W_4_4
1 '1-st subsystem' 1 0 0 0 0 1 0 0 0 0 1 0 0 0 0 1
2 '2-nd subsystem' 1 0 0 1 0 1 0 0 0 0 1 0 0 0 0 1
loop_
_cell_wave_vector_seq_id
_cell_wave_vector_x
_cell_wave_vector_y
_cell_wave_vector_z
1 0.203000 0.000000 0.437100
loop_
_refln_index_h
_refln_index_k
_refln_index_l
_refln_index_m_1
_refln_F_squared_calc
_refln_F_squared_meas
_refln_F_squared_sigma
_refln_observed_status
1 0 0 -2 32.67 4.15 9.24 <
1 0 0 -1 5.09 14.16 11.32 <
1 0 0 0 68.79 272.00 31.10 o
1 0 0 1 69.16 107.77 52.73 <
1 0 0 2 23.68 36.67 17.12 <
2 0 0 -2 225.20 62.68 20.80 o
2 0 0 -1 228.47 200.78 39.99 o
2 0 0 0 182805.00 253679.00 1503.59 o
2 0 0 1 133.75 119.38 32.59 o
2 0 0 2 6360.17 8305.40 256.12 o
3 0 0 -2 3.16 51.37 31.64 <
3 0 0 -1 469.44 84.66 40.46 <
3 0 0 0 32.34 93.25 36.14 <
3 0 0 1 9.08 29.45 25.06 <
3 0 0 2 62.52 195.21 60.85 o
4 0 0 -2 123.83 -26.19 40.17 <
4 0 0 -1 71.53 87.98 53.62 <
4 0 0 0 35009.60 40867.60 991.00 o
4 0 0 1 51.16 100.78 65.58 <
4 0 0 2 9.54 67.36 37.92 <
5 0 0 -2 8.13 23.99 63.51 <
5 0 0 -1 134.29 117.84 59.84 <
5 0 0 0 46.18 127.32 110.67 <
5 0 0 1 0.56 -12.50 46.92 <
5 0 0 2 1.12 45.32 76.49 <
6 0 0 -2 23.95 96.81 80.10 <
6 0 0 -1 2.55 175.90 106.70 <
6 0 0 0 2394.45 1644.12 352.27 o
6 0 0 1 1.85 86.38 76.01 <
6 0 0 2 104.83 241.66 135.26 <
1 1 0 -2 7.80 13.03 5.15 <
1 -1 0 -2 8.65 -3.55 10.55 <
1 1 0 -1 166.97 123.71 20.85 o
1 -1 0 -1 168.95 142.60 26.90 o
1 1 0 0 7.20 21.74 10.96 <
1 -1 0 0 6.69 16.41 8.65 <
1 1 0 1 226.13 166.84 27.37 o
1 -1 0 1 254.75 188.88 33.47 o
1 1 0 2 67.99 64.99 22.10 <
1 -1 0 2 69.36 84.01 32.17 <
2 1 0 -2 341.70 160.14 36.67 o
2 -1 0 -2 346.59 103.21 37.56 <
2 1 0 -1 201.45 65.76 26.36 <
2 -1 0 -1 237.37 60.37 27.73 <
2 1 0 0 50.31 118.96 36.32 o
2 -1 0 0 41.75 93.07 41.47 <
2 1 0 1 643.10 625.93 69.79 o
2 -1 0 1 689.84 699.99 89.99 o
2 1 0 2 1071.71 895.67 88.69 o
2 -1 0 2 1129.65 831.16 101.90 o
3 1 0 -2 226.95 19.79 19.49 <
3 -1 0 -2 235.09 53.26 32.29 <
3 1 0 -1 920.19 146.75 46.21 o
3 -1 0 -1 940.67 148.82 50.18 <
3 1 0 0 64.78 24.65 27.55 <
3 -1 0 0 59.22 52.49 29.33 <
3 1 0 1 494.38 1278.70 117.84 o
3 -1 0 1 559.04 1447.01 145.27 o
3 1 0 2 67.57 166.30 56.82 <
3 -1 0 2 64.08 172.46 62.74 <
4 1 0 -2 718.85 256.95 86.20 <
4 -1 0 -2 745.01 155.88 68.31 <
4 1 0 -1 155.94 92.54 48.70 <
4 -1 0 -1 197.05 74.59 51.90 <
4 1 0 0 28.41 130.99 70.56 <
4 -1 0 0 25.06 273.36 91.77 <
4 1 0 1 831.98 1267.50 155.22 o
4 -1 0 1 860.76 1242.97 156.23 o
4 1 0 2 239.01 289.42 78.80 o
4 -1 0 2 206.27 329.40 111.86 <
5 1 0 -2 173.71 68.61 46.45 <
5 -1 0 -2 180.17 162.81 76.60 <
5 1 0 -1 205.51 86.38 53.85 <
5 -1 0 -1 212.77 -0.06 28.08 <
5 1 0 0 54.96 30.75 29.39 <
5 -1 0 0 50.80 -131.70 92.25 <
5 1 0 1 268.14 471.18 166.72 <
5 -1 0 1 301.66 499.56 166.60 <
5 1 0 2 26.26 49.71 75.48 <
5 -1 0 2 27.99 65.76 90.53 <
6 1 0 -2 424.38 402.93 194.56 <
6 -1 0 -2 434.11 195.04 118.19 <
6 1 0 -1 45.56 -6.93 16.59 <
6 -1 0 -1 59.69 166.66 107.29 <
6 1 0 0 43.93 -68.07 91.00 <
6 -1 0 0 42.88 57.29 66.59 <
6 1 0 1 422.35 407.31 178.98 <
6 -1 0 1 431.71 382.02 173.65 <
6 -1 0 2 63.41 -29.80 19.25 <
0 2 0 2 9.72 11.67 10.55 <
0 -2 0 2 8.84 2.01 9.95 <
1 2 0 -2 24.96 4.44 8.47 <
1 -2 0 -2 25.90 9.78 10.07 <
1 2 0 -1 10.61 10.66 8.65 <
1 -2 0 -1 7.29 4.92 9.18 <
1 2 0 0 8309.42 9074.17 164.52 o
1 -2 0 0 8351.65 9592.69 206.71 o
1 2 0 1 258.11 167.66 26.01 o
1 -2 0 1 261.57 204.93 35.55 o
1 2 0 2 60.97 67.18 23.70 <
1 -2 0 2 64.00 50.06 17.18 <
2 2 0 -2 395.84 12.92 20.74 <
2 -2 0 -2 398.84 32.88 21.80 <
2 2 0 -1 476.85 424.73 52.79 o
2 -2 0 -1 498.48 396.83 65.64 o
2 2 0 0 70.10 62.44 19.25 o
2 -2 0 0 142.19 69.67 31.28 <
2 2 0 1 113.42 217.31 45.74 o
2 -2 0 1 131.28 225.07 54.57 o
2 2 0 2 1191.25 1171.52 96.99 o
2 -2 0 2 1143.09 1129.87 117.01 o
3 2 0 -2 125.16 93.25 28.44 o
3 -2 0 -2 118.50 91.89 43.60 <
3 2 0 -1 578.54 248.42 55.39 o
3 -2 0 -1 591.29 178.21 58.83 o
3 2 0 0 5968.64 6958.87 255.65 o
3 -2 0 0 5718.09 7082.81 304.64 o
3 2 0 1 1040.07 1863.33 136.38 o
3 -2 0 1 1054.59 1843.25 156.82 o
3 2 0 2 54.79 83.36 33.06 <
3 -2 0 2 56.42 58.89 24.88 <
4 2 0 -2 430.40 93.07 49.65 <
4 -2 0 -2 441.73 126.07 61.56 <
4 2 0 -1 257.77 173.83 68.67 <
4 -2 0 -1 303.01 194.92 65.94 <
4 2 0 0 655.50 1398.37 159.37 o
4 -2 0 0 735.86 1371.83 151.73 o
4 2 0 1 119.51 456.31 95.39 o
4 -2 0 1 162.15 353.87 85.20 o
4 2 0 2 200.50 267.02 77.37 o
4 -2 0 2 209.87 309.44 109.37 <
5 2 0 -2 129.40 154.45 73.23 <
5 -2 0 -2 121.47 181.41 109.96 <
5 2 0 -1 90.67 54.09 63.87 <
5 -2 0 -1 97.36 -27.67 33.41 <
5 2 0 0 1950.71 1597.02 227.44 o
5 -2 0 0 1847.08 1608.99 307.54 o
5 2 0 1 85.44 168.43 101.78 <
5 -2 0 1 93.59 49.65 16.53 o
5 2 0 2 14.18 20.50 10.13 <
5 -2 0 2 13.94 1.90 71.81 <
6 2 0 -2 154.19 219.51 136.62 <
6 -2 0 -2 156.73 0.95 61.38 <
6 2 0 -1 86.07 202.44 152.50 <
6 -2 0 -1 104.81 152.97 112.74 <
6 2 0 0 141.42 35.55 20.38 <
6 -2 0 0 153.52 176.08 123.47 <
6 2 0 1 41.99 -15.70 9.66 <
6 -2 0 1 55.56 8.89 43.55 <
0 3 0 1 36.87 8.24 5.92 <
0 -3 0 1 44.14 8.00 5.51 <
0 3 0 2 27.86 30.63 20.50 <
0 -3 0 2 29.67 10.13 17.66 <
1 3 0 -2 88.52 7.58 16.89 <
1 -3 0 -2 83.82 39.75 38.21 <
1 3 0 -1 1171.44 864.69 64.04 o
1 -3 0 -1 1113.73 1064.23 80.28 o
1 3 0 0 96.16 79.92 23.34 o
1 -3 0 0 99.22 89.70 25.59 o
1 3 0 1 6039.30 6645.82 168.67 o
1 -3 0 1 6078.46 5885.28 179.81 o
1 3 0 2 147.37 88.04 26.25 o
1 -3 0 2 133.43 107.24 33.18 o
2 3 0 -2 405.98 231.77 43.07 o
2 -3 0 -2 405.12 191.96 52.37 o
2 3 0 -1 281.95 127.44 27.31 o
2 -3 0 -1 242.22 103.50 37.27 <
2 3 0 0 78.73 74.00 23.82 o
2 -3 0 0 87.00 28.56 22.28 <
2 3 0 1 767.65 767.11 74.18 o
2 -3 0 1 789.87 782.34 88.93 o
2 3 0 2 656.74 671.73 74.59 o
2 -3 0 2 680.71 657.57 88.28 o
3 3 0 -2 92.02 47.93 26.13 <
3 -3 0 -2 82.87 68.37 40.41 <
3 3 0 -1 288.36 467.03 69.14 o
3 -3 0 -1 331.34 452.93 79.63 o
3 3 0 0 396.28 423.49 67.18 o
3 -3 0 0 406.54 404.17 79.21 o
3 3 0 1 443.07 677.00 83.18 o
3 -3 0 1 420.89 719.89 103.21 o
3 3 0 2 246.75 482.61 74.18 o
3 -3 0 2 224.81 518.52 93.49 o
4 3 0 -2 546.69 311.16 75.30 o
4 -3 0 -2 545.26 224.60 76.55 <
4 3 0 -1 245.68 115.59 40.41 <
4 -3 0 -1 220.28 129.93 55.16 <
4 3 0 0 50.61 43.31 27.61 <
4 -3 0 0 59.98 56.16 28.91 <
4 3 0 1 615.80 730.44 116.48 o
4 -3 0 1 622.47 723.03 150.84 o
4 3 0 2 181.31 207.06 65.41 o
4 -3 0 2 166.53 161.38 72.34 <
5 3 0 -2 125.28 14.52 42.72 <
5 -3 0 -2 114.55 114.34 100.12 <
5 3 0 -1 78.55 67.48 66.95 <
5 -3 0 -1 85.74 4.15 64.64 <
5 3 0 0 147.97 96.81 64.10 <
5 -3 0 0 146.76 124.00 108.83 <
5 3 0 1 497.69 1097.52 191.72 o
5 -3 0 1 480.94 1130.29 263.29 o
5 3 0 2 206.81 388.77 151.61 <
5 -3 0 2 182.14 429.71 154.81 <
6 3 0 -2 54.26 25.53 21.09 <
6 -3 0 -2 52.70 135.79 116.42 <
6 3 0 -1 60.13 56.88 80.87 <
6 -3 0 -1 59.61 111.14 76.07 <
6 3 0 0 28.34 62.86 22.57 <
6 -3 0 0 30.74 67.78 31.52 <
6 3 0 1 250.95 -109.66 103.44 <
6 -3 0 1 258.33 -42.83 83.83 <
0 4 0 0 17513.30 16608.00 320.46 o
0 4 0 1 0.16 -1.66 7.70 <
0 -4 0 1 0.44 21.80 21.74 <
0 4 0 2 57.52 33.59 16.17 <
0 -4 0 2 57.29 18.72 10.78 <
1 4 0 -2 258.59 140.18 44.67 o
1 -4 0 -2 268.26 103.86 58.36 <
1 4 0 -1 300.59 192.55 36.44 o
1 -4 0 -1 278.99 195.45 65.23 <
1 4 0 0 109223.00 130586.00 856.81 o
1 -4 0 0 109269.00 129282.00 1097.11 o
1 4 0 1 2414.13 2788.28 159.13 o
1 -4 0 1 2341.96 2711.08 188.46 o
1 4 0 2 25.60 15.94 18.72 <
1 -4 0 2 26.76 -4.21 20.56 <
2 4 0 -2 276.02 141.30 32.76 o
2 -4 0 -2 284.14 107.77 37.98 <
2 4 0 -1 111.07 73.88 22.16 o
2 -4 0 -1 121.94 86.14 28.97 <
2 4 0 0 1354.99 1002.08 78.32 o
2 -4 0 0 1340.97 1032.47 96.21 o
2 4 0 1 63.53 28.20 16.89 <
2 -4 0 1 62.91 33.18 14.87 <
2 4 0 2 62.83 57.35 29.39 <
2 -4 0 2 58.93 98.29 42.95 <
3 4 0 -2 246.50 111.14 36.44 o
3 -4 0 -2 246.95 74.83 43.55 <
3 4 0 -1 933.62 743.95 82.71 o
3 -4 0 -1 916.22 720.78 101.01 o
3 4 0 0 22832.00 25137.50 480.24 o
3 -4 0 0 22835.40 25668.70 566.86 o
3 4 0 1 547.51 621.25 78.38 o
3 -4 0 1 567.51 766.93 102.67 o
3 4 0 2 39.75 58.42 28.91 <
3 -4 0 2 42.19 78.86 49.53 <
4 4 0 -2 408.77 217.85 62.09 o
4 -4 0 -2 431.14 204.81 69.14 <
4 4 0 -1 70.87 35.43 29.74 <
4 -4 0 -1 75.20 133.42 62.27 <
4 4 0 0 183.37 100.60 35.13 <
4 -4 0 0 178.68 245.75 102.55 <
4 4 0 1 21.25 92.25 38.39 <
4 -4 0 1 12.38 104.33 68.55 <
4 4 0 2 72.16 101.90 45.15 <
4 -4 0 2 62.32 183.66 86.38 <
5 4 0 -2 35.55 69.20 61.56 <
5 -4 0 -2 28.50 62.44 83.54 <
5 4 0 -1 381.12 288.88 104.21 <
5 -4 0 -1 382.75 258.02 135.61 <
5 4 0 0 1855.12 1769.84 242.14 o
5 -4 0 0 1847.66 1389.72 289.30 o
5 4 0 1 296.42 505.13 132.71 o
5 -4 0 1 285.38 475.86 192.07 <
5 4 0 2 63.55 51.78 75.12 <
5 -4 0 2 66.43 168.02 106.40 <
6 4 0 -2 50.10 96.81 70.03 <
6 -4 0 -2 55.43 225.37 126.37 <
6 4 0 -1 10.00 61.73 52.14 <
6 -4 0 -1 10.10 62.86 87.45 <
6 -4 0 0 31.52 169.80 106.58 <
6 -4 0 1 13.20 -116.95 92.66 <
0 5 0 1 119.31 106.29 29.68 o
0 -5 0 1 165.22 45.03 23.82 <
0 5 0 2 79.56 50.89 20.14 <
0 -5 0 2 81.41 36.26 27.49 <
1 5 0 -2 97.79 153.15 48.64 o
1 -5 0 -2 99.90 118.61 62.80 <
1 5 0 -1 273.26 255.23 42.54 o
1 -5 0 -1 319.46 343.51 86.44 o
1 5 0 0 59.43 88.10 25.77 o
1 -5 0 0 58.79 68.43 30.63 <
1 5 0 1 20550.00 21593.90 469.17 o
1 -5 0 1 20511.20 22126.00 509.39 o
1 5 0 2 172.37 142.31 35.90 o
1 -5 0 2 177.50 190.77 59.25 o
2 5 0 -2 390.84 424.38 65.23 o
2 -5 0 -2 403.52 339.48 72.16 o
2 5 0 -1 812.48 786.84 83.65 o
2 -5 0 -1 786.60 620.84 79.15 o
2 5 0 0 180.87 92.01 33.95 <
2 -5 0 0 194.82 67.18 27.55 <
2 5 0 1 1393.63 1968.20 143.14 o
2 -5 0 1 1448.43 1948.47 138.10 o
2 5 0 2 402.65 230.35 46.09 o
2 -5 0 2 379.89 247.41 58.71 o
3 5 0 -2 646.33 579.18 70.38 o
3 -5 0 -2 648.39 457.67 90.76 o
3 5 0 -1 1345.71 1634.70 122.40 o
3 -5 0 -1 1457.23 1473.91 137.51 o
3 5 0 0 42.94 63.81 30.81 <
3 -5 0 0 44.23 140.65 43.37 o
3 5 0 1 1264.45 1383.44 119.38 o
3 -5 0 1 1252.01 1755.62 158.13 o
3 5 0 2 133.16 207.06 50.18 o
3 -5 0 2 135.34 218.20 77.79 <
4 5 0 -2 523.80 458.44 93.25 o
4 -5 0 -2 530.37 326.62 86.20 o
4 5 0 -1 722.24 380.12 78.97 o
4 -5 0 -1 701.72 282.07 132.47 <
4 5 0 0 135.50 167.37 52.08 o
4 -5 0 0 150.21 152.26 99.77 <
4 5 0 1 698.54 925.83 112.51 o
4 -5 0 1 744.69 948.76 168.61 o
4 5 0 2 42.40 90.29 35.67 <
4 -5 0 2 42.93 47.87 27.08 <
5 5 0 -2 519.15 420.23 95.39 o
5 -5 0 -2 520.97 383.61 164.64 <
5 5 0 -1 277.69 210.26 73.70 <
5 -5 0 -1 296.96 167.25 123.23 <
5 5 0 0 77.12 169.21 80.69 <
5 -5 0 0 78.89 125.60 83.12 <
5 5 0 1 576.05 743.59 158.48 o
5 -5 0 1 525.62 891.41 236.39 o
5 -5 0 2 68.08 64.22 70.21 <
6 5 0 -2 115.12 124.77 123.05 <
6 -5 0 -2 124.25 48.64 40.11 <
6 -5 0 -1 122.27 -121.69 103.86 <
6 -5 0 0 38.62 70.68 88.04 <
6 -5 0 1 196.10 15.05 17.83 <
0 6 0 0 1500.91 1497.02 120.62 o
0 6 0 1 162.66 207.71 45.97 o
0 6 0 2 123.71 74.95 23.40 o
0 -6 0 2 130.06 55.51 39.46 <
1 6 0 -2 32.57 -11.97 27.08 <
1 -6 0 -2 32.71 3.02 38.21 <
1 6 0 -1 73.33 27.90 20.80 <
1 -6 0 -1 90.82 31.76 38.92 <
1 6 0 0 21290.50 19363.90 356.95 o
1 -6 0 0 21155.70 18969.10 460.10 o
1 6 0 1 783.09 1193.38 104.04 o
1 -6 0 1 797.75 1195.40 133.54 o
1 6 0 2 100.15 103.32 36.38 <
1 -6 0 2 93.10 102.08 37.98 <
2 6 0 -2 471.46 28.50 34.95 <
2 -6 0 -2 484.99 -35.96 25.30 <
2 6 0 -1 760.44 741.10 85.55 o
2 -6 0 -1 793.74 608.93 90.82 o
2 6 0 0 709.66 584.10 79.45 o
2 -6 0 0 701.86 521.12 73.35 o
2 6 0 1 1656.39 2015.59 150.48 o
2 -6 0 1 1674.73 1904.27 141.71 o
2 6 0 2 376.23 191.60 54.45 o
2 -6 0 2 369.11 173.47 76.96 <
3 6 0 -2 193.11 167.19 59.54 <
3 -6 0 -2 197.40 81.05 36.20 <
3 6 0 -1 321.22 280.59 62.15 o
3 -6 0 -1 375.95 287.99 75.60 o
3 6 0 0 9514.86 9917.71 357.07 o
3 -6 0 0 9339.86 9944.19 357.19 o
3 6 0 1 265.58 332.78 73.29 o
3 -6 0 1 288.22 417.33 110.79 o
3 6 0 2 6.61 18.19 20.62 <
3 -6 0 2 11.41 41.29 40.46 <
4 6 0 -2 569.69 195.98 71.86 <
4 -6 0 -2 579.13 220.27 111.14 <
4 6 0 -1 656.72 365.07 99.06 o
4 -6 0 -1 684.17 296.17 119.38 <
4 6 0 0 293.22 458.98 93.73 o
4 -6 0 0 223.94 578.00 183.66 o
4 6 0 1 738.73 866.88 128.21 o
4 -6 0 1 768.96 881.46 223.59 o
4 6 0 2 91.87 21.98 27.49 <
4 -6 0 2 97.21 120.98 73.29 <
5 6 0 -2 134.79 150.01 77.85 <
5 -6 0 -2 136.03 155.22 110.91 <
5 6 0 -1 97.62 43.37 38.92 <
5 -6 0 -1 123.60 143.85 93.67 <
5 6 0 0 1581.50 1522.43 228.98 o
5 -6 0 0 1514.26 1288.06 277.92 o
5 6 0 1 40.24 72.28 28.85 <
5 -6 0 1 49.25 -10.49 52.20 <
5 -6 0 2 24.86 -33.41 45.92 <
6 6 0 -2 59.15 53.79 120.92 <
6 -6 0 -2 58.30 52.49 81.58 <
6 6 0 -1 196.35 133.78 96.75 <
6 -6 0 -1 202.26 -4.92 68.49 <
6 -6 0 0 65.31 -21.39 14.63 <
0 7 0 1 786.17 631.56 83.65 o
0 7 0 2 213.72 89.52 32.82 <
0 -7 0 2 214.93 56.70 42.89 <
1 7 0 -2 287.90 152.32 51.60 <
1 -7 0 -2 296.78 99.83 80.69 <
1 7 0 -1 145.18 84.84 36.38 <
1 -7 0 -1 162.68 75.42 55.39 <
1 7 0 0 14.31 15.64 19.97 <
1 -7 0 0 16.72 49.41 64.10 <
1 7 0 1 520.57 704.84 81.82 o
1 -7 0 1 515.55 831.16 109.60 o
1 7 0 2 210.07 117.48 39.04 o
1 -7 0 2 217.89 121.75 47.87 <
2 7 0 -2 310.62 380.95 85.37 o
2 -7 0 -2 291.36 259.55 64.52 o
2 7 0 -1 319.76 425.09 72.64 o
2 -7 0 -1 345.42 308.97 74.95 o
2 7 0 0 164.81 123.65 36.20 o
2 -7 0 0 181.95 99.59 34.84 <
2 7 0 1 317.56 676.47 93.25 o
2 -7 0 1 398.19 681.09 124.12 o
2 7 0 2 2789.39 3203.65 212.46 o
2 -7 0 2 2748.67 3653.97 292.38 o
3 7 0 -2 249.63 337.64 82.94 o
3 -7 0 -2 246.52 178.74 59.25 o
3 7 0 -1 499.70 623.68 90.35 o
3 -7 0 -1 491.06 460.16 80.40 o
3 7 0 0 110.34 155.10 52.14 <
3 -7 0 0 115.13 160.67 79.33 <
3 7 0 1 2097.26 1867.54 168.32 o
3 -7 0 1 2038.18 1978.80 225.49 o
3 7 0 2 49.23 103.50 45.44 <
3 -7 0 2 52.62 178.03 76.49 <
4 7 0 -2 285.10 572.49 120.51 o
4 -7 0 -2 279.03 439.42 151.67 <
4 7 0 -1 313.24 405.65 105.22 o
4 -7 0 -1 367.31 243.80 111.32 <
4 7 0 0 149.15 231.53 67.01 o
4 -7 0 0 159.39 392.62 149.65 <
4 7 0 1 163.84 266.43 76.43 o
4 -7 0 1 211.29 303.99 144.09 <
4 7 0 2 162.92 258.43 72.28 o
4 -7 0 2 152.51 266.19 130.28 <
5 7 0 -2 117.10 48.70 40.94 <
5 -7 0 -2 114.16 73.52 73.82 <
5 7 0 -1 78.74 88.93 54.51 <
5 -7 0 -1 74.36 -126.13 87.92 <
5 7 0 0 28.27 116.77 67.42 <
5 -7 0 0 27.04 163.87 118.31 <
5 7 0 1 365.32 73.64 83.18 <
5 -7 0 1 339.74 123.59 92.13 <
5 -7 0 2 35.53 27.96 34.78 <
6 7 0 -2 176.74 176.26 125.42 <
6 -7 0 -2 176.02 21.15 61.79 <
6 7 0 -1 96.84 -13.69 81.76 <
6 -7 0 -1 114.83 -4.03 45.50 <
6 -7 0 0 48.04 -103.68 59.13 <
0 8 0 0 7705.67 7888.25 496.06 o
0 8 0 1 348.13 410.45 111.74 o
0 8 0 2 82.39 75.18 32.35 <
0 -8 0 2 88.57 31.04 33.24 <
1 8 0 -2 177.58 166.72 45.56 o
1 -8 0 -2 156.96 132.41 78.03 <
1 8 0 -1 377.75 237.87 67.24 o
1 -8 0 -1 364.92 222.29 106.58 <
1 8 0 0 239.45 155.76 38.45 o
1 -8 0 0 270.02 343.62 113.75 o
1 8 0 1 98.86 83.95 37.44 <
1 -8 0 1 108.35 126.49 43.13 <
1 8 0 2 94.57 204.93 52.55 o
1 -8 0 2 94.43 182.48 64.16 <
2 8 0 -2 138.62 -3.26 13.33 <
2 -8 0 -2 145.72 -18.66 30.33 <
2 8 0 -1 1046.06 837.50 95.39 o
2 -8 0 -1 993.91 639.38 103.38 o
2 8 0 0 7274.40 7286.62 292.44 o
2 -8 0 0 7381.88 8300.13 574.33 o
2 8 0 1 30.88 132.06 49.53 <
2 -8 0 1 27.82 143.79 65.35 <
2 8 0 2 1602.20 1664.92 153.57 o
2 -8 0 2 1612.63 1655.62 203.92 o
3 8 0 -2 311.11 99.30 50.00 <
3 -8 0 -2 286.70 127.73 49.77 <
3 8 0 -1 579.40 80.69 43.96 <
3 -8 0 -1 545.68 111.20 66.95 <
3 8 0 0 600.58 569.59 93.73 o
3 -8 0 0 619.37 580.07 172.82 o
3 8 0 1 504.12 479.65 91.00 o
3 -8 0 1 472.20 495.77 113.93 o
3 8 0 2 95.11 166.30 60.13 <
3 -8 0 2 97.91 223.71 98.17 <
4 8 0 -2 63.27 67.84 54.09 <
4 -8 0 -2 60.37 78.68 92.25 <
4 8 0 -1 572.84 311.39 100.24 o
4 -8 0 -1 536.63 304.40 130.16 <
4 8 0 0 992.85 596.84 135.91 o
4 -8 0 0 1094.50 541.27 184.08 <
4 8 0 1 18.44 145.09 53.38 <
4 -8 0 1 17.94 382.67 155.16 <
4 8 0 2 152.49 418.81 94.67 o
4 -8 0 2 153.47 313.65 143.37 <
5 8 0 -2 132.34 50.89 44.85 <
5 -8 0 -2 125.11 22.93 44.08 <
5 8 0 -1 180.79 5.87 28.08 <
5 8 0 0 208.17 213.64 88.93 <
5 -8 0 0 204.04 143.55 99.65 <
5 8 0 1 109.22 64.99 105.64 <
5 -8 0 1 92.87 137.27 90.65 <
5 8 0 2 18.83 141.36 73.46 <
5 -8 0 2 19.37 58.65 101.25 <
6 8 0 -2 36.29 218.02 147.82 <
6 -8 0 -2 34.84 -26.66 42.42 <
6 -8 0 -1 126.19 148.11 118.19 <
0 9 0 1 579.90 540.02 114.88 o
0 9 0 2 130.47 212.04 93.43 <
1 9 0 -2 57.58 86.79 37.21 <
1 -9 0 -2 56.23 37.68 26.84 <
1 9 0 -1 239.52 234.14 64.58 o
1 -9 0 -1 232.85 179.46 103.56 <
1 9 0 0 20.50 22.04 29.33 <
1 -9 0 0 22.83 91.42 65.82 <
1 9 0 1 793.44 923.58 97.34 o
1 -9 0 1 797.45 981.58 201.91 o
1 9 0 2 37.94 54.15 29.68 <
1 -9 0 2 38.30 39.04 44.79 <
2 9 0 -2 43.47 85.14 55.16 <
2 -9 0 -2 45.77 71.98 73.05 <
2 9 0 -1 242.90 289.53 98.76 <
2 -9 0 -1 251.74 259.55 65.11 o
2 9 0 0 48.88 61.50 32.41 <
2 -9 0 0 46.88 31.40 22.81 <
2 9 0 1 248.07 393.33 82.88 o
2 -9 0 1 179.71 442.86 109.96 o
2 9 0 2 1107.33 1114.35 131.11 o
2 -9 0 2 1098.08 1299.26 183.31 o
3 9 0 -2 167.38 161.62 63.45 <
3 -9 0 -2 176.75 127.85 96.81 <
3 9 0 -1 963.81 118.02 54.03 <
3 -9 0 -1 948.57 160.32 75.36 <
3 9 0 0 78.27 64.81 38.81 <
3 -9 0 0 86.59 37.74 63.99 <
3 9 0 1 2292.49 3150.50 229.22 o
3 -9 0 1 2283.70 3052.04 401.51 o
3 9 0 2 182.08 251.97 70.50 o
3 -9 0 2 179.99 335.27 105.46 o
4 9 0 -2 90.20 28.73 37.86 <
4 -9 0 -2 81.54 134.49 109.60 <
4 9 0 -1 85.73 161.86 66.95 <
4 -9 0 -1 99.82 80.51 53.56 <
4 9 0 0 61.09 102.44 67.18 <
4 -9 0 0 61.36 27.90 30.69 <
4 9 0 1 193.27 193.02 85.31 <
4 -9 0 1 162.75 144.91 82.94 <
4 9 0 2 88.06 27.02 57.11 <
4 -9 0 2 90.38 38.15 88.81 <
5 9 0 -2 102.31 9.30 18.25 <
5 -9 0 -2 101.92 111.03 75.72 <
5 9 0 -1 401.30 131.82 57.88 <
5 -9 0 -1 399.17 157.71 151.14 <
5 9 0 0 32.01 -28.50 18.48 <
5 9 0 1 706.26 718.53 221.34 o
5 -9 0 1 706.17 893.01 253.93 o
5 9 0 2 101.36 60.02 45.09 <
5 -9 0 2 100.82 216.31 130.28 <
6 9 0 -2 73.84 118.55 106.88 <
6 -9 0 -2 71.89 83.36 111.56 <
6 -9 0 -1 37.30 137.57 127.14 <
0 10 0 0 950.72 1368.63 243.62 o
0 10 0 1 292.33 280.41 76.96 o
0 10 0 2 234.04 227.80 113.04 <
1 10 0 -2 319.69 337.82 69.38 o
1 -10 0 -2 325.41 289.42 107.89 <
1 10 0 -1 423.08 573.20 108.36 o
1 -10 0 -1 431.83 348.54 134.25 <
1 10 0 0 20974.40 20276.30 606.79 o
1 -10 0 0 20928.50 21105.70 940.17 o
1 10 0 1 550.41 704.13 98.35 o
1 -10 0 1 596.20 1025.48 225.13 o
1 10 0 2 238.96 216.19 55.45 o
1 -10 0 2 234.29 198.24 53.02 o
2 10 0 -2 142.57 232.84 78.74 <
2 -10 0 -2 136.81 357.90 117.37 o
2 10 0 -1 53.20 96.45 60.96 <
2 -10 0 -1 57.31 38.75 33.36 <
2 10 0 0 15397.80 17380.30 637.19 o
2 -10 0 0 15433.50 17577.90 908.59 o
2 10 0 1 675.06 769.78 105.28 o
2 -10 0 1 676.61 883.94 202.86 o
2 10 0 2 1426.84 1652.48 166.07 o
2 -10 0 2 1397.85 1721.38 212.40 o
3 10 0 -2 345.40 171.93 74.18 <
3 -10 0 -2 377.85 172.82 112.68 <
3 10 0 -1 574.22 411.34 114.76 o
3 -10 0 -1 575.71 378.88 152.08 <
3 10 0 0 4336.65 4099.44 258.96 o
3 -10 0 0 4387.45 4303.72 493.58 o
3 10 0 1 284.58 763.79 120.51 o
3 -10 0 1 310.74 697.02 214.76 o
3 10 0 2 29.67 72.99 38.92 <
3 -10 0 2 33.98 56.52 60.85 <
4 10 0 -2 100.95 147.17 75.66 <
4 -10 0 -2 85.72 143.20 39.46 o
4 10 0 -1 33.24 20.32 37.56 <
4 -10 0 -1 25.67 43.19 37.03 <
4 10 0 0 3207.26 2653.37 293.74 o
4 -10 0 0 3153.31 2707.41 409.03 o
4 10 0 1 208.94 287.93 103.56 <
4 -10 0 1 201.35 146.28 100.36 <
4 10 0 2 89.67 70.27 93.96 <
4 -10 0 2 95.73 81.82 76.43 <
5 10 0 -2 61.60 117.19 75.83 <
5 -10 0 -2 75.08 -64.28 88.57 <
5 10 0 -1 172.84 68.49 36.61 <
5 -10 0 -1 173.93 21.33 87.15 <
5 10 0 0 590.22 246.46 91.24 <
5 -10 0 0 614.04 234.26 155.64 <
5 10 0 1 47.22 203.04 130.99 <
5 -10 0 1 59.31 274.78 157.65 <
5 10 0 2 30.91 70.44 78.56 <
5 -10 0 2 34.12 66.59 131.05 <
6 10 0 -2 23.02 69.02 94.02 <
6 -10 0 -2 28.33 150.60 133.54 <
0 11 0 1 411.51 472.36 111.74 o
0 11 0 2 102.59 -16.83 31.46 <
1 11 0 -2 24.98 21.03 21.80 <
1 -11 0 -2 18.21 27.49 12.50 <
1 11 0 -1 6.79 19.55 28.97 <
1 -11 0 -1 0.62 124.83 100.84 <
1 11 0 0 17.97 99.65 58.77 <
1 -11 0 0 16.06 -20.85 40.52 <
1 11 0 1 539.58 443.75 77.32 o
1 -11 0 1 523.46 615.21 178.57 o
1 11 0 2 20.93 23.40 31.81 <
1 -11 0 2 19.25 46.21 55.51 <
2 11 0 -2 301.21 234.73 86.85 <
2 -11 0 -2 292.43 102.91 93.49 <
2 11 0 -1 82.63 107.00 49.53 <
2 -11 0 -1 123.25 114.05 77.85 <
2 11 0 0 16.70 6.46 13.39 <
2 -11 0 0 18.68 46.15 62.50 <
2 11 0 1 1393.28 1216.43 137.27 o
2 -11 0 1 1283.62 1494.06 276.97 o
2 11 0 2 1522.28 1440.14 156.35 o
2 -11 0 2 1521.96 1513.07 292.61 o
3 11 0 -2 43.24 32.82 71.92 <
3 -11 0 -2 50.36 137.51 105.93 <
3 11 0 -1 805.55 902.55 167.43 o
3 -11 0 -1 814.70 763.85 221.93 o
3 11 0 0 22.91 79.69 76.19 <
3 -11 0 0 19.23 116.54 123.94 <
3 11 0 1 679.73 963.22 178.92 o
3 -11 0 1 784.03 1000.95 245.45 o
3 11 0 2 48.80 29.68 34.24 <
3 -11 0 2 47.66 60.02 114.23 <
4 11 0 -2 301.93 225.25 88.75 <
4 -11 0 -2 280.24 169.80 148.88 <
4 11 0 -1 56.43 86.44 64.87 <
4 -11 0 -1 47.16 246.46 142.37 <
4 11 0 0 76.46 40.46 51.19 <
4 -11 0 0 73.05 105.52 111.86 <
4 11 0 1 775.15 808.41 172.70 o
4 -11 0 1 686.77 869.61 239.88 o
4 11 0 2 45.52 26.54 31.52 <
4 -11 0 2 52.17 -16.00 13.33 <
5 11 0 -2 92.19 37.21 51.19 <
5 -11 0 -2 108.08 86.14 84.19 <
5 11 0 -1 148.89 107.47 61.91 <
5 -11 0 -1 153.48 121.16 103.86 <
5 11 0 0 42.38 171.63 98.41 <
5 -11 0 0 39.66 164.70 142.01 <
5 11 0 1 124.74 58.83 105.22 <
5 -11 0 1 145.50 69.73 87.03 <
5 11 0 2 49.37 -28.32 44.55 <
5 -11 0 2 53.55 16.94 41.89 <
6 11 0 -2 134.46 99.12 100.66 <
6 -11 0 -2 135.45 113.22 87.98 <
0 12 0 0 405.93 155.76 100.89 <
0 12 0 1 94.02 215.36 85.02 <
0 12 0 2 138.95 77.32 42.36 <
1 12 0 -2 274.36 204.63 58.53 o
1 -12 0 -2 254.93 145.09 104.27 <
1 12 0 -1 382.88 538.72 99.95 o
1 -12 0 -1 357.98 520.18 169.09 o
1 12 0 0 26501.30 25657.30 738.85 o
1 -12 0 0 26493.60 25867.00 1130.76 o
1 12 0 1 1441.27 1537.07 185.32 o
1 -12 0 1 1464.33 1441.56 267.20 o
1 12 0 2 80.30 62.50 42.66 <
1 -12 0 2 84.17 10.07 14.87 <
2 12 0 -2 358.59 291.37 87.45 o
2 -12 0 -2 317.32 475.98 152.74 o
2 12 0 -1 141.53 249.30 83.89 <
2 -12 0 -1 117.07 173.00 109.90 <
2 12 0 0 336.30 380.65 107.83 o
2 -12 0 0 304.31 542.39 183.42 <
2 12 0 1 578.09 496.89 122.99 o
2 -12 0 1 525.72 380.36 153.86 <
2 12 0 2 99.48 301.86 105.40 <
2 -12 0 2 87.78 270.87 147.46 <
3 12 0 -2 274.84 185.38 78.09 <
3 -12 0 -2 262.05 159.31 63.10 <
3 12 0 -1 237.89 221.76 96.39 <
3 -12 0 -1 225.93 228.81 117.48 <
3 12 0 0 7649.22 6855.01 468.51 o
3 -12 0 0 7799.90 6802.64 666.93 o
3 12 0 1 446.36 676.76 165.35 o
3 -12 0 1 414.89 846.50 250.08 o
3 12 0 2 71.45 206.06 92.36 <
3 -12 0 2 75.32 76.49 54.51 <
4 12 0 -2 248.14 533.98 148.94 o
4 -12 0 -2 218.62 363.95 184.02 <
4 12 0 -1 102.65 88.57 74.65 <
4 -12 0 -1 80.06 217.96 162.99 <
4 12 0 0 56.34 397.77 125.19 o
4 -12 0 0 58.98 529.72 207.12 <
4 12 0 1 294.48 75.00 56.88 <
4 -12 0 1 274.66 241.72 95.09 <
4 12 0 2 65.60 -95.50 136.09 <
4 -12 0 2 53.20 95.44 67.66 <
5 12 0 -2 126.08 142.84 82.94 <
5 -12 0 -2 130.80 131.47 128.80 <
5 12 0 -1 7.25 -44.97 57.59 <
5 -12 0 -1 9.48 10.43 58.24 <
5 12 0 0 1767.88 1046.93 287.76 o
5 -12 0 0 1831.82 1105.88 284.91 o
5 12 0 1 180.18 259.97 145.15 <
5 -12 0 1 185.81 142.43 96.99 <
5 12 0 2 38.25 25.53 24.05 <
5 -12 0 2 38.98 5.39 49.53 <
0 13 0 1 1541.39 1597.20 211.03 o
0 13 0 2 272.82 111.26 44.26 <
1 13 0 -2 48.60 10.66 37.44 <
1 -13 0 -2 57.13 55.04 32.11 <
1 13 0 -1 2932.22 2920.75 224.36 o
1 -13 0 -1 2782.02 2715.34 380.59 o
1 13 0 0 4.84 38.21 46.74 <
1 -13 0 0 3.38 22.10 61.73 <
1 13 0 1 683.52 565.62 168.08 o
1 -13 0 1 720.38 639.20 181.17 o
1 13 0 2 31.28 8.18 40.29 <
1 -13 0 2 36.88 169.98 116.42 <
2 13 0 -2 485.79 241.72 85.97 <
2 -13 0 -2 463.55 213.46 113.93 <
2 13 0 -1 109.62 121.87 65.64 <
2 -13 0 -1 83.04 134.61 106.40 <
2 13 0 0 33.78 29.03 44.97 <
2 -13 0 0 32.52 72.52 79.69 <
2 13 0 1 2222.58 2394.71 258.37 o
2 -13 0 1 2201.69 2435.76 386.04 o
2 13 0 2 93.09 0.53 59.54 <
2 -13 0 2 91.53 27.37 71.75 <
3 13 0 -2 285.14 -76.72 97.58 <
3 -13 0 -2 291.48 -29.45 22.34 <
3 13 0 -1 393.53 288.29 94.14 o
3 -13 0 -1 368.88 237.75 140.65 <
3 13 0 0 49.90 95.92 53.62 <
3 -13 0 0 45.43 123.47 122.64 <
3 13 0 1 2276.40 3197.25 335.27 o
3 -13 0 1 2242.42 3088.06 469.58 o
3 13 0 2 66.90 298.07 153.21 <
3 -13 0 2 74.20 164.47 102.73 <
4 13 0 -2 309.47 163.52 88.63 <
4 -13 0 -2 288.28 276.91 178.57 <
4 13 0 -1 119.94 240.54 108.89 <
4 -13 0 -1 101.14 275.49 177.44 <
4 13 0 0 17.58 116.00 85.14 <
4 -13 0 0 15.85 -18.07 67.54 <
4 13 0 1 740.26 553.29 208.90 <
4 -13 0 1 715.93 890.88 265.12 o
4 13 0 2 66.29 0.41 24.88 <
4 -13 0 2 60.13 51.48 64.87 <
5 13 0 -2 264.07 52.08 94.32 <
5 -13 0 -2 264.85 48.70 64.58 <
5 13 0 -1 108.35 100.60 56.52 <
5 -13 0 -1 113.96 154.99 111.56 <
5 13 0 0 23.59 48.17 23.28 <
5 -13 0 0 22.67 44.20 125.36 <
5 13 0 1 308.04 283.19 152.56 <
5 -13 0 1 344.46 272.35 158.13 <
5 13 0 2 29.86 6.87 57.88 <
5 -13 0 2 28.87 86.97 72.10 <
0 14 0 0 10602.60 9735.83 728.90 o
0 14 0 1 95.91 245.40 98.29 <
0 14 0 2 54.95 2.07 30.39 <
1 14 0 -2 112.46 37.21 30.99 <
1 -14 0 -2 141.92 0.83 26.31 <
1 14 0 -1 148.50 109.07 62.92 <
1 -14 0 -1 152.81 61.26 77.43 <
1 14 0 0 3134.10 3031.24 300.67 o
1 -14 0 0 3139.26 2904.99 421.83 o
1 14 0 1 114.29 154.04 99.65 <
1 -14 0 1 116.21 178.09 121.04 <
1 14 0 2 286.85 111.20 76.96 <
1 -14 0 2 285.10 72.81 66.65 <
2 14 0 -2 86.81 82.29 47.10 <
2 -14 0 -2 88.85 4.86 10.60 <
2 14 0 -1 239.68 85.25 64.04 <
2 -14 0 -1 243.71 52.67 73.46 <
2 14 0 0 4450.09 3598.46 322.47 o
2 -14 0 0 4252.36 3862.28 488.36 o
2 14 0 1 43.51 237.04 97.93 <
2 -14 0 1 64.56 217.19 101.01 <
2 14 0 2 146.11 46.98 67.72 <
2 -14 0 2 155.17 176.20 136.15 <
3 14 0 -2 122.78 5.21 50.89 <
3 -14 0 -2 156.76 -24.65 56.22 <
3 14 0 -1 96.96 95.62 72.99 <
3 -14 0 -1 99.44 92.84 74.53 <
3 14 0 0 332.26 335.21 105.04 o
3 -14 0 0 345.33 188.64 113.10 <
3 14 0 1 183.83 497.96 139.05 o
3 -14 0 1 192.12 474.73 189.70 <
3 14 0 2 17.17 75.42 95.56 <
3 -14 0 2 15.12 124.65 135.02 <
4 14 0 -2 145.62 67.01 71.75 <
4 -14 0 -2 147.29 305.35 184.67 <
4 14 0 -1 94.21 79.63 72.40 <
4 -14 0 -1 92.22 167.49 143.97 <
4 14 0 0 765.60 306.77 123.05 <
4 -14 0 0 745.01 497.54 205.05 <
4 14 0 1 44.17 122.99 84.31 <
4 -14 0 1 51.45 179.34 148.41 <
4 14 0 2 42.57 45.74 11.20 o
4 -14 0 2 42.61 240.18 150.66 <
5 14 0 -2 25.80 -17.89 61.32 <
5 -14 0 -2 35.72 86.02 109.07 <
5 14 0 -1 71.25 -19.55 77.91 <
5 -14 0 -1 71.49 125.66 115.94 <
5 14 0 0 0.28 -17.06 26.78 <
5 -14 0 0 0.29 17.36 41.77 <
5 14 0 1 37.60 -6.40 91.12 <
5 -14 0 1 43.43 -70.03 148.53 <
5 14 0 2 18.36 95.68 121.51 <
0 15 0 1 950.58 1236.10 201.79 o
0 15 0 2 30.13 134.31 79.03 <
1 15 0 -2 166.42 282.96 101.13 <
1 -15 0 -2 170.46 200.01 105.87 <
1 15 0 -1 36.17 115.53 64.10 <
1 -15 0 -1 61.96 115.41 101.43 <
1 15 0 0 2.66 121.39 85.37 <
1 -15 0 0 1.45 107.94 102.67 <
1 15 0 1 388.02 645.48 199.72 o
1 -15 0 1 440.15 792.77 230.70 o
1 15 0 2 13.43 70.21 74.06 <
1 -15 0 2 8.89 55.99 108.42 <
2 15 0 -2 136.33 246.99 76.96 o
2 -15 0 -2 142.22 143.49 79.86 <
2 15 0 -1 32.28 65.70 52.61 <
2 -15 0 -1 28.71 1.24 40.05 <
2 15 0 0 48.63 71.57 53.08 <
2 -15 0 0 47.11 146.04 109.72 <
2 15 0 1 816.68 1002.44 239.65 o
2 -15 0 1 884.01 873.46 237.28 o
2 15 0 2 219.50 200.49 105.28 <
2 -15 0 2 227.76 203.75 121.33 <
3 15 0 -2 193.49 474.73 146.10 o
3 -15 0 -2 188.86 327.57 173.95 <
3 15 0 -1 153.60 340.96 119.32 <
3 -15 0 -1 193.39 359.38 138.16 <
3 15 0 0 10.06 58.12 85.85 <
3 -15 0 0 14.23 117.78 107.29 <
3 15 0 1 297.83 146.75 119.79 <
3 -15 0 1 245.62 194.98 141.83 <
3 15 0 2 50.66 27.79 47.04 <
3 -15 0 2 42.87 45.92 102.02 <
4 15 0 -2 161.84 65.70 80.22 <
4 -15 0 -2 167.52 -50.06 92.54 <
4 15 0 -1 64.68 36.91 58.12 <
4 -15 0 -1 61.26 116.60 121.33 <
4 15 0 0 85.40 81.88 77.20 <
4 -15 0 0 80.41 112.51 122.28 <
4 15 0 1 271.47 335.33 191.78 <
4 -15 0 1 292.83 407.37 184.96 <
4 15 0 2 148.68 102.14 86.56 <
4 -15 0 2 152.65 409.33 236.39 <
5 15 0 -2 66.11 -20.62 73.70 <
5 -15 0 -2 60.29 23.52 55.28 <
5 15 0 -1 3.36 -88.39 111.97 <
5 -15 0 -1 3.41 -25.30 21.09 <
5 15 0 0 0.67 -27.31 49.00 <
5 -15 0 0 1.55 -26.54 39.81 <
5 15 0 1 106.30 -132.18 110.08 <
0 16 0 0 158.45 397.48 172.11 <
0 16 0 1 442.31 762.14 171.75 o
0 16 0 2 246.84 435.34 138.75 o
1 16 0 -2 19.50 133.24 60.55 <
1 -16 0 -2 22.98 103.56 115.53 <
1 16 0 -1 84.69 52.73 40.88 <
1 -16 0 -1 99.94 172.40 128.15 <
1 16 0 0 4543.42 4440.40 518.40 o
1 -16 0 0 4334.15 4107.50 514.07 o
1 16 0 1 105.64 164.52 106.05 <
1 -16 0 1 126.36 171.63 139.70 <
1 16 0 2 165.60 97.28 75.00 <
1 -16 0 2 171.97 57.41 87.62 <
2 16 0 -2 651.74 575.45 119.26 o
2 -16 0 -2 623.40 497.25 169.86 <
2 16 0 -1 143.42 133.78 68.31 <
2 -16 0 -1 165.05 116.71 107.12 <
2 16 0 0 1584.77 1319.64 285.27 o
2 -16 0 0 1606.12 1071.63 270.04 o
2 16 0 1 232.69 635.29 214.94 <
2 -16 0 1 222.28 728.13 239.41 o
2 16 0 2 501.05 467.33 188.82 <
2 -16 0 2 498.23 567.40 208.78 <
3 16 0 -2 82.44 86.08 61.02 <
3 -16 0 -2 78.92 207.89 167.25 <
3 16 0 -1 149.13 79.21 62.15 <
3 -16 0 -1 161.66 102.61 61.67 <
3 16 0 0 1189.08 1066.12 278.45 o
3 -16 0 0 1145.88 1733.05 379.23 o
3 16 0 1 125.59 259.73 138.93 <
3 -16 0 1 133.36 412.53 221.46 <
3 16 0 2 47.79 88.87 120.03 <
3 -16 0 2 38.51 43.37 96.39 <
4 16 0 -2 230.13 69.73 102.97 <
4 -16 0 -2 228.27 190.41 161.50 <
4 16 0 -1 87.97 110.61 80.87 <
4 -16 0 -1 106.30 79.69 111.14 <
4 16 0 0 15.58 83.89 109.31 <
4 -16 0 0 22.74 113.51 77.97 <
4 16 0 1 98.01 339.24 197.70 <
4 -16 0 1 91.03 311.45 182.71 <
4 16 0 2 130.65 60.79 59.84 <
4 -16 0 2 142.25 758.82 261.87 <
5 16 0 -2 33.20 14.10 77.61 <
5 -16 0 -2 28.81 7.76 26.42 <
5 16 0 -1 42.00 -27.79 89.52 <
5 -16 0 -1 48.44 64.16 133.72 <
5 16 0 0 390.54 261.75 144.80 <
5 16 0 1 22.28 7.29 107.18 <
0 17 0 1 1877.97 2069.51 270.69 o
0 17 0 2 68.41 87.21 89.34 <
1 17 0 -2 187.66 216.01 87.57 <
1 -17 0 -2 176.18 277.33 139.35 <
1 17 0 -1 222.99 412.23 130.22 o
1 -17 0 -1 221.28 354.82 152.08 <
1 17 0 0 14.23 75.83 94.32 <
1 -17 0 0 14.61 158.24 142.60 <
1 17 0 1 217.30 279.70 107.83 <
1 -17 0 1 212.25 251.62 141.36 <
1 17 0 2 130.72 197.70 108.95 <
1 -17 0 2 125.19 -43.01 99.95 <
2 17 0 -2 23.74 85.14 50.89 <
2 -17 0 -2 29.99 80.69 105.16 <
2 17 0 -1 1078.67 755.80 180.17 o
2 -17 0 -1 1045.73 709.23 225.19 o
2 17 0 0 15.15 35.13 60.49 <
2 -17 0 0 17.29 -11.91 69.85 <
2 17 0 1 782.14 803.96 220.51 o
2 -17 0 1 759.22 965.17 268.68 o
2 17 0 2 89.92 79.09 55.81 <
2 -17 0 2 90.86 132.12 120.03 <
3 17 0 -2 194.22 301.74 109.96 <
3 -17 0 -2 190.88 212.22 139.40 <
3 17 0 -1 90.42 55.69 29.27 <
3 -17 0 -1 93.18 143.37 120.09 <
3 17 0 0 57.71 -9.18 49.94 <
3 -17 0 0 58.69 99.12 92.07 <
3 17 0 1 369.88 470.23 192.84 <
3 -17 0 1 353.92 663.67 222.94 <
3 17 0 2 32.48 46.33 52.25 <
3 -17 0 2 32.52 186.56 123.82 <
4 17 0 -2 64.01 130.76 75.06 <
4 -17 0 -2 67.12 -27.96 46.69 <
4 17 0 -1 339.63 107.71 100.30 <
4 -17 0 -1 331.15 221.34 193.85 <
4 17 0 0 3.42 22.34 81.11 <
4 -17 0 0 3.83 131.17 189.70 <
4 17 0 1 250.23 251.74 167.66 <
4 -17 0 1 258.98 168.85 174.30 <
4 17 0 2 101.05 214.29 106.94 <
4 -17 0 2 109.75 215.06 132.47 <
5 17 0 -2 44.09 185.68 142.72 <
5 -17 0 -2 39.61 -179.87 161.38 <
5 17 0 -1 29.39 -181.41 129.63 <
5 17 0 0 31.08 -3.85 76.49 <
0 18 0 0 23049.10 25822.00 1393.22 o
0 18 0 1 114.58 34.24 51.01 <
0 18 0 2 71.94 136.80 74.29 <
1 18 0 -2 28.86 40.58 33.47 <
1 -18 0 -2 34.26 12.03 26.31 <
1 18 0 -1 78.86 46.15 103.32 <
1 -18 0 -1 65.87 199.36 142.13 <
1 18 0 0 567.31 582.98 148.88 o
1 -18 0 0 560.54 416.50 189.05 <
1 18 0 1 17.41 152.50 88.45 <
1 -18 0 1 20.91 121.81 88.04 <
1 18 0 2 105.47 258.55 124.36 <
1 -18 0 2 100.60 77.61 58.00 <
2 18 0 -2 106.93 -0.65 41.71 <
2 -18 0 -2 127.67 -63.69 39.58 <
2 18 0 -1 37.03 -3.44 37.21 <
2 18 0 0 4022.85 3997.60 413.12 o
2 -18 0 0 4035.85 3917.44 555.37 o
2 18 0 1 98.80 -35.31 17.83 <
2 -18 0 1 77.06 38.87 114.05 <
2 18 0 2 362.16 188.64 115.88 <
2 -18 0 2 379.12 237.40 144.38 <
3 18 0 -2 143.70 128.27 81.58 <
3 -18 0 -2 132.68 215.54 159.79 <
3 18 0 -1 103.57 155.82 94.91 <
3 -18 0 -1 96.79 213.11 145.92 <
3 18 0 0 135.81 111.20 93.02 <
3 -18 0 0 140.16 103.50 62.21 <
3 18 0 1 20.23 159.07 109.01 <
3 -18 0 1 16.53 -144.20 14.87 <
3 18 0 2 115.79 88.99 88.87 <
3 -18 0 2 115.68 181.11 74.47 <
4 18 0 -2 65.39 22.28 57.11 <
4 -18 0 -2 80.08 -179.34 133.72 <
4 18 0 -1 20.32 -17.30 82.94 <
4 -18 0 -1 23.01 179.51 156.65 <
4 18 0 0 1747.93 1392.63 359.38 o
4 -18 0 0 1737.80 1804.44 419.52 o
4 18 0 1 105.60 103.15 114.34 <
4 -18 0 1 93.83 202.56 162.87 <
4 18 0 2 25.79 157.53 163.22 <
4 -18 0 2 24.57 133.30 66.30 <
5 18 0 -2 29.33 130.99 135.67 <
5 18 0 -1 59.93 8.83 90.88 <
0 19 0 1 1082.89 1326.86 228.51 o
0 19 0 2 51.98 124.53 41.95 <
1 19 0 -2 77.17 227.09 106.58 <
1 -19 0 -2 75.76 127.50 114.94 <
1 19 0 -1 234.64 264.71 107.24 <
1 -19 0 -1 265.99 411.05 191.42 <
1 19 0 0 3.11 174.83 96.45 <
1 -19 0 0 3.10 170.80 141.36 <
1 19 0 1 110.45 132.24 88.75 <
1 -19 0 1 131.15 203.86 123.05 <
1 19 0 2 57.87 107.94 92.84 <
1 -19 0 2 55.70 98.47 59.48 <
2 19 0 -2 71.52 204.99 93.13 <
2 -19 0 -2 83.30 98.64 66.24 <
2 19 0 -1 340.48 357.37 119.14 <
2 -19 0 -1 352.92 491.56 191.78 <
2 19 0 0 1.60 47.34 82.77 <
2 -19 0 0 2.13 -15.88 30.87 <
2 19 0 1 415.44 554.72 168.91 o
2 -19 0 1 432.46 478.29 197.82 <
2 19 0 2 132.04 280.47 138.87 <
2 -19 0 2 123.67 132.18 98.76 <
3 19 0 -2 81.00 94.56 83.12 <
3 -19 0 -2 80.10 96.57 86.62 <
3 19 0 -1 97.35 -37.38 56.34 <
3 -19 0 -1 101.94 128.03 97.40 <
3 19 0 0 1.91 10.90 49.53 <
3 -19 0 0 2.01 -2.96 100.18 <
3 19 0 1 371.81 382.08 179.87 <
3 -19 0 1 398.45 494.58 220.75 <
3 19 0 2 45.93 81.34 104.15 <
3 -19 0 2 42.19 171.40 119.44 <
4 19 0 -2 89.42 54.27 74.71 <
4 -19 0 -2 102.23 -19.79 55.63 <
4 19 0 -1 139.89 101.61 102.44 <
4 -19 0 -1 152.67 178.39 141.12 <
4 19 0 0 1.47 7.76 96.04 <
4 -19 0 0 2.38 -17.71 3.79 <
4 19 0 1 136.62 68.13 58.12 <
4 -19 0 1 148.04 182.65 161.38 <
4 19 0 2 20.73 -71.86 83.48 <
5 19 0 -2 57.97 -133.01 112.51 <
0 20 0 0 695.34 812.67 277.68 <
0 20 0 1 70.28 60.49 96.81 <
0 20 0 2 151.58 229.40 101.19 <
0 -20 0 2 170.24 367.80 190.30 <
1 20 0 -2 199.41 226.61 114.46 <
1 -20 0 -2 189.80 159.96 109.07 <
1 20 0 -1 275.78 380.06 144.15 <
1 -20 0 -1 270.79 299.61 173.29 <
1 20 0 0 164.25 306.77 123.94 <
1 -20 0 0 205.15 311.75 146.46 <
1 20 0 1 81.77 168.14 106.58 <
1 -20 0 1 77.66 192.31 144.09 <
1 20 0 2 40.52 115.88 82.88 <
1 -20 0 2 38.03 16.94 77.08 <
2 20 0 -2 136.86 164.94 81.76 <
2 -20 0 -2 154.70 234.32 112.33 <
2 20 0 -1 67.49 -99.35 84.43 <
2 -20 0 -1 78.38 -31.76 76.13 <
2 20 0 0 207.34 400.26 158.24 <
2 -20 0 0 195.97 134.78 89.88 <
2 20 0 1 29.67 252.45 139.05 <
2 -20 0 1 41.83 38.87 40.05 <
2 20 0 2 188.00 209.79 111.50 <
2 -20 0 2 187.45 123.53 82.23 <
3 20 0 -2 93.53 74.29 70.68 <
3 -20 0 -2 90.67 66.89 100.48 <
3 20 0 -1 91.18 38.15 97.76 <
3 -20 0 -1 98.36 -15.34 103.26 <
3 20 0 0 598.97 722.56 203.92 o
3 -20 0 0 593.61 672.56 276.26 <
3 20 0 1 272.31 580.55 231.35 <
3 -20 0 1 273.92 411.88 218.62 <
3 20 0 2 32.59 40.29 74.18 <
3 -20 0 2 34.39 66.47 70.98 <
4 20 0 -2 59.05 -44.61 70.98 <
4 -20 0 -2 61.44 -46.21 101.67 <
4 20 0 -1 72.92 61.56 65.47 <
4 -20 0 -1 77.39 52.25 99.59 <
4 20 0 0 213.93 335.74 187.45 <
4 -20 0 0 214.66 249.25 169.62 <
4 20 0 1 28.73 19.97 90.88 <
0 21 0 1 4.93 39.46 113.16 <
0 -21 0 1 3.59 124.47 101.61 <
0 21 0 2 14.87 104.92 96.99 <
0 -21 0 2 16.70 20.74 113.75 <
1 21 0 -2 12.74 30.99 71.57 <
1 -21 0 -2 10.29 43.72 99.65 <
1 21 0 -1 276.78 274.78 100.72 <
1 -21 0 -1 268.88 274.48 122.34 <
1 21 0 0 12.74 63.57 64.76 <
1 -21 0 0 14.87 201.26 120.68 <
1 21 0 1 427.92 459.98 147.99 o
1 -21 0 1 435.07 334.26 181.11 <
1 21 0 2 57.92 71.21 81.82 <
1 -21 0 2 53.74 201.43 150.78 <
2 21 0 -2 62.04 191.30 110.91 <
2 -21 0 -2 65.35 -91.53 99.83 <
2 21 0 -1 32.30 -31.87 100.24 <
2 -21 0 -1 33.59 128.21 113.75 <
2 21 0 0 1.75 165.06 128.15 <
2 -21 0 0 1.89 35.25 64.10 <
2 21 0 1 45.69 64.28 38.51 <
2 -21 0 1 35.17 -56.70 98.05 <
2 21 0 2 23.90 94.32 89.88 <
2 -21 0 2 24.94 307.60 182.06 <
3 21 0 -2 49.78 -4.92 52.02 <
3 -21 0 -2 38.55 34.84 88.28 <
3 21 0 -1 23.83 -55.99 96.99 <
3 -21 0 -1 19.27 11.97 34.48 <
3 21 0 0 16.56 47.81 77.26 <
3 -21 0 0 18.66 121.22 118.31 <
3 21 0 1 27.55 2.67 91.24 <
3 -21 0 1 19.99 -104.69 85.91 <
3 21 0 2 55.06 43.43 72.75 <
3 -21 0 2 48.63 -170.27 165.18 <
4 21 0 -2 75.46 39.34 68.96 <
4 -21 0 -2 81.37 147.52 95.33 <
4 21 0 -1 3.27 93.85 97.64 <
4 21 0 0 9.71 -146.81 146.22 <
0 22 0 0 203.96 132.35 143.32 <
0 -22 0 0 234.37 266.01 187.10 <
0 22 0 1 92.16 81.05 45.56 <
0 -22 0 1 87.12 185.74 100.78 <
0 22 0 2 14.15 149.06 103.56 <
0 -22 0 2 20.23 89.58 99.06 <
1 22 0 -2 243.82 202.26 113.28 <
1 -22 0 -2 225.55 141.54 115.29 <
1 22 0 -1 86.98 170.33 121.99 <
1 -22 0 -1 79.09 54.57 86.26 <
1 22 0 0 1931.47 1884.37 305.29 o
1 -22 0 0 2005.36 1609.76 389.60 o
1 22 0 1 343.93 518.10 177.09 <
1 -22 0 1 304.15 618.52 234.02 <
1 22 0 2 83.08 100.36 61.85 <
1 -22 0 2 72.61 309.62 124.00 <
2 22 0 -2 55.66 9.78 41.23 <
2 -22 0 -2 51.30 -71.51 87.21 <
2 22 0 -1 74.55 202.62 130.04 <
2 -22 0 -1 70.55 54.33 26.60 <
2 22 0 0 118.76 31.70 51.72 <
2 -22 0 0 123.75 31.22 95.33 <
2 22 0 1 39.75 94.20 64.34 <
2 -22 0 1 37.40 99.12 42.18 <
2 22 0 2 59.99 113.51 50.54 <
2 -22 0 2 60.99 175.13 98.23 <
3 22 0 -2 184.67 115.00 114.76 <
3 -22 0 -2 181.95 244.68 165.29 <
3 22 0 -1 41.02 111.50 106.17 <
3 -22 0 -1 34.27 -109.19 133.36 <
3 22 0 0 843.33 696.67 211.68 o
3 -22 0 0 855.69 875.53 302.03 <
3 22 0 1 118.82 159.43 107.53 <
3 -22 0 1 107.40 103.32 95.56 <
3 22 0 2 18.00 -4.38 70.56 <
3 -22 0 2 19.35 -96.99 106.82 <
4 22 0 -2 28.81 26.19 40.41 <
0 23 0 1 125.55 192.90 116.18 <
0 -23 0 1 151.34 95.27 73.05 <
0 23 0 2 15.98 52.79 89.16 <
0 -23 0 2 16.53 34.18 27.90 <
1 23 0 -2 49.38 30.33 91.00 <
1 -23 0 -2 48.30 39.22 62.27 <
1 23 0 -1 384.00 412.82 153.62 <
1 -23 0 -1 391.02 235.98 141.12 <
1 23 0 0 4.42 -32.47 48.82 <
1 -23 0 0 4.69 -42.60 53.91 <
1 23 0 1 1249.05 1542.10 287.34 o
1 -23 0 1 1232.55 1363.89 346.82 o
1 23 0 2 82.26 9.36 58.00 <
1 -23 0 2 83.17 48.23 109.96 <
2 23 0 -2 15.39 26.01 89.05 <
2 -23 0 -2 13.94 -15.82 69.61 <
2 23 0 -1 17.36 91.06 88.57 <
2 -23 0 -1 25.84 22.22 87.80 <
2 23 0 0 10.57 -36.97 66.53 <
2 -23 0 0 9.37 50.48 71.57 <
2 23 0 1 42.09 100.72 76.66 <
2 -23 0 1 56.49 60.31 108.30 <
2 23 0 2 80.08 22.57 56.99 <
2 -23 0 2 80.66 -44.20 74.59 <
3 23 0 -2 23.02 29.33 78.32 <
3 -23 0 -2 22.39 69.67 130.04 <
3 23 0 -1 265.29 448.31 175.96 <
3 -23 0 -1 273.99 439.84 201.61 <
3 23 0 0 10.94 76.07 99.41 <
3 -23 0 0 10.06 37.62 81.17 <
3 23 0 1 147.66 454.12 249.84 <
3 23 0 2 33.57 342.91 288.58 <
0 24 0 0 819.75 1061.98 348.19 o
0 -24 0 0 868.35 970.09 296.76 o
0 24 0 1 96.36 111.03 91.95 <
0 -24 0 1 97.38 47.34 96.27 <
0 24 0 2 34.24 112.51 84.90 <
0 -24 0 2 40.98 84.84 105.52 <
1 24 0 -2 49.33 108.66 66.30 <
1 -24 0 -2 52.06 71.69 118.79 <
1 24 0 -1 16.75 264.71 127.73 <
1 -24 0 -1 15.56 50.18 41.18 <
1 24 0 0 150.08 199.90 115.82 <
1 -24 0 0 129.52 60.13 97.81 <
1 24 0 1 15.20 85.97 94.85 <
1 -24 0 1 14.15 75.18 109.49 <
1 24 0 2 128.30 176.08 116.65 <
1 -24 0 2 126.93 246.70 154.45 <
2 24 0 -2 3.95 42.36 108.78 <
2 -24 0 -2 2.97 -102.38 118.19 <
2 24 0 -1 20.14 -0.77 77.61 <
2 -24 0 -1 17.65 23.17 12.09 <
2 24 0 0 148.58 251.02 143.91 <
2 -24 0 0 161.42 146.40 206.83 <
2 24 0 1 138.73 149.36 93.02 <
2 -24 0 1 141.72 100.54 86.50 <
2 24 0 2 38.02 73.35 59.48 <
2 -24 0 2 35.01 29.27 137.98 <
3 24 0 -2 31.90 137.33 92.30 <
3 -24 0 -2 38.56 46.21 73.94 <
3 24 0 -1 4.14 42.24 136.32 <
3 24 0 0 161.82 326.21 246.82 <
0 25 0 1 14.11 56.05 109.96 <
0 -25 0 1 28.68 65.64 74.06 <
0 25 0 2 20.96 170.63 97.04 <
0 -25 0 2 18.96 171.69 120.09 <
1 25 0 -2 78.82 160.20 111.74 <
1 -25 0 -2 75.53 113.28 108.78 <
1 25 0 -1 94.11 137.98 86.91 <
1 -25 0 -1 92.91 50.89 89.70 <
1 25 0 0 3.46 59.66 91.59 <
1 -25 0 0 3.10 -67.60 72.52 <
1 25 0 1 231.79 396.00 159.55 <
1 -25 0 1 230.38 246.46 156.94 <
1 25 0 2 56.69 13.33 75.72 <
1 -25 0 2 59.33 -48.94 105.69 <
2 25 0 -2 38.99 47.34 102.14 <
2 -25 0 -2 32.84 -188.40 155.16 <
2 25 0 -1 54.28 88.63 68.84 <
2 -25 0 -1 49.38 36.67 55.93 <
2 25 0 0 3.53 69.08 66.47 <
2 -25 0 0 3.39 112.45 129.75 <
2 25 0 1 78.30 -92.66 154.34 <
3 25 0 -2 98.17 126.37 129.87 <
0 26 0 0 162.44 245.87 163.64 <
0 -26 0 0 162.81 194.62 100.30 <
0 26 0 1 63.84 67.24 103.68 <
0 -26 0 1 65.30 294.81 146.51 <
0 26 0 2 76.01 164.35 93.13 <
0 -26 0 2 63.49 133.18 108.72 <
1 26 0 -2 53.12 154.51 108.89 <
1 -26 0 -2 56.80 112.45 118.14 <
1 26 0 -1 19.85 70.74 73.23 <
1 -26 0 -1 17.68 -9.42 26.48 <
1 26 0 0 81.96 165.41 126.49 <
1 -26 0 0 82.78 118.37 132.77 <
1 26 0 1 11.65 -33.30 21.45 <
1 -26 0 1 13.05 36.61 90.47 <
1 26 0 2 25.80 220.75 222.70 <
1 -26 0 2 27.75 21.86 37.38 <
2 26 0 -2 75.13 82.71 122.22 <
2 -26 0 -2 67.63 -94.02 157.71 <
0 -27 0 1 86.09 100.01 94.20 <
0 -27 0 2 45.40 -17.71 26.54 <
1 -27 0 -2 16.25 59.72 39.34 <
1 -27 0 -1 72.82 275.97 216.72 <
1 -27 0 0 2.36 14.16 42.95 <
1 -27 0 1 91.24 222.11 148.11 <
-6 0 1 -1 1.93 75.42 79.51 <
-6 0 1 0 77.05 165.41 120.92 <
-6 0 1 1 733.67 378.22 164.11 <
-6 0 1 2 63.51 8.83 56.88 <
-5 0 1 -2 20.27 17.36 47.40 <
-5 0 1 -1 38.32 -80.69 70.56 <
-5 0 1 0 31.62 79.09 91.89 <
-5 0 1 1 44.93 75.30 52.20 <
-5 0 1 2 8.67 43.72 38.15 <
-4 0 1 -2 42.92 -4.62 42.83 <
-4 0 1 -1 62.28 195.45 79.63 <
-4 0 1 0 150.15 270.93 80.46 o
-4 0 1 1 3579.32 2438.67 248.00 o
-4 0 1 2 305.09 86.14 65.35 <
-3 0 1 -2 57.07 18.84 34.48 <
-3 0 1 -1 22.79 140.65 41.95 o
-3 0 1 0 93.09 24.11 10.43 <
-3 0 1 1 293.41 194.44 64.40 o
-3 0 1 2 18.80 56.99 46.33 <
-2 0 1 -2 3307.29 2853.15 187.51 o
-2 0 1 -1 14.44 87.15 29.27 <
-2 0 1 0 61.37 93.61 23.64 o
-2 0 1 1 4267.16 3453.78 159.31 o
-2 0 1 2 378.11 49.88 27.96 <
-1 0 1 -2 37.56 26.19 14.46 <
-1 0 1 -1 268.28 381.96 39.52 o
-1 0 1 0 58.35 27.08 12.86 <
-1 0 1 1 26.40 65.70 21.86 o
-1 0 1 2 5.24 9.42 18.72 <
0 0 1 2 4.58 22.39 14.63 <
1 0 1 -1 23.83 58.18 14.22 o
1 0 1 0 15.92 26.36 14.04 <
1 0 1 1 362.29 492.63 58.06 o
1 0 1 2 57.98 -9.60 16.59 <
2 0 1 -2 73.30 30.93 18.90 <
2 0 1 -1 1262.71 1456.43 94.08 o
2 0 1 0 16.76 5.51 9.36 <
2 0 1 1 2870.98 4125.33 172.23 o
2 0 1 2 97.98 60.55 42.54 <
3 0 1 -2 208.27 119.56 52.14 <
3 0 1 -1 1198.01 728.01 103.44 o
3 0 1 0 59.87 0.18 38.98 <
3 0 1 1 1813.32 1631.03 151.43 o
3 0 1 2 92.47 46.03 51.25 <
4 0 1 -2 166.99 -4.21 16.71 <
4 0 1 -1 432.83 460.93 90.82 o
4 0 1 0 46.43 135.20 60.13 <
4 0 1 1 2147.08 2649.46 278.39 o
4 0 1 2 84.41 115.29 67.60 <
5 0 1 -2 151.83 100.07 57.71 <
5 0 1 -1 168.99 357.49 119.32 <
5 0 1 0 48.58 74.53 56.58 <
5 0 1 1 94.73 108.42 70.21 <
5 0 1 2 25.81 46.57 56.16 <
6 0 1 -2 82.07 -75.83 68.43 <
6 0 1 -1 22.51 -27.79 97.40 <
6 0 1 0 16.24 0.59 25.18 <
6 0 1 1 582.20 453.76 176.08 <
-6 1 1 -1 393.08 660.35 232.48 <
-6 -1 1 -1 406.72 399.67 155.93 <
-6 1 1 0 22.16 46.03 59.72 <
-6 -1 1 0 23.81 137.51 95.15 <
-6 1 1 1 26.99 220.75 144.80 <
-6 -1 1 1 18.17 92.54 94.73 <
-6 1 1 2 322.58 21.03 74.59 <
-6 -1 1 2 321.87 54.74 66.71 <
-5 1 1 -2 18.92 -36.14 84.84 <
-5 -1 1 -2 21.64 105.75 86.74 <
-5 1 1 -1 531.47 1023.47 248.18 o
-5 -1 1 -1 543.15 839.39 214.71 o
-5 1 1 0 368.94 344.69 107.65 o
-5 -1 1 0 348.20 520.95 176.02 <
-5 1 1 1 122.31 27.49 19.55 <
-5 -1 1 1 107.96 100.95 74.53 <
-5 1 1 2 122.14 156.47 69.08 <
-5 -1 1 2 107.23 74.59 51.01 <
-4 1 1 -2 24.46 156.71 69.14 <
-4 -1 1 -2 22.32 66.06 43.78 <
-4 1 1 -1 864.92 1268.74 182.65 o
-4 -1 1 -1 912.30 1169.15 167.84 o
-4 1 1 0 188.94 717.41 130.76 o
-4 -1 1 0 197.43 685.71 129.93 o
-4 1 1 1 195.79 137.45 61.08 <
-4 -1 1 1 195.62 91.95 55.87 <
-4 1 1 2 403.48 545.77 135.38 o
-4 -1 1 2 398.01 479.36 125.78 o
-3 1 1 -2 62.31 40.76 42.24 <
-3 -1 1 -2 67.30 52.73 30.22 <
-3 1 1 -1 2224.36 4134.93 240.60 o
-3 -1 1 -1 2333.99 3730.87 225.07 o
-3 1 1 0 1096.00 1272.24 120.09 o
-3 -1 1 0 1042.30 1203.99 147.05 o
-3 1 1 1 390.13 229.93 59.78 o
-3 -1 1 1 373.46 236.27 74.29 o
-3 1 1 2 108.49 22.69 13.98 <
-3 -1 1 2 92.01 -13.57 24.88 <
-2 1 1 -2 7947.43 10613.70 291.25 o
-2 -1 1 -2 7931.63 10623.10 349.02 o
-2 1 1 -1 980.58 993.61 85.67 o
-2 -1 1 -1 1035.45 956.58 102.26 o
-2 1 1 0 933.26 1113.34 86.44 o
-2 -1 1 0 970.99 1026.19 117.07 o
-2 1 1 1 261.03 225.49 45.38 o
-2 -1 1 1 277.00 155.34 47.51 o
-2 1 1 2 448.98 403.76 60.55 o
-2 -1 1 2 439.51 447.42 84.78 o
-1 1 1 -2 19.54 -3.91 11.91 <
-1 -1 1 -2 20.65 13.39 18.84 <
-1 1 1 -1 90.89 79.86 18.66 o
-1 -1 1 -1 80.83 85.97 25.36 o
-1 1 1 0 1476.10 1708.23 82.17 o
-1 -1 1 0 1420.25 1791.88 108.18 o
-1 1 1 1 290.61 215.30 31.04 o
-1 -1 1 1 283.07 209.79 42.12 o
-1 1 1 2 22.36 13.74 11.55 <
-1 -1 1 2 22.05 19.73 15.17 <
0 1 1 1 49.92 20.74 17.54 <
0 -1 1 1 52.02 47.16 31.87 <
0 1 1 2 20.33 9.36 17.66 <
0 -1 1 2 21.90 39.40 28.79 <
1 1 1 -2 4.78 8.35 7.70 <
1 -1 1 -2 4.67 30.16 19.91 <
1 1 1 -1 262.01 173.47 23.34 o
1 -1 1 -1 248.51 186.92 29.27 o
1 1 1 0 1992.44 2187.76 84.54 o
1 -1 1 0 1870.01 2326.93 131.52 o
1 1 1 1 974.71 1215.66 88.51 o
1 -1 1 1 951.67 1225.38 111.97 o
1 1 1 2 41.78 53.08 27.90 <
1 -1 1 2 47.40 78.74 39.22 <
2 1 1 -2 319.95 223.24 42.83 o
2 -1 1 -2 305.95 184.96 45.38 o
2 1 1 -1 352.82 170.27 29.74 o
2 -1 1 -1 372.97 148.41 40.94 o
2 1 1 0 2174.44 2372.96 121.69 o
2 -1 1 0 2264.76 2430.97 143.49 o
2 1 1 1 271.71 319.45 50.30 o
2 -1 1 1 202.97 353.22 59.13 o
2 1 1 2 658.13 389.01 74.35 o
2 -1 1 2 644.09 375.02 96.16 o
3 1 1 -2 37.21 141.06 42.48 o
3 -1 1 -2 35.84 92.84 45.80 <
3 1 1 -1 2470.31 2108.67 140.12 o
3 -1 1 -1 2460.32 2006.71 164.82 o
3 1 1 0 1549.83 1696.56 126.49 o
3 -1 1 0 1437.56 1749.46 151.14 o
3 1 1 1 1549.50 2862.39 199.48 o
3 -1 1 1 1571.98 2875.78 197.88 o
3 1 1 2 120.95 74.71 60.61 <
3 -1 1 2 143.89 117.13 66.06 <
4 1 1 -2 318.35 164.47 61.97 <
4 -1 1 -2 297.17 227.27 68.90 o
4 1 1 -1 374.27 93.02 54.15 <
4 -1 1 -1 371.35 167.90 61.67 <
4 1 1 0 153.48 200.84 66.30 o
4 -1 1 0 155.52 141.83 61.79 <
4 1 1 1 152.99 376.68 108.78 o
4 -1 1 1 98.25 509.57 132.35 o
4 1 1 2 267.12 413.06 113.51 o
4 -1 1 2 257.46 446.36 128.68 o
5 1 1 -2 17.14 1.30 41.23 <
5 -1 1 -2 18.08 1.48 54.80 <
5 1 1 -1 784.48 502.52 114.64 o
5 -1 1 -1 758.15 466.86 141.24 o
5 1 1 0 656.35 455.48 128.86 o
5 -1 1 0 624.35 536.17 144.62 o
5 1 1 1 121.79 125.96 75.72 <
5 -1 1 1 127.76 139.11 70.44 <
5 1 1 2 82.22 46.33 68.72 <
5 -1 1 2 97.77 43.13 44.79 <
6 1 1 -2 74.84 -21.74 49.94 <
6 -1 1 -2 68.83 -60.90 52.91 <
6 1 1 -1 187.07 108.60 83.18 <
6 -1 1 -1 184.56 15.11 58.42 <
6 1 1 0 104.37 283.37 148.77 <
6 -1 1 0 105.67 -11.97 25.30 <
6 -1 1 1 73.04 68.67 82.88 <
-6 2 1 -1 274.11 130.04 100.60 <
-6 -2 1 -1 304.90 246.88 140.12 <
-6 2 1 0 711.51 1022.05 272.29 o
-6 -2 1 0 707.07 784.17 245.63 o
-6 2 1 1 20.52 131.76 116.12 <
-6 -2 1 1 23.73 50.12 81.58 <
-6 2 1 2 70.17 113.75 127.67 <
-6 -2 1 2 81.83 247.71 110.20 <
-5 2 1 -2 23.82 51.90 72.04 <
-5 -2 1 -2 25.86 155.82 110.73 <
-5 2 1 -1 111.21 74.71 62.74 <
-5 -2 1 -1 87.25 -52.14 63.93 <
-5 2 1 0 160.98 208.78 72.58 <
-5 -2 1 0 142.21 18.90 31.28 <
-5 2 1 1 228.06 73.64 59.90 <
-5 -2 1 1 180.05 98.05 112.33 <
-5 2 1 2 83.71 117.96 78.74 <
-5 -2 1 2 71.66 41.89 30.75 <
-4 2 1 -2 61.84 -23.17 41.41 <
-4 -2 1 -2 64.47 23.88 39.52 <
-4 2 1 -1 700.37 709.29 131.41 o
-4 -2 1 -1 766.18 838.15 141.24 o
-4 2 1 0 2850.79 3974.61 316.02 o
-4 -2 1 0 2841.84 3684.48 287.05 o
-4 2 1 1 114.94 118.37 58.36 <
-4 -2 1 1 128.91 66.77 44.55 <
-4 2 1 2 368.68 114.70 76.43 <
-4 -2 1 2 379.95 70.68 53.56 <
-3 2 1 -2 106.42 219.27 52.08 o
-3 -2 1 -2 123.69 225.61 59.96 o
-3 2 1 -1 1737.92 2159.86 146.40 o
-3 -2 1 -1 1655.53 2018.50 166.01 o
-3 2 1 0 972.26 1029.16 109.43 o
-3 -2 1 0 911.59 1092.13 134.84 o
-3 2 1 1 582.19 489.43 79.45 o
-3 -2 1 1 511.99 443.22 92.25 o
-3 2 1 2 125.98 38.45 20.68 <
-3 -2 1 2 109.45 91.30 43.01 <
-2 2 1 -2 1375.00 1490.32 109.96 o
-2 -2 1 -2 1313.56 1552.00 137.92 o
-2 2 1 -1 871.78 1226.15 92.48 o
-2 -2 1 -1 905.05 1159.02 107.06 o
-2 2 1 0 15665.70 20926.80 362.70 o
-2 -2 1 0 15633.30 19783.60 483.74 o
-2 2 1 1 233.66 300.61 49.65 o
-2 -2 1 1 254.22 321.23 69.20 o
-2 2 1 2 233.26 84.48 36.97 <
-2 -2 1 2 231.78 54.39 40.52 <
-1 2 1 -2 246.73 147.40 28.02 o
-1 -2 1 -2 262.58 120.33 39.04 o
-1 2 1 -1 308.28 313.11 36.38 o
-1 -2 1 -1 311.97 293.38 46.09 o
-1 2 1 0 2173.31 2133.73 93.13 o
-1 -2 1 0 2119.75 2373.38 126.67 o
-1 2 1 1 115.31 62.92 21.98 <
-1 -2 1 1 144.42 71.81 33.36 <
-1 2 1 2 44.18 24.11 11.55 <
-1 -2 1 2 42.99 35.73 37.21 <
0 2 1 1 17.13 13.27 8.24 <
0 -2 1 1 21.21 15.17 9.30 <
0 2 1 2 35.84 56.16 24.29 <
0 -2 1 2 32.56 20.20 12.03 <
1 2 1 -2 14.28 20.91 12.20 <
1 -2 1 -2 14.78 1.72 6.40 <
1 2 1 -1 108.84 98.23 20.02 o
1 -2 1 -1 105.15 131.11 34.78 o
1 2 1 0 1450.89 1574.39 76.19 o
1 -2 1 0 1435.55 1396.30 102.79 o
1 2 1 1 1487.36 2083.90 116.54 o
1 -2 1 1 1523.07 1880.57 134.78 o
1 2 1 2 126.78 237.04 46.21 o
1 -2 1 2 118.52 216.66 56.58 o
2 2 1 -2 202.82 43.49 20.38 <
2 -2 1 -2 202.19 50.30 26.25 <
2 2 1 -1 1253.36 1123.12 81.52 o
2 -2 1 -1 1235.37 1026.43 96.99 o
2 2 1 0 17924.80 22031.90 366.97 o
2 -2 1 0 17900.90 22972.10 432.91 o
2 2 1 1 35.15 27.85 15.11 <
2 -2 1 1 41.71 76.25 38.27 <
2 2 1 2 1584.15 1751.66 140.89 o
2 -2 1 2 1547.46 1869.20 200.25 o
3 2 1 -2 142.91 58.71 30.93 <
3 -2 1 -2 134.45 21.15 32.94 <
3 2 1 -1 1798.24 2726.19 162.39 o
3 -2 1 -1 1824.31 2795.38 194.92 o
3 2 1 0 390.33 355.83 59.13 o
3 -2 1 0 377.53 462.89 83.24 o
3 2 1 1 1023.16 1397.84 124.18 o
3 -2 1 1 923.60 1454.36 147.88 o
3 2 1 2 446.00 834.89 117.31 o
3 -2 1 2 429.96 1077.86 177.38 o
4 2 1 -2 226.49 72.16 28.20 <
4 -2 1 -2 238.85 119.91 52.91 <
4 2 1 -1 695.27 526.69 102.32 o
4 -2 1 -1 696.32 471.48 92.60 o
4 2 1 0 3384.71 3755.22 262.22 o
4 -2 1 0 3406.97 4021.77 266.96 o
4 2 1 1 79.43 183.54 78.32 <
4 -2 1 1 84.45 130.87 59.84 <
4 2 1 2 397.06 801.89 158.54 o
4 -2 1 2 396.69 534.16 136.44 o
5 2 1 -2 99.20 112.45 70.15 <
5 -2 1 -2 89.43 204.22 118.19 <
5 2 1 -1 281.48 625.99 122.28 o
5 -2 1 -1 291.26 413.59 157.00 <
5 2 1 0 34.78 58.48 68.78 <
5 -2 1 0 30.32 104.15 71.45 <
5 2 1 1 472.09 762.08 163.76 o
5 -2 1 1 467.85 896.27 191.42 o
5 2 1 2 119.86 356.30 121.63 <
5 -2 1 2 115.89 295.16 115.11 <
6 2 1 -2 85.58 64.22 103.56 <
6 -2 1 -2 92.72 35.55 43.78 <
6 2 1 -1 112.38 215.60 130.64 <
6 -2 1 -1 119.29 72.64 21.68 o
6 2 1 0 856.88 1072.82 279.82 o
6 -2 1 0 856.68 802.07 240.77 o
6 -2 1 1 109.43 133.72 100.89 <
-6 3 1 -1 181.93 73.23 39.34 <
-6 -3 1 -1 159.79 5.39 33.53 <
-6 3 1 0 378.08 278.45 164.41 <
-6 -3 1 0 398.89 149.42 139.23 <
-6 3 1 1 81.20 54.27 59.90 <
-6 -3 1 1 79.26 -120.45 101.01 <
-6 3 1 2 34.48 -66.41 84.01 <
-6 -3 1 2 26.92 118.49 152.85 <
-5 3 1 -2 125.70 532.20 190.24 <
-5 -3 1 -2 120.14 377.81 165.12 <
-5 3 1 -1 529.28 673.39 155.82 o
-5 -3 1 -1 495.45 642.76 200.07 o
-5 3 1 0 261.65 301.74 103.74 <
-5 -3 1 0 288.33 181.29 107.24 <
-5 3 1 1 324.77 534.04 134.01 o
-5 -3 1 1 318.30 396.71 156.17 <
-5 3 1 2 362.58 204.16 88.81 <
-5 -3 1 2 336.81 66.12 95.50 <
-4 3 1 -2 168.07 156.53 76.19 <
-4 -3 1 -2 182.35 218.44 102.79 <
-4 3 1 -1 641.00 780.38 143.55 o
-4 -3 1 -1 557.44 746.14 192.73 o
-4 3 1 0 2104.04 1144.39 132.00 o
-4 -3 1 0 2188.73 1018.85 147.99 o
-4 3 1 1 397.62 217.19 59.01 o
-4 -3 1 1 393.17 213.28 70.80 o
-4 3 1 2 342.30 184.31 67.54 <
-4 -3 1 2 337.09 189.70 71.04 <
-3 3 1 -2 138.85 289.18 61.20 o
-3 -3 1 -2 144.47 423.31 86.74 o
-3 3 1 -1 601.72 1047.52 104.63 o
-3 -3 1 -1 507.20 1035.97 119.68 o
-3 3 1 0 1039.35 1386.35 128.98 o
-3 -3 1 0 1083.34 1460.34 159.96 o
-3 3 1 1 1465.34 1793.19 152.68 o
-3 -3 1 1 1457.79 1456.32 167.31 o
-3 3 1 2 523.62 554.36 84.60 o
-3 -3 1 2 476.60 469.64 102.08 o
-2 3 1 -2 294.09 381.30 54.74 o
-2 -3 1 -2 330.94 503.05 83.83 o
-2 3 1 -1 1246.66 1337.77 96.81 o
-2 -3 1 -1 1140.32 1393.69 117.19 o
-2 3 1 0 14378.10 15063.40 304.58 o
-2 -3 1 0 14515.80 14682.00 411.99 o
-2 3 1 1 357.86 405.83 58.89 o
-2 -3 1 1 351.79 366.73 75.00 o
-2 3 1 2 217.08 510.34 72.64 o
-2 -3 1 2 216.79 120.51 48.23 <
-1 3 1 -2 173.37 176.26 32.05 o
-1 -3 1 -2 175.98 199.72 44.73 o
-1 3 1 -1 2190.53 2381.85 100.36 o
-1 -3 1 -1 2264.12 2391.09 121.10 o
-1 3 1 0 766.99 862.32 77.73 o
-1 -3 1 0 809.79 912.80 80.57 o
-1 3 1 1 3345.16 2728.26 150.66 o
-1 -3 1 1 3352.45 2786.14 220.10 o
-1 3 1 2 123.31 70.86 24.82 <
-1 -3 1 2 114.97 68.19 49.71 <
0 3 1 -2 27.06 22.75 10.31 <
0 -3 1 -2 26.51 46.69 28.08 <
0 3 1 -1 49.14 33.89 15.40 <
0 -3 1 -1 51.36 12.32 19.97 <
0 3 1 0 14678.50 14475.90 193.85 o
0 -3 1 0 14742.20 13778.70 276.32 o
0 3 1 1 81.93 75.30 20.20 o
0 -3 1 1 74.78 47.28 26.19 <
0 3 1 2 429.25 297.35 42.24 o
0 -3 1 2 428.06 251.26 75.18 o
1 3 1 -2 3.89 23.11 13.92 <
1 -3 1 -2 6.54 22.93 16.00 <
1 3 1 -1 614.49 411.99 50.60 o
1 -3 1 -1 585.16 315.25 58.53 o
1 3 1 0 535.67 674.33 64.34 o
1 -3 1 0 588.65 661.48 75.60 o
1 3 1 1 5027.16 5345.02 178.33 o
1 -3 1 1 5051.23 4831.83 218.68 o
1 3 1 2 187.28 228.27 45.97 o
1 -3 1 2 177.98 260.92 62.21 o
2 3 1 -2 352.93 406.13 51.84 o
2 -3 1 -2 342.74 271.64 54.21 o
2 3 1 -1 840.77 613.07 60.31 o
2 -3 1 -1 765.00 620.72 74.12 o
2 3 1 0 13768.80 14999.40 304.52 o
2 -3 1 0 13975.50 15743.60 354.47 o
2 3 1 1 1077.55 1408.09 100.30 o
2 -3 1 1 1035.95 1461.94 155.82 o
2 3 1 2 2365.40 2193.33 156.47 o
2 -3 1 2 2461.09 2328.11 217.85 o
3 3 1 -2 283.47 177.85 44.20 o
3 -3 1 -2 298.60 75.06 42.66 <
3 3 1 -1 543.65 315.30 59.66 o
3 -3 1 -1 485.84 276.62 70.21 o
3 3 1 0 391.20 643.11 81.40 o
3 -3 1 0 444.85 620.06 96.16 o
3 3 1 1 343.32 422.60 69.50 o
3 -3 1 1 406.55 481.25 113.75 o
3 3 1 2 283.42 365.49 72.46 o
3 -3 1 2 272.28 543.40 121.10 o
4 3 1 -2 322.92 404.83 77.14 o
4 -3 1 -2 315.67 369.63 91.48 o
4 3 1 -1 645.59 515.44 82.41 o
4 -3 1 -1 579.95 480.42 98.94 o
4 3 1 0 1751.48 698.51 95.74 o
4 -3 1 0 1830.50 919.61 171.99 o
4 3 1 1 309.37 500.86 120.68 o
4 -3 1 1 286.89 533.39 136.92 o
4 3 1 2 148.83 195.81 83.65 <
4 -3 1 2 125.95 155.76 84.01 <
5 3 1 -2 219.50 61.79 68.84 <
5 -3 1 -2 238.55 60.67 54.15 <
5 3 1 -1 323.91 219.39 77.49 <
5 -3 1 -1 300.52 196.22 117.31 <
5 3 1 0 94.81 -2.67 48.76 <
5 -3 1 0 108.97 168.14 132.53 <
5 3 1 1 231.51 434.92 127.08 o
5 -3 1 1 281.27 415.73 133.42 o
5 3 1 2 106.48 276.26 113.63 <
5 -3 1 2 103.20 237.34 109.84 <
6 3 1 -2 169.03 40.17 83.42 <
6 -3 1 -2 178.00 38.81 48.46 <
6 3 1 -1 79.07 -23.76 14.63 <
6 -3 1 -1 61.74 11.91 7.23 <
6 3 1 0 367.31 166.30 102.38 <
6 -3 1 0 384.60 192.19 128.03 <
6 -3 1 1 70.02 22.34 54.51 <
-6 -4 1 -1 76.04 -6.28 49.71 <
-6 -4 1 0 264.56 212.16 122.82 <
-6 4 1 1 155.01 6.28 40.64 <
-6 -4 1 1 144.21 104.21 112.45 <
-6 4 1 2 80.63 22.87 35.55 <
-6 -4 1 2 92.74 43.37 79.45 <
-5 4 1 -2 147.94 16.00 53.32 <
-5 -4 1 -2 149.20 155.93 113.34 <
-5 4 1 -1 334.55 769.48 160.50 o
-5 -4 1 -1 311.41 750.64 213.94 o
-5 4 1 0 3073.98 2714.16 309.32 o
-5 -4 1 0 3085.41 2664.10 406.01 o
-5 4 1 1 960.92 493.28 137.92 o
-5 -4 1 1 913.99 540.56 190.71 <
-5 4 1 2 178.94 214.59 90.53 <
-5 -4 1 2 168.09 210.32 124.06 <
-4 4 1 -2 90.35 232.95 69.50 o
-4 -4 1 -2 99.55 256.47 116.36 <
-4 4 1 -1 102.25 124.30 39.40 o
-4 -4 1 -1 142.63 236.92 99.47 <
-4 4 1 0 752.39 871.03 118.85 o
-4 -4 1 0 702.55 801.36 202.21 o
-4 4 1 1 442.08 211.51 63.16 o
-4 -4 1 1 423.90 166.36 68.67 <
-4 4 1 2 112.26 96.04 42.54 <
-4 -4 1 2 121.16 118.02 51.25 <
-3 4 1 -2 148.13 114.11 37.32 o
-3 -4 1 -2 159.20 173.47 59.42 <
-3 4 1 -1 176.10 317.14 59.01 o
-3 -4 1 -1 176.34 276.38 70.27 o
-3 4 1 0 20732.50 21102.30 502.70 o
-3 -4 1 0 20706.60 20152.40 574.15 o
-3 4 1 1 2504.87 842.53 101.61 o
-3 -4 1 1 2399.07 618.94 105.34 o
-3 4 1 2 252.26 213.58 56.99 o
-3 -4 1 2 241.74 203.45 68.07 <
-2 4 1 -2 52.16 165.00 37.68 o
-2 -4 1 -2 61.31 165.53 48.82 o
-2 4 1 -1 238.94 271.76 44.67 o
-2 -4 1 -1 285.70 267.85 55.93 o
-2 4 1 0 2549.73 2595.08 125.84 o
-2 -4 1 0 2503.80 2330.96 165.47 o
-2 4 1 1 768.74 469.11 65.70 o
-2 -4 1 1 767.23 459.51 85.02 o
-2 4 1 2 17.94 10.90 12.92 <
-2 -4 1 2 19.54 23.28 26.25 <
-1 4 1 -2 151.55 173.65 39.22 o
-1 -4 1 -2 164.48 186.98 45.97 o
-1 4 1 -1 17677.20 19073.60 338.53 o
-1 -4 1 -1 17627.30 19027.00 388.12 o
-1 4 1 0 75253.90 96374.20 1332.08 o
-1 -4 1 0 74878.00 87750.40 1303.88 o
-1 4 1 1 2403.57 2076.14 149.42 o
-1 -4 1 1 2378.82 2114.83 207.12 o
-1 4 1 2 130.72 33.06 18.13 <
-1 -4 1 2 123.37 36.97 41.47 <
0 4 1 -2 67.48 -8.95 18.25 <
0 -4 1 -2 70.35 61.56 42.60 <
0 4 1 -1 17.10 18.13 16.47 <
0 4 1 0 1136.66 1011.56 57.65 o
0 -4 1 0 1145.73 1045.92 76.55 o
0 4 1 1 868.40 723.33 64.40 o
0 -4 1 1 834.42 698.27 87.86 o
0 4 1 2 206.83 80.63 22.99 o
0 -4 1 2 205.79 60.02 39.10 <
1 4 1 -2 24.21 29.21 19.55 <
1 -4 1 -2 23.49 22.57 11.97 <
1 4 1 -1 630.91 425.09 48.52 o
1 -4 1 -1 581.70 381.96 61.02 o
1 4 1 0 76965.20 79548.00 687.54 o
1 -4 1 0 76687.20 80851.30 860.48 o
1 4 1 1 4702.08 4819.04 219.74 o
1 -4 1 1 4655.28 4544.26 224.13 o
1 4 1 2 163.75 182.83 40.52 o
1 -4 1 2 172.73 232.54 60.02 o
2 4 1 -2 821.91 482.38 56.64 o
2 -4 1 -2 826.89 300.91 56.34 o
2 4 1 -1 187.78 243.44 42.89 o
2 -4 1 -1 231.32 168.79 43.66 o
2 4 1 0 2002.49 2003.45 115.17 o
2 -4 1 0 1980.96 2184.62 133.84 o
2 4 1 1 1653.40 1670.19 112.15 o
2 -4 1 1 1521.53 1624.81 165.06 o
2 4 1 2 536.07 499.20 77.26 o
2 -4 1 2 483.77 520.89 107.59 o
3 4 1 -2 81.15 15.17 19.73 <
3 -4 1 -2 67.79 78.74 41.95 <
3 4 1 -1 205.92 70.68 29.74 <
3 -4 1 -1 156.36 102.61 36.02 <
3 4 1 0 21703.90 21666.30 447.48 o
3 -4 1 0 21759.90 22491.70 567.22 o
3 4 1 1 432.38 449.67 69.79 o
3 -4 1 1 400.81 531.73 117.01 o
3 4 1 2 111.82 240.48 63.87 o
3 -4 1 2 112.39 265.48 97.16 <
4 4 1 -2 1105.25 674.57 101.72 o
4 -4 1 -2 1106.64 654.54 119.44 o
4 4 1 -1 66.46 94.73 38.69 <
4 -4 1 -1 89.53 145.45 88.75 <
4 4 1 0 358.03 322.18 66.65 o
4 -4 1 0 326.67 328.04 103.38 o
4 4 1 1 843.72 842.00 120.27 o
4 -4 1 1 766.08 882.11 165.71 o
4 4 1 2 69.50 154.99 64.99 <
4 -4 1 2 90.88 117.66 82.00 <
5 4 1 -2 124.87 63.51 51.01 <
5 -4 1 -2 114.09 211.57 130.34 <
5 4 1 -1 125.64 160.26 66.36 <
5 -4 1 -1 108.60 182.42 131.23 <
5 4 1 0 3417.81 2854.33 310.86 o
5 -4 1 0 3463.09 2244.05 361.87 o
5 4 1 1 525.99 462.41 123.29 o
5 -4 1 1 500.98 475.92 178.62 <
5 4 1 2 39.98 9.95 43.72 <
5 -4 1 2 37.68 173.18 80.63 <
6 4 1 -2 214.85 157.83 102.79 <
6 -4 1 -2 223.85 149.89 91.42 <
6 4 1 -1 0.28 37.86 62.44 <
6 -4 1 -1 1.86 166.48 90.76 <
6 -4 1 0 111.04 -21.27 75.12 <
6 -4 1 1 300.58 266.13 146.99 <
-6 -5 1 0 21.74 250.43 128.33 <
-6 5 1 1 14.45 28.73 73.05 <
-6 -5 1 1 20.96 -88.04 86.32 <
-6 5 1 2 94.66 228.39 145.57 <
-6 -5 1 2 90.27 151.61 111.62 <
-5 5 1 -2 89.34 338.23 173.53 <
-5 -5 1 -2 97.15 51.19 74.77 <
-5 5 1 -1 335.29 508.03 131.52 o
-5 -5 1 -1 318.54 510.88 169.92 o
-5 5 1 0 342.42 259.44 98.58 <
-5 -5 1 0 346.65 392.15 173.12 <
-5 5 1 1 44.87 11.85 41.12 <
-5 -5 1 1 56.88 12.56 16.77 <
-5 5 1 2 166.40 47.28 51.43 <
-5 -5 1 2 172.27 24.53 24.23 <
-4 5 1 -2 103.53 448.79 93.43 o
-4 -5 1 -2 98.12 438.60 161.56 <
-4 5 1 -1 565.61 671.79 108.54 o
-4 -5 1 -1 592.90 733.52 194.33 o
-4 5 1 0 1308.77 1751.30 171.81 o
-4 -5 1 0 1327.20 1962.92 326.50 o
-4 5 1 1 58.90 37.98 37.27 <
-4 -5 1 1 69.22 144.50 57.94 <
-4 5 1 2 183.26 165.12 54.98 o
-4 -5 1 2 167.59 122.16 72.64 <
-3 5 1 -2 79.70 149.18 41.23 o
-3 -5 1 -2 90.57 167.96 53.68 o
-3 5 1 -1 840.34 1528.30 123.65 o
-3 -5 1 -1 856.27 1290.01 144.26 o
-3 5 1 0 1491.16 1296.12 125.42 o
-3 -5 1 0 1490.51 1210.45 140.89 o
-3 5 1 1 230.54 158.96 44.79 o
-3 -5 1 1 252.11 112.74 45.74 <
-3 5 1 2 317.97 14.87 24.71 <
-3 -5 1 2 337.15 45.68 34.60 <
-2 5 1 -2 173.78 92.36 24.94 o
-2 -5 1 -2 175.18 58.42 33.18 <
-2 5 1 -1 1221.37 1877.97 134.90 o
-2 -5 1 -1 1331.32 1765.58 149.83 o
-2 5 1 0 7870.03 9180.46 352.51 o
-2 -5 1 0 7915.00 8915.75 331.66 o
-2 5 1 1 40.32 121.39 46.45 <
-2 -5 1 1 53.92 116.06 37.92 o
-2 5 1 2 127.61 95.74 41.35 <
-2 -5 1 2 126.50 110.91 43.13 <
-1 5 1 -2 131.92 91.95 29.15 o
-1 -5 1 -2 143.13 97.87 33.36 <
-1 5 1 -1 1461.08 2895.81 160.73 o
-1 -5 1 -1 1463.19 2959.32 171.52 o
-1 5 1 0 4699.73 5908.68 261.51 o
-1 -5 1 0 4679.59 5636.09 359.27 o
-1 5 1 1 484.15 354.41 69.32 o
-1 -5 1 1 488.58 343.09 91.48 o
-1 5 1 2 99.52 14.10 15.23 <
-1 -5 1 2 104.31 -3.55 21.86 <
0 5 1 -2 6.38 14.87 21.57 <
0 5 1 -1 305.06 387.52 50.18 o
0 5 1 0 27749.90 25568.40 316.08 o
0 -5 1 0 27837.60 23848.50 390.13 o
0 5 1 1 995.86 1013.75 86.68 o
0 -5 1 1 1017.69 873.70 98.05 o
0 5 1 2 38.45 22.51 16.17 <
0 -5 1 2 37.80 16.65 25.48 <
1 5 1 -2 85.60 63.75 19.91 o
1 -5 1 -2 77.97 82.71 38.27 <
1 5 1 -1 655.88 465.02 54.80 o
1 -5 1 -1 683.59 501.28 78.03 o
1 5 1 0 4314.90 4410.83 170.09 o
1 -5 1 0 4241.70 4696.10 223.59 o
1 5 1 1 1716.73 1587.31 135.79 o
1 -5 1 1 1678.43 1545.84 143.37 o
1 5 1 2 5.13 50.12 36.08 <
1 -5 1 2 3.95 27.85 34.30 <
2 5 1 -2 431.23 182.24 40.64 o
2 -5 1 -2 424.64 127.85 43.37 <
2 5 1 -1 846.18 952.67 101.49 o
2 -5 1 -1 840.65 645.60 82.00 o
2 5 1 0 7979.48 9514.49 313.59 o
2 -5 1 0 7949.96 9645.60 394.69 o
2 5 1 1 1267.26 2032.89 154.63 o
2 -5 1 1 1330.35 1924.77 189.76 o
2 5 1 2 1273.75 1551.41 178.27 o
2 -5 1 2 1263.25 1267.68 170.98 o
3 5 1 -2 30.16 18.60 23.22 <
3 -5 1 -2 28.92 13.86 29.27 <
3 5 1 -1 270.90 117.66 37.56 o
3 -5 1 -1 306.99 162.63 58.53 <
3 5 1 0 1379.67 1303.46 110.61 o
3 -5 1 0 1354.55 1508.33 186.86 o
3 5 1 1 130.18 339.18 57.53 o
3 -5 1 1 161.09 438.36 103.09 o
3 5 1 2 42.09 125.25 50.42 <
3 -5 1 2 37.91 56.64 42.60 <
4 5 1 -2 670.52 468.04 79.03 o
4 -5 1 -2 661.80 356.66 115.17 o
4 5 1 -1 806.34 627.53 93.02 o
4 -5 1 -1 774.33 673.21 154.28 o
4 5 1 0 1496.76 2739.87 189.94 o
4 -5 1 0 1477.79 2863.40 294.15 o
4 5 1 1 342.23 368.80 80.40 o
4 -5 1 1 351.49 484.33 134.19 o
4 5 1 2 286.13 310.33 80.22 o
4 -5 1 2 302.06 538.60 148.47 o
5 5 1 -2 106.29 137.92 63.16 <
5 -5 1 -2 109.86 77.14 98.70 <
5 5 1 -1 61.39 77.26 50.42 <
5 -5 1 -1 71.89 220.04 128.62 <
5 5 1 0 178.80 316.61 105.87 <
5 -5 1 0 176.85 249.42 137.63 <
5 5 1 1 137.29 -15.76 31.58 <
5 -5 1 1 179.43 297.65 129.15 <
5 5 1 2 14.19 -17.83 78.86 <
5 -5 1 2 12.98 -48.58 72.28 <
6 -5 1 -2 50.73 91.89 86.02 <
6 -5 1 -1 195.77 -100.24 117.43 <
6 -5 1 0 32.64 252.74 145.21 <
6 -5 1 1 88.65 -144.85 101.31 <
-6 -6 1 0 433.74 215.60 129.39 <
-6 6 1 1 6.18 91.95 52.20 <
-6 -6 1 1 1.24 -48.64 84.84 <
-6 6 1 2 82.54 146.28 127.73 <
-6 -6 1 2 84.50 51.96 73.35 <
-5 6 1 -2 61.35 55.04 33.59 <
-5 -6 1 -2 63.00 67.54 77.02 <
-5 6 1 -1 20.86 298.30 144.56 <
-5 -6 1 -1 23.71 123.59 130.16 <
-5 6 1 0 996.55 1118.32 298.72 o
-5 -6 1 0 991.63 985.73 251.50 o
-5 6 1 1 152.58 -16.59 38.92 <
-5 -6 1 1 160.44 296.11 153.21 <
-5 6 1 2 48.77 71.45 66.18 <
-5 -6 1 2 56.16 104.21 94.02 <
-4 6 1 -2 43.80 -31.87 28.08 <
-4 -6 1 -2 42.83 -15.70 75.00 <
-4 6 1 -1 301.14 484.21 114.23 o
-4 -6 1 -1 345.51 564.02 180.17 o
-4 6 1 0 3090.63 2307.62 242.61 o
-4 -6 1 0 3027.90 2216.56 340.07 o
-4 6 1 1 63.34 137.80 57.53 <
-4 -6 1 1 85.29 124.77 101.90 <
-4 6 1 2 252.03 506.02 117.01 o
-4 -6 1 2 246.93 339.06 93.13 o
-3 6 1 -2 47.18 14.75 23.99 <
-3 -6 1 -2 43.90 25.83 74.29 <
-3 6 1 -1 879.53 826.24 107.53 o
-3 -6 1 -1 891.95 748.33 113.10 o
-3 6 1 0 1250.48 1266.32 151.31 o
-3 -6 1 0 1229.75 1223.07 143.61 o
-3 6 1 1 988.55 822.80 129.57 o
-3 -6 1 1 996.50 801.83 119.68 o
-3 6 1 2 81.53 3.32 20.08 <
-3 -6 1 2 89.35 -6.34 21.27 <
-2 6 1 -2 282.03 306.00 59.96 o
-2 -6 1 -2 282.38 354.05 68.31 o
-2 6 1 -1 184.04 522.49 77.97 o
-2 -6 1 -1 205.08 498.26 87.27 o
-2 6 1 0 5609.76 5430.81 292.61 o
-2 -6 1 0 5607.39 5301.47 261.04 o
-2 6 1 1 222.88 86.50 43.49 <
-2 -6 1 1 292.87 211.80 59.07 o
-2 6 1 2 205.06 305.71 76.96 o
-2 -6 1 2 199.00 171.63 58.95 <
-1 6 1 -2 243.57 106.94 37.62 <
-1 -6 1 -2 236.96 86.85 32.35 <
-1 6 1 -1 4276.99 4484.83 182.30 o
-1 -6 1 -1 4315.86 5291.17 377.57 o
-1 6 1 0 657.90 586.00 87.74 o
-1 -6 1 0 551.79 524.15 126.49 o
-1 6 1 1 312.34 79.63 40.64 <
-1 -6 1 1 310.35 64.10 32.88 <
-1 6 1 2 54.61 38.27 27.73 <
-1 -6 1 2 62.79 18.01 12.44 <
0 6 1 -2 36.77 35.73 19.49 <
0 6 1 -1 100.16 203.27 42.30 o
0 6 1 0 41080.80 35644.30 688.43 o
0 -6 1 0 41366.70 32742.80 483.68 o
0 6 1 1 294.82 316.19 68.78 o
0 -6 1 1 343.98 282.72 60.25 o
0 6 1 2 65.01 58.89 25.48 <
0 -6 1 2 62.08 54.21 38.21 <
1 6 1 -2 20.74 25.18 22.99 <
1 -6 1 -2 22.27 -14.04 35.31 <
1 6 1 -1 44.24 100.12 23.94 o
1 -6 1 -1 64.69 91.12 31.28 <
1 6 1 0 527.81 405.95 53.50 o
1 -6 1 0 522.23 515.97 82.65 o
1 6 1 1 1235.60 2243.87 168.02 o
1 -6 1 1 1242.34 2653.14 200.07 o
1 6 1 2 120.59 117.60 42.89 <
1 -6 1 2 130.47 112.03 53.79 <
2 6 1 -2 217.85 152.26 46.33 o
2 -6 1 -2 222.90 95.98 37.09 <
2 6 1 -1 940.14 1129.52 112.80 o
2 -6 1 -1 962.59 1096.04 140.12 o
2 6 1 0 4548.15 4952.87 237.28 o
2 -6 1 0 4547.11 4884.86 293.92 o
2 6 1 1 321.67 1188.41 133.07 o
2 -6 1 1 301.70 1091.72 158.13 o
2 6 1 2 812.25 669.06 122.76 o
2 -6 1 2 844.78 633.04 121.39 o
3 6 1 -2 108.88 193.38 52.37 o
3 -6 1 -2 110.39 163.64 50.95 o
3 6 1 -1 573.59 685.59 92.42 o
3 -6 1 -1 605.65 811.78 107.06 o
3 6 1 0 959.17 850.17 109.13 o
3 -6 1 0 1015.60 1083.78 164.76 o
3 6 1 1 1175.03 1087.87 127.67 o
3 -6 1 1 1222.76 1335.63 191.24 o
3 6 1 2 63.00 135.26 49.94 <
3 -6 1 2 65.22 190.83 80.75 <
4 6 1 -2 113.01 66.06 37.74 <
4 -6 1 -2 118.86 41.47 63.51 <
4 6 1 -1 295.62 536.71 100.84 o
4 -6 1 -1 297.89 441.62 117.78 o
4 6 1 0 2748.59 2370.89 209.02 o
4 -6 1 0 2689.57 2539.27 286.63 o
4 6 1 1 91.85 326.50 96.51 o
4 -6 1 1 72.73 316.43 103.92 o
4 6 1 2 492.19 1010.61 181.41 o
4 -6 1 2 482.29 634.28 193.44 o
5 6 1 -2 127.04 96.33 50.65 <
5 -6 1 -2 122.88 100.84 79.57 <
5 6 1 -1 61.49 11.49 23.22 <
5 -6 1 -1 69.90 99.47 94.79 <
5 6 1 0 885.60 719.01 163.34 o
5 -6 1 0 899.97 403.64 157.83 <
5 6 1 1 255.64 497.13 181.65 <
5 -6 1 1 278.61 290.72 125.78 <
5 6 1 2 27.78 188.05 127.56 <
5 -6 1 2 29.56 5.87 27.85 <
6 -6 1 -2 71.08 92.01 90.29 <
6 -6 1 -1 17.81 29.45 34.48 <
6 -6 1 0 418.71 104.75 56.88 <
-6 7 1 0 112.28 156.05 104.33 <
-6 7 1 1 39.16 -53.32 65.94 <
-6 -7 1 1 36.50 55.28 62.98 <
-6 7 1 2 106.57 -36.67 77.79 <
-6 -7 1 2 99.74 59.66 67.66 <
-5 7 1 -2 96.31 230.11 165.59 <
-5 -7 1 -2 105.79 155.05 108.30 <
-5 7 1 -1 155.74 117.37 93.79 <
-5 -7 1 -1 125.29 187.99 141.24 <
-5 7 1 0 70.44 53.14 86.85 <
-5 -7 1 0 83.53 159.43 103.26 <
-5 7 1 1 185.04 41.29 78.62 <
-5 -7 1 1 163.51 166.95 121.93 <
-5 7 1 2 63.94 37.86 53.20 <
-5 -7 1 2 49.13 133.12 124.36 <
-4 7 1 -2 279.25 226.08 78.20 <
-4 -7 1 -2 269.40 245.93 118.02 <
-4 7 1 -1 64.52 88.99 33.30 <
-4 -7 1 -1 79.97 265.78 134.96 <
-4 7 1 0 819.23 1415.08 198.06 o
-4 -7 1 0 839.27 1470.48 283.08 o
-4 7 1 1 513.17 391.32 106.58 o
-4 -7 1 1 486.95 365.37 143.49 <
-4 7 1 2 691.11 143.79 69.61 <
-4 -7 1 2 677.96 79.74 100.78 <
-3 7 1 -2 82.85 162.27 44.43 o
-3 -7 1 -2 97.23 99.41 81.52 <
-3 7 1 -1 744.37 1037.33 153.92 o
-3 -7 1 -1 640.20 1244.81 239.17 o
-3 7 1 0 719.38 530.19 105.28 o
-3 -7 1 0 739.41 434.09 84.72 o
-3 7 1 1 561.69 156.05 55.45 <
-3 -7 1 1 514.86 110.79 43.31 <
-3 7 1 2 54.97 15.46 34.78 <
-3 -7 1 2 46.54 43.43 36.26 <
-2 7 1 -2 1237.81 1028.44 113.81 o
-2 -7 1 -2 1272.22 896.80 107.77 o
-2 7 1 -1 146.84 257.07 59.07 o
-2 -7 1 -1 198.98 274.66 66.41 o
-2 7 1 0 250.70 241.96 76.31 o
-2 -7 1 0 346.97 190.30 56.40 o
-2 7 1 1 1735.19 1341.73 154.69 o
-2 -7 1 1 1672.08 1251.09 139.05 o
-2 7 1 2 495.52 380.18 91.77 o
-2 -7 1 2 463.30 260.21 71.81 o
-1 7 1 -2 111.22 87.39 35.07 <
-1 -7 1 -2 107.38 113.04 44.20 <
-1 7 1 -1 1728.36 1803.61 163.40 o
-1 -7 1 -1 1713.78 1925.90 243.56 o
-1 7 1 0 1379.18 1214.12 132.41 o
-1 -7 1 0 1368.08 1341.79 192.31 o
-1 7 1 1 81.82 163.46 58.48 <
-1 -7 1 1 77.91 132.00 71.15 <
-1 7 1 2 62.01 212.69 48.46 o
-1 -7 1 2 58.96 109.60 67.30 <
0 7 1 -2 147.41 65.35 30.27 <
0 7 1 -1 250.12 324.13 58.42 o
0 7 1 0 10288.90 9559.45 311.39 o
0 -7 1 0 10315.20 7327.20 234.02 o
0 7 1 1 1018.27 923.88 96.51 o
0 -7 1 1 1006.41 815.69 100.12 o
0 7 1 2 33.79 0.24 20.44 <
0 -7 1 2 27.64 26.31 26.42 <
1 7 1 -2 212.45 76.90 26.72 <
1 -7 1 -2 218.84 35.67 68.78 <
1 7 1 -1 8.76 8.47 16.89 <
1 -7 1 -1 22.70 17.54 22.51 <
1 7 1 0 1156.18 1033.48 89.11 o
1 -7 1 0 1191.50 1158.31 126.37 o
1 7 1 1 4859.58 4916.91 238.17 o
1 -7 1 1 4853.97 5531.70 280.65 o
1 7 1 2 253.50 216.48 54.98 o
1 -7 1 2 244.16 255.53 72.69 o
2 7 1 -2 391.68 470.59 75.60 o
2 -7 1 -2 400.64 289.12 74.00 o
2 7 1 -1 41.76 20.56 25.65 <
2 -7 1 -1 48.25 48.64 46.57 <
2 7 1 0 445.00 578.06 83.83 o
2 -7 1 0 414.15 522.55 106.17 o
2 7 1 1 24.07 100.48 41.06 <
2 -7 1 1 27.81 80.63 57.41 <
2 7 1 2 497.27 231.24 67.84 o
2 -7 1 2 493.75 148.65 61.20 <
3 7 1 -2 300.60 39.46 22.04 <
3 -7 1 -2 305.18 44.85 36.26 <
3 7 1 -1 425.78 543.58 90.94 o
3 -7 1 -1 342.29 607.21 127.97 o
3 7 1 0 317.89 306.00 66.18 o
3 -7 1 0 334.97 525.03 115.06 o
3 7 1 1 309.10 856.69 121.75 o
3 -7 1 1 283.88 1026.07 165.41 o
3 7 1 2 76.55 113.04 52.73 <
3 -7 1 2 84.74 175.84 69.50 <
4 7 1 -2 153.05 83.77 40.52 <
4 -7 1 -2 150.72 78.62 53.44 <
4 7 1 -1 24.25 31.28 34.07 <
4 -7 1 -1 37.91 52.49 55.04 <
4 7 1 0 1058.57 1956.11 191.07 o
4 -7 1 0 1095.81 2225.32 277.51 o
4 7 1 1 154.08 122.11 62.27 <
4 -7 1 1 154.98 129.87 61.08 <
4 7 1 2 186.70 151.08 74.65 <
4 -7 1 2 179.93 238.46 102.32 <
5 7 1 -2 127.01 83.42 64.70 <
5 -7 1 -2 127.14 112.63 108.54 <
5 7 1 -1 78.29 89.05 27.55 o
5 -7 1 -1 40.96 180.17 122.11 <
5 7 1 0 15.63 20.97 17.06 <
5 -7 1 0 19.24 -12.80 64.28 <
5 7 1 1 64.34 69.61 37.15 <
5 -7 1 1 63.05 148.65 97.87 <
5 7 1 2 19.27 5.51 56.16 <
5 -7 1 2 22.42 2.37 74.59 <
6 -7 1 -2 85.54 50.48 52.49 <
6 -7 1 -1 16.86 37.80 59.66 <
6 -7 1 0 156.04 33.30 68.07 <
-6 8 1 0 489.18 459.98 226.50 <
-6 8 1 1 9.28 142.13 150.66 <
-6 -8 1 1 7.78 159.55 120.51 <
-6 8 1 2 149.64 46.09 51.25 <
-6 -8 1 2 146.20 174.42 132.29 <
-5 8 1 -2 92.04 -58.48 65.82 <
-5 -8 1 -2 96.90 40.76 95.86 <
-5 8 1 -1 450.27 615.27 233.78 <
-5 -8 1 -1 435.97 512.47 193.26 <
-5 8 1 0 6.71 -89.88 60.25 <
-5 -8 1 0 7.35 0.00 78.86 <
-5 8 1 1 146.00 132.65 102.44 <
-5 -8 1 1 147.74 78.38 105.22 <
-5 8 1 2 78.44 10.13 68.07 <
-5 -8 1 2 82.43 142.66 105.16 <
-4 8 1 -2 117.76 78.50 64.52 <
-4 -8 1 -2 106.99 -40.29 46.15 <
-4 8 1 -1 543.22 677.12 144.97 o
-4 -8 1 -1 530.80 780.03 209.08 o
-4 8 1 0 4981.04 4138.60 340.13 o
-4 -8 1 0 5072.60 4229.90 496.42 o
-4 8 1 1 74.51 38.39 46.39 <
-4 -8 1 1 48.82 147.64 97.22 <
-4 8 1 2 341.21 221.16 87.51 <
-4 -8 1 2 333.73 285.92 120.62 <
-3 8 1 -2 100.93 117.72 48.58 <
-3 -8 1 -2 104.75 66.36 80.46 <
-3 8 1 -1 517.29 527.58 111.62 o
-3 -8 1 -1 487.86 582.44 184.13 o
-3 8 1 0 14.24 22.22 40.35 <
-3 -8 1 0 15.38 36.97 107.94 <
-3 8 1 1 508.21 229.22 71.21 o
-3 -8 1 1 512.00 84.78 45.20 <
-3 8 1 2 70.17 53.79 32.82 <
-3 -8 1 2 82.47 86.26 52.20 <
-2 8 1 -2 882.58 887.14 114.76 o
-2 -8 1 -2 910.29 598.62 108.30 o
-2 8 1 -1 319.66 267.61 58.42 o
-2 -8 1 -1 307.58 278.81 74.00 o
-2 8 1 0 21943.70 23903.60 684.52 o
-2 -8 1 0 22109.50 26341.10 1030.22 o
-2 8 1 1 109.37 118.85 56.94 <
-2 -8 1 1 86.31 52.20 37.56 <
-2 8 1 2 397.57 231.18 68.61 o
-2 -8 1 2 387.68 215.77 103.50 <
-1 8 1 -2 23.22 22.57 18.96 <
-1 -8 1 -2 22.75 46.69 6.93 o
-1 8 1 -1 369.34 362.76 79.80 o
-1 -8 1 -1 378.56 391.32 122.52 o
-1 8 1 0 352.36 249.84 63.57 o
-1 -8 1 0 331.45 382.25 100.84 o
-1 8 1 1 1635.56 1365.20 121.93 o
-1 -8 1 1 1616.46 1428.11 205.64 o
-1 8 1 2 16.61 17.06 22.93 <
-1 -8 1 2 14.01 49.29 41.53 <
0 8 1 -2 19.85 59.72 32.11 <
0 8 1 -1 47.10 44.49 24.29 <
0 8 1 0 65995.50 61271.40 846.09 o
0 8 1 1 337.71 318.45 64.10 o
0 -8 1 1 339.89 183.19 53.91 o
0 8 1 2 58.95 125.54 40.11 o
0 -8 1 2 50.14 78.74 44.20 <
1 8 1 -2 149.37 26.54 20.38 <
1 8 1 -1 1247.62 847.03 84.13 o
1 -8 1 -1 1255.02 839.39 114.40 o
1 8 1 0 294.34 213.99 54.86 o
1 -8 1 0 273.60 216.25 47.04 o
1 8 1 1 264.71 279.64 65.94 o
1 -8 1 1 202.71 309.56 75.00 o
1 8 1 2 318.04 44.20 31.22 <
1 -8 1 2 299.43 61.44 43.07 <
2 8 1 -2 100.01 86.26 35.73 <
2 -8 1 -2 101.51 44.61 22.45 <
2 8 1 -1 272.58 107.29 38.81 <
2 -8 1 -1 230.79 170.33 71.86 <
2 8 1 0 22170.70 24785.00 722.26 o
2 -8 1 0 22223.70 23430.60 678.01 o
2 8 1 1 511.73 547.13 91.71 o
2 -8 1 1 420.02 565.32 115.00 o
2 8 1 2 401.33 427.46 99.41 o
2 -8 1 2 414.31 531.97 114.64 o
3 8 1 -2 638.27 251.50 64.34 o
3 -8 1 -2 610.29 223.65 78.86 <
3 8 1 -1 1340.72 397.01 80.51 o
3 -8 1 -1 1337.04 303.22 104.21 <
3 8 1 0 18.40 69.38 43.49 <
3 -8 1 0 19.54 55.57 42.24 <
3 8 1 1 1700.15 1471.84 158.30 o
3 -8 1 1 1544.33 1589.03 207.18 o
3 8 1 2 55.26 -55.34 20.20 <
3 -8 1 2 46.80 48.94 52.31 <
4 8 1 -2 3.09 25.00 27.61 <
4 -8 1 -2 2.62 -41.23 43.72 <
4 8 1 -1 278.87 167.90 59.07 <
4 -8 1 -1 241.84 182.77 83.54 <
4 8 1 0 4992.07 3620.08 263.58 o
4 -8 1 0 5051.92 3517.94 447.72 o
4 8 1 1 370.60 274.72 89.52 o
4 -8 1 1 307.57 287.05 108.89 <
4 8 1 2 77.91 79.15 43.72 <
4 -8 1 2 84.61 22.45 25.24 <
5 8 1 -2 396.24 75.18 51.07 <
5 -8 1 -2 384.97 130.46 71.69 <
5 8 1 -1 263.57 29.50 40.82 <
5 -8 1 -1 257.25 -0.89 47.99 <
5 8 1 0 7.87 20.20 44.26 <
5 -8 1 0 8.12 -90.29 32.82 <
5 8 1 1 217.16 235.09 140.35 <
5 -8 1 1 202.79 296.29 126.25 <
5 8 1 2 57.91 129.33 103.38 <
5 -8 1 2 44.54 -38.45 60.79 <
6 -8 1 -2 17.48 79.27 80.57 <
6 -8 1 -1 71.78 194.62 134.55 <
6 -8 1 0 513.65 244.39 158.54 <
-6 9 1 0 153.05 189.05 161.27 <
-6 9 1 1 41.14 5.51 68.01 <
-6 9 1 2 175.01 6.40 73.88 <
-6 -9 1 2 191.49 -61.73 21.86 <
-5 9 1 -2 34.04 -68.13 96.45 <
-5 -9 1 -2 30.91 80.69 89.46 <
-5 9 1 -1 147.47 61.79 94.02 <
-5 -9 1 -1 151.74 248.18 143.37 <
-5 9 1 0 992.94 709.88 228.04 o
-5 -9 1 0 964.96 694.89 228.39 o
-5 9 1 1 23.48 30.87 84.90 <
-5 -9 1 1 32.19 120.39 98.17 <
-5 9 1 2 82.63 145.51 71.92 <
-5 -9 1 2 86.06 59.30 95.86 <
-4 9 1 -2 149.46 261.69 91.71 <
-4 -9 1 -2 150.59 487.24 157.30 o
-4 9 1 -1 592.14 521.78 127.08 o
-4 -9 1 -1 581.25 519.70 176.14 <
-4 9 1 0 280.23 54.39 50.42 <
-4 -9 1 0 282.23 3.73 40.70 <
-4 9 1 1 244.81 208.54 81.40 <
-4 -9 1 1 278.12 252.92 148.94 <
-4 9 1 2 659.91 115.29 68.49 <
-4 -9 1 2 716.92 -14.93 53.85 <
-3 9 1 -2 65.51 109.66 59.01 <
-3 -9 1 -2 57.76 67.72 77.61 <
-3 9 1 -1 215.95 605.73 134.66 o
-3 -9 1 -1 224.34 944.49 224.54 o
-3 9 1 0 9538.57 8371.76 452.87 o
-3 -9 1 0 9406.20 9395.22 696.73 o
-3 9 1 1 17.59 48.29 43.07 <
-3 -9 1 1 34.70 125.42 110.26 <
-3 9 1 2 266.31 222.53 81.58 <
-3 -9 1 2 304.46 233.01 70.03 o
-2 9 1 -2 3014.13 4069.64 244.68 o
-2 -9 1 -2 3065.28 4074.85 449.97 o
-2 9 1 -1 1609.71 1862.39 208.19 o
-2 -9 1 -1 1524.41 1470.59 164.17 o
-2 9 1 0 3902.97 3955.65 290.66 o
-2 -9 1 0 3966.71 3256.43 229.40 o
-2 9 1 1 536.50 634.34 117.96 o
-2 -9 1 1 562.74 468.16 93.25 o
-2 9 1 2 464.89 38.57 38.04 <
-2 -9 1 2 494.86 34.24 54.74 <
-1 9 1 -2 87.62 78.14 27.61 <
-1 -9 1 -2 85.33 150.31 73.17 <
-1 9 1 -1 229.27 334.68 84.31 o
-1 -9 1 -1 221.95 307.90 117.54 <
-1 9 1 0 38611.90 38312.30 803.43 o
-1 -9 1 0 38481.80 41132.60 1156.65 o
-1 9 1 1 299.98 260.03 59.66 o
-1 -9 1 1 329.48 315.07 105.40 <
-1 9 1 2 346.24 272.94 61.14 o
-1 -9 1 2 401.40 280.05 120.21 <
0 9 1 -2 57.65 64.70 41.41 <
0 9 1 -1 3640.81 3925.20 208.60 o
0 9 1 0 1427.57 1296.35 121.04 o
0 9 1 1 2493.52 2364.97 181.94 o
0 -9 1 1 2470.60 2075.49 165.89 o
0 9 1 2 47.98 38.04 30.87 <
0 -9 1 2 49.74 6.16 6.16 <
1 9 1 -2 177.91 127.73 36.85 o
1 9 1 -1 12.28 72.99 35.67 <
1 -9 1 -1 12.47 -15.40 28.67 <
1 9 1 0 39203.50 37077.60 1066.30 o
1 -9 1 0 39085.00 37003.00 780.03 o
1 9 1 1 89.63 96.63 44.79 <
1 -9 1 1 65.79 65.17 35.13 <
1 9 1 2 28.97 18.13 13.09 <
1 -9 1 2 28.34 -5.69 18.25 <
2 9 1 -2 150.06 280.94 62.50 o
2 -9 1 -2 154.15 82.47 41.77 <
2 9 1 -1 1573.17 1676.89 144.97 o
2 -9 1 -1 1602.79 1941.42 206.35 o
2 9 1 0 3227.51 3054.29 196.99 o
2 -9 1 0 3234.70 3328.00 264.23 o
2 9 1 1 1643.21 2174.85 173.65 o
2 -9 1 1 1668.58 2327.29 228.81 o
2 9 1 2 346.91 406.19 99.47 o
2 -9 1 2 370.82 416.67 108.24 o
3 9 1 -2 146.48 105.16 41.35 <
3 -9 1 -2 142.38 130.58 51.66 <
3 9 1 -1 226.23 116.77 62.15 <
3 -9 1 -1 218.03 40.70 48.17 <
3 9 1 0 10809.30 10724.20 420.94 o
3 -9 1 0 10772.90 10968.10 536.88 o
3 9 1 1 424.16 653.60 107.94 o
3 -9 1 1 447.14 704.31 149.83 o
3 9 1 2 30.58 89.34 44.08 <
3 -9 1 2 37.34 169.38 86.02 <
4 9 1 -2 243.09 84.90 43.72 <
4 -9 1 -2 257.69 187.45 98.82 <
4 9 1 -1 813.61 596.48 104.51 o
4 -9 1 -1 879.55 584.70 191.42 o
4 9 1 0 104.91 27.55 38.81 <
4 -9 1 0 106.84 55.99 67.01 <
4 9 1 1 552.48 549.98 130.16 o
4 -9 1 1 583.88 839.27 171.87 o
4 9 1 2 28.43 83.71 52.91 <
4 -9 1 2 40.70 15.82 70.15 <
5 9 1 -2 66.11 162.27 83.24 <
5 -9 1 -2 61.63 107.41 101.19 <
5 9 1 -1 25.26 99.89 69.14 <
5 -9 1 -1 24.13 174.24 160.02 <
5 9 1 0 1223.65 1117.25 274.72 o
5 -9 1 0 1224.69 977.55 261.69 o
5 9 1 1 105.44 73.82 83.00 <
5 -9 1 1 103.60 55.51 32.64 <
5 9 1 2 66.78 114.40 92.54 <
5 -9 1 2 71.17 40.76 89.52 <
6 -9 1 -2 237.87 132.95 124.47 <
6 -9 1 -1 197.71 159.73 118.79 <
-6 10 1 1 60.85 8.41 34.78 <
-6 10 1 2 38.01 92.01 127.97 <
-6 -10 1 2 42.08 8.95 67.84 <
-5 -10 1 -2 23.51 -59.84 81.82 <
-5 10 1 -1 785.48 846.38 255.65 o
-5 -10 1 -1 804.47 799.70 248.54 o
-5 10 1 0 210.98 274.60 163.64 <
-5 -10 1 0 198.00 54.33 60.49 <
-5 10 1 1 313.81 363.47 118.67 o
-5 -10 1 1 343.70 252.74 139.70 <
-5 10 1 2 264.24 279.40 98.05 <
-5 -10 1 2 267.83 243.32 153.80 <
-4 10 1 -2 153.98 99.06 56.11 <
-4 -10 1 -2 161.49 119.20 102.85 <
-4 10 1 -1 66.71 93.43 54.68 <
-4 -10 1 -1 64.38 310.09 146.63 <
-4 10 1 0 1414.43 1098.59 190.77 o
-4 -10 1 0 1419.89 1300.86 286.04 o
-4 10 1 1 252.23 94.56 69.08 <
-4 -10 1 1 275.51 151.43 97.76 <
-4 10 1 2 217.35 167.43 71.45 <
-4 -10 1 2 206.58 87.80 40.70 <
-3 10 1 -2 59.90 106.11 68.07 <
-3 -10 1 -2 64.83 163.04 121.16 <
-3 10 1 -1 1411.53 2112.76 246.05 o
-3 -10 1 -1 1471.18 2284.33 367.09 o
-3 10 1 0 1167.13 981.11 165.77 o
-3 -10 1 0 1140.60 1211.45 262.70 o
-3 10 1 1 1611.30 1683.94 218.68 o
-3 -10 1 1 1707.63 1901.31 330.95 o
-3 10 1 2 432.73 690.21 137.63 o
-3 -10 1 2 455.07 437.53 105.99 o
-2 10 1 -2 762.38 435.16 84.54 o
-2 -10 1 -2 748.05 528.77 161.09 o
-2 10 1 -1 42.03 315.66 97.52 o
-2 -10 1 -1 44.18 191.96 64.40 <
-2 10 1 0 7296.01 7077.42 401.74 o
-2 -10 1 0 7414.20 7564.06 596.37 o
-2 10 1 1 280.72 223.53 83.42 <
-2 -10 1 1 279.85 268.68 111.08 <
-2 10 1 2 206.85 192.61 73.46 <
-2 -10 1 2 204.79 187.75 101.90 <
-1 10 1 -2 246.76 136.86 41.53 o
-1 -10 1 -2 246.41 120.74 85.08 <
-1 10 1 -1 3230.65 4054.95 280.05 o
-1 -10 1 -1 3228.30 4020.94 392.44 o
-1 10 1 0 1453.97 1384.93 162.04 o
-1 -10 1 0 1521.68 1419.52 231.24 o
-1 10 1 1 1158.57 951.60 113.34 o
-1 -10 1 1 1240.60 1188.41 220.22 o
-1 10 1 2 167.34 265.54 60.85 o
-1 -10 1 2 188.02 257.13 108.78 <
0 10 1 -2 89.63 35.37 17.95 <
0 10 1 -1 26.98 67.78 32.70 <
0 10 1 0 40990.90 40305.50 677.83 o
0 10 1 1 78.79 88.34 40.52 <
0 10 1 2 36.44 45.03 30.22 <
0 -10 1 2 42.23 0.65 16.53 <
1 10 1 -2 68.53 2.90 23.05 <
1 10 1 -1 1772.90 1229.64 125.54 o
1 -10 1 -1 1741.86 1794.43 295.87 o
1 10 1 0 1444.52 1139.00 124.53 o
1 -10 1 0 1520.92 1116.72 145.39 o
1 10 1 1 2494.18 2224.32 176.43 o
1 -10 1 1 2558.41 2817.42 230.58 o
1 10 1 2 314.37 287.93 73.35 o
1 -10 1 2 325.82 406.90 94.14 o
2 10 1 -2 218.86 82.59 41.12 <
2 -10 1 -2 235.89 214.88 119.26 <
2 10 1 -1 55.76 108.60 42.01 <
2 -10 1 -1 78.38 182.24 110.02 <
2 10 1 0 7069.19 6269.49 288.29 o
2 -10 1 0 7204.55 6546.28 376.21 o
2 10 1 1 210.85 140.59 43.37 o
2 -10 1 1 300.86 157.30 62.50 <
2 10 1 2 1401.62 1287.94 168.49 o
2 -10 1 2 1395.93 1650.94 208.13 o
3 10 1 -2 179.34 39.46 34.01 <
3 -10 1 -2 193.94 39.46 61.08 <
3 10 1 -1 969.59 1087.10 137.63 o
3 -10 1 -1 967.87 1188.70 262.52 o
3 10 1 0 1163.58 1007.23 133.01 o
3 -10 1 0 1116.40 1250.38 192.90 o
3 10 1 1 187.95 281.06 87.62 o
3 -10 1 1 216.13 327.45 100.95 o
3 10 1 2 181.02 219.33 81.23 <
3 -10 1 2 188.02 235.15 99.30 <
4 10 1 -2 219.31 225.31 103.03 <
4 -10 1 -2 225.94 181.59 112.03 <
4 10 1 -1 49.48 85.37 48.11 <
4 -10 1 -1 64.21 287.64 125.96 <
4 10 1 0 1566.97 1461.94 220.10 o
4 -10 1 0 1568.60 1348.67 291.01 o
4 10 1 1 255.07 321.11 154.04 <
4 -10 1 1 312.33 124.42 109.72 <
4 10 1 2 58.25 97.46 21.33 o
4 -10 1 2 58.85 113.87 72.75 <
5 10 1 -2 108.11 10.78 42.60 <
5 -10 1 -2 121.61 49.83 45.32 <
5 10 1 -1 54.48 239.88 147.76 <
5 -10 1 -1 58.69 82.00 24.17 o
5 10 1 0 277.88 255.70 123.29 <
5 -10 1 0 255.22 204.99 103.15 <
5 10 1 1 146.30 176.02 134.78 <
5 -10 1 1 155.74 97.22 72.16 <
5 10 1 2 30.65 72.10 119.62 <
5 -10 1 2 33.39 144.97 100.54 <
6 -10 1 -2 160.80 174.54 135.61 <
-6 11 1 2 38.91 153.51 128.68 <
-5 -11 1 -2 45.35 167.61 145.68 <
-5 11 1 -1 246.56 80.46 71.21 <
-5 -11 1 -1 275.83 186.09 129.33 <
-5 11 1 0 80.53 5.57 44.49 <
-5 -11 1 0 74.51 4.09 104.45 <
-5 11 1 1 77.40 254.16 103.56 <
-5 -11 1 1 74.46 137.27 118.43 <
-5 11 1 2 160.29 71.98 68.96 <
-5 -11 1 2 157.71 106.40 70.32 <
-4 11 1 -2 152.43 102.73 59.48 <
-4 -11 1 -2 146.45 116.83 102.97 <
-4 11 1 -1 25.79 188.70 86.97 <
-4 -11 1 -1 18.36 237.46 137.09 <
-4 11 1 0 444.05 778.19 170.69 o
-4 -11 1 0 433.25 878.43 238.88 o
-4 11 1 1 91.64 94.56 66.47 <
-4 -11 1 1 80.14 47.04 106.88 <
-4 11 1 2 374.46 597.02 144.74 o
-4 -11 1 2 352.14 390.84 167.43 <
-3 11 1 -2 243.80 556.67 140.23 o
-3 -11 1 -2 232.89 742.29 218.20 o
-3 11 1 -1 478.03 660.71 152.44 o
-3 -11 1 -1 634.73 563.13 197.94 <
-3 11 1 0 251.51 105.16 59.96 <
-3 -11 1 0 246.89 178.80 108.83 <
-3 11 1 1 155.34 73.29 47.87 <
-3 -11 1 1 165.35 206.41 141.83 <
-3 11 1 2 134.84 229.10 75.42 o
-3 -11 1 2 124.08 204.75 128.74 <
-2 11 1 -2 192.93 220.22 85.31 <
-2 -11 1 -2 204.43 218.32 134.84 <
-2 11 1 -1 22.59 266.13 93.43 <
-2 -11 1 -1 15.58 279.17 123.76 <
-2 11 1 0 96.23 163.16 78.50 <
-2 -11 1 0 180.96 126.79 63.22 <
-2 11 1 1 189.63 229.22 79.74 <
-2 -11 1 1 184.79 209.79 105.52 <
-2 11 1 2 443.00 700.64 138.75 o
-2 -11 1 2 409.54 604.90 182.24 o
-1 11 1 -2 460.55 577.35 125.84 o
-1 -11 1 -2 479.87 546.84 160.38 o
-1 11 1 -1 1936.70 1697.62 194.74 o
-1 -11 1 -1 1996.07 1721.38 274.78 o
-1 11 1 0 1980.67 1813.09 162.33 o
-1 -11 1 0 1987.59 2008.72 285.27 o
-1 11 1 1 513.80 470.83 82.29 o
-1 -11 1 1 547.54 558.03 162.33 o
-1 11 1 2 24.20 98.82 34.24 <
-1 -11 1 2 17.43 214.05 111.26 <
0 11 1 -2 305.02 195.57 58.59 o
0 11 1 -1 102.21 90.29 35.19 <
0 11 1 0 2902.84 2804.86 190.59 o
0 11 1 1 596.00 598.97 97.99 o
0 11 1 2 253.61 380.83 77.20 o
0 -11 1 2 227.48 218.44 74.65 <
1 11 1 -2 386.20 519.94 163.46 o
1 11 1 -1 39.01 16.89 21.80 <
1 -11 1 -1 33.97 2.13 72.99 <
1 11 1 0 1339.85 900.41 105.69 o
1 -11 1 0 1325.17 1220.46 247.53 o
1 11 1 1 3198.60 2393.23 192.43 o
1 -11 1 1 3208.30 2834.37 237.63 o
1 11 1 2 27.99 32.47 28.50 <
1 -11 1 2 28.32 54.86 38.98 <
2 11 1 -2 195.25 205.82 55.45 o
2 -11 1 -2 206.22 230.46 114.64 <
2 11 1 -1 279.45 144.97 43.84 o
2 -11 1 -1 342.63 223.41 113.10 <
2 11 1 0 95.22 172.88 62.86 <
2 -11 1 0 183.48 238.40 81.29 <
2 11 1 1 420.87 540.79 100.07 o
2 -11 1 1 421.89 736.36 139.29 o
2 11 1 2 569.43 420.05 102.61 o
2 -11 1 2 559.62 452.52 113.87 o
3 11 1 -2 400.54 561.77 128.03 o
3 -11 1 -2 372.26 542.51 170.92 o
3 11 1 -1 463.72 293.74 96.45 o
3 -11 1 -1 486.70 290.01 144.50 <
3 11 1 0 63.25 67.07 28.38 <
3 -11 1 0 60.09 154.10 111.62 <
3 11 1 1 17.28 184.43 101.43 <
3 -11 1 1 27.49 208.78 102.08 <
3 11 1 2 78.49 110.43 95.74 <
3 -11 1 2 67.04 99.47 55.45 <
4 11 1 -2 117.10 233.31 93.02 <
4 -11 1 -2 121.31 239.71 134.07 <
4 11 1 -1 82.86 113.16 61.26 <
4 -11 1 -1 101.49 118.31 102.79 <
4 11 1 0 501.33 738.85 226.38 o
4 -11 1 0 477.52 827.84 249.13 o
4 11 1 1 372.35 238.76 100.18 <
4 -11 1 1 377.70 442.15 175.49 <
4 11 1 2 44.35 107.71 69.44 <
4 -11 1 2 46.18 -51.60 66.30 <
5 11 1 -2 88.87 41.65 60.31 <
5 -11 1 -2 79.56 25.30 37.32 <
5 11 1 -1 198.99 207.60 112.33 <
5 -11 1 -1 216.26 -94.02 82.11 <
5 11 1 0 54.53 104.27 64.81 <
5 -11 1 0 55.18 -99.77 83.54 <
5 11 1 1 148.84 264.95 142.78 <
5 -11 1 1 138.20 173.71 101.43 <
5 11 1 2 51.80 15.23 55.04 <
5 -11 1 2 43.78 172.46 114.70 <
6 -11 1 -2 59.35 189.05 144.32 <
-5 -12 1 -2 33.54 196.40 158.78 <
-5 12 1 -1 7.28 137.57 115.00 <
-5 -12 1 -1 8.21 335.86 171.46 <
-5 12 1 0 66.30 51.43 96.81 <
-5 -12 1 0 68.21 98.11 100.66 <
-5 12 1 1 111.95 96.45 63.04 <
-5 -12 1 1 116.05 71.75 81.94 <
-5 12 1 2 26.54 11.14 73.52 <
-4 12 1 -2 112.25 23.28 75.66 <
-4 -12 1 -2 97.98 166.24 114.58 <
-4 12 1 -1 120.16 -13.98 55.57 <
-4 -12 1 -1 97.23 -10.66 25.77 <
-4 12 1 0 1294.14 1434.81 229.04 o
-4 -12 1 0 1329.00 1178.63 291.01 o
-4 12 1 1 68.69 80.46 80.75 <
-4 -12 1 1 57.64 -40.11 34.01 <
-4 12 1 2 43.57 91.95 66.12 <
-4 -12 1 2 34.07 118.31 77.97 <
-3 12 1 -2 20.29 93.67 57.35 <
-3 -12 1 -2 19.93 174.77 117.19 <
-3 12 1 -1 1047.76 1528.48 227.50 o
-3 -12 1 -1 1061.62 1615.75 328.81 o
-3 12 1 0 39.23 47.75 44.43 <
-3 -12 1 0 20.66 44.67 69.38 <
-3 12 1 1 351.21 556.26 134.66 o
-3 -12 1 1 340.42 572.37 192.43 <
-3 12 1 2 152.19 105.40 57.88 <
-3 -12 1 2 153.24 249.90 140.00 <
-2 12 1 -2 321.36 355.12 105.87 o
-2 -12 1 -2 299.35 223.71 98.35 <
-2 12 1 -1 179.93 150.37 88.81 <
-2 -12 1 -1 141.15 96.93 89.05 <
-2 12 1 0 2715.55 2765.70 271.17 o
-2 -12 1 0 2722.22 3086.99 410.10 o
-2 12 1 1 190.24 72.10 35.31 <
-2 -12 1 1 152.09 102.08 43.90 <
-2 12 1 2 193.88 300.85 84.54 o
-2 -12 1 2 181.30 202.80 107.12 <
-1 12 1 -2 6.56 36.79 39.16 <
-1 -12 1 -2 4.48 55.99 41.18 <
-1 12 1 -1 900.69 822.98 137.98 o
-1 -12 1 -1 882.52 804.55 198.83 o
-1 12 1 0 312.90 321.88 81.70 o
-1 -12 1 0 234.02 329.64 117.84 <
-1 12 1 1 122.32 109.84 40.58 <
-1 -12 1 1 148.21 141.60 107.18 <
-1 12 1 2 425.43 322.06 74.53 o
-1 -12 1 2 424.82 281.65 113.04 <
0 12 1 -2 22.75 51.72 34.84 <
0 12 1 -1 286.44 205.88 65.05 o
0 12 1 0 11853.80 12113.80 414.07 o
0 12 1 1 188.56 164.76 55.39 <
0 12 1 2 232.53 207.48 68.72 o
1 12 1 -2 449.85 467.57 111.32 o
1 12 1 -1 1110.12 785.77 121.28 o
1 -12 1 -1 1102.42 1064.94 238.58 o
1 12 1 0 326.79 211.09 53.91 o
1 -12 1 0 224.90 398.07 166.01 <
1 12 1 1 1655.12 1616.52 169.44 o
1 -12 1 1 1591.61 1646.20 302.69 o
1 12 1 2 80.94 19.55 26.25 <
1 -12 1 2 78.69 151.43 64.76 <
2 12 1 -2 59.58 67.48 49.83 <
2 -12 1 -2 52.84 73.58 84.07 <
2 12 1 -1 876.21 751.35 141.18 o
2 -12 1 -1 854.07 765.34 204.10 o
2 12 1 0 1764.78 1683.29 286.16 o
2 -12 1 0 1738.98 1766.29 309.26 o
2 12 1 1 21.98 89.76 76.55 <
2 -12 1 1 22.65 143.73 71.57 <
2 12 1 2 789.80 467.98 156.59 <
2 -12 1 2 765.08 587.95 139.82 o
3 12 1 -2 242.96 428.82 121.33 o
3 -12 1 -2 250.27 323.12 160.44 <
3 12 1 -1 219.60 152.20 75.54 <
3 -12 1 -1 198.82 147.46 74.23 <
3 12 1 0 94.70 67.66 45.32 <
3 12 1 1 597.37 610.35 199.95 o
3 -12 1 1 579.30 910.37 230.52 o
3 12 1 2 13.58 38.27 58.77 <
3 -12 1 2 15.81 127.67 90.53 <
4 12 1 -2 121.56 294.33 111.80 <
4 -12 1 -2 107.20 216.13 138.75 <
4 12 1 -1 343.07 461.58 136.03 o
4 -12 1 -1 333.95 345.70 148.71 <
4 12 1 0 821.13 730.56 241.37 o
4 -12 1 0 838.63 959.13 262.46 o
4 12 1 1 58.21 73.29 111.38 <
4 -12 1 1 67.12 276.91 153.33 <
4 12 1 2 72.93 129.10 109.01 <
4 -12 1 2 60.42 6.93 62.33 <
5 12 1 -2 38.43 16.17 39.10 <
5 -12 1 -2 45.07 6.04 26.19 <
5 12 1 -1 94.13 -46.92 98.41 <
5 -12 1 -1 82.60 44.26 29.68 <
5 12 1 0 121.60 163.40 106.58 <
5 -12 1 0 119.58 27.55 50.00 <
5 12 1 1 134.66 92.60 89.70 <
5 -12 1 1 121.71 207.95 107.18 <
5 12 1 2 5.87 -213.99 138.34 <
5 -12 1 2 6.88 56.52 94.44 <
-5 -13 1 -1 131.73 218.74 121.81 <
-5 13 1 0 30.06 6.69 24.71 <
-5 -13 1 0 30.10 169.09 128.44 <
-5 13 1 1 140.32 -2.61 36.02 <
-5 -13 1 1 136.27 108.72 120.74 <
-5 13 1 2 100.15 33.83 63.81 <
-5 -13 1 2 113.77 62.03 61.79 <
-4 13 1 -2 63.96 113.40 70.62 <
-4 -13 1 -2 61.56 -30.87 109.66 <
-4 13 1 -1 420.32 477.64 146.34 o
-4 -13 1 -1 430.99 759.88 243.44 o
-4 13 1 0 879.13 948.46 201.61 o
-4 -13 1 0 866.00 1142.26 296.76 o
-4 13 1 1 53.99 101.01 79.21 <
-4 -13 1 1 48.97 225.49 148.94 <
-4 13 1 2 184.96 143.26 92.25 <
-4 -13 1 2 187.73 196.87 136.26 <
-3 13 1 -2 50.18 41.95 43.72 <
-3 -13 1 -2 48.75 179.87 99.00 <
-3 13 1 -1 551.17 757.04 169.21 o
-3 -13 1 -1 526.69 977.43 271.58 o
-3 13 1 0 63.61 131.11 76.25 <
-3 -13 1 0 61.30 166.54 120.74 <
-3 13 1 1 491.86 469.94 127.73 o
-3 -13 1 1 486.86 384.80 155.70 <
-3 13 1 2 85.59 66.89 68.07 <
-3 -13 1 2 94.47 36.67 32.70 <
-2 13 1 -2 303.89 588.19 139.05 o
-2 -13 1 -2 273.93 515.08 194.33 <
-2 13 1 -1 820.24 847.09 159.79 o
-2 -13 1 -1 859.35 1102.68 265.36 o
-2 13 1 0 4682.70 4747.29 365.96 o
-2 -13 1 0 4710.76 5122.26 546.13 o
-2 13 1 1 232.65 110.91 45.26 <
-2 -13 1 1 213.28 221.82 127.61 <
-2 13 1 2 468.39 585.70 114.23 o
-2 -13 1 2 489.32 449.32 156.47 <
-1 13 1 -2 106.96 119.50 61.44 <
-1 -13 1 -2 104.27 170.92 111.86 <
-1 13 1 -1 724.42 835.30 139.23 o
-1 -13 1 -1 658.79 1028.03 238.11 o
-1 13 1 0 399.93 567.75 100.12 o
-1 -13 1 0 399.91 453.23 155.28 <
-1 13 1 1 1153.66 1069.26 137.92 o
-1 -13 1 1 1145.87 1163.17 240.30 o
-1 13 1 2 22.97 103.98 39.40 <
-1 -13 1 2 25.31 132.06 99.30 <
0 13 1 -2 188.96 530.37 122.46 o
0 13 1 -1 704.19 549.33 126.73 o
0 13 1 0 12231.90 13695.10 599.86 o
0 13 1 1 21.40 19.20 11.32 <
0 13 1 2 257.21 284.20 64.52 o
1 13 1 -2 144.70 154.99 66.95 <
1 13 1 -1 2178.53 2013.40 315.54 o
1 -13 1 -1 2081.60 2463.14 389.42 o
1 13 1 0 319.86 535.11 165.89 o
1 -13 1 0 326.94 328.22 155.28 <
1 13 1 1 1398.66 994.02 131.52 o
1 -13 1 1 1373.08 1648.92 311.63 o
1 13 1 2 390.19 262.81 65.11 o
1 -13 1 2 403.95 326.62 138.99 <
2 13 1 -2 316.79 34.60 47.57 <
2 -13 1 -2 314.51 1.66 59.01 <
2 13 1 -1 200.37 153.80 58.89 <
2 -13 1 -1 192.98 391.32 170.75 <
2 13 1 0 5377.24 4839.24 488.72 o
2 -13 1 0 5430.63 5041.86 539.43 o
2 13 1 1 12.26 67.42 53.44 <
2 -13 1 1 22.53 86.38 87.21 <
2 13 1 2 335.08 389.12 147.29 <
2 -13 1 2 332.81 430.12 125.48 o
3 13 1 -2 150.90 319.63 100.72 o
3 -13 1 -2 159.07 220.45 108.42 <
3 13 1 -1 901.13 639.14 148.82 o
3 -13 1 -1 873.24 785.12 235.80 o
3 13 1 0 112.19 253.51 138.75 <
3 -13 1 0 114.01 254.93 140.06 <
3 13 1 1 320.83 278.57 146.69 <
3 -13 1 1 292.56 218.85 133.42 <
3 13 1 2 162.20 120.09 64.16 <
3 -13 1 2 173.65 206.41 116.65 <
4 13 1 -2 385.17 106.35 85.02 <
4 -13 1 -2 393.38 127.32 127.38 <
4 13 1 -1 181.23 190.24 100.48 <
4 -13 1 -1 159.16 323.07 170.80 <
4 13 1 0 1419.59 1777.66 365.01 o
4 -13 1 0 1439.89 1618.29 353.28 o
4 13 1 1 10.96 21.80 33.95 <
4 -13 1 1 18.43 226.73 137.92 <
4 13 1 2 33.54 30.93 127.14 <
4 -13 1 2 37.16 262.46 169.38 <
5 13 1 -2 79.57 2.61 57.71 <
5 -13 1 -2 80.29 79.33 7.64 o
5 13 1 -1 231.10 77.26 63.99 <
5 -13 1 -1 226.18 32.29 13.86 <
5 13 1 0 35.10 150.01 169.74 <
5 -13 1 0 38.41 146.16 114.82 <
5 13 1 1 233.94 150.01 129.10 <
5 -13 1 1 208.94 37.44 55.34 <
5 13 1 2 61.69 58.00 84.66 <
5 -13 1 2 63.79 -126.25 102.61 <
-5 -14 1 -1 62.69 64.81 71.27 <
-5 14 1 0 1441.42 1706.92 418.51 o
-5 -14 1 0 1425.00 1254.88 333.85 o
-5 14 1 1 79.80 86.68 96.10 <
-5 -14 1 1 73.78 181.23 119.68 <
-5 14 1 2 36.68 -56.34 66.36 <
-5 -14 1 2 41.30 51.60 85.61 <
-4 14 1 -2 62.33 191.84 97.22 <
-4 -14 1 -2 61.58 74.12 72.34 <
-4 14 1 -1 229.60 283.55 106.58 <
-4 -14 1 -1 214.00 288.82 140.83 <
-4 14 1 0 112.96 167.37 94.26 <
-4 -14 1 0 116.91 346.65 228.75 <
-4 14 1 1 805.13 444.82 124.59 o
-4 -14 1 1 838.14 587.42 232.54 <
-4 14 1 2 127.97 168.61 89.22 <
-4 -14 1 2 135.34 220.04 157.83 <
-3 14 1 -2 13.38 54.45 57.65 <
-3 -14 1 -2 19.15 14.75 94.32 <
-3 14 1 -1 798.83 622.85 150.25 o
-3 -14 1 -1 790.71 656.80 208.01 o
-3 14 1 0 7696.66 6628.52 658.93 o
-3 -14 1 0 7702.50 7771.78 746.26 o
-3 14 1 1 214.46 101.07 76.01 <
-3 -14 1 1 213.30 109.49 109.78 <
-3 14 1 2 188.27 53.26 63.39 <
-3 -14 1 2 190.38 101.25 113.04 <
-2 14 1 -2 54.92 49.65 49.83 <
-2 -14 1 -2 64.15 111.44 94.67 <
-2 14 1 -1 604.70 1102.03 190.48 o
-2 -14 1 -1 608.38 1030.99 248.42 o
-2 14 1 0 1212.75 1177.15 189.82 o
-2 -14 1 0 1195.27 1504.07 310.80 o
-2 14 1 1 2193.55 1841.35 195.69 o
-2 -14 1 1 2230.42 1897.10 354.94 o
-2 14 1 2 57.00 141.89 56.40 <
-2 -14 1 2 64.48 107.41 77.91 <
-1 14 1 -2 151.65 10.78 33.06 <
-1 -14 1 -2 153.08 71.04 72.87 <
-1 14 1 -1 843.07 1054.33 143.67 o
-1 -14 1 -1 855.63 890.88 227.21 o
-1 14 1 0 17540.80 16900.60 651.82 o
-1 -14 1 0 17685.80 16823.80 941.89 o
-1 14 1 1 6.12 18.72 45.03 <
-1 -14 1 1 11.83 -3.97 18.37 <
-1 14 1 2 166.77 89.22 41.65 <
-1 -14 1 2 159.20 52.43 82.23 <
0 14 1 -2 33.60 58.89 48.88 <
0 14 1 -1 568.39 681.86 139.52 o
0 14 1 0 97.32 106.40 72.10 <
0 14 1 1 1968.66 1988.16 244.80 o
0 14 1 2 178.53 317.56 83.48 o
1 14 1 -2 91.46 146.22 68.01 <
1 -14 1 -2 112.56 217.43 112.39 <
1 14 1 -1 669.79 544.94 133.78 o
1 -14 1 -1 694.05 506.90 186.86 <
1 14 1 0 16344.30 14598.50 855.51 o
1 -14 1 0 16443.60 15106.50 957.47 o
1 14 1 1 2266.25 2022.70 324.96 o
1 -14 1 1 2263.52 2358.69 389.01 o
1 14 1 2 314.81 180.28 123.53 <
1 -14 1 2 306.55 417.27 156.29 <
2 14 1 -2 147.05 -5.92 36.32 <
2 -14 1 -2 151.57 -23.05 64.70 <
2 14 1 -1 373.69 331.42 126.13 <
2 -14 1 -1 394.21 232.12 95.80 <
2 14 1 0 1402.87 1613.44 293.21 o
2 -14 1 0 1396.37 1572.38 300.67 o
2 14 1 1 846.35 711.30 197.41 o
2 -14 1 1 875.65 715.21 219.98 o
2 14 1 2 380.50 39.34 37.15 <
2 -14 1 2 374.43 298.24 150.37 <
3 14 1 -2 130.34 16.47 31.64 <
3 -14 1 -2 150.04 109.25 108.83 <
3 14 1 -1 93.65 -27.31 61.56 <
3 -14 1 -1 114.32 -61.20 103.86 <
3 14 1 0 6989.10 6668.33 662.31 o
3 -14 1 0 6943.99 5808.79 651.47 o
3 14 1 1 231.73 385.81 165.41 <
3 -14 1 1 246.63 209.91 142.13 <
3 14 1 2 37.72 2.67 19.85 <
3 -14 1 2 30.70 40.46 11.55 o
4 14 1 -2 197.08 177.44 102.97 <
4 -14 1 -2 213.49 99.24 101.55 <
4 14 1 -1 41.14 139.40 114.64 <
4 -14 1 -1 47.31 112.57 134.78 <
4 14 1 0 147.28 488.01 210.74 <
4 -14 1 0 153.61 32.82 79.27 <
4 14 1 1 289.56 188.34 92.54 <
4 -14 1 1 311.04 360.86 209.61 <
4 14 1 2 108.60 90.11 50.06 <
4 -14 1 2 98.96 318.45 162.45 <
5 14 1 -2 59.87 -173.89 118.79 <
5 -14 1 -2 64.37 -136.38 128.33 <
5 14 1 -1 43.44 -22.81 83.54 <
5 -14 1 -1 47.16 -67.18 100.95 <
5 14 1 0 1068.13 837.61 294.27 <
5 -14 1 0 1041.08 687.54 234.91 <
5 14 1 1 256.74 422.66 193.55 <
5 -14 1 1 269.65 181.35 117.25 <
5 14 1 2 52.06 -23.94 86.91 <
-5 15 1 0 164.14 94.85 86.79 <
-5 -15 1 0 157.69 153.27 138.46 <
-5 15 1 1 9.87 35.43 46.03 <
-5 -15 1 1 9.10 -35.67 48.34 <
-5 15 1 2 45.99 72.87 100.48 <
-5 -15 1 2 48.68 -89.99 107.83 <
-4 15 1 -2 81.26 142.19 121.99 <
-4 -15 1 -2 82.26 146.46 101.19 <
-4 15 1 -1 132.41 213.58 116.06 <
-4 -15 1 -1 165.00 304.70 148.05 <
-4 15 1 0 201.60 197.05 108.48 <
-4 -15 1 0 195.74 265.54 162.81 <
-4 15 1 1 26.20 150.96 90.23 <
-4 -15 1 1 33.81 142.72 151.61 <
-4 15 1 2 140.26 119.44 68.19 <
-3 15 1 -2 87.78 3.61 60.49 <
-3 -15 1 -2 91.30 -51.96 114.82 <
-3 15 1 -1 98.91 190.83 104.57 <
-3 -15 1 -1 102.71 135.08 114.70 <
-3 15 1 0 266.35 149.65 75.78 <
-3 -15 1 0 284.17 347.00 161.74 <
-3 15 1 1 120.02 43.96 45.32 <
-3 -15 1 1 122.86 160.97 136.92 <
-3 15 1 2 125.86 6.52 32.47 <
-3 -15 1 2 110.11 -8.77 25.12 <
-2 15 1 -2 149.31 488.89 133.90 o
-2 -15 1 -2 148.49 432.32 178.27 <
-2 15 1 -1 297.45 505.66 135.43 o
-2 -15 1 -1 364.46 578.65 196.81 <
-2 15 1 0 2215.62 1856.76 240.30 o
-2 -15 1 0 2196.65 2001.55 369.28 o
-2 15 1 1 26.48 144.20 61.97 <
-2 -15 1 1 41.98 150.66 118.31 <
-2 15 1 2 16.02 66.30 34.78 <
-2 -15 1 2 22.09 79.33 57.65 <
-1 15 1 -2 284.09 33.41 23.05 <
-1 -15 1 -2 294.75 73.58 79.74 <
-1 15 1 -1 2320.56 2459.52 226.02 o
-1 -15 1 -1 2317.25 2324.62 375.02 o
-1 15 1 0 514.42 339.83 90.41 o
-1 -15 1 0 642.16 430.42 176.02 <
-1 15 1 1 373.27 355.83 79.51 o
-1 -15 1 1 382.01 489.49 178.74 <
-1 15 1 2 161.34 225.13 59.54 o
-1 -15 1 2 128.92 310.39 142.84 <
0 15 1 -2 136.65 405.71 118.91 o
0 15 1 -1 134.38 238.46 93.37 <
0 15 1 0 677.66 509.04 130.28 o
0 15 1 1 42.51 301.98 109.90 <
0 15 1 2 36.89 39.16 68.37 <
1 15 1 -2 68.48 73.70 64.52 <
1 -15 1 -2 67.28 51.43 93.67 <
1 15 1 -1 310.31 442.39 138.69 o
1 -15 1 -1 332.85 531.61 198.71 <
1 15 1 0 399.91 345.99 140.59 <
1 -15 1 0 498.48 346.88 168.73 <
1 15 1 1 5465.20 4955.48 512.06 o
1 -15 1 1 5409.67 5504.39 598.85 o
1 15 1 2 120.56 -11.85 9.54 <
1 -15 1 2 109.01 261.04 134.84 <
2 15 1 -2 287.72 300.08 126.13 <
2 -15 1 -2 269.10 129.93 99.06 <
2 15 1 -1 120.06 117.25 108.78 <
2 -15 1 -1 113.05 96.10 54.62 <
2 15 1 0 1999.14 1706.92 307.13 o
2 -15 1 0 1989.80 1588.97 316.13 o
2 15 1 1 52.34 35.78 19.67 <
2 -15 1 1 86.06 126.85 103.80 <
2 15 1 2 349.32 330.83 149.89 <
2 -15 1 2 331.20 547.19 214.53 <
3 15 1 -2 183.03 122.46 69.38 <
3 -15 1 -2 173.98 243.85 160.08 <
3 15 1 -1 422.98 341.73 161.56 <
3 -15 1 -1 448.13 327.39 165.12 <
3 15 1 0 237.61 194.27 133.36 <
3 -15 1 0 241.05 233.07 164.35 <
3 15 1 1 599.00 697.08 224.36 o
3 -15 1 1 590.01 656.44 241.60 <
3 15 1 2 52.26 86.26 96.21 <
3 -15 1 2 51.98 83.60 86.91 <
4 15 1 -2 80.39 275.14 141.12 <
4 -15 1 -2 69.23 362.35 184.96 <
4 15 1 -1 152.18 61.62 92.72 <
4 -15 1 -1 159.84 84.66 55.28 <
4 15 1 0 226.78 257.54 138.99 <
4 -15 1 0 215.86 154.81 147.40 <
4 15 1 1 34.20 240.00 164.05 <
4 -15 1 1 39.77 43.13 112.09 <
4 15 1 2 31.13 89.16 90.71 <
4 -15 1 2 40.16 143.49 131.23 <
5 15 1 -2 109.53 78.56 51.13 <
5 -15 1 -2 109.66 11.49 66.59 <
5 15 1 -1 67.64 -54.62 82.17 <
5 -15 1 -1 72.07 -49.06 105.58 <
5 15 1 0 140.36 54.45 76.78 <
5 -15 1 0 132.30 134.84 119.32 <
5 15 1 1 347.89 338.47 195.10 <
-5 16 1 1 58.79 -36.91 90.53 <
-5 -16 1 1 53.73 -144.15 160.02 <
-5 16 1 2 8.80 -52.02 39.28 <
-5 -16 1 2 7.05 -24.59 35.61 <
-4 16 1 -2 88.42 97.16 113.28 <
-4 -16 1 -2 90.95 141.66 141.83 <
-4 16 1 -1 749.35 908.89 206.12 o
-4 -16 1 -1 744.47 369.04 188.28 <
-4 16 1 0 623.37 630.85 174.06 o
-4 -16 1 0 621.42 431.72 206.35 <
-4 16 1 1 19.53 44.32 92.25 <
-4 -16 1 1 15.75 242.26 154.87 <
-4 16 1 2 237.43 365.37 141.36 <
-4 -16 1 2 246.65 448.49 204.40 <
-3 16 1 -2 114.97 197.47 137.86 <
-3 -16 1 -2 101.51 167.07 126.01 <
-3 16 1 -1 97.37 125.54 63.99 <
-3 -16 1 -1 112.40 145.45 108.06 <
-3 16 1 0 331.60 209.08 98.94 <
-3 -16 1 0 325.14 305.65 132.77 <
-3 16 1 1 204.88 232.12 92.13 <
-3 -16 1 1 188.76 224.42 148.71 <
-3 16 1 2 75.42 159.67 67.60 <
-3 -16 1 2 72.87 57.82 84.37 <
-2 16 1 -2 210.48 7.58 48.64 <
-2 -16 1 -2 207.82 36.20 87.39 <
-2 16 1 -1 2876.04 3161.29 324.31 o
-2 -16 1 -1 2861.27 3485.18 497.90 o
-2 16 1 0 2169.91 2252.81 234.97 o
-2 -16 1 0 2170.48 1870.26 358.55 o
-2 16 1 1 20.72 93.67 49.59 <
-2 -16 1 1 15.88 171.99 129.75 <
-2 16 1 2 108.61 142.37 68.43 <
-2 -16 1 2 116.46 267.79 137.15 <
-1 16 1 -2 122.88 134.72 75.18 <
-1 -16 1 -2 124.59 81.29 92.60 <
-1 16 1 -1 84.19 166.24 89.52 <
-1 -16 1 -1 111.41 181.88 97.10 <
-1 16 1 0 812.30 956.93 143.97 o
-1 -16 1 0 811.05 683.28 197.64 o
-1 16 1 1 16.54 128.68 55.51 <
-1 -16 1 1 18.62 -10.43 51.84 <
-1 16 1 2 123.27 304.35 82.17 o
-1 -16 1 2 130.22 196.93 116.06 <
0 16 1 -2 113.16 76.90 33.59 <
0 16 1 -1 3203.89 3390.45 327.92 o
0 16 1 0 146.55 171.28 72.93 <
0 16 1 1 62.61 55.93 40.41 <
0 16 1 2 117.21 79.33 66.65 <
1 16 1 -2 44.93 -30.27 45.15 <
1 -16 1 -2 44.34 -39.69 66.59 <
1 16 1 -1 196.70 246.11 102.91 <
1 -16 1 -1 182.91 287.16 169.74 <
1 16 1 0 586.73 822.33 177.50 o
1 -16 1 0 592.10 991.65 266.43 o
1 16 1 1 651.96 530.43 185.08 <
1 -16 1 1 595.76 555.55 199.48 <
1 16 1 2 78.68 127.79 94.08 <
1 -16 1 2 76.82 219.27 115.47 <
2 16 1 -2 295.61 147.23 106.40 <
2 -16 1 -2 270.96 66.71 74.00 <
2 16 1 -1 573.86 328.58 134.43 <
2 -16 1 -1 577.03 241.37 110.14 <
2 16 1 0 2416.21 1779.15 329.23 o
2 -16 1 0 2452.59 1776.78 345.70 o
2 16 1 1 17.79 75.78 58.71 <
2 -16 1 1 21.01 -50.95 21.74 <
2 16 1 2 252.72 127.85 123.17 <
2 -16 1 2 265.76 107.89 27.85 o
3 16 1 -2 218.97 -47.22 89.88 <
3 -16 1 -2 204.99 176.26 131.52 <
3 16 1 -1 98.11 -7.11 87.03 <
3 -16 1 -1 91.38 299.31 192.79 <
3 16 1 0 174.06 276.20 157.18 <
3 -16 1 0 170.91 335.15 164.47 <
3 16 1 1 120.81 382.73 189.17 <
3 -16 1 1 158.55 393.21 221.04 <
3 16 1 2 15.31 45.15 99.71 <
3 -16 1 2 13.59 87.45 62.56 <
4 16 1 -2 87.97 113.87 110.26 <
4 -16 1 -2 84.95 142.25 151.08 <
4 16 1 -1 68.08 33.47 30.99 <
4 -16 1 -1 66.13 241.72 164.47 <
4 16 1 0 817.21 659.58 238.23 <
4 -16 1 0 822.26 391.79 200.66 <
4 16 1 1 8.59 10.31 33.53 <
4 -16 1 1 6.16 132.41 144.32 <
4 16 1 2 35.91 234.67 151.73 <
4 -16 1 2 41.24 19.97 81.40 <
5 16 1 -2 110.15 -44.49 97.52 <
5 -16 1 -2 101.42 -108.00 144.44 <
5 16 1 -1 49.99 159.37 146.34 <
5 -16 1 -1 47.38 -110.14 131.82 <
5 16 1 0 73.72 -88.39 92.96 <
-5 17 1 2 68.38 36.38 90.17 <
-5 -17 1 2 66.75 25.89 37.92 <
-4 17 1 -2 57.12 84.19 97.93 <
-4 -17 1 -2 60.19 198.83 170.15 <
-4 17 1 -1 168.12 86.50 112.39 <
-4 -17 1 -1 165.87 379.11 186.92 <
-4 17 1 0 79.72 248.18 113.10 <
-4 -17 1 0 75.20 325.49 169.74 <
-4 17 1 1 26.86 -2.90 21.03 <
-4 -17 1 1 26.93 -9.78 33.77 <
-4 17 1 2 174.26 137.15 84.01 <
-4 -17 1 2 150.78 54.74 94.02 <
-3 17 1 -2 54.42 177.74 135.55 <
-3 -17 1 -2 57.00 101.49 94.79 <
-3 17 1 -1 396.07 290.54 113.81 <
-3 -17 1 -1 413.45 310.39 194.03 <
-3 17 1 0 75.93 42.24 82.23 <
-3 -17 1 0 89.42 144.74 158.36 <
-3 17 1 1 130.19 91.24 69.91 <
-3 -17 1 1 117.05 92.60 58.24 <
-3 17 1 2 309.34 272.65 103.26 <
-3 -17 1 2 303.42 204.04 129.57 <
-2 17 1 -2 642.73 376.80 175.96 <
-2 -17 1 -2 628.39 618.76 242.91 <
-2 17 1 -1 134.79 242.91 102.85 <
-2 -17 1 -1 109.71 282.54 167.90 <
-2 17 1 0 35.16 45.26 7.23 o
-2 -17 1 0 42.12 57.17 70.92 <
-2 17 1 1 6.12 2.37 28.79 <
-2 -17 1 1 9.51 73.88 35.07 <
-2 17 1 2 117.47 133.12 72.40 <
-2 -17 1 2 102.20 -149.83 113.40 <
-1 17 1 -2 121.84 115.00 76.07 <
-1 -17 1 -2 126.83 44.26 86.85 <
-1 17 1 -1 358.14 435.51 134.96 o
-1 -17 1 -1 384.36 384.27 167.61 <
-1 17 1 0 55.25 60.37 69.08 <
-1 -17 1 0 94.81 46.45 115.23 <
-1 17 1 1 477.97 379.53 113.57 o
-1 -17 1 1 452.06 361.75 137.27 <
-1 17 1 2 359.09 315.84 89.52 o
-1 -17 1 2 356.14 381.48 169.86 <
0 17 1 -2 76.97 115.65 66.18 <
0 -17 1 -2 79.60 212.28 177.62 <
0 17 1 -1 523.30 562.77 157.12 o
0 17 1 0 2278.34 2184.03 279.40 o
0 17 1 1 296.70 373.42 128.92 <
0 17 1 2 47.88 74.59 76.19 <
1 17 1 -2 190.36 226.85 95.09 <
1 -17 1 -2 186.34 195.69 132.47 <
1 17 1 -1 256.15 298.60 108.48 <
1 -17 1 -1 263.60 306.83 166.07 <
1 17 1 0 24.27 94.44 82.47 <
1 -17 1 0 28.12 -53.74 52.73 <
1 17 1 1 554.95 1218.44 225.49 o
1 -17 1 1 545.08 1063.70 299.31 o
1 17 1 2 263.19 65.53 46.15 <
1 -17 1 2 261.90 6.16 59.42 <
2 17 1 -2 45.68 97.10 80.46 <
2 -17 1 -2 47.24 -21.68 42.72 <
2 17 1 -1 246.33 162.39 134.37 <
2 -17 1 -1 196.06 52.97 62.33 <
2 17 1 0 87.48 102.85 81.70 <
2 -17 1 0 100.28 96.69 104.75 <
2 17 1 1 57.45 125.01 101.25 <
2 -17 1 1 55.16 65.41 51.37 <
2 17 1 2 150.60 147.34 112.09 <
2 -17 1 2 149.43 224.96 32.70 o
3 17 1 -2 93.20 164.82 92.42 <
3 -17 1 -2 86.88 132.77 102.32 <
3 17 1 -1 169.74 85.97 69.38 <
3 -17 1 -1 146.37 119.62 74.77 <
3 17 1 0 22.08 12.50 96.21 <
3 -17 1 0 23.03 79.51 71.86 <
3 17 1 1 533.30 593.23 230.05 <
3 -17 1 1 545.72 703.36 252.68 <
3 17 1 2 42.08 109.07 108.72 <
3 -17 1 2 43.92 15.46 74.47 <
4 17 1 -2 50.28 -68.43 72.52 <
4 -17 1 -2 47.11 46.27 29.03 <
4 17 1 -1 151.32 -89.70 113.63 <
4 -17 1 -1 125.49 -63.57 43.90 <
4 17 1 0 42.89 16.47 78.92 <
4 -17 1 0 38.83 99.83 117.90 <
4 17 1 1 56.06 150.48 137.04 <
4 -17 1 1 50.43 196.22 154.63 <
4 17 1 2 132.72 78.20 121.81 <
4 -17 1 2 123.44 159.13 162.39 <
5 17 1 -2 35.75 -16.47 121.28 <
5 -17 1 -2 32.07 11.26 105.34 <
5 17 1 -1 64.13 -241.31 153.57 <
-4 18 1 -2 33.62 81.29 93.37 <
-4 -18 1 -2 38.29 -74.35 108.42 <
-4 18 1 -1 10.25 67.54 120.92 <
-4 -18 1 -1 5.75 66.06 52.14 <
-4 18 1 0 330.67 279.88 182.30 <
-4 -18 1 0 325.00 349.90 215.00 <
-4 18 1 1 95.26 -36.61 20.68 <
-4 -18 1 1 83.94 145.39 145.92 <
-4 18 1 2 33.73 -8.00 53.14 <
-4 -18 1 2 29.82 14.57 81.82 <
-3 18 1 -2 64.40 76.19 122.22 <
-3 -18 1 -2 65.16 92.42 118.25 <
-3 18 1 -1 51.18 -18.60 60.31 <
-3 -18 1 -1 35.35 60.13 102.02 <
-3 18 1 0 166.26 -13.45 55.87 <
-3 -18 1 0 159.07 -81.40 105.22 <
-3 18 1 1 319.67 262.75 99.83 <
-3 -18 1 1 310.92 381.54 174.06 <
-3 18 1 2 51.12 63.16 59.01 <
-3 -18 1 2 50.04 -63.33 94.85 <
-2 18 1 -2 163.97 174.48 120.74 <
-2 -18 1 -2 169.99 446.30 212.34 <
-2 18 1 -1 74.09 106.64 87.68 <
-2 -18 1 -1 44.37 98.70 115.65 <
-2 18 1 0 589.52 324.90 97.99 o
-2 -18 1 0 592.62 506.61 216.07 <
-2 18 1 1 218.88 202.15 77.97 <
-2 -18 1 1 223.00 122.34 73.46 <
-2 18 1 2 109.48 45.03 32.76 <
-2 -18 1 2 104.72 -72.93 75.83 <
-1 18 1 -2 18.42 56.99 56.34 <
-1 -18 1 -2 20.89 188.34 110.61 <
-1 18 1 -1 15.82 -2.78 35.61 <
-1 -18 1 -1 13.01 139.46 149.42 <
-1 18 1 0 1256.28 1226.38 218.62 o
-1 -18 1 0 1185.12 1109.79 270.75 o
-1 18 1 1 512.37 541.56 141.71 o
-1 -18 1 1 514.93 369.63 175.72 <
-1 18 1 2 5.06 3.55 42.54 <
-1 -18 1 2 4.38 114.88 91.18 <
0 18 1 -2 299.14 271.05 121.39 <
0 -18 1 -2 305.88 293.15 163.28 <
0 18 1 -1 100.36 139.29 85.73 <
0 -18 1 -1 76.18 119.56 106.64 <
0 18 1 0 1907.19 2014.47 278.16 o
0 18 1 1 579.11 518.87 144.03 o
0 18 1 2 197.77 170.33 115.65 <
1 18 1 -2 8.85 83.65 76.19 <
1 -18 1 -2 11.23 11.97 108.66 <
1 18 1 -1 28.83 156.47 86.38 <
1 -18 1 -1 34.52 98.76 140.00 <
1 18 1 0 1306.50 1154.16 225.79 o
1 -18 1 0 1244.79 1187.46 312.76 o
1 18 1 1 911.52 1530.37 253.22 o
1 -18 1 1 924.59 1513.13 359.68 o
1 18 1 2 167.36 167.43 108.60 <
1 -18 1 2 175.34 99.18 89.64 <
2 18 1 -2 241.46 212.40 114.05 <
2 -18 1 -2 256.72 272.17 174.66 <
2 18 1 -1 5.32 144.50 93.61 <
2 -18 1 -1 2.24 -0.12 97.46 <
2 18 1 0 320.12 238.46 119.85 <
2 -18 1 0 317.51 262.93 168.55 <
2 18 1 1 961.69 755.91 231.12 o
2 -18 1 1 987.38 723.45 239.77 o
2 18 1 2 68.68 145.92 134.43 <
2 -18 1 2 64.87 217.90 142.49 <
3 18 1 -2 38.11 -113.40 138.52 <
3 -18 1 -2 32.46 109.07 120.03 <
3 18 1 -1 135.95 16.47 26.72 <
3 -18 1 -1 145.93 215.95 151.37 <
3 18 1 0 228.74 99.35 87.92 <
3 -18 1 0 225.97 10.13 61.85 <
3 18 1 1 33.27 29.03 73.23 <
3 -18 1 1 42.91 165.71 173.29 <
3 18 1 2 27.24 12.38 71.92 <
3 -18 1 2 26.68 140.95 134.13 <
4 18 1 -2 173.60 17.30 57.47 <
4 -18 1 -2 183.82 78.26 27.79 <
4 18 1 -1 6.45 39.28 40.76 <
4 -18 1 -1 6.14 135.26 142.07 <
4 18 1 0 180.67 215.24 161.98 <
4 -18 1 0 172.47 95.21 89.52 <
4 18 1 1 489.18 388.00 202.38 <
4 -18 1 1 488.90 728.25 270.75 <
4 18 1 2 16.58 -15.05 38.09 <
4 -18 1 2 14.38 73.11 128.56 <
5 18 1 -2 24.93 82.47 126.43 <
5 18 1 -1 41.58 -122.88 111.32 <
-4 19 1 -2 36.64 53.74 107.29 <
-4 19 1 -1 87.43 309.85 191.66 <
-4 -19 1 -1 80.97 236.86 166.78 <
-4 19 1 0 32.64 37.80 39.28 <
-4 -19 1 0 31.06 61.97 99.35 <
-4 19 1 1 56.18 -26.54 43.49 <
-4 -19 1 1 58.40 250.43 175.72 <
-4 19 1 2 60.94 141.01 106.70 <
-4 -19 1 2 62.98 118.85 119.91 <
-3 19 1 -2 43.16 86.74 102.20 <
-3 -19 1 -2 41.39 -19.67 79.63 <
-3 19 1 -1 435.86 621.84 218.14 <
-3 -19 1 -1 444.78 659.46 248.95 <
-3 19 1 0 239.15 373.42 136.09 <
-3 -19 1 0 223.88 387.29 154.04 <
-3 19 1 1 13.84 -14.75 45.38 <
-3 -19 1 1 15.38 -24.41 25.77 <
-3 19 1 2 89.66 55.69 59.01 <
-3 -19 1 2 103.69 -4.50 25.77 <
-2 19 1 -2 253.95 111.32 108.24 <
-2 -19 1 -2 253.18 123.94 121.16 <
-2 19 1 -1 179.27 235.44 99.89 <
-2 -19 1 -1 169.50 161.74 96.33 <
-2 19 1 0 248.62 214.17 112.74 <
-2 -19 1 0 224.47 176.49 160.32 <
-2 19 1 1 124.46 131.88 80.28 <
-2 -19 1 1 137.99 117.25 119.62 <
-2 19 1 2 81.83 59.84 40.70 <
-2 -19 1 2 90.16 73.35 51.60 <
-1 19 1 -2 27.77 62.44 57.71 <
-1 -19 1 -2 27.35 19.97 26.07 <
-1 19 1 -1 64.28 148.29 92.66 <
-1 -19 1 -1 70.88 73.29 75.60 <
-1 19 1 0 770.88 1055.87 211.21 o
-1 -19 1 0 755.62 887.20 242.20 o
-1 19 1 1 119.55 357.01 120.74 <
-1 -19 1 1 111.43 303.57 158.13 <
-1 19 1 2 93.38 11.97 48.34 <
-1 -19 1 2 106.61 85.97 8.35 o
0 19 1 -2 96.00 334.14 126.96 <
0 -19 1 -2 85.52 36.32 57.11 <
0 19 1 -1 384.63 500.63 152.32 o
0 -19 1 -1 395.20 475.86 224.90 <
0 19 1 0 50.24 127.67 88.22 <
0 -19 1 0 54.86 132.83 135.02 <
0 19 1 1 75.22 52.08 59.54 <
0 19 1 2 17.29 38.98 59.96 <
1 19 1 -2 104.84 180.46 109.84 <
1 -19 1 -2 95.87 77.55 54.09 <
1 19 1 -1 305.29 330.89 111.56 <
1 -19 1 -1 327.52 340.42 192.19 <
1 19 1 0 853.87 1298.07 242.67 o
1 -19 1 0 836.05 902.90 277.51 o
1 19 1 1 162.62 270.99 121.51 <
1 -19 1 1 177.23 336.52 188.28 <
1 19 1 2 49.36 22.99 38.27 <
2 19 1 -2 114.25 171.10 105.40 <
2 -19 1 -2 119.24 243.97 150.90 <
2 19 1 -1 250.29 284.08 129.75 <
2 -19 1 -1 275.84 282.90 204.40 <
2 19 1 0 225.00 237.04 102.32 <
2 -19 1 0 214.95 202.92 141.36 <
2 19 1 1 107.17 92.66 99.53 <
2 -19 1 1 92.27 190.18 144.56 <
2 19 1 2 111.10 82.88 122.58 <
2 -19 1 2 124.59 327.51 173.65 <
3 19 1 -2 26.46 -79.27 115.53 <
3 -19 1 -2 25.52 23.94 52.79 <
3 19 1 -1 83.54 19.55 42.42 <
3 -19 1 -1 85.05 115.23 120.45 <
3 19 1 0 462.07 563.60 220.69 <
3 -19 1 0 445.33 344.69 177.38 <
3 19 1 1 166.05 383.61 184.25 <
3 -19 1 1 157.65 284.50 159.85 <
3 19 1 2 10.42 -95.39 107.06 <
3 -19 1 2 13.29 8.83 40.52 <
4 19 1 -2 119.88 97.04 68.61 <
4 -19 1 -2 127.18 149.00 121.33 <
4 19 1 -1 77.76 37.50 65.47 <
4 -19 1 -1 91.03 95.21 153.92 <
4 19 1 0 14.47 74.89 106.17 <
4 -19 1 0 12.79 105.16 140.35 <
4 19 1 1 100.15 251.91 148.11 <
4 -19 1 1 83.24 203.69 180.58 <
5 19 1 -2 23.73 44.61 84.78 <
-4 20 1 -1 58.06 88.57 86.26 <
-4 20 1 0 137.81 191.19 155.64 <
-4 -20 1 0 132.70 145.27 148.11 <
-4 20 1 1 4.78 3.44 22.99 <
-4 -20 1 1 4.57 9.66 88.51 <
-4 20 1 2 17.07 13.39 63.99 <
-4 -20 1 2 17.76 112.92 114.29 <
-3 20 1 -2 21.07 -11.32 55.10 <
-3 -20 1 -2 21.29 -24.65 50.42 <
-3 20 1 -1 880.45 1156.18 257.78 o
-3 -20 1 -1 857.22 1213.17 355.89 o
-3 20 1 0 107.78 179.63 106.52 <
-3 -20 1 0 115.27 67.01 58.06 <
-3 20 1 1 61.68 -35.90 105.28 <
-3 -20 1 1 72.11 64.10 100.95 <
-3 20 1 2 90.44 -51.78 51.43 <
-3 -20 1 2 93.66 150.54 100.66 <
-2 20 1 -2 62.17 -32.23 67.07 <
-2 -20 1 -2 53.77 42.83 18.48 <
-2 20 1 -1 29.22 18.43 100.01 <
-2 -20 1 -1 41.93 -170.15 122.22 <
-2 20 1 0 588.07 808.58 202.32 o
-2 -20 1 0 571.71 590.03 214.65 <
-2 20 1 1 4.21 22.51 25.83 <
-2 -20 1 1 5.91 35.67 95.74 <
-2 20 1 2 30.92 -61.67 109.60 <
-2 -20 1 2 26.52 45.68 19.97 <
-1 20 1 -2 36.78 73.76 54.39 <
-1 -20 1 -2 41.84 -5.39 70.80 <
-1 20 1 -1 156.47 212.16 112.63 <
-1 -20 1 -1 152.07 31.93 71.33 <
-1 20 1 0 109.38 160.79 95.56 <
-1 -20 1 0 112.84 71.75 63.81 <
-1 20 1 1 190.64 237.69 113.63 <
-1 -20 1 1 179.52 87.51 100.66 <
-1 20 1 2 59.20 -10.31 57.47 <
-1 -20 1 2 57.35 150.78 118.85 <
0 20 1 -2 17.52 77.49 97.04 <
0 -20 1 -2 13.53 157.30 148.17 <
0 20 1 -1 16.15 32.17 59.78 <
0 -20 1 -1 20.69 174.83 142.19 <
0 20 1 0 284.92 76.66 72.93 <
0 -20 1 0 216.48 128.86 127.56 <
0 20 1 1 3.85 65.58 58.18 <
0 -20 1 1 4.06 135.79 136.92 <
0 20 1 2 35.69 161.21 100.60 <
0 -20 1 2 35.19 117.66 117.90 <
1 20 1 -2 51.49 -29.74 42.18 <
1 -20 1 -2 37.08 5.04 88.99 <
1 20 1 -1 595.46 533.62 164.29 o
1 -20 1 -1 605.15 738.56 265.89 <
1 20 1 0 88.40 162.27 97.10 <
1 -20 1 0 90.31 -57.05 20.85 <
1 20 1 1 58.63 190.30 114.11 <
1 -20 1 1 73.84 187.69 97.70 <
1 20 1 2 131.13 57.17 32.05 <
1 -20 1 2 143.25 -8.12 31.04 <
2 20 1 -2 31.47 -1.72 61.26 <
2 -20 1 -2 27.37 -25.12 52.79 <
2 20 1 -1 19.40 29.80 42.06 <
2 -20 1 -1 14.65 155.88 132.24 <
2 20 1 0 581.74 956.76 227.09 o
2 -20 1 0 572.32 557.56 227.80 <
2 20 1 1 12.07 120.62 85.08 <
2 -20 1 1 23.24 -86.97 50.48 <
2 20 1 2 186.01 20.38 46.45 <
2 -20 1 2 179.02 346.17 164.58 <
3 20 1 -2 68.57 -80.40 90.71 <
3 -20 1 -2 61.11 106.11 130.70 <
3 20 1 -1 78.71 -128.86 104.27 <
3 -20 1 -1 76.90 -152.32 120.92 <
3 20 1 0 123.24 75.06 99.77 <
3 -20 1 0 137.03 22.10 40.46 <
3 20 1 1 130.10 226.79 144.91 <
3 -20 1 1 100.59 99.24 102.91 <
3 20 1 2 50.36 6.40 96.69 <
3 -20 1 2 60.75 61.85 80.51 <
4 20 1 -2 68.17 19.49 75.00 <
4 -20 1 -2 60.13 63.22 106.17 <
4 20 1 -1 33.34 140.53 115.53 <
4 -20 1 -1 30.26 123.05 130.81 <
4 20 1 0 94.56 89.46 27.31 o
4 -20 1 0 90.76 158.90 113.46 <
-4 21 1 0 142.22 60.19 124.47 <
-4 21 1 1 22.18 19.85 36.02 <
-4 21 1 2 110.96 81.23 83.89 <
-4 -21 1 2 109.54 203.39 145.92 <
-3 21 1 -2 53.43 100.66 86.26 <
-3 -21 1 -2 51.12 195.75 139.82 <
-3 21 1 -1 154.58 182.36 127.50 <
-3 -21 1 -1 134.44 177.97 127.32 <
-3 21 1 0 107.08 1.54 72.46 <
-3 21 1 1 60.45 20.26 89.28 <
-3 -21 1 1 56.98 -56.82 71.04 <
-3 21 1 2 48.91 137.15 93.07 <
-3 -21 1 2 42.92 129.10 131.58 <
-2 21 1 -2 85.27 78.86 84.54 <
-2 -21 1 -2 100.89 210.50 154.69 <
-2 21 1 -1 78.29 202.15 114.05 <
-2 -21 1 -1 76.30 273.95 176.79 <
-2 21 1 0 519.50 461.35 147.70 o
-2 -21 1 0 521.18 476.27 203.21 <
-2 21 1 1 277.27 213.58 99.35 <
-2 -21 1 1 260.77 169.44 132.59 <
-2 21 1 2 271.65 272.41 122.52 <
-2 -21 1 2 265.71 426.04 202.56 <
-1 21 1 -2 118.58 285.86 125.60 <
-1 -21 1 -2 125.46 268.92 146.93 <
-1 21 1 -1 42.25 382.96 141.54 <
-1 -21 1 -1 55.44 313.35 179.69 <
-1 21 1 0 96.06 101.96 107.94 <
-1 -21 1 0 90.26 81.29 39.58 <
-1 21 1 1 157.79 180.11 94.91 <
-1 -21 1 1 151.01 106.40 94.02 <
-1 21 1 2 13.60 25.71 55.22 <
-1 -21 1 2 11.39 17.77 88.34 <
0 21 1 -2 64.46 125.78 91.95 <
0 -21 1 -2 72.70 251.91 179.87 <
0 21 1 -1 31.68 -32.88 73.58 <
0 -21 1 -1 31.88 93.02 97.58 <
0 21 1 0 469.07 676.05 173.71 o
0 -21 1 0 466.61 589.61 221.10 <
0 21 1 1 340.98 540.50 166.84 o
0 -21 1 1 321.77 444.52 187.16 <
0 21 1 2 128.63 99.06 84.96 <
0 -21 1 2 125.30 74.71 89.28 <
1 21 1 -2 82.27 288.29 128.50 <
1 -21 1 -2 88.49 275.26 204.63 <
1 21 1 -1 148.36 188.88 112.39 <
1 -21 1 -1 109.54 95.03 87.09 <
1 21 1 0 149.57 47.51 46.63 <
1 -21 1 0 140.27 122.64 114.17 <
1 21 1 1 12.30 137.09 97.22 <
1 -21 1 1 11.92 141.18 125.84 <
1 21 1 2 67.99 185.08 114.82 <
1 -21 1 2 65.13 224.48 169.86 <
2 21 1 -2 96.30 100.60 69.85 <
2 21 1 -1 7.18 -74.89 111.74 <
2 -21 1 -1 7.51 49.53 92.36 <
2 21 1 0 612.05 649.09 195.69 o
2 -21 1 0 611.42 383.08 200.66 <
2 21 1 1 600.23 787.55 213.58 o
2 -21 1 1 593.84 672.32 235.62 <
2 21 1 2 111.88 189.70 126.43 <
2 -21 1 2 114.78 204.04 114.88 <
3 21 1 -2 60.58 223.24 133.95 <
3 -21 1 -2 63.35 15.46 72.04 <
3 21 1 -1 97.71 204.75 132.47 <
3 -21 1 -1 82.63 276.44 196.52 <
3 21 1 0 78.91 185.08 123.17 <
3 -21 1 0 75.60 205.76 144.32 <
3 21 1 1 92.13 157.06 120.27 <
3 -21 1 1 107.40 325.14 222.88 <
3 21 1 2 48.77 70.68 80.87 <
3 -21 1 2 45.41 41.23 97.34 <
4 21 1 -2 80.25 357.43 171.81 <
4 -21 1 -2 71.51 97.46 144.50 <
4 21 1 -1 9.01 -284.38 163.70 <
-4 22 1 2 22.60 75.24 81.82 <
-3 22 1 -2 24.79 51.07 55.51 <
-3 -22 1 -2 25.09 -27.13 119.91 <
-3 22 1 -1 136.05 242.02 145.92 <
-3 -22 1 -1 132.06 228.93 140.71 <
-3 22 1 0 376.65 247.76 96.69 <
-3 -22 1 0 387.63 331.18 195.15 <
-3 22 1 1 85.31 -35.96 52.14 <
-3 -22 1 1 81.39 -123.35 130.81 <
-3 22 1 2 76.99 146.57 111.86 <
-3 -22 1 2 68.19 108.95 143.08 <
-2 22 1 -2 80.93 -0.36 76.55 <
-2 -22 1 -2 83.76 168.26 126.49 <
-2 22 1 -1 61.26 32.11 107.18 <
-2 -22 1 -1 81.45 181.88 116.42 <
-2 22 1 0 58.19 -88.93 64.04 <
-2 -22 1 0 49.35 -118.08 134.37 <
-2 22 1 1 147.08 142.78 89.11 <
-2 -22 1 1 126.87 20.68 71.04 <
-2 22 1 2 60.74 122.40 70.21 <
-2 -22 1 2 64.97 164.41 157.71 <
-1 22 1 -2 90.23 142.90 81.17 <
-1 -22 1 -2 97.77 94.50 26.07 o
-1 22 1 -1 1934.26 2145.52 324.84 o
-1 -22 1 -1 1883.69 1950.36 403.58 o
-1 22 1 0 1507.06 1988.64 311.51 o
-1 -22 1 0 1548.70 1395.53 339.00 o
-1 22 1 1 93.12 -6.10 34.30 <
-1 -22 1 1 98.46 0.89 90.23 <
-1 22 1 2 54.21 94.91 71.33 <
-1 -22 1 2 48.22 37.38 66.24 <
0 22 1 -2 84.91 164.76 101.31 <
0 -22 1 -2 89.43 131.88 111.50 <
0 22 1 -1 62.55 18.19 88.22 <
0 -22 1 -1 67.98 58.77 86.68 <
0 22 1 0 9.77 148.35 91.83 <
0 -22 1 0 7.64 173.23 149.65 <
0 22 1 1 106.61 170.51 89.76 <
0 -22 1 1 102.07 258.31 99.89 <
0 22 1 2 20.77 30.57 51.66 <
0 -22 1 2 20.61 79.51 29.86 <
1 22 1 -2 127.32 81.40 93.96 <
1 -22 1 -2 137.31 126.61 117.19 <
1 22 1 -1 256.66 143.02 90.71 <
1 -22 1 -1 238.50 220.81 164.94 <
1 22 1 0 1677.99 2047.88 316.02 o
1 -22 1 0 1728.61 1584.46 375.74 o
1 22 1 1 683.13 996.27 224.24 o
1 -22 1 1 701.02 1063.58 338.23 o
1 22 1 2 273.33 -2.49 68.19 <
1 -22 1 2 271.43 100.89 130.04 <
2 22 1 -2 52.47 1.42 34.36 <
2 -22 1 -2 55.98 130.81 104.04 <
2 22 1 -1 33.38 59.36 51.54 <
2 -22 1 -1 29.96 38.87 99.65 <
2 22 1 0 47.16 103.38 80.22 <
2 -22 1 0 41.24 0.00 66.00 <
2 22 1 1 111.21 101.90 92.96 <
2 -22 1 1 105.80 147.52 157.18 <
2 22 1 2 123.68 293.15 122.34 <
2 -22 1 2 121.84 146.99 124.24 <
3 22 1 -2 158.93 96.10 107.06 <
3 -22 1 -2 163.96 117.78 154.39 <
3 22 1 -1 137.46 123.17 102.67 <
3 -22 1 -1 126.93 56.46 87.27 <
3 22 1 0 365.94 255.35 138.69 <
3 -22 1 0 382.45 126.19 90.53 <
3 22 1 1 66.24 119.38 108.72 <
3 -22 1 1 64.13 250.25 205.58 <
3 22 1 2 60.60 111.03 111.62 <
4 22 1 -2 80.81 90.65 93.85 <
4 22 1 -1 8.06 -255.11 204.22 <
-3 23 1 -2 30.05 -113.10 141.30 <
-3 23 1 -1 37.90 181.41 121.04 <
-3 23 1 0 86.60 12.74 77.61 <
-3 -23 1 0 81.01 93.31 90.53 <
-3 23 1 1 23.44 11.97 34.78 <
-3 -23 1 1 23.78 58.24 87.09 <
-3 23 1 2 86.36 54.33 48.58 <
-3 -23 1 2 86.53 167.43 156.23 <
-2 23 1 -2 92.50 93.07 87.27 <
-2 -23 1 -2 88.97 56.82 110.49 <
-2 23 1 -1 332.49 412.76 170.09 <
-2 -23 1 -1 336.18 407.43 219.62 <
-2 23 1 0 35.09 40.35 59.48 <
-2 -23 1 0 33.55 124.65 61.32 <
-2 23 1 1 48.81 129.63 99.12 <
-2 -23 1 1 49.01 55.75 103.09 <
-2 23 1 2 65.31 77.14 61.38 <
-2 -23 1 2 72.93 50.30 22.81 <
-1 23 1 -2 58.15 95.27 102.20 <
-1 -23 1 -2 48.85 38.21 32.94 <
-1 23 1 -1 94.76 533.68 178.57 <
-1 -23 1 -1 82.44 237.04 210.91 <
-1 23 1 0 170.05 283.73 141.06 <
-1 -23 1 0 153.66 144.97 109.72 <
-1 23 1 1 79.68 105.22 90.59 <
-1 -23 1 1 82.82 58.59 49.29 <
-1 23 1 2 77.16 176.55 104.81 <
-1 -23 1 2 88.50 173.41 141.42 <
0 23 1 -2 102.08 31.10 41.59 <
0 -23 1 -2 103.81 85.25 132.00 <
0 23 1 -1 457.65 495.06 152.74 o
0 -23 1 -1 470.55 457.26 219.51 <
0 23 1 0 277.42 301.74 108.60 <
0 -23 1 0 265.35 283.43 119.62 <
0 23 1 1 464.51 636.36 187.22 o
0 -23 1 1 448.89 413.65 137.04 o
0 23 1 2 26.81 49.65 64.46 <
0 -23 1 2 26.11 146.63 91.30 <
1 23 1 -2 33.91 91.71 65.88 <
1 -23 1 -2 38.41 169.86 109.66 <
1 23 1 -1 113.04 180.70 92.78 <
1 -23 1 -1 108.89 238.23 188.16 <
1 23 1 0 192.08 202.03 113.93 <
1 -23 1 0 174.32 -64.04 112.03 <
1 23 1 1 24.06 249.37 100.18 <
1 -23 1 1 40.09 376.03 216.60 <
1 23 1 2 59.93 76.90 90.88 <
1 -23 1 2 70.66 411.70 207.30 <
2 23 1 -2 49.02 100.48 85.97 <
2 -23 1 -2 45.54 229.16 158.13 <
2 23 1 -1 102.92 11.20 70.80 <
2 -23 1 -1 109.80 127.85 90.35 <
2 23 1 0 28.55 26.72 69.44 <
2 -23 1 0 24.09 33.89 138.75 <
2 23 1 1 347.45 758.88 227.98 o
2 -23 1 1 326.74 182.83 105.99 <
2 23 1 2 57.58 170.63 121.57 <
2 -23 1 2 53.63 131.94 121.93 <
3 23 1 -2 50.43 386.58 137.33 <
3 -23 1 -2 60.10 197.64 140.53 <
3 23 1 -1 38.92 92.07 47.93 <
3 -23 1 -1 39.10 177.38 187.87 <
3 23 1 0 76.76 93.55 102.20 <
3 -23 1 0 71.46 138.99 169.03 <
3 23 1 1 101.22 105.69 129.87 <
-3 24 1 0 304.57 278.57 215.06 <
-3 24 1 1 57.97 -12.97 56.46 <
-3 24 1 2 28.08 4.03 75.30 <
-3 -24 1 2 28.56 75.00 17.54 o
-2 24 1 -2 16.46 -63.75 61.97 <
-2 -24 1 -2 14.13 34.95 74.23 <
-2 24 1 -1 3.63 92.66 77.67 <
-2 -24 1 -1 12.51 294.21 216.66 <
-2 24 1 0 33.25 56.99 70.80 <
-2 -24 1 0 33.98 235.74 142.90 <
-2 24 1 1 48.68 -7.64 74.35 <
-2 -24 1 1 56.91 7.23 91.24 <
-2 24 1 2 65.35 74.77 59.96 <
-2 -24 1 2 67.40 78.56 46.98 <
-1 24 1 -2 126.73 125.54 101.55 <
-1 -24 1 -2 114.97 7.46 79.45 <
-1 24 1 -1 3.12 10.37 79.80 <
-1 -24 1 -1 3.77 11.32 52.85 <
-1 24 1 0 565.14 841.94 233.72 o
-1 -24 1 0 515.17 624.63 236.21 <
-1 24 1 1 172.54 -81.82 142.72 <
-1 -24 1 1 189.26 118.19 103.80 <
-1 24 1 2 31.41 62.09 81.05 <
-1 -24 1 2 32.27 226.08 165.77 <
0 24 1 -2 8.28 94.56 106.82 <
0 -24 1 -2 9.91 56.58 78.56 <
0 24 1 -1 15.97 54.62 83.12 <
0 -24 1 -1 28.40 191.07 116.00 <
0 24 1 0 687.02 907.23 224.24 o
0 -24 1 0 679.01 506.25 178.57 <
0 24 1 1 88.78 313.47 125.90 <
0 -24 1 1 77.63 461.11 186.15 <
0 24 1 2 8.40 4.56 65.70 <
0 -24 1 2 5.17 72.22 78.26 <
1 24 1 -2 44.56 -9.30 64.52 <
1 -24 1 -2 45.46 -61.08 91.42 <
1 24 1 -1 15.17 -4.62 54.21 <
1 -24 1 -1 12.02 50.95 79.21 <
1 24 1 0 601.12 656.68 197.88 o
1 -24 1 0 548.59 476.69 226.38 <
1 24 1 1 68.58 326.74 151.14 <
1 -24 1 1 87.09 217.25 133.84 <
1 24 1 2 72.99 56.22 70.27 <
1 -24 1 2 73.37 118.25 132.00 <
2 24 1 -2 11.35 -38.39 61.91 <
2 -24 1 -2 9.33 121.99 157.42 <
2 24 1 -1 59.19 -14.57 92.13 <
2 -24 1 -1 63.02 68.31 119.91 <
2 24 1 0 46.86 104.75 98.53 <
2 -24 1 0 46.62 92.01 126.55 <
2 24 1 1 48.95 179.04 147.70 <
2 -24 1 1 37.92 62.03 45.97 <
2 24 1 2 55.89 5.81 65.29 <
2 -24 1 2 56.62 0.00 26.84 <
3 24 1 -2 31.50 -30.99 90.71 <
3 -24 1 -2 35.90 191.07 189.47 <
3 24 1 -1 25.31 -36.61 77.20 <
-3 25 1 2 19.99 132.29 160.79 <
-2 25 1 -2 13.07 -87.74 131.17 <
-2 25 1 -1 2.59 60.13 173.12 <
-2 -25 1 -1 4.14 220.93 195.63 <
-2 25 1 0 72.42 39.16 79.27 <
-2 -25 1 0 64.08 19.08 84.96 <
-2 25 1 1 39.32 14.57 37.68 <
-2 -25 1 1 39.40 19.08 81.64 <
-2 25 1 2 4.86 22.99 72.40 <
-2 -25 1 2 5.33 -111.03 84.96 <
-1 25 1 -2 32.83 19.67 69.02 <
-1 -25 1 -2 29.79 -44.55 108.24 <
-1 25 1 -1 30.45 120.27 106.40 <
-1 -25 1 -1 29.78 309.38 212.16 <
-1 25 1 0 68.23 176.55 95.09 <
-1 -25 1 0 74.74 280.05 172.70 <
-1 25 1 1 155.39 127.32 95.44 <
-1 -25 1 1 149.67 -18.01 79.45 <
-1 25 1 2 21.67 -45.68 84.19 <
-1 -25 1 2 16.99 14.63 77.73 <
0 25 1 -2 30.23 56.99 102.55 <
0 -25 1 -2 30.86 117.37 99.71 <
0 25 1 -1 24.74 104.81 86.44 <
0 -25 1 -1 34.06 -27.85 56.40 <
0 25 1 0 477.37 1000.72 242.73 o
0 -25 1 0 483.00 660.59 201.43 o
0 25 1 1 26.98 183.37 115.23 <
0 -25 1 1 22.43 153.57 99.71 <
0 25 1 2 27.60 -19.31 70.50 <
0 -25 1 2 24.86 185.02 103.74 <
1 25 1 -2 17.02 64.52 88.69 <
1 -25 1 -2 15.48 152.14 96.51 <
1 25 1 -1 60.37 -0.06 69.26 <
1 -25 1 -1 52.26 65.11 113.99 <
1 25 1 0 117.04 17.24 39.58 <
1 -25 1 0 122.06 144.44 102.97 <
1 25 1 1 48.36 133.95 109.72 <
1 -25 1 1 50.53 390.25 222.29 <
1 25 1 2 32.81 -68.25 88.22 <
1 -25 1 2 25.55 38.09 85.73 <
2 25 1 -2 21.86 72.64 55.16 <
2 -25 1 -2 22.70 -13.03 41.29 <
2 25 1 -1 9.38 15.52 60.90 <
2 -25 1 -1 6.90 -83.60 94.79 <
2 25 1 0 70.75 27.61 80.16 <
2 -25 1 0 61.87 92.54 52.91 <
2 25 1 1 11.07 -68.43 37.74 <
-2 26 1 1 2.58 -116.83 128.92 <
-2 26 1 2 46.03 -55.63 178.92 <
-2 -26 1 2 45.38 108.30 139.46 <
-1 26 1 -2 13.79 -152.85 178.57 <
-1 -26 1 -2 14.44 6.64 133.84 <
-1 26 1 -1 11.17 54.39 74.47 <
-1 -26 1 -1 11.36 -110.49 169.03 <
-1 26 1 0 58.04 73.88 50.30 <
-1 -26 1 0 63.37 107.47 124.59 <
-1 26 1 1 120.07 96.63 80.34 <
-1 -26 1 1 109.55 131.64 104.51 <
-1 26 1 2 33.45 -15.11 60.49 <
-1 -26 1 2 39.01 89.76 71.92 <
0 26 1 -2 19.05 5.21 95.98 <
0 -26 1 -2 17.55 87.51 96.27 <
0 26 1 -1 278.64 256.00 117.66 <
0 -26 1 -1 268.08 317.97 144.56 <
0 26 1 0 865.21 1182.01 276.68 o
0 -26 1 0 868.83 850.35 226.38 o
0 26 1 1 25.71 133.95 106.58 <
0 -26 1 1 23.26 121.87 90.59 <
0 26 1 2 26.58 252.98 138.34 <
0 -26 1 2 25.20 63.10 68.25 <
1 26 1 -2 19.21 180.58 96.63 <
1 -26 1 -2 18.67 0.47 90.76 <
1 26 1 -1 26.48 193.50 137.39 <
1 -26 1 -1 25.04 61.85 79.39 <
1 26 1 0 50.43 -9.72 49.11 <
1 -26 1 0 56.28 105.58 89.70 <
1 26 1 1 48.69 -65.53 43.01 <
1 -26 1 1 47.66 -36.08 74.12 <
2 26 1 -2 29.55 101.90 90.11 <
-1 -27 1 1 123.99 151.61 141.77 <
-1 -27 1 2 45.01 -82.53 91.71 <
0 -27 1 -2 31.12 103.68 104.33 <
0 -27 1 -1 215.71 176.73 117.60 <
0 -27 1 0 1.86 68.25 78.20 <
0 -27 1 1 306.82 179.57 118.08 <
1 -27 1 -2 43.07 60.49 90.23 <
1 -27 1 -1 40.42 181.47 142.25 <
1 -27 1 0 140.77 164.82 176.20 <
-6 0 2 -1 330.54 341.91 176.08 <
-6 0 2 0 579.49 270.75 154.75 <
-6 0 2 1 1.99 155.52 118.31 <
-6 0 2 2 396.57 80.16 95.15 <
-5 0 2 -2 76.19 260.50 141.36 <
-5 0 2 -1 476.24 545.12 193.50 <
-5 0 2 0 1647.28 1721.91 233.43 o
-5 0 2 1 441.79 294.27 115.71 <
-5 0 2 2 401.16 224.66 104.86 <
-4 0 2 -2 243.40 -2.07 18.31 <
-4 0 2 -1 579.55 774.70 138.69 o
-4 0 2 0 2099.31 993.61 164.11 o
-4 0 2 1 48.47 56.46 55.28 <
-4 0 2 2 576.59 1061.21 177.85 o
-3 0 2 -2 68.30 230.11 77.73 <
-3 0 2 -1 1841.67 1751.77 193.44 o
-3 0 2 0 7758.15 8880.56 417.98 o
-3 0 2 1 949.99 386.76 107.83 o
-3 0 2 2 216.26 361.52 95.27 o
-2 0 2 -2 1014.77 1291.20 152.26 o
-2 0 2 -1 575.03 676.94 114.05 o
-2 0 2 0 11054.40 11651.40 401.98 o
-2 0 2 1 136.86 133.95 54.98 <
-2 0 2 2 358.10 327.57 80.22 o
-1 0 2 -2 196.17 125.13 32.64 o
-1 0 2 -1 7.37 24.05 20.62 <
-1 0 2 0 25648.20 30049.30 502.70 o
-1 0 2 1 339.86 234.67 55.34 o
-1 0 2 2 2.14 29.98 24.41 <
0 0 2 1 1.76 -48.58 30.81 <
0 0 2 2 19.51 4.50 24.05 <
1 0 2 -2 44.74 8.89 8.06 <
1 0 2 -1 99.13 61.67 23.88 <
1 0 2 0 25560.50 31537.30 433.03 o
1 0 2 1 3430.72 4977.22 252.33 o
1 0 2 2 6.65 20.08 18.84 <
2 0 2 -2 125.66 51.43 21.57 <
2 0 2 -1 171.60 209.43 52.85 o
2 0 2 0 10151.30 11050.00 325.73 o
2 0 2 1 193.08 298.30 69.38 o
2 0 2 2 660.86 1084.14 146.57 o
3 0 2 -2 1107.66 1162.69 130.04 o
3 0 2 -1 685.00 875.18 117.54 o
3 0 2 0 6553.92 7829.01 402.10 o
3 0 2 1 540.23 683.58 130.70 o
3 0 2 2 72.81 72.46 56.40 <
4 0 2 -2 182.81 160.32 61.20 <
4 0 2 -1 97.67 93.61 65.76 <
4 0 2 0 2018.45 1194.21 186.56 o
4 0 2 1 254.77 198.47 88.69 <
4 0 2 2 15.83 78.26 49.65 <
5 0 2 -2 954.74 730.44 178.74 o
5 0 2 -1 150.32 354.64 126.85 <
5 0 2 0 948.68 799.64 191.07 o
5 0 2 1 790.14 1388.89 234.97 o
5 0 2 2 45.64 173.53 83.30 <
6 0 2 -2 83.37 35.25 72.10 <
6 0 2 -1 19.41 91.77 91.59 <
-6 1 2 -1 7.59 81.11 46.92 <
-6 -1 2 -1 14.17 96.81 86.26 <
-6 1 2 0 203.20 156.41 128.38 <
-6 -1 2 0 190.07 148.82 112.39 <
-6 1 2 1 118.27 191.36 152.56 <
-6 -1 2 1 130.54 27.43 44.08 <
-6 1 2 2 33.34 148.05 130.40 <
-6 -1 2 2 32.94 51.25 63.69 <
-5 1 2 -2 38.47 89.28 87.09 <
-5 -1 2 -2 41.96 59.96 74.35 <
-5 1 2 -1 25.45 316.85 155.82 <
-5 -1 2 -1 34.31 188.82 140.83 <
-5 1 2 0 2035.73 1747.15 236.74 o
-5 -1 2 0 1989.55 1756.99 340.42 o
-5 1 2 1 124.30 107.35 76.84 <
-5 -1 2 1 167.41 67.90 56.82 <
-5 1 2 2 23.08 12.92 36.20 <
-5 -1 2 2 19.61 43.49 23.76 <
-4 1 2 -2 40.32 172.05 73.29 <
-4 -1 2 -2 54.00 122.16 68.07 <
-4 1 2 -1 129.27 311.63 98.05 o
-4 -1 2 -1 171.06 200.13 71.81 <
-4 1 2 0 1175.87 963.16 158.90 o
-4 -1 2 0 1110.09 953.32 155.22 o
-4 1 2 1 535.21 558.39 127.44 o
-4 -1 2 1 579.99 682.27 130.81 o
-4 1 2 2 636.27 183.37 90.65 <
-4 -1 2 2 628.44 241.60 96.57 <
-3 1 2 -2 125.21 243.62 77.14 o
-3 -1 2 -2 133.03 201.67 69.50 <
-3 1 2 -1 1021.92 1612.31 184.49 o
-3 -1 2 -1 1073.92 1566.22 176.08 o
-3 1 2 0 22064.40 24349.60 700.22 o
-3 -1 2 0 21856.50 23277.60 658.10 o
-3 1 2 1 686.08 898.34 144.38 o
-3 -1 2 1 819.07 882.70 143.79 o
-3 1 2 2 78.84 229.75 75.54 o
-3 -1 2 2 76.41 160.08 65.17 <
-2 1 2 -2 2195.97 2418.41 160.08 o
-2 -1 2 -2 2124.88 2325.09 194.80 o
-2 1 2 -1 101.95 160.79 37.68 o
-2 -1 2 -1 146.64 225.61 60.67 o
-2 1 2 0 6663.23 7449.72 245.10 o
-2 -1 2 0 6515.30 7652.46 319.93 o
-2 1 2 1 1158.37 1137.46 96.63 o
-2 -1 2 1 1217.22 1182.78 133.36 o
-2 1 2 2 506.69 160.20 43.25 o
-2 -1 2 2 505.64 114.34 53.62 <
-1 1 2 -2 54.84 115.47 34.72 o
-1 -1 2 -2 56.12 119.97 43.07 <
-1 1 2 -1 2535.26 2687.02 118.43 o
-1 -1 2 -1 2543.43 2730.04 161.38 o
-1 1 2 0 110992.00 128894.00 762.43 o
-1 -1 2 0 110192.00 132359.00 1050.78 o
-1 1 2 1 201.78 240.48 41.18 o
-1 -1 2 1 272.96 211.57 53.26 o
-1 1 2 2 293.99 138.22 44.61 o
-1 -1 2 2 283.40 199.07 53.38 o
0 1 2 -2 11.39 12.38 16.23 <
0 -1 2 -2 10.38 22.16 17.54 <
0 1 2 -1 98.69 46.98 22.63 <
0 -1 2 -1 92.16 34.30 16.00 <
0 1 2 0 454.11 326.62 28.32 o
0 -1 2 0 328.52 387.64 42.72 o
0 1 2 1 188.28 209.14 44.38 o
0 -1 2 1 202.62 166.90 53.74 o
0 1 2 2 80.27 52.43 32.88 <
0 -1 2 2 83.10 100.18 54.92 <
1 1 2 -2 40.53 32.41 13.51 <
1 -1 2 -2 45.02 32.94 12.32 <
1 1 2 -1 583.00 363.17 43.90 o
1 -1 2 -1 568.80 356.89 55.87 o
1 1 2 0 109991.00 127206.00 806.21 o
1 -1 2 0 109251.00 128130.00 1005.58 o
1 1 2 1 13038.20 14857.90 312.99 o
1 -1 2 1 13085.90 14476.20 373.54 o
1 1 2 2 121.79 116.65 38.09 o
1 -1 2 2 128.05 117.84 48.58 <
2 1 2 -2 90.62 8.89 12.50 <
2 -1 2 -2 92.72 35.55 20.80 <
2 1 2 -1 536.52 490.38 58.65 o
2 -1 2 -1 580.55 459.27 85.79 o
2 1 2 0 5553.33 6829.24 250.85 o
2 -1 2 0 5441.51 6900.39 315.01 o
2 1 2 1 149.69 149.71 43.43 o
2 -1 2 1 130.32 167.25 46.98 o
2 1 2 2 246.81 296.58 68.61 o
2 -1 2 2 269.66 250.49 77.37 o
3 1 2 -2 82.80 97.99 35.49 <
3 -1 2 -2 105.63 97.28 38.33 <
3 1 2 -1 524.37 482.32 66.95 o
3 -1 2 -1 548.10 531.49 84.96 o
3 1 2 0 23146.30 27011.40 604.19 o
3 -1 2 0 22840.60 27209.80 758.40 o
3 1 2 1 610.48 743.41 133.24 o
3 -1 2 1 635.03 704.55 131.94 o
3 1 2 2 95.53 160.26 68.96 <
3 -1 2 2 101.12 185.97 76.31 <
4 1 2 -2 116.49 4.62 42.83 <
4 -1 2 -2 120.35 38.45 42.48 <
4 1 2 -1 258.62 274.90 75.89 o
4 -1 2 -1 293.98 164.70 68.43 <
4 1 2 0 997.79 1055.93 170.39 o
4 -1 2 0 933.94 1109.79 178.39 o
4 1 2 1 197.26 371.65 103.68 o
4 -1 2 1 208.55 232.89 94.97 <
4 1 2 2 109.31 243.02 83.95 <
4 -1 2 2 119.15 232.18 91.83 <
5 1 2 -2 64.62 26.66 56.16 <
5 -1 2 -2 79.98 52.61 59.48 <
5 1 2 -1 69.63 41.41 67.78 <
5 -1 2 -1 78.68 174.77 82.94 <
5 1 2 0 2238.15 2155.24 282.01 o
5 -1 2 0 2158.03 2182.31 293.98 o
5 1 2 1 34.43 349.49 125.84 <
5 -1 2 1 47.04 326.56 124.24 <
5 1 2 2 52.03 255.82 181.88 <
5 -1 2 2 60.72 103.80 77.67 <
6 1 2 -2 47.54 -24.29 31.10 <
6 -1 2 -2 46.47 -109.96 114.46 <
6 1 2 -1 64.79 55.22 79.69 <
6 -1 2 -1 76.36 16.94 22.28 <
6 -1 2 0 158.62 21.33 48.34 <
-6 2 2 -1 96.05 150.96 97.16 <
-6 -2 2 -1 100.67 92.84 54.74 <
-6 2 2 0 492.50 178.92 77.02 <
-6 -2 2 0 482.69 402.22 195.63 <
-6 2 2 1 43.41 144.20 130.40 <
-6 -2 2 1 54.97 63.87 102.44 <
-6 2 2 2 29.96 181.76 162.93 <
-6 -2 2 2 33.03 157.30 120.86 <
-5 2 2 -2 34.11 58.83 87.45 <
-5 -2 2 -2 34.93 -0.36 42.18 <
-5 2 2 -1 708.96 774.87 166.66 o
-5 -2 2 -1 729.84 748.80 217.31 o
-5 2 2 0 708.52 561.77 139.52 o
-5 -2 2 0 708.09 485.81 170.04 <
-5 2 2 1 19.88 107.29 56.82 <
-5 -2 2 1 14.66 89.28 99.00 <
-5 2 2 2 182.25 265.72 96.81 <
-5 -2 2 2 184.32 175.66 76.55 <
-4 2 2 -2 454.17 601.46 132.41 o
-4 -2 2 -2 436.41 662.01 129.81 o
-4 2 2 -1 70.45 336.69 93.73 o
-4 -2 2 -1 103.21 244.68 67.24 o
-4 2 2 0 1685.36 821.80 147.64 o
-4 -2 2 0 1654.99 745.25 138.93 o
-4 2 2 1 102.27 96.93 47.75 <
-4 -2 2 1 133.05 92.25 54.45 <
-4 2 2 2 306.08 207.36 93.13 <
-4 -2 2 2 312.67 155.93 70.68 <
-3 2 2 -2 32.93 14.87 26.19 <
-3 -2 2 -2 33.78 58.06 40.88 <
-3 2 2 -1 2597.20 4754.10 244.21 o
-3 -2 2 -1 2592.76 4423.87 285.62 o
-3 2 2 0 3895.71 4044.28 222.41 o
-3 -2 2 0 3870.57 3770.51 263.76 o
-3 2 2 1 26.02 45.86 25.12 <
-3 -2 2 1 28.42 112.21 52.73 <
-3 2 2 2 403.73 395.29 78.74 o
-3 -2 2 2 417.26 285.56 90.29 o
-2 2 2 -2 1021.56 586.12 78.80 o
-2 -2 2 -2 1016.15 606.50 106.05 o
-2 2 2 -1 56.06 173.83 38.81 o
-2 -2 2 -1 91.82 113.81 43.07 <
-2 2 2 0 11606.50 12159.60 316.31 o
-2 -2 2 0 11552.70 12536.80 408.62 o
-2 2 2 1 63.69 66.47 32.23 <
-2 -2 2 1 59.14 29.27 30.75 <
-2 2 2 2 195.01 101.72 34.66 <
-2 -2 2 2 197.51 68.01 30.57 <
-1 2 2 -2 9.75 21.80 14.81 <
-1 -2 2 -2 11.96 42.01 24.29 <
-1 2 2 -1 2927.64 2735.49 120.33 o
-1 -2 2 -1 2879.85 2975.61 163.87 o
-1 2 2 0 13274.70 12718.50 243.20 o
-1 -2 2 0 13279.50 14437.90 345.28 o
-1 2 2 1 0.98 7.35 14.16 <
-1 -2 2 1 2.60 23.70 14.16 <
-1 2 2 2 194.68 104.86 37.03 <
-1 -2 2 2 203.91 85.61 32.41 <
0 2 2 -2 11.38 -11.73 7.11 <
0 -2 2 -2 9.61 30.99 24.76 <
0 2 2 -1 9.93 24.53 14.99 <
0 -2 2 -1 8.91 21.45 15.70 <
0 2 2 0 5175.01 4835.51 114.94 o
0 -2 2 0 5103.18 4977.52 148.41 o
0 2 2 1 239.26 162.69 34.66 o
0 -2 2 1 265.97 279.82 72.75 o
0 2 2 2 177.17 114.46 41.65 <
0 -2 2 2 188.23 192.79 73.58 <
1 2 2 -2 6.37 23.58 20.08 <
1 -2 2 -2 5.82 5.33 6.34 <
1 2 2 -1 1600.84 1469.47 77.67 o
1 -2 2 -1 1645.15 1384.27 102.08 o
1 2 2 0 12773.20 12900.50 250.49 o
1 -2 2 0 12802.60 13516.20 333.73 o
1 2 2 1 4063.22 4766.19 176.32 o
1 -2 2 1 4051.23 4863.00 222.88 o
1 2 2 2 15.03 69.55 27.25 <
1 -2 2 2 20.90 38.75 24.11 <
2 2 2 -2 291.43 254.76 46.15 o
2 -2 2 -2 291.78 220.51 50.06 o
2 2 2 -1 269.52 176.32 39.40 o
2 -2 2 -1 368.71 200.01 61.38 o
2 2 2 0 9372.69 10008.80 299.25 o
2 -2 2 0 9325.18 9998.23 382.25 o
2 2 2 1 238.75 444.82 81.17 o
2 -2 2 1 369.35 480.01 103.32 o
2 2 2 2 1236.13 1453.24 138.28 o
2 -2 2 2 1241.73 1485.76 172.52 o
3 2 2 -2 92.11 22.81 21.21 <
3 -2 2 -2 94.63 84.13 39.64 <
3 2 2 -1 310.55 259.55 54.33 o
3 -2 2 -1 294.07 317.56 91.83 o
3 2 2 0 4047.16 4350.52 240.60 o
3 -2 2 0 4047.06 4126.69 300.61 o
3 2 2 1 87.13 217.73 57.05 o
3 -2 2 1 95.22 187.57 61.73 o
3 2 2 2 14.60 36.55 38.09 <
3 -2 2 2 21.08 24.59 28.67 <
4 2 2 -2 204.68 221.99 59.78 o
4 -2 2 -2 202.71 226.44 69.02 o
4 2 2 -1 201.26 158.84 57.41 <
4 -2 2 -1 282.67 272.53 103.62 <
4 2 2 0 1041.84 473.37 112.51 o
4 -2 2 0 1054.23 375.56 113.69 o
4 2 2 1 264.52 557.97 131.29 o
4 -2 2 1 330.20 631.08 147.52 o
4 2 2 2 64.81 175.31 72.64 <
4 -2 2 2 61.79 244.39 84.25 <
5 2 2 -2 172.08 -40.35 37.03 <
5 -2 2 -2 174.65 89.22 65.70 <
5 2 2 -1 36.13 89.70 62.39 <
5 -2 2 -1 39.01 12.80 41.18 <
5 2 2 0 812.87 790.16 174.89 o
5 -2 2 0 810.93 670.19 171.04 o
5 2 2 1 93.22 367.32 129.57 <
5 -2 2 1 87.82 312.34 126.61 <
5 2 2 2 34.22 118.73 139.76 <
5 -2 2 2 40.56 -22.51 23.05 <
6 2 2 -2 237.65 148.77 101.37 <
6 -2 2 -2 238.57 -79.98 24.47 <
6 2 2 -1 36.30 77.02 103.26 <
6 -2 2 -1 54.71 -103.56 75.42 <
6 -2 2 0 304.89 113.28 63.81 <
-6 3 2 -1 16.92 3.26 58.36 <
-6 3 2 0 51.37 19.85 26.66 <
-6 -3 2 0 51.17 -16.65 81.58 <
-6 3 2 1 93.37 225.67 137.92 <
-6 -3 2 1 96.57 -25.36 73.88 <
-6 3 2 2 76.99 32.35 59.90 <
-6 -3 2 2 73.85 218.38 130.64 <
-5 3 2 -2 61.93 172.23 82.23 <
-5 -3 2 -2 62.86 186.74 126.19 <
-5 3 2 -1 121.77 256.42 95.39 <
-5 -3 2 -1 147.25 130.81 102.26 <
-5 3 2 0 429.83 391.14 127.20 o
-5 -3 2 0 459.79 384.86 166.60 <
-5 3 2 1 69.68 228.33 91.65 <
-5 -3 2 1 76.12 153.57 111.14 <
-5 3 2 2 332.96 53.38 54.86 <
-5 -3 2 2 335.19 145.57 113.16 <
-4 3 2 -2 245.11 524.56 129.51 o
-4 -3 2 -2 243.42 514.61 157.59 o
-4 3 2 -1 128.74 216.96 78.44 <
-4 -3 2 -1 101.99 292.91 80.99 o
-4 3 2 0 67.96 122.64 55.39 <
-4 -3 2 0 65.81 183.54 73.58 <
-4 3 2 1 178.88 138.52 57.88 <
-4 -3 2 1 170.67 144.62 70.98 <
-4 3 2 2 111.34 50.71 24.11 <
-4 -3 2 2 103.93 71.39 50.71 <
-3 3 2 -2 139.59 268.92 69.32 o
-3 -3 2 -2 136.15 257.24 77.55 o
-3 3 2 -1 521.06 419.93 77.32 o
-3 -3 2 -1 594.31 500.03 101.01 o
-3 3 2 0 1596.86 1422.84 134.13 o
-3 -3 2 0 1666.45 1367.92 156.88 o
-3 3 2 1 669.89 718.12 96.75 o
-3 -3 2 1 689.58 742.53 127.85 o
-3 3 2 2 463.06 406.48 79.74 o
-3 -3 2 2 447.76 383.32 96.10 o
-2 3 2 -2 1587.48 1659.11 131.47 o
-2 -3 2 -2 1591.40 1644.60 160.50 o
-2 3 2 -1 550.41 497.01 73.94 o
-2 -3 2 -1 489.94 416.20 81.70 o
-2 3 2 0 6843.59 6940.09 239.12 o
-2 -3 2 0 6849.85 7591.85 317.14 o
-2 3 2 1 333.06 440.85 63.04 o
-2 -3 2 1 273.50 501.87 92.72 o
-2 3 2 2 103.00 6.69 18.96 <
-2 -3 2 2 109.07 34.90 33.83 <
-1 3 2 -2 239.68 188.93 38.15 o
-1 -3 2 -2 237.80 159.07 55.75 <
-1 3 2 -1 855.92 1448.38 95.39 o
-1 -3 2 -1 832.76 1721.91 130.16 o
-1 3 2 0 4883.22 5031.73 194.15 o
-1 -3 2 0 4940.72 4991.74 205.29 o
-1 3 2 1 239.69 98.05 23.94 o
-1 -3 2 1 277.12 120.21 49.77 <
-1 3 2 2 198.48 55.45 26.48 <
-1 -3 2 2 191.72 37.38 39.04 <
0 3 2 -2 34.55 48.40 21.51 <
0 -3 2 -2 36.59 10.07 19.20 <
0 3 2 -1 119.34 121.16 27.85 o
0 -3 2 -1 119.66 120.33 27.55 o
0 3 2 0 1610.92 1571.67 92.30 o
0 -3 2 0 1754.57 1948.59 101.07 o
0 3 2 1 358.77 297.89 45.68 o
0 -3 2 1 349.01 326.44 44.73 o
0 3 2 2 123.69 81.34 30.87 <
0 -3 2 2 122.52 80.34 44.26 <
1 3 2 -2 40.46 39.28 24.29 <
1 -3 2 -2 44.85 15.64 22.87 <
1 3 2 -1 483.03 314.42 58.95 o
1 -3 2 -1 471.20 312.34 59.19 o
1 3 2 0 4653.77 4548.58 209.08 o
1 -3 2 0 4691.42 4821.70 214.29 o
1 3 2 1 214.24 163.04 62.03 <
1 -3 2 1 207.20 197.94 61.56 o
1 3 2 2 127.04 80.16 31.76 <
1 -3 2 2 123.82 69.67 40.94 <
2 3 2 -2 304.07 10.66 14.46 <
2 -3 2 -2 302.15 43.13 33.71 <
2 3 2 -1 94.03 70.92 27.08 <
2 -3 2 -1 88.01 105.93 47.57 <
2 3 2 0 4946.53 5830.77 230.35 o
2 -3 2 0 4848.91 5630.05 292.26 o
2 3 2 1 231.27 389.18 73.05 o
2 -3 2 1 274.72 370.23 81.17 o
2 3 2 2 818.62 641.33 94.67 o
2 -3 2 2 772.70 551.04 116.30 o
3 3 2 -2 68.12 -2.55 20.20 <
3 -3 2 -2 63.22 79.69 44.08 <
3 3 2 -1 643.09 494.40 75.42 o
3 -3 2 -1 647.90 590.38 127.97 o
3 3 2 0 1983.46 2175.26 166.24 o
3 -3 2 0 2058.10 2161.22 215.30 o
3 3 2 1 22.89 136.38 53.08 <
3 -3 2 1 21.05 137.98 63.22 <
3 3 2 2 89.35 186.74 57.29 o
3 -3 2 2 77.92 103.56 65.53 <
4 3 2 -2 447.01 340.37 74.12 o
4 -3 2 -2 430.02 275.85 79.27 o
4 3 2 -1 105.22 107.18 44.38 <
4 -3 2 -1 95.46 100.60 72.58 <
4 3 2 0 93.92 -9.95 31.34 <
4 -3 2 0 51.86 103.44 53.08 <
4 3 2 1 64.98 214.59 79.51 <
4 -3 2 1 85.01 336.57 106.70 o
4 3 2 2 91.33 28.62 40.94 <
4 -3 2 2 107.05 59.60 71.45 <
5 3 2 -2 9.21 64.40 51.60 <
5 -3 2 -2 7.28 16.65 70.50 <
5 3 2 -1 222.36 329.88 119.02 <
5 -3 2 -1 235.66 333.26 118.14 <
5 3 2 0 577.70 699.87 160.91 o
5 -3 2 0 612.76 547.25 150.19 o
5 3 2 1 27.52 139.76 42.36 o
5 -3 2 1 32.94 155.22 103.50 <
5 3 2 2 22.16 402.87 207.12 <
5 -3 2 2 18.58 165.77 96.57 <
6 3 2 -2 16.83 -30.27 57.82 <
6 -3 2 -2 12.23 -12.15 27.96 <
6 3 2 -1 54.68 128.27 99.65 <
6 -3 2 -1 54.80 -80.34 72.99 <
6 -3 2 0 153.91 -7.94 53.97 <
-6 -4 2 0 81.44 70.27 48.29 <
-6 -4 2 1 41.98 193.08 134.96 <
-6 4 2 2 159.29 -31.99 38.87 <
-6 -4 2 2 154.56 -22.16 39.52 <
-5 4 2 -2 132.40 163.58 89.16 <
-5 -4 2 -2 128.64 56.58 88.16 <
-5 4 2 -1 208.54 133.42 84.13 <
-5 4 2 0 147.68 19.43 59.07 <
-5 -4 2 0 153.88 17.36 45.56 <
-5 4 2 1 396.77 377.51 115.35 o
-5 -4 2 1 389.56 303.69 159.01 <
-5 4 2 2 214.02 47.69 69.55 <
-5 -4 2 2 217.67 41.77 43.72 <
-4 4 2 -2 72.76 69.44 49.77 <
-4 -4 2 -2 75.18 121.04 93.61 <
-4 4 2 -1 1048.93 1152.86 141.89 o
-4 -4 2 -1 959.52 1202.98 249.30 o
-4 4 2 0 72.39 38.09 38.33 <
-4 -4 2 0 84.00 51.19 38.15 <
-4 4 2 1 219.94 81.88 43.07 <
-4 -4 2 1 198.87 14.87 36.20 <
-4 4 2 2 210.95 167.43 61.97 <
-4 -4 2 2 204.12 98.58 53.74 <
-3 4 2 -2 191.90 134.37 44.85 <
-3 -4 2 -2 172.52 81.64 48.82 <
-3 4 2 -1 323.72 296.94 67.84 o
-3 -4 2 -1 376.07 319.21 80.51 o
-3 4 2 0 260.36 100.89 31.99 o
-3 -4 2 0 269.29 210.56 57.59 o
-3 4 2 1 1173.72 878.61 107.77 o
-3 -4 2 1 1134.32 788.32 129.69 o
-3 4 2 2 92.88 90.05 38.27 <
-3 -4 2 2 99.53 99.30 58.59 <
-2 4 2 -2 397.48 261.21 50.54 o
-2 -4 2 -2 386.03 306.48 66.65 o
-2 4 2 -1 841.86 683.93 84.48 o
-2 -4 2 -1 705.85 690.33 100.36 o
-2 4 2 0 3239.84 3217.86 164.70 o
-2 -4 2 0 3288.51 3499.93 214.59 o
-2 4 2 1 498.51 285.27 61.91 o
-2 -4 2 1 471.36 346.05 75.60 o
-2 4 2 2 144.32 44.85 26.25 <
-2 -4 2 2 128.80 27.73 35.37 <
-1 4 2 -2 173.16 187.93 49.23 o
-1 -4 2 -2 151.98 118.85 43.72 <
-1 4 2 -1 1126.08 1309.56 118.31 o
-1 -4 2 -1 1183.47 1497.85 125.01 o
-1 4 2 0 536.90 604.90 76.96 o
-1 -4 2 0 557.31 579.01 105.87 o
-1 4 2 1 122.42 53.14 20.85 <
-1 -4 2 1 120.60 59.48 42.36 <
-1 4 2 2 30.72 36.79 26.66 <
-1 -4 2 2 32.95 39.93 31.58 <
0 4 2 -2 39.44 12.80 15.40 <
0 -4 2 -2 40.37 54.33 40.41 <
0 4 2 -1 243.68 98.47 33.89 <
0 -4 2 -1 218.77 149.48 30.10 o
0 4 2 0 8473.93 8060.24 223.89 o
0 -4 2 0 8389.84 8392.91 206.65 o
0 4 2 1 557.16 545.30 63.22 o
0 -4 2 1 548.71 591.80 62.80 o
0 4 2 2 61.55 19.73 11.73 <
0 -4 2 2 55.62 37.62 25.53 <
1 4 2 -2 23.40 58.89 23.64 <
1 -4 2 -2 21.03 19.25 20.97 <
1 4 2 -1 437.85 484.51 67.18 o
1 -4 2 -1 427.80 458.56 77.97 o
1 4 2 0 367.17 254.16 38.09 o
1 -4 2 0 397.45 316.90 58.89 o
1 4 2 1 2707.63 3105.83 197.23 o
1 -4 2 1 2746.98 3235.88 205.40 o
1 4 2 2 4.27 3.44 28.50 <
1 -4 2 2 4.49 65.17 53.56 <
2 4 2 -2 842.65 847.69 78.38 o
2 -4 2 -2 851.79 699.22 98.11 o
2 4 2 -1 689.08 496.30 63.33 o
2 -4 2 -1 721.05 425.15 84.13 o
2 4 2 0 4102.23 4831.89 212.69 o
2 -4 2 0 4169.59 4671.52 268.50 o
2 4 2 1 647.53 863.27 101.90 o
2 -4 2 1 640.91 744.07 122.82 o
2 4 2 2 3155.70 3347.49 203.86 o
2 -4 2 2 3133.64 3432.63 266.55 o
3 4 2 -2 22.59 23.64 22.63 <
3 -4 2 -2 18.59 52.31 16.71 o
3 4 2 -1 762.53 522.55 70.74 o
3 -4 2 -1 755.61 758.70 134.78 o
3 4 2 0 173.75 56.11 23.52 <
3 -4 2 0 189.86 -27.79 26.25 <
3 4 2 1 1836.23 1650.58 149.83 o
3 -4 2 1 1847.89 1668.77 198.71 o
3 4 2 2 30.49 68.90 40.46 <
3 -4 2 2 29.08 49.59 62.15 <
4 4 2 -2 871.45 982.77 115.59 o
4 -4 2 -2 858.47 914.93 186.33 o
4 4 2 -1 327.58 222.35 56.28 o
4 -4 2 -1 342.64 332.01 113.04 <
4 4 2 0 74.39 154.04 60.67 <
4 -4 2 0 78.19 81.40 55.28 <
4 4 2 1 252.20 496.54 96.45 o
4 -4 2 1 236.81 415.43 125.66 o
4 4 2 2 489.80 732.75 122.46 o
4 -4 2 2 492.35 748.39 156.88 o
5 4 2 -2 7.00 16.47 42.83 <
5 -4 2 -2 7.75 64.93 83.30 <
5 4 2 -1 218.54 59.07 46.69 <
5 -4 2 -1 223.85 55.57 51.48 <
5 4 2 0 77.94 47.69 45.20 <
5 -4 2 0 86.15 75.89 34.07 <
5 4 2 1 759.82 612.48 227.92 <
5 -4 2 1 768.34 584.10 149.65 o
5 4 2 2 19.87 14.63 45.44 <
5 -4 2 2 20.34 195.33 90.41 <
6 4 2 -2 343.51 -8.06 47.10 <
6 -4 2 -2 324.07 57.65 59.01 <
6 -4 2 -1 104.13 14.10 29.33 <
6 -4 2 0 81.94 26.78 69.97 <
-6 -5 2 0 940.41 568.64 205.70 <
-6 5 2 1 84.85 -15.76 50.42 <
-6 -5 2 1 93.64 128.98 53.14 <
-6 5 2 2 69.28 93.96 84.72 <
-6 -5 2 2 61.75 49.94 81.23 <
-5 5 2 -2 13.05 -56.64 86.08 <
-5 -5 2 -2 13.28 62.56 59.78 <
-5 5 2 -1 205.53 637.60 226.08 <
-5 -5 2 -1 245.02 492.09 185.26 <
-5 5 2 0 78.74 -38.98 63.39 <
-5 -5 2 0 72.75 54.68 41.83 <
-5 5 2 1 274.68 344.45 107.83 o
-5 -5 2 1 286.69 496.06 211.15 <
-5 5 2 2 31.35 37.62 53.91 <
-5 -5 2 2 46.38 123.41 96.27 <
-4 5 2 -2 147.73 81.40 38.75 <
-4 -5 2 -2 153.26 200.78 103.09 <
-4 5 2 -1 474.69 552.29 97.64 o
-4 -5 2 -1 456.14 662.42 185.91 o
-4 5 2 0 9534.31 8781.56 386.58 o
-4 -5 2 0 9422.60 9250.43 703.54 o
-4 5 2 1 475.95 649.57 107.06 o
-4 -5 2 1 521.54 518.93 118.19 o
-4 5 2 2 262.91 352.39 92.25 o
-4 -5 2 2 250.08 288.76 92.54 o
-3 5 2 -2 25.31 -3.02 23.99 <
-3 -5 2 -2 21.85 39.69 36.44 <
-3 5 2 -1 176.92 448.85 77.97 o
-3 -5 2 -1 229.30 405.71 86.56 o
-3 5 2 0 105.56 75.54 32.59 <
-3 -5 2 0 100.14 100.18 42.06 <
-3 5 2 1 1368.11 1487.12 140.89 o
-3 -5 2 1 1372.63 1508.27 171.57 o
-3 5 2 2 60.94 49.11 32.70 <
-3 -5 2 2 76.90 9.12 24.47 <
-2 5 2 -2 438.39 360.45 63.93 o
-2 -5 2 -2 419.49 345.99 75.72 o
-2 5 2 -1 1244.61 1379.89 142.96 o
-2 -5 2 -1 1204.72 1582.33 149.30 o
-2 5 2 0 64462.80 64608.20 929.56 o
-2 -5 2 0 64144.30 66680.60 948.34 o
-2 5 2 1 764.72 722.15 102.67 o
-2 -5 2 1 835.98 686.12 106.94 o
-2 5 2 2 516.70 601.22 99.12 o
-2 -5 2 2 532.31 538.42 92.42 o
-1 5 2 -2 8.94 31.58 29.62 <
-1 -5 2 -2 9.80 19.43 22.87 <
-1 5 2 -1 1607.78 1914.34 154.28 o
-1 -5 2 -1 1611.94 1765.58 224.84 o
-1 5 2 0 481.55 633.10 87.62 o
-1 -5 2 0 500.61 633.51 122.64 o
-1 5 2 1 465.90 439.66 63.04 o
-1 -5 2 1 450.65 414.72 105.64 o
-1 5 2 2 7.23 37.27 21.45 <
-1 -5 2 2 6.90 -5.57 20.26 <
0 5 2 -2 29.01 34.48 23.17 <
0 -5 2 -2 27.20 58.83 41.35 <
0 5 2 -1 511.46 413.59 62.74 o
0 -5 2 -1 511.33 472.13 60.19 o
0 5 2 0 105239.00 100351.00 868.13 o
0 -5 2 0 105181.00 100255.00 1011.80 o
0 5 2 1 23.22 32.47 17.48 <
0 -5 2 1 17.16 25.77 16.71 <
0 5 2 2 92.00 116.89 30.04 o
0 -5 2 2 101.92 65.23 30.45 <
1 5 2 -2 210.72 163.22 35.25 o
1 -5 2 -2 221.15 51.07 22.99 <
1 5 2 -1 340.29 390.84 66.24 o
1 -5 2 -1 365.18 386.81 69.32 o
1 5 2 0 701.15 739.86 90.53 o
1 -5 2 0 728.95 796.50 97.70 o
1 5 2 1 1075.94 1052.02 83.54 o
1 -5 2 1 1092.94 1279.70 132.59 o
1 5 2 2 91.32 3.08 13.74 <
1 -5 2 2 94.97 2.01 44.79 <
2 5 2 -2 221.39 18.84 17.30 <
2 -5 2 -2 222.74 -2.13 26.84 <
2 5 2 -1 53.41 68.78 38.39 <
2 -5 2 -1 46.82 65.23 35.13 <
2 5 2 0 66468.20 71456.70 1484.28 o
2 -5 2 0 66475.80 70949.00 1469.82 o
2 5 2 1 263.57 365.37 88.57 o
2 -5 2 1 276.67 259.02 75.95 o
2 5 2 2 677.18 327.57 90.65 o
2 -5 2 2 670.46 213.46 76.78 <
3 5 2 -2 345.56 271.29 55.16 o
3 -5 2 -2 353.54 272.47 96.51 <
3 5 2 -1 598.19 110.61 26.36 o
3 -5 2 -1 660.51 247.82 79.98 o
3 5 2 0 199.78 301.98 62.15 o
3 -5 2 0 226.45 340.19 90.53 o
3 5 2 1 430.06 406.07 78.26 o
3 -5 2 1 443.23 494.94 111.97 o
3 5 2 2 67.88 99.30 40.94 <
3 -5 2 2 65.31 122.46 69.61 <
4 5 2 -2 277.13 400.38 79.63 o
4 -5 2 -2 291.95 489.31 142.96 o
4 5 2 -1 136.15 166.24 53.56 o
4 -5 2 -1 112.41 198.00 89.52 <
4 5 2 0 11240.90 11141.50 433.32 o
4 -5 2 0 11129.50 11535.70 595.71 o
4 5 2 1 311.54 471.48 92.01 o
4 -5 2 1 329.64 530.60 141.95 o
4 5 2 2 388.54 351.92 90.23 o
4 -5 2 2 397.70 290.54 93.79 o
5 5 2 -2 175.72 74.29 46.69 <
5 -5 2 -2 177.32 224.54 87.15 <
5 5 2 -1 349.87 161.38 70.62 <
5 -5 2 -1 395.11 70.68 51.19 <
5 5 2 0 27.86 1.78 37.09 <
5 -5 2 0 34.27 26.07 30.75 <
5 5 2 1 77.34 83.36 16.77 o
5 -5 2 1 75.34 113.51 71.63 <
5 5 2 2 11.56 61.08 93.25 <
5 -5 2 2 9.31 19.79 30.69 <
6 -5 2 -2 39.06 0.30 55.39 <
6 -5 2 -1 56.80 52.08 58.30 <
6 -5 2 0 1269.40 780.03 241.37 o
-6 6 2 0 64.57 228.69 155.99 <
-6 6 2 1 32.55 134.13 142.54 <
-6 -6 2 1 31.79 -22.81 50.89 <
-6 6 2 2 267.11 44.32 64.76 <
-6 -6 2 2 273.29 32.35 25.71 <
-5 6 2 -2 18.26 162.69 129.45 <
-5 -6 2 -2 18.66 310.51 147.58 <
-5 6 2 -1 481.47 525.74 201.49 <
-5 -6 2 -1 536.21 597.85 201.55 <
-5 6 2 0 58.20 145.39 71.81 <
-5 -6 2 0 59.30 296.29 160.38 <
-5 6 2 1 79.59 47.69 94.79 <
-5 -6 2 1 96.71 121.93 132.06 <
-5 6 2 2 150.27 58.18 31.46 <
-5 -6 2 2 170.75 29.68 81.46 <
-4 6 2 -2 40.36 74.12 53.32 <
-4 -6 2 -2 40.79 158.72 82.29 <
-4 6 2 -1 1272.38 1103.80 171.93 o
-4 -6 2 -1 1247.93 1433.27 275.67 o
-4 6 2 0 516.32 803.31 143.73 o
-4 -6 2 0 504.19 814.63 222.47 o
-4 6 2 1 79.45 106.35 56.52 <
-4 -6 2 1 82.19 237.99 154.34 <
-4 6 2 2 496.89 364.06 106.88 o
-4 -6 2 2 506.38 484.63 120.15 o
-3 6 2 -2 59.65 15.29 20.68 <
-3 -6 2 -2 49.17 57.82 39.28 <
-3 6 2 -1 567.97 629.25 115.35 o
-3 -6 2 -1 652.02 686.06 108.83 o
-3 6 2 0 447.07 687.07 114.70 o
-3 -6 2 0 458.71 647.73 107.29 o
-3 6 2 1 300.13 135.20 58.42 <
-3 -6 2 1 327.10 169.92 62.80 <
-3 6 2 2 258.75 12.68 27.31 <
-3 -6 2 2 275.21 70.80 50.60 <
-2 6 2 -2 1450.89 1121.40 138.46 o
-2 -6 2 -2 1469.48 1005.81 133.12 o
-2 6 2 -1 4399.90 5621.81 301.62 o
-2 -6 2 -1 4351.99 5525.36 281.83 o
-2 6 2 0 59.11 9.78 21.15 <
-2 -6 2 0 65.17 83.00 46.80 <
-2 6 2 1 131.22 64.81 30.10 <
-2 -6 2 1 150.79 137.45 54.80 <
-2 6 2 2 789.86 827.25 119.32 o
-2 -6 2 2 795.86 728.96 109.72 o
-1 6 2 -2 5.02 12.15 34.84 <
-1 -6 2 -2 4.54 33.95 33.36 <
-1 6 2 -1 10022.00 11959.00 409.68 o
-1 -6 2 -1 10021.40 12648.10 586.18 o
-1 6 2 0 644.67 553.35 87.62 o
-1 -6 2 0 679.82 587.48 127.20 o
-1 6 2 1 61.53 100.66 33.36 o
-1 -6 2 1 56.07 123.23 62.39 <
-1 6 2 2 18.46 26.90 25.83 <
-1 -6 2 2 16.01 25.36 29.15 <
0 6 2 -2 90.13 26.66 18.43 <
0 -6 2 -2 89.52 35.19 47.93 <
0 6 2 -1 4065.83 4268.47 204.04 o
0 -6 2 -1 4107.23 3914.53 172.05 o
0 6 2 0 9978.10 9471.53 288.41 o
0 -6 2 0 10034.50 10189.70 277.21 o
0 6 2 1 829.81 683.93 80.22 o
0 -6 2 1 824.04 624.69 75.66 o
0 6 2 2 260.67 154.63 42.36 o
0 -6 2 2 226.37 100.78 60.61 <
1 6 2 -2 65.54 79.74 22.16 o
1 -6 2 -2 58.62 22.28 28.26 <
1 6 2 -1 793.91 584.16 59.84 o
1 -6 2 -1 825.30 394.40 59.36 o
1 6 2 0 884.72 541.51 82.47 o
1 -6 2 0 927.37 648.86 95.15 o
1 6 2 1 3629.28 3609.30 215.77 o
1 -6 2 1 3781.17 3506.63 228.21 o
1 6 2 2 28.11 24.94 12.50 <
1 -6 2 2 31.98 78.03 44.97 <
2 6 2 -2 328.86 33.00 28.85 <
2 -6 2 -2 335.30 77.08 37.74 <
2 6 2 -1 461.99 487.06 77.20 o
2 -6 2 -1 496.99 484.15 95.15 o
2 6 2 0 201.57 93.07 56.22 <
2 -6 2 0 173.57 149.12 61.26 <
2 6 2 1 720.16 659.11 112.68 o
2 -6 2 1 674.53 706.86 119.79 o
2 6 2 2 588.69 423.78 103.98 o
2 -6 2 2 548.56 434.39 107.83 o
3 6 2 -2 196.42 210.50 61.50 o
3 -6 2 -2 198.56 178.09 73.46 <
3 6 2 -1 1254.72 1367.74 144.20 o
3 -6 2 -1 1337.84 1326.63 178.62 o
3 6 2 0 689.47 883.23 145.80 o
3 -6 2 0 712.83 1033.12 165.41 o
3 6 2 1 78.82 216.25 82.41 <
3 -6 2 1 146.29 119.74 71.63 <
3 6 2 2 204.12 328.46 100.60 o
3 -6 2 2 193.09 441.38 111.74 o
4 6 2 -2 582.21 152.74 57.29 <
4 -6 2 -2 602.58 152.50 83.71 <
4 6 2 -1 42.07 80.46 38.33 <
4 -6 2 -1 53.56 94.97 57.65 <
4 6 2 0 184.46 737.25 145.74 o
4 -6 2 0 184.53 547.67 142.96 o
4 6 2 1 549.73 472.84 124.83 o
4 -6 2 1 521.45 453.52 121.39 o
4 6 2 2 377.64 622.55 144.38 o
4 -6 2 2 385.48 710.24 163.87 o
5 6 2 -2 210.38 130.87 66.41 <
5 -6 2 -2 225.41 207.06 103.03 <
5 6 2 -1 567.90 548.02 140.41 o
5 -6 2 -1 608.08 555.55 150.84 o
5 6 2 0 107.47 145.39 73.05 <
5 -6 2 0 110.21 243.91 163.04 <
5 6 2 1 148.63 274.37 120.33 <
5 -6 2 1 197.70 247.35 100.01 <
5 6 2 2 77.61 74.89 84.19 <
5 -6 2 2 74.52 83.48 58.83 <
6 -6 2 -2 156.36 274.78 141.54 <
6 -6 2 -1 38.94 50.00 68.07 <
6 -6 2 0 14.41 1.42 64.10 <
6 -6 2 1 284.28 84.90 66.77 <
-6 7 2 0 7.52 146.99 122.64 <
-6 7 2 1 74.30 47.57 76.19 <
-6 -7 2 1 69.13 180.76 117.48 <
-6 7 2 2 161.61 98.53 113.99 <
-6 -7 2 2 160.37 107.24 91.53 <
-5 7 2 -2 31.62 69.38 71.86 <
-5 -7 2 -2 34.74 121.99 110.43 <
-5 7 2 -1 19.73 141.83 126.55 <
-5 -7 2 -1 20.70 218.91 142.43 <
-5 7 2 0 976.26 753.54 236.09 o
-5 -7 2 0 974.96 788.91 245.16 o
-5 7 2 1 114.56 90.82 83.36 <
-5 -7 2 1 118.00 164.70 100.84 <
-5 7 2 2 155.09 304.29 148.65 <
-5 -7 2 2 151.26 189.41 119.62 <
-4 7 2 -2 89.53 166.18 70.86 <
-4 -7 2 -2 87.28 149.30 109.25 <
-4 7 2 -1 224.52 98.58 39.16 <
-4 -7 2 -1 237.06 173.41 132.18 <
-4 7 2 0 94.23 233.60 84.19 <
-4 -7 2 0 88.41 206.06 131.47 <
-4 7 2 1 240.27 53.79 54.74 <
-4 -7 2 1 228.07 100.01 82.77 <
-4 7 2 2 774.95 413.24 119.97 o
-4 -7 2 2 780.61 469.64 185.56 <
-3 7 2 -2 21.51 36.91 21.27 <
-3 -7 2 -2 26.05 72.87 87.03 <
-3 7 2 -1 786.04 1092.43 153.45 o
-3 -7 2 -1 783.80 1038.58 137.75 o
-3 7 2 0 2733.30 2451.58 224.24 o
-3 -7 2 0 2835.90 2470.60 217.85 o
-3 7 2 1 268.85 265.89 81.76 o
-3 -7 2 1 243.47 193.44 64.40 o
-3 7 2 2 305.69 149.65 66.89 <
-3 -7 2 2 296.18 112.86 46.69 <
-2 7 2 -2 1901.09 2227.87 211.74 o
-2 -7 2 -2 1899.70 1745.14 176.49 o
-2 7 2 -1 271.59 199.18 57.65 o
-2 -7 2 -1 290.86 195.87 41.71 o
-2 7 2 0 181.49 92.19 44.20 <
-2 -7 2 0 153.10 140.65 51.60 <
-2 7 2 1 303.77 75.42 45.26 <
-2 -7 2 1 289.59 52.91 23.82 <
-2 7 2 2 921.29 747.80 118.96 o
-2 -7 2 2 920.84 559.46 103.92 o
-1 7 2 -2 100.47 61.08 45.80 <
-1 -7 2 -2 97.47 5.81 25.71 <
-1 7 2 -1 891.55 1580.44 168.79 o
-1 -7 2 -1 910.13 1618.77 228.81 o
-1 7 2 0 3904.24 4269.77 204.57 o
-1 -7 2 0 4418.77 4226.76 345.34 o
-1 7 2 1 39.91 45.62 28.20 <
-1 -7 2 1 33.77 56.11 26.19 <
-1 7 2 2 224.73 168.97 46.74 o
-1 -7 2 2 216.23 192.49 49.11 o
0 7 2 -2 206.57 116.06 42.66 <
0 -7 2 -2 205.06 132.24 77.02 <
0 7 2 -1 27.58 81.82 27.08 o
0 -7 2 -1 20.49 94.85 35.90 <
0 7 2 0 6356.46 5842.39 247.94 o
0 -7 2 0 6412.87 5941.80 227.38 o
0 7 2 1 162.62 113.69 43.96 <
0 -7 2 1 176.59 100.66 44.26 <
0 7 2 2 82.19 54.09 31.81 <
0 -7 2 2 92.00 56.11 38.87 <
1 7 2 -2 69.91 59.78 21.21 <
1 -7 2 -2 68.41 15.23 15.76 <
1 7 2 -1 470.21 384.92 52.85 o
1 -7 2 -1 465.09 281.65 85.02 o
1 7 2 0 4371.37 4366.40 226.55 o
1 -7 2 0 4725.98 4409.53 254.64 o
1 7 2 1 6731.49 6731.66 300.85 o
1 -7 2 1 6706.41 6905.37 329.23 o
1 7 2 2 286.40 179.46 58.95 o
1 -7 2 2 291.28 190.71 70.62 <
2 7 2 -2 284.16 30.16 33.77 <
2 -7 2 -2 282.65 52.85 44.91 <
2 7 2 -1 411.81 361.69 85.43 o
2 -7 2 -1 397.01 445.64 103.32 o
2 7 2 0 49.78 36.73 46.45 <
2 -7 2 0 43.44 110.26 52.49 <
2 7 2 1 80.08 97.28 40.41 <
2 -7 2 1 74.94 146.75 97.46 <
2 7 2 2 66.87 82.83 50.71 <
2 -7 2 2 71.79 81.05 52.61 <
3 7 2 -2 209.74 292.97 71.09 o
3 -7 2 -2 209.99 192.96 82.94 <
3 7 2 -1 264.99 108.42 45.38 <
3 -7 2 -1 262.70 117.96 62.80 <
3 7 2 0 3314.72 3411.54 287.10 o
3 -7 2 0 3375.87 3242.22 287.22 o
3 7 2 1 101.52 117.19 64.64 <
3 -7 2 1 102.79 177.20 78.26 <
3 7 2 2 30.93 0.53 32.47 <
3 -7 2 2 36.11 41.77 46.21 <
4 7 2 -2 295.44 161.74 59.07 <
4 -7 2 -2 284.72 60.19 53.02 <
4 7 2 -1 466.10 185.74 80.75 <
4 -7 2 -1 462.81 276.50 107.06 <
4 7 2 0 53.47 82.06 65.82 <
4 -7 2 0 50.89 189.35 83.83 <
4 7 2 1 42.22 98.58 62.62 <
4 -7 2 1 41.03 200.78 92.19 <
4 7 2 2 37.21 45.38 27.31 <
4 -7 2 2 39.52 -1.24 40.29 <
5 7 2 -2 52.30 136.86 82.94 <
5 -7 2 -2 54.82 69.67 93.19 <
5 7 2 -1 24.46 -25.18 55.87 <
5 -7 2 -1 25.52 -18.01 28.08 <
5 7 2 0 1303.92 922.45 183.13 o
5 -7 2 0 1301.08 959.84 193.50 o
5 7 2 1 294.92 733.52 168.49 o
5 -7 2 1 309.93 617.22 154.87 o
5 7 2 2 17.58 260.62 164.70 <
5 -7 2 2 18.36 72.58 68.78 <
6 -7 2 -2 52.09 44.85 81.64 <
6 -7 2 -1 191.38 106.58 92.25 <
6 -7 2 0 3.12 147.34 125.13 <
-6 8 2 0 125.64 379.59 209.26 <
-6 8 2 1 175.10 31.87 110.02 <
-6 -8 2 1 172.54 -94.20 90.65 <
-6 8 2 2 80.01 16.94 80.93 <
-6 -8 2 2 69.72 -52.97 91.65 <
-5 8 2 -2 81.12 405.18 185.44 <
-5 -8 2 -2 65.95 167.49 113.63 <
-5 8 2 -1 454.07 549.03 201.32 <
-5 -8 2 -1 453.57 731.09 224.60 o
-5 8 2 0 687.82 578.71 217.49 <
-5 -8 2 0 694.94 819.31 238.05 o
-5 8 2 1 31.51 19.97 45.74 <
-5 -8 2 1 38.04 184.96 139.29 <
-5 8 2 2 180.09 102.08 105.04 <
-5 -8 2 2 171.06 78.68 76.07 <
-4 8 2 -2 274.69 311.81 97.64 o
-4 -8 2 -2 269.01 378.17 170.27 <
-4 8 2 -1 955.70 809.65 148.53 o
-4 -8 2 -1 919.51 654.19 207.54 o
-4 8 2 0 1166.56 2181.42 242.85 o
-4 -8 2 0 1163.33 2529.67 390.13 o
-4 8 2 1 799.84 431.37 107.77 o
-4 -8 2 1 755.37 531.73 179.16 <
-4 8 2 2 555.98 200.37 90.35 <
-4 -8 2 2 559.82 184.67 104.69 <
-3 8 2 -2 339.45 456.67 112.92 o
-3 -8 2 -2 313.26 518.93 168.20 o
-3 8 2 -1 200.49 281.71 85.02 o
-3 -8 2 -1 120.32 547.90 163.22 o
-3 8 2 0 3139.13 2906.47 252.39 o
-3 -8 2 0 3133.65 2511.66 221.04 o
-3 8 2 1 106.09 96.27 41.35 <
-3 -8 2 1 119.52 91.95 51.54 <
-3 8 2 2 201.14 99.89 52.20 <
-3 -8 2 2 174.24 141.71 58.83 <
-2 8 2 -2 635.26 491.15 107.59 o
-2 -8 2 -2 607.88 367.86 81.11 o
-2 8 2 -1 1948.77 2384.52 220.93 o
-2 -8 2 -1 1899.84 2148.07 185.91 o
-2 8 2 0 3222.06 4189.49 285.62 o
-2 -8 2 0 3220.65 3848.30 251.85 o
-2 8 2 1 636.15 721.08 120.86 o
-2 -8 2 1 586.48 465.49 92.25 o
-2 8 2 2 404.08 93.31 50.06 <
-2 -8 2 2 397.75 133.84 88.34 <
-1 8 2 -2 459.54 491.44 100.84 o
-1 -8 2 -2 454.32 664.62 160.85 o
-1 8 2 -1 1117.25 1029.45 134.90 o
-1 -8 2 -1 1092.11 1200.02 204.16 o
-1 8 2 0 6125.10 5950.80 253.22 o
-1 -8 2 0 6099.41 6414.88 443.75 o
-1 8 2 1 131.12 136.15 41.77 o
-1 -8 2 1 130.97 149.00 48.82 o
-1 8 2 2 108.49 114.29 39.52 <
-1 -8 2 2 92.92 76.96 34.30 <
0 8 2 -2 107.98 55.28 29.33 <
0 -8 2 -2 108.08 60.49 75.60 <
0 8 2 -1 888.40 923.76 76.43 o
0 -8 2 -1 883.34 748.51 97.22 o
0 8 2 0 7093.58 6873.26 284.79 o
0 -8 2 0 7158.41 6367.12 263.76 o
0 8 2 1 986.90 845.02 98.82 o
0 -8 2 1 1034.93 868.60 117.96 o
0 8 2 2 186.85 72.99 36.08 <
0 -8 2 2 185.86 149.06 65.47 <
1 8 2 -2 35.77 15.46 11.32 <
1 -8 2 -2 39.54 21.86 25.24 <
1 8 2 -1 458.30 339.36 52.67 o
1 -8 2 -1 392.49 237.69 79.57 <
1 8 2 0 4567.24 3788.40 158.66 o
1 -8 2 0 4559.31 4055.78 256.30 o
1 8 2 1 1633.09 1804.74 175.19 o
1 -8 2 1 1481.07 2269.82 212.51 o
1 8 2 2 219.55 192.01 64.22 <
1 -8 2 2 222.72 219.21 64.93 o
2 8 2 -2 410.86 367.68 70.21 o
2 -8 2 -2 411.95 268.74 87.57 o
2 8 2 -1 379.84 271.46 72.16 o
2 -8 2 -1 346.32 306.36 79.45 o
2 8 2 0 4499.66 5259.65 301.32 o
2 -8 2 0 4563.49 5766.31 336.75 o
2 8 2 1 2608.85 2748.05 231.83 o
2 -8 2 1 2645.66 2971.64 249.96 o
2 8 2 2 81.80 -1.84 19.61 <
2 -8 2 2 85.44 -16.11 45.15 <
3 8 2 -2 141.17 -5.15 28.02 <
3 -8 2 -2 134.00 40.46 46.74 <
3 8 2 -1 205.90 49.00 38.21 <
3 -8 2 -1 194.85 79.15 57.05 <
3 8 2 0 1689.85 1490.32 194.21 o
3 -8 2 0 1681.67 1663.79 214.59 o
3 8 2 1 212.94 565.44 131.52 o
3 -8 2 1 251.75 552.64 121.57 o
3 8 2 2 298.11 514.49 120.09 o
3 -8 2 2 289.34 456.49 122.99 o
4 8 2 -2 170.16 313.65 80.16 o
4 -8 2 -2 166.88 364.72 121.51 o
4 8 2 -1 415.99 342.02 93.37 o
4 -8 2 -1 383.48 462.23 136.15 o
4 8 2 0 1662.68 2496.31 270.34 o
4 -8 2 0 1695.72 1969.56 326.68 o
4 8 2 1 1028.59 1026.67 180.94 o
4 -8 2 1 1035.77 954.92 182.18 o
4 8 2 2 50.80 242.43 96.45 <
4 -8 2 2 56.94 344.45 113.99 o
5 8 2 -2 87.15 96.51 65.64 <
5 -8 2 -2 76.91 -15.52 52.20 <
5 8 2 -1 134.32 152.38 74.65 <
5 -8 2 -1 139.01 53.79 59.72 <
5 8 2 0 276.25 211.74 97.04 <
5 -8 2 0 275.81 99.35 79.51 <
5 8 2 1 226.59 100.12 83.83 <
5 -8 2 1 216.60 342.91 118.08 <
5 8 2 2 62.58 166.95 120.45 <
5 -8 2 2 56.70 1.07 53.08 <
6 -8 2 -2 60.58 150.72 103.15 <
6 -8 2 -1 69.34 103.56 98.58 <
6 -8 2 0 219.63 246.05 148.23 <
-6 9 2 1 48.18 230.82 156.29 <
-6 9 2 2 63.58 16.23 44.73 <
-6 -9 2 2 70.10 -8.47 43.84 <
-5 9 2 -2 17.15 183.13 135.67 <
-5 -9 2 -2 19.98 159.96 158.72 <
-5 9 2 -1 42.98 14.52 33.00 <
-5 -9 2 -1 40.68 212.63 120.15 <
-5 9 2 0 234.90 430.83 184.96 <
-5 -9 2 0 223.69 535.28 205.17 <
-5 9 2 1 481.64 720.31 241.19 <
-5 -9 2 1 455.12 457.38 196.10 <
-5 9 2 2 29.30 212.46 144.32 <
-5 -9 2 2 26.43 24.59 24.41 <
-4 9 2 -2 55.76 117.84 65.88 <
-4 -9 2 -2 55.10 114.88 124.00 <
-4 9 2 -1 303.54 385.57 112.74 o
-4 -9 2 -1 285.86 427.10 150.84 <
-4 9 2 0 328.56 164.64 79.57 <
-4 -9 2 0 331.78 238.88 119.62 <
-4 9 2 1 210.05 247.71 97.58 <
-4 -9 2 1 184.18 297.35 115.94 <
-4 9 2 2 361.82 376.51 109.37 o
-4 -9 2 2 387.67 342.20 150.31 <
-3 9 2 -2 27.68 40.58 49.94 <
-3 -9 2 -2 27.56 78.80 74.12 <
-3 9 2 -1 1010.49 1115.36 167.49 o
-3 -9 2 -1 997.26 1366.08 266.96 o
-3 9 2 0 772.92 924.11 150.90 o
-3 -9 2 0 749.58 1184.73 261.98 o
-3 9 2 1 741.58 403.29 101.96 o
-3 -9 2 1 692.51 461.76 99.35 o
-3 9 2 2 96.22 136.98 57.88 <
-3 -9 2 2 101.44 200.19 71.39 <
-2 9 2 -2 433.40 302.27 91.24 o
-2 -9 2 -2 441.84 198.71 66.00 o
-2 9 2 -1 366.36 551.81 115.94 o
-2 -9 2 -1 332.34 609.70 104.57 o
-2 9 2 0 1809.05 1424.62 175.31 o
-2 -9 2 0 1768.12 1389.01 156.41 o
-2 9 2 1 351.22 580.55 117.01 o
-2 -9 2 1 320.16 423.13 89.82 o
-2 9 2 2 288.34 91.77 44.67 <
-2 -9 2 2 299.58 144.32 100.89 <
-1 9 2 -2 52.40 56.16 38.63 <
-1 -9 2 -2 51.10 107.94 51.25 <
-1 9 2 -1 1189.61 987.86 138.57 o
-1 -9 2 -1 1197.65 1127.33 204.10 o
-1 9 2 0 4432.54 5096.90 246.64 o
-1 -9 2 0 4427.44 5432.11 433.32 o
-1 9 2 1 1827.54 1557.03 137.75 o
-1 -9 2 1 1729.92 1336.58 217.43 o
-1 9 2 2 249.20 137.39 45.68 o
-1 -9 2 2 266.83 106.58 40.23 <
0 9 2 -2 39.86 10.07 19.31 <
0 -9 2 -2 37.30 92.90 72.46 <
0 9 2 -1 272.86 343.51 56.94 o
0 -9 2 -1 302.29 417.86 139.88 <
0 9 2 0 6632.88 6156.98 286.21 o
0 -9 2 0 6445.70 5103.77 236.15 o
0 9 2 1 498.38 497.19 87.39 o
0 -9 2 1 490.40 495.11 96.10 o
0 9 2 2 97.40 60.79 29.21 <
0 -9 2 2 94.57 63.45 36.44 <
1 9 2 -2 313.91 242.49 63.57 o
1 -9 2 -2 320.90 122.46 60.02 <
1 9 2 -1 295.57 238.11 58.89 o
1 -9 2 -1 317.39 158.84 71.09 <
1 9 2 0 4112.76 3744.74 225.79 o
1 -9 2 0 4143.48 4099.56 318.56 o
1 9 2 1 6440.31 5373.16 283.55 o
1 -9 2 1 6643.55 5697.83 323.12 o
1 9 2 2 35.95 67.42 37.27 <
1 -9 2 2 35.25 49.94 47.22 <
2 9 2 -2 276.31 158.84 45.74 o
2 -9 2 -2 266.77 234.14 79.69 <
2 9 2 -1 317.45 138.75 51.01 <
2 -9 2 -1 299.97 194.33 80.63 <
2 9 2 0 1616.07 1460.40 165.00 o
2 -9 2 0 1555.30 1673.51 191.72 o
2 9 2 1 426.49 431.07 103.74 o
2 -9 2 1 447.17 547.19 116.60 o
2 9 2 2 277.02 288.64 78.38 o
2 -9 2 2 286.03 402.75 105.87 o
3 9 2 -2 155.96 227.44 67.66 o
3 -9 2 -2 139.31 250.49 130.04 <
3 9 2 -1 603.77 696.20 131.41 o
3 -9 2 -1 559.56 613.90 136.92 o
3 9 2 0 896.21 1131.71 173.06 o
3 -9 2 0 879.70 928.44 165.89 o
3 9 2 1 352.88 556.49 130.22 o
3 -9 2 1 319.56 369.99 109.90 o
3 9 2 2 112.17 173.47 67.42 <
3 -9 2 2 109.52 337.64 109.31 o
4 9 2 -2 145.70 55.10 43.96 <
4 -9 2 -2 146.24 167.13 99.95 <
4 9 2 -1 178.97 -28.50 45.68 <
4 -9 2 -1 160.70 190.00 90.17 <
4 9 2 0 271.66 293.50 91.12 o
4 -9 2 0 278.64 311.34 110.91 <
4 9 2 1 171.43 203.21 88.28 <
4 -9 2 1 165.81 163.40 79.03 <
4 9 2 2 55.83 31.93 78.14 <
4 -9 2 2 57.76 -14.81 44.32 <
5 9 2 -2 61.24 119.68 105.69 <
5 -9 2 -2 50.64 77.79 74.71 <
5 9 2 -1 125.74 -1.01 39.99 <
5 -9 2 -1 111.04 201.08 91.71 <
5 9 2 0 234.41 352.10 176.79 <
5 -9 2 0 220.47 118.08 83.95 <
5 9 2 1 256.28 875.41 276.26 o
5 -9 2 1 260.60 555.60 193.44 <
5 9 2 2 37.65 84.66 115.41 <
5 -9 2 2 40.95 109.19 84.72 <
6 9 2 -2 50.02 46.63 80.93 <
6 -9 2 -2 49.14 41.35 44.20 <
6 -9 2 -1 13.83 73.70 74.35 <
-6 10 2 2 71.87 -73.94 47.81 <
-5 10 2 -2 47.11 -36.20 55.39 <
-5 -10 2 -2 47.73 55.28 61.91 <
-5 10 2 -1 259.54 268.15 164.76 <
-5 -10 2 -1 238.23 221.64 162.45 <
-5 10 2 0 455.17 313.29 162.57 <
-5 -10 2 0 456.26 134.13 85.31 <
-5 10 2 1 56.55 -10.07 55.04 <
-5 -10 2 1 55.68 103.68 57.59 <
-5 10 2 2 23.26 123.11 124.36 <
-5 -10 2 2 22.03 57.88 74.29 <
-4 10 2 -2 91.06 27.85 50.48 <
-4 -10 2 -2 105.24 34.60 102.91 <
-4 10 2 -1 396.18 564.43 135.85 o
-4 -10 2 -1 446.35 689.56 209.37 o
-4 10 2 0 2144.52 2945.10 299.61 o
-4 -10 2 0 2194.09 3244.58 457.97 o
-4 10 2 1 249.52 91.89 66.30 <
-4 -10 2 1 240.50 140.65 84.25 <
-4 10 2 2 329.13 167.19 72.81 <
-4 -10 2 2 349.33 94.85 106.64 <
-3 10 2 -2 91.08 50.42 43.19 <
-3 -10 2 -2 87.50 64.28 71.92 <
-3 10 2 -1 256.88 591.69 133.30 o
-3 -10 2 -1 209.17 664.91 196.70 o
-3 10 2 0 1505.77 1149.84 176.49 o
-3 -10 2 0 1528.61 1323.84 277.80 o
-3 10 2 1 60.37 88.51 54.86 <
-3 -10 2 1 87.01 64.76 104.69 <
-3 10 2 2 127.35 11.79 58.83 <
-3 -10 2 2 124.68 70.98 58.06 <
-2 10 2 -2 1134.62 1265.78 188.05 o
-2 -10 2 -2 1163.24 923.28 137.75 o
-2 10 2 -1 323.42 416.20 106.76 o
-2 -10 2 -1 405.98 378.99 90.94 o
-2 10 2 0 4473.28 4967.57 339.89 o
-2 -10 2 0 4599.22 5780.77 516.15 o
-2 10 2 1 81.88 30.22 34.36 <
-2 -10 2 1 82.47 8.95 31.40 <
-2 10 2 2 299.64 74.89 33.65 <
-2 -10 2 2 320.19 106.82 83.42 <
-1 10 2 -2 61.74 100.60 58.65 <
-1 -10 2 -2 60.43 51.25 59.84 <
-1 10 2 -1 1682.73 1901.43 201.91 o
-1 -10 2 -1 1638.76 2100.02 292.08 o
-1 10 2 0 4020.24 3969.57 228.51 o
-1 -10 2 0 4052.05 4200.22 392.62 o
-1 10 2 1 979.65 984.01 120.33 o
-1 -10 2 1 1056.43 913.45 193.26 o
-1 10 2 2 67.78 101.78 43.19 <
-1 -10 2 2 68.30 67.54 41.00 <
0 10 2 -2 15.97 60.37 35.61 <
0 -10 2 -2 12.39 160.44 96.63 <
0 10 2 -1 151.85 70.38 26.31 <
0 -10 2 -1 199.23 89.88 69.55 <
0 10 2 0 9700.84 9925.59 382.49 o
0 -10 2 0 9959.22 7409.96 285.33 o
0 10 2 1 345.07 331.60 72.16 o
0 -10 2 1 346.46 265.01 67.01 o
0 10 2 2 63.79 126.67 52.20 <
0 -10 2 2 64.04 150.43 62.74 <
1 10 2 -2 70.86 180.99 54.80 o
1 10 2 -1 465.77 311.57 67.95 o
1 -10 2 -1 509.52 270.28 91.53 <
1 10 2 0 3848.70 3457.99 227.09 o
1 -10 2 0 3862.18 4158.80 335.98 o
1 10 2 1 17.28 58.53 33.95 <
1 -10 2 1 16.56 71.15 40.23 <
1 10 2 2 47.16 47.75 28.73 <
1 -10 2 2 48.44 130.46 60.37 <
2 10 2 -2 74.18 14.34 18.96 <
2 -10 2 -2 79.67 53.56 31.40 <
2 10 2 -1 527.97 396.47 88.28 o
2 -10 2 -1 514.89 450.15 107.83 o
2 10 2 0 3758.26 3313.13 244.80 o
2 -10 2 0 3875.55 3974.49 296.29 o
2 10 2 1 1639.30 1730.45 188.34 o
2 -10 2 1 1711.89 2144.22 227.38 o
2 10 2 2 70.35 34.72 34.84 <
2 -10 2 2 67.33 92.07 43.31 <
3 10 2 -2 130.92 120.68 49.53 <
3 -10 2 -2 119.32 107.59 63.81 <
3 10 2 -1 139.14 240.66 81.82 <
3 -10 2 -1 166.24 253.10 79.74 o
3 10 2 0 1183.51 1082.89 167.61 o
3 -10 2 0 1164.46 1263.59 201.43 o
3 10 2 1 894.88 1254.58 192.55 o
3 -10 2 1 812.11 1273.42 199.18 o
3 10 2 2 139.15 111.14 60.25 <
3 -10 2 2 132.07 153.09 75.06 <
4 10 2 -2 229.18 69.97 39.93 <
4 -10 2 -2 243.71 163.04 81.46 <
4 10 2 -1 674.41 350.14 98.11 o
4 -10 2 -1 671.09 406.07 134.66 o
4 10 2 0 1515.96 1884.72 360.63 o
4 -10 2 0 1535.28 2062.58 271.82 o
4 10 2 1 962.99 1334.09 313.35 o
4 -10 2 1 1014.43 1218.74 206.35 o
4 10 2 2 39.56 155.16 112.68 <
4 -10 2 2 41.72 -19.79 64.52 <
5 10 2 -2 69.44 43.55 34.60 <
5 -10 2 -2 61.71 69.91 83.83 <
5 10 2 -1 33.85 29.03 63.87 <
5 -10 2 -1 33.23 -93.43 31.58 <
5 10 2 0 358.62 260.21 155.52 <
5 -10 2 0 352.42 204.87 122.64 <
5 10 2 1 202.11 296.58 160.91 <
5 -10 2 1 177.39 191.60 115.77 <
5 10 2 2 59.51 87.33 119.02 <
5 -10 2 2 61.14 186.03 128.56 <
6 10 2 -2 107.64 206.41 140.18 <
6 -10 2 -2 108.88 140.35 128.44 <
6 10 2 -1 141.62 -18.90 66.06 <
6 -10 2 -1 142.02 146.40 114.52 <
-6 11 2 2 17.41 137.57 110.38 <
-5 11 2 -2 22.16 -12.92 46.09 <
-5 -11 2 -2 22.92 211.62 153.98 <
-5 11 2 -1 30.80 313.88 177.80 <
-5 -11 2 -1 26.06 262.04 158.66 <
-5 11 2 0 473.47 764.56 262.40 <
-5 -11 2 0 459.44 744.42 239.77 o
-5 11 2 1 76.01 11.79 19.14 <
-5 -11 2 1 76.98 170.57 117.43 <
-5 11 2 2 60.48 224.24 121.45 <
-5 -11 2 2 48.83 120.57 124.06 <
-4 11 2 -2 113.05 8.71 14.10 <
-4 -11 2 -2 114.41 64.81 45.44 <
-4 11 2 -1 162.80 191.24 92.48 <
-4 -11 2 -1 169.75 281.89 143.67 <
-4 11 2 0 405.95 398.01 120.80 o
-4 -11 2 0 405.83 413.42 183.31 <
-4 11 2 1 202.23 34.90 36.50 <
-4 -11 2 1 223.38 154.10 110.67 <
-4 11 2 2 131.70 49.77 49.00 <
-4 -11 2 2 129.15 141.12 90.23 <
-3 11 2 -2 41.41 115.17 70.62 <
-3 -11 2 -2 38.05 235.32 139.64 <
-3 11 2 -1 143.52 180.64 70.03 <
-3 -11 2 -1 156.76 96.16 94.85 <
-3 11 2 0 1906.62 2403.65 261.04 o
-3 -11 2 0 1849.55 2700.00 406.19 o
-3 11 2 1 206.95 124.59 70.74 <
-3 -11 2 1 205.62 191.96 132.24 <
-3 11 2 2 284.73 250.55 89.40 <
-3 -11 2 2 266.85 207.95 71.39 <
-2 11 2 -2 1593.33 1491.74 212.40 o
-2 -11 2 -2 1594.74 1328.64 276.86 o
-2 11 2 -1 383.63 396.95 106.11 o
-2 -11 2 -1 408.55 381.72 91.77 o
-2 11 2 0 99.26 79.15 54.51 <
-2 -11 2 0 42.41 19.73 39.87 <
-2 11 2 1 157.13 183.07 76.25 <
-2 -11 2 1 206.33 231.24 115.71 <
-2 11 2 2 332.60 250.25 62.92 o
-2 -11 2 2 327.22 304.23 144.85 <
-1 11 2 -2 39.52 60.61 37.92 <
-1 -11 2 -2 33.48 42.12 68.37 <
-1 11 2 -1 1482.28 1923.94 172.46 o
-1 -11 2 -1 1522.45 2033.78 296.88 o
-1 11 2 0 2601.80 2446.31 188.22 o
-1 -11 2 0 2530.12 2351.52 309.20 o
-1 11 2 1 336.50 221.58 52.97 o
-1 -11 2 1 332.95 180.34 91.00 <
-1 11 2 2 109.25 21.15 26.90 <
-1 -11 2 2 104.48 77.67 76.55 <
0 11 2 -2 179.64 191.60 55.57 o
0 -11 2 -2 169.70 120.68 82.29 <
0 11 2 -1 494.77 414.72 77.14 o
0 -11 2 -1 517.21 448.07 150.90 <
0 11 2 0 5178.31 4649.59 243.91 o
0 11 2 1 206.15 223.53 67.78 o
0 -11 2 1 226.11 272.29 72.22 o
0 11 2 2 291.52 272.35 69.67 o
0 -11 2 2 282.67 181.17 64.64 <
1 11 2 -2 6.24 2.96 22.99 <
1 11 2 -1 261.57 275.61 65.05 o
1 -11 2 -1 283.78 164.94 63.99 <
1 11 2 0 3181.15 2649.94 201.85 o
1 -11 2 0 3092.63 3195.59 300.43 o
1 11 2 1 419.51 394.52 84.25 o
1 -11 2 1 411.89 380.18 88.63 o
1 11 2 2 77.51 84.01 39.16 <
1 -11 2 2 73.64 -6.22 49.29 <
2 11 2 -2 515.39 249.90 65.76 o
2 -11 2 -2 520.45 323.01 94.79 o
2 11 2 -1 177.67 171.99 54.33 o
2 -11 2 -1 178.38 115.82 51.48 <
2 11 2 0 33.88 57.94 31.70 <
2 -11 2 0 42.08 83.89 55.28 <
2 11 2 1 238.57 458.62 103.80 o
2 -11 2 1 229.76 536.77 126.07 o
2 11 2 2 65.79 25.77 24.88 <
2 -11 2 2 82.07 84.25 71.92 <
3 11 2 -2 103.99 3.91 18.90 <
3 -11 2 -2 91.69 80.40 67.42 <
3 11 2 -1 399.50 447.36 104.21 o
3 -11 2 -1 405.92 432.85 113.69 o
3 11 2 0 2034.94 2652.48 259.26 o
3 -11 2 0 1985.96 2796.69 297.00 o
3 11 2 1 45.51 -7.35 34.18 <
3 -11 2 1 49.71 52.14 56.34 <
3 11 2 2 58.55 135.38 79.45 <
3 -11 2 2 50.53 31.99 49.17 <
4 11 2 -2 460.72 394.87 166.07 <
4 -11 2 -2 487.59 364.01 177.74 <
4 11 2 -1 54.64 61.08 34.66 <
4 -11 2 -1 58.35 340.31 170.21 <
4 11 2 0 287.16 219.21 141.30 <
4 -11 2 0 299.50 281.83 111.97 <
4 11 2 1 276.66 689.32 228.10 o
4 -11 2 1 270.80 518.75 143.79 o
4 11 2 2 34.67 23.99 98.35 <
4 -11 2 2 36.71 66.59 59.90 <
5 11 2 -2 49.76 -74.35 89.82 <
5 -11 2 -2 43.36 -133.42 96.10 <
5 11 2 -1 40.33 178.15 141.12 <
5 -11 2 -1 40.98 -33.18 62.03 <
5 11 2 0 588.28 516.56 212.22 <
5 -11 2 0 582.05 550.57 193.62 <
5 11 2 1 38.89 72.64 59.48 <
5 -11 2 1 38.59 107.65 130.87 <
5 11 2 2 52.20 114.05 77.61 <
5 -11 2 2 49.53 -134.90 111.03 <
6 11 2 -2 158.39 87.86 89.40 <
6 -11 2 -2 169.50 28.73 43.37 <
6 11 2 -1 44.99 203.75 159.85 <
-5 12 2 -2 19.22 13.80 55.63 <
-5 -12 2 -2 15.50 163.93 109.84 <
-5 12 2 -1 818.19 664.62 255.76 <
-5 -12 2 -1 762.48 816.11 267.32 o
-5 12 2 0 278.20 332.84 178.51 <
-5 -12 2 0 271.70 390.96 171.04 <
-5 12 2 1 88.11 218.79 151.02 <
-5 -12 2 1 74.88 99.89 107.06 <
-5 12 2 2 213.27 246.52 149.71 <
-5 -12 2 2 196.09 166.42 142.66 <
-4 12 2 -2 51.46 7.58 63.45 <
-4 -12 2 -2 52.92 81.76 58.24 <
-4 12 2 -1 205.49 175.66 84.13 <
-4 -12 2 -1 248.84 266.61 146.81 <
-4 12 2 0 1031.10 1084.67 199.24 o
-4 -12 2 0 1036.03 1044.09 267.02 o
-4 12 2 1 330.26 397.66 117.43 o
-4 -12 2 1 349.86 293.74 156.17 <
-4 12 2 2 25.89 122.11 91.06 <
-3 12 2 -2 86.07 196.93 86.91 <
-3 -12 2 -2 93.44 260.03 142.13 <
-3 12 2 -1 1930.59 1756.93 240.66 o
-3 -12 2 -1 1827.15 2118.33 375.20 o
-3 12 2 0 1041.61 968.49 172.29 o
-3 -12 2 0 1027.44 1349.44 297.65 o
-3 12 2 1 138.54 67.30 33.47 <
-3 -12 2 1 116.96 -37.92 73.88 <
-3 12 2 2 322.53 209.73 81.76 <
-3 -12 2 2 298.73 161.56 107.77 <
-2 12 2 -2 911.50 1029.69 171.22 o
-2 -12 2 -2 908.03 954.45 231.71 o
-2 12 2 -1 66.86 113.40 81.40 <
-2 -12 2 -1 104.17 212.40 122.46 <
-2 12 2 0 1145.22 1148.95 181.53 o
-2 -12 2 0 1143.72 867.65 143.49 o
-2 12 2 1 943.90 777.72 120.15 o
-2 -12 2 1 941.25 901.72 223.59 o
-2 12 2 2 49.08 70.98 44.85 <
-2 -12 2 2 51.63 116.00 105.99 <
-1 12 2 -2 29.44 26.60 40.94 <
-1 -12 2 -2 32.65 7.70 59.90 <
-1 12 2 -1 7707.34 7420.21 344.63 o
-1 -12 2 -1 7482.16 7442.49 579.01 o
-1 12 2 0 3223.95 3778.33 242.85 o
-1 -12 2 0 3201.23 3465.99 383.91 o
-1 12 2 1 90.07 83.83 45.80 <
-1 -12 2 1 88.46 130.52 72.46 <
-1 12 2 2 333.93 174.12 56.70 o
-1 -12 2 2 333.86 169.50 88.28 <
0 12 2 -2 83.24 59.42 37.86 <
0 -12 2 -2 85.52 -14.93 31.52 <
0 12 2 -1 91.22 120.45 43.60 <
0 -12 2 -1 62.79 81.82 39.81 <
0 12 2 0 15674.30 16256.00 476.27 o
0 12 2 1 1732.43 1505.37 166.36 o
0 -12 2 1 1685.54 1194.45 136.26 o
0 12 2 2 72.67 41.47 22.51 <
0 -12 2 2 79.84 -1.78 19.20 <
1 12 2 -2 285.75 193.26 65.17 <
1 12 2 -1 480.04 383.14 86.20 o
1 12 2 0 4060.55 3454.31 236.74 o
1 -12 2 0 4036.98 4110.16 336.57 o
1 12 2 1 2919.33 1798.34 179.28 o
1 -12 2 1 2900.92 2539.15 236.57 o
1 12 2 2 295.92 288.94 79.45 o
1 -12 2 2 309.89 256.59 92.30 <
2 12 2 -2 175.57 36.32 33.30 <
2 -12 2 -2 182.98 61.38 66.53 <
2 12 2 -1 267.85 286.10 78.26 o
2 -12 2 -1 229.20 304.70 87.51 o
2 12 2 0 803.46 657.98 118.25 o
2 -12 2 0 804.12 705.85 133.07 o
2 12 2 1 845.08 810.60 136.32 o
2 -12 2 1 814.17 932.94 160.50 o
2 12 2 2 539.44 597.20 120.74 o
2 -12 2 2 535.06 673.68 151.79 o
3 12 2 -2 276.19 120.68 68.55 <
3 -12 2 -2 268.81 257.90 130.70 <
3 12 2 -1 94.29 32.70 84.66 <
3 -12 2 -1 86.80 112.21 67.18 <
3 12 2 0 1434.67 1546.96 316.67 o
3 -12 2 0 1433.03 1525.51 219.86 o
3 12 2 1 627.87 821.68 232.60 o
3 -12 2 1 581.76 558.03 137.69 o
3 12 2 2 149.60 440.14 183.60 <
3 -12 2 2 152.61 403.58 118.61 o
4 12 2 -2 490.58 235.44 149.60 <
4 -12 2 -2 499.38 188.88 146.28 <
4 12 2 -1 187.54 505.36 192.13 <
4 -12 2 -1 178.38 223.18 150.78 <
4 12 2 0 781.90 1202.57 302.39 o
4 -12 2 0 775.75 962.62 268.32 o
4 12 2 1 460.67 764.86 243.62 o
4 -12 2 1 466.06 661.66 162.69 o
4 12 2 2 282.82 646.31 237.69 <
4 -12 2 2 286.55 656.26 174.30 o
5 12 2 -2 90.26 9.24 21.57 <
5 -12 2 -2 85.94 -4.80 41.23 <
5 12 2 -1 66.45 -46.15 105.16 <
5 -12 2 -1 50.68 20.56 45.86 <
5 12 2 0 403.00 142.07 105.46 <
5 -12 2 0 400.73 160.44 95.68 <
5 12 2 1 167.54 101.19 157.83 <
5 -12 2 1 136.92 -32.17 75.42 <
5 12 2 2 25.65 45.20 52.67 <
5 -12 2 2 24.83 22.57 34.90 <
6 12 2 -2 111.67 172.40 145.86 <
-5 13 2 -2 32.43 123.17 133.84 <
-5 13 2 -1 157.42 301.44 181.41 <
-5 -13 2 -1 131.29 487.24 207.60 <
-5 13 2 0 128.51 166.18 151.25 <
-5 -13 2 0 142.31 144.85 124.30 <
-5 13 2 1 72.37 140.29 135.38 <
-5 -13 2 1 69.10 193.44 141.71 <
-5 13 2 2 69.40 -31.10 61.26 <
-5 -13 2 2 66.23 28.50 39.10 <
-4 13 2 -2 2.79 112.80 63.63 <
-4 -13 2 -2 5.78 58.12 90.47 <
-4 13 2 -1 57.46 165.89 81.40 <
-4 -13 2 -1 58.51 276.86 150.48 <
-4 13 2 0 1548.94 1017.66 198.77 o
-4 -13 2 0 1575.59 937.15 270.99 o
-4 13 2 1 266.17 179.16 88.34 <
-4 -13 2 1 244.73 101.90 95.09 <
-4 13 2 2 211.84 153.33 79.33 <
-4 -13 2 2 226.12 119.08 104.27 <
-3 13 2 -2 80.51 38.27 81.23 <
-3 -13 2 -2 79.25 131.76 88.87 <
-3 13 2 -1 112.27 110.43 64.04 <
-3 -13 2 -1 78.11 275.85 143.14 <
-3 13 2 0 1381.66 1475.63 219.33 o
-3 -13 2 0 1386.95 1717.94 339.60 o
-3 13 2 1 305.77 262.28 94.50 <
-3 -13 2 1 294.98 168.26 118.43 <
-3 13 2 2 118.56 54.39 35.67 <
-3 -13 2 2 110.14 61.97 35.13 <
-2 13 2 -2 132.36 343.62 114.94 <
-2 -13 2 -2 150.36 551.16 197.76 <
-2 13 2 -1 172.89 165.41 64.64 <
-2 -13 2 -1 167.00 303.04 116.71 <
-2 13 2 0 6773.38 6711.58 620.01 o
-2 -13 2 0 6764.46 6298.93 598.26 o
-2 13 2 1 369.11 228.51 75.83 o
-2 -13 2 1 347.58 250.37 116.24 <
-2 13 2 2 226.54 146.87 60.25 <
-2 -13 2 2 240.50 178.33 107.12 <
-1 13 2 -2 328.79 480.42 100.42 o
-1 -13 2 -2 352.35 492.75 164.76 <
-1 13 2 -1 885.06 1199.25 147.34 o
-1 -13 2 -1 801.95 1140.89 246.94 o
-1 13 2 0 2602.50 2508.34 205.94 o
-1 -13 2 0 2513.80 2317.69 325.97 o
-1 13 2 1 156.76 162.63 59.66 <
-1 -13 2 1 154.59 216.07 107.35 <
-1 13 2 2 53.55 20.74 30.22 <
-1 -13 2 2 43.16 81.88 85.02 <
0 13 2 -2 49.38 116.83 45.26 <
0 -13 2 -2 56.50 92.48 78.68 <
0 13 2 -1 440.39 285.80 65.58 o
0 -13 2 -1 438.18 300.38 142.96 <
0 13 2 0 12408.50 12573.90 439.13 o
0 13 2 1 159.83 163.87 69.44 <
0 13 2 2 52.77 31.99 30.16 <
0 -13 2 2 54.67 55.87 41.59 <
1 13 2 -2 181.56 133.42 45.09 <
1 13 2 -1 104.15 165.00 61.97 <
1 13 2 0 2239.61 1697.45 169.03 o
1 -13 2 0 2141.98 2141.97 363.35 o
1 13 2 1 515.64 296.23 75.72 o
1 -13 2 1 531.71 482.08 105.34 o
1 13 2 2 296.33 286.27 71.15 o
1 -13 2 2 314.17 373.42 102.14 o
2 13 2 -2 110.57 154.51 68.67 <
2 -13 2 -2 116.56 189.41 111.44 <
2 13 2 -1 242.04 77.97 80.22 <
2 -13 2 -1 213.63 47.75 45.74 <
2 13 2 0 7268.27 6076.35 552.82 o
2 -13 2 0 7226.72 5979.54 388.41 o
2 13 2 1 19.17 44.61 54.62 <
2 -13 2 1 15.41 85.85 62.62 <
2 13 2 2 457.76 152.32 83.00 <
2 -13 2 2 457.65 249.13 95.09 <
3 13 2 -2 218.68 161.80 106.70 <
3 -13 2 -2 179.96 94.02 59.60 <
3 13 2 -1 160.45 131.17 94.20 <
3 -13 2 -1 142.35 199.36 111.68 <
3 13 2 0 1009.28 1286.46 296.64 o
3 -13 2 0 995.03 1164.00 198.18 o
3 13 2 1 74.88 206.83 139.52 <
3 -13 2 1 88.14 179.81 90.59 <
3 13 2 2 212.91 232.54 135.73 <
3 -13 2 2 225.35 283.55 106.46 <
4 13 2 -2 170.33 517.81 189.35 <
4 -13 2 -2 168.80 297.23 155.28 <
4 13 2 -1 81.25 112.15 124.65 <
4 -13 2 -1 67.39 -26.84 82.41 <
4 13 2 0 1679.83 1381.25 334.56 o
4 -13 2 0 1706.59 1477.23 338.23 o
4 13 2 1 7.46 -19.73 60.19 <
4 -13 2 1 8.00 204.57 130.10 <
4 13 2 2 211.05 221.58 170.80 <
4 -13 2 2 208.83 236.39 147.29 <
5 13 2 -2 68.02 109.54 68.25 <
5 -13 2 -2 50.98 109.84 49.23 <
5 13 2 -1 52.82 23.94 66.24 <
5 -13 2 -1 42.98 84.84 50.60 <
5 13 2 0 55.68 170.63 136.62 <
5 -13 2 0 60.82 -31.28 50.12 <
5 13 2 1 13.99 66.24 101.25 <
5 -13 2 1 13.41 95.62 91.00 <
5 13 2 2 65.61 211.27 183.13 <
5 -13 2 2 66.81 -20.20 62.62 <
6 13 2 -2 34.74 28.08 98.88 <
-5 14 2 -1 173.46 347.12 198.41 <
-5 14 2 0 54.95 48.34 103.38 <
-5 -14 2 0 55.04 -24.17 47.93 <
-5 14 2 1 82.11 298.48 196.64 <
-5 -14 2 1 79.80 -30.57 20.85 <
-5 14 2 2 38.00 -150.90 106.11 <
-5 -14 2 2 34.35 0.24 20.85 <
-4 14 2 -2 15.13 132.71 80.40 <
-4 -14 2 -2 13.68 -31.52 123.47 <
-4 14 2 -1 568.89 663.08 170.57 o
-4 -14 2 -1 590.65 646.43 222.70 <
-4 14 2 0 15.65 5.45 35.96 <
-4 -14 2 0 11.35 98.64 100.01 <
-4 14 2 1 111.58 144.97 101.13 <
-4 -14 2 1 115.93 51.96 9.06 o
-4 14 2 2 255.71 268.32 113.34 <
-4 -14 2 2 269.88 235.98 145.74 <
-3 14 2 -2 115.76 307.96 113.28 <
-3 -14 2 -2 117.96 377.81 189.88 <
-3 14 2 -1 272.73 205.35 94.20 <
-3 -14 2 -1 273.12 315.96 178.86 <
-3 14 2 0 233.62 149.30 68.01 <
-3 -14 2 0 242.77 287.82 88.99 o
-3 14 2 1 134.53 220.63 100.18 <
-3 -14 2 1 122.04 141.66 128.33 <
-3 14 2 2 92.56 88.63 49.29 <
-3 -14 2 2 89.16 72.75 53.79 <
-2 14 2 -2 127.13 272.83 103.68 <
-2 -14 2 -2 123.75 224.42 127.20 <
-2 14 2 -1 330.70 498.26 124.00 o
-2 -14 2 -1 341.05 502.64 166.60 o
-2 14 2 0 436.63 549.74 108.83 o
-2 -14 2 0 463.99 500.15 196.40 <
-2 14 2 1 479.16 429.00 99.41 o
-2 -14 2 1 476.11 497.25 163.70 o
-2 14 2 2 174.36 224.54 67.66 o
-2 -14 2 2 197.93 93.61 85.97 <
-1 14 2 -2 122.73 43.25 16.59 <
-1 -14 2 -2 110.93 21.92 46.74 <
-1 14 2 -1 2854.05 3683.12 266.07 o
-1 -14 2 -1 2928.02 3128.17 405.65 o
-1 14 2 0 172.49 124.36 47.28 <
-1 -14 2 0 199.07 105.04 58.48 <
-1 14 2 1 242.56 298.42 74.35 o
-1 -14 2 1 237.95 416.32 157.18 <
-1 14 2 2 83.67 29.09 35.07 <
-1 -14 2 2 73.56 43.78 72.04 <
0 14 2 -2 87.89 86.62 47.04 <
0 -14 2 -2 103.03 97.64 61.56 <
0 14 2 -1 557.16 782.58 121.63 o
0 -14 2 -1 534.23 993.96 249.19 o
0 14 2 0 2692.99 2605.09 211.86 o
0 -14 2 0 2619.30 2323.61 352.87 o
0 14 2 1 10.06 88.39 50.18 <
0 14 2 2 38.04 44.08 28.32 <
1 14 2 -2 186.41 67.60 60.73 <
1 14 2 -1 120.78 57.76 18.13 o
1 14 2 0 125.24 81.11 66.30 <
1 -14 2 0 146.12 88.51 94.91 <
1 14 2 1 3094.48 3139.13 394.52 o
1 -14 2 1 3141.85 2806.64 425.32 o
1 14 2 2 315.55 243.14 90.94 <
1 -14 2 2 313.25 65.17 61.20 <
2 14 2 -2 234.27 175.90 94.85 <
2 -14 2 -2 247.67 190.30 120.74 <
2 14 2 -1 868.00 670.78 202.92 o
2 -14 2 -1 884.86 340.90 151.49 <
2 14 2 0 341.59 505.90 169.09 <
2 -14 2 0 366.37 493.40 185.56 <
2 14 2 1 40.07 -2.25 33.12 <
2 -14 2 1 50.71 26.36 42.60 <
2 14 2 2 643.32 468.40 169.92 <
2 -14 2 2 653.43 601.70 142.01 o
3 14 2 -2 363.20 199.42 99.12 <
3 -14 2 -2 364.50 227.27 144.80 <
3 14 2 -1 120.12 277.92 136.21 <
3 -14 2 -1 108.25 54.27 54.86 <
3 14 2 0 159.72 40.35 53.32 <
3 -14 2 0 173.02 255.70 154.39 <
3 14 2 1 1507.90 1530.61 324.37 o
3 -14 2 1 1556.28 1761.67 246.99 o
3 14 2 2 89.83 142.78 145.80 <
3 -14 2 2 90.63 190.00 81.17 <
4 14 2 -2 236.11 190.77 130.58 <
4 -14 2 -2 226.26 254.04 160.26 <
4 14 2 -1 147.40 172.88 104.92 <
4 -14 2 -1 166.81 227.09 155.22 <
4 14 2 0 35.31 293.44 164.47 <
4 -14 2 0 32.42 384.86 196.76 <
4 14 2 1 49.82 148.65 92.96 <
4 -14 2 1 62.57 92.19 82.94 <
4 14 2 2 137.74 183.13 120.80 <
4 -14 2 2 145.91 527.11 230.46 <
5 14 2 -2 199.63 51.01 72.87 <
5 -14 2 -2 199.71 56.94 83.24 <
5 14 2 -1 66.30 20.68 104.75 <
5 -14 2 -1 55.32 62.27 50.06 <
5 14 2 0 23.19 -199.18 137.63 <
5 -14 2 0 25.12 -56.16 94.38 <
5 14 2 1 606.79 471.77 241.07 <
5 -14 2 1 619.50 428.05 184.96 <
-5 15 2 0 118.35 111.62 132.18 <
-5 -15 2 0 108.05 195.57 148.65 <
-5 15 2 1 111.12 117.72 135.97 <
-5 -15 2 1 121.59 -80.69 89.64 <
-5 15 2 2 2.02 355.12 211.03 <
-5 -15 2 2 1.89 173.23 162.99 <
-4 15 2 -2 31.55 161.27 100.42 <
-4 -15 2 -2 25.27 193.79 96.45 <
-4 15 2 -1 54.36 118.02 92.25 <
-4 -15 2 -1 75.32 -36.61 76.66 <
-4 15 2 0 402.95 472.90 147.23 o
-4 -15 2 0 402.68 601.40 237.57 <
-4 15 2 1 61.67 136.62 104.86 <
-4 -15 2 1 72.61 48.94 67.90 <
-4 15 2 2 11.52 128.98 79.69 <
-4 -15 2 2 12.79 188.16 146.10 <
-3 15 2 -2 89.95 17.66 63.22 <
-3 -15 2 -2 88.99 188.34 132.65 <
-3 15 2 -1 126.07 296.17 119.85 <
-3 -15 2 -1 137.62 263.23 134.31 <
-3 15 2 0 573.55 436.76 141.01 o
-3 -15 2 0 541.35 548.97 204.52 <
-3 15 2 1 394.18 113.87 83.06 <
-3 -15 2 1 430.37 44.67 37.15 <
-3 15 2 2 111.87 114.34 59.48 <
-3 -15 2 2 110.81 4.92 66.47 <
-2 15 2 -2 683.77 631.03 151.25 o
-2 -15 2 -2 712.54 734.76 240.71 o
-2 15 2 -1 120.60 247.17 105.22 <
-2 -15 2 -1 170.34 222.11 142.25 <
-2 15 2 0 163.27 192.43 78.32 <
-2 -15 2 0 90.04 120.74 84.66 <
-2 15 2 1 89.55 194.80 75.24 <
-2 -15 2 1 117.56 59.54 74.06 <
-2 15 2 2 16.82 216.37 72.40 <
-1 15 2 -2 233.31 212.40 68.78 o
-1 -15 2 -2 211.16 174.95 120.21 <
-1 15 2 -1 1446.77 2769.49 244.21 o
-1 -15 2 -1 1438.45 2344.76 368.33 o
-1 15 2 0 1974.35 2024.13 199.01 o
-1 -15 2 0 1918.61 1714.98 298.30 o
-1 15 2 1 200.02 159.49 61.62 <
-1 -15 2 1 217.61 154.57 88.93 <
-1 15 2 2 142.67 -30.75 56.16 <
-1 -15 2 2 137.21 81.46 89.82 <
0 15 2 -2 415.73 427.64 124.18 o
0 -15 2 -2 438.63 564.08 188.34 <
0 15 2 -1 483.09 477.34 87.03 o
0 -15 2 -1 554.47 509.45 182.83 <
0 15 2 0 2219.90 2326.63 211.45 o
0 -15 2 0 2138.55 2111.87 356.36 o
0 15 2 1 101.26 116.48 52.14 <
0 -15 2 1 88.04 241.13 127.44 <
0 15 2 2 33.95 46.45 31.28 <
1 15 2 -2 505.05 575.99 144.38 o
1 15 2 -1 213.20 141.60 97.46 <
1 15 2 0 2026.59 2075.55 332.01 o
1 -15 2 0 2002.32 1953.15 376.62 o
1 15 2 1 297.46 619.29 194.56 o
1 -15 2 1 290.21 629.66 224.66 <
1 15 2 2 174.23 78.38 87.21 <
1 -15 2 2 155.31 7.23 46.21 <
2 15 2 -2 406.59 411.93 158.42 <
2 -15 2 -2 428.69 564.91 194.44 <
2 15 2 -1 256.32 311.45 140.65 <
2 -15 2 -1 278.31 110.43 95.33 <
2 15 2 0 209.85 142.07 90.17 <
2 -15 2 0 135.66 131.58 78.26 <
2 15 2 1 37.13 143.02 86.50 <
2 -15 2 1 31.36 190.41 117.13 <
2 15 2 2 65.67 -14.16 36.26 <
2 -15 2 2 69.91 80.28 69.85 <
3 15 2 -2 556.45 136.74 88.87 <
3 -15 2 -2 570.44 416.14 173.23 <
3 15 2 -1 202.38 174.00 95.03 <
3 -15 2 -1 211.64 153.27 116.00 <
3 15 2 0 678.12 545.36 198.18 <
3 -15 2 0 660.56 411.28 181.94 <
3 15 2 1 65.01 228.15 154.75 <
3 -15 2 1 74.22 225.84 108.48 <
3 15 2 2 20.68 16.11 75.24 <
3 -15 2 2 25.95 -107.53 70.27 <
4 15 2 -2 119.27 131.58 129.15 <
4 -15 2 -2 121.60 76.60 96.81 <
4 15 2 -1 179.89 122.88 107.29 <
4 -15 2 -1 193.99 428.11 213.94 <
4 15 2 0 414.58 603.06 242.49 <
4 -15 2 0 414.83 297.65 155.64 <
4 15 2 1 2.51 -36.67 53.91 <
4 -15 2 1 3.05 150.72 161.50 <
4 15 2 2 33.40 -90.47 99.47 <
4 -15 2 2 24.22 164.82 124.30 <
5 15 2 -2 137.65 -190.59 131.29 <
5 -15 2 -2 148.71 125.66 124.47 <
5 15 2 -1 38.08 -9.30 51.13 <
5 -15 2 -1 43.01 -78.97 83.06 <
5 15 2 0 173.05 225.79 119.44 <
5 -15 2 0 163.97 -46.15 105.52 <
-5 16 2 1 25.43 71.51 102.97 <
-5 -16 2 1 25.98 86.74 83.00 <
-5 16 2 2 39.65 27.90 76.37 <
-5 -16 2 2 38.71 0.65 64.70 <
-4 16 2 -2 103.20 221.16 119.79 <
-4 -16 2 -2 116.73 8.53 102.14 <
-4 16 2 -1 149.91 226.79 107.94 <
-4 -16 2 -1 127.72 392.44 187.45 <
-4 16 2 0 22.85 75.83 86.26 <
-4 -16 2 0 23.36 147.11 125.30 <
-4 16 2 1 35.06 92.84 82.94 <
-4 -16 2 1 25.51 85.02 79.63 <
-4 16 2 2 219.51 58.59 58.77 <
-4 -16 2 2 212.69 86.56 120.03 <
-3 16 2 -2 41.22 69.44 82.11 <
-3 -16 2 -2 41.29 37.56 72.16 <
-3 16 2 -1 275.29 489.55 152.56 o
-3 -16 2 -1 313.94 569.41 224.84 <
-3 16 2 0 129.90 -1.90 97.70 <
-3 -16 2 0 119.22 95.80 106.23 <
-3 16 2 1 174.52 92.07 59.66 <
-3 -16 2 1 173.48 347.42 171.10 <
-3 16 2 2 92.22 46.39 46.74 <
-3 -16 2 2 96.99 -11.85 8.18 <
-2 16 2 -2 86.81 189.29 94.38 <
-2 -16 2 -2 82.78 159.73 155.28 <
-2 16 2 -1 337.43 283.37 86.32 o
-2 -16 2 -1 308.84 503.71 188.10 <
-2 16 2 0 271.56 282.07 83.00 o
-2 -16 2 0 279.31 281.06 127.08 <
-2 16 2 1 20.20 -29.15 39.16 <
-2 -16 2 1 20.63 10.84 23.28 <
-2 16 2 2 88.04 49.83 42.48 <
-2 -16 2 2 94.63 185.56 114.34 <
-1 16 2 -2 60.29 31.04 44.20 <
-1 -16 2 -2 54.41 165.29 106.94 <
-1 16 2 -1 649.55 513.72 109.90 o
-1 -16 2 -1 581.91 380.24 167.61 <
-1 16 2 0 364.01 497.13 104.33 o
-1 -16 2 0 348.72 544.29 176.32 o
-1 16 2 1 224.61 182.48 65.53 <
-1 -16 2 1 215.76 289.71 155.52 <
-1 16 2 2 50.95 33.36 37.92 <
-1 -16 2 2 49.55 62.56 57.88 <
0 16 2 -2 57.79 50.48 50.24 <
0 -16 2 -2 57.18 39.69 42.83 <
0 16 2 -1 307.14 214.59 87.51 <
0 -16 2 -1 297.22 200.90 104.63 <
0 16 2 0 50.17 70.68 66.00 <
0 -16 2 0 36.98 23.40 44.67 <
0 16 2 1 566.96 448.13 130.87 o
0 -16 2 1 544.03 229.10 112.98 <
0 16 2 2 17.03 120.57 84.37 <
0 -16 2 2 11.98 87.68 102.20 <
1 16 2 -2 12.03 18.90 44.91 <
1 16 2 -1 30.51 -12.38 67.66 <
1 -16 2 -1 18.01 164.82 169.74 <
1 16 2 0 291.44 395.35 149.00 <
1 -16 2 0 274.89 439.25 197.76 <
1 16 2 1 700.94 630.20 215.60 <
1 -16 2 1 685.02 707.33 243.09 <
1 16 2 2 169.40 231.29 123.59 <
1 -16 2 2 163.74 148.53 120.62 <
2 16 2 -2 112.04 117.66 108.42 <
2 -16 2 -2 109.78 18.19 45.20 <
2 16 2 -1 52.98 -22.16 12.92 <
2 -16 2 -1 67.70 7.05 53.68 <
2 16 2 0 242.43 157.53 101.19 <
2 -16 2 0 235.20 104.21 90.23 <
2 16 2 1 565.05 444.99 174.77 <
2 -16 2 1 493.07 219.39 132.41 <
2 16 2 2 37.73 94.85 123.35 <
2 -16 2 2 34.36 -106.29 100.24 <
3 16 2 -2 46.47 -35.55 52.49 <
3 -16 2 -2 54.61 26.72 44.02 <
3 16 2 -1 248.97 82.35 66.89 <
3 -16 2 -1 224.10 164.64 113.81 <
3 16 2 0 27.69 -19.37 45.32 <
3 -16 2 0 25.25 100.84 117.07 <
3 16 2 1 33.90 133.24 108.83 <
3 -16 2 1 33.90 119.50 112.15 <
3 16 2 2 18.74 -10.78 115.47 <
3 -16 2 2 20.24 199.42 152.14 <
4 16 2 -2 48.63 250.90 154.16 <
4 -16 2 -2 47.66 179.81 135.02 <
4 16 2 -1 53.18 152.68 105.64 <
4 -16 2 -1 58.42 74.89 149.18 <
4 16 2 0 44.20 144.80 112.15 <
4 -16 2 0 38.17 88.45 95.98 <
4 16 2 1 153.73 32.23 81.70 <
4 -16 2 1 117.83 68.90 75.89 <
4 16 2 2 16.20 -142.72 148.94 <
4 -16 2 2 18.15 223.47 150.84 <
5 16 2 -2 39.46 -28.32 79.92 <
5 -16 2 -2 42.72 134.01 124.77 <
5 16 2 -1 58.08 -38.15 74.71 <
5 -16 2 -1 52.41 -226.20 165.89 <
5 16 2 0 29.70 4.62 58.18 <
-5 -17 2 2 108.01 28.73 57.41 <
-4 17 2 -2 74.52 234.02 120.15 <
-4 -17 2 -2 64.37 15.70 83.71 <
-4 17 2 -1 50.63 69.97 62.15 <
-4 -17 2 -1 36.67 290.01 183.37 <
-4 17 2 0 225.85 406.31 145.68 <
-4 -17 2 0 240.49 389.78 182.89 <
-4 17 2 1 6.76 55.10 58.24 <
-4 -17 2 1 7.25 41.89 122.88 <
-4 17 2 2 268.93 312.93 130.93 <
-4 -17 2 2 261.84 488.60 232.48 <
-3 17 2 -2 67.77 0.36 48.40 <
-3 -17 2 -2 77.07 119.50 136.68 <
-3 17 2 -1 105.15 141.66 59.96 <
-3 -17 2 -1 87.91 347.65 193.62 <
-3 17 2 0 3305.61 2950.19 297.71 o
-3 -17 2 0 3345.95 2632.99 462.29 o
-3 17 2 1 22.00 94.44 69.26 <
-3 -17 2 1 18.82 77.26 144.44 <
-3 17 2 2 458.37 448.31 119.56 o
-3 -17 2 2 453.91 364.95 131.94 <
-2 17 2 -2 144.80 309.26 97.10 o
-2 -17 2 -2 150.13 268.80 137.75 <
-2 17 2 -1 64.63 163.46 73.82 <
-2 -17 2 -1 46.66 -20.38 69.67 <
-2 17 2 0 944.78 1034.55 167.55 o
-2 -17 2 0 949.54 1069.50 285.27 o
-2 17 2 1 7.93 45.26 55.99 <
-2 -17 2 1 12.66 45.86 78.44 <
-2 17 2 2 139.73 160.85 58.71 <
-2 -17 2 2 133.32 137.09 98.23 <
-1 17 2 -2 330.88 330.89 89.58 o
-1 -17 2 -2 310.09 304.17 137.75 <
-1 17 2 -1 1681.99 1694.72 200.72 o
-1 -17 2 -1 1644.05 1798.76 338.65 o
-1 17 2 0 7173.42 6956.44 390.07 o
-1 -17 2 0 7152.87 6382.05 622.73 o
-1 17 2 1 150.21 272.29 86.97 o
-1 -17 2 1 160.83 229.10 130.70 <
-1 17 2 2 540.80 817.83 136.03 o
-1 -17 2 2 522.93 624.39 186.98 o
0 17 2 -2 79.95 150.13 82.59 <
0 -17 2 -2 86.81 165.77 109.60 <
0 17 2 -1 170.46 211.86 91.65 <
0 -17 2 -1 158.41 303.34 152.02 <
0 17 2 0 730.54 1057.47 196.99 o
0 -17 2 0 715.11 1033.66 251.74 o
0 17 2 1 16.03 113.63 95.98 <
0 -17 2 1 25.58 166.12 133.07 <
0 17 2 2 76.07 204.93 97.58 <
0 -17 2 2 86.10 69.38 89.99 <
1 17 2 -2 69.21 145.98 88.75 <
1 17 2 -1 117.38 227.74 106.05 <
1 -17 2 -1 97.51 132.29 95.98 <
1 17 2 0 7400.97 7457.36 531.43 o
1 -17 2 0 7386.32 6815.85 732.34 o
1 17 2 1 1245.51 1163.46 275.61 o
1 -17 2 1 1217.03 1497.97 354.47 o
1 17 2 2 248.94 223.47 113.87 <
1 -17 2 2 251.90 331.01 180.88 <
2 17 2 -2 124.92 138.99 106.76 <
2 -17 2 -2 92.24 90.59 79.74 <
2 17 2 -1 30.63 95.86 89.28 <
2 -17 2 -1 27.71 -92.07 53.91 <
2 17 2 0 711.75 682.98 204.40 o
2 -17 2 0 703.60 659.34 223.89 <
2 17 2 1 8.46 -50.77 62.27 <
2 -17 2 1 10.10 4.03 76.25 <
2 17 2 2 109.94 88.57 48.11 <
2 -17 2 2 107.03 222.53 150.48 <
3 17 2 -2 134.00 -21.98 16.47 <
3 -17 2 -2 128.71 -86.74 112.51 <
3 17 2 -1 203.05 106.05 91.12 <
3 -17 2 -1 205.74 194.98 117.66 <
3 17 2 0 3171.07 2549.46 432.61 o
3 -17 2 0 3198.68 2131.54 435.40 o
3 17 2 1 428.46 550.45 212.81 <
3 -17 2 1 426.79 350.67 154.81 <
3 17 2 2 4.70 13.57 73.41 <
3 -17 2 2 7.28 114.70 89.70 <
4 17 2 -2 78.99 37.15 85.20 <
4 -17 2 -2 60.50 -19.61 42.42 <
4 17 2 -1 26.77 -47.22 24.59 <
4 -17 2 -1 25.64 112.39 133.84 <
4 17 2 0 142.38 333.26 204.81 <
4 -17 2 0 144.82 175.49 131.29 <
4 17 2 1 29.43 90.23 65.35 <
4 -17 2 1 26.40 153.09 171.28 <
4 17 2 2 73.23 76.19 54.74 <
4 -17 2 2 65.31 72.22 97.22 <
5 17 2 -2 25.62 56.99 52.97 <
5 -17 2 -2 25.11 147.64 131.88 <
5 17 2 -1 46.72 42.89 70.50 <
-4 18 2 -2 62.64 7.94 26.60 <
-4 -18 2 -2 59.94 -52.49 106.52 <
-4 18 2 -1 290.08 287.34 134.13 <
-4 -18 2 -1 283.71 147.05 56.88 <
-4 18 2 0 190.82 212.34 114.52 <
-4 -18 2 0 189.35 211.09 164.52 <
-4 18 2 1 13.11 69.85 54.92 <
-4 -18 2 1 10.05 27.90 72.04 <
-4 18 2 2 174.20 109.78 100.36 <
-4 -18 2 2 167.33 44.79 128.92 <
-3 18 2 -2 54.71 -12.32 30.75 <
-3 18 2 -1 373.67 358.61 116.18 o
-3 -18 2 -1 417.54 447.60 197.76 <
-3 18 2 0 409.98 407.96 130.58 o
-3 -18 2 0 406.95 436.34 198.12 <
-3 18 2 1 805.09 453.41 119.44 o
-3 -18 2 1 771.42 512.59 207.42 <
-3 18 2 2 147.44 245.51 79.27 o
-3 -18 2 2 159.86 77.02 102.55 <
-2 18 2 -2 69.84 159.01 84.78 <
-2 -18 2 -2 62.96 346.41 175.78 <
-2 18 2 -1 360.24 461.52 120.68 o
-2 -18 2 -1 377.75 533.62 201.97 <
-2 18 2 0 674.16 821.68 153.45 o
-2 -18 2 0 668.24 699.04 232.84 o
-2 18 2 1 49.05 159.61 70.98 <
-2 -18 2 1 44.20 107.83 111.38 <
-2 18 2 2 176.40 273.00 86.44 o
-2 -18 2 2 176.07 158.72 132.00 <
-1 18 2 -2 66.00 0.30 40.35 <
-1 -18 2 -2 69.86 2.67 15.76 <
-1 18 2 -1 1870.37 2704.38 254.88 o
-1 -18 2 -1 1876.36 2216.91 394.16 o
-1 18 2 0 708.93 1107.71 162.15 o
-1 -18 2 0 720.70 1090.00 278.99 o
-1 18 2 1 1259.41 1120.22 161.21 o
-1 -18 2 1 1195.47 1171.88 290.42 o
-1 18 2 2 57.78 13.98 45.62 <
-1 -18 2 2 64.67 83.77 86.85 <
0 18 2 -2 83.64 44.20 39.93 <
0 -18 2 -2 79.60 29.03 91.65 <
0 18 2 -1 171.72 341.97 132.95 <
0 -18 2 -1 194.28 358.32 160.20 <
0 18 2 0 793.93 918.37 179.81 o
0 -18 2 0 779.92 915.05 237.52 o
0 18 2 1 15.58 51.19 79.27 <
0 -18 2 1 19.82 5.45 74.89 <
0 18 2 2 77.03 110.14 107.65 <
0 -18 2 2 77.66 123.29 66.59 <
1 18 2 -2 47.26 -2.96 50.30 <
1 -18 2 -2 51.77 74.23 123.41 <
1 18 2 -1 1115.70 1301.39 235.21 o
1 -18 2 -1 1120.20 1479.42 352.75 o
1 18 2 0 794.60 1252.27 234.73 o
1 -18 2 0 809.79 1448.20 362.29 o
1 18 2 1 2532.32 2406.14 402.87 o
1 -18 2 1 2546.36 2841.12 486.52 o
1 18 2 2 71.63 -8.18 68.43 <
1 -18 2 2 83.33 163.76 148.71 <
2 18 2 -2 144.37 128.50 96.21 <
2 -18 2 -2 137.38 91.24 97.93 <
2 18 2 -1 393.28 390.43 160.97 <
2 -18 2 -1 409.33 416.50 170.86 <
2 18 2 0 504.64 447.07 172.11 <
2 -18 2 0 498.30 276.62 148.53 <
2 18 2 1 143.30 -0.18 45.15 <
2 -18 2 1 151.35 -91.06 119.32 <
2 18 2 2 87.63 54.15 121.28 <
2 -18 2 2 88.75 -57.41 117.37 <
3 18 2 -2 18.58 60.31 84.54 <
3 -18 2 -2 23.38 91.83 137.51 <
3 18 2 -1 563.13 386.46 191.01 <
3 -18 2 -1 578.77 376.68 205.46 <
3 18 2 0 493.48 379.29 176.20 <
3 -18 2 0 503.96 578.41 229.16 <
3 18 2 1 630.34 571.36 212.34 <
3 -18 2 1 644.01 558.86 243.02 <
3 18 2 2 54.22 68.31 82.29 <
3 -18 2 2 63.51 24.17 48.58 <
4 18 2 -2 158.47 178.45 129.93 <
4 -18 2 -2 147.61 142.43 85.91 <
4 18 2 -1 93.87 249.84 167.31 <
4 -18 2 -1 95.79 122.16 66.59 <
4 18 2 0 104.62 132.24 135.43 <
4 -18 2 0 103.71 -60.31 46.80 <
4 18 2 1 169.57 220.75 166.24 <
4 -18 2 1 170.88 276.68 188.28 <
4 18 2 2 36.94 -131.41 149.00 <
4 -18 2 2 35.15 45.92 55.04 <
5 18 2 -2 48.26 -202.26 141.54 <
-4 19 2 -2 22.61 -24.05 47.46 <
-4 19 2 -1 63.33 69.50 128.80 <
-4 -19 2 -1 62.56 289.30 211.21 <
-4 19 2 0 276.58 219.45 118.02 <
-4 -19 2 0 265.22 178.86 176.43 <
-4 19 2 1 78.71 84.66 69.02 <
-4 -19 2 1 82.26 65.64 123.05 <
-4 19 2 2 22.31 102.55 68.49 <
-4 -19 2 2 22.06 63.04 93.73 <
-3 19 2 -2 19.73 -84.31 57.35 <
-3 19 2 -1 117.82 237.52 104.98 <
-3 -19 2 -1 112.25 161.80 113.34 <
-3 19 2 0 224.49 148.47 85.37 <
-3 -19 2 0 238.48 334.44 161.15 <
-3 19 2 1 22.38 -7.17 59.36 <
-3 -19 2 1 27.18 -2.49 17.54 <
-3 19 2 2 41.57 -89.34 68.84 <
-3 -19 2 2 54.99 68.25 145.74 <
-2 19 2 -2 464.75 595.54 173.59 o
-2 -19 2 -2 478.69 315.84 151.73 <
-2 19 2 -1 88.87 218.62 89.16 <
-2 -19 2 -1 86.89 209.79 134.01 <
-2 19 2 0 1395.47 1574.75 211.45 o
-2 -19 2 0 1374.42 1412.77 324.01 o
-2 19 2 1 89.57 -0.36 46.51 <
-2 -19 2 1 100.52 -90.11 105.87 <
-2 19 2 2 46.07 68.84 49.65 <
-2 -19 2 2 43.29 -39.75 49.65 <
-1 19 2 -2 64.83 -75.24 61.73 <
-1 -19 2 -2 71.64 7.76 28.67 <
-1 19 2 -1 255.21 209.14 93.43 <
-1 -19 2 -1 292.82 237.87 125.96 <
-1 19 2 0 1841.78 2258.38 305.59 o
-1 -19 2 0 1912.73 1766.35 353.22 o
-1 19 2 1 3.29 -31.46 56.76 <
-1 -19 2 1 9.58 -6.10 72.28 <
-1 19 2 2 53.50 91.06 52.91 <
0 19 2 -2 19.96 41.53 54.80 <
0 -19 2 -2 20.83 -47.22 50.89 <
0 19 2 -1 13.25 60.08 71.09 <
0 -19 2 -1 14.57 192.73 119.91 <
0 19 2 0 330.99 334.62 123.59 <
0 -19 2 0 375.91 319.21 162.39 <
0 19 2 1 196.66 263.29 110.61 <
0 -19 2 1 198.10 288.41 143.67 <
0 19 2 2 57.58 33.30 33.89 <
0 -19 2 2 57.97 60.67 18.96 o
1 19 2 -2 256.21 332.66 115.17 <
1 -19 2 -2 291.67 393.63 216.42 <
1 19 2 -1 5.87 41.35 64.34 <
1 -19 2 -1 8.85 86.14 145.51 <
1 19 2 0 1675.78 1911.14 291.25 o
1 -19 2 0 1761.23 1602.83 362.35 o
1 19 2 1 696.32 728.66 198.53 o
1 -19 2 1 677.90 823.99 281.95 <
1 19 2 2 59.77 -30.33 45.20 <
1 -19 2 2 56.45 112.98 156.29 <
2 19 2 -2 10.20 -21.39 80.99 <
2 -19 2 -2 10.79 -63.16 52.91 <
2 19 2 -1 36.89 114.11 125.96 <
2 -19 2 -1 39.74 20.26 57.47 <
2 19 2 0 1415.24 1115.77 276.68 o
2 -19 2 0 1395.45 941.12 290.13 o
2 19 2 1 228.67 216.54 115.88 <
2 -19 2 1 244.45 349.85 151.91 <
2 19 2 2 115.24 68.84 115.41 <
2 -19 2 2 117.66 251.20 125.96 <
3 19 2 -2 180.09 192.55 132.29 <
3 -19 2 -2 195.93 81.94 105.52 <
3 19 2 -1 141.87 71.09 60.19 <
3 -19 2 -1 146.64 112.68 114.70 <
3 19 2 0 297.56 219.33 134.37 <
3 -19 2 0 319.61 250.43 138.22 <
3 19 2 1 27.43 157.00 126.73 <
3 -19 2 1 24.94 -97.87 67.07 <
3 19 2 2 7.83 -11.32 71.63 <
3 -19 2 2 11.53 133.18 106.64 <
4 19 2 -2 67.99 117.66 109.90 <
4 -19 2 -2 70.65 -12.68 62.03 <
4 19 2 -1 10.65 27.73 60.85 <
4 -19 2 -1 11.92 226.44 170.98 <
4 19 2 0 296.45 243.80 149.06 <
4 -19 2 0 281.98 22.34 62.15 <
4 19 2 1 82.59 176.61 151.96 <
4 -19 2 1 89.83 170.27 152.79 <
-4 20 2 -2 63.61 -21.39 35.73 <
-4 20 2 -1 67.73 -18.78 37.86 <
-4 20 2 0 106.98 34.60 51.19 <
-4 20 2 1 15.73 -39.75 56.64 <
-4 -20 2 1 15.94 102.44 137.04 <
-4 20 2 2 59.04 -75.12 64.40 <
-4 -20 2 2 57.58 -33.89 105.69 <
-3 20 2 -2 27.63 19.37 62.86 <
-3 -20 2 -2 32.26 25.06 28.85 <
-3 20 2 -1 444.08 183.66 112.09 <
-3 -20 2 -1 444.07 535.46 269.51 <
-3 20 2 0 304.91 443.99 123.71 o
-3 -20 2 0 308.32 380.95 166.36 <
-3 20 2 1 7.49 20.62 35.13 <
-3 -20 2 1 13.31 -35.67 25.30 <
-3 20 2 2 160.72 98.05 46.03 <
-3 -20 2 2 166.52 73.76 88.34 <
-2 20 2 -2 124.32 104.86 82.41 <
-2 -20 2 -2 115.75 210.62 188.99 <
-2 20 2 -1 52.64 195.69 107.71 <
-2 -20 2 -1 62.54 189.88 147.11 <
-2 20 2 0 591.62 592.99 129.99 o
-2 -20 2 0 570.40 545.83 234.38 <
-2 20 2 1 67.22 49.23 47.40 <
-2 -20 2 1 88.12 65.94 77.14 <
-2 20 2 2 36.30 148.59 61.73 <
-2 -20 2 2 33.29 17.66 20.26 <
-1 20 2 -2 18.13 49.71 72.46 <
-1 -20 2 -2 20.73 28.32 85.37 <
-1 20 2 -1 23.68 141.66 103.44 <
-1 -20 2 -1 35.87 71.27 88.39 <
-1 20 2 0 292.11 656.86 170.86 o
-1 -20 2 0 293.32 317.14 164.94 <
-1 20 2 1 73.23 203.39 93.67 <
-1 -20 2 1 94.21 206.53 127.61 <
-1 20 2 2 132.65 162.63 83.54 <
-1 -20 2 2 133.06 286.99 159.49 <
0 20 2 -2 15.74 122.34 93.67 <
0 -20 2 -2 12.60 185.38 97.87 <
0 20 2 -1 3.60 237.75 130.99 <
0 -20 2 -1 9.88 -99.53 91.48 <
0 20 2 0 39.78 14.34 46.98 <
0 -20 2 0 18.10 114.34 133.01 <
0 20 2 1 151.50 223.89 117.07 <
0 -20 2 1 147.95 539.55 210.09 <
0 20 2 2 51.95 268.86 122.22 <
0 -20 2 2 44.65 236.39 131.64 <
1 20 2 -2 16.20 -8.47 95.15 <
1 -20 2 -2 19.02 -66.59 43.01 <
1 20 2 -1 475.14 655.97 176.08 o
1 -20 2 -1 491.51 697.44 274.31 <
1 20 2 0 214.00 338.41 132.18 <
1 -20 2 0 214.39 463.24 215.95 <
1 20 2 1 134.14 222.11 120.33 <
1 -20 2 1 116.05 139.94 148.05 <
1 20 2 2 98.52 157.24 130.81 <
1 -20 2 2 75.50 179.22 183.54 <
2 20 2 -2 110.24 146.99 91.71 <
2 -20 2 -2 97.20 120.39 95.56 <
2 20 2 -1 4.13 10.78 74.95 <
2 -20 2 -1 6.80 7.64 111.56 <
2 20 2 0 423.51 537.00 206.89 <
2 -20 2 0 409.81 416.56 197.29 <
2 20 2 1 300.67 266.84 153.74 <
2 -20 2 1 319.41 143.20 59.01 <
2 20 2 2 138.30 42.89 102.32 <
2 -20 2 2 129.28 148.94 109.07 <
3 20 2 -2 65.19 119.38 104.75 <
3 -20 2 -2 69.96 389.42 177.85 <
3 20 2 -1 167.60 132.77 131.47 <
3 -20 2 -1 177.63 -39.16 137.92 <
3 20 2 0 311.46 165.35 139.23 <
3 -20 2 0 312.06 372.36 201.73 <
3 20 2 1 17.20 199.18 146.16 <
3 -20 2 1 17.63 -58.36 114.11 <
3 20 2 2 19.29 54.21 205.05 <
3 -20 2 2 16.05 41.47 62.03 <
4 20 2 -2 86.31 78.92 103.80 <
4 -20 2 -2 76.57 -20.91 46.03 <
4 20 2 -1 7.29 -78.20 81.05 <
4 -20 2 -1 4.94 77.67 85.91 <
4 20 2 0 37.73 68.19 66.95 <
-4 21 2 0 25.96 139.64 143.02 <
-4 21 2 1 71.96 57.59 9.24 o
-4 21 2 2 101.34 266.37 164.23 <
-4 -21 2 2 94.21 332.31 195.69 <
-3 21 2 -2 37.27 -15.23 63.51 <
-3 -21 2 -2 35.04 86.68 49.00 <
-3 21 2 -1 21.60 -53.20 72.75 <
-3 -21 2 -1 25.01 134.31 167.78 <
-3 21 2 0 205.56 168.14 85.14 <
-3 -21 2 0 214.54 244.33 163.34 <
-3 21 2 1 75.74 -20.02 70.27 <
-3 -21 2 1 78.20 60.37 86.02 <
-3 21 2 2 13.70 82.11 88.87 <
-3 -21 2 2 12.03 21.98 54.09 <
-2 21 2 -2 94.11 39.81 65.23 <
-2 -21 2 -2 89.14 291.96 180.70 <
-2 21 2 -1 135.81 212.87 120.80 <
-2 -21 2 -1 132.34 297.83 193.79 <
-2 21 2 0 254.04 345.82 128.33 <
-2 -21 2 0 282.61 393.39 180.17 <
-2 21 2 1 132.69 171.52 110.49 <
-2 -21 2 1 125.84 129.93 116.60 <
-2 21 2 2 263.76 294.33 105.93 <
-2 -21 2 2 240.98 141.54 81.52 <
-1 21 2 -2 156.22 16.59 67.84 <
-1 -21 2 -2 164.74 -2.37 54.51 <
-1 21 2 -1 52.77 58.95 58.89 <
-1 -21 2 -1 53.23 75.18 36.26 <
-1 21 2 0 409.25 505.07 157.65 o
-1 -21 2 0 399.65 595.18 211.98 <
-1 21 2 1 50.28 187.27 122.70 <
-1 -21 2 1 56.91 92.13 108.54 <
-1 21 2 2 43.53 173.95 94.32 <
-1 -21 2 2 51.50 65.23 96.87 <
0 21 2 -2 153.08 219.09 116.77 <
0 -21 2 -2 144.82 79.74 52.02 <
0 21 2 -1 111.83 266.66 117.43 <
0 -21 2 -1 107.80 130.10 109.78 <
0 21 2 0 175.56 289.59 126.79 <
0 -21 2 0 199.97 330.65 145.33 <
0 21 2 1 146.52 332.55 143.32 <
0 -21 2 1 145.25 144.20 96.63 <
0 21 2 2 297.57 406.19 147.82 <
0 -21 2 2 271.83 331.18 173.89 <
1 21 2 -2 45.01 169.09 100.18 <
1 -21 2 -2 50.62 68.84 25.77 <
1 21 2 -1 28.16 -19.91 49.59 <
1 -21 2 -1 26.40 112.15 123.23 <
1 21 2 0 420.20 419.76 149.71 <
1 -21 2 0 408.01 581.20 246.34 <
1 21 2 1 4.91 252.21 147.70 <
1 -21 2 1 6.33 156.17 134.78 <
1 21 2 2 155.85 224.24 128.86 <
1 -21 2 2 158.48 532.97 257.72 <
2 21 2 -2 253.71 208.31 118.55 <
2 -21 2 -2 244.22 193.55 133.18 <
2 21 2 -1 109.54 104.27 70.86 <
2 -21 2 -1 110.72 57.41 91.53 <
2 21 2 0 264.21 129.63 80.99 <
2 -21 2 0 286.62 122.52 31.93 o
2 21 2 1 132.04 282.96 149.24 <
2 -21 2 1 128.00 106.52 72.28 <
2 21 2 2 78.96 69.55 88.57 <
2 -21 2 2 70.32 -102.73 120.86 <
3 21 2 -2 56.04 193.32 120.68 <
3 -21 2 -2 59.15 -79.92 46.09 <
3 21 2 -1 56.78 -104.98 105.99 <
3 -21 2 -1 57.76 -80.75 90.71 <
3 21 2 0 234.41 584.64 222.47 <
3 -21 2 0 241.33 119.91 33.06 o
3 21 2 1 3.38 -10.07 55.93 <
3 -21 2 1 3.99 6.22 64.46 <
3 21 2 2 62.47 74.41 21.21 o
3 -21 2 2 54.33 -141.89 115.29 <
4 21 2 -2 175.58 67.42 103.09 <
4 -21 2 -2 171.44 100.95 39.16 <
4 21 2 -1 44.82 53.50 97.28 <
-4 22 2 2 4.89 -97.76 97.04 <
-3 22 2 -2 20.80 122.64 97.99 <
-3 -22 2 -2 21.15 260.92 222.05 <
-3 22 2 -1 36.01 31.16 39.28 <
-3 -22 2 -1 42.06 21.33 91.53 <
-3 22 2 0 200.19 -5.69 38.87 <
-3 -22 2 0 203.39 73.82 147.88 <
-3 22 2 1 20.44 -137.21 138.75 <
-3 -22 2 1 19.93 63.69 57.11 <
-3 22 2 2 3.64 127.38 81.29 <
-3 -22 2 2 3.77 -94.73 126.67 <
-2 22 2 -2 109.97 124.12 117.90 <
-2 -22 2 -2 104.74 236.69 148.41 <
-2 22 2 -1 64.06 117.25 93.31 <
-2 -22 2 -1 55.92 105.75 127.38 <
-2 22 2 0 223.44 197.94 96.69 <
-2 -22 2 0 221.79 208.13 129.04 <
-2 22 2 1 506.31 283.49 136.62 <
-2 -22 2 1 488.95 312.76 161.56 <
-2 22 2 2 23.90 56.58 54.03 <
-2 -22 2 2 22.58 72.28 90.82 <
-1 22 2 -2 53.54 98.70 65.17 <
-1 -22 2 -2 51.08 104.57 26.60 o
-1 22 2 -1 192.54 423.31 158.19 <
-1 -22 2 -1 220.12 346.05 191.72 <
-1 22 2 0 336.13 398.96 140.00 <
-1 -22 2 0 338.03 394.58 184.13 <
-1 22 2 1 35.56 30.93 62.86 <
-1 -22 2 1 36.19 -16.59 53.50 <
-1 22 2 2 12.12 -44.73 87.45 <
-1 -22 2 2 12.56 7.23 36.61 <
0 22 2 -2 20.38 90.29 49.94 <
0 -22 2 -2 17.91 7.52 103.50 <
0 22 2 -1 38.67 19.55 59.60 <
0 -22 2 -1 35.90 44.20 97.52 <
0 22 2 0 143.67 136.21 72.16 <
0 -22 2 0 148.74 233.07 142.37 <
0 22 2 1 278.72 324.73 129.39 <
0 -22 2 1 277.02 291.90 152.26 <
0 22 2 2 62.69 107.89 89.88 <
0 -22 2 2 58.85 217.85 133.30 <
1 22 2 -2 11.01 -4.74 58.77 <
1 -22 2 -2 13.11 -56.11 117.96 <
1 22 2 -1 24.04 76.49 85.97 <
1 -22 2 -1 32.28 68.96 126.01 <
1 22 2 0 251.26 354.70 146.69 <
1 -22 2 0 255.46 235.68 208.84 <
1 22 2 1 87.51 95.68 67.60 <
1 -22 2 1 84.12 3.91 39.34 <
1 22 2 2 1.69 45.74 58.77 <
1 -22 2 2 1.92 226.97 202.21 <
2 22 2 -2 11.76 69.50 46.63 <
2 -22 2 -2 13.49 45.20 99.41 <
2 22 2 -1 240.42 278.81 143.91 <
2 -22 2 -1 244.93 258.19 187.45 <
2 22 2 0 389.94 408.62 173.35 <
2 -22 2 0 387.65 282.90 210.26 <
2 22 2 1 275.63 252.68 122.99 <
2 -22 2 1 276.50 -5.87 24.23 <
2 22 2 2 171.42 143.43 98.70 <
2 -22 2 2 170.57 157.89 128.98 <
3 22 2 -2 24.22 115.82 96.16 <
3 -22 2 -2 27.39 20.44 102.08 <
3 22 2 -1 47.45 110.85 81.40 <
3 -22 2 -1 52.52 -17.60 26.48 <
3 22 2 0 83.84 245.10 146.69 <
3 -22 2 0 83.75 177.85 126.13 <
3 22 2 1 75.63 -23.34 39.22 <
3 -22 2 1 72.99 174.12 165.12 <
4 22 2 -2 15.87 57.59 74.53 <
-3 23 2 -1 36.48 111.97 133.12 <
-3 23 2 0 87.96 46.09 82.65 <
-3 -23 2 0 88.67 45.92 128.86 <
-3 23 2 1 80.49 30.16 39.87 <
-3 23 2 2 5.63 54.21 74.53 <
-3 -23 2 2 8.40 -21.03 31.22 <
-2 23 2 -2 90.71 -47.75 75.00 <
-2 -23 2 -2 80.03 36.32 55.45 <
-2 23 2 -1 114.03 167.61 98.70 <
-2 -23 2 -1 99.07 202.15 132.65 <
-2 23 2 0 995.63 982.17 293.38 o
-2 -23 2 0 1014.30 771.97 266.13 <
-2 23 2 1 14.71 -18.01 88.93 <
-2 -23 2 1 10.25 273.24 175.84 <
-2 23 2 2 141.34 83.89 42.83 <
-2 -23 2 2 157.67 194.38 142.43 <
-1 23 2 -2 69.79 51.25 63.93 <
-1 -23 2 -2 69.44 -68.67 89.46 <
-1 23 2 -1 13.96 135.91 71.57 <
-1 -23 2 -1 22.92 -4.74 75.06 <
-1 23 2 0 261.96 331.12 123.47 <
-1 -23 2 0 273.66 380.48 200.25 <
-1 23 2 1 49.81 66.59 99.06 <
-1 -23 2 1 48.34 54.03 79.80 <
-1 23 2 2 8.87 57.65 64.10 <
-1 -23 2 2 14.51 -10.96 65.82 <
0 23 2 -2 93.81 283.08 112.33 <
0 -23 2 -2 85.07 215.95 149.71 <
0 23 2 -1 87.70 140.06 93.90 <
0 -23 2 -1 73.97 227.80 160.73 <
0 23 2 0 615.14 688.20 177.14 o
0 -23 2 0 624.91 531.08 207.24 <
0 23 2 1 122.99 63.51 59.78 <
0 -23 2 1 107.84 112.21 85.08 <
0 23 2 2 61.03 110.26 57.11 <
0 -23 2 2 65.08 94.50 83.18 <
1 23 2 -2 43.37 11.97 71.45 <
1 -23 2 -2 43.12 210.20 116.12 <
1 23 2 -1 82.21 191.90 98.29 <
1 -23 2 -1 82.30 222.59 120.45 <
1 23 2 0 234.96 292.26 137.86 <
1 -23 2 0 251.44 316.43 113.10 <
1 23 2 1 77.93 24.35 71.75 <
1 -23 2 1 82.97 180.23 104.92 <
1 23 2 2 81.66 -10.01 51.78 <
1 -23 2 2 97.16 -135.08 91.18 <
2 23 2 -2 107.82 168.55 72.64 <
2 -23 2 -2 100.00 369.57 180.46 <
2 23 2 -1 42.38 73.52 102.20 <
2 -23 2 -1 40.20 139.76 138.93 <
2 23 2 0 998.73 1469.71 300.61 o
2 -23 2 0 1019.63 1300.26 359.50 o
2 23 2 1 98.63 94.56 93.73 <
2 -23 2 1 87.20 91.24 132.29 <
2 23 2 2 67.28 233.13 130.46 <
2 -23 2 2 64.81 46.09 130.34 <
3 23 2 -2 70.30 83.24 53.14 <
3 23 2 -1 45.77 4.50 72.28 <
3 -23 2 -1 46.13 172.35 151.14 <
3 23 2 0 67.71 202.38 151.85 <
-3 24 2 1 29.42 -116.06 105.16 <
-3 24 2 2 11.64 -76.49 95.92 <
-3 -24 2 2 13.23 152.08 135.55 <
-2 24 2 -2 50.33 73.35 64.76 <
-2 -24 2 -2 55.52 8.24 43.01 <
-2 24 2 -1 460.40 682.03 203.39 o
-2 -24 2 -1 442.87 705.79 276.14 <
-2 24 2 0 51.16 222.76 114.64 <
-2 -24 2 0 49.12 133.42 133.90 <
-2 24 2 1 100.92 -21.57 39.04 <
-2 -24 2 1 114.07 30.81 53.08 <
-2 24 2 2 45.74 29.15 65.17 <
-2 -24 2 2 45.48 209.32 177.38 <
-1 24 2 -2 17.22 60.55 57.17 <
-1 -24 2 -2 16.23 60.90 66.24 <
-1 24 2 -1 61.40 29.03 68.72 <
-1 -24 2 -1 81.80 70.74 65.64 <
-1 24 2 0 47.25 25.48 48.94 <
-1 -24 2 0 41.36 94.14 133.95 <
-1 24 2 1 97.71 14.22 49.77 <
-1 -24 2 1 106.00 76.78 66.77 <
-1 24 2 2 15.71 96.93 112.63 <
-1 -24 2 2 12.78 52.85 15.82 o
0 24 2 -2 18.79 157.65 117.72 <
0 -24 2 -2 19.40 45.15 71.81 <
0 24 2 -1 408.94 835.01 221.70 o
0 -24 2 -1 397.01 345.05 176.49 <
0 24 2 0 49.14 28.73 38.81 <
0 -24 2 0 55.81 178.09 132.18 <
0 24 2 1 244.88 425.86 161.44 <
0 -24 2 1 250.08 293.98 135.08 <
0 24 2 2 56.42 -28.26 77.02 <
0 -24 2 2 53.74 131.29 80.34 <
1 24 2 -2 58.43 117.90 93.96 <
1 -24 2 -2 52.36 173.65 103.32 <
1 24 2 -1 67.78 135.85 92.84 <
1 -24 2 -1 81.66 36.14 72.10 <
1 24 2 0 49.17 106.05 109.13 <
1 -24 2 0 42.36 34.36 79.80 <
1 24 2 1 29.11 17.12 43.55 <
1 -24 2 1 58.86 43.43 95.62 <
1 24 2 2 57.88 202.68 101.13 <
1 -24 2 2 53.72 161.98 200.96 <
2 24 2 -2 19.59 -84.96 60.25 <
2 -24 2 -2 21.90 -29.74 78.92 <
2 24 2 -1 227.45 199.95 141.71 <
2 -24 2 -1 229.92 134.31 123.11 <
2 24 2 0 34.07 195.98 111.74 <
2 -24 2 0 31.07 176.73 125.01 <
2 24 2 1 118.62 108.30 92.30 <
2 -24 2 1 120.07 141.54 143.97 <
2 24 2 2 47.02 118.61 156.35 <
3 24 2 -2 35.39 4.44 63.39 <
3 -24 2 -2 29.01 207.77 183.54 <
3 24 2 -1 10.58 126.85 167.19 <
-2 25 2 -2 12.85 156.05 116.48 <
-2 25 2 -1 7.50 48.52 93.13 <
-2 -25 2 -1 7.59 -14.10 77.91 <
-2 25 2 0 3.89 -105.22 94.79 <
-2 -25 2 0 5.98 -77.97 79.92 <
-2 25 2 1 2.75 42.42 55.81 <
-2 -25 2 1 2.87 -7.82 49.11 <
-2 25 2 2 12.92 224.07 124.71 <
-2 -25 2 2 12.21 52.37 65.88 <
-1 25 2 -2 58.67 130.70 112.09 <
-1 -25 2 -2 66.54 -40.05 57.94 <
-1 25 2 -1 22.79 18.43 72.40 <
-1 -25 2 -1 27.11 -26.36 96.57 <
-1 25 2 0 238.48 416.20 157.53 <
-1 -25 2 0 257.71 344.04 172.58 <
-1 25 2 1 39.69 53.14 46.98 <
-1 -25 2 1 35.94 136.56 115.88 <
-1 25 2 2 44.16 119.14 80.10 <
-1 -25 2 2 32.79 -58.89 49.71 <
0 25 2 -2 104.24 435.63 174.60 <
0 -25 2 -2 109.65 307.48 186.86 <
0 25 2 -1 13.52 98.23 108.24 <
0 -25 2 -1 14.33 83.30 96.27 <
0 25 2 0 60.30 204.75 127.91 <
0 -25 2 0 57.81 92.84 105.93 <
0 25 2 1 14.38 64.46 79.27 <
0 -25 2 1 17.40 31.58 67.07 <
0 25 2 2 80.65 175.37 126.67 <
0 -25 2 2 82.95 149.83 114.46 <
1 25 2 -2 35.11 26.07 56.22 <
1 -25 2 -2 38.70 222.88 113.93 <
1 25 2 -1 205.85 310.33 151.91 <
1 -25 2 -1 202.59 211.51 111.14 <
1 25 2 0 209.36 194.03 113.22 <
1 -25 2 0 222.20 224.01 164.35 <
1 25 2 1 339.50 378.70 150.37 <
1 -25 2 1 325.84 401.57 229.99 <
1 25 2 2 73.66 77.67 114.94 <
1 -25 2 2 64.51 40.05 104.86 <
2 25 2 -2 90.57 107.29 110.67 <
2 -25 2 -2 99.94 236.09 184.79 <
2 25 2 -1 18.22 38.09 59.25 <
2 -25 2 -1 17.96 129.21 173.18 <
2 25 2 0 11.46 8.89 65.64 <
-2 26 2 1 13.34 22.22 66.83 <
-2 26 2 2 29.44 277.03 231.35 <
-2 -26 2 2 26.68 18.66 45.50 <
-1 26 2 -2 2.69 -38.39 61.32 <
-1 -26 2 -2 3.18 -134.49 153.51 <
-1 26 2 -1 8.65 87.39 116.24 <
-1 -26 2 -1 5.65 11.08 40.05 <
-1 26 2 0 75.09 8.53 88.16 <
-1 -26 2 0 74.71 27.08 63.16 <
-1 26 2 1 9.97 64.70 82.77 <
-1 -26 2 1 10.47 -0.83 56.94 <
-1 26 2 2 13.36 75.00 89.64 <
-1 -26 2 2 11.62 -28.85 34.84 <
0 26 2 -2 40.24 93.67 103.62 <
0 -26 2 -2 42.46 31.81 62.44 <
0 26 2 -1 388.98 440.31 164.17 <
0 -26 2 -1 383.87 336.87 121.93 <
0 26 2 0 36.83 101.96 77.85 <
0 -26 2 0 36.71 61.79 70.62 <
0 26 2 1 235.91 438.65 166.36 <
0 -26 2 1 227.48 178.80 115.29 <
0 26 2 2 27.22 51.72 102.26 <
0 -26 2 2 27.49 -15.82 6.34 <
1 26 2 -2 26.15 59.36 60.55 <
1 -26 2 -2 24.82 55.22 95.39 <
1 26 2 -1 8.52 103.86 89.99 <
1 -26 2 -1 4.57 2.96 26.54 <
1 26 2 0 49.51 83.54 72.87 <
1 -26 2 0 49.77 -150.48 157.24 <
-1 -27 2 1 19.29 -3.85 109.60 <
-1 -27 2 2 62.63 53.56 101.07 <
0 -27 2 -2 11.90 2.90 69.02 <
0 -27 2 -1 128.97 50.36 76.78 <
0 -27 2 0 82.75 47.81 76.78 <
1 -27 2 -2 66.84 73.35 82.77 <
-6 0 3 0 6.65 74.06 106.40 <
-6 0 3 1 16.99 51.13 96.04 <
-6 0 3 2 157.55 341.61 180.58 <
-5 0 3 -2 3.48 19.67 83.12 <
-5 0 3 -1 2074.41 3679.27 508.86 o
-5 0 3 0 6.32 34.48 72.69 <
-5 0 3 1 191.36 73.35 55.04 <
-5 0 3 2 88.84 49.53 47.28 <
-4 0 3 -2 125.27 110.38 76.66 <
-4 0 3 -1 517.68 591.69 121.87 o
-4 0 3 0 44.85 135.43 70.86 <
-4 0 3 1 17.99 16.71 47.16 <
-4 0 3 2 229.80 35.84 24.94 <
-3 0 3 -2 24.24 -10.78 38.51 <
-3 0 3 -1 451.53 655.79 123.94 o
-3 0 3 0 64.19 -0.95 26.36 <
-3 0 3 1 1910.80 2469.95 232.42 o
-3 0 3 2 82.07 248.24 82.71 o
-2 0 3 -2 281.45 206.47 72.22 <
-2 0 3 -1 1021.22 1112.22 136.21 o
-2 0 3 0 86.47 124.77 42.78 <
-2 0 3 1 280.82 415.61 92.19 o
-2 0 3 2 118.67 18.84 13.57 <
-1 0 3 -2 90.59 131.70 37.44 o
-1 0 3 -1 29880.40 34078.80 601.46 o
-1 0 3 0 17.34 65.88 29.80 <
-1 0 3 1 90.36 43.60 27.43 <
-1 0 3 2 30.19 64.64 33.59 <
0 0 3 -2 7.75 32.59 19.55 <
0 0 3 -1 56.25 7.64 9.12 <
0 0 3 1 1640.94 2242.45 245.93 o
0 0 3 2 31.65 -14.63 26.90 <
1 0 3 -2 9.79 53.56 19.73 <
1 0 3 -1 871.96 462.29 51.19 o
1 0 3 0 31.18 32.17 16.23 <
1 0 3 1 9868.61 12426.10 429.00 o
1 0 3 2 36.70 117.31 54.51 <
2 0 3 -2 635.69 657.92 97.70 o
2 0 3 -1 2117.04 2249.56 153.98 o
2 0 3 0 296.75 143.79 42.06 o
2 0 3 1 2473.60 3803.74 254.34 o
2 0 3 2 11.78 196.10 73.58 <
3 0 3 -2 53.07 72.81 39.93 <
3 0 3 -1 207.16 43.13 46.33 <
3 0 3 0 89.74 169.50 71.57 <
3 0 3 1 1866.36 2094.27 215.65 o
3 0 3 2 7.57 28.32 42.95 <
4 0 3 -2 616.12 958.53 193.08 o
4 0 3 -1 1741.70 1529.96 213.34 o
4 0 3 0 115.20 35.73 45.09 <
4 0 3 1 1137.13 1075.84 175.84 o
4 0 3 2 65.72 109.07 55.34 <
5 0 3 -2 37.37 116.18 75.24 <
5 0 3 -1 293.71 227.21 93.79 <
5 0 3 0 28.87 219.80 92.19 <
5 0 3 1 1.83 237.63 171.28 <
5 0 3 2 13.04 140.06 127.38 <
6 0 3 -2 53.53 -9.83 49.65 <
6 0 3 -1 349.91 108.72 160.20 <
6 0 3 0 31.48 206.23 182.42 <
-6 1 3 0 148.70 108.72 44.14 <
-6 -1 3 0 154.56 122.16 96.16 <
-6 1 3 1 29.45 -55.34 81.70 <
-6 -1 3 1 27.83 128.33 110.49 <
-6 1 3 2 69.66 164.05 119.97 <
-6 -1 3 2 73.12 56.82 78.56 <
-5 1 3 -2 127.99 14.52 60.13 <
-5 -1 3 -2 125.73 223.36 98.47 <
-5 1 3 -1 76.30 141.83 72.69 <
-5 -1 3 -1 94.48 58.65 70.32 <
-5 1 3 0 1229.59 1151.08 199.95 o
-5 -1 3 0 1202.73 1220.16 292.79 o
-5 1 3 1 944.89 1036.74 198.47 o
-5 -1 3 1 996.61 943.37 185.56 o
-5 1 3 2 192.60 120.03 73.41 <
-5 -1 3 2 218.38 58.36 50.77 <
-4 1 3 -2 39.35 121.81 58.24 <
-4 -1 3 -2 37.01 38.21 40.11 <
-4 1 3 -1 76.10 194.03 74.83 <
-4 -1 3 -1 117.95 161.03 63.87 <
-4 1 3 0 1316.64 2215.61 252.74 o
-4 -1 3 0 1318.50 2025.07 238.46 o
-4 1 3 1 36.31 51.66 43.90 <
-4 -1 3 1 31.92 55.87 52.79 <
-4 1 3 2 367.59 43.96 58.36 <
-4 -1 3 2 380.27 72.40 54.03 <
-3 1 3 -2 307.31 124.71 66.77 <
-3 -1 3 -2 284.67 201.08 67.42 <
-3 1 3 -1 478.64 439.72 103.03 o
-3 -1 3 -1 524.17 610.76 119.44 o
-3 1 3 0 4270.07 5693.09 353.52 o
-3 -1 3 0 4238.80 5502.14 340.25 o
-3 1 3 1 2909.76 3412.84 278.39 o
-3 -1 3 1 2994.37 3497.15 277.51 o
-3 1 3 2 331.52 97.28 41.89 <
-3 -1 3 2 359.17 29.33 55.75 <
-2 1 3 -2 167.87 143.26 48.58 <
-2 -1 3 -2 164.18 169.80 55.39 o
-2 1 3 -1 281.45 281.12 50.89 o
-2 -1 3 -1 352.93 320.76 70.98 o
-2 1 3 0 4779.24 5372.21 215.65 o
-2 -1 3 0 4741.18 5979.12 301.20 o
-2 1 3 1 55.93 78.03 28.62 <
-2 -1 3 1 46.20 130.81 56.52 <
-2 1 3 2 222.98 33.18 25.12 <
-2 -1 3 2 224.53 15.46 40.82 <
-1 1 3 -2 86.95 18.66 14.16 <
-1 -1 3 -2 75.89 48.58 31.52 <
-1 1 3 -1 1025.21 1509.04 112.86 o
-1 -1 3 -1 1029.73 1741.70 160.38 o
-1 1 3 0 4796.79 4384.17 154.22 o
-1 -1 3 0 4831.06 4922.42 223.47 o
-1 1 3 1 2147.88 1696.44 136.92 o
-1 -1 3 1 2130.80 1847.93 146.40 o
-1 1 3 2 152.32 55.63 39.81 <
-1 -1 3 2 161.52 44.38 29.33 <
0 1 3 -2 14.21 -6.99 13.03 <
0 -1 3 -2 13.48 21.09 20.32 <
0 1 3 -1 56.37 33.95 17.77 <
0 -1 3 -1 57.17 34.24 25.06 <
0 1 3 0 4645.87 3766.78 184.96 o
0 -1 3 0 4675.58 4774.90 184.43 o
0 1 3 1 951.75 796.44 98.82 o
0 -1 3 1 887.12 1108.78 169.38 o
0 1 3 2 22.88 21.21 14.10 <
0 -1 3 2 22.17 40.41 45.74 <
1 1 3 -2 45.48 55.75 30.04 <
1 -1 3 -2 43.80 54.15 24.41 <
1 1 3 -1 1124.01 1213.05 89.82 o
1 -1 3 -1 1234.59 1062.81 68.84 o
1 1 3 0 6404.47 7019.36 224.60 o
1 -1 3 0 6450.50 6218.60 241.96 o
1 1 3 1 2998.64 3742.01 184.55 o
1 -1 3 1 3069.52 3140.08 187.99 o
1 1 3 2 128.64 108.72 46.57 <
1 -1 3 2 119.92 117.13 50.54 <
2 1 3 -2 363.47 224.66 52.67 o
2 -1 3 -2 368.46 236.39 61.26 o
2 1 3 -1 167.09 47.10 29.56 <
2 -1 3 -1 216.50 77.55 44.32 <
2 1 3 0 4432.16 5506.40 239.95 o
2 -1 3 0 4509.39 5204.37 279.82 o
2 1 3 1 647.23 986.79 114.88 o
2 -1 3 1 609.89 1014.82 133.48 o
2 1 3 2 381.86 242.85 61.20 o
2 -1 3 2 393.52 270.10 84.01 o
3 1 3 -2 167.39 123.82 55.99 <
3 -1 3 -2 189.68 54.98 52.91 <
3 1 3 -1 1225.86 880.09 112.15 o
3 -1 3 -1 1409.82 851.00 143.55 o
3 1 3 0 5792.51 6704.94 362.88 o
3 -1 3 0 5747.60 6569.74 379.47 o
3 1 3 1 669.51 789.09 135.14 o
3 -1 3 1 671.45 885.19 154.16 o
3 1 3 2 47.21 86.56 58.89 <
3 -1 3 2 49.91 97.70 62.09 <
4 1 3 -2 387.51 248.24 106.76 <
4 -1 3 -2 394.07 280.11 102.73 <
4 1 3 -1 120.77 30.69 48.40 <
4 -1 3 -1 156.48 126.19 51.19 <
4 1 3 0 1340.02 1948.94 233.25 o
4 -1 3 0 1372.57 2170.23 254.40 o
4 1 3 1 315.55 495.17 117.43 o
4 -1 3 1 316.62 645.96 146.99 o
4 1 3 2 93.93 97.70 68.13 <
4 -1 3 2 108.62 194.80 93.49 <
5 1 3 -2 114.16 86.74 73.29 <
5 -1 3 -2 135.44 66.36 77.08 <
5 1 3 -1 291.74 154.87 91.36 <
5 -1 3 -1 356.82 231.12 91.06 <
5 1 3 0 1892.56 1933.48 269.21 o
5 -1 3 0 1861.98 1733.29 254.76 o
5 1 3 1 598.88 805.33 281.18 <
5 -1 3 1 599.03 733.40 173.00 o
5 1 3 2 54.02 220.99 165.71 <
5 -1 3 2 61.16 51.31 88.16 <
6 1 3 -2 62.57 70.32 58.83 <
6 -1 3 -2 69.52 126.19 77.02 <
6 1 3 -1 33.09 123.41 162.33 <
6 -1 3 -1 45.78 175.25 130.34 <
6 1 3 0 166.89 473.08 235.74 <
6 -1 3 0 174.80 376.09 205.46 <
-6 2 3 0 6.48 125.66 122.22 <
-6 -2 3 0 6.90 20.38 30.45 <
-6 2 3 1 36.31 11.79 48.05 <
-6 -2 3 1 29.43 233.55 176.67 <
-6 2 3 2 106.99 72.34 37.09 <
-6 -2 3 2 109.01 162.51 147.76 <
-5 2 3 -2 96.39 211.74 135.20 <
-5 -2 3 -2 112.94 262.10 125.60 <
-5 2 3 -1 485.96 682.33 154.22 o
-5 -2 3 -1 443.54 901.24 256.42 o
-5 2 3 0 864.73 428.94 126.49 o
-5 -2 3 0 880.78 773.98 235.68 o
-5 2 3 1 103.61 77.14 44.43 <
-5 -2 3 1 86.74 42.89 42.36 <
-5 2 3 2 189.92 36.14 32.47 <
-5 -2 3 2 178.15 90.82 68.90 <
-4 2 3 -2 152.95 388.53 112.80 o
-4 -2 3 -2 144.13 228.27 84.66 <
-4 2 3 -1 993.24 1648.80 214.41 o
-4 -2 3 -1 1024.40 1421.78 193.79 o
-4 2 3 0 37.59 227.92 89.58 <
-4 -2 3 0 54.29 201.73 65.17 o
-4 2 3 1 309.75 205.52 71.33 <
-4 -2 3 1 315.62 88.63 47.28 <
-4 2 3 2 334.11 62.56 66.89 <
-4 -2 3 2 310.06 105.40 63.87 <
-3 2 3 -2 510.85 930.63 118.37 o
-3 -2 3 -2 551.80 880.27 138.93 o
-3 2 3 -1 422.06 400.62 75.24 o
-3 -2 3 -1 383.59 440.08 101.96 o
-3 2 3 0 2777.30 2049.54 157.83 o
-3 -2 3 0 2851.02 2183.97 212.10 o
-3 2 3 1 336.89 68.31 37.86 <
-3 -2 3 1 323.56 13.80 27.61 <
-3 2 3 2 350.75 1.30 14.04 <
-3 -2 3 2 347.89 21.62 16.06 <
-2 2 3 -2 827.80 653.36 89.58 o
-2 -2 3 -2 859.16 602.35 107.41 o
-2 2 3 -1 1230.07 1793.07 129.87 o
-2 -2 3 -1 1312.17 2031.29 176.61 o
-2 2 3 0 1498.09 1640.81 119.32 o
-2 -2 3 0 1526.06 1819.91 167.49 o
-2 2 3 1 582.49 439.48 62.86 o
-2 -2 3 1 595.53 583.33 100.12 o
-2 2 3 2 245.84 39.22 23.94 <
-2 -2 3 2 221.47 16.47 10.01 <
-1 2 3 -2 337.20 233.55 44.38 o
-1 -2 3 -2 354.59 212.87 63.22 o
-1 2 3 -1 6564.79 6825.39 199.72 o
-1 -2 3 -1 6392.69 7609.03 291.43 o
-1 2 3 0 5646.21 5214.44 169.50 o
-1 -2 3 0 5742.03 5510.20 234.55 o
-1 2 3 1 148.18 101.67 27.19 o
-1 -2 3 1 143.38 172.46 44.97 o
-1 2 3 2 51.81 34.95 24.82 <
-1 -2 3 2 50.30 -17.42 22.34 <
0 2 3 -2 62.94 69.32 24.94 <
0 -2 3 -2 65.36 22.45 20.56 <
0 2 3 -1 609.87 734.23 67.42 o
0 -2 3 -1 641.97 573.85 76.84 o
0 2 3 0 2658.96 2551.83 129.81 o
0 -2 3 0 2625.88 2652.13 133.42 o
0 2 3 1 197.79 132.59 26.54 o
0 -2 3 1 183.41 190.59 54.51 o
0 2 3 2 15.93 18.31 19.02 <
0 -2 3 2 13.42 16.11 33.71 <
1 2 3 -2 219.99 152.44 57.76 <
1 -2 3 -2 230.83 82.17 55.63 <
1 2 3 -1 65.67 16.23 20.74 <
1 -2 3 -1 62.62 55.04 33.59 <
1 2 3 0 4341.01 3971.05 165.83 o
1 -2 3 0 4383.51 4179.90 204.40 o
1 2 3 1 3944.91 4139.55 185.97 o
1 -2 3 1 3798.91 3976.39 217.25 o
1 2 3 2 109.95 153.51 41.83 o
1 -2 3 2 112.10 153.74 50.95 o
2 2 3 -2 446.27 158.13 47.57 o
2 -2 3 -2 432.46 163.52 56.99 <
2 2 3 -1 61.20 30.57 25.24 <
2 -2 3 -1 59.14 40.88 36.73 <
2 2 3 0 1854.06 1784.12 136.03 o
2 -2 3 0 1852.05 1866.41 170.33 o
2 2 3 1 340.64 361.75 75.30 o
2 -2 3 1 310.65 334.86 84.13 o
2 2 3 2 805.38 500.74 88.57 o
2 -2 3 2 826.52 502.40 109.78 o
3 2 3 -2 339.27 100.66 43.78 <
3 -2 3 -2 358.97 156.11 78.14 <
3 2 3 -1 499.59 202.56 56.22 o
3 -2 3 -1 446.73 223.30 73.58 o
3 2 3 0 1829.43 2083.37 170.80 o
3 -2 3 0 1857.74 1920.68 208.96 o
3 2 3 1 112.82 185.91 60.73 o
3 -2 3 1 97.97 177.62 59.36 <
3 2 3 2 385.74 599.09 108.66 o
3 -2 3 2 404.52 577.05 128.03 o
4 2 3 -2 423.53 211.92 68.07 o
4 -2 3 -2 410.51 240.95 103.09 <
4 2 3 -1 182.67 33.89 48.82 <
4 -2 3 -1 188.88 120.62 62.33 <
4 2 3 0 27.14 175.07 69.38 <
4 -2 3 0 28.75 208.37 94.14 <
4 2 3 1 123.91 245.87 99.24 <
4 -2 3 1 114.31 192.31 82.06 <
4 2 3 2 267.34 519.35 128.27 o
4 -2 3 2 253.65 602.65 142.13 o
5 2 3 -2 129.10 99.12 62.03 <
5 -2 3 -2 133.52 75.12 84.37 <
5 2 3 -1 288.95 11.97 16.53 <
5 2 3 0 436.74 376.39 119.85 o
5 -2 3 0 443.17 359.33 108.83 o
5 2 3 1 112.69 270.87 163.40 <
5 -2 3 1 75.52 315.60 108.24 <
5 2 3 2 78.92 400.92 223.00 <
5 -2 3 2 84.66 187.93 145.15 <
6 2 3 -2 105.41 58.59 66.83 <
6 -2 3 -2 110.08 58.18 72.16 <
6 2 3 -1 69.93 19.79 47.81 <
6 -2 3 -1 70.94 6.04 15.88 <
6 2 3 0 5.16 257.84 196.76 <
6 -2 3 0 4.50 170.92 178.51 <
-6 3 3 0 392.74 374.25 170.86 <
-6 -3 3 0 410.06 529.00 226.08 <
-6 3 3 1 51.96 102.55 103.38 <
-6 -3 3 1 28.00 141.18 117.48 <
-6 3 3 2 189.35 105.75 66.12 <
-6 -3 3 2 168.63 28.67 79.92 <
-5 3 3 -2 26.99 61.97 59.25 <
-5 -3 3 -2 29.61 85.31 96.45 <
-5 3 3 -1 261.20 373.54 122.40 o
-5 -3 3 -1 292.68 289.59 141.12 <
-5 3 3 0 35.85 0.71 37.86 <
-5 -3 3 0 38.59 140.83 109.01 <
-5 3 3 1 203.03 224.72 89.16 <
-5 -3 3 1 197.38 184.79 110.91 <
-5 3 3 2 22.90 13.80 65.64 <
-5 -3 3 2 29.41 43.19 47.57 <
-4 3 3 -2 267.14 690.09 146.10 o
-4 -3 3 -2 288.44 637.36 131.52 o
-4 3 3 -1 356.89 406.60 115.23 o
-4 -3 3 -1 323.64 200.19 75.48 <
-4 3 3 0 4642.92 6274.82 430.83 o
-4 -3 3 0 4713.74 5629.63 381.54 o
-4 3 3 1 342.31 507.73 131.41 o
-4 -3 3 1 244.28 408.80 112.39 o
-4 3 3 2 943.57 173.29 84.48 <
-4 -3 3 2 893.88 146.10 77.79 <
-3 3 3 -2 51.47 191.36 54.15 o
-3 -3 3 -2 44.24 194.21 68.61 <
-3 3 3 -1 503.83 705.56 101.37 o
-3 -3 3 -1 523.60 751.00 123.59 o
-3 3 3 0 77.49 56.58 32.47 <
-3 -3 3 0 113.52 109.13 56.34 <
-3 3 3 1 449.71 250.08 58.59 o
-3 -3 3 1 466.94 300.49 86.50 o
-3 3 3 2 9.58 27.02 31.64 <
-3 -3 3 2 10.15 -2.61 30.51 <
-2 3 3 -2 1744.43 1632.63 130.34 o
-2 -3 3 -2 1710.30 1695.31 172.88 o
-2 3 3 -1 709.27 612.24 74.29 o
-2 -3 3 -1 658.84 640.03 102.61 o
-2 3 3 0 9225.38 9114.93 285.09 o
-2 -3 3 0 9267.14 9996.86 387.64 o
-2 3 3 1 241.45 286.10 57.71 o
-2 -3 3 1 165.82 283.55 74.65 o
-2 3 3 2 879.10 81.58 28.91 <
-2 -3 3 2 841.98 135.14 57.29 <
-1 3 3 -2 84.11 126.37 36.26 o
-1 -3 3 -2 72.55 170.63 58.59 <
-1 3 3 -1 1295.41 1480.25 111.62 o
-1 -3 3 -1 1284.62 1593.94 131.88 o
-1 3 3 0 718.84 811.66 62.74 o
-1 -3 3 0 849.15 732.16 86.32 o
-1 3 3 1 12.43 13.09 15.34 <
-1 -3 3 1 25.34 32.29 30.45 <
-1 3 3 2 43.34 43.90 25.12 <
-1 -3 3 2 43.96 20.50 32.05 <
0 3 3 -2 88.39 37.56 22.51 <
0 -3 3 -2 88.48 51.84 33.89 <
0 3 3 -1 100.88 45.09 23.94 <
0 -3 3 -1 74.97 53.38 24.23 <
0 3 3 0 89524.00 85634.20 775.58 o
0 3 3 1 1129.08 968.90 67.84 o
0 -3 3 1 1126.50 933.47 95.33 o
0 3 3 2 126.73 68.31 29.86 <
0 -3 3 2 117.43 78.56 56.64 <
1 3 3 -2 26.38 39.87 19.91 <
1 -3 3 -2 27.86 17.60 47.46 <
1 3 3 -1 161.35 124.42 45.86 <
1 -3 3 -1 168.48 107.94 37.86 <
1 3 3 0 550.51 663.91 95.09 o
1 -3 3 0 616.69 603.18 85.73 o
1 3 3 1 3620.29 4406.57 256.53 o
1 -3 3 1 3534.89 3955.83 221.93 o
1 3 3 2 38.36 75.72 42.60 <
1 -3 3 2 37.42 73.11 37.86 <
2 3 3 -2 624.15 515.91 76.84 o
2 -3 3 -2 609.85 470.59 92.78 o
2 3 3 -1 1811.58 1457.74 122.40 o
2 -3 3 -1 1677.30 1327.40 142.19 o
2 3 3 0 11821.30 13727.10 366.67 o
2 -3 3 0 11998.50 12674.50 437.05 o
2 3 3 1 1545.68 1969.15 149.89 o
2 -3 3 1 1484.87 1690.51 169.92 o
2 3 3 2 2571.56 2601.06 189.70 o
2 -3 3 2 2444.64 2324.09 218.32 o
3 3 3 -2 110.68 109.43 44.14 <
3 -3 3 -2 113.90 84.07 52.67 <
3 3 3 -1 785.91 805.21 104.45 o
3 -3 3 -1 768.37 748.86 127.61 o
3 3 3 0 73.60 56.40 33.30 <
3 -3 3 0 113.48 -8.77 41.23 <
3 3 3 1 337.36 287.76 68.67 o
3 -3 3 1 294.24 144.03 72.93 <
3 3 3 2 92.53 118.67 47.10 <
3 -3 3 2 82.45 135.97 69.44 <
4 3 3 -2 445.40 447.84 100.12 o
4 -3 3 -2 420.69 625.10 151.14 o
4 3 3 -1 985.30 703.13 117.48 o
4 -3 3 -1 886.47 740.45 158.66 o
4 3 3 0 6243.53 7810.05 373.54 o
4 -3 3 0 6376.20 7323.94 471.65 o
4 3 3 1 536.89 519.82 121.99 o
4 -3 3 1 463.22 594.23 139.17 o
4 3 3 2 24.23 179.28 100.78 <
4 -3 3 2 14.35 125.54 52.43 <
5 3 3 -2 102.50 143.14 78.62 <
5 -3 3 -2 107.18 189.82 87.57 <
5 3 3 -1 190.51 233.31 87.74 <
5 -3 3 -1 178.45 195.04 89.16 <
5 3 3 0 84.00 41.59 84.25 <
5 -3 3 0 88.61 17.83 38.39 <
5 3 3 1 332.76 331.95 159.85 <
5 -3 3 1 300.11 395.52 134.90 <
5 3 3 2 45.23 169.09 112.92 <
5 -3 3 2 41.68 -53.56 78.20 <
6 3 3 -2 175.72 -55.57 47.16 <
6 -3 3 -2 169.27 119.20 82.41 <
6 3 3 -1 220.00 147.05 139.46 <
6 -3 3 -1 193.33 227.44 103.92 <
6 3 3 0 665.53 544.70 243.97 <
6 -3 3 0 695.62 700.16 283.79 <
-6 4 3 1 48.57 -58.12 69.97 <
-6 -4 3 1 52.75 0.24 68.01 <
-6 4 3 2 148.96 156.17 99.41 <
-6 -4 3 2 140.70 28.67 66.59 <
-5 4 3 -2 18.49 34.42 32.11 <
-5 -4 3 -2 16.52 84.60 109.54 <
-5 4 3 -1 318.34 167.01 81.58 <
-5 -4 3 -1 288.91 144.38 85.43 <
-5 4 3 0 32.27 -20.44 47.63 <
-5 -4 3 0 30.31 21.86 102.73 <
-5 4 3 1 84.99 -5.33 26.42 <
-5 4 3 2 53.44 17.54 19.08 <
-5 -4 3 2 46.23 76.37 94.44 <
-4 4 3 -2 257.04 158.07 74.00 <
-4 -4 3 -2 213.94 99.24 98.17 <
-4 4 3 -1 1107.03 1753.14 226.67 o
-4 -4 3 -1 1022.93 1754.38 207.12 o
-4 4 3 0 5107.11 5780.71 410.93 o
-4 -4 3 0 5189.90 4905.59 347.36 o
-4 4 3 1 413.27 346.65 114.34 o
-4 -4 3 1 394.26 287.16 86.44 o
-4 4 3 2 243.04 188.99 84.43 <
-4 -4 3 2 246.56 196.16 85.37 <
-3 4 3 -2 53.53 61.44 44.85 <
-3 -4 3 -2 51.80 63.63 39.04 <
-3 4 3 -1 1179.41 826.71 108.66 o
-3 -4 3 -1 1110.30 845.91 129.75 o
-3 4 3 0 968.74 856.51 105.99 o
-3 -4 3 0 967.67 866.11 129.93 o
-3 4 3 1 354.26 59.54 24.65 <
-3 -4 3 1 374.92 117.84 46.69 <
-3 4 3 2 79.05 11.38 15.70 <
-3 -4 3 2 80.30 7.35 27.96 <
-2 4 3 -2 1727.64 1779.20 140.95 o
-2 -4 3 -2 1814.72 1800.24 179.04 o
-2 4 3 -1 976.48 1109.55 107.18 o
-2 -4 3 -1 904.77 1175.67 137.75 o
-2 4 3 0 21561.20 20552.40 431.78 o
-2 -4 3 0 21607.90 22820.90 584.10 o
-2 4 3 1 1843.16 1416.68 137.98 o
-2 -4 3 1 1755.95 1648.63 170.39 o
-2 4 3 2 162.96 130.22 37.86 o
-2 -4 3 2 167.90 149.65 62.92 <
-1 4 3 -2 97.03 54.21 33.24 <
-1 -4 3 -2 99.33 45.15 29.39 <
-1 4 3 -1 4707.29 4884.80 224.84 o
-1 -4 3 -1 4732.91 5273.87 238.11 o
-1 4 3 0 6225.82 6750.09 200.19 o
-1 -4 3 0 6233.91 6856.43 377.10 o
-1 4 3 1 403.43 338.71 52.79 o
-1 -4 3 1 401.15 236.69 79.03 <
-1 4 3 2 135.84 112.15 45.15 <
-1 -4 3 2 151.00 104.51 51.84 <
0 4 3 -2 316.55 205.58 45.56 o
0 -4 3 -2 308.53 205.58 70.80 <
0 4 3 -1 520.99 462.06 61.73 o
0 -4 3 -1 474.59 421.00 59.01 o
0 4 3 0 35906.30 34372.40 512.00 o
0 -4 3 0 35879.90 34410.40 595.48 o
0 4 3 1 916.19 808.35 89.46 o
0 -4 3 1 871.58 787.49 83.89 o
0 4 3 2 39.28 13.74 13.74 <
0 -4 3 2 42.70 23.28 21.45 <
1 4 3 -2 123.93 54.39 25.18 <
1 -4 3 -2 120.23 6.64 25.48 <
1 4 3 -1 135.42 128.62 33.95 o
1 -4 3 -1 118.26 80.51 62.33 <
1 4 3 0 6582.68 7169.25 307.19 o
1 -4 3 0 6551.05 7120.14 299.61 o
1 4 3 1 3541.92 4259.64 253.04 o
1 -4 3 1 3621.48 4360.48 247.76 o
1 4 3 2 244.08 127.02 62.21 <
1 -4 3 2 238.29 188.58 60.43 o
2 4 3 -2 34.45 26.66 27.85 <
2 -4 3 -2 28.31 35.43 27.37 <
2 4 3 -1 322.20 154.16 46.86 o
2 -4 3 -1 298.56 174.48 61.62 <
2 4 3 0 18279.90 19291.50 434.98 o
2 -4 3 0 18435.10 18881.90 542.39 o
2 4 3 1 646.00 979.57 120.74 o
2 -4 3 1 713.36 1083.07 153.39 o
2 4 3 2 1079.57 944.61 115.00 o
2 -4 3 2 1166.73 922.16 140.06 o
3 4 3 -2 216.64 185.02 56.76 o
3 -4 3 -2 220.84 189.29 76.37 <
3 4 3 -1 1371.63 1709.41 153.86 o
3 -4 3 -1 1319.66 1623.03 194.62 o
3 4 3 0 1189.76 950.42 116.12 o
3 -4 3 0 1180.59 967.24 150.90 o
3 4 3 1 926.23 668.35 98.17 o
3 -4 3 1 967.93 683.34 130.81 o
3 4 3 2 40.09 53.50 40.35 <
3 -4 3 2 40.86 0.47 65.11 <
4 4 3 -2 205.77 195.63 64.87 o
4 -4 3 -2 217.07 197.47 92.48 <
4 4 3 -1 341.77 183.25 64.64 <
4 -4 3 -1 310.91 236.51 108.83 <
4 4 3 0 3641.91 3422.56 248.48 o
4 -4 3 0 3711.90 3477.24 323.72 o
4 4 3 1 451.19 700.22 119.56 o
4 -4 3 1 525.63 780.62 165.29 o
4 4 3 2 123.13 92.48 81.17 <
4 -4 3 2 112.34 127.97 65.82 <
5 4 3 -2 76.43 83.65 64.40 <
5 -4 3 -2 84.62 217.43 105.04 <
5 4 3 -1 317.93 360.39 110.32 o
5 -4 3 -1 293.77 457.32 153.33 <
5 4 3 0 59.16 -37.09 18.37 <
5 -4 3 0 62.13 72.93 55.99 <
5 4 3 1 90.61 -147.34 115.35 <
5 -4 3 1 93.33 50.65 52.49 <
5 4 3 2 69.41 -130.04 96.10 <
5 -4 3 2 63.78 144.44 148.41 <
6 4 3 -2 163.97 109.01 101.31 <
6 -4 3 -2 174.57 19.97 61.14 <
6 4 3 -1 106.57 140.41 138.93 <
6 -4 3 -1 94.23 228.15 110.43 <
6 4 3 0 439.91 260.86 240.83 <
-6 5 3 1 369.64 287.40 169.38 <
-6 -5 3 1 351.60 302.03 134.07 <
-6 5 3 2 135.20 -21.15 25.36 <
-6 -5 3 2 137.62 -55.87 88.22 <
-5 5 3 -2 28.53 37.38 71.21 <
-5 -5 3 -2 30.64 42.78 62.62 <
-5 5 3 -1 128.63 100.54 78.74 <
-5 -5 3 -1 165.06 342.26 152.38 <
-5 5 3 0 159.76 105.69 75.30 <
-5 -5 3 0 159.16 163.10 67.24 <
-5 5 3 1 124.67 168.79 124.59 <
-5 -5 3 1 127.99 49.83 51.72 <
-5 5 3 2 211.40 315.36 172.76 <
-5 -5 3 2 222.79 363.83 188.05 <
-4 5 3 -2 494.32 589.79 135.20 o
-4 -5 3 -2 503.28 663.31 199.12 o
-4 5 3 -1 155.82 130.34 56.82 <
-4 -5 3 -1 143.46 127.56 104.39 <
-4 5 3 0 373.86 154.75 79.86 <
-4 -5 3 0 373.84 135.14 67.95 <
-4 5 3 1 1685.82 1404.77 212.87 o
-4 -5 3 1 1656.79 1187.16 177.85 o
-4 5 3 2 263.44 117.84 109.54 <
-4 -5 3 2 258.87 109.13 55.87 <
-3 5 3 -2 36.58 65.64 36.08 <
-3 -5 3 -2 37.99 68.78 57.11 <
-3 5 3 -1 224.48 323.30 70.62 o
-3 -5 3 -1 285.45 351.56 83.42 o
-3 5 3 0 1258.61 915.70 111.26 o
-3 -5 3 0 1242.14 1090.59 147.82 o
-3 5 3 1 915.10 492.15 103.98 o
-3 -5 3 1 942.98 548.26 114.17 o
-3 5 3 2 239.45 271.29 77.67 o
-3 -5 3 2 252.06 412.23 105.04 o
-2 5 3 -2 2194.05 2380.13 201.38 o
-2 -5 3 -2 2217.79 2492.17 204.63 o
-2 5 3 -1 330.63 305.41 63.45 o
-2 -5 3 -1 307.00 344.93 76.37 o
-2 5 3 0 16379.70 15086.20 695.13 o
-2 -5 3 0 16409.30 16164.90 501.45 o
-2 5 3 1 3091.08 2232.26 183.78 o
-2 -5 3 1 3048.00 2305.54 197.11 o
-2 5 3 2 213.62 174.66 47.93 o
-2 -5 3 2 206.90 264.95 75.54 o
-1 5 3 -2 211.22 225.37 59.19 o
-1 -5 3 -2 221.23 241.01 61.08 o
-1 5 3 -1 180.98 240.95 62.27 o
-1 -5 3 -1 214.04 174.18 79.33 <
-1 5 3 0 4724.38 4736.57 184.13 o
-1 -5 3 0 4650.52 4788.05 331.95 o
-1 5 3 1 1556.21 1246.59 103.80 o
-1 -5 3 1 1611.17 1203.63 174.60 o
-1 5 3 2 59.21 98.70 40.17 <
-1 -5 3 2 63.96 94.67 55.16 <
0 5 3 -2 20.68 40.52 30.04 <
0 -5 3 -2 19.60 19.91 16.00 <
0 5 3 -1 7.40 -13.09 10.96 <
0 -5 3 -1 3.01 29.80 19.08 <
0 5 3 0 103.04 144.85 39.64 o
0 -5 3 0 112.52 159.61 31.87 o
0 5 3 1 508.64 491.32 70.98 o
0 -5 3 1 515.27 500.63 66.30 o
0 5 3 2 154.11 67.54 30.81 <
0 -5 3 2 141.87 73.64 35.37 <
1 5 3 -2 37.52 29.92 16.17 <
1 -5 3 -2 36.94 27.55 14.69 <
1 5 3 -1 571.55 634.58 71.27 o
1 -5 3 -1 562.39 569.17 120.98 o
1 5 3 0 4299.25 4478.43 179.46 o
1 -5 3 0 4210.24 4509.18 348.36 o
1 5 3 1 2579.73 2892.31 153.92 o
1 -5 3 1 2529.80 2979.64 212.57 o
1 5 3 2 30.52 43.55 20.74 <
1 -5 3 2 34.30 111.03 46.57 <
2 5 3 -2 110.28 48.11 37.50 <
2 -5 3 -2 112.38 32.76 42.42 <
2 5 3 -1 342.43 410.51 89.93 o
2 -5 3 -1 349.32 406.66 91.12 o
2 5 3 0 16847.10 14714.00 696.25 o
2 -5 3 0 16907.40 16302.50 521.66 o
2 5 3 1 261.42 194.38 70.32 <
2 -5 3 1 234.94 196.70 73.82 <
2 5 3 2 529.12 346.88 89.88 o
2 -5 3 2 498.63 354.64 91.00 o
3 5 3 -2 199.11 171.10 52.49 o
3 -5 3 -2 202.51 146.81 67.72 <
3 5 3 -1 468.48 364.72 77.61 o
3 -5 3 -1 476.83 457.32 107.41 o
3 5 3 0 1184.68 1022.10 121.75 o
3 -5 3 0 1158.00 1050.19 155.46 o
3 5 3 1 282.54 283.08 69.26 o
3 -5 3 1 268.75 208.72 78.80 <
3 5 3 2 77.01 95.68 66.18 <
3 -5 3 2 101.56 97.99 53.02 <
4 5 3 -2 270.82 154.51 51.48 o
4 -5 3 -2 274.01 293.21 105.52 <
4 5 3 -1 127.90 166.84 55.75 <
4 -5 3 -1 147.26 130.99 62.39 <
4 5 3 0 463.99 156.29 63.10 <
4 -5 3 0 478.41 172.70 86.32 <
4 5 3 1 582.51 553.71 100.07 o
4 -5 3 1 562.55 474.38 126.31 o
4 5 3 2 414.16 846.56 179.04 o
4 -5 3 2 421.29 928.73 188.88 o
5 5 3 -2 136.18 7.46 30.63 <
5 -5 3 -2 144.67 100.84 85.97 <
5 5 3 -1 18.91 5.39 27.13 <
5 -5 3 -1 24.22 82.83 67.60 <
5 5 3 0 220.60 56.40 55.10 <
5 -5 3 0 219.56 123.88 79.21 <
5 5 3 1 162.08 151.79 110.49 <
5 -5 3 1 155.41 25.83 22.22 <
5 5 3 2 29.86 222.41 144.80 <
5 -5 3 2 43.40 160.79 90.82 <
6 5 3 -2 135.57 187.27 135.43 <
6 -5 3 -2 127.70 54.98 76.19 <
6 5 3 -1 13.29 98.88 132.95 <
6 -5 3 -1 19.16 77.61 54.27 <
6 5 3 0 68.52 158.48 132.18 <
-6 6 3 0 121.54 -47.69 55.99 <
-6 6 3 1 32.02 37.21 77.55 <
-6 -6 3 1 25.57 -16.29 43.60 <
-6 6 3 2 17.94 73.58 44.67 <
-6 -6 3 2 14.26 33.24 56.70 <
-5 6 3 -2 85.12 135.02 101.07 <
-5 -6 3 -2 88.09 287.99 145.92 <
-5 6 3 -1 172.52 444.11 164.05 <
-5 -6 3 -1 180.81 512.24 184.20 <
-5 6 3 0 600.46 376.27 173.23 <
-5 -6 3 0 591.93 612.24 216.84 <
-5 6 3 1 89.26 -14.52 74.59 <
-5 -6 3 1 93.07 105.16 99.24 <
-5 6 3 2 70.00 95.92 82.17 <
-5 -6 3 2 69.62 157.30 126.79 <
-4 6 3 -2 535.20 945.74 165.00 o
-4 -6 3 -2 555.73 1042.07 249.01 o
-4 6 3 -1 400.41 210.20 72.52 <
-4 -6 3 -1 372.97 479.83 184.85 <
-4 6 3 0 521.71 333.43 144.91 <
-4 -6 3 0 549.10 322.89 143.02 <
-4 6 3 1 14.22 19.79 71.98 <
-4 -6 3 1 6.99 42.42 38.63 <
-4 6 3 2 389.75 396.95 181.94 <
-4 -6 3 2 368.45 179.93 84.84 <
-3 6 3 -2 120.99 151.79 64.34 <
-3 -6 3 -2 133.63 191.30 78.03 <
-3 6 3 -1 90.80 308.85 89.99 o
-3 -6 3 -1 133.84 229.64 73.76 o
-3 6 3 0 5451.62 4756.71 303.57 o
-3 -6 3 0 5453.76 4679.16 303.04 o
-3 6 3 1 340.50 54.15 45.86 <
-3 -6 3 1 363.11 103.80 41.35 <
-3 6 3 2 92.26 27.25 30.39 <
-3 -6 3 2 75.31 61.79 44.49 <
-2 6 3 -2 701.66 146.22 55.34 <
-2 -6 3 -2 676.18 179.87 67.07 <
-2 6 3 -1 314.67 312.46 72.52 o
-2 -6 3 -1 287.30 340.31 76.31 o
-2 6 3 0 1411.91 1050.78 124.95 o
-2 -6 3 0 1466.00 1256.42 147.05 o
-2 6 3 1 55.75 113.16 43.60 <
-2 -6 3 1 69.57 160.32 58.89 <
-2 6 3 2 259.56 286.81 64.28 o
-2 -6 3 2 256.14 341.37 84.37 o
-1 6 3 -2 37.72 30.57 36.08 <
-1 -6 3 -2 44.24 1.60 17.00 <
-1 6 3 -1 845.27 1282.25 111.50 o
-1 -6 3 -1 962.13 1488.84 213.64 o
-1 6 3 0 19328.70 18336.20 394.22 o
-1 -6 3 0 19235.90 20823.40 720.54 o
-1 6 3 1 190.27 127.56 41.12 o
-1 -6 3 1 243.61 105.40 55.57 <
-1 6 3 2 90.95 55.22 33.53 <
-1 -6 3 2 73.35 44.14 30.16 <
0 6 3 -2 271.99 155.58 45.92 o
0 -6 3 -2 267.21 202.68 40.52 o
0 6 3 -1 127.85 106.64 37.32 <
0 -6 3 -1 129.48 62.03 26.54 <
0 6 3 0 3339.07 3120.52 175.54 o
0 -6 3 0 3385.50 3016.90 151.91 o
0 6 3 1 541.28 373.66 62.80 o
0 -6 3 1 512.72 346.70 56.76 o
0 6 3 2 80.70 67.72 29.45 <
0 -6 3 2 67.94 59.72 30.22 <
1 6 3 -2 57.43 83.00 32.82 <
1 -6 3 -2 56.75 48.17 41.35 <
1 6 3 -1 41.95 40.05 29.27 <
1 -6 3 -1 47.08 47.46 46.69 <
1 6 3 0 18035.10 16603.90 354.11 o
1 -6 3 0 17949.50 18392.60 699.16 o
1 6 3 1 2400.91 2877.97 161.56 o
1 -6 3 1 2536.86 3434.76 249.84 o
1 6 3 2 78.96 25.24 17.42 <
1 -6 3 2 80.16 95.03 47.34 <
2 6 3 -2 578.78 314.89 80.81 o
2 -6 3 -2 581.27 277.45 80.46 o
2 6 3 -1 378.05 332.07 79.15 o
2 -6 3 -1 408.40 465.20 94.56 o
2 6 3 0 626.76 750.76 117.25 o
2 -6 3 0 648.25 764.45 130.28 o
2 6 3 1 346.04 568.16 104.27 o
2 -6 3 1 294.04 474.68 100.36 o
2 6 3 2 530.37 346.88 90.71 o
2 -6 3 2 539.81 221.88 82.23 <
3 6 3 -2 85.69 118.55 55.45 <
3 -6 3 -2 76.87 2.84 39.28 <
3 6 3 -1 431.16 309.56 94.02 o
3 -6 3 -1 455.06 243.91 84.07 <
3 6 3 0 4112.53 3885.15 317.14 o
3 -6 3 0 4073.37 3722.46 299.25 o
3 6 3 1 481.34 864.10 162.15 o
3 -6 3 1 497.81 884.83 151.73 o
3 6 3 2 33.38 12.26 33.83 <
3 -6 3 2 38.94 -43.90 20.08 <
4 6 3 -2 328.27 172.05 79.39 <
4 -6 3 -2 331.49 97.28 69.20 <
4 6 3 -1 52.14 57.11 49.35 <
4 -6 3 -1 54.61 239.06 92.60 <
4 6 3 0 324.95 499.91 124.30 o
4 -6 3 0 337.56 462.71 127.56 o
4 6 3 1 69.49 154.99 87.15 <
4 -6 3 1 50.93 133.78 86.56 <
4 6 3 2 322.53 819.78 174.95 o
4 -6 3 2 315.73 616.27 162.99 o
5 6 3 -2 55.05 93.49 72.81 <
5 -6 3 -2 49.17 74.41 57.17 <
5 6 3 -1 100.15 64.04 61.79 <
5 -6 3 -1 106.16 98.58 62.15 <
5 6 3 0 361.99 226.14 96.45 <
5 -6 3 0 349.00 305.00 117.54 <
5 6 3 1 524.45 732.10 250.02 <
5 -6 3 1 515.15 585.05 188.05 o
5 -6 3 2 43.66 34.84 40.41 <
6 6 3 -2 12.72 -175.78 119.14 <
6 -6 3 -2 14.91 54.86 35.61 <
6 6 3 -1 8.88 -59.84 74.41 <
6 -6 3 -1 3.16 -11.67 36.14 <
6 -6 3 0 69.33 15.94 61.62 <
-6 7 3 0 354.11 170.04 132.35 <
-6 7 3 1 14.81 101.13 106.82 <
-6 7 3 2 86.90 31.10 5.81 o
-6 -7 3 2 90.70 114.46 135.55 <
-5 7 3 -2 86.18 28.38 72.64 <
-5 -7 3 -2 76.26 87.80 107.47 <
-5 7 3 -1 41.31 182.60 137.51 <
-5 -7 3 -1 49.36 342.32 171.22 <
-5 7 3 0 81.51 30.57 80.99 <
-5 -7 3 0 76.58 200.19 135.73 <
-5 7 3 1 44.37 -11.02 24.71 <
-5 -7 3 1 47.39 54.74 84.96 <
-5 7 3 2 11.16 59.54 95.80 <
-5 -7 3 2 6.06 63.04 124.00 <
-4 7 3 -2 88.92 64.52 39.87 <
-4 -7 3 -2 82.61 3.02 71.45 <
-4 7 3 -1 369.69 472.31 110.61 o
-4 -7 3 -1 419.67 419.70 173.95 <
-4 7 3 0 1167.18 453.29 113.04 o
-4 -7 3 0 1178.62 537.12 183.90 <
-4 7 3 1 33.67 129.63 77.49 <
-4 -7 3 1 30.44 205.70 98.94 <
-4 7 3 2 403.18 333.73 153.74 <
-4 -7 3 2 402.13 348.25 96.33 o
-3 7 3 -2 49.23 -22.04 25.59 <
-3 -7 3 -2 44.54 11.08 35.43 <
-3 7 3 -1 9.18 31.22 24.59 <
-3 -7 3 -1 9.11 57.88 80.46 <
-3 7 3 0 102.20 115.11 56.40 <
-3 -7 3 0 128.04 85.85 47.93 <
-3 7 3 1 162.80 7.94 15.76 <
-3 -7 3 1 196.71 42.01 32.88 <
-3 7 3 2 176.71 26.42 31.10 <
-3 -7 3 2 153.95 51.96 30.81 <
-2 7 3 -2 184.51 199.72 73.64 <
-2 -7 3 -2 179.85 98.11 45.38 <
-2 7 3 -1 279.75 175.19 64.70 <
-2 -7 3 -1 341.81 298.07 75.30 o
-2 7 3 0 5564.39 4520.97 274.90 o
-2 -7 3 0 5493.01 4592.19 275.61 o
-2 7 3 1 33.64 30.16 22.39 <
-2 -7 3 1 34.96 70.50 36.32 <
-2 7 3 2 355.81 114.46 40.70 <
-2 -7 3 2 351.42 114.70 53.97 <
-1 7 3 -2 107.13 153.86 63.33 <
-1 -7 3 -2 99.37 138.28 81.05 <
-1 7 3 -1 1361.93 2261.29 158.19 o
-1 -7 3 -1 1309.84 2574.22 289.06 o
-1 7 3 0 25.03 38.45 21.80 <
-1 -7 3 0 68.03 -41.23 45.56 <
-1 7 3 1 223.01 208.96 51.84 o
-1 -7 3 1 258.70 177.74 49.59 o
-1 7 3 2 199.66 184.55 56.88 o
-1 -7 3 2 178.69 204.87 54.86 o
0 7 3 -2 36.57 27.25 18.13 <
0 -7 3 -2 32.63 16.11 24.11 <
0 7 3 -1 604.99 513.78 77.55 o
0 -7 3 -1 635.98 461.17 62.86 o
0 7 3 0 5424.65 5149.45 234.02 o
0 -7 3 0 5211.08 5215.33 207.18 o
0 7 3 1 732.12 662.48 86.50 o
0 -7 3 1 713.48 642.10 78.26 o
0 7 3 2 77.76 58.89 30.45 <
0 -7 3 2 77.41 42.36 28.62 <
1 7 3 -2 32.49 50.65 21.98 <
1 -7 3 -2 30.43 66.18 41.29 <
1 7 3 -1 719.89 503.35 68.01 o
1 -7 3 -1 707.04 514.84 121.69 o
1 7 3 0 20.84 114.88 37.74 o
1 -7 3 0 55.40 78.62 62.03 <
1 7 3 1 6147.45 6217.77 233.43 o
1 -7 3 1 5990.76 6645.82 349.73 o
1 7 3 2 190.65 153.45 41.41 o
1 -7 3 2 186.61 144.26 75.24 <
2 7 3 -2 344.24 36.14 27.37 <
2 -7 3 -2 351.20 80.28 47.81 <
2 7 3 -1 835.37 658.46 110.20 o
2 -7 3 -1 838.28 647.44 109.49 o
2 7 3 0 5860.06 4817.50 296.46 o
2 -7 3 0 5866.52 5281.33 319.21 o
2 7 3 1 285.41 374.49 89.11 o
2 -7 3 1 219.39 450.86 99.89 o
2 7 3 2 44.57 6.28 8.95 <
2 -7 3 2 54.59 -7.11 45.32 <
3 7 3 -2 83.00 31.76 46.57 <
3 -7 3 -2 90.96 23.52 36.32 <
3 7 3 -1 823.90 603.59 128.98 o
3 -7 3 -1 823.18 532.20 120.15 o
3 7 3 0 78.15 61.08 53.91 <
3 -7 3 0 60.49 60.02 57.11 <
3 7 3 1 233.60 417.15 113.51 o
3 -7 3 1 188.15 484.75 123.05 o
3 7 3 2 23.80 51.66 43.25 <
3 -7 3 2 17.70 8.29 43.01 <
4 7 3 -2 513.45 60.49 47.10 <
4 -7 3 -2 527.61 80.69 62.50 <
4 7 3 -1 482.14 300.38 86.08 o
4 -7 3 -1 485.23 425.98 128.80 o
4 7 3 0 1361.11 611.89 137.39 o
4 -7 3 0 1412.40 623.62 149.42 o
4 7 3 1 74.18 124.36 64.93 <
4 -7 3 1 43.14 145.51 80.04 <
4 7 3 2 257.08 276.56 103.26 <
4 -7 3 2 230.46 148.88 82.47 <
5 7 3 -2 37.26 117.54 65.88 <
5 -7 3 -2 45.82 62.56 58.42 <
5 7 3 -1 219.73 135.08 74.18 <
5 -7 3 -1 224.22 264.83 109.84 <
5 7 3 0 85.88 182.00 93.67 <
5 -7 3 0 73.07 159.07 95.56 <
5 7 3 1 186.27 423.01 133.78 o
5 -7 3 1 150.77 422.95 138.57 o
5 7 3 2 28.50 165.18 143.26 <
5 -7 3 2 24.97 183.54 105.22 <
6 -7 3 -2 48.58 246.46 138.87 <
6 -7 3 -1 128.48 41.29 8.71 o
6 -7 3 0 493.49 341.37 164.94 <
-6 8 3 0 27.21 255.88 168.38 <
-6 8 3 1 28.29 -182.77 133.12 <
-6 8 3 2 40.23 -232.60 151.67 <
-6 -8 3 2 39.67 26.01 37.38 <
-5 8 3 -2 34.60 31.52 88.22 <
-5 -8 3 -2 35.22 131.52 108.66 <
-5 8 3 -1 201.45 69.61 94.20 <
-5 -8 3 -1 173.28 267.55 145.57 <
-5 8 3 0 925.00 1230.35 312.22 o
-5 -8 3 0 948.40 988.28 271.05 o
-5 8 3 1 64.86 65.23 101.84 <
-5 -8 3 1 61.39 207.71 129.57 <
-5 8 3 2 92.41 144.91 74.65 <
-5 -8 3 2 98.16 170.92 122.28 <
-4 8 3 -2 32.14 4.15 35.13 <
-4 8 3 -1 620.99 643.70 136.62 o
-4 -8 3 -1 600.33 584.81 191.60 o
-4 8 3 0 888.73 863.09 156.17 o
-4 -8 3 0 886.67 834.65 230.64 o
-4 8 3 1 92.18 41.41 37.27 <
-4 -8 3 1 96.66 44.38 50.60 <
-4 8 3 2 183.01 103.62 63.93 <
-4 -8 3 2 188.34 265.18 130.99 <
-3 8 3 -2 90.10 21.86 28.20 <
-3 -8 3 -2 91.78 21.86 47.99 <
-3 8 3 -1 891.58 1042.49 153.62 o
-3 -8 3 -1 936.00 1178.04 157.42 o
-3 8 3 0 4644.58 4714.41 321.94 o
-3 -8 3 0 4677.49 4552.91 310.27 o
-3 8 3 1 1485.02 1410.10 178.27 o
-3 -8 3 1 1409.99 1227.33 161.44 o
-3 8 3 2 202.72 191.66 73.82 <
-3 -8 3 2 209.92 121.51 56.34 <
-2 8 3 -2 146.30 122.99 55.69 <
-2 -8 3 -2 162.18 111.26 54.92 <
-2 8 3 -1 1360.71 1271.71 167.25 o
-2 -8 3 -1 1355.83 1250.91 151.08 o
-2 8 3 0 8302.43 8281.23 400.14 o
-2 -8 3 0 8279.79 9238.52 615.27 o
-2 8 3 1 28.36 36.38 29.09 <
-2 -8 3 1 27.19 17.71 30.10 <
-2 8 3 2 455.44 623.74 95.50 o
-2 -8 3 2 481.79 481.19 162.15 <
-1 8 3 -2 168.43 174.30 72.40 <
-1 -8 3 -2 161.20 191.24 92.01 <
-1 8 3 -1 10743.10 10583.10 349.25 o
-1 -8 3 -1 10578.70 11447.40 614.61 o
-1 8 3 0 12293.10 12349.80 362.46 o
-1 -8 3 0 12333.30 12513.80 374.55 o
-1 8 3 1 1685.98 1396.30 127.44 o
-1 -8 3 1 1641.85 1515.56 136.03 o
-1 8 3 2 16.20 61.14 37.80 <
-1 -8 3 2 17.26 41.71 22.10 <
0 8 3 -2 29.26 35.01 23.88 <
0 -8 3 -2 28.66 86.56 37.86 <
0 8 3 -1 860.34 693.00 100.01 o
0 -8 3 -1 907.83 579.60 79.80 o
0 8 3 0 16677.00 15921.40 430.48 o
0 -8 3 0 16751.30 15552.10 384.62 o
0 8 3 1 127.78 154.16 47.10 o
0 -8 3 1 114.13 184.67 44.79 o
0 8 3 2 682.73 760.42 103.50 o
0 -8 3 2 713.28 588.37 88.57 o
1 8 3 -2 43.59 21.09 12.15 <
1 -8 3 -2 65.23 6.28 13.45 <
1 8 3 -1 45.81 72.16 31.46 <
1 -8 3 -1 40.49 39.99 29.09 <
1 8 3 0 11374.00 9879.38 287.22 o
1 -8 3 0 11380.00 12031.10 558.98 o
1 8 3 1 16904.10 15307.80 368.80 o
1 -8 3 1 16952.10 16328.90 548.73 o
1 8 3 2 317.14 155.28 41.89 o
1 -8 3 2 327.40 219.21 68.49 o
2 8 3 -2 310.61 143.02 52.25 <
2 -8 3 -2 318.23 140.71 60.31 <
2 8 3 -1 32.63 54.74 47.34 <
2 -8 3 -1 49.73 62.86 45.74 <
2 8 3 0 8894.77 7548.60 374.31 o
2 -8 3 0 9041.04 8480.00 418.87 o
2 8 3 1 51.57 119.91 54.74 <
2 -8 3 1 49.22 30.63 29.56 <
2 8 3 2 412.01 400.38 102.85 o
2 -8 3 2 432.17 550.81 127.73 o
3 8 3 -2 205.70 103.26 57.47 <
3 -8 3 -2 240.10 127.02 70.38 <
3 8 3 -1 381.21 695.66 139.40 o
3 -8 3 -1 370.61 596.13 132.89 o
3 8 3 0 4152.89 4192.40 332.49 o
3 -8 3 0 4188.26 4516.94 343.03 o
3 8 3 1 393.96 609.76 138.10 o
3 -8 3 1 451.51 677.71 150.78 o
3 8 3 2 138.92 244.57 99.95 <
3 -8 3 2 154.71 275.97 88.51 o
4 8 3 -2 349.23 111.86 67.07 <
4 -8 3 -2 355.08 182.95 99.35 <
4 8 3 -1 14.34 -15.05 34.24 <
4 -8 3 -1 16.24 67.30 72.99 <
4 8 3 0 967.84 844.96 165.41 o
4 -8 3 0 1012.99 625.57 150.72 o
4 8 3 1 33.83 -93.49 64.10 <
4 -8 3 1 30.20 21.45 46.51 <
4 8 3 2 47.04 67.01 80.22 <
4 -8 3 2 42.51 66.41 57.82 <
5 8 3 -2 217.14 191.24 84.13 <
5 -8 3 -2 225.34 280.05 101.90 <
5 8 3 -1 36.29 169.56 94.44 <
5 -8 3 -1 32.06 127.14 93.43 <
5 8 3 0 696.69 539.67 149.60 o
5 -8 3 0 713.01 659.64 172.46 o
5 8 3 1 423.87 377.87 184.85 <
5 -8 3 1 432.74 700.76 185.02 o
5 -8 3 2 58.98 11.79 59.36 <
6 -8 3 -2 35.63 30.27 59.96 <
6 -8 3 -1 4.69 66.77 82.47 <
6 -8 3 0 54.54 74.18 105.93 <
-6 9 3 1 138.07 221.46 177.80 <
-6 9 3 2 85.26 106.52 149.42 <
-5 9 3 -2 57.39 -69.73 75.78 <
-5 -9 3 -2 57.66 231.77 149.30 <
-5 9 3 -1 354.38 523.91 212.34 <
-5 -9 3 -1 351.39 533.92 200.78 <
-5 9 3 0 2045.08 1916.00 392.27 o
-5 -9 3 0 2026.79 1684.35 353.82 o
-5 9 3 1 120.05 361.87 190.59 <
-5 -9 3 1 114.87 81.17 98.29 <
-5 9 3 2 375.42 195.27 139.70 <
-5 -9 3 2 371.17 264.23 144.56 <
-4 9 3 -2 97.05 93.02 52.43 <
-4 -9 3 -2 98.32 167.25 92.96 <
-4 9 3 -1 135.89 112.03 57.47 <
-4 -9 3 -1 143.22 9.30 101.55 <
-4 9 3 0 170.94 137.80 59.60 <
-4 -9 3 0 188.88 245.40 119.85 <
-4 9 3 1 805.84 577.65 134.78 o
-4 -9 3 1 820.59 730.68 218.97 o
-4 9 3 2 309.21 209.26 87.33 <
-4 -9 3 2 303.36 290.90 147.64 <
-3 9 3 -2 108.11 113.81 58.36 <
-3 -9 3 -2 117.99 75.18 69.26 <
-3 9 3 -1 705.47 697.50 126.49 o
-3 -9 3 -1 645.41 834.95 221.04 o
-3 9 3 0 14649.10 11707.40 524.62 o
-3 -9 3 0 14596.30 10587.70 480.24 o
-3 9 3 1 563.55 697.85 138.04 o
-3 -9 3 1 544.29 565.56 117.60 o
-3 9 3 2 554.27 525.86 123.11 o
-3 -9 3 2 541.95 465.79 109.43 o
-2 9 3 -2 425.84 687.19 124.77 o
-2 -9 3 -2 458.63 608.81 109.60 o
-2 9 3 -1 433.25 763.79 133.18 o
-2 -9 3 -1 459.55 683.34 114.94 o
-2 9 3 0 274.79 164.35 71.21 <
-2 -9 3 0 307.57 136.03 51.54 <
-2 9 3 1 2452.13 1948.17 169.50 o
-2 -9 3 1 2458.95 2111.45 305.94 o
-2 9 3 2 255.22 155.70 55.16 <
-2 -9 3 2 257.23 250.02 119.14 <
-1 9 3 -2 53.34 143.79 50.89 <
-1 -9 3 -2 61.29 212.04 114.94 <
-1 9 3 -1 1293.60 2013.28 163.16 o
-1 -9 3 -1 1356.61 1697.33 152.62 o
-1 9 3 0 54589.20 54520.50 807.10 o
-1 -9 3 0 54440.80 51843.40 776.71 o
-1 9 3 1 380.97 266.84 57.29 o
-1 -9 3 1 358.45 207.95 52.14 o
-1 9 3 2 212.09 307.19 70.68 o
-1 -9 3 2 209.05 199.24 57.17 o
0 9 3 -2 249.87 183.60 41.95 o
0 -9 3 -2 258.31 185.32 84.84 <
0 9 3 -1 1110.24 1191.07 132.77 o
0 -9 3 -1 1139.61 1057.06 111.50 o
0 9 3 0 2142.18 1755.09 154.16 o
0 -9 3 0 2124.98 1563.25 130.93 o
0 9 3 1 1765.41 1557.45 144.68 o
0 -9 3 1 1733.05 1624.69 137.04 o
0 9 3 2 147.14 37.27 25.89 <
0 -9 3 2 148.93 23.64 23.94 <
1 9 3 -2 33.59 41.12 21.98 <
1 -9 3 -2 27.97 29.09 23.76 <
1 9 3 -1 527.89 459.80 67.42 o
1 -9 3 -1 453.86 417.33 110.26 o
1 9 3 0 53887.20 47489.70 718.47 o
1 9 3 1 300.50 381.84 71.33 o
1 -9 3 1 305.30 483.21 99.41 o
1 9 3 2 188.02 108.42 32.17 o
1 -9 3 2 189.03 2.67 44.55 <
2 9 3 -2 496.54 287.05 77.02 o
2 -9 3 -2 474.86 304.82 84.48 o
2 9 3 -1 660.67 300.38 69.79 o
2 -9 3 -1 672.28 431.19 105.75 o
2 9 3 0 175.89 63.93 24.11 <
2 -9 3 0 186.34 163.64 61.26 <
2 9 3 1 662.05 473.85 99.77 o
2 -9 3 1 634.95 558.39 115.35 o
2 9 3 2 129.19 165.59 60.08 <
2 -9 3 2 131.88 204.04 87.33 <
3 9 3 -2 157.57 75.72 48.11 <
3 -9 3 -2 140.71 165.77 74.53 <
3 9 3 -1 171.45 339.54 102.61 o
3 -9 3 -1 140.48 257.30 90.88 <
3 9 3 0 15759.00 14558.70 615.21 o
3 -9 3 0 15674.90 14803.00 637.30 o
3 9 3 1 688.77 586.89 135.73 o
3 -9 3 1 673.47 591.98 140.59 o
3 9 3 2 251.87 373.31 118.37 o
3 -9 3 2 262.41 355.30 104.75 o
4 9 3 -2 582.71 498.32 116.54 o
4 -9 3 -2 563.90 513.01 144.97 o
4 9 3 -1 95.83 15.88 26.60 <
4 -9 3 -1 86.13 65.23 53.56 <
4 9 3 0 104.35 7.94 32.76 <
4 -9 3 0 107.86 31.46 60.31 <
4 9 3 1 228.14 247.05 91.48 <
4 -9 3 1 221.44 178.51 88.75 <
4 9 3 2 175.36 58.00 32.53 <
4 -9 3 2 174.33 8.00 16.41 <
5 9 3 -2 184.66 29.98 31.28 <
5 -9 3 -2 171.19 25.95 31.52 <
5 9 3 -1 55.51 208.72 154.10 <
5 -9 3 -1 41.95 202.15 130.10 <
5 9 3 0 2333.45 2253.41 429.29 o
5 -9 3 0 2318.67 1986.09 291.67 o
5 9 3 1 101.69 177.80 145.92 <
5 -9 3 1 99.78 198.53 173.12 <
5 9 3 2 93.51 461.23 227.62 <
5 -9 3 2 96.18 263.58 118.61 <
6 9 3 -2 192.49 97.58 119.62 <
6 -9 3 -2 185.63 137.27 93.90 <
6 -9 3 -1 5.40 206.29 142.84 <
-6 10 3 2 59.92 66.36 113.87 <
-5 10 3 -2 19.74 142.13 122.52 <
-5 -10 3 -2 16.85 -63.27 46.57 <
-5 10 3 -1 254.31 322.59 180.82 <
-5 -10 3 -1 272.88 90.76 122.28 <
-5 10 3 0 352.95 580.19 219.92 <
-5 -10 3 0 338.54 382.43 175.01 <
-5 10 3 1 12.91 -14.69 15.40 <
-5 -10 3 1 13.44 125.30 117.48 <
-5 10 3 2 130.76 -58.89 14.34 <
-5 -10 3 2 145.51 86.26 105.75 <
-4 10 3 -2 31.66 38.81 38.21 <
-4 -10 3 -2 32.37 55.93 98.05 <
-4 10 3 -1 300.58 443.10 120.80 o
-4 -10 3 -1 326.96 402.28 159.01 <
-4 10 3 0 620.02 334.09 103.74 o
-4 -10 3 0 602.03 421.83 158.60 <
-4 10 3 1 108.83 74.12 56.46 <
-4 -10 3 1 117.40 157.48 126.07 <
-4 10 3 2 130.96 82.29 63.45 <
-4 -10 3 2 145.97 192.90 130.93 <
-3 10 3 -2 131.03 261.15 88.87 <
-3 -10 3 -2 132.34 294.10 120.03 <
-3 10 3 -1 1936.98 1632.51 205.11 o
-3 -10 3 -1 1908.35 1847.22 327.81 o
-3 10 3 0 1466.63 1421.24 194.03 o
-3 -10 3 0 1443.10 1655.56 301.92 o
-3 10 3 1 152.42 95.80 62.21 <
-3 -10 3 1 151.87 126.31 55.69 <
-3 10 3 2 306.91 281.89 72.81 o
-3 -10 3 2 313.83 101.37 44.32 <
-2 10 3 -2 302.82 647.14 142.01 o
-2 -10 3 -2 297.92 446.71 103.92 o
-2 10 3 -1 683.48 849.34 146.75 o
-2 -10 3 -1 687.04 810.42 129.27 o
-2 10 3 0 5273.79 4480.57 327.10 o
-2 -10 3 0 5144.06 4053.23 282.36 o
-2 10 3 1 69.08 63.45 31.87 <
-2 -10 3 1 89.63 27.25 13.45 <
-2 10 3 2 123.28 2.25 29.98 <
-2 -10 3 2 144.66 55.22 73.23 <
-1 10 3 -2 136.75 129.51 51.01 <
-1 -10 3 -2 135.75 218.32 99.35 <
-1 10 3 -1 929.97 806.98 107.06 o
-1 -10 3 -1 976.80 863.62 191.66 o
-1 10 3 0 2190.41 2185.21 168.49 o
-1 -10 3 0 2205.96 2545.37 306.48 o
-1 10 3 1 260.28 287.10 70.27 o
-1 -10 3 1 262.73 182.77 49.29 o
-1 10 3 2 235.63 159.07 54.92 <
-1 -10 3 2 223.42 96.10 42.48 <
0 10 3 -2 125.78 81.82 36.26 <
0 -10 3 -2 130.02 78.20 70.21 <
0 10 3 -1 407.38 258.61 65.47 o
0 -10 3 -1 361.46 274.31 64.81 o
0 10 3 0 8383.87 7775.51 339.18 o
0 -10 3 0 8141.92 7388.93 291.55 o
0 10 3 1 15.75 -11.20 23.46 <
0 -10 3 1 33.77 28.20 20.32 <
0 10 3 2 46.80 41.83 33.77 <
0 -10 3 2 52.42 37.80 27.25 <
1 10 3 -2 133.41 50.48 27.79 <
1 -10 3 -2 124.85 19.97 30.45 <
1 10 3 -1 2554.45 2159.15 142.19 o
1 -10 3 -1 2589.73 2334.57 245.22 o
1 10 3 0 2468.63 2144.81 143.91 o
1 -10 3 0 2485.27 2506.86 271.64 o
1 10 3 1 1744.71 1359.98 117.37 o
1 -10 3 1 1745.67 1734.77 249.48 o
1 10 3 2 121.03 79.21 32.29 <
1 -10 3 2 107.50 63.45 56.34 <
2 10 3 -2 356.83 263.76 69.85 o
2 -10 3 -2 344.20 265.30 80.99 o
2 10 3 -1 259.16 147.46 51.60 <
2 -10 3 -1 284.91 147.23 66.12 <
2 10 3 0 5365.73 4393.42 290.95 o
2 -10 3 0 5230.58 4498.70 319.63 o
2 10 3 1 244.30 306.42 85.43 o
2 -10 3 1 268.92 366.43 103.92 o
2 10 3 2 552.85 483.56 112.68 o
2 -10 3 2 562.45 418.27 119.68 o
3 10 3 -2 86.29 34.24 35.90 <
3 -10 3 -2 83.78 36.26 47.63 <
3 10 3 -1 646.46 315.96 81.11 o
3 -10 3 -1 711.83 362.64 114.70 o
3 10 3 0 1106.86 1237.46 188.46 o
3 -10 3 0 1096.66 1406.02 207.24 o
3 10 3 1 769.71 754.73 148.29 o
3 -10 3 1 782.72 796.38 156.82 o
3 10 3 2 20.86 35.43 48.88 <
3 -10 3 2 19.77 155.05 83.77 <
4 10 3 -2 274.01 398.43 110.55 o
4 -10 3 -2 266.32 363.47 132.00 <
4 10 3 -1 265.45 179.81 65.82 <
4 -10 3 -1 294.57 390.90 130.70 <
4 10 3 0 555.57 365.96 111.26 o
4 -10 3 0 532.34 372.36 128.92 <
4 10 3 1 342.60 471.18 133.12 o
4 -10 3 1 342.23 606.50 155.93 o
4 10 3 2 39.97 78.86 96.99 <
4 -10 3 2 33.30 -62.80 40.94 <
5 10 3 -2 123.62 77.26 94.67 <
5 -10 3 -2 125.02 60.90 74.53 <
5 10 3 -1 190.61 112.27 101.61 <
5 -10 3 -1 228.84 238.94 106.58 <
5 10 3 0 237.95 243.38 150.96 <
5 -10 3 0 229.87 313.41 116.12 <
5 10 3 1 69.41 157.36 128.62 <
5 -10 3 1 77.30 104.51 90.65 <
5 10 3 2 6.54 28.97 113.99 <
5 -10 3 2 7.58 79.03 85.43 <
6 10 3 -2 61.99 159.90 137.04 <
6 -10 3 -2 57.38 84.48 85.08 <
6 10 3 -1 65.29 44.91 100.48 <
6 -10 3 -1 75.50 11.61 29.09 <
-5 11 3 -2 28.68 -50.00 62.68 <
-5 -11 3 -2 22.16 47.81 31.93 <
-5 11 3 -1 66.67 158.01 145.98 <
-5 -11 3 -1 64.03 113.81 127.02 <
-5 11 3 0 271.22 294.75 179.63 <
-5 -11 3 0 278.45 359.03 171.52 <
-5 11 3 1 62.57 142.25 139.94 <
-5 -11 3 1 69.73 84.54 107.12 <
-5 11 3 2 33.37 120.74 132.29 <
-5 -11 3 2 36.59 50.48 29.21 <
-4 11 3 -2 23.78 20.74 18.19 <
-4 -11 3 -2 31.38 5.45 79.21 <
-4 11 3 -1 893.94 1171.94 200.25 o
-4 -11 3 -1 909.05 1269.57 293.27 o
-4 11 3 0 665.45 253.04 96.39 <
-4 -11 3 0 648.98 402.34 172.46 <
-4 11 3 1 130.73 201.14 91.48 <
-4 -11 3 1 184.10 34.60 98.88 <
-4 11 3 2 240.53 293.38 102.14 <
-4 -11 3 2 257.20 453.52 182.00 <
-3 11 3 -2 116.23 158.07 74.53 <
-3 -11 3 -2 94.56 347.18 163.04 <
-3 11 3 -1 71.42 -60.37 37.38 <
-3 -11 3 -1 70.16 -5.57 51.84 <
-3 11 3 0 560.58 414.42 118.91 o
-3 -11 3 0 550.73 551.16 190.06 <
-3 11 3 1 208.58 53.79 60.08 <
-3 -11 3 1 201.89 141.24 117.66 <
-3 11 3 2 66.92 62.86 39.10 <
-3 -11 3 2 73.64 56.70 36.55 <
-2 11 3 -2 788.34 650.28 141.12 o
-2 -11 3 -2 783.72 498.26 109.54 o
-2 11 3 -1 1621.09 2460.00 255.17 o
-2 -11 3 -1 1653.65 1945.92 207.42 o
-2 11 3 0 2979.55 2873.06 217.85 o
-2 -11 3 0 2978.88 2237.17 222.94 o
-2 11 3 1 184.49 171.87 60.37 <
-2 -11 3 1 249.21 163.04 96.04 <
-2 11 3 2 161.44 170.63 62.39 <
-2 -11 3 2 179.23 135.32 83.77 <
-1 11 3 -2 375.48 197.76 60.55 o
-1 -11 3 -2 346.91 261.45 118.25 <
-1 11 3 -1 283.42 191.48 59.19 o
-1 -11 3 -1 272.76 360.69 132.89 <
-1 11 3 0 143.78 124.30 49.29 <
-1 -11 3 0 79.42 127.91 92.07 <
-1 11 3 1 162.68 5.57 38.45 <
-1 -11 3 1 122.50 -30.39 26.96 <
-1 11 3 2 39.72 42.54 33.65 <
-1 -11 3 2 46.50 54.98 31.22 <
0 11 3 -2 114.79 303.57 69.14 o
0 -11 3 -2 109.51 228.10 105.04 <
0 11 3 -1 1897.65 1979.63 163.40 o
0 -11 3 -1 1937.83 1486.23 148.05 o
0 11 3 0 19.13 49.77 43.01 <
0 -11 3 0 99.70 45.44 34.30 <
0 11 3 1 46.36 40.35 44.20 <
0 -11 3 1 42.31 52.55 34.95 <
0 11 3 2 20.85 33.12 22.16 <
0 -11 3 2 21.44 6.64 19.20 <
1 11 3 -2 132.87 96.75 32.76 <
1 -11 3 -2 147.31 111.86 63.22 <
1 11 3 -1 288.52 175.60 45.20 o
1 -11 3 -1 288.29 133.42 57.71 <
1 11 3 0 153.88 126.43 41.59 o
1 -11 3 0 70.71 19.55 24.76 <
1 11 3 1 1195.99 1141.01 108.36 o
1 -11 3 1 1127.63 1707.75 240.83 o
1 11 3 2 149.29 95.39 36.50 <
1 -11 3 2 145.43 108.06 45.74 <
2 11 3 -2 255.07 48.17 24.17 <
2 -11 3 -2 262.05 70.86 42.89 <
2 11 3 -1 1341.09 896.86 136.74 o
2 -11 3 -1 1363.62 1075.43 162.75 o
2 11 3 0 3284.40 2494.89 224.42 o
2 -11 3 0 3258.04 3031.89 266.55 o
2 11 3 1 149.92 274.90 80.81 o
2 -11 3 1 131.16 307.25 98.88 o
2 11 3 2 554.47 291.79 88.93 o
2 -11 3 2 546.18 522.43 138.46 o
3 11 3 -2 82.43 125.84 56.52 <
3 -11 3 -2 94.91 5.51 49.41 <
3 11 3 -1 319.20 264.12 84.48 o
3 -11 3 -1 306.78 323.36 109.60 <
3 11 3 0 396.04 454.06 114.76 o
3 -11 3 0 388.87 355.00 111.08 o
3 11 3 1 113.56 152.85 66.06 <
3 -11 3 1 119.15 71.33 50.36 <
3 11 3 2 96.04 183.42 83.36 <
3 -11 3 2 82.82 285.45 98.88 <
4 11 3 -2 327.26 135.08 132.53 <
4 -11 3 -2 347.83 170.75 94.20 <
4 11 3 -1 232.52 213.17 137.15 <
4 -11 3 -1 244.00 305.17 121.81 <
4 11 3 0 961.48 747.56 243.97 o
4 -11 3 0 920.87 483.03 143.91 o
4 11 3 1 31.55 293.27 168.73 <
4 -11 3 1 34.33 295.75 112.45 <
4 11 3 2 46.51 128.27 135.14 <
4 -11 3 2 57.14 146.46 76.66 <
5 11 3 -2 56.63 21.74 100.89 <
5 -11 3 -2 59.62 -34.13 59.13 <
5 11 3 -1 116.48 123.23 84.90 <
5 -11 3 -1 109.68 -45.03 19.31 <
5 11 3 0 204.72 206.83 169.21 <
5 -11 3 0 211.22 41.41 48.94 <
5 11 3 1 87.13 101.07 115.77 <
5 -11 3 1 104.55 65.58 50.65 <
5 11 3 2 14.14 252.39 182.77 <
5 -11 3 2 10.94 91.95 89.22 <
6 11 3 -2 38.79 51.96 97.99 <
6 -11 3 -2 45.16 32.29 34.30 <
-5 12 3 -2 37.59 103.38 96.63 <
-5 -12 3 -2 36.62 -62.27 60.43 <
-5 12 3 -1 89.60 115.59 110.49 <
-5 -12 3 -1 89.10 202.03 148.71 <
-5 12 3 0 227.38 356.01 173.29 <
-5 -12 3 0 234.66 224.72 133.42 <
-5 12 3 1 92.53 -11.73 50.24 <
-5 -12 3 1 89.05 142.37 117.54 <
-5 12 3 2 12.37 78.14 104.15 <
-5 -12 3 2 12.80 78.44 84.54 <
-4 12 3 -2 143.60 100.48 56.46 <
-4 -12 3 -2 124.72 192.07 136.74 <
-4 12 3 -1 109.43 232.30 82.53 <
-4 -12 3 -1 118.44 172.17 126.61 <
-4 12 3 0 285.78 95.62 55.69 <
-4 -12 3 0 271.02 241.54 165.35 <
-4 12 3 1 42.58 101.78 65.29 <
-4 -12 3 1 50.05 160.14 121.81 <
-4 12 3 2 276.73 98.94 44.20 <
-4 -12 3 2 264.66 148.35 112.03 <
-3 12 3 -2 40.50 -54.09 74.53 <
-3 -12 3 -2 41.73 115.35 74.35 <
-3 12 3 -1 196.40 178.21 78.74 <
-3 -12 3 -1 191.02 190.18 138.40 <
-3 12 3 0 2239.26 2490.15 270.22 o
-3 -12 3 0 2296.20 2920.75 430.66 o
-3 12 3 1 237.96 137.63 59.30 <
-3 -12 3 1 228.73 412.29 184.85 <
-3 12 3 2 162.70 125.30 57.88 <
-3 -12 3 2 151.31 194.33 138.34 <
-2 12 3 -2 234.30 116.54 72.04 <
-2 -12 3 -2 237.16 185.50 118.85 <
-2 12 3 -1 95.37 310.03 102.67 o
-2 -12 3 -1 95.81 271.05 72.75 o
-2 12 3 0 570.17 478.53 94.32 o
-2 -12 3 0 555.72 504.48 161.80 o
-2 12 3 1 340.26 320.99 81.17 o
-2 -12 3 1 353.26 463.12 162.93 <
-2 12 3 2 191.98 85.49 42.42 <
-2 -12 3 2 184.91 38.27 77.61 <
-1 12 3 -2 74.10 201.73 66.12 o
-1 -12 3 -2 79.07 197.88 112.68 <
-1 12 3 -1 409.06 728.42 114.58 o
-1 -12 3 -1 418.23 563.72 177.32 o
-1 12 3 0 7653.48 7968.06 344.87 o
-1 -12 3 0 7794.16 8166.89 587.84 o
-1 12 3 1 195.55 147.94 49.53 <
-1 -12 3 1 173.64 186.51 94.73 <
-1 12 3 2 238.58 427.58 86.26 o
-1 -12 3 2 226.00 211.39 63.93 o
0 12 3 -2 48.78 44.79 39.16 <
0 -12 3 -2 64.27 132.18 93.79 <
0 12 3 -1 128.71 259.44 70.74 o
0 -12 3 -1 98.25 193.20 92.07 <
0 12 3 0 1402.06 1200.79 152.08 o
0 -12 3 0 1393.41 1074.42 124.47 o
0 12 3 1 154.83 217.13 71.39 o
0 -12 3 1 175.09 147.05 43.19 o
0 12 3 2 20.15 44.73 28.79 <
0 -12 3 2 26.23 2.13 7.41 <
1 12 3 -2 141.93 81.70 37.21 <
1 -12 3 -2 147.54 62.44 46.86 <
1 12 3 -1 107.80 82.94 36.20 <
1 -12 3 -1 128.80 104.21 60.13 <
1 12 3 0 7947.62 7070.13 268.86 o
1 -12 3 0 8106.61 8108.23 498.49 o
1 12 3 1 278.61 436.40 74.65 o
1 -12 3 1 282.37 507.26 120.74 o
1 12 3 2 333.84 74.47 57.71 <
1 -12 3 2 323.90 184.02 62.21 <
2 12 3 -2 97.89 53.14 27.79 <
2 -12 3 -2 116.82 63.10 53.08 <
2 12 3 -1 381.67 80.04 54.45 <
2 -12 3 -1 336.08 294.27 91.24 o
2 12 3 0 284.73 229.40 64.28 o
2 -12 3 0 262.12 273.54 83.77 o
2 12 3 1 110.43 90.41 52.43 <
2 -12 3 1 128.13 180.99 79.86 <
2 12 3 2 602.05 513.90 116.06 o
2 -12 3 2 633.48 539.14 139.70 o
3 12 3 -2 102.89 114.76 54.27 <
3 -12 3 -2 98.09 150.43 65.53 <
3 -12 3 -1 175.49 -12.56 14.16 <
3 12 3 0 2205.05 2402.35 390.01 o
3 -12 3 0 2254.50 2069.03 263.17 o
3 12 3 1 170.15 499.91 172.94 <
3 -12 3 1 171.48 386.70 122.40 o
3 12 3 2 51.85 -62.92 51.43 <
3 -12 3 2 54.96 15.23 38.39 <
4 12 3 -2 83.09 -11.91 75.18 <
4 -12 3 -2 91.62 118.61 66.83 <
4 12 3 -1 180.77 9.60 74.89 <
4 -12 3 -1 178.07 143.26 90.23 <
4 12 3 0 104.22 27.31 125.72 <
4 -12 3 0 99.75 193.38 99.83 <
4 12 3 1 15.68 57.41 52.67 <
4 -12 3 1 13.65 28.67 66.83 <
4 12 3 2 135.42 190.36 105.28 <
4 -12 3 2 128.92 215.12 102.67 <
5 12 3 -2 48.27 60.67 66.30 <
5 -12 3 -2 43.60 115.88 105.99 <
5 12 3 -1 46.95 55.69 84.78 <
5 -12 3 -1 47.76 -82.17 58.83 <
5 12 3 0 222.39 85.55 48.23 <
5 -12 3 0 226.31 70.44 45.97 <
5 12 3 1 169.12 427.58 210.03 <
5 -12 3 1 175.57 132.53 109.13 <
5 -12 3 2 26.35 -175.54 116.48 <
6 12 3 -2 36.17 26.54 18.43 <
-5 13 3 -1 79.96 315.42 193.38 <
-5 -13 3 -1 60.00 221.58 141.24 <
-5 13 3 0 44.38 110.02 91.77 <
-5 -13 3 0 48.81 226.73 134.66 <
-5 13 3 1 59.56 255.88 169.21 <
-5 -13 3 1 59.67 209.73 118.61 <
-5 13 3 2 20.69 13.21 90.29 <
-5 -13 3 2 13.32 -4.62 54.09 <
-4 13 3 -2 224.48 203.69 93.96 <
-4 -13 3 -2 236.20 99.41 88.22 <
-4 13 3 -1 37.90 93.79 58.83 <
-4 -13 3 -1 40.85 11.97 65.88 <
-4 13 3 0 1348.72 852.13 183.78 o
-4 -13 3 0 1362.50 994.26 274.66 o
-4 13 3 1 259.78 429.65 128.15 o
-4 -13 3 1 252.21 340.42 150.48 <
-4 13 3 2 114.14 289.06 111.38 <
-4 -13 3 2 113.14 273.00 142.90 <
-3 13 3 -2 60.69 95.39 68.84 <
-3 -13 3 -2 58.07 88.69 102.32 <
-3 13 3 -1 94.29 -3.20 40.58 <
-3 -13 3 -1 68.02 134.90 108.00 <
-3 13 3 0 151.27 20.80 54.98 <
-3 -13 3 0 158.73 94.91 99.53 <
-3 13 3 1 430.35 364.30 95.92 o
-3 -13 3 1 428.42 364.18 173.47 <
-3 13 3 2 81.48 21.68 41.83 <
-3 -13 3 2 74.63 118.14 101.07 <
-2 13 3 -2 1073.50 1019.02 179.51 o
-2 -13 3 -2 1038.74 1138.52 270.87 o
-2 13 3 -1 87.38 79.27 52.97 <
-2 -13 3 -1 79.18 194.92 97.40 <
-2 13 3 0 12320.20 13590.90 631.20 o
-2 -13 3 0 12466.30 13507.90 881.63 o
-2 13 3 1 196.72 209.26 62.98 o
-2 -13 3 1 185.40 238.17 116.95 <
-2 13 3 2 382.26 511.53 102.08 o
-2 -13 3 2 375.75 595.18 184.43 o
-1 13 3 -2 62.72 70.15 43.78 <
-1 -13 3 -2 77.49 66.12 58.24 <
-1 13 3 -1 357.07 378.17 77.85 o
-1 -13 3 -1 329.49 489.61 151.73 o
-1 13 3 0 363.56 254.58 74.77 o
-1 -13 3 0 364.93 170.33 121.04 <
-1 13 3 1 525.72 551.87 93.19 o
-1 -13 3 1 521.29 465.97 158.42 <
-1 13 3 2 87.95 189.59 66.00 <
-1 -13 3 2 81.25 355.00 139.17 <
0 13 3 -2 187.09 182.89 55.81 o
0 -13 3 -2 177.90 126.07 108.89 <
0 13 3 -1 87.88 66.53 32.47 <
0 -13 3 -1 73.56 57.88 100.84 <
0 13 3 0 871.92 847.15 117.96 o
0 -13 3 0 908.99 1198.72 228.21 o
0 13 3 1 346.48 220.63 65.05 o
0 -13 3 1 367.89 230.35 64.10 o
0 13 3 2 272.34 204.99 61.08 o
0 -13 3 2 262.86 142.54 50.60 <
1 13 3 -2 165.65 68.84 44.32 <
1 13 3 -1 668.62 525.74 108.60 o
1 -13 3 -1 659.83 438.60 110.49 o
1 13 3 0 219.83 180.70 68.37 <
1 -13 3 0 216.94 98.29 65.35 <
1 13 3 1 184.59 199.72 69.91 <
1 -13 3 1 180.28 176.32 70.50 <
1 13 3 2 288.87 149.12 69.38 <
1 -13 3 2 299.41 180.70 68.07 <
2 13 3 -2 173.10 160.44 50.65 o
2 -13 3 -2 171.99 273.60 82.41 o
2 13 3 -1 129.70 37.15 26.60 <
2 -13 3 -1 118.18 125.84 56.34 <
2 13 3 0 10957.60 8405.82 427.87 o
2 -13 3 0 10951.20 9209.25 490.08 o
2 13 3 1 933.63 935.37 149.71 o
2 -13 3 1 916.22 949.17 171.52 o
2 13 3 2 1025.81 1128.21 262.28 o
2 -13 3 2 986.99 1041.89 182.89 o
3 13 3 -2 289.07 144.03 96.45 <
3 -13 3 -2 265.37 82.29 73.88 <
3 13 3 -1 361.14 283.90 140.53 <
3 -13 3 -1 354.58 151.79 70.92 <
3 13 3 0 107.32 137.45 111.62 <
3 -13 3 0 113.40 27.13 55.63 <
3 13 3 1 48.76 -21.21 54.33 <
3 -13 3 1 47.73 77.14 50.95 <
3 13 3 2 77.08 111.26 109.25 <
3 -13 3 2 69.41 -26.66 59.78 <
4 13 3 -2 15.82 -1.01 13.92 <
4 -13 3 -2 18.08 53.20 65.76 <
4 13 3 -1 49.43 145.68 147.29 <
4 -13 3 -1 45.61 87.27 61.26 <
4 13 3 0 992.00 602.88 234.20 <
4 -13 3 0 984.33 520.12 154.34 o
4 13 3 1 464.99 447.72 203.21 <
4 -13 3 1 445.88 423.19 134.43 o
4 13 3 2 55.10 -33.36 31.22 <
4 -13 3 2 61.23 204.87 102.67 <
5 13 3 -2 150.02 38.57 46.45 <
5 -13 3 -2 139.21 -86.26 93.43 <
5 13 3 -1 56.73 35.67 50.36 <
5 -13 3 -1 57.15 -52.08 101.72 <
5 13 3 0 29.96 98.76 127.26 <
5 -13 3 0 33.08 -21.27 64.28 <
5 13 3 1 14.88 109.31 123.23 <
5 -13 3 1 16.18 -59.19 107.29 <
-5 14 3 0 31.31 50.83 5.10 o
-5 -14 3 0 36.45 66.24 13.09 o
-5 14 3 1 49.08 -24.65 54.51 <
-5 -14 3 1 50.05 79.86 127.56 <
-5 14 3 2 98.72 13.51 55.45 <
-5 -14 3 2 103.89 162.15 115.47 <
-4 14 3 -2 27.15 -39.10 44.43 <
-4 -14 3 -2 26.55 58.89 95.15 <
-4 14 3 -1 243.35 250.02 110.79 <
-4 -14 3 -1 242.56 190.48 104.57 <
-4 14 3 0 1061.59 893.78 194.27 o
-4 -14 3 0 1054.89 842.12 253.39 o
-4 14 3 1 145.59 98.53 67.84 <
-4 -14 3 1 149.40 69.55 22.75 o
-4 14 3 2 48.37 85.02 66.65 <
-4 -14 3 2 57.28 -2.90 50.77 <
-3 14 3 -2 92.83 119.56 70.03 <
-3 -14 3 -2 91.37 181.05 133.24 <
-3 14 3 -1 446.00 580.43 145.98 o
-3 -14 3 -1 489.17 439.07 178.86 <
-3 14 3 0 72.04 5.92 41.47 <
-3 14 3 1 136.01 76.43 54.21 <
-3 -14 3 1 136.68 244.57 159.01 <
-3 14 3 2 221.34 173.89 63.99 <
-3 -14 3 2 247.36 293.33 142.84 <
-2 14 3 -2 458.76 174.71 94.32 <
-2 -14 3 -2 449.67 310.98 158.07 <
-2 14 3 -1 298.46 222.76 72.10 o
-2 -14 3 -1 262.32 479.18 195.15 <
-2 14 3 0 1937.85 2181.90 214.23 o
-2 -14 3 0 1967.37 2442.34 396.77 o
-2 14 3 1 292.71 289.42 80.87 o
-2 -14 3 1 306.30 290.42 130.81 <
-2 14 3 2 29.08 55.81 46.80 <
-2 -14 3 2 29.13 25.24 90.05 <
-1 14 3 -2 548.17 705.14 121.51 o
-1 -14 3 -2 530.18 719.18 217.43 o
-1 14 3 -1 894.23 1252.63 157.48 o
-1 -14 3 -1 955.59 1332.79 265.66 o
-1 14 3 0 494.47 436.29 88.34 o
-1 -14 3 0 452.75 291.01 141.95 <
-1 14 3 1 162.46 100.78 43.78 <
-1 -14 3 1 144.12 279.22 123.23 <
-1 14 3 2 235.76 218.14 62.80 o
-1 -14 3 2 271.89 226.61 116.42 <
0 14 3 -2 89.09 78.97 32.23 <
0 -14 3 -2 81.80 12.26 36.85 <
0 14 3 -1 159.27 277.03 77.55 o
0 -14 3 -1 124.30 353.22 132.29 <
0 14 3 0 2041.68 2533.70 204.28 o
0 -14 3 0 2110.19 2155.30 314.71 o
0 14 3 1 496.27 656.26 113.99 o
0 -14 3 1 479.49 687.54 175.13 o
0 14 3 2 22.32 55.39 41.77 <
0 -14 3 2 31.36 25.06 36.38 <
1 14 3 -2 308.13 320.70 82.88 o
1 14 3 -1 137.05 153.45 66.30 <
1 14 3 0 617.51 516.39 99.65 o
1 -14 3 0 605.50 696.49 146.10 o
1 14 3 1 265.86 284.50 78.80 o
1 -14 3 1 273.21 364.06 108.83 o
1 14 3 2 29.07 15.11 31.76 <
1 -14 3 2 29.43 91.06 59.36 <
2 14 3 -2 219.22 243.20 119.50 <
2 -14 3 -2 223.46 320.16 151.08 <
2 14 3 -1 761.10 709.53 196.64 o
2 -14 3 -1 787.62 679.13 145.09 o
2 14 3 0 2135.37 2055.82 336.04 o
2 -14 3 0 2160.67 2157.84 242.85 o
2 14 3 1 836.23 877.60 230.82 o
2 -14 3 1 789.49 986.08 171.81 o
2 14 3 2 166.07 109.25 85.37 <
2 -14 3 2 151.27 41.00 27.37 <
3 14 3 -2 115.94 52.20 41.35 <
3 -14 3 -2 108.25 224.13 148.05 <
3 14 3 -1 455.02 672.91 218.50 o
3 -14 3 -1 440.62 594.65 135.97 o
3 14 3 0 141.99 345.64 167.66 <
3 -14 3 0 149.33 239.17 94.79 <
3 14 3 1 117.82 162.87 103.80 <
3 -14 3 1 112.57 103.38 47.63 <
3 14 3 2 25.04 70.38 69.61 <
3 -14 3 2 21.23 3.55 31.87 <
4 14 3 -2 231.01 180.28 141.71 <
4 -14 3 -2 236.91 325.73 197.58 <
4 14 3 -1 303.91 444.46 196.81 <
4 -14 3 -1 333.63 238.29 151.96 <
4 14 3 0 795.94 786.31 255.23 o
4 -14 3 0 785.93 640.80 228.10 <
4 14 3 1 475.17 541.92 206.65 <
4 -14 3 1 450.94 722.68 175.37 o
4 14 3 2 50.03 76.19 62.62 <
4 -14 3 2 60.05 146.10 82.88 <
5 14 3 -2 14.87 -52.91 62.56 <
5 -14 3 -2 14.38 110.20 122.11 <
5 14 3 -1 131.36 136.74 155.16 <
5 -14 3 -1 125.18 37.68 34.30 <
5 14 3 0 42.06 230.64 167.43 <
5 -14 3 0 47.56 45.38 33.95 <
5 -14 3 1 8.58 35.67 86.97 <
-5 15 3 1 155.48 275.67 159.43 <
-5 -15 3 1 163.05 209.32 164.23 <
-5 15 3 2 112.15 115.35 136.98 <
-5 -15 3 2 116.14 257.42 168.67 <
-4 15 3 -2 39.04 155.88 103.03 <
-4 -15 3 -2 29.81 79.80 84.72 <
-4 15 3 -1 32.85 188.46 99.59 <
-4 -15 3 -1 31.94 101.49 89.16 <
-4 15 3 0 373.27 675.81 168.32 o
-4 -15 3 0 373.77 722.91 254.82 <
-4 15 3 1 39.70 50.54 66.53 <
-4 -15 3 1 41.82 23.88 8.71 <
-4 15 3 2 87.93 157.18 79.63 <
-4 -15 3 2 99.31 200.19 124.47 <
-3 15 3 -2 69.56 205.94 98.76 <
-3 -15 3 -2 74.22 98.41 120.45 <
-3 15 3 -1 903.49 972.81 194.09 o
-3 -15 3 -1 889.90 1604.90 358.08 o
-3 15 3 0 251.63 377.16 136.62 <
-3 -15 3 0 250.18 301.32 155.46 <
-3 15 3 1 408.37 162.45 70.86 <
-3 -15 3 1 430.19 323.07 163.28 <
-3 15 3 2 192.02 362.76 92.19 o
-3 -15 3 2 211.10 466.26 204.69 <
-2 15 3 -2 213.38 274.84 84.19 o
-2 -15 3 -2 226.97 236.69 153.45 <
-2 15 3 -1 10.80 99.47 51.07 <
-2 -15 3 -1 22.26 56.05 42.60 <
-2 15 3 0 611.91 866.76 143.43 o
-2 -15 3 0 637.91 912.32 244.68 o
-2 15 3 1 18.72 -9.06 48.70 <
-2 -15 3 1 11.19 5.04 64.16 <
-2 15 3 2 99.68 139.88 62.98 <
-2 -15 3 2 109.61 64.64 42.12 <
-1 15 3 -2 125.06 339.71 89.34 o
-1 -15 3 -2 128.03 251.50 136.80 <
-1 15 3 -1 2470.74 3243.40 252.68 o
-1 -15 3 -1 2491.32 3374.87 432.85 o
-1 15 3 0 1026.72 947.28 136.09 o
-1 -15 3 0 1103.83 1000.42 232.30 o
-1 15 3 1 808.40 704.73 120.51 o
-1 -15 3 1 823.03 586.18 176.43 o
-1 15 3 2 191.51 182.30 58.77 o
-1 -15 3 2 210.19 237.22 110.73 <
0 15 3 -2 87.74 -11.02 44.26 <
0 -15 3 -2 88.81 35.78 66.41 <
0 15 3 -1 9.05 83.12 52.25 <
0 -15 3 -1 11.16 119.38 112.98 <
0 15 3 0 5732.24 5647.88 322.18 o
0 -15 3 0 5892.66 5400.83 520.35 o
0 15 3 1 171.34 152.38 73.35 <
0 -15 3 1 200.95 129.27 112.45 <
0 15 3 2 89.58 109.19 52.61 <
0 -15 3 2 103.71 171.16 89.99 <
1 15 3 -2 34.68 0.24 26.42 <
1 15 3 -1 1114.40 952.14 233.13 o
1 15 3 0 992.92 878.67 220.27 o
1 15 3 1 54.08 116.18 89.93 <
1 -15 3 1 61.12 14.34 32.41 <
1 15 3 2 94.91 8.65 33.71 <
1 -15 3 2 90.25 24.76 40.35 <
2 15 3 -2 62.80 60.37 64.93 <
2 -15 3 -2 60.39 29.03 67.54 <
2 15 3 -1 66.28 72.10 56.82 <
2 -15 3 -1 91.05 74.29 113.28 <
2 15 3 0 694.96 733.64 205.64 o
2 -15 3 0 737.52 693.41 149.48 o
2 15 3 1 33.74 115.29 75.06 <
2 -15 3 1 67.18 183.60 83.06 <
2 15 3 2 301.79 132.83 79.33 <
2 -15 3 2 306.30 178.03 81.52 <
3 15 3 -2 123.45 13.86 19.37 <
3 -15 3 -2 136.77 161.98 132.77 <
3 15 3 -1 277.10 168.49 129.04 <
3 -15 3 -1 301.88 150.43 104.10 <
3 15 3 0 266.41 144.97 124.95 <
3 -15 3 0 276.33 121.51 61.20 <
3 15 3 1 172.43 301.74 154.39 <
3 -15 3 1 173.33 157.89 78.92 <
3 15 3 2 69.92 179.34 137.15 <
3 -15 3 2 74.31 41.06 48.05 <
4 15 3 -2 121.79 222.11 125.13 <
4 -15 3 -2 120.81 28.26 52.67 <
4 15 3 -1 20.23 62.80 86.14 <
4 -15 3 -1 26.58 186.80 147.17 <
4 15 3 0 425.19 776.06 262.52 <
4 -15 3 0 431.29 673.68 254.04 <
4 15 3 1 45.68 131.70 116.48 <
4 -15 3 1 71.54 109.19 128.15 <
4 15 3 2 11.06 -16.23 42.18 <
4 -15 3 2 12.04 93.31 104.10 <
5 15 3 -2 52.58 -11.55 59.78 <
5 -15 3 -2 64.13 123.65 120.80 <
5 15 3 -1 20.41 -69.50 100.24 <
5 -15 3 -1 24.32 0.59 117.43 <
5 15 3 0 181.27 36.26 90.47 <
5 -15 3 0 170.19 -253.45 150.31 <
-5 16 3 2 65.91 -8.41 55.99 <
-5 -16 3 2 60.43 49.11 102.44 <
-4 16 3 -2 26.74 229.22 110.08 <
-4 -16 3 -2 32.13 75.48 89.99 <
-4 16 3 -1 297.35 177.50 143.08 <
-4 -16 3 -1 279.79 109.90 76.49 <
-4 16 3 0 36.51 24.53 18.13 <
-4 -16 3 0 45.66 112.33 102.38 <
-4 16 3 1 37.47 -4.92 94.08 <
-4 -16 3 1 35.59 -60.19 108.30 <
-4 16 3 2 226.48 43.25 69.73 <
-4 -16 3 2 225.31 55.39 44.38 <
-3 16 3 -2 60.16 21.92 48.40 <
-3 -16 3 -2 51.80 152.62 125.07 <
-3 16 3 -1 135.44 234.97 87.21 <
-3 -16 3 -1 135.72 272.53 167.78 <
-3 16 3 0 1371.04 1133.90 176.37 o
-3 -16 3 0 1336.35 1207.25 305.59 o
-3 16 3 1 67.62 34.30 46.69 <
-3 -16 3 1 77.77 0.53 45.92 <
-3 16 3 2 88.64 5.15 43.07 <
-3 -16 3 2 85.95 49.88 77.49 <
-2 16 3 -2 62.13 39.99 46.27 <
-2 -16 3 -2 60.92 196.10 99.12 <
-2 16 3 -1 1005.00 997.16 163.04 o
-2 -16 3 -1 980.99 1161.39 285.09 o
-2 16 3 0 317.76 392.50 102.02 o
-2 -16 3 0 371.79 342.97 158.78 <
-2 16 3 1 97.76 117.90 59.48 <
-2 -16 3 1 89.20 100.42 88.81 <
-2 16 3 2 421.44 222.29 75.30 <
-2 -16 3 2 394.99 262.81 149.24 <
-1 16 3 -2 81.39 219.27 67.95 o
-1 -16 3 -2 85.62 153.68 124.12 <
-1 16 3 -1 1619.28 1619.24 186.09 o
-1 -16 3 -1 1633.13 1670.67 316.85 o
-1 16 3 0 3225.00 3097.72 255.59 o
-1 -16 3 0 3129.35 2852.73 402.16 o
-1 16 3 1 352.50 193.85 62.98 o
-1 -16 3 1 361.97 142.66 79.74 <
-1 16 3 2 21.13 54.45 34.72 <
-1 -16 3 2 19.41 16.65 33.71 <
0 16 3 -2 44.48 95.74 42.36 <
0 -16 3 -2 42.82 43.96 54.80 <
0 16 3 -1 1405.11 1366.62 163.58 o
0 -16 3 -1 1424.61 1355.01 271.52 o
0 16 3 0 344.64 517.39 102.97 o
0 -16 3 0 431.20 648.68 183.54 o
0 16 3 1 1076.99 1109.79 149.24 o
0 -16 3 1 1059.96 884.00 214.65 o
0 16 3 2 405.79 454.24 112.33 o
0 -16 3 2 377.21 351.98 154.63 <
1 16 3 -2 139.40 191.30 101.49 <
1 16 3 -1 110.18 134.84 119.62 <
1 16 3 0 3054.86 2812.45 406.96 o
1 16 3 1 467.21 495.83 187.04 <
1 -16 3 1 488.89 684.35 254.46 <
1 16 3 2 38.56 -1.07 49.35 <
1 -16 3 2 33.31 220.33 155.34 <
2 16 3 -2 57.17 81.64 83.77 <
2 -16 3 -2 59.57 -36.79 33.89 <
2 16 3 -1 83.29 209.97 121.51 <
2 -16 3 -1 96.79 104.45 82.59 <
2 16 3 0 355.81 481.61 184.61 <
2 -16 3 0 393.99 341.20 147.82 <
2 16 3 1 662.74 845.32 240.77 o
2 -16 3 1 660.78 941.06 172.58 o
2 16 3 2 159.54 44.43 69.73 <
2 -16 3 2 160.49 112.09 73.41 <
3 16 3 -2 111.57 -15.11 18.07 <
3 -16 3 -2 114.43 116.95 103.74 <
3 16 3 -1 175.82 176.32 123.71 <
3 -16 3 -1 152.07 -100.78 87.57 <
3 16 3 0 1034.69 1067.01 285.33 o
3 -16 3 0 1003.38 677.06 224.78 o
3 16 3 1 538.49 693.71 227.27 o
3 -16 3 1 521.83 408.14 133.60 o
3 16 3 2 114.16 176.91 127.61 <
3 -16 3 2 99.53 80.69 60.67 <
4 16 3 -2 53.43 177.50 140.41 <
4 -16 3 -2 52.31 19.61 41.89 <
4 16 3 -1 26.18 91.77 121.75 <
4 -16 3 -1 29.64 36.91 66.12 <
4 16 3 0 14.96 206.06 157.30 <
4 -16 3 0 16.54 33.65 55.39 <
4 16 3 1 135.11 353.64 201.79 <
4 -16 3 1 132.67 117.25 122.99 <
4 16 3 2 59.14 85.97 74.95 <
4 -16 3 2 61.00 100.36 73.88 <
5 16 3 -2 52.70 -104.10 157.12 <
5 -16 3 -2 51.17 155.52 140.53 <
5 16 3 -1 114.89 30.22 76.60 <
5 -16 3 -1 112.06 111.08 127.14 <
-4 17 3 -2 39.92 227.03 113.34 <
-4 -17 3 -2 31.35 40.76 97.10 <
-4 17 3 -1 11.79 32.05 73.11 <
-4 -17 3 -1 7.10 -92.72 108.54 <
-4 17 3 0 113.72 191.42 105.04 <
-4 -17 3 0 116.90 185.85 130.64 <
-4 17 3 1 44.67 -15.58 69.61 <
-4 -17 3 1 36.12 -79.45 108.60 <
-4 17 3 2 109.33 143.67 114.70 <
-4 -17 3 2 104.69 186.09 137.75 <
-3 17 3 -2 38.91 108.30 59.42 <
-3 -17 3 -2 40.56 156.59 141.24 <
-3 17 3 -1 694.74 992.24 183.54 o
-3 -17 3 -1 698.82 1086.09 301.03 o
-3 17 3 0 152.87 204.46 75.66 <
-3 -17 3 0 158.53 30.69 57.76 <
-3 17 3 1 183.68 101.84 56.16 <
-3 -17 3 1 171.74 66.06 100.66 <
-3 17 3 2 152.99 135.73 67.42 <
-3 -17 3 2 155.36 74.06 77.26 <
-2 17 3 -2 110.53 184.91 77.61 <
-2 -17 3 -2 100.51 128.74 78.32 <
-2 17 3 -1 56.08 148.29 55.39 <
-2 -17 3 -1 55.60 199.60 142.13 <
-2 17 3 0 306.21 372.60 102.61 o
-2 -17 3 0 329.62 505.36 200.01 <
-2 17 3 1 58.93 47.69 43.49 <
-2 -17 3 1 37.20 -25.83 59.36 <
-2 17 3 2 87.59 171.04 60.67 <
-2 -17 3 2 80.92 220.45 122.40 <
-1 17 3 -2 65.79 136.86 76.60 <
-1 -17 3 -2 66.64 90.65 102.85 <
-1 17 3 -1 1251.55 1539.79 188.64 o
-1 -17 3 -1 1213.56 1611.54 328.34 o
-1 17 3 0 68.42 51.48 53.79 <
-1 -17 3 0 66.53 286.81 144.56 <
-1 17 3 1 198.91 151.25 64.46 <
-1 -17 3 1 204.77 200.25 138.16 <
-1 17 3 2 109.01 -17.95 23.99 <
0 17 3 -2 191.24 252.33 67.84 o
0 -17 3 -2 197.50 388.36 161.38 <
0 17 3 -1 147.63 336.81 85.73 o
0 -17 3 -1 144.43 241.25 128.33 <
0 17 3 0 195.02 138.34 60.96 <
0 -17 3 0 179.17 174.66 108.42 <
0 17 3 1 183.49 233.78 76.60 o
0 -17 3 1 149.01 159.31 109.31 <
0 17 3 2 119.15 311.16 123.88 <
0 -17 3 2 103.65 199.07 88.34 <
1 17 3 -2 217.71 315.60 116.18 <
1 17 3 -1 730.99 800.65 172.88 o
1 17 3 0 178.62 122.93 110.61 <
1 -17 3 0 169.98 246.11 164.82 <
1 17 3 1 611.21 639.08 196.99 o
1 -17 3 1 592.99 971.92 311.04 o
1 17 3 2 97.21 53.50 48.11 <
1 -17 3 2 99.13 229.46 157.24 <
2 17 3 -2 83.82 49.00 85.25 <
2 -17 3 -2 87.74 17.60 74.18 <
2 17 3 -1 104.46 116.54 96.99 <
2 -17 3 -1 102.30 45.15 30.63 <
2 17 3 0 211.08 239.88 140.89 <
2 -17 3 0 223.37 103.26 91.53 <
2 17 3 1 144.13 57.71 52.02 <
2 -17 3 1 127.59 100.42 81.76 <
2 17 3 2 58.26 109.84 115.77 <
2 -17 3 2 54.97 95.68 71.09 <
3 17 3 -2 234.94 28.44 64.28 <
3 -17 3 -2 244.98 53.44 119.91 <
3 17 3 -1 81.43 56.94 73.70 <
3 -17 3 -1 75.00 135.55 85.79 <
3 17 3 0 325.25 335.63 152.91 <
3 -17 3 0 339.60 155.76 110.97 <
3 17 3 1 345.00 607.09 224.24 <
3 -17 3 1 317.57 344.10 179.99 <
3 17 3 2 78.90 137.92 125.30 <
3 -17 3 2 75.22 47.04 59.07 <
4 17 3 -2 161.27 49.65 88.16 <
4 -17 3 -2 163.86 165.65 160.50 <
4 17 3 -1 49.55 204.40 144.20 <
4 -17 3 -1 52.85 141.77 166.84 <
4 17 3 0 89.42 247.88 161.50 <
4 -17 3 0 89.53 223.53 165.95 <
4 17 3 1 88.15 148.71 105.16 <
4 -17 3 1 84.91 137.92 128.68 <
4 17 3 2 11.04 -158.01 124.95 <
4 -17 3 2 8.73 130.87 129.21 <
5 17 3 -2 103.79 109.31 44.97 <
5 -17 3 -2 105.25 126.96 163.10 <
-4 18 3 -2 96.71 276.32 122.11 <
-4 -18 3 -2 91.31 196.52 110.91 <
-4 18 3 -1 66.04 173.53 108.60 <
-4 -18 3 -1 69.40 5.10 61.14 <
-4 18 3 0 65.05 137.63 95.86 <
-4 -18 3 0 65.55 32.76 54.51 <
-4 18 3 1 26.74 23.17 47.93 <
-4 -18 3 1 23.67 -61.91 41.83 <
-4 18 3 2 64.25 18.37 66.95 <
-4 -18 3 2 73.64 50.06 62.86 <
-3 18 3 -2 12.59 -43.49 52.43 <
-3 -18 3 -2 10.47 -58.65 113.40 <
-3 18 3 -1 135.07 168.61 87.21 <
-3 -18 3 -1 101.81 160.02 91.53 <
-3 18 3 0 12.53 78.56 66.24 <
-3 -18 3 0 5.04 7.29 62.68 <
-3 18 3 1 62.09 47.63 76.84 <
-3 -18 3 1 54.79 -1.36 25.65 <
-3 18 3 2 46.82 79.39 50.60 <
-3 -18 3 2 39.42 -51.13 88.57 <
-2 18 3 -2 122.36 226.73 82.94 <
-2 -18 3 -2 118.66 152.38 13.63 o
-2 18 3 -1 262.57 262.70 86.79 o
-2 -18 3 -1 275.52 269.80 169.98 <
-2 18 3 0 162.10 120.33 58.06 <
-2 -18 3 0 172.61 99.71 126.96 <
-2 18 3 1 140.05 128.68 67.72 <
-2 -18 3 1 127.50 190.48 119.97 <
-2 18 3 2 172.86 20.91 57.94 <
-2 -18 3 2 186.93 28.67 32.76 <
-1 18 3 -2 92.93 217.61 89.99 <
-1 -18 3 -2 94.97 190.71 125.42 <
-1 18 3 -1 2385.73 2565.10 252.92 o
-1 -18 3 -1 2357.75 2162.46 382.49 o
-1 18 3 0 114.71 148.77 65.64 <
-1 -18 3 0 95.09 307.37 153.92 <
-1 18 3 1 261.10 309.50 79.09 o
-1 -18 3 1 266.05 400.32 159.07 <
-1 18 3 2 88.07 258.55 77.73 o
-1 -18 3 2 96.48 152.08 95.39 <
0 18 3 -2 151.08 156.11 74.47 <
0 -18 3 -2 146.96 146.28 114.46 <
0 18 3 -1 279.15 292.49 94.62 o
0 -18 3 -1 302.39 219.21 121.04 <
0 18 3 0 218.44 116.00 73.64 <
0 -18 3 0 244.57 54.74 77.14 <
0 18 3 1 944.65 1033.60 205.94 o
0 -18 3 1 925.51 1221.70 270.04 o
0 18 3 2 31.12 141.95 106.82 <
0 -18 3 2 33.84 79.92 102.91 <
1 18 3 -2 108.63 235.68 121.51 <
1 18 3 -1 237.24 292.20 122.88 <
1 18 3 0 49.22 251.20 120.57 <
1 -18 3 0 39.54 306.77 210.32 <
1 18 3 1 388.60 233.66 128.50 <
1 -18 3 1 398.11 317.08 186.15 <
1 18 3 2 162.88 314.71 135.85 <
1 -18 3 2 189.85 342.38 216.84 <
2 18 3 -2 39.97 22.39 44.14 <
2 -18 3 -2 43.24 83.30 86.20 <
2 18 3 -1 171.76 208.90 110.26 <
2 -18 3 -1 165.26 280.05 156.94 <
2 18 3 0 133.21 38.09 40.58 <
2 -18 3 0 147.92 117.37 102.20 <
2 18 3 1 795.58 931.52 245.45 o
2 -18 3 1 794.90 713.61 226.32 o
2 18 3 2 27.70 123.94 93.85 <
2 -18 3 2 28.25 16.35 13.27 <
3 18 3 -2 150.90 180.76 144.44 <
3 -18 3 -2 159.43 -12.15 46.74 <
3 18 3 -1 104.50 152.26 116.00 <
3 -18 3 -1 95.13 150.72 140.41 <
3 18 3 0 4.00 -15.70 31.64 <
3 -18 3 0 2.08 -185.74 138.75 <
3 18 3 1 310.90 407.02 181.94 <
3 -18 3 1 292.07 159.67 105.75 <
3 18 3 2 69.31 22.75 64.87 <
3 -18 3 2 75.99 -3.55 97.64 <
4 18 3 -2 42.59 163.64 142.60 <
4 -18 3 -2 51.66 9.66 29.74 <
4 18 3 -1 109.48 174.60 135.49 <
4 -18 3 -1 92.59 72.99 69.73 <
4 18 3 0 55.03 234.85 155.82 <
4 -18 3 0 56.58 0.71 101.84 <
4 18 3 1 261.78 295.40 176.20 <
4 -18 3 1 265.65 283.85 171.16 <
-4 -19 3 -1 6.44 -82.23 111.97 <
-4 19 3 0 67.42 149.71 94.56 <
-4 -19 3 0 65.04 305.35 185.79 <
-4 19 3 1 162.47 122.70 90.29 <
-4 -19 3 1 176.50 202.56 162.63 <
-4 19 3 2 45.14 96.51 63.27 <
-4 -19 3 2 44.03 107.59 140.23 <
-3 19 3 -2 22.13 113.22 90.88 <
-3 -19 3 -2 28.32 116.83 54.33 <
-3 19 3 -1 31.23 -16.23 64.87 <
-3 -19 3 -1 57.81 -67.60 134.49 <
-3 19 3 0 950.93 906.46 204.40 o
-3 -19 3 0 952.82 984.72 302.63 o
-3 19 3 1 37.57 61.85 96.57 <
-3 -19 3 1 40.06 -88.10 114.52 <
-3 19 3 2 76.37 74.12 58.00 <
-3 -19 3 2 63.13 95.86 126.13 <
-2 19 3 -2 73.74 107.06 47.81 <
-2 -19 3 -2 75.39 132.00 127.14 <
-2 19 3 -1 27.94 80.63 55.39 <
-2 -19 3 -1 37.15 264.71 162.04 <
-2 19 3 0 129.88 96.45 65.82 <
-2 -19 3 0 121.20 162.51 134.55 <
-2 19 3 1 370.52 314.00 90.05 o
-2 -19 3 1 385.80 130.28 91.59 <
-2 19 3 2 44.50 73.05 50.42 <
-2 -19 3 2 44.52 87.68 95.21 <
-1 19 3 -2 117.94 10.19 25.24 <
-1 -19 3 -2 127.33 10.01 57.65 <
-1 19 3 -1 106.90 195.57 72.99 <
-1 -19 3 -1 85.59 40.29 24.59 <
-1 19 3 0 2632.93 2666.53 258.73 o
-1 -19 3 0 2712.78 2097.71 382.61 o
-1 19 3 1 122.88 122.16 53.97 <
-1 -19 3 1 141.60 178.92 129.69 <
-1 19 3 2 146.38 103.50 59.36 <
-1 -19 3 2 140.38 124.53 101.55 <
0 19 3 -2 27.02 68.43 79.45 <
0 -19 3 -2 23.40 20.80 64.87 <
0 19 3 -1 80.06 237.69 108.54 <
0 -19 3 -1 102.93 178.45 119.97 <
0 19 3 0 705.93 946.74 202.38 o
0 -19 3 0 677.69 583.81 213.94 <
0 19 3 1 459.98 606.73 166.66 o
0 -19 3 1 459.24 425.32 182.24 <
0 19 3 2 25.75 109.31 88.10 <
0 -19 3 2 23.66 113.22 85.25 <
1 19 3 -2 143.09 90.71 75.48 <
1 19 3 -1 89.78 136.38 96.33 <
1 -19 3 -1 112.38 87.86 114.34 <
1 19 3 0 2603.72 2687.44 341.49 o
1 -19 3 0 2699.22 2506.62 477.93 o
1 19 3 1 709.26 694.30 240.77 <
1 -19 3 1 773.67 939.46 296.17 o
1 19 3 2 61.70 50.24 36.85 <
1 -19 3 2 68.58 99.18 55.28 <
2 19 3 -2 112.44 -27.79 37.15 <
2 -19 3 -2 107.99 153.98 148.94 <
2 19 3 -1 9.13 115.94 101.90 <
2 -19 3 -1 12.91 75.54 106.52 <
2 19 3 0 168.13 286.21 167.55 <
2 -19 3 0 156.11 169.03 103.92 <
2 19 3 1 152.01 315.36 170.45 <
2 -19 3 1 142.24 70.62 83.42 <
2 19 3 2 140.17 151.43 117.60 <
2 -19 3 2 146.21 138.57 101.72 <
3 19 3 -2 119.70 123.41 93.96 <
3 -19 3 -2 110.49 133.18 154.69 <
3 19 3 -1 62.41 50.30 90.76 <
3 -19 3 -1 64.30 -16.94 78.92 <
3 19 3 0 828.47 540.56 190.41 <
3 -19 3 0 838.15 317.44 178.74 <
3 19 3 1 112.08 32.11 95.39 <
3 -19 3 1 135.48 -120.68 61.73 <
3 19 3 2 8.09 -4.38 79.74 <
3 -19 3 2 11.91 95.98 116.24 <
4 19 3 -2 134.37 145.80 106.70 <
4 -19 3 -2 129.76 9.72 93.61 <
4 19 3 -1 9.23 -46.57 28.38 <
4 -19 3 -1 8.68 9.48 45.20 <
4 19 3 0 98.35 126.13 128.80 <
4 -19 3 0 97.15 224.54 142.01 <
-4 20 3 1 40.69 151.73 144.26 <
-4 -20 3 1 43.49 100.12 94.38 <
-4 20 3 2 14.89 -141.89 88.51 <
-4 -20 3 2 14.05 -31.28 86.56 <
-3 20 3 -2 107.41 87.92 40.46 <
-3 -20 3 -2 119.90 115.88 104.51 <
-3 20 3 -1 210.26 206.12 109.07 <
-3 20 3 0 151.62 134.01 101.78 <
-3 -20 3 0 149.29 213.40 127.91 <
-3 20 3 1 106.98 130.64 81.94 <
-3 -20 3 1 106.17 187.57 126.07 <
-3 20 3 2 51.51 93.79 85.79 <
-3 -20 3 2 46.59 -33.12 69.79 <
-2 20 3 -2 152.63 167.78 79.69 <
-2 -20 3 -2 156.44 161.15 98.88 <
-2 20 3 -1 13.29 30.69 50.54 <
-2 -20 3 -1 20.40 64.28 78.97 <
-2 20 3 0 123.30 205.88 86.62 <
-2 -20 3 0 106.37 144.50 63.45 <
-2 20 3 1 48.85 -17.77 50.54 <
-2 -20 3 1 46.69 31.76 64.40 <
-2 20 3 2 5.97 75.12 56.05 <
-2 -20 3 2 6.99 -59.42 94.62 <
-1 20 3 -2 93.79 29.27 72.52 <
-1 -20 3 -2 94.07 48.34 18.13 <
-1 20 3 -1 709.56 868.78 150.90 o
-1 -20 3 -1 689.57 695.36 218.74 o
-1 20 3 0 337.62 455.42 117.90 o
-1 -20 3 0 316.84 350.38 153.03 <
-1 20 3 1 366.99 298.12 91.06 o
-1 -20 3 1 369.08 216.37 159.37 <
-1 20 3 2 84.46 149.71 76.43 <
-1 -20 3 2 67.34 205.40 120.03 <
0 20 3 -2 88.65 128.38 79.03 <
0 -20 3 -2 89.32 73.52 102.97 <
0 20 3 -1 33.29 148.71 69.73 <
0 -20 3 -1 26.23 176.73 97.87 <
0 20 3 0 466.17 407.73 133.48 o
0 -20 3 0 429.89 285.98 153.27 <
0 20 3 1 319.14 115.71 85.37 <
0 -20 3 1 311.00 76.49 99.89 <
0 20 3 2 74.96 31.93 66.18 <
0 -20 3 2 71.59 53.02 61.50 <
1 20 3 -2 52.64 48.70 68.49 <
1 20 3 -1 289.30 423.96 152.97 <
1 -20 3 -1 310.86 550.87 247.41 <
1 20 3 0 277.12 360.33 122.99 <
1 -20 3 0 263.13 479.89 241.43 <
1 20 3 1 859.92 878.67 220.75 o
1 -20 3 1 852.83 1043.61 322.06 o
1 20 3 2 38.52 142.19 145.15 <
1 -20 3 2 29.70 133.12 98.35 <
2 20 3 -2 114.25 93.85 113.93 <
2 -20 3 -2 117.73 51.01 130.28 <
2 20 3 -1 8.36 45.15 50.89 <
2 -20 3 -1 6.63 103.38 61.20 <
2 20 3 0 147.16 39.10 61.97 <
2 -20 3 0 126.98 36.50 75.36 <
2 20 3 1 85.74 62.15 87.33 <
2 -20 3 1 79.24 165.71 77.67 <
2 20 3 2 21.88 93.85 101.55 <
2 -20 3 2 23.72 -132.18 115.59 <
3 20 3 -2 79.11 -3.02 46.69 <
3 -20 3 -2 82.06 71.51 85.61 <
3 20 3 -1 75.79 230.58 118.67 <
3 -20 3 -1 88.21 215.42 162.75 <
3 20 3 0 207.13 158.60 111.56 <
3 -20 3 0 197.31 34.01 107.71 <
3 20 3 1 235.88 367.62 180.46 <
3 -20 3 1 234.07 125.13 119.68 <
3 20 3 2 34.00 13.69 41.65 <
3 -20 3 2 30.16 66.12 122.58 <
4 20 3 -2 46.33 42.95 103.80 <
4 -20 3 -2 51.46 5.87 24.82 <
4 20 3 -1 45.43 64.87 126.73 <
4 -20 3 -1 44.91 -72.22 92.90 <
-4 -21 3 2 133.59 142.60 140.06 <
-3 21 3 -2 48.41 45.92 71.15 <
-3 -21 3 -2 44.74 60.19 125.78 <
-3 21 3 -1 17.78 -118.43 102.44 <
-3 -21 3 -1 25.91 78.86 81.40 <
-3 21 3 0 67.82 12.38 83.12 <
-3 -21 3 0 63.74 14.99 95.27 <
-3 21 3 1 46.41 13.74 57.41 <
-3 -21 3 1 41.85 9.95 68.19 <
-3 21 3 2 46.24 17.18 77.97 <
-3 -21 3 2 53.04 -48.76 40.29 <
-2 21 3 -2 188.80 236.39 106.58 <
-2 -21 3 -2 192.62 380.59 204.52 <
-2 21 3 -1 1091.67 1123.71 190.06 o
-2 -21 3 -1 1055.18 1427.70 367.38 o
-2 21 3 0 514.95 494.05 122.93 o
-2 -21 3 0 512.50 414.66 203.21 <
-2 21 3 1 27.26 96.75 66.24 <
-2 -21 3 1 25.33 -3.85 79.45 <
-2 21 3 2 75.75 104.15 57.35 <
-2 -21 3 2 77.59 110.91 87.74 <
-1 21 3 -2 262.32 372.71 143.02 <
-1 -21 3 -2 265.20 510.52 210.74 <
-1 21 3 -1 26.05 -12.44 73.23 <
-1 -21 3 -1 34.07 -11.49 85.25 <
-1 21 3 0 163.88 200.55 112.33 <
-1 -21 3 0 149.37 53.26 104.75 <
-1 21 3 1 69.94 195.10 99.06 <
-1 -21 3 1 59.71 46.92 17.83 <
-1 21 3 2 14.51 124.42 85.67 <
-1 -21 3 2 14.81 38.69 60.61 <
0 21 3 -2 34.28 -78.44 52.67 <
0 -21 3 -2 26.88 -45.15 42.95 <
0 21 3 -1 1250.96 1255.30 237.93 o
0 -21 3 -1 1217.02 1070.86 276.32 o
0 21 3 0 5061.57 5780.77 505.31 o
0 -21 3 0 5052.74 4820.04 584.81 o
0 21 3 1 169.89 140.47 91.83 <
0 -21 3 1 167.57 422.13 196.76 <
0 21 3 2 67.06 99.00 109.54 <
0 -21 3 2 71.56 224.84 140.00 <
1 21 3 -2 56.72 202.92 108.18 <
1 -21 3 -2 60.25 102.38 59.19 <
1 21 3 -1 20.96 232.89 117.54 <
1 -21 3 -1 16.46 86.79 92.48 <
1 21 3 0 147.05 159.25 62.15 <
1 -21 3 0 137.41 77.67 45.86 <
1 21 3 1 239.63 358.38 153.27 <
1 -21 3 1 217.46 326.62 221.93 <
1 21 3 2 74.62 153.45 86.08 <
1 -21 3 2 66.44 186.21 163.70 <
2 21 3 -2 99.61 107.89 91.53 <
2 -21 3 -2 94.40 68.07 30.75 <
2 21 3 -1 406.92 347.00 152.85 <
2 -21 3 -1 388.00 272.00 193.55 <
2 21 3 0 592.29 482.38 192.13 <
2 -21 3 0 594.71 571.96 223.53 <
2 21 3 1 162.07 343.68 153.74 <
2 -21 3 1 138.19 51.13 41.06 <
2 21 3 2 218.97 23.58 75.89 <
2 -21 3 2 214.43 24.94 48.76 <
3 21 3 -2 51.01 71.86 53.97 <
3 -21 3 -2 50.52 -156.82 142.37 <
3 21 3 -1 10.12 -68.31 64.22 <
3 -21 3 -1 8.57 -92.84 98.17 <
3 21 3 0 25.82 59.13 61.79 <
3 -21 3 0 24.31 95.03 119.32 <
3 21 3 1 90.35 110.49 164.70 <
3 -21 3 1 86.90 54.45 28.79 <
3 21 3 2 38.04 39.99 44.38 <
3 -21 3 2 33.17 86.68 126.07 <
4 21 3 -2 33.62 193.79 118.79 <
4 -21 3 -2 31.94 -123.88 115.23 <
-3 22 3 -2 28.20 32.29 44.85 <
-3 -22 3 -2 28.19 -166.78 133.66 <
-3 22 3 -1 97.33 12.68 196.93 <
-3 -22 3 -1 97.70 194.50 136.98 <
-3 22 3 0 76.50 -34.01 55.69 <
-3 -22 3 0 70.01 21.27 48.64 <
-3 22 3 1 31.18 -51.48 65.53 <
-3 22 3 2 111.30 77.97 73.41 <
-3 -22 3 2 112.89 58.83 51.96 <
-2 22 3 -2 85.97 138.22 83.54 <
-2 -22 3 -2 86.45 111.26 64.81 <
-2 22 3 -1 112.92 98.64 98.82 <
-2 -22 3 -1 107.35 147.17 105.04 <
-2 22 3 0 755.30 825.47 203.45 o
-2 -22 3 0 730.19 911.61 292.55 o
-2 22 3 1 86.78 117.25 62.50 <
-2 -22 3 1 86.06 85.91 102.91 <
-2 22 3 2 19.86 13.74 46.09 <
-2 -22 3 2 19.63 54.74 12.68 o
-1 22 3 -2 79.48 -16.59 63.93 <
-1 -22 3 -2 81.11 -37.92 108.30 <
-1 22 3 -1 331.66 509.27 173.95 <
-1 -22 3 -1 334.19 45.97 79.74 <
-1 22 3 0 155.68 148.11 93.67 <
-1 -22 3 0 144.35 10.31 50.36 <
-1 22 3 1 114.57 241.90 119.68 <
-1 -22 3 1 116.69 69.67 107.77 <
-1 22 3 2 123.24 -18.48 64.04 <
-1 -22 3 2 120.74 66.53 71.75 <
0 22 3 -2 17.67 -89.70 82.77 <
0 -22 3 -2 20.89 211.74 156.76 <
0 22 3 -1 124.55 80.34 69.73 <
0 -22 3 -1 112.05 50.77 69.67 <
0 22 3 0 1009.67 1397.19 262.46 o
0 -22 3 0 968.97 1183.08 300.43 o
0 22 3 1 216.81 142.66 92.42 <
0 -22 3 1 243.82 106.11 67.95 <
0 22 3 2 34.61 35.01 58.36 <
1 22 3 -2 62.32 8.24 56.94 <
1 -22 3 -2 65.01 42.66 66.36 <
1 22 3 -1 63.40 70.86 49.29 <
1 -22 3 -1 65.52 114.11 99.12 <
1 22 3 0 109.59 58.83 78.44 <
1 -22 3 0 102.24 81.05 89.34 <
1 22 3 1 515.01 536.23 165.00 o
1 -22 3 1 516.19 717.41 301.86 <
1 22 3 2 76.15 153.68 125.30 <
1 -22 3 2 78.96 -13.63 65.35 <
2 22 3 -2 47.40 41.95 80.75 <
2 -22 3 -2 50.96 97.99 165.77 <
2 22 3 -1 99.30 245.57 118.08 <
2 -22 3 -1 83.83 17.24 59.19 <
2 22 3 0 656.77 768.77 212.99 o
2 -22 3 0 638.19 678.54 257.24 <
2 22 3 1 173.07 307.19 140.89 <
2 -22 3 1 193.48 166.54 191.30 <
2 22 3 2 61.29 63.45 122.99 <
2 -22 3 2 67.94 72.40 89.99 <
3 22 3 -2 58.76 79.63 73.52 <
3 -22 3 -2 55.84 -57.94 54.51 <
3 22 3 -1 52.47 71.04 100.30 <
3 -22 3 -1 48.97 36.91 40.23 <
3 22 3 0 25.88 -33.41 91.53 <
3 -22 3 0 22.89 141.12 127.73 <
-3 23 3 -1 92.71 183.31 115.71 <
-3 23 3 0 113.19 -19.25 41.29 <
-3 -23 3 0 104.80 158.60 144.50 <
-3 23 3 1 93.69 39.16 60.08 <
-3 -23 3 1 98.22 -18.72 22.28 <
-3 23 3 2 12.47 47.04 49.65 <
-3 -23 3 2 14.69 138.46 229.34 <
-2 23 3 -2 131.26 35.61 46.51 <
-2 -23 3 -2 138.63 192.49 128.09 <
-2 23 3 -1 156.32 216.13 110.49 <
-2 -23 3 -1 141.37 130.16 137.45 <
-2 23 3 0 16.07 91.18 79.45 <
-2 -23 3 0 21.90 88.51 127.79 <
-2 23 3 1 74.79 173.47 105.22 <
-2 -23 3 1 82.55 110.14 125.01 <
-2 23 3 2 74.52 341.97 133.42 <
-2 -23 3 2 70.50 160.79 139.17 <
-1 23 3 -2 105.89 38.39 30.16 <
-1 -23 3 -2 108.17 -23.28 89.82 <
-1 23 3 -1 46.04 163.22 117.25 <
-1 -23 3 -1 64.24 192.49 177.97 <
-1 23 3 0 75.08 101.61 106.46 <
-1 -23 3 0 61.25 -109.31 135.67 <
-1 23 3 1 57.33 207.60 100.07 <
-1 -23 3 1 55.72 82.06 91.00 <
-1 23 3 2 3.22 97.16 79.03 <
-1 -23 3 2 3.95 7.76 65.58 <
0 23 3 -2 56.94 -24.94 3.79 <
0 -23 3 -2 58.71 -27.13 76.37 <
0 23 3 -1 136.23 85.97 64.28 <
0 -23 3 -1 116.81 200.96 123.71 <
0 23 3 0 399.20 384.39 142.07 <
0 -23 3 0 407.11 131.35 94.67 <
0 23 3 1 185.78 277.62 140.77 <
0 -23 3 1 205.93 134.01 76.66 <
0 23 3 2 97.24 22.39 54.57 <
1 23 3 -2 7.11 92.78 83.95 <
1 -23 3 -2 8.21 67.01 95.74 <
1 23 3 -1 88.36 118.25 123.65 <
1 -23 3 -1 92.72 283.25 149.77 <
1 23 3 0 77.43 52.85 93.90 <
1 -23 3 0 62.98 181.88 172.17 <
1 23 3 1 14.28 192.67 106.40 <
1 -23 3 1 17.64 104.98 176.79 <
1 23 3 2 79.05 218.74 115.11 <
1 -23 3 2 78.78 -93.96 123.88 <
2 23 3 -2 157.04 137.92 102.26 <
2 -23 3 -2 168.90 246.16 187.57 <
2 23 3 -1 37.28 26.48 60.79 <
2 -23 3 -1 30.06 45.97 69.02 <
2 23 3 0 15.30 73.82 88.04 <
2 -23 3 0 13.24 8.24 99.35 <
2 23 3 1 154.31 230.70 141.36 <
2 -23 3 1 176.27 37.27 88.04 <
2 23 3 2 32.16 83.30 120.09 <
2 -23 3 2 31.57 64.70 114.88 <
3 23 3 -2 38.33 66.71 113.46 <
3 -23 3 -2 40.12 -30.99 78.38 <
3 23 3 -1 39.81 172.52 112.45 <
3 -23 3 -1 37.73 331.72 216.90 <
-3 24 3 2 9.94 152.32 142.60 <
-3 -24 3 2 12.89 44.32 148.17 <
-2 24 3 -2 19.04 61.02 94.91 <
-2 -24 3 -2 16.73 14.99 55.34 <
-2 24 3 -1 59.84 -14.28 77.79 <
-2 24 3 0 119.10 223.00 130.34 <
-2 -24 3 0 118.46 123.23 145.98 <
-2 24 3 1 40.78 27.13 72.64 <
-2 -24 3 1 39.93 114.64 103.09 <
-2 24 3 2 34.42 17.83 52.25 <
-2 -24 3 2 33.53 101.43 53.38 <
-1 24 3 -2 19.45 -44.85 89.05 <
-1 -24 3 -2 19.06 -55.63 39.69 <
-1 24 3 -1 113.27 72.28 54.09 <
-1 -24 3 -1 127.71 150.31 90.65 <
-1 24 3 0 113.35 175.90 107.83 <
-1 -24 3 0 126.63 154.16 125.19 <
-1 24 3 1 19.76 -91.00 76.25 <
-1 -24 3 1 17.79 -33.12 16.59 <
-1 24 3 2 15.60 123.76 94.91 <
-1 -24 3 2 17.99 82.77 109.84 <
0 24 3 -2 19.45 175.19 117.84 <
0 -24 3 -2 16.23 -35.43 55.45 <
0 24 3 -1 109.06 167.55 96.99 <
0 -24 3 -1 101.04 115.29 113.40 <
0 24 3 0 209.01 331.83 144.20 <
0 -24 3 0 206.55 301.74 166.42 <
0 24 3 1 246.04 167.01 111.68 <
0 24 3 2 14.33 12.86 58.18 <
0 -24 3 2 13.78 -5.81 26.31 <
1 24 3 -2 35.34 -32.29 35.55 <
1 -24 3 -2 37.35 -36.73 63.51 <
1 24 3 -1 13.62 51.19 135.79 <
1 -24 3 -1 18.02 16.35 70.86 <
1 24 3 0 93.75 118.73 100.78 <
1 -24 3 0 100.68 -31.28 125.19 <
1 24 3 1 327.27 398.13 168.61 <
1 -24 3 1 301.29 498.32 238.40 <
1 24 3 2 16.30 -83.71 83.42 <
1 -24 3 2 15.85 7.41 91.18 <
2 24 3 -2 30.75 179.99 119.08 <
2 -24 3 -2 30.41 108.78 159.13 <
2 24 3 -1 66.57 201.97 125.72 <
2 -24 3 -1 74.47 74.71 160.20 <
2 24 3 0 95.52 158.24 123.59 <
2 -24 3 0 88.13 208.31 163.64 <
2 24 3 1 107.71 -22.28 99.53 <
2 -24 3 1 108.28 -73.23 95.56 <
3 24 3 -2 20.18 -64.99 41.89 <
-2 25 3 -2 9.44 -113.75 127.14 <
-2 25 3 -1 12.23 -9.24 57.11 <
-2 -25 3 -1 13.92 94.44 84.07 <
-2 25 3 0 149.86 39.93 56.40 <
-2 25 3 1 0.70 32.23 20.32 <
-2 -25 3 1 0.91 -23.94 47.93 <
-2 25 3 2 28.53 36.97 101.84 <
-2 -25 3 2 28.68 73.76 98.17 <
-1 25 3 -2 51.80 -13.45 17.06 <
-1 -25 3 -2 45.21 -70.03 79.63 <
-1 25 3 -1 149.16 271.05 135.79 <
-1 -25 3 -1 149.28 295.87 208.07 <
-1 25 3 0 58.80 81.34 62.21 <
-1 -25 3 0 58.93 170.63 169.32 <
-1 25 3 1 17.03 80.46 98.35 <
-1 -25 3 1 14.90 -75.30 112.09 <
-1 25 3 2 54.24 65.35 81.52 <
0 25 3 -2 52.58 -48.88 68.31 <
0 -25 3 -2 52.44 68.37 130.87 <
0 25 3 -1 8.28 9.54 64.28 <
0 -25 3 -1 8.67 62.50 75.18 <
0 25 3 0 162.47 288.29 143.08 <
0 -25 3 0 139.42 167.96 125.78 <
0 25 3 1 12.49 12.20 71.51 <
0 -25 3 1 9.85 137.04 177.56 <
0 25 3 2 14.89 -30.81 53.74 <
0 -25 3 2 16.09 46.86 25.53 <
1 25 3 -2 15.55 75.42 67.36 <
1 -25 3 -2 13.46 125.60 99.71 <
1 25 3 -1 88.53 224.54 118.96 <
1 -25 3 -1 93.32 274.19 187.16 <
1 25 3 0 61.90 83.65 124.30 <
1 -25 3 0 63.01 67.48 143.26 <
1 25 3 1 130.99 563.90 181.53 o
1 -25 3 1 105.59 47.69 99.30 <
1 25 3 2 90.20 103.38 115.06 <
2 25 3 -2 19.51 136.86 99.65 <
2 -25 3 -2 21.98 0.00 86.56 <
2 25 3 -1 13.95 119.56 82.11 <
2 -25 3 -1 11.36 -42.83 91.59 <
-2 26 3 1 32.26 -72.58 34.01 <
-2 26 3 2 40.14 296.46 212.22 <
-2 -26 3 2 41.05 -50.30 72.87 <
-1 26 3 -2 11.78 122.52 78.38 <
-1 -26 3 -2 10.89 98.53 133.54 <
-1 26 3 -1 278.47 209.20 179.63 <
-1 -26 3 -1 250.76 223.71 119.56 <
-1 26 3 0 290.56 568.93 312.05 <
-1 -26 3 0 286.93 599.74 272.94 <
-1 26 3 1 58.74 135.85 132.59 <
-1 -26 3 1 61.99 193.26 135.02 <
-1 26 3 2 15.81 -99.24 134.84 <
0 26 3 -2 40.57 87.03 111.56 <
0 -26 3 -2 41.61 57.53 57.41 <
0 26 3 -1 67.81 175.13 115.47 <
0 -26 3 -1 67.04 143.79 69.14 <
0 26 3 0 20.78 184.20 124.47 <
0 -26 3 0 24.44 131.47 185.14 <
0 26 3 1 23.89 -187.10 143.61 <
0 26 3 2 39.42 147.46 123.11 <
1 26 3 -2 17.24 18.43 66.12 <
1 -26 3 -2 20.56 223.89 177.56 <
1 26 3 -1 1.06 -14.40 99.53 <
1 -26 3 -1 0.83 169.32 201.02 <
0 -27 3 -2 5.18 67.01 82.35 <
-6 0 4 1 93.76 131.88 106.35 <
-6 0 4 2 67.64 119.97 114.05 <
-5 0 4 -2 5.00 115.53 86.97 <
-5 0 4 -1 11.39 216.37 138.16 <
-5 0 4 0 1580.91 1900.84 264.23 o
-5 0 4 1 4.75 117.78 85.31 <
-5 0 4 2 6.34 22.04 56.99 <
-4 0 4 -2 53.38 85.55 39.28 <
-4 0 4 -1 77.96 248.24 89.05 <
-4 0 4 0 3421.19 2099.25 251.38 o
-4 0 4 1 367.49 426.09 127.26 o
-4 0 4 2 198.80 119.02 75.72 <
-3 0 4 -2 238.62 385.75 103.09 o
-3 0 4 -1 65.49 353.70 93.02 o
-3 0 4 0 8743.66 10931.90 500.92 o
-3 0 4 1 118.80 202.50 94.08 <
-3 0 4 2 170.82 95.86 72.81 <
-2 0 4 -2 306.76 276.74 83.71 o
-2 0 4 -1 460.47 823.87 142.54 o
-2 0 4 0 37399.90 39110.70 828.31 o
-2 0 4 1 681.09 660.53 128.50 o
-2 0 4 2 716.47 906.28 146.16 o
-1 0 4 -2 88.74 163.58 53.74 o
-1 0 4 -1 520.51 1228.75 144.38 o
-1 0 4 0 12100.40 11982.50 388.24 o
-1 0 4 1 120.84 11.97 15.58 <
-1 0 4 2 17.45 124.12 74.35 <
0 0 4 -2 26.25 34.24 22.75 <
0 0 4 1 367.09 540.62 154.81 o
0 0 4 2 280.01 586.47 158.48 o
1 0 4 -2 224.49 84.31 37.62 <
1 0 4 -1 20.74 19.08 16.23 <
1 0 4 0 11919.10 9409.98 320.76 o
1 0 4 1 100.97 239.53 70.38 o
1 0 4 2 224.20 90.05 52.31 <
2 0 4 -2 434.70 20.14 21.39 <
2 0 4 -1 347.70 368.39 90.59 o
2 0 4 0 40901.90 43825.70 838.62 o
2 0 4 1 67.57 136.62 62.15 <
2 0 4 2 921.34 794.90 136.56 o
3 0 4 -2 121.48 68.84 52.25 <
3 0 4 -1 87.10 94.20 62.62 <
3 0 4 0 6472.45 6688.06 379.94 o
3 0 4 1 562.17 507.50 120.62 o
3 0 4 2 141.30 137.92 69.97 <
4 0 4 -2 831.70 76.25 58.36 <
4 0 4 -1 91.40 208.96 91.95 <
4 0 4 0 4133.67 2044.92 244.86 o
4 0 4 1 187.69 363.47 113.10 o
4 0 4 2 514.10 743.53 254.82 <
5 0 4 -2 0.22 -22.57 54.33 <
5 0 4 -1 94.35 124.59 77.67 <
5 0 4 0 1088.88 1025.60 323.66 o
5 0 4 1 59.37 95.39 110.79 <
5 0 4 2 60.47 7.82 26.25 <
6 0 4 -2 189.81 364.24 205.35 <
6 0 4 -1 18.71 79.45 52.25 <
6 0 4 0 334.95 219.45 157.36 <
-6 1 4 1 92.77 160.67 139.17 <
-6 -1 4 1 88.01 210.44 162.57 <
-6 1 4 2 107.43 237.99 140.59 <
-6 -1 4 2 117.53 335.15 190.89 <
-5 1 4 -2 50.58 75.72 72.81 <
-5 -1 4 -2 47.10 12.32 16.47 <
-5 1 4 -1 324.14 487.71 144.15 o
-5 -1 4 -1 314.67 621.25 220.87 <
-5 1 4 0 85.86 156.11 84.60 <
-5 -1 4 0 85.59 154.75 81.76 <
-5 1 4 1 247.07 109.84 81.64 <
-5 -1 4 1 250.75 98.70 80.99 <
-5 1 4 2 268.75 206.65 95.33 <
-5 -1 4 2 289.25 147.99 90.65 <
-4 1 4 -2 64.05 36.14 72.46 <
-4 -1 4 -2 65.81 4.62 53.26 <
-4 1 4 -1 1121.75 1232.13 197.23 o
-4 -1 4 -1 1183.64 1317.92 197.82 o
-4 1 4 0 432.47 376.80 107.00 o
-4 -1 4 0 429.22 390.49 116.06 o
-4 1 4 1 378.64 342.14 117.37 <
-4 -1 4 1 354.19 221.46 89.46 <
-4 1 4 2 151.12 86.38 60.55 <
-4 -1 4 2 170.27 95.27 59.13 <
-3 1 4 -2 41.28 83.18 52.14 <
-3 -1 4 -2 37.37 62.56 50.95 <
-3 1 4 -1 1133.77 1533.87 191.66 o
-3 -1 4 -1 1187.15 1410.76 183.60 o
-3 1 4 0 264.67 209.91 79.03 <
-3 -1 4 0 282.42 187.75 75.60 <
-3 1 4 1 907.10 111.74 64.22 <
-3 -1 4 1 922.28 181.59 76.49 <
-3 1 4 2 246.09 133.07 65.29 <
-3 -1 4 2 267.86 67.24 56.16 <
-2 1 4 -2 459.11 656.50 90.29 o
-2 -1 4 -2 450.32 722.38 130.81 o
-2 1 4 -1 1015.06 1281.84 115.88 o
-2 -1 4 -1 1060.79 1453.53 162.63 o
-2 1 4 0 295.61 183.90 43.43 o
-2 -1 4 0 292.83 251.85 76.01 o
-2 1 4 1 400.56 154.16 61.62 <
-2 -1 4 1 353.77 337.23 92.13 o
-2 1 4 2 88.96 94.91 50.06 <
-2 -1 4 2 99.59 154.63 68.01 <
-1 1 4 -2 23.25 51.13 26.42 <
-1 -1 4 -2 24.76 44.97 22.63 <
-1 1 4 -1 5775.34 6369.08 284.14 o
-1 -1 4 -1 5753.77 6648.54 291.96 o
-1 1 4 0 566.48 403.82 51.37 o
-1 -1 4 0 598.41 421.00 75.30 o
-1 1 4 1 1649.46 1190.13 189.23 o
-1 -1 4 1 1652.42 981.58 89.40 o
-1 1 4 2 11.71 -21.27 48.11 <
-1 -1 4 2 16.33 76.43 44.91 <
0 1 4 -2 145.57 102.50 30.99 o
0 -1 4 -2 144.37 99.24 48.34 <
0 1 4 -1 458.36 409.68 61.50 o
0 -1 4 -1 430.23 577.65 97.64 o
0 1 4 0 11185.30 8165.17 302.21 o
0 -1 4 0 11171.90 11867.80 579.96 o
0 1 4 1 184.78 284.02 66.71 o
0 -1 4 1 190.90 274.60 91.89 <
0 1 4 2 49.40 54.86 44.97 <
0 -1 4 2 51.98 43.07 31.81 <
1 1 4 -2 27.76 82.23 44.91 <
1 -1 4 -2 26.19 82.29 46.51 <
1 1 4 -1 245.74 235.21 70.44 o
1 -1 4 -1 276.81 215.24 54.98 o
1 1 4 0 543.12 383.79 59.96 o
1 -1 4 0 588.98 442.03 70.21 o
1 1 4 1 21.55 32.88 25.36 <
1 -1 4 1 34.71 128.74 45.74 <
1 1 4 2 278.35 311.63 70.44 o
1 -1 4 2 286.78 194.98 65.64 <
2 1 4 -2 552.64 11.79 20.08 <
2 -1 4 -2 543.86 6.69 26.36 <
2 1 4 -1 175.53 231.83 53.74 o
2 -1 4 -1 219.95 200.01 53.20 o
2 1 4 0 347.98 289.59 62.92 o
2 -1 4 0 330.85 244.98 76.49 o
2 1 4 1 314.39 513.96 87.98 o
2 -1 4 1 346.16 434.74 96.69 o
2 1 4 2 812.88 720.01 119.62 o
2 -1 4 2 780.90 809.35 132.89 o
3 1 4 -2 103.04 104.63 54.09 <
3 -1 4 -2 98.79 76.72 48.64 <
3 1 4 -1 1208.35 1425.03 153.74 o
3 -1 4 -1 1294.92 1268.21 176.67 o
3 1 4 0 315.73 278.16 80.16 o
3 -1 4 0 329.67 291.67 81.64 o
3 1 4 1 599.96 842.83 145.51 o
3 -1 4 1 714.30 828.19 140.83 o
3 1 4 2 199.02 326.86 94.20 o
3 -1 4 2 200.43 308.55 96.99 o
4 1 4 -2 929.43 374.49 116.18 o
4 -1 4 -2 928.17 330.00 102.32 o
4 1 4 -1 45.36 -3.44 28.26 <
4 -1 4 -1 78.78 14.75 43.19 <
4 1 4 0 349.44 196.40 75.83 <
4 -1 4 0 339.69 208.72 90.94 <
4 1 4 1 246.07 373.60 176.67 <
4 -1 4 1 272.15 320.93 107.94 <
4 1 4 2 136.12 99.47 70.56 <
4 -1 4 2 167.39 306.89 145.68 <
5 1 4 -2 107.15 101.72 45.03 <
5 -1 4 -2 100.10 79.74 66.12 <
5 1 4 -1 222.40 157.95 77.26 <
5 -1 4 -1 253.44 176.08 96.33 <
5 1 4 0 153.04 197.58 142.19 <
5 -1 4 0 152.99 320.64 192.49 <
5 1 4 1 286.13 356.12 165.53 <
5 -1 4 1 309.57 419.64 195.45 <
5 1 4 2 56.46 194.21 168.26 <
5 -1 4 2 57.13 157.59 176.73 <
6 1 4 -2 243.37 130.22 132.53 <
6 -1 4 -2 252.51 304.94 223.53 <
6 1 4 -1 35.68 -57.71 41.00 <
6 -1 4 -1 40.99 135.79 142.19 <
6 1 4 0 51.73 107.24 130.64 <
-6 2 4 1 3.07 207.00 141.77 <
-6 -2 4 1 7.67 14.69 19.67 <
-6 2 4 2 95.59 8.00 61.56 <
-6 -2 4 2 93.69 30.81 27.67 <
-5 2 4 -2 39.71 -31.22 74.71 <
-5 -2 4 -2 35.78 78.26 70.03 <
-5 2 4 -1 30.96 219.33 100.78 <
-5 -2 4 -1 15.00 187.16 138.57 <
-5 2 4 0 26.34 164.82 91.12 <
-5 -2 4 0 20.34 76.96 92.01 <
-5 2 4 1 96.55 80.04 68.19 <
-5 -2 4 1 125.81 134.84 76.60 <
-5 2 4 2 199.32 143.85 77.20 <
-5 -2 4 2 192.11 152.56 81.34 <
-4 2 4 -2 95.42 188.10 97.99 <
-4 -2 4 -2 92.17 106.58 66.06 <
-4 2 4 -1 556.87 933.89 170.33 o
-4 -2 4 -1 565.99 809.24 150.72 o
-4 2 4 0 2801.50 3608.35 334.56 o
-4 -2 4 0 2722.01 3523.99 316.73 o
-4 2 4 1 62.63 28.73 56.99 <
-4 -2 4 1 95.10 102.20 65.94 <
-4 2 4 2 300.54 228.63 104.39 <
-4 -2 4 2 316.45 99.00 68.43 <
-3 2 4 -2 45.89 164.88 108.48 <
-3 -2 4 -2 50.63 167.78 67.90 <
-3 2 4 -1 78.37 246.58 81.05 o
-3 -2 4 -1 52.32 317.14 89.70 o
-3 2 4 0 134.70 231.06 77.73 <
-3 -2 4 0 151.26 384.86 93.55 o
-3 2 4 1 392.46 72.34 37.44 <
-3 -2 4 1 465.54 138.52 64.99 <
-3 2 4 2 277.10 85.73 60.02 <
-3 -2 4 2 276.61 126.13 72.99 <
-2 2 4 -2 1159.36 1193.27 120.33 o
-2 -2 4 -2 1138.66 1115.83 151.14 o
-2 2 4 -1 1179.27 1605.61 127.20 o
-2 -2 4 -1 1221.60 1441.09 161.62 o
-2 2 4 0 10489.00 11190.70 441.26 o
-2 -2 4 0 10434.00 11082.70 432.73 o
-2 2 4 1 257.03 154.99 50.89 o
-2 -2 4 1 323.79 274.19 83.42 o
-2 2 4 2 313.26 128.62 46.63 <
-2 -2 4 2 305.67 217.90 73.35 <
-1 2 4 -2 108.85 20.02 13.86 <
-1 -2 4 -2 98.69 48.52 31.16 <
-1 2 4 -1 5395.17 5612.63 193.85 o
-1 -2 4 -1 5426.72 6260.60 278.04 o
-1 2 4 0 708.29 566.45 75.95 o
-1 -2 4 0 709.50 580.31 84.90 o
-1 2 4 1 113.96 61.38 31.16 <
-1 -2 4 1 95.82 56.94 55.39 <
-1 2 4 2 30.14 14.10 19.31 <
-1 -2 4 2 30.91 9.89 31.93 <
0 2 4 -2 86.48 10.55 16.83 <
0 -2 4 -2 84.09 5.21 17.42 <
0 2 4 -1 1315.21 1397.96 105.81 o
0 -2 4 -1 1300.52 1509.52 141.89 o
0 2 4 0 50388.60 46903.30 625.93 o
0 -2 4 0 50500.60 49082.30 670.66 o
0 2 4 1 281.49 105.93 34.90 o
0 -2 4 1 291.74 242.91 103.92 <
0 2 4 2 34.84 9.95 18.07 <
0 -2 4 2 30.78 23.11 46.69 <
1 2 4 -2 40.15 40.64 34.48 <
1 -2 4 -2 38.39 -2.90 25.24 <
1 2 4 -1 121.92 195.51 65.11 o
1 -2 4 -1 112.46 115.65 60.37 <
1 2 4 0 671.72 509.10 96.33 o
1 -2 4 0 645.70 568.52 83.00 o
1 2 4 1 5938.71 7427.68 371.29 o
1 -2 4 1 5973.29 6035.76 283.25 o
1 2 4 2 57.85 116.30 45.26 <
1 -2 4 2 53.22 83.18 50.30 <
2 2 4 -2 193.24 42.06 28.56 <
2 -2 4 -2 190.00 52.20 40.88 <
2 2 4 -1 370.26 196.16 49.11 o
2 -2 4 -1 377.53 139.23 47.22 <
2 2 4 0 9834.87 10441.90 332.78 o
2 -2 4 0 9780.15 10129.60 407.91 o
2 2 4 1 403.03 340.54 70.62 o
2 -2 4 1 374.30 382.85 91.59 o
2 2 4 2 1026.04 760.71 110.43 o
2 -2 4 2 1016.23 623.26 123.53 o
3 2 4 -2 65.41 48.64 27.49 <
3 -2 4 -2 63.48 40.82 33.95 <
3 2 4 -1 111.37 20.26 28.38 <
3 -2 4 -1 99.18 50.77 49.41 <
3 2 4 0 108.22 134.01 49.65 <
3 -2 4 0 51.17 80.10 47.34 <
3 2 4 1 551.59 963.27 126.43 o
3 -2 4 1 647.43 857.76 145.74 o
3 2 4 2 48.15 49.65 44.32 <
3 -2 4 2 54.32 145.39 81.11 <
4 2 4 -2 220.86 104.51 62.21 <
4 -2 4 -2 217.21 153.15 71.33 <
4 2 4 -1 291.72 60.02 54.39 <
4 -2 4 -1 323.81 20.62 27.43 <
4 2 4 0 2414.35 3056.07 288.35 o
4 -2 4 0 2351.77 2923.18 295.52 o
4 2 4 1 161.01 302.57 157.36 <
4 -2 4 1 143.77 267.43 98.05 <
4 2 4 2 75.00 247.41 103.50 <
4 -2 4 2 72.71 49.29 76.43 <
5 2 4 -2 18.66 -13.39 64.28 <
5 -2 4 -2 21.44 14.22 64.76 <
5 2 4 -1 69.50 60.49 105.04 <
5 -2 4 -1 60.62 -8.95 36.50 <
5 2 4 0 120.93 34.36 71.39 <
5 -2 4 0 92.75 204.28 179.04 <
5 2 4 1 26.99 108.83 141.60 <
5 -2 4 1 41.90 155.10 130.46 <
5 2 4 2 17.91 30.45 43.43 <
5 -2 4 2 22.56 223.36 187.34 <
6 2 4 -2 30.08 97.81 98.05 <
6 -2 4 -2 31.20 119.32 74.18 <
6 2 4 -1 103.07 183.96 153.03 <
6 -2 4 -1 112.11 293.27 203.04 <
6 2 4 0 84.31 326.38 202.15 <
-6 -3 4 1 136.38 208.43 168.91 <
-6 3 4 2 115.13 142.54 131.29 <
-6 -3 4 2 110.18 64.70 119.74 <
-5 3 4 -2 76.81 110.32 65.53 <
-5 -3 4 -2 62.97 99.18 100.54 <
-5 3 4 -1 350.67 354.29 112.63 o
-5 -3 4 -1 307.33 -11.79 64.99 <
-5 3 4 0 746.41 600.99 143.14 o
-5 -3 4 0 754.49 688.20 244.51 <
-5 3 4 1 109.40 78.20 52.85 <
-5 -3 4 1 107.91 69.50 87.03 <
-5 3 4 2 84.69 83.89 75.83 <
-5 -3 4 2 83.47 133.24 81.46 <
-4 3 4 -2 67.70 54.62 53.14 <
-4 -3 4 -2 69.74 45.50 65.23 <
-4 3 4 -1 676.85 1057.71 185.62 o
-4 -3 4 -1 646.88 955.81 162.99 o
-4 3 4 0 2073.15 2095.52 260.38 o
-4 -3 4 0 2093.26 1829.27 229.70 o
-4 3 4 1 641.41 366.61 110.20 o
-4 -3 4 1 635.02 320.05 100.72 o
-4 3 4 2 265.66 299.37 106.40 <
-4 -3 4 2 282.59 240.30 98.76 <
-3 3 4 -2 113.94 146.40 50.95 <
-3 -3 4 -2 94.88 147.46 55.81 <
-3 3 4 -1 550.66 491.20 85.14 o
-3 -3 4 -1 490.85 419.34 91.06 o
-3 3 4 0 3960.63 3066.37 201.20 o
-3 -3 4 0 3941.40 3103.34 262.99 o
-3 3 4 1 310.22 97.81 43.49 <
-3 -3 4 1 315.18 57.88 53.14 <
-3 3 4 2 68.16 55.04 31.81 <
-3 -3 4 2 71.00 99.00 56.34 <
-2 3 4 -2 1208.31 683.28 91.06 o
-2 -3 4 -2 1186.56 711.24 125.25 o
-2 3 4 -1 533.44 726.88 89.64 o
-2 -3 4 -1 507.74 752.06 116.48 o
-2 3 4 0 4924.51 4668.49 213.94 o
-2 -3 4 0 4960.88 5012.18 290.01 o
-2 3 4 1 891.89 451.04 67.66 o
-2 -3 4 1 880.48 645.96 115.47 o
-2 3 4 2 201.93 176.37 57.35 o
-2 -3 4 2 212.07 134.78 53.56 <
-1 3 4 -2 37.18 -9.48 17.06 <
-1 -3 4 -2 37.51 12.86 5.81 <
-1 3 4 -1 631.00 611.41 68.61 o
-1 -3 4 -1 570.72 926.96 120.68 o
-1 3 4 0 10583.90 8719.53 220.27 o
-1 -3 4 0 10468.00 9934.06 343.57 o
-1 3 4 1 13.88 30.99 12.20 <
-1 -3 4 1 16.17 62.86 42.72 <
-1 3 4 2 94.37 57.88 30.99 <
-1 -3 4 2 104.25 85.91 56.40 <
0 3 4 -2 111.69 72.52 33.06 <
0 -3 4 -2 102.69 58.12 36.02 <
0 3 4 -1 372.56 389.95 59.72 o
0 -3 4 -1 389.04 370.17 66.12 o
0 3 4 0 42002.50 39731.70 588.43 o
0 -3 4 0 42224.80 39647.80 595.12 o
0 3 4 1 641.38 660.23 87.98 o
0 -3 4 1 644.54 547.25 88.51 o
0 3 4 2 79.60 64.70 36.08 <
0 -3 4 2 73.95 97.10 72.93 <
1 3 4 -2 23.23 62.98 39.28 <
1 -3 4 -2 22.23 42.12 49.65 <
1 3 4 -1 47.73 18.31 41.06 <
1 -3 4 -1 40.31 21.15 59.66 <
1 3 4 0 9252.69 9387.88 395.94 o
1 -3 4 0 9114.39 9591.39 531.08 o
1 3 4 1 3509.59 4695.69 303.04 o
1 -3 4 1 3578.15 4200.57 252.92 o
1 3 4 2 105.00 125.48 58.12 <
1 -3 4 2 100.14 95.39 50.83 <
2 3 4 -2 226.71 173.77 44.26 o
2 -3 4 -2 222.82 184.91 60.02 o
2 3 4 -1 46.04 102.26 40.76 <
2 -3 4 -1 43.45 35.37 24.65 <
2 3 4 0 6288.87 6709.27 261.15 o
2 -3 4 0 6367.32 6319.13 326.03 o
2 3 4 1 214.41 458.15 89.40 o
2 -3 4 1 167.25 481.84 111.86 o
2 3 4 2 767.46 857.22 112.45 o
2 -3 4 2 775.57 722.15 121.87 o
3 3 4 -2 64.61 6.69 22.04 <
3 -3 4 -2 57.11 34.78 21.15 <
3 3 4 -1 449.14 283.49 68.78 o
3 -3 4 -1 454.80 241.25 80.99 <
3 3 4 0 3400.30 2953.99 211.09 o
3 -3 4 0 3380.99 2737.56 252.56 o
3 3 4 1 191.58 78.32 39.64 <
3 -3 4 1 141.81 157.18 75.66 <
3 3 4 2 113.23 248.18 102.55 <
3 -3 4 2 100.04 203.75 84.25 <
4 3 4 -2 124.54 80.40 45.92 <
4 -3 4 -2 127.65 92.66 71.51 <
4 3 4 -1 11.73 -19.37 26.25 <
4 -3 4 -1 13.02 35.31 35.84 <
4 3 4 0 2713.69 2641.82 262.58 o
4 -3 4 0 2761.28 2783.36 286.81 o
4 3 4 1 323.18 549.74 193.44 <
4 -3 4 1 285.68 365.66 116.24 o
4 3 4 2 48.29 97.10 69.44 <
4 -3 4 2 49.19 45.50 66.24 <
5 3 4 -2 108.42 58.36 51.43 <
5 -3 4 -2 93.00 47.51 55.04 <
5 3 4 -1 66.70 41.89 43.25 <
5 -3 4 -1 64.33 189.23 102.67 <
5 3 4 0 846.89 822.80 253.04 o
5 -3 4 0 862.26 779.85 179.46 o
5 3 4 1 8.65 335.63 195.63 <
5 -3 4 1 9.08 161.68 135.73 <
5 3 4 2 57.52 72.28 78.14 <
5 -3 4 2 49.31 42.72 109.66 <
6 3 4 -2 73.62 326.92 186.98 <
6 -3 4 -2 74.37 85.91 84.01 <
6 3 4 -1 22.15 -20.38 22.81 <
6 -3 4 -1 26.79 194.09 157.71 <
6 3 4 0 405.89 273.36 193.67 <
-6 4 4 1 24.89 -0.77 55.63 <
-6 -4 4 1 22.72 37.44 83.83 <
-6 4 4 2 83.07 126.43 112.57 <
-6 -4 4 2 75.64 -62.50 9.83 <
-5 4 4 -2 33.06 -44.38 62.68 <
-5 -4 4 -2 31.99 6.99 43.55 <
-5 4 4 -1 14.67 -11.20 66.18 <
-5 -4 4 -1 15.78 87.33 134.84 <
-5 4 4 0 529.16 659.11 155.93 o
-5 -4 4 0 532.03 690.74 228.39 o
-5 4 4 1 335.20 194.38 95.92 <
-5 -4 4 1 337.99 275.85 164.35 <
-5 4 4 2 23.44 71.75 74.12 <
-5 -4 4 2 23.20 -19.85 81.88 <
-4 4 4 -2 414.73 626.23 148.29 o
-4 -4 4 -2 426.48 528.89 188.46 <
-4 4 4 -1 1119.39 1413.24 213.94 o
-4 -4 4 -1 1199.11 1424.44 195.69 o
-4 4 4 0 1235.80 2602.13 287.28 o
-4 -4 4 0 1225.98 2231.07 249.48 o
-4 4 4 1 51.98 62.80 51.90 <
-4 -4 4 1 48.91 -24.23 37.27 <
-4 4 4 2 645.95 -5.75 48.76 <
-4 -4 4 2 658.90 114.88 64.93 <
-3 4 4 -2 45.62 110.73 40.52 <
-3 -4 4 -2 43.86 112.27 56.52 <
-3 4 4 -1 211.89 263.17 63.39 o
-3 -4 4 -1 231.57 261.63 71.92 o
-3 4 4 0 7893.24 7136.13 309.85 o
-3 -4 4 0 7975.67 7508.43 402.69 o
-3 4 4 1 1267.15 990.05 118.67 o
-3 -4 4 1 1213.42 1183.02 168.61 o
-3 4 4 2 145.00 12.03 20.20 <
-3 -4 4 2 162.22 105.22 51.48 <
-2 4 4 -2 2497.67 2169.99 161.50 o
-2 -4 4 -2 2476.75 2439.61 220.27 o
-2 4 4 -1 2388.15 2822.46 170.92 o
-2 -4 4 -1 2460.30 2920.75 228.69 o
-2 4 4 0 721.05 772.62 100.54 o
-2 -4 4 0 730.93 883.53 122.28 o
-2 4 4 1 22.39 41.83 28.91 <
-2 -4 4 1 15.15 118.73 45.74 <
-2 4 4 2 535.13 67.66 30.99 <
-2 -4 4 2 535.92 47.99 43.43 <
-1 4 4 -2 106.61 157.00 49.53 o
-1 -4 4 -2 107.50 188.93 62.27 o
-1 4 4 -1 744.81 683.81 76.07 o
-1 -4 4 -1 758.23 947.69 121.75 o
-1 4 4 0 28428.60 26595.30 416.50 o
-1 -4 4 0 29001.50 27398.10 780.21 o
-1 4 4 1 1942.86 2051.14 146.51 o
-1 -4 4 1 1816.86 2006.83 215.30 o
-1 4 4 2 242.63 305.41 70.15 o
-1 -4 4 2 274.59 275.67 88.16 o
0 4 4 -2 38.55 52.31 23.88 <
0 -4 4 -2 42.95 36.73 31.28 <
0 4 4 -1 2197.07 2202.04 140.95 o
0 -4 4 -1 2203.47 2185.21 142.19 o
0 4 4 0 16646.20 15769.90 387.29 o
0 -4 4 0 16713.00 15876.50 388.95 o
0 4 4 1 100.03 75.48 34.95 <
0 -4 4 1 96.20 97.81 38.04 <
0 4 4 2 139.32 25.18 29.86 <
0 -4 4 2 148.65 179.51 90.05 <
1 4 4 -2 74.10 -4.56 15.76 <
1 -4 4 -2 65.54 23.82 18.31 <
1 4 4 -1 478.06 315.07 62.21 o
1 -4 4 -1 500.52 280.47 106.40 <
1 4 4 0 28792.80 29064.30 697.79 o
1 -4 4 0 29362.90 30254.40 941.59 o
1 4 4 1 2787.76 3529.73 263.64 o
1 -4 4 1 2647.35 3443.95 236.98 o
1 4 4 2 173.85 298.83 82.41 o
1 -4 4 2 175.69 240.66 75.72 o
2 4 4 -2 97.42 77.02 47.63 <
2 -4 4 -2 108.99 88.39 45.38 <
2 4 4 -1 143.48 208.25 73.94 <
2 -4 4 -1 124.75 234.38 65.94 o
2 4 4 0 632.70 680.61 119.50 o
2 -4 4 0 633.80 643.29 108.06 o
2 4 4 1 530.28 589.97 121.63 o
2 -4 4 1 544.90 603.53 112.68 o
2 4 4 2 67.15 43.72 45.44 <
2 -4 4 2 76.14 40.82 49.71 <
3 4 4 -2 304.43 188.70 61.20 o
3 -4 4 -2 273.73 83.83 62.50 <
3 4 4 -1 193.66 70.03 34.54 <
3 -4 4 -1 189.56 18.07 47.87 <
3 4 4 0 7644.10 7675.62 339.18 o
3 -4 4 0 7706.92 7037.49 400.86 o
3 4 4 1 123.72 216.84 68.90 o
3 -4 4 1 122.97 240.77 86.97 <
3 4 4 2 102.93 219.68 85.67 <
3 -4 4 2 90.75 233.78 89.76 <
4 4 4 -2 19.24 13.80 24.35 <
4 -4 4 -2 20.33 98.64 62.50 <
4 4 4 -1 8.62 -2.37 34.78 <
4 -4 4 -1 7.85 -9.83 44.79 <
4 4 4 0 884.75 1194.09 206.65 o
4 -4 4 0 863.87 994.26 192.96 o
4 4 4 1 393.99 674.51 225.43 <
4 -4 4 1 414.64 394.69 110.97 o
4 4 4 2 97.66 190.12 109.90 <
4 -4 4 2 99.42 109.07 53.02 <
5 4 4 -2 201.72 169.26 76.19 <
5 -4 4 -2 181.97 165.53 87.68 <
5 4 4 -1 81.14 81.88 104.98 <
5 -4 4 -1 77.30 87.57 56.76 <
5 4 4 0 556.24 446.00 205.64 <
5 -4 4 0 550.38 361.99 136.21 <
5 4 4 1 19.66 92.07 74.83 <
5 -4 4 1 18.76 106.58 147.29 <
5 4 4 2 36.81 60.37 57.17 <
5 -4 4 2 33.36 350.08 201.43 <
6 4 4 -2 9.39 131.41 108.48 <
6 -4 4 -2 8.59 -21.57 47.81 <
6 4 4 -1 4.01 30.81 57.88 <
6 -4 4 -1 5.58 28.85 125.96 <
6 4 4 0 47.61 10.96 86.74 <
-6 5 4 0 488.19 368.51 196.99 <
-6 5 4 1 30.89 -63.75 43.72 <
-6 5 4 2 312.89 214.82 142.43 <
-6 -5 4 2 334.85 157.24 122.46 <
-5 5 4 -2 49.06 2.73 70.80 <
-5 -5 4 -2 40.53 264.30 161.80 <
-5 5 4 -1 344.53 331.48 164.88 <
-5 -5 4 -1 325.48 474.08 196.64 <
-5 5 4 0 1079.15 856.63 258.84 o
-5 -5 4 0 1084.12 837.73 245.75 o
-5 5 4 1 128.82 50.48 59.19 <
-5 -5 4 1 116.82 27.13 46.21 <
-5 5 4 2 77.96 164.94 88.34 <
-5 -5 4 2 82.62 101.84 112.51 <
-4 5 4 -2 343.19 290.36 111.68 <
-4 -5 4 -2 347.01 156.76 106.82 <
-4 5 4 -1 515.85 215.48 112.03 <
-4 -5 4 -1 608.40 382.37 159.25 <
-4 5 4 0 2455.19 2618.54 415.73 o
-4 -5 4 0 2507.30 1966.36 228.75 o
-4 5 4 1 211.69 441.91 180.76 <
-4 -5 4 1 221.17 342.44 99.59 o
-4 5 4 2 718.15 179.46 109.54 <
-4 -5 4 2 779.70 151.49 79.86 <
-3 5 4 -2 49.13 77.61 43.84 <
-3 -5 4 -2 49.42 60.25 35.25 <
-3 5 4 -1 375.52 269.80 72.46 o
-3 -5 4 -1 304.60 281.71 76.07 o
-3 5 4 0 5153.23 4194.47 276.68 o
-3 -5 4 0 5218.74 4318.71 305.53 o
-3 5 4 1 135.24 29.56 31.87 <
-3 -5 4 1 111.38 42.54 43.60 <
-3 5 4 2 137.91 77.61 48.34 <
-3 -5 4 2 144.01 38.69 35.90 <
-2 5 4 -2 501.95 222.17 62.50 o
-2 -5 4 -2 506.51 225.84 73.41 o
-2 5 4 -1 667.94 437.77 85.37 o
-2 -5 4 -1 816.48 530.72 105.58 o
-2 5 4 0 11690.90 11479.90 396.95 o
-2 -5 4 0 11874.70 12389.90 466.56 o
-2 5 4 1 157.07 272.89 53.08 o
-2 -5 4 1 154.63 281.59 81.94 o
-2 5 4 2 391.14 56.52 21.57 <
-2 -5 4 2 410.81 108.66 54.15 <
-1 5 4 -2 146.40 67.66 28.79 <
-1 -5 4 -2 153.83 76.78 35.07 <
-1 5 4 -1 913.28 1119.74 99.00 o
-1 -5 4 -1 788.46 1242.68 191.60 o
-1 5 4 0 11796.40 10960.10 291.79 o
-1 -5 4 0 12006.20 11572.10 521.36 o
-1 5 4 1 182.62 65.94 31.10 <
-1 -5 4 1 178.73 17.66 27.55 <
-1 5 4 2 75.98 34.36 29.62 <
-1 -5 4 2 70.80 30.04 32.82 <
0 5 4 -2 360.56 385.10 66.71 o
0 -5 4 -2 342.92 310.62 62.92 o
0 5 4 -1 324.23 420.47 70.27 o
0 -5 4 -1 321.04 386.70 67.18 o
0 5 4 0 9167.60 8716.80 295.10 o
0 -5 4 0 9424.69 9590.91 308.79 o
0 5 4 1 1055.40 1018.31 108.18 o
0 -5 4 1 1102.38 927.84 96.57 o
0 5 4 2 72.90 63.75 29.56 <
0 -5 4 2 72.64 28.73 15.40 <
1 5 4 -2 2.26 9.54 20.56 <
1 -5 4 -2 2.01 33.06 44.14 <
1 5 4 -1 1300.80 982.65 96.33 o
1 -5 4 -1 1309.66 1030.16 183.66 o
1 5 4 0 12651.90 11795.40 338.47 o
1 -5 4 0 12754.80 13698.30 644.30 o
1 5 4 1 1473.96 1584.94 126.55 o
1 -5 4 1 1549.41 1445.71 162.93 o
1 5 4 2 195.17 77.49 27.79 <
1 -5 4 2 182.95 81.05 44.14 <
2 5 4 -2 305.96 192.67 64.40 <
2 -5 4 -2 273.87 206.65 68.01 o
2 5 4 -1 2096.65 1869.38 188.76 o
2 -5 4 -1 2087.40 1911.91 188.16 o
2 5 4 0 12479.30 12516.40 488.60 o
2 -5 4 0 12706.00 11935.70 464.19 o
2 5 4 1 1585.69 1978.45 210.80 o
2 -5 4 1 1725.68 1930.81 196.87 o
2 5 4 2 68.99 99.30 59.90 <
2 -5 4 2 79.28 49.29 47.57 <
3 5 4 -2 239.32 324.19 100.48 o
3 -5 4 -2 232.93 171.93 73.76 <
3 5 4 -1 1047.05 0.12 22.16 <
3 -5 4 -1 1071.35 23.76 43.07 <
3 5 4 0 5449.16 5302.24 379.05 o
3 -5 4 0 5472.54 4764.06 337.17 o
3 5 4 1 859.93 755.14 165.89 o
3 -5 4 1 842.17 753.01 145.15 o
3 5 4 2 16.78 75.06 59.48 <
3 -5 4 2 19.12 138.81 60.13 <
4 5 4 -2 222.57 122.93 58.42 <
4 -5 4 -2 207.54 117.07 79.03 <
4 5 4 -1 1285.07 721.14 123.35 o
4 -5 4 -1 1342.90 732.63 155.82 o
4 5 4 0 2660.12 2509.47 293.09 o
4 -5 4 0 2716.41 2329.66 268.50 o
4 5 4 1 627.52 634.28 142.25 o
4 -5 4 1 716.09 576.10 133.42 o
4 5 4 2 154.46 266.61 104.57 <
4 -5 4 2 145.59 277.92 89.64 o
5 5 4 -2 247.17 99.12 67.95 <
5 -5 4 -2 232.54 173.83 84.31 <
5 5 4 -1 196.65 16.77 85.25 <
5 -5 4 -1 202.05 97.10 76.66 <
5 5 4 0 1057.36 895.79 266.90 o
5 -5 4 0 1078.86 731.86 170.51 o
5 5 4 1 240.23 395.94 177.91 <
5 -5 4 1 257.03 674.33 253.99 <
5 5 4 2 23.39 -96.45 63.87 <
5 -5 4 2 23.23 -63.10 122.93 <
6 5 4 -2 87.06 125.19 154.51 <
6 -5 4 -2 82.27 -8.89 31.34 <
6 5 4 -1 253.80 43.66 71.86 <
6 -5 4 -1 287.18 52.43 53.20 <
6 5 4 0 580.66 474.85 230.76 <
-6 6 4 0 503.64 252.39 172.52 <
-6 6 4 1 118.99 152.79 129.45 <
-6 6 4 2 47.05 59.07 109.72 <
-6 -6 4 2 40.96 27.79 103.86 <
-5 6 4 -2 62.21 34.54 60.49 <
-5 -6 4 -2 65.68 -27.96 71.69 <
-5 6 4 -1 469.42 1019.79 282.30 o
-5 -6 4 -1 443.77 801.36 246.52 o
-5 6 4 0 490.49 430.24 180.88 <
-5 -6 4 0 459.21 442.86 195.04 <
-5 6 4 1 145.69 -27.55 31.81 <
-5 -6 4 1 176.12 -50.18 44.08 <
-5 6 4 2 6.67 16.89 13.03 <
-5 -6 4 2 2.37 10.19 34.24 <
-4 6 4 -2 312.68 158.96 117.60 <
-4 -6 4 -2 329.58 310.33 150.19 <
-4 6 4 -1 58.04 59.90 90.53 <
-4 -6 4 -1 96.91 216.25 125.36 <
-4 6 4 0 1398.93 653.48 215.36 o
-4 -6 4 0 1292.32 431.43 107.59 o
-4 6 4 1 439.34 44.02 69.50 <
-4 -6 4 1 481.26 250.67 83.48 o
-4 6 4 2 342.15 264.89 158.66 <
-4 -6 4 2 351.42 282.48 91.65 o
-3 6 4 -2 60.81 20.62 21.39 <
-3 -6 4 -2 59.74 38.45 33.53 <
-3 6 4 -1 781.47 896.45 136.56 o
-3 -6 4 -1 756.32 904.38 142.13 o
-3 6 4 0 4201.41 3479.55 263.76 o
-3 -6 4 0 4072.79 3543.83 283.14 o
-3 6 4 1 286.43 160.26 68.43 <
-3 -6 4 1 358.34 83.12 36.55 <
-3 6 4 2 60.19 70.68 41.71 <
-3 -6 4 2 60.13 88.22 46.33 <
-2 6 4 -2 832.57 659.94 110.20 o
-2 -6 4 -2 808.41 710.29 119.91 o
-2 6 4 -1 104.42 140.06 42.12 o
-2 -6 4 -1 171.12 119.26 56.46 <
-2 6 4 0 6851.50 5274.93 221.70 o
-2 -6 4 0 6749.09 5668.38 314.30 o
-2 6 4 1 782.35 555.31 76.60 o
-2 -6 4 1 870.39 727.95 120.62 o
-2 6 4 2 415.52 131.70 43.49 o
-2 -6 4 2 426.63 227.80 73.64 o
-1 6 4 -2 119.18 39.64 21.86 <
-1 -6 4 -2 116.79 18.07 46.86 <
-1 6 4 -1 10385.90 10696.10 308.37 o
-1 -6 4 -1 10337.80 11664.80 572.02 o
-1 6 4 0 15780.30 15414.60 370.76 o
-1 -6 4 0 15521.90 15308.20 614.79 o
-1 6 4 1 265.91 206.77 60.67 o
-1 -6 4 1 296.61 235.56 89.99 <
-1 6 4 2 63.91 3.79 17.95 <
-1 -6 4 2 67.28 -28.14 15.58 <
0 6 4 -2 106.43 71.27 28.08 <
0 -6 4 -2 125.56 74.23 33.24 <
0 6 4 -1 87.04 140.95 47.93 <
0 -6 4 -1 88.95 121.81 41.41 <
0 6 4 0 1299.25 1233.73 120.15 o
0 -6 4 0 1069.98 1165.83 103.21 o
0 6 4 1 85.93 92.96 41.41 <
0 -6 4 1 120.81 113.87 39.34 <
0 6 4 2 222.17 234.32 53.85 o
0 -6 4 2 221.18 176.32 56.70 o
1 6 4 -2 66.43 -7.23 13.74 <
1 -6 4 -2 59.36 24.23 22.87 <
1 6 4 -1 857.76 735.30 83.65 o
1 -6 4 -1 852.43 791.99 158.72 o
1 6 4 0 17168.30 16700.90 403.46 o
1 -6 4 0 16879.70 19073.50 758.99 o
1 6 4 1 3115.71 2774.17 170.63 o
1 -6 4 1 3089.09 3586.20 364.01 o
1 6 4 2 90.15 34.84 13.98 <
1 -6 4 2 91.97 16.29 20.91 <
2 6 4 -2 662.72 381.60 66.77 o
2 -6 4 -2 699.70 387.88 94.14 o
2 6 4 -1 258.11 321.64 57.17 o
2 -6 4 -1 251.40 341.79 83.65 o
2 6 4 0 6571.30 4931.01 227.44 o
2 -6 4 0 6421.55 5942.33 335.45 o
2 6 4 1 219.14 268.50 80.93 o
2 -6 4 1 213.77 351.09 91.30 o
2 6 4 2 825.91 699.93 144.56 o
2 -6 4 2 847.09 657.98 137.04 o
3 6 4 -2 63.06 10.78 25.77 <
3 -6 4 -2 62.20 81.11 45.62 <
3 6 4 -1 308.83 153.80 57.17 <
3 -6 4 -1 318.57 155.40 81.23 <
3 6 4 0 4965.14 5389.28 383.50 o
3 -6 4 0 4793.32 4904.29 348.60 o
3 6 4 1 572.92 942.24 171.57 o
3 -6 4 1 582.55 875.59 154.28 o
3 6 4 2 38.76 42.48 61.26 <
3 -6 4 2 47.11 109.78 72.52 <
4 6 4 -2 423.69 193.67 91.95 <
4 -6 4 -2 450.72 334.56 111.20 o
4 6 4 -1 182.00 26.90 59.42 <
4 -6 4 -1 189.46 85.25 39.93 <
4 6 4 0 1238.45 596.01 146.04 o
4 -6 4 0 1165.72 672.32 146.10 o
4 6 4 1 77.07 135.32 83.12 <
4 -6 4 1 76.11 340.66 166.18 <
4 6 4 2 37.18 107.65 79.92 <
4 -6 4 2 36.20 113.16 70.44 <
5 6 4 -2 23.93 65.64 57.88 <
5 -6 4 -2 26.09 84.25 42.48 <
5 6 4 -1 53.67 97.40 58.30 <
5 -6 4 -1 56.13 70.38 64.22 <
5 6 4 0 711.33 697.68 234.67 <
5 -6 4 0 664.18 495.53 160.79 o
5 6 4 1 119.79 76.66 130.64 <
5 -6 4 1 118.28 358.85 220.39 <
5 6 4 2 48.39 -49.17 53.08 <
5 -6 4 2 57.73 208.25 183.48 <
6 6 4 -2 131.25 221.88 148.53 <
6 -6 4 -2 149.73 96.04 42.54 <
6 6 4 -1 54.16 -3.61 41.29 <
6 -6 4 -1 55.18 394.87 243.62 <
6 6 4 0 445.68 379.76 220.93 <
-6 7 4 1 9.34 29.09 47.40 <
-6 7 4 2 24.32 15.88 36.79 <
-6 -7 4 2 26.67 46.51 60.37 <
-5 7 4 -2 63.89 238.46 133.90 <
-5 -7 4 -2 61.89 180.17 117.78 <
-5 7 4 -1 1382.40 1852.55 394.52 o
-5 -7 4 -1 1311.91 1901.67 377.69 o
-5 7 4 0 592.01 391.26 187.87 <
-5 -7 4 0 591.47 665.09 226.14 <
-5 7 4 1 55.74 83.12 82.88 <
-5 -7 4 1 58.86 57.35 101.49 <
-5 7 4 2 493.13 10.72 75.60 <
-5 -7 4 2 472.33 276.50 127.32 <
-4 7 4 -2 182.03 492.27 184.02 <
-4 -7 4 -2 159.82 502.76 178.92 <
-4 7 4 -1 72.30 86.20 86.85 <
-4 -7 4 -1 111.91 260.38 136.21 <
-4 7 4 0 1655.86 1234.44 304.52 o
-4 -7 4 0 1628.26 1206.54 272.35 o
-4 7 4 1 12.27 9.83 73.29 <
-4 -7 4 1 15.97 80.51 65.88 <
-4 7 4 2 23.30 100.36 100.36 <
-4 -7 4 2 19.93 30.16 52.25 <
-3 7 4 -2 102.08 108.89 59.78 <
-3 -7 4 -2 102.72 263.05 82.29 o
-3 7 4 -1 1780.30 1779.68 198.41 o
-3 -7 4 -1 1733.20 1617.64 188.76 o
-3 7 4 0 3376.38 3353.60 269.39 o
-3 -7 4 0 3370.02 3341.27 274.01 o
-3 7 4 1 139.76 26.31 10.01 <
-3 -7 4 1 143.76 -22.39 24.94 <
-3 7 4 2 990.08 666.81 126.01 o
-3 -7 4 2 969.38 627.53 133.12 o
-2 7 4 -2 252.14 116.77 56.82 <
-2 -7 4 -2 225.72 109.54 57.59 <
-2 7 4 -1 383.67 611.65 104.98 o
-2 -7 4 -1 461.63 630.02 108.12 o
-2 7 4 0 10394.50 8903.67 308.08 o
-2 -7 4 0 10157.50 9079.39 404.41 o
-2 7 4 1 23.50 49.41 28.44 <
-2 -7 4 1 30.23 48.05 39.93 <
-2 7 4 2 37.49 27.31 20.14 <
-2 -7 4 2 40.81 83.60 46.45 <
-1 7 4 -2 89.33 125.66 43.96 <
-1 -7 4 -2 80.50 104.63 51.60 <
-1 7 4 -1 14259.10 14602.40 382.13 o
-1 7 4 0 11004.20 11127.40 335.39 o
-1 -7 4 0 11011.30 11589.20 571.19 o
-1 7 4 1 102.58 70.03 31.70 <
-1 -7 4 1 91.71 106.64 50.18 <
-1 7 4 2 554.09 509.39 97.28 o
-1 -7 4 2 563.12 518.22 93.67 o
0 7 4 -2 151.04 114.34 47.22 <
0 -7 4 -2 132.84 126.43 38.09 o
0 7 4 -1 676.59 507.44 82.17 o
0 -7 4 -1 618.70 530.72 73.05 o
0 7 4 0 1194.53 1166.84 122.46 o
0 -7 4 0 1034.36 1146.70 102.73 o
0 7 4 1 37.08 21.21 24.35 <
0 -7 4 1 32.88 36.91 28.91 <
0 7 4 2 244.20 136.92 45.09 o
0 -7 4 2 271.82 144.50 45.68 o
1 7 4 -2 271.37 237.87 48.82 o
1 -7 4 -2 251.61 321.58 91.18 o
1 7 4 -1 821.75 829.79 87.51 o
1 -7 4 -1 862.86 963.87 170.15 o
1 7 4 0 13404.10 12440.20 346.70 o
1 -7 4 0 13436.60 15118.00 684.05 o
1 7 4 1 4028.05 4075.33 204.75 o
1 -7 4 1 3963.35 4699.24 419.16 o
1 7 4 2 7.36 -0.24 24.17 <
1 -7 4 2 5.55 -0.18 9.78 <
2 7 4 -2 246.86 315.36 88.22 o
2 -7 4 -2 247.61 218.79 74.06 <
2 7 4 -1 158.47 141.60 60.19 <
2 -7 4 -1 152.08 136.62 56.94 <
2 7 4 0 8804.83 7639.60 389.84 o
2 -7 4 0 8651.65 7794.00 405.71 o
2 7 4 1 3.42 5.51 12.26 <
2 -7 4 1 13.73 88.10 67.24 <
2 7 4 2 1949.69 2290.67 242.55 o
2 -7 4 2 1996.00 2210.16 236.15 o
3 7 4 -2 416.71 248.12 83.24 <
3 -7 4 -2 404.76 130.46 51.78 <
3 7 4 -1 187.09 140.06 67.84 <
3 -7 4 -1 173.36 121.16 61.97 <
3 7 4 0 4940.27 5074.09 373.78 o
3 -7 4 0 4963.17 4962.71 361.87 o
3 7 4 1 194.47 439.66 114.23 o
3 -7 4 1 154.71 405.18 105.40 o
3 7 4 2 103.51 163.58 72.22 <
3 -7 4 2 94.38 239.59 91.59 <
4 7 4 -2 489.78 413.42 134.01 o
4 -7 4 -2 491.67 504.71 153.92 o
4 7 4 -1 74.40 3.50 24.94 <
4 -7 4 -1 84.15 49.65 45.74 <
4 7 4 0 1156.45 997.22 188.70 o
4 -7 4 0 1134.60 825.17 167.01 o
4 7 4 1 113.80 341.73 116.77 <
4 -7 4 1 127.59 215.06 92.90 <
4 7 4 2 74.32 255.47 93.67 <
4 -7 4 2 72.94 164.58 98.11 <
5 7 4 -2 173.68 83.48 66.77 <
5 7 4 -1 147.61 59.13 55.04 <
5 -7 4 -1 124.80 26.42 42.12 <
5 7 4 0 1050.84 849.46 187.04 o
5 -7 4 0 1065.63 996.39 202.44 o
5 7 4 1 303.30 372.36 190.59 <
5 -7 4 1 268.20 498.67 163.87 o
5 7 4 2 60.55 80.93 98.94 <
5 -7 4 2 57.79 196.40 170.21 <
6 -7 4 -2 73.59 149.65 92.19 <
-6 8 4 2 46.08 -56.99 104.04 <
-5 8 4 -2 21.85 21.92 43.66 <
-5 -8 4 -2 19.92 91.77 114.76 <
-5 8 4 -1 446.89 769.30 264.59 <
-5 -8 4 -1 440.70 560.76 210.03 <
-5 8 4 0 434.34 401.68 175.37 <
-5 -8 4 0 442.81 460.87 196.52 <
-5 8 4 1 76.05 47.28 63.93 <
-5 -8 4 1 67.19 13.57 70.86 <
-5 8 4 2 177.16 31.93 109.54 <
-5 -8 4 2 171.88 72.75 45.44 <
-4 8 4 -2 39.99 105.81 97.76 <
-4 -8 4 -2 44.18 93.55 62.80 <
-4 8 4 -1 19.49 164.70 67.13 <
-4 -8 4 -1 25.45 176.73 105.75 <
-4 8 4 0 301.76 337.64 145.21 <
-4 -8 4 0 326.49 181.71 131.35 <
-4 8 4 1 503.01 445.29 197.35 <
-4 -8 4 1 450.68 282.13 150.19 <
-4 8 4 2 59.08 75.95 96.63 <
-4 -8 4 2 53.86 -14.22 25.12 <
-3 8 4 -2 193.59 190.24 69.14 <
-3 -8 4 -2 183.26 330.29 147.11 <
-3 8 4 -1 1153.25 1150.19 166.95 o
-3 -8 4 -1 1151.51 1104.28 162.04 o
-3 8 4 0 1808.32 1419.17 181.11 o
-3 -8 4 0 1797.06 1344.99 178.51 o
-3 8 4 1 486.99 207.66 80.75 <
-3 -8 4 1 450.92 165.53 66.06 <
-3 8 4 2 409.28 72.04 50.60 <
-3 -8 4 2 397.55 62.86 48.17 <
-2 8 4 -2 186.56 121.57 58.65 <
-2 -8 4 -2 168.68 109.54 58.42 <
-2 8 4 -1 92.07 198.77 67.60 <
-2 -8 4 -1 124.34 181.29 69.73 <
-2 8 4 0 3290.22 3043.21 191.54 o
-2 -8 4 0 3520.74 2886.74 237.34 o
-2 8 4 1 766.83 621.13 89.70 o
-2 -8 4 1 706.03 548.97 112.27 o
-2 8 4 2 36.86 56.58 30.10 <
-2 -8 4 2 43.59 76.19 55.51 <
-1 8 4 -2 567.37 581.49 90.11 o
-1 -8 4 -2 543.95 496.24 161.09 o
-1 8 4 -1 4977.79 6365.05 273.30 o
-1 -8 4 -1 4913.45 7390.59 508.51 o
-1 8 4 0 7391.43 7362.86 286.57 o
-1 -8 4 0 7283.41 7521.41 313.29 o
-1 8 4 1 402.38 277.68 69.02 o
-1 -8 4 1 410.11 231.06 61.67 o
-1 8 4 2 160.43 3.26 19.20 <
-1 -8 4 2 153.71 25.12 27.43 <
0 8 4 -2 22.29 43.72 32.05 <
0 -8 4 -2 24.63 49.35 22.57 <
0 8 4 -1 126.57 219.74 60.25 o
0 -8 4 -1 153.36 143.32 43.07 o
0 8 4 0 2869.47 2469.53 181.35 o
0 -8 4 0 3276.79 2522.20 161.98 o
0 8 4 1 1462.21 1604.73 151.08 o
0 -8 4 1 1430.30 1353.11 123.88 o
0 8 4 2 93.51 158.90 52.67 o
0 -8 4 2 106.89 110.73 42.66 <
1 8 4 -2 171.17 125.60 35.19 o
1 -8 4 -2 155.71 136.09 75.60 <
1 8 4 -1 576.91 347.83 55.22 o
1 -8 4 -1 538.77 336.40 110.02 o
1 8 4 0 6245.01 5324.88 228.51 o
1 -8 4 0 6188.36 6315.05 447.07 o
1 8 4 1 1224.59 1003.62 106.82 o
1 -8 4 1 1279.66 1375.80 231.00 o
1 8 4 2 43.45 3.61 24.59 <
1 -8 4 2 42.97 41.95 34.66 <
2 8 4 -2 322.92 394.81 90.53 o
2 -8 4 -2 317.36 473.67 108.83 o
2 8 4 -1 47.68 118.85 62.68 <
2 -8 4 -1 48.66 38.87 44.20 <
2 8 4 0 2635.96 2057.95 204.63 o
2 -8 4 0 2833.62 2339.90 227.56 o
2 8 4 1 277.39 412.41 96.04 o
2 -8 4 1 280.64 371.94 92.78 o
2 8 4 2 1000.75 1032.71 170.92 o
2 -8 4 2 982.19 1028.62 172.35 o
3 8 4 -2 122.35 117.84 64.87 <
3 -8 4 -2 107.16 93.37 44.14 <
3 8 4 -1 245.30 148.41 73.41 <
3 -8 4 -1 208.28 123.17 52.43 <
3 8 4 0 1646.00 1531.56 206.41 o
3 -8 4 0 1655.92 1560.88 208.07 o
3 8 4 1 255.40 312.93 93.25 o
3 -8 4 1 295.31 366.08 108.66 o
3 8 4 2 97.17 29.50 20.74 <
3 -8 4 2 96.20 50.71 59.30 <
4 8 4 -2 543.36 879.15 182.83 o
4 -8 4 -2 519.07 733.22 164.05 o
4 8 4 -1 49.18 116.42 69.85 <
4 -8 4 -1 45.77 82.00 68.61 <
4 8 4 0 98.21 223.24 130.04 <
4 -8 4 0 124.99 165.00 92.42 <
4 8 4 1 81.98 97.99 79.86 <
4 -8 4 1 83.29 130.58 79.03 <
4 8 4 2 69.91 49.35 57.47 <
4 -8 4 2 73.63 98.58 67.84 <
5 8 4 -2 22.40 2.19 51.37 <
5 -8 4 -2 16.47 -97.99 45.86 <
5 8 4 -1 130.36 -37.44 44.73 <
5 -8 4 -1 119.09 -40.94 76.78 <
5 8 4 0 291.78 376.09 132.89 <
5 -8 4 0 302.74 386.40 135.67 <
5 8 4 1 46.32 116.77 91.30 <
5 -8 4 1 59.85 126.67 77.26 <
5 -8 4 2 32.41 134.49 136.62 <
6 -8 4 -2 86.43 24.88 55.22 <
6 -8 4 -1 10.87 -31.70 32.47 <
-5 9 4 -2 160.43 162.57 140.59 <
-5 -9 4 -2 167.38 261.75 162.63 <
-5 9 4 -1 57.90 219.21 144.56 <
-5 -9 4 -1 65.54 47.46 89.93 <
-5 9 4 0 229.56 117.72 131.88 <
-5 -9 4 0 233.91 107.41 110.38 <
-5 9 4 1 480.04 349.49 174.95 <
-5 -9 4 1 471.19 510.76 202.09 <
-5 9 4 2 60.88 518.28 206.29 <
-5 -9 4 2 72.20 22.51 97.28 <
-4 9 4 -2 19.20 123.76 106.05 <
-4 -9 4 -2 20.34 124.06 121.22 <
-4 9 4 -1 409.26 544.65 202.32 <
-4 -9 4 -1 387.84 263.88 149.36 <
-4 9 4 0 54.23 104.33 103.38 <
-4 -9 4 0 58.65 -25.48 54.86 <
-4 9 4 1 96.09 78.92 97.81 <
-4 -9 4 1 96.43 75.00 98.23 <
-4 9 4 2 211.23 142.54 121.28 <
-4 -9 4 2 195.30 257.95 152.50 <
-3 9 4 -2 275.91 434.27 115.47 o
-3 -9 4 -2 287.04 374.02 138.69 <
-3 9 4 -1 1569.63 1272.89 178.80 o
-3 -9 4 -1 1619.08 1358.62 176.61 o
-3 9 4 0 539.10 448.31 106.58 o
-3 -9 4 0 566.21 352.63 92.13 o
-3 9 4 1 1471.26 1620.37 208.13 o
-3 -9 4 1 1453.17 1477.05 191.66 o
-3 9 4 2 72.28 137.57 72.81 <
-3 -9 4 2 76.15 91.48 55.57 <
-2 9 4 -2 20.80 -17.00 21.86 <
-2 -9 4 -2 23.37 -2.49 25.06 <
-2 9 4 -1 479.04 302.86 69.26 o
-2 -9 4 -1 402.21 255.17 67.66 o
-2 9 4 0 68.14 100.01 38.57 <
-2 -9 4 0 107.07 49.35 48.23 <
-2 9 4 1 191.45 122.93 40.46 o
-2 -9 4 1 189.53 183.60 105.16 <
-2 9 4 2 212.88 179.10 55.28 o
-2 -9 4 2 192.48 296.46 124.59 <
-1 9 4 -2 258.78 437.53 79.03 o
-1 -9 4 -2 263.62 383.14 140.71 <
-1 9 4 -1 2684.56 2702.31 183.78 o
-1 -9 4 -1 2693.10 2664.87 195.57 o
-1 9 4 0 1968.30 1907.94 153.68 o
-1 -9 4 0 2054.59 1953.21 161.21 o
-1 9 4 1 117.19 161.09 56.34 <
-1 -9 4 1 174.55 86.85 30.69 <
-1 9 4 2 122.38 168.43 66.30 <
-1 -9 4 2 114.08 89.82 44.91 <
0 9 4 -2 143.00 135.79 51.01 <
0 -9 4 -2 136.29 92.90 39.04 <
0 9 4 -1 472.47 431.78 91.48 o
0 -9 4 -1 389.20 325.20 67.60 o
0 9 4 0 376.41 148.35 48.34 o
0 -9 4 0 431.64 214.17 49.65 o
0 9 4 1 371.82 522.84 92.07 o
0 -9 4 1 382.02 404.47 70.74 o
0 9 4 2 195.32 266.13 64.04 o
0 -9 4 2 186.21 254.82 59.01 o
1 9 4 -2 109.71 78.97 35.01 <
1 -9 4 -2 101.06 111.68 66.36 <
1 9 4 -1 173.99 102.14 32.70 o
1 -9 4 -1 165.59 185.14 79.74 <
1 9 4 0 1792.23 1459.93 121.81 o
1 -9 4 0 1898.61 1724.76 239.53 o
1 9 4 1 337.72 386.64 65.70 o
1 -9 4 1 443.48 402.28 129.39 o
1 9 4 2 122.50 -31.04 27.19 <
1 -9 4 2 131.84 76.90 34.72 <
2 9 4 -2 462.18 100.18 50.95 <
2 -9 4 -2 449.16 145.92 61.91 <
2 9 4 -1 614.63 390.13 92.60 o
2 -9 4 -1 596.90 373.01 98.64 o
2 9 4 0 32.18 105.93 55.81 <
2 -9 4 0 33.68 74.06 48.46 <
2 9 4 1 36.28 133.07 62.56 <
2 -9 4 1 39.09 259.79 78.62 o
2 9 4 2 532.08 251.26 91.53 <
2 -9 4 2 511.00 300.49 105.16 <
3 9 4 -2 162.32 66.30 55.39 <
3 -9 4 -2 160.52 67.30 47.34 <
3 9 4 -1 1406.86 1133.25 173.77 o
3 -9 4 -1 1310.15 1044.03 170.27 o
3 9 4 0 242.18 205.82 80.04 <
3 -9 4 0 265.56 153.33 65.82 <
3 9 4 1 2577.06 2595.08 279.52 o
3 -9 4 1 2736.08 2468.17 273.54 o
3 9 4 2 46.23 -36.85 59.07 <
3 -9 4 2 53.08 84.54 58.89 <
4 9 4 -2 379.20 288.70 109.78 <
4 -9 4 -2 357.92 319.69 122.05 <
4 9 4 -1 254.34 155.34 84.84 <
4 -9 4 -1 257.23 110.97 80.81 <
4 9 4 0 151.01 124.18 71.33 <
4 -9 4 0 143.34 71.81 52.55 <
4 9 4 1 11.29 43.25 53.26 <
4 -9 4 1 10.98 8.18 56.88 <
4 9 4 2 29.94 21.74 12.44 <
4 -9 4 2 30.35 9.72 26.42 <
5 9 4 -2 81.50 76.84 63.87 <
5 -9 4 -2 87.52 31.34 54.98 <
5 9 4 -1 281.16 131.58 115.23 <
5 -9 4 -1 255.35 4.62 32.53 <
5 9 4 0 86.79 79.33 99.18 <
5 -9 4 0 89.16 -12.44 51.31 <
5 9 4 1 571.44 476.33 212.81 <
5 -9 4 1 611.89 364.72 127.02 <
5 9 4 2 32.10 124.83 139.88 <
5 -9 4 2 32.86 147.23 169.86 <
6 9 4 -2 74.36 181.76 134.07 <
6 -9 4 -2 77.51 155.88 106.82 <
6 -9 4 -1 75.73 170.69 119.97 <
-5 10 4 -2 111.97 34.60 50.65 <
-5 -10 4 -2 111.83 153.15 109.96 <
-5 10 4 -1 128.88 107.29 82.71 <
-5 -10 4 -1 142.70 256.24 160.32 <
-5 10 4 0 455.42 452.46 192.84 <
-5 -10 4 0 423.23 315.01 173.00 <
-5 10 4 1 156.16 30.10 64.64 <
-5 -10 4 1 155.33 21.33 61.97 <
-5 10 4 2 5.10 34.72 69.20 <
-5 -10 4 2 6.39 186.09 115.82 <
-4 10 4 -2 19.27 -10.72 22.34 <
-4 -10 4 -2 16.59 45.50 93.25 <
-4 10 4 -1 123.22 392.80 179.16 <
-4 -10 4 -1 117.75 339.30 153.92 <
-4 10 4 0 183.35 705.56 225.84 o
-4 -10 4 0 168.17 462.29 195.15 <
-4 10 4 1 170.69 317.79 164.70 <
-4 -10 4 1 165.66 230.29 121.51 <
-4 10 4 2 66.66 192.55 139.70 <
-4 -10 4 2 62.10 139.46 84.13 <
-3 10 4 -2 205.54 127.67 54.68 <
-3 -10 4 -2 206.28 262.81 118.31 <
-3 10 4 -1 344.27 182.89 68.49 <
-3 -10 4 -1 380.04 189.35 108.66 <
-3 10 4 0 689.50 347.83 95.68 o
-3 -10 4 0 605.07 236.80 74.59 o
-3 10 4 1 323.26 33.47 45.09 <
-3 -10 4 1 328.49 -16.47 27.85 <
-3 10 4 2 82.13 59.42 45.44 <
-3 -10 4 2 81.72 42.12 44.02 <
-2 10 4 -2 232.54 209.61 75.18 <
-2 -10 4 -2 232.65 101.37 51.01 <
-2 10 4 -1 210.07 331.48 76.13 o
-2 -10 4 -1 230.76 253.87 80.22 o
-2 10 4 0 42.32 71.21 42.83 <
-2 -10 4 0 33.20 99.83 47.81 <
-2 10 4 1 531.59 386.34 76.55 o
-2 -10 4 1 518.77 413.06 156.59 <
-2 10 4 2 53.41 20.38 35.55 <
-2 -10 4 2 52.01 112.21 56.70 <
-1 10 4 -2 50.94 21.03 28.85 <
-1 -10 4 -2 53.99 4.62 10.43 <
-1 10 4 -1 2065.69 2093.92 173.18 o
-1 -10 4 -1 2066.69 2061.51 168.08 o
-1 10 4 0 1055.52 925.65 113.22 o
-1 -10 4 0 911.07 907.35 109.84 o
-1 10 4 1 446.01 449.26 87.98 o
-1 -10 4 1 433.44 399.32 78.32 o
-1 10 4 2 53.39 82.88 53.44 <
-1 -10 4 2 49.40 52.85 32.23 <
0 10 4 -2 234.69 141.54 52.31 <
0 -10 4 -2 234.15 102.55 44.91 <
0 10 4 -1 294.84 304.23 69.14 o
0 -10 4 -1 346.26 206.83 56.46 o
0 10 4 0 2584.18 2429.96 194.50 o
0 -10 4 0 2583.21 2118.62 158.07 o
0 10 4 1 452.32 320.99 84.54 o
0 -10 4 1 447.13 223.71 57.88 o
0 10 4 2 86.90 146.40 51.13 <
0 -10 4 2 78.29 119.44 42.83 <
1 10 4 -2 623.46 432.49 66.59 o
1 -10 4 -2 629.99 502.58 124.95 o
1 10 4 -1 205.91 211.45 49.83 o
1 -10 4 -1 219.16 195.57 83.36 <
1 10 4 0 699.60 596.60 83.77 o
1 -10 4 0 663.95 615.44 146.28 o
1 10 4 1 352.17 316.73 62.09 o
1 -10 4 1 383.77 343.86 120.92 <
1 10 4 2 51.46 27.19 13.33 <
1 -10 4 2 57.12 105.99 63.51 <
2 10 4 -2 274.32 111.74 51.84 <
2 -10 4 -2 280.97 81.17 44.97 <
2 10 4 -1 170.71 91.59 47.22 <
2 -10 4 -1 200.46 108.89 64.93 <
2 10 4 0 140.97 223.24 77.02 <
2 -10 4 0 104.43 169.03 69.55 <
2 10 4 1 351.03 368.68 100.78 o
2 -10 4 1 341.57 396.71 122.82 o
2 10 4 2 841.79 515.61 125.07 o
2 -10 4 2 848.04 671.37 144.74 o
3 10 4 -2 927.93 462.83 120.98 o
3 -10 4 -2 935.24 531.37 127.61 o
3 10 4 -1 95.99 53.02 69.44 <
3 -10 4 -1 105.38 50.71 66.12 <
3 10 4 0 372.89 382.61 108.54 o
3 -10 4 0 364.84 260.74 96.87 <
3 10 4 1 762.68 1039.11 182.48 o
3 -10 4 1 719.04 1096.70 186.56 o
3 10 4 2 35.64 -28.91 18.60 <
3 -10 4 2 33.04 20.91 49.94 <
4 10 4 -2 219.71 302.33 101.07 <
4 -10 4 -2 232.81 264.77 115.71 <
4 10 4 -1 52.89 54.39 47.69 <
4 -10 4 -1 54.01 136.68 82.00 <
4 10 4 0 382.02 1118.44 205.46 o
4 -10 4 0 371.70 1089.88 201.61 o
4 10 4 1 136.10 271.46 111.50 <
4 -10 4 1 129.43 261.51 111.50 <
4 10 4 2 49.69 4.38 17.89 <
4 -10 4 2 46.78 73.70 41.00 <
5 10 4 -2 346.31 332.84 176.85 <
5 -10 4 -2 353.30 164.88 99.71 <
5 -10 4 -1 87.71 -23.28 63.10 <
5 10 4 0 216.17 300.73 160.56 <
5 -10 4 0 205.17 234.26 107.94 <
5 10 4 1 129.71 282.25 151.20 <
5 -10 4 1 116.85 11.43 49.47 <
5 10 4 2 5.38 341.97 206.65 <
6 10 4 -2 26.42 99.12 110.85 <
6 -10 4 -2 23.44 -44.67 65.47 <
6 -10 4 -1 43.91 13.92 31.46 <
-5 11 4 -2 26.15 122.46 108.30 <
-5 -11 4 -2 25.99 98.29 94.62 <
-5 11 4 -1 297.47 484.45 216.19 <
-5 -11 4 -1 334.92 480.24 205.94 <
-5 11 4 0 42.89 116.83 110.55 <
-5 -11 4 0 40.25 196.28 140.83 <
-5 11 4 1 37.07 301.44 159.67 <
-5 -11 4 1 47.00 371.59 204.81 <
-5 11 4 2 35.17 -75.72 77.02 <
-5 -11 4 2 34.05 177.80 118.02 <
-4 11 4 -2 88.09 170.09 117.19 <
-4 -11 4 -2 97.66 154.04 123.94 <
-4 11 4 -1 516.52 584.40 218.74 <
-4 -11 4 -1 472.55 594.29 203.33 <
-4 11 4 0 77.84 124.59 63.81 <
-4 -11 4 0 83.86 83.83 96.87 <
-4 11 4 1 50.08 27.13 35.55 <
-4 -11 4 1 61.63 -25.59 26.48 <
-4 11 4 2 226.50 413.77 190.59 <
-4 -11 4 2 203.44 208.19 120.03 <
-3 11 4 -2 53.13 6.52 43.25 <
-3 -11 4 -2 50.78 -20.50 51.13 <
-3 11 4 -1 283.57 362.82 105.99 o
-3 -11 4 -1 338.96 472.48 179.28 <
-3 11 4 0 121.29 131.29 62.98 <
-3 -11 4 0 123.99 194.74 143.20 <
-3 11 4 1 226.13 90.17 62.21 <
-3 -11 4 1 234.32 175.37 75.42 <
-3 11 4 2 46.95 92.96 52.55 <
-3 -11 4 2 43.67 33.36 51.90 <
-2 11 4 -2 228.71 278.28 89.99 o
-2 -11 4 -2 213.45 218.26 70.21 o
-2 11 4 -1 882.82 1103.92 138.52 o
-2 -11 4 -1 851.71 929.03 147.46 o
-2 11 4 0 452.82 333.08 74.65 o
-2 -11 4 0 439.65 306.48 87.80 o
-2 11 4 1 422.08 170.04 56.70 <
-2 -11 4 1 460.26 165.95 120.98 <
-2 11 4 2 196.91 195.15 78.09 <
-2 -11 4 2 181.21 170.80 83.12 <
-1 11 4 -2 134.37 40.41 45.80 <
-1 -11 4 -2 137.07 83.95 85.02 <
-1 11 4 -1 1032.46 1394.64 147.40 o
-1 -11 4 -1 1091.82 1742.06 284.08 o
-1 11 4 0 127.84 159.55 48.58 o
-1 -11 4 0 147.71 127.67 50.77 <
-1 11 4 1 138.79 97.81 45.38 <
-1 -11 4 1 147.84 68.84 40.52 <
-1 11 4 2 31.58 116.48 51.48 <
-1 -11 4 2 34.81 70.98 43.31 <
0 11 4 -2 83.27 87.45 39.04 <
0 -11 4 -2 79.70 64.34 36.32 <
0 11 4 -1 478.23 375.74 82.41 o
0 -11 4 -1 477.77 349.25 67.48 o
0 11 4 0 3619.33 3332.86 236.51 o
0 -11 4 0 3648.38 2861.44 186.51 o
0 11 4 1 1118.27 942.54 130.87 o
0 -11 4 1 1073.18 766.52 104.04 o
0 11 4 2 119.50 130.70 52.61 <
0 -11 4 2 116.11 105.04 41.71 <
1 11 4 -2 16.73 20.74 25.36 <
1 -11 4 -2 17.38 20.38 41.35 <
1 11 4 -1 171.65 128.44 41.06 o
1 -11 4 -1 156.77 184.37 84.84 <
1 11 4 0 211.75 131.29 44.20 <
1 -11 4 0 234.97 257.30 103.09 <
1 11 4 1 634.36 643.70 86.26 o
1 -11 4 1 659.31 680.97 166.95 o
1 11 4 2 84.32 98.70 48.52 <
1 -11 4 2 90.44 50.12 58.65 <
2 11 4 -2 171.32 95.56 47.57 <
2 -11 4 -2 163.93 73.82 37.50 <
2 11 4 -1 3.91 4.03 34.48 <
2 -11 4 -1 13.02 -9.60 32.64 <
2 11 4 0 222.03 260.98 77.97 o
2 -11 4 0 208.06 343.45 100.54 o
2 11 4 1 1137.32 1017.42 158.30 o
2 -11 4 1 1019.92 1154.93 175.84 o
2 11 4 2 812.56 908.89 159.07 o
2 -11 4 2 796.84 790.46 160.44 o
3 11 4 -2 108.56 -40.94 33.71 <
3 -11 4 -2 110.64 -14.04 79.27 <
3 11 4 -1 315.18 139.40 60.13 <
3 -11 4 -1 309.80 116.83 63.99 <
3 11 4 0 209.17 184.55 89.16 <
3 -11 4 0 213.60 39.69 43.90 <
3 11 4 1 54.78 104.27 42.72 <
3 -11 4 1 35.21 140.65 75.00 <
3 11 4 2 98.37 118.25 56.88 <
3 -11 4 2 99.00 161.62 102.61 <
4 11 4 -2 48.87 105.40 99.30 <
4 -11 4 -2 44.25 139.76 84.25 <
4 11 4 -1 105.05 22.39 45.92 <
4 -11 4 -1 96.09 67.30 56.34 <
4 11 4 0 29.95 54.80 59.30 <
4 -11 4 0 24.88 22.75 58.89 <
4 11 4 1 333.81 592.46 234.97 <
4 -11 4 1 273.00 470.53 145.15 o
4 11 4 2 44.78 -44.73 25.30 <
4 -11 4 2 45.63 22.16 41.83 <
5 11 4 -2 100.55 153.62 140.00 <
5 -11 4 -2 111.73 8.59 61.08 <
5 11 4 -1 234.09 272.47 164.05 <
5 -11 4 -1 236.96 204.93 97.64 <
5 11 4 0 70.56 190.65 146.46 <
5 -11 4 0 70.52 145.51 81.82 <
5 11 4 1 39.64 191.13 157.24 <
5 -11 4 1 56.74 121.69 83.48 <
6 11 4 -2 15.71 19.73 55.22 <
6 -11 4 -2 14.58 19.85 70.62 <
-5 12 4 -2 63.50 111.32 94.73 <
-5 12 4 -1 47.28 68.61 91.18 <
-5 -12 4 -1 49.32 56.40 119.62 <
-5 12 4 0 160.21 168.38 135.85 <
-5 -12 4 0 177.00 134.37 97.93 <
-5 12 4 1 24.53 230.70 141.66 <
-5 -12 4 1 16.36 25.24 61.56 <
-5 12 4 2 65.97 215.00 150.31 <
-5 -12 4 2 68.14 53.91 99.71 <
-4 12 4 -2 139.34 273.30 165.89 <
-4 -12 4 -2 141.22 49.65 48.52 <
-4 12 4 -1 30.68 110.49 106.05 <
-4 -12 4 -1 20.28 68.78 42.95 <
-4 12 4 0 852.31 776.71 247.59 o
-4 -12 4 0 864.74 738.61 236.15 o
-4 12 4 1 87.36 -0.18 56.99 <
-4 -12 4 1 75.88 -25.83 37.98 <
-4 12 4 2 222.88 85.08 54.09 <
-4 -12 4 2 206.07 119.14 100.18 <
-3 12 4 -2 81.21 179.57 96.51 <
-3 -12 4 -2 96.81 66.18 71.57 <
-3 12 4 -1 29.81 138.63 73.11 <
-3 -12 4 -1 31.85 82.47 35.67 <
-3 12 4 0 776.36 565.14 133.12 o
-3 -12 4 0 833.54 572.55 190.41 o
-3 12 4 1 74.32 100.95 79.57 <
-3 -12 4 1 61.89 128.27 114.11 <
-3 12 4 2 282.51 243.38 103.15 <
-3 -12 4 2 285.39 350.02 103.56 o
-2 12 4 -2 1103.85 1282.90 162.75 o
-2 -12 4 -2 1116.69 957.53 152.62 o
-2 12 4 -1 67.76 146.51 57.53 <
-2 -12 4 -1 75.11 95.03 56.52 <
-2 12 4 0 4864.97 5787.35 396.65 o
-2 -12 4 0 4830.52 5850.68 558.80 o
-2 12 4 1 289.11 84.25 45.92 <
-2 -12 4 1 288.39 129.04 85.67 <
-2 12 4 2 142.61 69.38 45.26 <
-2 -12 4 2 133.05 108.83 91.89 <
-1 12 4 -2 125.18 3.91 37.27 <
-1 -12 4 -2 120.82 151.31 108.06 <
-1 12 4 -1 1114.80 1041.24 130.58 o
-1 -12 4 -1 1103.03 1135.68 232.12 o
-1 12 4 0 2482.11 2357.62 194.44 o
-1 -12 4 0 2517.68 2356.43 317.85 o
-1 12 4 1 44.24 47.34 38.39 <
-1 -12 4 1 37.24 112.21 86.38 <
-1 12 4 2 450.23 762.02 116.83 o
-1 -12 4 2 443.60 462.95 85.08 o
0 12 4 -2 91.97 68.84 43.78 <
0 -12 4 -2 85.73 51.90 55.28 <
0 12 4 -1 168.01 208.66 62.33 o
0 -12 4 -1 169.25 197.47 60.96 o
0 12 4 0 567.82 464.31 95.15 o
0 -12 4 0 470.17 341.08 67.07 o
0 12 4 1 708.65 654.19 111.74 o
0 -12 4 1 748.09 580.72 93.02 o
0 12 4 2 27.44 3.02 18.48 <
0 -12 4 2 27.28 -16.11 17.77 <
1 12 4 -2 46.27 -0.06 20.02 <
1 -12 4 -2 40.62 -7.94 26.25 <
1 12 4 -1 128.84 165.95 49.41 o
1 -12 4 -1 119.57 111.03 70.32 <
1 12 4 0 2383.06 1995.21 154.22 o
1 -12 4 0 2438.56 2108.43 272.65 o
1 12 4 1 1232.83 1087.04 161.56 o
1 -12 4 1 1240.88 1501.22 253.10 o
1 12 4 2 103.54 138.52 64.81 <
1 -12 4 2 105.38 220.81 79.92 <
2 12 4 -2 216.25 71.57 49.71 <
2 -12 4 -2 191.75 35.67 39.69 <
2 12 4 -1 187.57 163.64 59.90 <
2 -12 4 -1 175.16 171.63 68.78 <
2 12 4 0 4331.15 3589.22 287.99 o
2 -12 4 0 4285.00 3502.48 300.08 o
2 12 4 1 201.70 216.13 82.23 <
2 -12 4 1 240.86 304.64 97.81 o
2 12 4 2 406.23 371.35 107.00 o
2 -12 4 2 394.03 540.67 138.22 o
3 12 4 -2 62.65 33.89 45.03 <
3 -12 4 -2 59.54 65.70 59.96 <
3 12 4 -1 162.82 213.46 79.33 <
3 -12 4 -1 165.21 249.42 89.82 <
3 12 4 0 934.73 728.48 148.05 o
3 -12 4 0 995.12 718.00 157.06 o
3 12 4 1 93.03 200.19 83.18 <
3 -12 4 1 82.23 166.90 85.91 <
3 12 4 2 12.76 29.09 66.59 <
3 -12 4 2 16.23 -22.63 47.16 <
4 12 4 -2 89.60 -4.09 43.19 <
4 -12 4 -2 67.96 71.09 80.63 <
4 12 4 -1 91.63 -137.33 146.75 <
4 -12 4 -1 79.53 96.33 73.70 <
4 12 4 0 777.59 813.44 262.81 o
4 -12 4 0 785.17 623.74 163.93 o
4 12 4 1 24.34 189.29 127.14 <
4 -12 4 1 36.72 103.92 81.76 <
4 12 4 2 23.06 81.40 118.25 <
4 -12 4 2 22.00 187.45 108.12 <
5 12 4 -2 33.96 22.22 53.85 <
5 -12 4 -2 33.92 118.79 66.36 <
5 12 4 -1 38.68 33.12 82.23 <
5 -12 4 -1 41.42 66.47 95.33 <
5 12 4 0 227.93 379.29 208.60 <
5 -12 4 0 252.00 355.59 204.52 <
5 12 4 1 74.31 380.30 194.21 <
5 -12 4 1 70.48 184.85 102.14 <
5 -12 4 2 23.52 -227.80 131.41 <
-5 13 4 -1 166.87 351.09 194.86 <
-5 13 4 0 417.05 637.07 274.66 <
-5 -13 4 0 410.13 416.61 192.25 <
-5 13 4 1 85.75 107.41 126.07 <
-5 -13 4 1 84.08 290.72 163.10 <
-5 13 4 2 83.01 173.18 169.32 <
-5 -13 4 2 84.15 -28.91 54.62 <
-4 13 4 -2 248.51 361.58 182.65 <
-4 -13 4 -2 242.63 554.12 220.63 <
-4 13 4 -1 653.71 877.19 269.27 o
-4 -13 4 -1 617.54 723.39 228.57 o
-4 13 4 0 336.82 415.08 186.62 <
-4 -13 4 0 322.46 318.15 136.68 <
-4 13 4 1 324.13 470.88 200.66 <
-4 -13 4 1 294.22 229.04 141.83 <
-4 13 4 2 339.07 236.03 154.57 <
-4 -13 4 2 328.46 136.80 101.55 <
-3 13 4 -2 123.61 178.68 95.68 <
-3 -13 4 -2 134.96 200.96 104.98 <
-3 13 4 -1 87.54 125.90 65.35 <
-3 -13 4 -1 99.19 142.72 98.76 <
-3 13 4 0 1447.02 1288.95 209.02 o
-3 -13 4 0 1438.49 1633.76 327.98 o
-3 13 4 1 795.47 668.23 151.43 o
-3 -13 4 1 774.06 920.03 256.95 o
-3 13 4 2 137.87 88.99 69.50 <
-3 -13 4 2 143.99 63.16 74.23 <
-2 13 4 -2 173.49 55.16 44.91 <
-2 -13 4 -2 178.37 88.75 87.57 <
-2 13 4 -1 1957.57 2021.22 199.48 o
-2 -13 4 -1 1900.01 1698.93 207.83 o
-2 13 4 0 1225.34 1035.91 144.38 o
-2 -13 4 0 1168.31 1249.25 269.51 o
-2 13 4 1 193.03 235.86 70.56 o
-2 -13 4 1 186.91 338.89 150.84 <
-2 13 4 2 239.58 57.88 54.74 <
-2 -13 4 2 241.90 151.67 105.40 <
-1 13 4 -2 543.17 535.28 96.39 o
-1 -13 4 -2 552.66 454.95 160.79 <
-1 13 4 -1 75.05 101.49 42.54 <
-1 -13 4 -1 59.65 57.76 105.75 <
-1 13 4 0 5572.21 6201.06 323.66 o
-1 -13 4 0 5598.26 6466.83 539.14 o
-1 13 4 1 1228.60 1170.69 149.30 o
-1 -13 4 1 1185.42 1087.04 224.42 o
-1 13 4 2 28.36 46.09 37.68 <
-1 -13 4 2 35.41 58.00 52.55 <
0 13 4 -2 12.41 12.09 28.38 <
0 -13 4 -2 11.78 -39.46 28.08 <
0 13 4 -1 971.04 967.60 129.63 o
0 -13 4 -1 957.38 985.08 200.49 o
0 13 4 0 1636.73 2026.73 199.01 o
0 -13 4 0 1576.26 1583.87 147.82 o
0 13 4 1 827.31 952.79 138.81 o
0 -13 4 1 860.70 871.68 115.35 o
0 13 4 2 265.75 191.30 61.32 o
0 -13 4 2 265.02 156.41 57.41 <
1 13 4 -2 200.60 247.41 63.51 o
1 -13 4 -2 208.84 194.50 83.89 <
1 13 4 -1 228.40 108.78 43.25 <
1 -13 4 -1 197.49 248.89 92.66 <
1 13 4 0 5457.87 5483.53 260.27 o
1 -13 4 0 5499.95 5540.47 427.04 o
1 13 4 1 3371.41 2627.25 250.79 o
1 -13 4 1 3337.71 3762.75 378.52 o
1 13 4 2 153.47 74.89 32.59 <
1 -13 4 2 153.85 138.40 71.45 <
2 13 4 -2 377.20 237.28 77.67 o
2 -13 4 -2 396.07 199.78 73.58 <
2 13 4 -1 127.22 169.15 69.97 <
2 -13 4 -1 102.95 181.47 65.53 <
2 13 4 0 1504.10 1081.77 163.52 o
2 -13 4 0 1471.86 1216.37 185.68 o
2 13 4 1 1246.73 1238.41 179.40 o
2 -13 4 1 1258.70 1178.57 183.48 o
2 13 4 2 248.21 154.10 60.25 <
2 -13 4 2 252.76 90.76 54.80 <
3 13 4 -2 87.03 119.26 93.67 <
3 -13 4 -2 99.62 194.80 93.07 <
3 13 4 -1 403.37 428.05 169.38 <
3 -13 4 -1 398.22 326.15 102.85 o
3 13 4 0 1331.49 1638.20 332.84 o
3 -13 4 0 1338.41 1435.05 225.43 o
3 13 4 1 242.18 463.12 197.47 <
3 -13 4 1 265.84 362.88 109.72 o
3 13 4 2 21.11 19.31 64.16 <
3 -13 4 2 25.41 59.96 55.51 <
4 13 4 -2 307.32 295.70 163.34 <
4 -13 4 -2 311.54 149.65 82.71 <
4 13 4 -1 96.71 77.55 50.24 <
4 -13 4 -1 58.98 217.31 100.66 <
4 13 4 0 646.28 816.52 266.49 o
4 -13 4 0 637.59 682.92 171.22 o
4 13 4 1 559.01 677.65 252.03 <
4 -13 4 1 553.63 622.91 161.33 o
4 13 4 2 101.18 129.63 109.84 <
4 -13 4 2 110.10 203.69 106.17 <
5 13 4 -2 41.19 16.47 59.19 <
5 -13 4 -2 46.11 193.02 186.68 <
5 13 4 -1 70.09 73.23 115.17 <
5 -13 4 -1 71.35 -11.14 46.86 <
5 13 4 0 294.32 237.52 125.01 <
5 -13 4 0 292.30 -129.15 123.29 <
5 -13 4 1 350.70 208.07 132.24 <
-5 14 4 1 61.21 56.70 106.76 <
-5 -14 4 1 59.32 32.82 58.00 <
-5 14 4 2 37.97 564.43 220.39 <
-5 -14 4 2 39.16 145.98 152.68 <
-4 14 4 -2 302.41 735.59 262.28 <
-4 -14 4 -2 292.80 445.05 204.99 <
-4 14 4 -1 202.39 208.54 160.38 <
-4 -14 4 -1 189.48 304.35 171.57 <
-4 14 4 0 627.01 1217.50 333.08 o
-4 -14 4 0 609.26 1057.36 294.27 o
-4 14 4 1 133.99 265.83 162.69 <
-4 -14 4 1 142.40 52.08 29.86 <
-4 14 4 2 79.22 165.24 124.30 <
-4 -14 4 2 72.56 32.23 88.87 <
-3 14 4 -2 30.72 189.53 91.24 <
-3 -14 4 -2 31.53 5.81 45.92 <
-3 14 4 -1 253.08 241.54 89.22 <
-3 -14 4 -1 231.10 269.80 156.65 <
-3 14 4 0 591.40 304.05 110.61 <
-3 -14 4 0 581.02 493.75 195.04 <
-3 14 4 1 267.92 192.90 98.64 <
-3 -14 4 1 262.18 172.82 134.90 <
-3 14 4 2 109.14 149.24 88.63 <
-3 -14 4 2 113.88 162.51 109.19 <
-2 14 4 -2 369.45 180.23 68.49 <
-2 -14 4 -2 359.14 221.82 134.84 <
-2 14 4 -1 199.37 276.02 84.60 o
-2 -14 4 -1 189.10 178.86 109.31 <
-2 14 4 0 1341.56 1384.87 166.78 o
-2 -14 4 0 1297.12 1710.06 325.14 o
-2 14 4 1 249.30 95.39 48.88 <
-2 -14 4 1 259.05 217.55 109.78 <
-2 14 4 2 140.80 -9.01 48.40 <
-2 -14 4 2 124.09 -9.24 52.20 <
-1 14 4 -2 209.31 155.93 60.79 <
-1 -14 4 -2 223.86 90.05 74.41 <
-1 14 4 -1 76.22 150.37 74.89 <
-1 -14 4 -1 92.59 205.76 120.92 <
-1 14 4 0 2631.98 2333.39 206.06 o
-1 -14 4 0 2608.36 2702.25 368.45 o
-1 14 4 1 156.91 88.63 47.81 <
-1 -14 4 1 166.07 56.22 62.56 <
-1 14 4 2 23.23 104.75 49.00 <
-1 -14 4 2 20.59 21.03 23.70 <
0 14 4 -2 62.08 55.22 41.71 <
0 -14 4 -2 58.06 21.86 68.37 <
0 14 4 -1 38.49 67.24 47.34 <
0 -14 4 -1 37.80 169.44 107.00 <
0 14 4 0 8609.45 8677.23 422.66 o
0 -14 4 0 8470.42 7920.31 560.64 o
0 14 4 1 739.48 742.47 127.85 o
0 -14 4 1 734.14 525.98 144.50 o
0 14 4 2 100.44 33.18 34.84 <
0 -14 4 2 88.08 92.78 66.12 <
1 14 4 -2 144.24 48.70 34.90 <
1 -14 4 -2 170.05 28.08 47.16 <
1 14 4 -1 95.14 77.61 38.98 <
1 -14 4 -1 81.40 60.25 26.96 <
1 14 4 0 2552.69 1973.06 224.54 o
1 -14 4 0 2537.89 2372.55 284.67 o
1 14 4 1 1474.86 1495.54 197.23 o
1 -14 4 1 1457.62 1873.35 275.49 o
1 14 4 2 6.65 -35.37 28.20 <
1 -14 4 2 9.18 11.73 33.06 <
2 14 4 -2 325.17 238.76 140.23 <
2 -14 4 -2 315.49 471.54 119.38 o
2 14 4 -1 53.33 -14.34 17.95 <
2 -14 4 -1 51.44 37.38 62.50 <
2 14 4 0 1255.54 1359.33 283.49 o
2 -14 4 0 1208.36 1263.71 186.62 o
2 14 4 1 293.52 229.40 121.57 <
2 -14 4 1 280.20 359.15 106.70 o
2 14 4 2 108.72 58.53 66.41 <
2 -14 4 2 100.51 169.92 77.97 <
3 14 4 -2 123.87 39.99 60.19 <
3 -14 4 -2 143.75 -23.58 34.18 <
3 14 4 -1 119.31 25.59 76.49 <
3 -14 4 -1 127.86 83.00 57.11 <
3 14 4 0 627.37 411.22 167.19 <
3 -14 4 0 625.08 386.34 123.82 o
3 14 4 1 22.18 126.85 132.29 <
3 -14 4 1 20.13 64.40 63.27 <
3 14 4 2 45.88 94.14 101.31 <
3 -14 4 2 46.37 73.35 65.70 <
4 14 4 -2 205.83 55.93 86.08 <
4 -14 4 -2 199.01 166.78 105.46 <
4 14 4 -1 31.52 40.29 76.37 <
4 -14 4 -1 28.54 29.50 58.48 <
4 14 4 0 538.25 724.75 257.30 <
4 -14 4 0 521.36 700.93 169.32 o
4 14 4 1 29.55 100.95 124.06 <
4 -14 4 1 26.36 71.75 75.89 <
4 14 4 2 81.54 64.16 30.69 <
4 -14 4 2 81.19 195.81 108.30 <
5 14 4 -2 19.35 4.80 44.02 <
5 -14 4 -2 20.39 155.58 165.18 <
5 14 4 -1 45.70 9.42 14.04 <
5 -14 4 -1 47.71 9.30 74.35 <
5 14 4 0 27.62 5.92 73.70 <
5 -14 4 0 30.32 -266.43 149.95 <
-5 15 4 2 52.60 14.99 96.16 <
-5 -15 4 2 58.55 113.99 149.30 <
-4 15 4 -2 31.68 56.64 122.16 <
-4 -15 4 -2 29.12 22.93 58.77 <
-4 15 4 -1 86.68 276.50 156.17 <
-4 -15 4 -1 91.75 130.16 114.23 <
-4 15 4 0 785.05 581.73 228.27 <
-4 -15 4 0 791.44 546.72 211.86 <
-4 15 4 1 14.66 240.36 139.46 <
-4 -15 4 1 21.88 -7.11 51.13 <
-4 15 4 2 30.18 147.05 107.71 <
-4 -15 4 2 33.16 15.82 22.10 <
-3 15 4 -2 47.15 -4.27 79.15 <
-3 -15 4 -2 56.97 15.64 23.05 <
-3 15 4 -1 489.49 358.73 113.87 o
-3 -15 4 -1 503.44 384.09 176.73 <
-3 15 4 0 486.83 210.68 80.28 <
-3 -15 4 0 492.64 265.07 142.13 <
-3 15 4 1 58.26 105.99 59.36 <
-3 -15 4 1 74.98 130.28 121.10 <
-3 15 4 2 45.50 25.53 42.89 <
-3 -15 4 2 50.56 164.05 137.09 <
-2 15 4 -2 250.64 288.94 85.97 o
-2 -15 4 -2 271.11 384.21 168.26 <
-2 15 4 -1 209.42 335.69 112.98 <
-2 -15 4 -1 230.49 276.86 151.79 <
-2 15 4 0 886.23 588.66 119.68 o
-2 -15 4 0 926.05 814.15 228.33 o
-2 15 4 1 5.72 54.45 50.36 <
-2 -15 4 1 9.15 98.17 108.78 <
-2 15 4 2 64.28 56.52 42.72 <
-2 -15 4 2 64.83 7.23 58.59 <
-1 15 4 -2 223.98 167.43 64.22 <
-1 -15 4 -2 219.40 176.02 110.02 <
-1 15 4 -1 20.47 117.07 51.13 <
-1 -15 4 -1 37.64 51.60 75.48 <
-1 15 4 0 1369.90 1580.67 176.02 o
-1 -15 4 0 1361.60 1795.85 321.58 o
-1 15 4 1 30.90 130.76 59.54 <
-1 -15 4 1 37.45 92.25 62.50 <
-1 15 4 2 70.79 7.41 41.77 <
-1 -15 4 2 75.47 90.65 58.06 <
0 15 4 -2 85.00 19.79 68.90 <
0 -15 4 -2 66.49 58.24 45.20 <
0 15 4 -1 178.62 220.04 66.36 o
0 -15 4 -1 198.07 182.65 95.50 <
0 15 4 0 6608.26 6568.62 341.20 o
0 -15 4 0 6728.25 5557.47 495.29 o
0 15 4 1 127.72 192.19 69.97 <
0 -15 4 1 150.75 107.06 67.24 <
0 15 4 2 21.10 16.29 26.07 <
0 -15 4 2 21.67 4.74 51.60 <
1 15 4 -2 45.43 49.88 31.16 <
1 15 4 -1 820.50 701.65 135.91 o
1 -15 4 -1 819.18 908.89 161.98 o
1 15 4 0 1276.12 1103.63 167.84 o
1 -15 4 0 1245.28 1283.44 208.90 o
1 15 4 1 1189.98 1359.15 286.93 o
1 -15 4 1 1122.30 1561.48 257.30 o
1 15 4 2 98.23 -22.22 36.55 <
1 -15 4 2 94.99 58.42 35.31 <
2 15 4 -2 116.16 -57.94 16.06 <
2 -15 4 -2 101.35 28.79 48.46 <
2 15 4 -1 17.16 -35.78 51.90 <
2 -15 4 -1 15.32 117.66 66.89 <
2 15 4 0 637.93 445.11 177.85 <
2 -15 4 0 667.96 404.47 112.45 o
2 15 4 1 407.44 295.52 134.84 <
2 -15 4 1 437.30 360.21 111.26 o
2 15 4 2 229.24 296.11 152.50 <
2 -15 4 2 238.72 161.03 75.24 <
3 15 4 -2 139.28 22.75 68.19 <
3 -15 4 -2 133.61 9.72 63.75 <
3 15 4 -1 453.04 229.22 124.47 <
3 -15 4 -1 464.22 97.34 84.13 <
3 15 4 0 542.42 364.30 155.70 <
3 -15 4 0 533.02 549.15 142.84 o
3 15 4 1 6.17 16.71 75.36 <
3 -15 4 1 7.00 -7.17 52.08 <
3 15 4 2 15.82 9.72 58.89 <
3 -15 4 2 17.22 -33.95 48.29 <
4 15 4 -2 91.17 89.64 87.92 <
4 -15 4 -2 77.82 122.40 119.62 <
4 15 4 -1 66.57 282.30 158.90 <
4 -15 4 -1 67.50 104.57 88.69 <
4 15 4 0 641.21 587.78 243.50 <
4 -15 4 0 649.54 544.76 151.67 o
4 15 4 1 381.33 163.46 125.72 <
4 -15 4 1 386.40 269.69 126.85 <
4 15 4 2 10.32 61.44 49.23 <
4 -15 4 2 8.38 125.48 91.71 <
5 15 4 -2 37.15 -50.00 105.46 <
5 -15 4 -2 36.72 122.64 142.07 <
5 15 4 -1 107.94 72.46 140.59 <
5 -15 4 -1 115.33 22.22 70.56 <
5 -15 4 0 211.45 92.60 91.65 <
-4 16 4 -2 83.37 149.18 97.64 <
-4 -16 4 -2 88.15 53.02 103.21 <
-4 16 4 -1 79.94 104.63 100.48 <
-4 -16 4 -1 80.58 162.57 157.65 <
-4 16 4 0 609.41 1131.29 340.19 o
-4 -16 4 0 640.37 729.97 235.92 o
-4 16 4 1 70.02 154.93 127.67 <
-4 -16 4 1 88.64 0.59 83.36 <
-4 16 4 2 62.19 24.76 65.88 <
-4 -16 4 2 63.27 66.00 57.29 <
-3 16 4 -2 23.34 9.60 78.32 <
-3 -16 4 -2 24.19 -112.03 91.30 <
-3 16 4 -1 67.72 87.21 67.90 <
-3 16 4 0 62.52 31.40 26.96 <
-3 -16 4 0 55.88 110.43 81.52 <
-3 16 4 1 62.75 159.67 91.77 <
-3 -16 4 1 75.36 92.60 96.39 <
-3 16 4 2 86.22 -24.17 29.33 <
-3 -16 4 2 72.20 -26.19 21.51 <
-2 16 4 -2 112.65 31.64 60.49 <
-2 -16 4 -2 118.84 108.60 121.51 <
-2 16 4 -1 291.39 384.21 97.87 o
-2 -16 4 -1 288.53 571.78 205.35 <
-2 16 4 0 1308.79 1268.27 172.23 o
-2 -16 4 0 1365.57 1488.43 317.56 o
-2 16 4 1 98.62 57.76 58.59 <
-2 -16 4 1 117.25 50.18 99.35 <
-2 16 4 2 227.89 228.21 74.12 o
-2 -16 4 2 225.91 130.81 80.51 <
-1 16 4 -2 38.37 102.73 54.92 <
-1 -16 4 -2 43.30 148.29 117.19 <
-1 16 4 -1 472.98 521.30 107.47 o
-1 -16 4 -1 500.44 804.14 215.89 o
-1 16 4 0 260.03 352.27 85.02 o
-1 -16 4 0 236.56 532.26 182.54 <
-1 16 4 1 7.70 -24.23 32.05 <
-1 -16 4 1 12.02 -10.60 52.79 <
-1 16 4 2 25.35 37.56 46.27 <
-1 -16 4 2 27.94 -38.63 38.51 <
0 16 4 -2 115.73 164.52 56.05 <
0 -16 4 -2 107.92 139.35 97.10 <
0 16 4 -1 679.01 770.37 133.18 o
0 -16 4 -1 668.68 518.99 177.62 <
0 16 4 0 3601.22 3940.84 273.36 o
0 -16 4 0 3731.06 3126.98 385.57 o
0 16 4 1 69.83 140.23 52.67 <
0 -16 4 1 79.02 86.20 79.45 <
0 16 4 2 221.88 262.64 98.53 <
0 -16 4 2 212.39 261.63 112.57 <
1 16 4 -2 52.71 129.99 130.58 <
1 16 4 -1 95.92 208.37 118.37 <
1 16 4 0 165.30 186.21 110.67 <
1 16 4 1 836.56 749.99 209.02 o
1 -16 4 1 888.96 756.63 168.73 o
1 16 4 2 68.09 101.31 63.57 <
1 -16 4 2 66.92 177.74 173.59 <
2 16 4 -2 206.70 -38.15 71.15 <
2 -16 4 -2 211.03 84.07 134.25 <
2 16 4 -1 194.77 71.15 71.21 <
2 -16 4 -1 197.43 199.78 86.85 <
2 16 4 0 1008.52 1026.13 263.70 o
2 -16 4 0 1055.27 897.22 164.82 o
2 16 4 1 10.63 249.42 153.98 <
2 -16 4 1 7.89 227.27 90.35 <
2 16 4 2 32.69 75.60 94.97 <
2 -16 4 2 38.36 36.02 60.19 <
3 16 4 -2 89.73 59.48 49.53 <
3 -16 4 -2 94.91 87.92 99.24 <
3 16 4 -1 54.34 115.65 81.17 <
3 -16 4 -1 60.89 47.28 46.63 <
3 16 4 0 83.70 233.84 158.96 <
3 -16 4 0 75.53 168.55 60.13 <
3 16 4 1 31.72 94.50 112.51 <
3 -16 4 1 21.78 59.96 32.59 <
3 16 4 2 80.98 141.18 94.85 <
3 -16 4 2 69.42 96.33 80.81 <
4 16 4 -2 304.47 22.51 93.49 <
4 -16 4 -2 324.00 56.34 111.38 <
4 16 4 -1 89.43 31.40 115.65 <
4 -16 4 -1 92.88 227.50 186.39 <
4 16 4 0 480.75 683.69 255.17 <
4 -16 4 0 509.86 496.00 231.59 <
4 16 4 1 5.16 176.02 121.93 <
4 -16 4 1 3.90 216.19 171.93 <
4 16 4 2 45.25 -13.92 91.12 <
4 -16 4 2 45.31 94.62 68.84 <
5 16 4 -2 14.19 -29.39 52.91 <
5 -16 4 -2 16.81 172.17 138.57 <
5 -16 4 -1 32.26 108.18 124.24 <
-4 17 4 -2 62.88 121.75 115.47 <
-4 -17 4 -2 63.93 -26.54 62.62 <
-4 17 4 -1 110.88 17.95 79.86 <
-4 -17 4 -1 116.10 254.46 159.07 <
-4 17 4 0 289.76 467.51 220.27 <
-4 -17 4 0 294.30 406.25 197.35 <
-4 17 4 1 196.84 264.53 177.91 <
-4 -17 4 1 191.16 -35.01 73.70 <
-4 17 4 2 38.26 210.91 149.83 <
-4 -17 4 2 37.54 -101.90 120.21 <
-3 17 4 -2 31.00 3.44 73.11 <
-3 -17 4 -2 25.57 43.13 117.60 <
-3 17 4 -1 1334.30 2270.35 468.87 o
-3 -17 4 -1 1275.69 1444.05 345.99 o
-3 17 4 0 819.40 582.09 165.41 o
-3 -17 4 0 806.21 689.09 241.90 <
-3 17 4 1 90.12 119.26 84.07 <
-3 -17 4 1 71.95 70.92 129.57 <
-3 17 4 2 121.86 43.60 72.16 <
-3 -17 4 2 125.72 -39.22 66.36 <
-2 17 4 -2 102.95 51.54 61.85 <
-2 -17 4 -2 106.67 56.11 47.75 <
-2 17 4 -1 48.35 18.31 25.89 <
-2 -17 4 -1 41.59 24.76 62.92 <
-2 17 4 0 951.28 861.08 146.81 o
-2 -17 4 0 973.41 1092.25 280.47 o
-2 17 4 1 680.18 537.95 122.58 o
-2 -17 4 1 651.12 400.80 163.46 <
-2 17 4 2 49.11 -16.06 33.83 <
-2 -17 4 2 47.85 -34.72 74.41 <
-1 17 4 -2 39.01 43.25 30.39 <
-1 -17 4 -2 30.75 163.64 123.76 <
-1 17 4 -1 102.12 264.35 82.47 o
-1 -17 4 -1 134.84 252.39 120.09 <
-1 17 4 0 922.90 916.59 143.67 o
-1 -17 4 0 879.21 939.40 238.94 o
-1 17 4 1 191.59 165.89 57.76 <
-1 -17 4 1 183.44 205.17 128.56 <
-1 17 4 2 45.84 57.94 43.90 <
-1 -17 4 2 51.45 50.00 40.11 <
0 17 4 -2 58.35 115.88 45.56 <
0 -17 4 -2 62.25 19.55 80.10 <
0 17 4 -1 185.64 234.67 79.57 <
0 -17 4 -1 166.98 91.53 87.86 <
0 17 4 0 2671.40 2575.23 232.18 o
0 -17 4 0 2689.99 2193.03 340.01 o
0 17 4 1 1211.10 1070.09 206.83 o
0 -17 4 1 1165.49 805.27 195.63 o
0 17 4 2 33.34 143.08 100.72 <
0 -17 4 2 32.55 -14.10 50.30 <
1 17 4 -2 145.64 259.85 132.65 <
1 -17 4 -2 157.85 38.81 79.86 <
1 17 4 -1 683.64 581.38 200.90 <
1 -17 4 -1 653.65 637.54 196.70 o
1 17 4 0 764.37 739.92 226.67 o
1 -17 4 0 723.58 583.45 181.65 o
1 17 4 1 30.66 74.89 104.57 <
1 -17 4 1 28.07 20.62 69.44 <
1 17 4 2 72.89 1.54 16.65 <
1 -17 4 2 73.06 104.69 116.54 <
2 17 4 -2 72.65 121.51 113.04 <
2 -17 4 -2 87.93 -50.83 83.60 <
2 17 4 -1 194.67 49.29 22.28 <
2 -17 4 -1 176.66 240.89 144.09 <
2 17 4 0 1187.54 893.07 254.22 o
2 -17 4 0 1195.02 770.90 267.32 <
2 17 4 1 697.04 722.80 223.00 o
2 -17 4 1 688.02 520.77 230.05 <
2 17 4 2 113.75 87.57 113.22 <
2 -17 4 2 135.48 -215.36 152.02 <
3 17 4 -2 105.76 101.13 71.51 <
3 -17 4 -2 108.42 143.85 137.69 <
3 17 4 -1 81.35 26.72 59.13 <
3 -17 4 -1 72.15 68.49 41.47 <
3 17 4 0 745.91 766.99 251.91 o
3 -17 4 0 738.17 545.83 222.70 <
3 17 4 1 323.69 97.10 50.42 <
3 -17 4 1 294.82 280.11 95.86 <
3 17 4 2 14.95 37.56 70.98 <
3 -17 4 2 12.72 21.03 56.70 <
4 17 4 -2 144.92 206.41 143.61 <
4 -17 4 -2 156.97 120.09 130.28 <
4 17 4 -1 91.72 131.17 123.53 <
4 -17 4 -1 83.05 21.15 107.35 <
4 17 4 0 404.65 580.72 242.02 <
4 -17 4 0 408.09 228.63 169.92 <
4 17 4 1 288.07 240.42 144.80 <
4 -17 4 1 287.71 204.22 152.26 <
4 -17 4 2 40.68 42.06 112.98 <
5 17 4 -2 38.56 -86.50 98.88 <
5 -17 4 -2 38.73 -7.52 27.37 <
-4 18 4 -1 96.09 45.50 84.78 <
-4 -18 4 -1 86.36 114.17 71.51 <
-4 18 4 0 145.80 89.99 113.22 <
-4 -18 4 0 143.57 310.15 183.48 <
-4 18 4 1 57.12 106.46 130.04 <
-4 -18 4 1 60.40 -27.37 45.97 <
-4 18 4 2 121.90 69.79 83.83 <
-4 -18 4 2 131.06 -63.69 102.73 <
-3 18 4 -2 60.83 95.03 102.08 <
-3 -18 4 -2 52.71 152.20 133.66 <
-3 18 4 -1 5.38 -81.05 77.43 <
-3 -18 4 -1 1.45 -0.47 62.33 <
-3 18 4 0 2070.77 2790.88 515.44 o
-3 -18 4 0 2072.19 2457.51 462.35 o
-3 18 4 1 24.60 -49.00 50.12 <
-3 -18 4 1 22.96 90.23 121.63 <
-3 18 4 2 45.53 36.61 76.66 <
-3 -18 4 2 55.34 -3.08 91.89 <
-2 18 4 -2 13.56 74.23 67.24 <
-2 -18 4 -2 16.18 46.39 96.45 <
-2 18 4 -1 448.02 653.48 135.02 o
-2 -18 4 -1 408.25 728.01 251.62 <
-2 18 4 0 1833.78 1488.60 200.07 o
-2 -18 4 0 1812.78 1520.06 338.71 o
-2 18 4 1 12.10 74.00 51.48 <
-2 -18 4 1 12.89 0.41 60.90 <
-2 18 4 2 313.42 408.32 112.51 o
-2 -18 4 2 331.04 316.61 163.93 <
-1 18 4 -2 34.31 149.18 73.35 <
-1 -18 4 -2 31.87 163.04 148.11 <
-1 18 4 -1 219.07 286.21 93.31 o
-1 -18 4 -1 202.30 238.58 127.08 <
-1 18 4 0 3873.12 4502.31 326.33 o
-1 -18 4 0 3886.60 3827.32 503.23 o
-1 18 4 1 11.40 54.98 44.67 <
-1 -18 4 1 15.79 115.29 61.97 <
-1 18 4 2 35.53 40.70 32.11 <
-1 -18 4 2 47.74 109.84 54.57 <
0 18 4 -2 54.75 94.32 52.25 <
0 -18 4 -2 49.29 44.38 40.88 <
0 18 4 -1 580.35 518.58 113.16 o
0 -18 4 -1 529.68 303.99 145.86 <
0 18 4 0 2013.98 1780.92 200.49 o
0 -18 4 0 1994.13 1270.64 253.16 o
0 18 4 1 218.53 311.81 118.79 <
0 -18 4 1 217.59 240.48 102.44 <
0 18 4 2 151.33 176.61 80.93 <
0 -18 4 2 157.35 187.57 104.04 <
1 18 4 -2 56.46 226.97 119.14 <
1 -18 4 -2 47.10 60.67 95.74 <
1 18 4 -1 19.19 212.69 125.48 <
1 -18 4 -1 24.74 125.66 104.57 <
1 18 4 0 3790.12 3599.82 484.10 o
1 -18 4 0 3779.63 3660.96 372.54 o
1 18 4 1 318.68 284.91 143.43 <
1 -18 4 1 332.30 521.48 239.17 <
1 18 4 2 118.73 220.69 108.48 <
1 -18 4 2 127.47 144.09 147.52 <
2 18 4 -2 106.40 97.93 84.90 <
2 -18 4 -2 107.41 325.38 211.15 <
2 18 4 -1 38.89 23.17 28.08 <
2 -18 4 -1 37.12 88.51 129.27 <
2 18 4 0 2034.30 1729.73 366.67 o
2 -18 4 0 2011.25 1103.98 308.20 o
2 18 4 1 70.81 258.55 151.25 <
2 -18 4 1 69.56 -28.85 49.29 <
2 18 4 2 170.66 216.13 137.39 <
2 -18 4 2 165.07 133.12 103.92 <
3 18 4 -2 181.46 -10.43 54.68 <
3 -18 4 -2 155.73 -66.18 76.07 <
3 18 4 -1 7.58 57.35 84.31 <
3 -18 4 -1 5.43 -33.89 89.34 <
3 18 4 0 1605.70 1942.49 398.07 o
3 -18 4 0 1602.42 558.39 225.13 <
3 18 4 1 74.95 263.05 140.89 <
3 -18 4 1 85.46 42.18 99.35 <
3 18 4 2 87.69 106.58 124.47 <
3 -18 4 2 92.03 -97.40 135.43 <
4 18 4 -2 106.84 217.13 146.75 <
4 -18 4 -2 106.98 32.94 110.55 <
4 18 4 -1 6.73 118.08 105.52 <
4 -18 4 -1 7.42 110.79 153.68 <
4 18 4 0 163.48 -73.11 76.66 <
4 -18 4 0 159.90 158.36 128.09 <
4 -18 4 1 50.79 100.12 99.41 <
-4 19 4 0 1.13 166.01 159.96 <
-4 -19 4 0 1.61 124.42 114.82 <
-4 19 4 1 111.57 112.03 88.22 <
-4 -19 4 1 115.90 72.64 40.82 <
-4 19 4 2 181.75 512.36 259.73 <
-4 -19 4 2 198.49 43.43 84.96 <
-3 19 4 -2 15.64 -26.66 69.50 <
-3 -19 4 -2 11.00 54.68 83.89 <
-3 19 4 -1 71.78 88.75 106.52 <
-3 -19 4 -1 88.90 195.21 138.40 <
-3 19 4 0 61.80 -61.14 66.41 <
-3 -19 4 0 69.13 32.59 110.85 <
-3 19 4 1 64.53 12.56 29.74 <
-3 -19 4 1 55.38 86.91 108.30 <
-3 19 4 2 58.45 -68.84 58.48 <
-3 -19 4 2 58.52 46.74 92.30 <
-2 19 4 -2 52.49 -0.83 44.79 <
-2 -19 4 -2 58.04 155.58 153.86 <
-2 19 4 -1 1067.54 1100.78 179.51 o
-2 -19 4 -1 1095.72 1301.09 336.63 o
-2 19 4 0 135.01 169.74 65.76 <
-2 -19 4 0 128.54 218.91 141.60 <
-2 19 4 1 307.64 230.41 79.86 <
-2 -19 4 1 318.67 154.04 105.93 <
-2 19 4 2 192.06 217.43 80.57 <
-2 -19 4 2 200.73 152.02 81.17 <
-1 19 4 -2 57.42 72.75 63.99 <
-1 -19 4 -2 57.88 -88.63 93.61 <
-1 19 4 -1 957.25 1057.53 165.24 o
-1 -19 4 -1 1003.20 1082.48 270.22 o
-1 19 4 0 118.73 123.11 77.26 <
-1 -19 4 0 163.02 29.98 78.20 <
-1 19 4 1 25.55 16.35 39.34 <
-1 -19 4 1 34.26 67.84 80.99 <
-1 19 4 2 86.37 57.88 41.71 <
-1 -19 4 2 90.56 136.74 93.37 <
0 19 4 -2 28.58 52.43 26.31 <
0 -19 4 -2 31.57 109.96 84.48 <
0 19 4 -1 1582.16 2044.80 224.54 o
0 -19 4 -1 1602.81 1909.19 342.74 o
0 19 4 0 316.12 574.39 157.71 o
0 -19 4 0 334.61 489.49 163.40 <
0 19 4 1 391.22 481.13 148.11 o
0 -19 4 1 424.56 351.74 144.97 <
0 19 4 2 48.17 109.78 87.33 <
1 19 4 -2 150.92 294.45 154.81 <
1 -19 4 -2 134.41 162.51 137.15 <
1 19 4 -1 127.95 226.85 102.26 <
1 -19 4 -1 148.33 156.17 81.40 <
1 19 4 0 127.97 164.41 102.73 <
1 -19 4 0 174.31 127.20 174.42 <
1 19 4 1 538.42 525.09 195.93 <
1 -19 4 1 543.97 943.49 325.20 <
1 19 4 2 250.00 134.01 93.55 <
1 -19 4 2 247.71 245.75 218.08 <
2 19 4 -2 133.68 147.40 92.13 <
2 -19 4 -2 149.49 64.64 136.26 <
2 19 4 -1 827.65 631.38 217.25 <
2 -19 4 -1 836.19 730.26 282.54 <
2 19 4 0 106.51 67.30 126.55 <
2 -19 4 0 98.88 185.85 125.84 <
2 19 4 1 181.05 288.47 122.88 <
2 -19 4 1 209.36 97.52 129.87 <
2 19 4 2 237.69 168.26 112.98 <
2 -19 4 2 237.37 4.15 55.93 <
3 19 4 -2 215.82 216.13 117.90 <
3 -19 4 -2 201.27 186.92 123.17 <
3 19 4 -1 117.81 106.58 85.97 <
3 -19 4 -1 122.35 94.08 92.72 <
3 19 4 0 51.60 99.83 118.43 <
3 -19 4 0 56.44 114.88 104.33 <
3 19 4 1 219.23 394.34 173.53 <
3 -19 4 1 246.35 215.18 129.10 <
3 19 4 2 73.82 74.89 72.40 <
3 -19 4 2 72.06 -124.95 136.56 <
4 19 4 -2 117.09 54.74 86.79 <
4 -19 4 -2 122.00 345.58 231.41 <
4 19 4 -1 225.29 55.75 126.13 <
4 -19 4 -1 230.84 122.05 23.11 o
4 19 4 0 3.01 71.45 85.14 <
4 -19 4 0 5.00 102.38 61.97 <
-4 -20 4 1 8.72 -53.56 39.34 <
-4 20 4 2 11.89 49.47 77.20 <
-4 -20 4 2 9.36 2.73 42.66 <
-3 20 4 -2 59.18 137.69 90.53 <
-3 -20 4 -2 59.30 38.87 36.67 <
-3 20 4 -1 111.79 19.79 106.88 <
-3 -20 4 -1 113.48 183.19 144.50 <
-3 20 4 0 85.34 -10.55 91.36 <
-3 -20 4 0 93.40 194.38 144.44 <
-3 20 4 1 127.13 100.01 77.08 <
-3 -20 4 1 133.64 148.88 154.51 <
-3 20 4 2 63.13 77.08 84.90 <
-3 -20 4 2 54.79 -23.52 43.55 <
-2 20 4 -2 131.67 33.95 46.15 <
-2 -20 4 -2 113.31 100.01 60.02 <
-2 20 4 -1 39.49 68.13 65.47 <
-2 -20 4 -1 38.76 -25.83 29.27 <
-2 20 4 0 168.99 73.41 43.01 <
-2 -20 4 0 179.15 106.46 136.92 <
-2 20 4 1 35.74 6.99 58.42 <
-2 -20 4 1 34.95 142.84 126.01 <
-2 20 4 2 5.51 78.32 65.53 <
-2 -20 4 2 5.07 97.58 109.78 <
-1 20 4 -2 90.60 114.05 67.30 <
-1 -20 4 -2 91.87 -34.36 41.53 <
-1 20 4 -1 646.04 841.94 159.31 o
-1 -20 4 -1 637.82 864.28 270.46 o
-1 20 4 0 354.49 210.97 82.65 <
-1 -20 4 0 409.85 507.79 176.79 <
-1 20 4 1 14.21 -15.76 29.62 <
-1 -20 4 1 11.69 25.30 116.12 <
-1 20 4 2 124.97 16.71 55.99 <
-1 -20 4 2 111.13 135.85 125.78 <
0 20 4 -2 252.55 351.56 130.87 <
0 -20 4 -2 263.40 265.60 142.84 <
0 20 4 -1 62.59 163.04 93.13 <
0 -20 4 -1 52.22 102.79 111.38 <
0 20 4 0 2097.18 1912.98 287.64 o
0 -20 4 0 2088.98 1584.29 318.15 o
0 20 4 1 48.64 152.97 114.34 <
0 -20 4 1 34.29 135.91 84.43 <
0 20 4 2 6.91 -26.54 39.69 <
1 20 4 -2 137.92 148.88 101.01 <
1 -20 4 -2 124.49 150.54 123.29 <
1 20 4 -1 113.65 25.00 46.33 <
1 -20 4 -1 124.29 148.94 85.31 <
1 20 4 0 253.87 299.66 119.32 <
1 -20 4 0 301.99 210.80 118.67 <
1 20 4 1 257.70 117.43 67.95 <
1 -20 4 1 249.06 212.99 163.64 <
1 20 4 2 110.08 68.67 96.99 <
1 -20 4 2 99.64 200.61 134.19 <
2 20 4 -2 206.66 262.40 143.14 <
2 -20 4 -2 221.97 351.45 197.52 <
2 20 4 -1 54.56 18.31 12.26 <
2 -20 4 -1 60.08 197.88 161.80 <
2 20 4 0 220.27 -23.34 26.25 <
2 -20 4 0 230.65 113.28 124.65 <
2 20 4 1 54.31 136.92 100.72 <
2 -20 4 1 43.08 223.36 180.76 <
2 20 4 2 116.49 146.46 117.72 <
2 -20 4 2 108.02 30.63 73.17 <
3 20 4 -2 120.02 220.87 154.69 <
3 -20 4 -2 116.32 348.30 197.29 <
3 20 4 -1 69.21 39.87 26.78 <
3 -20 4 -1 67.20 352.93 202.09 <
3 20 4 0 39.54 144.09 119.62 <
3 -20 4 0 46.77 -71.51 86.14 <
3 20 4 1 30.06 137.33 138.46 <
3 -20 4 1 36.93 0.00 111.50 <
3 20 4 2 31.79 137.04 127.32 <
3 -20 4 2 32.68 -143.26 178.03 <
4 20 4 -2 94.48 115.41 134.31 <
4 -20 4 -2 103.38 -163.28 168.97 <
4 20 4 -1 85.33 46.80 73.88 <
4 -20 4 -1 89.18 74.53 128.09 <
-3 21 4 -2 45.33 -54.45 75.60 <
-3 -21 4 -2 42.30 3.38 42.83 <
-3 21 4 -1 42.29 -54.15 100.54 <
-3 -21 4 -1 39.45 52.37 83.42 <
-3 21 4 0 144.46 -5.45 68.01 <
-3 -21 4 0 132.53 85.02 78.92 <
-3 21 4 1 33.69 79.74 102.67 <
-3 -21 4 1 34.35 65.47 113.57 <
-3 21 4 2 57.58 -15.70 36.97 <
-3 -21 4 2 48.88 71.81 56.64 <
-2 21 4 -2 89.09 100.48 83.36 <
-2 -21 4 -2 94.28 105.40 193.50 <
-2 21 4 -1 8.97 160.44 79.69 <
-2 -21 4 -1 8.26 51.48 79.69 <
-2 21 4 0 23.04 19.97 42.12 <
-2 -21 4 0 17.85 -6.69 86.02 <
-2 21 4 1 11.09 -51.48 58.95 <
-2 -21 4 1 14.05 104.27 121.81 <
-2 21 4 2 12.48 49.94 54.98 <
-2 -21 4 2 11.31 41.71 25.00 <
-1 21 4 -2 124.22 65.47 62.39 <
-1 -21 4 -2 116.00 46.57 113.28 <
-1 21 4 -1 100.37 195.57 85.61 <
-1 -21 4 -1 83.06 123.05 114.05 <
-1 21 4 0 174.61 157.77 69.32 <
-1 -21 4 0 132.18 80.04 83.42 <
-1 21 4 1 24.25 95.15 65.64 <
-1 -21 4 1 23.09 -23.22 24.76 <
-1 21 4 2 87.52 8.35 60.31 <
0 21 4 -2 8.15 -17.66 58.59 <
0 -21 4 -2 8.14 71.92 70.86 <
0 21 4 -1 38.04 51.84 51.13 <
0 -21 4 -1 38.49 107.12 83.54 <
0 21 4 0 188.36 226.08 111.08 <
0 -21 4 0 202.01 83.60 101.72 <
0 21 4 1 25.37 25.30 78.09 <
0 21 4 2 2.98 -5.51 41.89 <
1 21 4 -2 29.30 117.72 70.74 <
1 -21 4 -2 22.87 137.80 139.52 <
1 21 4 -1 111.29 159.43 83.12 <
1 -21 4 -1 91.32 18.37 75.89 <
1 21 4 0 204.39 227.27 126.61 <
1 -21 4 0 158.97 391.55 246.82 <
1 21 4 1 166.77 504.24 167.96 o
1 -21 4 1 176.24 460.28 228.04 <
1 21 4 2 13.38 105.58 96.81 <
1 -21 4 2 15.07 101.55 154.63 <
2 21 4 -2 7.34 75.72 98.29 <
2 -21 4 -2 8.43 35.78 92.36 <
2 21 4 -1 32.36 46.51 78.26 <
2 -21 4 -1 38.66 83.48 102.02 <
2 21 4 0 14.51 116.36 85.85 <
2 -21 4 0 12.43 43.78 129.27 <
2 21 4 1 69.85 221.46 131.52 <
2 -21 4 1 70.77 13.33 99.24 <
2 21 4 2 34.60 -86.20 111.20 <
2 -21 4 2 36.83 -112.39 53.44 <
3 21 4 -2 17.17 67.07 99.35 <
3 -21 4 -2 14.44 10.96 83.83 <
3 21 4 -1 131.16 219.03 151.61 <
3 -21 4 -1 115.77 119.26 115.29 <
3 21 4 0 78.94 84.78 61.08 <
3 -21 4 0 67.41 -90.53 99.12 <
3 21 4 1 34.77 29.27 64.22 <
3 -21 4 1 30.22 63.33 113.46 <
-3 22 4 -2 40.16 42.78 84.90 <
-3 22 4 -1 43.02 63.87 60.96 <
-3 -22 4 -1 43.04 154.45 138.52 <
-3 22 4 0 242.40 108.54 115.11 <
-3 -22 4 0 247.32 286.21 168.91 <
-3 22 4 1 59.14 29.39 39.16 <
-3 -22 4 1 55.34 -58.83 95.92 <
-3 22 4 2 140.24 46.69 97.52 <
-3 -22 4 2 140.10 111.68 110.43 <
-2 22 4 -2 92.32 72.81 62.98 <
-2 -22 4 -2 90.80 27.37 31.40 <
-2 22 4 -1 66.69 51.78 44.38 <
-2 -22 4 -1 77.21 179.10 160.79 <
-2 22 4 0 253.32 387.17 109.43 o
-2 -22 4 0 247.46 308.08 181.59 <
-2 22 4 1 68.36 52.91 35.96 <
-2 -22 4 1 65.32 -86.85 36.50 <
-2 22 4 2 38.22 71.33 59.78 <
-2 -22 4 2 46.95 155.52 108.42 <
-1 22 4 -2 80.92 -37.98 102.20 <
-1 -22 4 -2 75.79 33.71 70.74 <
-1 22 4 -1 93.09 130.87 101.31 <
-1 -22 4 -1 92.93 31.76 66.65 <
-1 22 4 0 674.61 880.74 207.89 o
-1 -22 4 0 708.02 615.27 235.21 <
-1 22 4 1 230.89 103.62 69.14 <
-1 -22 4 1 219.95 105.40 101.55 <
-1 22 4 2 220.04 153.15 82.53 <
0 22 4 -2 29.20 84.84 85.91 <
0 -22 4 -2 34.91 207.77 124.83 <
0 22 4 -1 134.21 146.40 90.53 <
0 -22 4 -1 150.06 76.90 85.91 <
0 22 4 0 1374.04 1975.43 306.48 o
0 -22 4 0 1395.34 1498.50 319.93 o
0 22 4 1 32.05 27.02 95.98 <
0 22 4 2 38.41 33.77 62.56 <
1 22 4 -2 105.81 403.58 161.56 <
1 -22 4 -2 91.87 309.20 140.41 <
1 22 4 -1 61.99 48.88 93.67 <
1 -22 4 -1 62.61 85.25 103.56 <
1 22 4 0 731.19 736.96 197.11 o
1 -22 4 0 762.88 752.18 304.35 <
1 22 4 1 35.54 130.87 112.45 <
1 -22 4 1 34.68 274.54 221.93 <
1 22 4 2 112.00 22.45 59.78 <
2 22 4 -2 50.95 43.25 84.66 <
2 -22 4 -2 47.51 -66.00 25.53 <
2 22 4 -1 16.84 -23.05 75.30 <
2 -22 4 -1 15.15 -22.45 63.69 <
2 22 4 0 198.39 439.31 167.96 <
2 -22 4 0 192.16 151.73 138.28 <
2 22 4 1 42.52 43.19 102.14 <
2 -22 4 1 45.48 32.41 9.54 o
2 22 4 2 57.40 74.12 127.20 <
2 -22 4 2 63.91 -94.32 113.93 <
3 22 4 -2 54.61 79.45 132.35 <
3 -22 4 -2 46.98 0.00 64.99 <
3 22 4 -1 39.92 75.66 109.01 <
3 -22 4 -1 36.70 -59.90 70.74 <
3 22 4 0 255.49 117.37 130.28 <
3 -22 4 0 263.47 0.77 61.44 <
-3 23 4 -1 97.38 -102.20 99.53 <
-3 23 4 0 67.09 140.06 87.33 <
-3 23 4 1 133.46 106.35 78.50 <
-3 -23 4 1 137.39 55.81 106.11 <
-3 23 4 2 31.55 111.26 89.40 <
-3 -23 4 2 31.87 80.04 119.91 <
-2 23 4 -2 26.28 23.58 35.84 <
-2 -23 4 -2 28.99 1.01 58.18 <
-2 23 4 -1 161.17 41.71 76.90 <
-2 -23 4 -1 188.05 124.65 108.12 <
-2 23 4 0 399.27 644.89 148.82 o
-2 -23 4 0 410.44 387.29 160.14 <
-2 23 4 1 19.59 101.13 70.44 <
-2 -23 4 1 13.76 97.58 123.47 <
-2 23 4 2 24.54 40.23 62.15 <
-2 -23 4 2 25.52 68.78 66.83 <
-1 23 4 -2 53.32 -29.21 70.56 <
-1 -23 4 -2 50.67 74.83 120.33 <
-1 23 4 -1 73.13 124.06 90.59 <
-1 -23 4 -1 78.32 114.94 74.29 <
-1 23 4 0 10.56 34.72 58.00 <
-1 -23 4 0 13.72 78.32 79.86 <
-1 23 4 1 391.77 317.20 127.50 <
-1 -23 4 1 400.60 309.74 170.92 <
-1 23 4 2 17.17 -7.11 46.03 <
0 23 4 -2 114.67 204.93 103.86 <
0 -23 4 -2 110.97 263.58 127.32 <
0 23 4 -1 247.29 191.07 110.14 <
0 -23 4 -1 278.07 258.25 148.05 <
0 23 4 0 96.29 238.17 114.05 <
0 23 4 1 7.58 -56.34 74.06 <
0 23 4 2 18.35 59.60 72.40 <
1 23 4 -2 12.07 -55.87 79.98 <
1 -23 4 -2 14.12 78.74 93.90 <
1 23 4 -1 217.18 177.62 105.40 <
1 -23 4 -1 227.03 306.12 207.48 <
1 23 4 0 26.12 181.35 118.67 <
1 -23 4 0 29.62 110.73 101.25 <
1 23 4 1 73.67 63.99 95.50 <
1 -23 4 1 78.68 204.40 224.90 <
1 23 4 2 24.49 104.15 131.70 <
1 -23 4 2 27.74 40.82 140.12 <
2 23 4 -2 33.69 207.48 122.22 <
2 -23 4 -2 29.21 139.94 167.01 <
2 23 4 -1 138.11 156.76 135.55 <
2 -23 4 -1 154.23 244.98 176.02 <
2 23 4 0 346.79 646.67 220.33 <
2 -23 4 0 352.94 243.74 149.18 <
2 23 4 1 9.78 5.45 84.78 <
2 -23 4 1 15.86 -15.88 56.16 <
2 -23 4 2 16.11 76.90 154.57 <
3 23 4 -2 34.11 122.16 116.95 <
3 -23 4 -2 36.39 -48.94 59.60 <
3 23 4 -1 78.59 39.28 138.10 <
-2 24 4 -2 55.36 62.74 28.91 <
-2 -24 4 -2 58.90 123.29 132.06 <
-2 24 4 -1 28.46 -24.59 66.47 <
-2 -24 4 -1 28.36 12.97 75.89 <
-2 24 4 0 219.78 253.57 152.20 <
-2 -24 4 0 219.39 268.62 157.77 <
-2 24 4 1 0.90 21.15 52.20 <
-2 -24 4 1 1.07 3.50 73.88 <
-2 24 4 2 42.60 102.73 113.93 <
-2 -24 4 2 43.13 58.36 101.78 <
-1 24 4 -2 127.27 250.25 115.35 <
-1 -24 4 -2 132.98 234.85 170.51 <
-1 24 4 -1 249.98 220.16 137.75 <
-1 -24 4 -1 242.76 312.76 166.54 <
-1 24 4 0 104.95 159.67 79.15 <
-1 -24 4 0 107.94 71.81 87.92 <
-1 24 4 1 115.80 44.55 54.33 <
-1 24 4 2 33.62 -2.67 55.81 <
0 24 4 -2 15.60 -11.32 119.74 <
0 -24 4 -2 15.21 2.37 45.26 <
0 24 4 -1 38.07 96.81 61.32 <
0 -24 4 -1 43.12 99.12 99.89 <
0 24 4 0 56.75 114.94 100.24 <
0 24 4 1 42.92 48.82 58.18 <
0 24 4 2 16.55 152.79 97.28 <
0 -24 4 2 16.28 273.36 195.21 <
1 24 4 -2 98.15 338.05 154.04 <
1 -24 4 -2 107.56 66.24 141.95 <
1 24 4 -1 6.79 -7.17 51.66 <
1 -24 4 -1 7.63 -51.13 34.90 <
1 24 4 0 135.85 147.17 113.57 <
1 -24 4 0 141.31 324.49 202.74 <
1 24 4 1 52.19 187.04 127.32 <
1 -24 4 1 37.95 78.50 140.53 <
1 24 4 2 14.71 93.19 112.27 <
1 -24 4 2 13.73 235.62 176.97 <
2 24 4 -2 15.13 74.00 93.43 <
2 -24 4 -2 12.40 -99.77 74.23 <
2 24 4 -1 8.60 74.06 92.78 <
2 -24 4 -1 7.53 170.57 142.13 <
2 24 4 0 224.63 228.21 126.85 <
2 -24 4 0 223.04 226.08 150.43 <
-2 -25 4 0 178.59 86.68 101.67 <
-2 -25 4 1 42.51 -27.96 59.90 <
-1 25 4 -2 52.76 307.96 177.68 <
-1 -25 4 -2 54.20 195.33 170.75 <
-1 25 4 -1 919.15 1297.06 277.57 o
-1 -25 4 -1 909.17 1343.33 370.05 o
-1 25 4 0 129.79 57.41 86.91 <
-1 -25 4 0 134.14 253.57 171.63 <
-1 25 4 1 37.52 135.97 98.70 <
-1 25 4 2 36.52 -23.17 46.03 <
0 25 4 -2 49.24 51.13 31.46 <
0 -25 4 -2 48.42 73.70 93.37 <
0 25 4 -1 27.40 -52.02 58.89 <
0 25 4 0 42.45 197.41 122.11 <
0 25 4 1 58.83 13.09 69.38 <
0 -25 4 1 68.46 156.35 142.31 <
0 25 4 2 15.71 82.11 57.59 <
0 -25 4 2 12.55 139.35 136.80 <
1 25 4 -2 23.77 78.09 89.34 <
1 -25 4 -2 24.26 9.42 81.76 <
1 25 4 -1 226.28 149.00 67.60 <
1 -25 4 -1 232.38 375.62 220.63 <
1 25 4 0 163.78 298.30 139.94 <
1 -25 4 0 167.91 360.10 249.01 <
1 25 4 1 223.43 392.50 226.91 <
2 25 4 -2 20.40 39.46 81.82 <
2 -25 4 -2 17.06 235.62 190.48 <
-1 26 4 -2 14.50 206.77 190.12 <
-1 -26 4 -2 18.10 165.71 161.68 <
-1 26 4 -1 61.97 269.51 189.76 <
-1 -26 4 -1 67.62 247.71 175.60 <
-1 26 4 0 53.39 -68.61 142.43 <
-1 26 4 1 32.78 -44.26 71.69 <
-1 26 4 2 15.41 -98.23 135.38 <
0 26 4 -2 51.53 126.01 115.82 <
0 26 4 -1 31.76 -19.20 82.71 <
0 26 4 0 47.83 -34.90 61.38 <
1 26 4 -2 31.29 -38.51 100.24 <
-6 0 5 2 114.44 -195.69 107.77 <
-5 0 5 -2 24.42 44.91 28.97 <
-5 0 5 -1 67.62 170.80 89.52 <
-5 0 5 0 16.46 50.83 45.68 <
-5 0 5 1 89.35 271.29 102.73 <
-5 0 5 2 13.63 53.14 51.78 <
-4 0 5 -2 356.80 100.42 75.12 <
-4 0 5 -1 562.96 667.34 150.54 o
-4 0 5 0 283.38 268.50 104.92 <
-4 0 5 1 2540.39 1837.56 246.58 o
-4 0 5 2 195.42 102.97 61.14 <
-3 0 5 -2 5.99 100.95 52.79 <
-3 0 5 -1 1830.02 1584.88 200.07 o
-3 0 5 0 46.60 -17.18 42.89 <
-3 0 5 1 741.33 1119.80 182.60 o
-3 0 5 2 34.02 -9.48 33.06 <
-2 0 5 -2 258.53 133.66 69.32 <
-2 0 5 -1 141.78 171.52 60.25 <
-2 0 5 0 215.53 162.87 63.99 <
-2 0 5 1 4761.98 5539.34 342.50 o
-2 0 5 2 79.06 -2.49 25.30 <
-1 0 5 -2 291.89 142.25 67.18 <
-1 0 5 -1 1901.59 1945.45 176.91 o
-1 0 5 0 9.24 75.12 43.01 <
-1 0 5 1 1985.95 2590.87 202.80 o
-1 0 5 2 137.88 74.59 78.14 <
0 0 5 -2 53.43 6.81 36.26 <
0 0 5 0 14.51 96.99 72.99 <
0 0 5 1 1375.20 1804.03 279.40 o
0 0 5 2 85.69 67.90 61.56 <
1 0 5 -2 112.98 92.78 66.00 <
1 0 5 -1 823.16 501.34 76.37 o
1 0 5 0 17.64 27.67 28.91 <
1 0 5 1 1018.42 1068.08 129.75 o
1 0 5 2 241.78 88.51 55.28 <
2 0 5 -2 199.21 33.00 17.77 <
2 0 5 -1 1215.13 920.32 125.66 o
2 0 5 0 63.68 235.38 81.58 <
2 0 5 1 34.77 81.34 50.24 <
2 0 5 2 2282.93 1525.57 190.95 o
3 0 5 -2 71.60 39.52 36.97 <
3 0 5 -1 160.48 49.23 42.95 <
3 0 5 0 129.54 92.72 51.25 <
3 0 5 1 1974.95 2767.60 254.34 o
3 0 5 2 35.68 155.93 133.24 <
4 0 5 -2 237.70 -46.09 54.33 <
4 0 5 -1 455.14 324.43 114.70 <
4 0 5 0 21.68 299.84 203.39 <
4 0 5 1 150.76 236.03 168.20 <
4 0 5 2 19.54 180.76 155.10 <
5 0 5 -2 14.83 32.76 48.76 <
5 0 5 -1 46.25 0.24 62.21 <
5 0 5 0 53.46 67.42 29.74 <
5 0 5 1 614.74 693.29 269.09 <
5 0 5 2 2.30 219.92 151.31 <
6 0 5 -2 108.09 92.90 139.64 <
6 0 5 -1 35.40 56.88 107.71 <
-6 1 5 2 42.61 68.67 31.52 <
-6 -1 5 2 41.47 116.65 98.53 <
-5 1 5 -2 49.24 90.59 85.43 <
-5 -1 5 -2 60.33 129.33 136.03 <
-5 1 5 -1 315.71 345.99 115.53 <
-5 -1 5 -1 333.94 345.93 165.71 <
-5 1 5 0 519.13 525.27 152.68 o
-5 -1 5 0 534.62 571.66 145.57 o
-5 1 5 1 58.05 78.56 66.65 <
-5 -1 5 1 56.98 48.88 53.44 <
-5 1 5 2 198.99 101.84 75.42 <
-5 -1 5 2 203.37 134.96 84.54 <
-4 1 5 -2 374.70 1057.30 190.53 o
-4 -1 5 -2 391.46 811.49 157.18 o
-4 1 5 -1 742.54 684.52 143.55 o
-4 -1 5 -1 726.21 508.27 128.80 o
-4 1 5 0 1661.34 1184.91 190.48 o
-4 -1 5 0 1648.08 1143.68 190.36 o
-4 1 5 1 423.75 145.86 70.86 <
-4 -1 5 1 430.94 85.61 54.86 <
-4 1 5 2 110.27 -9.83 60.37 <
-4 -1 5 2 97.35 110.91 50.65 <
-3 1 5 -2 234.03 103.80 70.03 <
-3 -1 5 -2 256.34 77.85 54.74 <
-3 1 5 -1 1548.07 2341.03 249.66 o
-3 -1 5 -1 1614.88 2040.66 231.24 o
-3 1 5 0 3221.91 3407.10 292.20 o
-3 -1 5 0 3334.32 3518.60 299.07 o
-3 1 5 1 202.54 223.41 94.32 <
-3 -1 5 1 205.40 220.39 88.51 <
-3 1 5 2 418.32 335.92 111.97 <
-3 -1 5 2 414.23 363.59 106.17 o
-2 1 5 -2 353.07 78.86 30.81 <
-2 -1 5 -2 337.61 111.03 59.60 <
-2 1 5 -1 1228.44 1251.44 164.70 o
-2 -1 5 -1 1203.39 1278.28 164.94 o
-2 1 5 0 9997.15 12225.00 488.01 o
-2 -1 5 0 10042.70 12810.30 501.93 o
-2 1 5 1 578.18 396.06 89.28 o
-2 -1 5 1 621.33 354.29 93.25 o
-2 1 5 2 49.02 42.06 36.91 <
-2 -1 5 2 41.14 23.82 45.15 <
-1 1 5 -2 338.51 343.92 81.76 o
-1 -1 5 -2 339.97 316.55 83.36 o
-1 1 5 -1 236.50 175.37 53.79 o
-1 -1 5 -1 254.50 137.92 47.46 <
-1 1 5 0 12689.30 15758.70 703.54 o
-1 -1 5 0 12961.40 15304.00 477.34 o
-1 1 5 1 368.65 518.81 146.10 o
-1 -1 5 1 363.94 454.95 90.11 o
-1 1 5 2 301.83 146.57 95.03 <
-1 -1 5 2 286.40 90.71 50.89 <
0 1 5 -2 32.88 82.41 46.03 <
0 -1 5 -2 31.49 2.07 11.32 <
0 1 5 -1 134.55 119.79 84.25 <
0 -1 5 0 15.13 40.88 53.56 <
0 1 5 1 368.19 543.82 166.72 o
0 -1 5 1 392.78 706.03 180.64 o
0 1 5 2 212.24 213.11 121.69 <
0 -1 5 2 206.31 76.31 79.21 <
1 1 5 -2 141.43 66.53 32.17 <
1 -1 5 -2 147.30 68.55 41.95 <
1 1 5 -1 77.24 54.92 33.30 <
1 -1 5 -1 73.91 88.16 64.22 <
1 1 5 0 12427.10 14671.50 503.29 o
1 -1 5 0 12558.10 12966.10 414.60 o
1 1 5 1 571.62 566.09 86.08 o
1 -1 5 1 529.97 631.38 104.45 o
1 1 5 2 85.40 20.74 31.76 <
1 -1 5 2 89.36 102.97 42.12 <
2 1 5 -2 308.48 192.79 52.97 o
2 -1 5 -2 291.38 156.65 61.02 <
2 1 5 -1 261.27 167.90 48.46 o
2 -1 5 -1 237.79 192.67 66.24 <
2 1 5 0 9847.44 11104.90 424.08 o
2 -1 5 0 9885.57 11782.80 726.88 o
2 1 5 1 30.99 76.07 42.89 <
2 -1 5 1 20.48 24.65 45.86 <
2 1 5 2 3451.24 3457.04 267.02 o
2 -1 5 2 3421.68 3443.95 279.93 o
3 1 5 -2 216.54 87.45 46.63 <
3 -1 5 -2 225.79 24.53 37.80 <
3 1 5 -1 693.14 288.76 83.36 o
3 -1 5 -1 741.04 237.87 73.70 o
3 1 5 0 3499.05 3519.48 283.02 o
3 -1 5 0 3550.58 3477.18 289.83 o
3 1 5 1 1029.89 1456.02 183.72 o
3 -1 5 1 1002.18 1570.25 198.41 o
3 1 5 2 77.79 -26.54 15.52 <
3 -1 5 2 76.22 33.71 84.90 <
4 1 5 -2 202.18 190.53 84.66 <
4 -1 5 -2 199.50 169.32 85.43 <
4 1 5 -1 204.96 131.17 74.59 <
4 -1 5 -1 191.51 100.01 62.09 <
4 1 5 0 1548.34 1060.26 273.48 o
4 -1 5 0 1506.36 934.90 172.23 o
4 1 5 1 99.53 414.54 175.37 <
4 -1 5 1 67.86 194.50 131.94 <
4 1 5 2 16.39 -40.76 75.89 <
4 -1 5 2 13.37 -22.87 39.75 <
5 1 5 -2 67.14 64.99 128.09 <
5 -1 5 -2 66.01 100.07 72.64 <
5 1 5 -1 310.39 170.98 136.38 <
5 -1 5 -1 337.85 26.84 62.27 <
5 1 5 0 571.38 524.92 236.86 <
5 -1 5 0 591.12 425.09 197.47 <
5 1 5 1 256.30 546.30 246.94 <
5 -1 5 1 255.62 497.07 225.96 <
5 1 5 2 24.62 -110.38 118.61 <
5 -1 5 2 23.28 41.83 83.89 <
6 1 5 -2 98.65 95.39 135.97 <
6 -1 5 -2 94.50 -39.16 96.39 <
6 1 5 -1 73.56 66.12 57.41 <
6 -1 5 -1 65.92 288.41 171.52 <
-6 2 5 2 133.53 22.34 62.80 <
-6 -2 5 2 152.80 135.08 106.23 <
-5 2 5 -2 59.86 4.74 31.34 <
-5 -2 5 -2 58.03 -58.77 74.00 <
-5 2 5 -1 7.49 45.74 70.74 <
-5 -2 5 -1 7.99 207.12 135.49 <
-5 2 5 0 231.97 325.14 124.06 <
-5 -2 5 0 237.58 414.72 199.90 <
-5 2 5 1 37.93 4.15 116.71 <
-5 -2 5 1 28.40 60.25 47.87 <
-5 2 5 2 17.77 -16.17 50.48 <
-5 -2 5 2 10.13 52.37 61.44 <
-4 2 5 -2 53.51 169.86 86.44 <
-4 -2 5 -2 57.62 210.91 81.29 <
-4 2 5 -1 54.60 121.75 56.82 <
-4 -2 5 -1 82.52 158.72 71.51 <
-4 2 5 0 114.64 361.81 111.74 o
-4 -2 5 0 111.49 318.27 107.65 <
-4 2 5 1 121.19 109.96 72.58 <
-4 -2 5 1 157.94 66.00 79.69 <
-4 2 5 2 296.69 318.50 111.97 <
-4 -2 5 2 320.20 164.70 93.85 <
-3 2 5 -2 135.06 135.73 70.44 <
-3 -2 5 -2 126.88 114.70 64.81 <
-3 2 5 -1 289.11 466.38 113.22 o
-3 -2 5 -1 332.97 460.93 112.80 o
-3 2 5 0 596.48 526.04 127.14 o
-3 -2 5 0 575.14 619.59 130.81 o
-3 2 5 1 248.74 163.28 67.84 <
-3 -2 5 1 250.15 147.99 74.83 <
-3 2 5 2 126.00 159.49 80.22 <
-3 -2 5 2 111.79 66.89 41.59 <
-2 2 5 -2 2346.70 1944.97 152.20 o
-2 -2 5 -2 2329.11 2205.95 220.10 o
-2 2 5 -1 96.55 113.46 41.06 <
-2 -2 5 -1 130.82 134.25 61.44 <
-2 2 5 0 1258.99 2088.29 202.62 o
-2 -2 5 0 1264.76 2284.39 212.93 o
-2 2 5 1 76.31 32.05 45.80 <
-2 -2 5 1 119.82 77.73 49.59 <
-2 2 5 2 371.30 314.77 144.56 <
-2 -2 5 2 400.17 314.30 93.13 o
-1 2 5 -2 57.54 4.50 8.00 <
-1 -2 5 -2 50.97 39.87 43.49 <
-1 2 5 -1 554.96 844.01 113.22 o
-1 -2 5 -1 537.70 1095.04 144.32 o
-1 2 5 0 2343.29 2588.91 277.57 o
-1 -2 5 0 2324.08 2522.14 194.56 o
-1 2 5 1 135.72 91.42 48.46 <
-1 -2 5 1 160.43 159.19 59.54 <
-1 2 5 2 148.97 51.96 29.33 <
-1 -2 5 2 148.18 49.59 51.90 <
0 2 5 -2 16.86 18.19 8.59 <
0 -2 5 -2 14.51 25.65 38.15 <
0 2 5 -1 212.24 133.78 43.49 o
0 -2 5 -1 223.49 142.66 48.40 <
0 2 5 0 614.81 644.41 83.00 o
0 -2 5 0 643.53 563.84 139.58 o
0 2 5 1 276.35 213.64 60.96 o
0 -2 5 1 207.41 280.77 130.16 <
0 2 5 2 140.43 41.29 43.49 <
0 -2 5 2 134.74 158.13 96.93 <
1 2 5 -2 95.68 39.46 32.35 <
1 -2 5 -2 87.00 27.02 17.42 <
1 2 5 -1 1449.97 1442.69 168.32 o
1 -2 5 -1 1418.15 1218.15 197.82 o
1 2 5 0 2162.35 2614.45 229.46 o
1 -2 5 0 2186.83 2505.97 291.49 o
1 2 5 1 2678.16 2931.53 249.48 o
1 -2 5 1 2636.37 2635.24 206.18 o
1 2 5 2 207.41 267.20 89.40 <
1 -2 5 2 200.91 278.34 75.36 o
2 2 5 -2 261.28 180.76 55.69 o
2 -2 5 -2 263.26 157.65 61.91 <
2 2 5 -1 1498.93 1533.57 136.86 o
2 -2 5 -1 1590.62 1440.85 161.09 o
2 2 5 0 2558.68 3561.43 211.27 o
2 -2 5 0 2621.38 3172.78 233.60 o
2 2 5 1 535.20 671.90 106.23 o
2 -2 5 1 515.75 552.41 114.11 o
2 2 5 2 670.60 556.26 141.71 o
2 -2 5 2 643.64 371.29 108.24 o
3 2 5 -2 115.47 69.79 41.83 <
3 -2 5 -2 125.78 59.36 48.70 <
3 2 5 -1 916.53 347.00 79.74 o
3 -2 5 -1 906.55 245.28 77.49 o
3 2 5 0 917.05 1350.15 151.25 o
3 -2 5 0 947.76 1073.17 154.22 o
3 2 5 1 93.93 178.86 118.55 <
3 -2 5 1 92.37 211.21 77.32 <
3 2 5 2 69.35 94.56 137.09 <
3 -2 5 2 59.65 220.51 94.73 <
4 2 5 -2 305.43 434.39 125.01 o
4 -2 5 -2 306.00 317.85 105.75 o
4 2 5 -1 798.17 588.60 133.24 o
4 -2 5 -1 859.08 608.04 143.73 o
4 2 5 0 1029.45 1627.71 336.34 o
4 -2 5 0 1032.91 1370.23 207.95 o
4 2 5 1 399.84 427.46 196.46 <
4 -2 5 1 398.02 515.26 196.99 <
4 2 5 2 44.91 289.77 217.49 <
4 -2 5 2 56.43 176.61 127.20 <
5 2 5 -2 98.65 105.69 128.68 <
5 -2 5 -2 112.19 32.41 28.08 <
5 2 5 -1 312.48 188.52 114.11 <
5 -2 5 -1 323.79 342.20 179.99 <
5 2 5 0 227.55 492.69 202.44 <
5 -2 5 0 242.18 278.22 178.03 <
5 2 5 1 82.18 135.61 126.37 <
5 -2 5 1 72.71 280.47 200.25 <
5 2 5 2 29.05 -65.64 35.13 <
5 -2 5 2 25.29 331.18 171.04 <
6 2 5 -2 76.15 22.87 79.57 <
6 -2 5 -2 81.90 -32.29 93.85 <
6 2 5 -1 173.92 111.68 139.70 <
6 -2 5 -1 186.96 314.65 192.19 <
-6 3 5 1 24.29 13.27 67.72 <
-6 3 5 2 197.02 301.86 189.17 <
-6 -3 5 2 195.90 118.14 89.34 <
-5 3 5 -2 35.74 133.07 83.18 <
-5 -3 5 -2 31.06 90.41 42.72 <
-5 3 5 -1 242.89 321.82 119.32 <
-5 -3 5 -1 231.93 313.41 171.04 <
-5 3 5 0 1244.82 1165.18 218.26 o
-5 -3 5 0 1274.43 1247.53 308.67 o
-5 3 5 1 30.97 92.78 70.92 <
-5 -3 5 1 21.82 166.07 78.74 <
-5 3 5 2 45.39 -42.30 46.45 <
-5 -3 5 2 44.12 84.96 46.21 <
-4 3 5 -2 50.95 161.68 75.78 <
-4 -3 5 -2 43.48 188.52 73.46 <
-4 3 5 -1 1422.47 1320.23 206.83 o
-4 -3 5 -1 1336.13 1148.24 185.38 o
-4 3 5 0 77.83 360.39 113.46 o
-4 -3 5 0 88.45 165.95 71.51 <
-4 3 5 1 100.24 118.79 57.23 <
-4 -3 5 1 106.29 -16.11 36.91 <
-4 3 5 2 350.39 91.83 59.72 <
-4 -3 5 2 339.03 270.34 97.76 <
-3 3 5 -2 151.97 195.33 74.06 <
-3 -3 5 -2 140.75 232.60 79.69 <
-3 3 5 -1 284.06 122.22 67.48 <
-3 -3 5 -1 222.71 120.92 54.33 <
-3 3 5 0 4714.50 5070.24 361.28 o
-3 -3 5 0 4783.03 4903.46 346.41 o
-3 3 5 1 308.04 160.67 72.87 <
-3 -3 5 1 262.39 105.93 59.78 <
-3 3 5 2 84.27 85.31 57.53 <
-3 -3 5 2 78.40 13.33 24.94 <
-2 3 5 -2 750.64 614.55 92.42 o
-2 -3 5 -2 787.56 725.28 130.81 o
-2 3 5 -1 3802.46 3329.01 190.77 o
-2 -3 5 -1 3615.69 3600.47 263.46 o
-2 3 5 0 109.56 175.43 59.07 <
-2 -3 5 0 140.00 70.03 30.04 <
-2 3 5 1 343.06 108.66 47.63 <
-2 -3 5 1 343.52 124.53 55.16 <
-2 3 5 2 332.76 145.68 54.68 <
-2 -3 5 2 336.73 247.47 79.74 o
-1 3 5 -2 143.97 98.70 38.27 <
-1 -3 5 -2 129.15 175.96 61.38 <
-1 3 5 -1 5271.33 5341.58 250.61 o
-1 -3 5 -1 5439.26 6110.77 299.07 o
-1 3 5 0 11143.40 13766.40 635.05 o
-1 -3 5 0 11125.10 12440.90 423.19 o
-1 3 5 1 603.07 527.17 80.22 o
-1 -3 5 1 549.34 679.49 136.56 o
-1 3 5 2 125.07 23.22 21.68 <
-1 -3 5 2 115.02 5.10 36.38 <
0 3 5 -2 46.25 30.04 19.85 <
0 -3 5 -2 48.36 3.20 24.82 <
0 3 5 -1 1125.35 1149.90 109.43 o
0 -3 5 -1 1064.39 1045.51 117.72 o
0 3 5 0 546.46 753.96 93.43 o
0 -3 5 0 618.55 630.02 88.87 o
0 3 5 1 2207.16 1961.21 144.03 o
0 -3 5 1 2214.44 2375.22 313.59 o
0 3 5 2 173.83 64.81 30.63 <
0 -3 5 2 181.07 73.70 63.57 <
1 3 5 -2 96.48 118.14 43.31 <
1 -3 5 -2 89.99 158.42 72.75 <
1 3 5 -1 226.33 328.10 88.28 o
1 -3 5 -1 235.76 198.59 79.74 <
1 3 5 0 9703.43 12958.30 512.12 o
1 -3 5 0 9710.61 11925.80 630.20 o
1 3 5 1 783.97 1030.10 169.56 o
1 -3 5 1 793.54 1015.23 151.73 o
1 3 5 2 106.14 52.85 45.68 <
1 -3 5 2 110.58 122.76 47.69 <
2 3 5 -2 379.65 104.33 46.98 <
2 -3 5 -2 423.29 71.86 44.20 <
2 3 5 -1 119.49 36.44 38.87 <
2 -3 5 -1 104.73 4.38 27.19 <
2 3 5 0 96.64 40.23 25.53 <
2 -3 5 0 120.12 35.73 29.62 <
2 3 5 1 1001.38 1268.09 129.39 o
2 -3 5 1 1008.33 1155.70 152.20 o
2 3 5 2 185.29 281.24 96.99 <
2 -3 5 2 180.64 214.82 69.67 o
3 3 5 -2 103.82 37.74 36.73 <
3 -3 5 -2 110.66 -18.13 26.36 <
3 3 5 -1 361.06 189.29 61.73 o
3 -3 5 -1 330.93 115.53 59.54 <
3 3 5 0 3948.73 4747.41 274.01 o
3 -3 5 0 3998.47 4300.22 319.04 o
3 3 5 1 20.35 51.13 39.04 <
3 -3 5 1 18.32 114.58 72.46 <
3 3 5 2 146.54 400.32 159.49 <
3 -3 5 2 150.93 232.72 85.67 <
4 3 5 -2 366.32 52.08 45.15 <
4 -3 5 -2 400.26 145.33 84.54 <
4 3 5 -1 422.16 141.12 92.72 <
4 -3 5 -1 367.14 0.12 67.30 <
4 3 5 0 58.97 194.86 119.02 <
4 -3 5 0 67.40 192.55 75.54 <
4 3 5 1 57.30 288.11 181.82 <
4 -3 5 1 51.04 183.60 112.92 <
4 3 5 2 146.84 183.42 117.72 <
4 -3 5 2 148.61 8.47 68.55 <
5 3 5 -2 125.21 85.85 91.95 <
5 -3 5 -2 127.49 157.18 90.76 <
5 3 5 -1 76.99 171.40 131.35 <
5 -3 5 -1 61.80 338.71 190.30 <
5 3 5 0 922.01 1092.31 302.09 o
5 -3 5 0 943.85 1204.17 330.71 o
5 3 5 1 152.12 465.79 221.46 <
5 -3 5 1 181.36 388.12 205.94 <
5 3 5 2 48.52 198.65 140.23 <
5 -3 5 2 53.58 216.48 156.71 <
6 3 5 -2 36.11 273.65 142.66 <
6 -3 5 -2 40.32 167.84 128.27 <
6 3 5 -1 132.75 250.19 160.38 <
6 -3 5 -1 111.72 30.16 112.74 <
-6 4 5 1 13.59 -83.95 86.26 <
-6 4 5 2 68.24 87.33 124.77 <
-6 -4 5 2 66.82 27.49 75.89 <
-5 4 5 -2 106.14 125.78 102.85 <
-5 -4 5 -2 108.82 164.82 118.02 <
-5 4 5 -1 167.94 257.90 153.33 <
-5 -4 5 -1 172.29 78.20 72.93 <
-5 4 5 0 216.34 74.89 83.00 <
-5 -4 5 0 215.71 130.52 80.22 <
-5 4 5 1 534.41 738.79 263.88 <
-5 -4 5 1 479.73 446.59 187.45 <
-5 4 5 2 555.07 135.61 126.61 <
-5 -4 5 2 518.78 12.38 34.95 <
-4 4 5 -2 45.76 42.06 40.76 <
-4 -4 5 -2 51.56 5.10 55.10 <
-4 4 5 -1 112.52 121.69 69.73 <
-4 -4 5 -1 134.37 276.38 92.42 <
-4 4 5 0 622.38 944.20 177.14 o
-4 -4 5 0 648.87 737.73 146.10 o
-4 4 5 1 158.33 275.02 150.54 <
-4 -4 5 1 168.64 282.30 101.78 <
-4 4 5 2 292.98 142.78 118.61 <
-4 -4 5 2 293.21 32.88 48.29 <
-3 4 5 -2 147.39 120.92 59.48 <
-3 -4 5 -2 166.10 64.99 50.24 <
-3 4 5 -1 1035.97 1129.34 173.53 o
-3 -4 5 -1 974.35 1154.52 162.81 o
-3 4 5 0 1910.59 2205.18 329.23 o
-3 -4 5 0 1863.59 1974.54 221.70 o
-3 4 5 1 2312.47 2674.41 387.76 o
-3 -4 5 1 2221.98 2484.29 258.49 o
-3 4 5 2 828.37 252.09 127.73 <
-3 -4 5 2 787.27 210.38 92.60 <
-2 4 5 -2 84.43 52.49 32.94 <
-2 -4 5 -2 78.50 67.95 54.68 <
-2 4 5 -1 708.56 576.87 70.27 o
-2 -4 5 -1 668.06 778.66 123.05 o
-2 4 5 0 2066.46 1805.81 165.95 o
-2 -4 5 0 2044.96 2271.59 207.83 o
-2 4 5 1 901.78 632.21 107.89 o
-2 -4 5 1 944.34 757.22 125.25 o
-2 4 5 2 287.07 8.35 23.64 <
-2 -4 5 2 286.51 86.44 49.35 <
-1 4 5 -2 52.49 59.42 24.82 <
-1 -4 5 -2 50.40 47.34 39.34 <
-1 4 5 -1 4391.12 3855.82 164.52 o
-1 -4 5 -1 4464.02 4683.25 264.77 o
-1 4 5 0 8518.46 8831.62 300.32 o
-1 -4 5 0 8381.09 9652.94 487.95 o
-1 4 5 1 251.57 360.10 70.32 o
-1 -4 5 1 253.07 272.17 93.96 <
-1 4 5 2 218.49 150.25 48.11 o
-1 -4 5 2 208.04 113.81 61.97 <
0 4 5 -2 181.27 48.76 34.36 <
0 -4 5 -2 196.43 33.53 32.47 <
0 4 5 -1 599.02 435.75 72.34 o
0 -4 5 -1 559.35 390.37 69.08 o
0 4 5 0 5156.95 5876.69 258.73 o
0 -4 5 0 5054.99 5862.65 262.58 o
0 4 5 1 2140.26 2030.70 164.11 o
0 -4 5 1 2220.53 1953.09 168.97 o
0 4 5 2 39.98 47.16 28.44 <
0 -4 5 2 35.44 50.65 66.71 <
1 4 5 -2 214.53 190.18 50.71 o
1 -4 5 -2 220.08 162.99 74.59 <
1 4 5 -1 383.37 421.53 78.97 o
1 -4 5 -1 271.69 365.90 115.17 o
1 4 5 0 10286.90 11260.40 491.68 o
1 -4 5 0 10172.70 11751.00 635.53 o
1 4 5 1 5756.29 5953.77 357.90 o
1 -4 5 1 5804.55 5211.30 310.33 o
1 4 5 2 62.54 45.92 37.32 <
1 -4 5 2 64.43 8.89 35.07 <
2 4 5 -2 271.28 44.49 36.97 <
2 -4 5 -2 274.75 41.18 28.14 <
2 4 5 -1 24.36 51.54 33.06 <
2 -4 5 -1 20.78 38.92 31.87 <
2 4 5 0 1350.12 1586.72 187.16 o
2 -4 5 0 1311.03 1314.54 160.67 o
2 4 5 1 1517.37 1922.05 219.80 o
2 -4 5 1 1575.44 1690.28 190.12 o
2 4 5 2 49.01 31.34 31.46 <
2 -4 5 2 51.61 61.44 40.41 <
3 4 5 -2 539.67 294.86 82.00 o
3 -4 5 -2 528.51 360.45 102.50 o
3 4 5 -1 1201.00 1537.13 161.38 o
3 -4 5 -1 1085.70 1249.02 180.76 o
3 4 5 0 3599.55 3653.20 325.49 o
3 -4 5 0 3596.45 2956.00 264.95 o
3 4 5 1 2455.76 2875.66 309.62 o
3 -4 5 1 2296.87 2341.45 245.57 o
3 4 5 2 290.50 360.98 115.41 o
3 -4 5 2 291.90 296.64 92.60 o
4 4 5 -2 235.16 107.59 53.44 <
4 -4 5 -2 230.99 70.56 37.21 <
4 4 5 -1 40.10 147.76 80.93 <
4 -4 5 -1 28.95 19.49 50.12 <
4 4 5 0 295.21 427.22 136.15 o
4 -4 5 0 305.19 220.04 94.44 <
4 4 5 1 329.89 346.59 168.67 <
4 -4 5 1 331.56 469.28 125.25 o
4 4 5 2 29.53 111.50 123.05 <
4 -4 5 2 32.82 -9.12 110.26 <
5 4 5 -2 356.19 139.35 113.87 <
5 -4 5 -2 342.24 195.51 106.11 <
5 4 5 -1 192.56 5.45 76.96 <
5 -4 5 -1 146.56 168.26 84.90 <
5 4 5 0 660.26 265.07 147.64 <
5 -4 5 0 671.77 562.48 226.85 <
5 4 5 1 326.28 301.38 158.60 <
5 -4 5 1 299.94 633.51 263.52 <
5 4 5 2 151.96 185.50 143.32 <
5 -4 5 2 148.06 506.49 249.19 <
6 4 5 -2 86.52 53.91 90.53 <
6 -4 5 -2 85.42 320.64 205.70 <
6 4 5 -1 25.24 -40.17 73.52 <
-6 5 5 0 48.34 43.78 125.54 <
-6 5 5 1 89.38 -4.38 61.62 <
-6 5 5 2 16.88 38.21 99.30 <
-5 5 5 -2 39.51 90.11 96.93 <
-5 -5 5 -2 36.73 93.90 89.52 <
-5 5 5 -1 900.75 941.29 279.70 o
-5 -5 5 -1 883.01 1160.15 292.67 o
-5 5 5 0 232.27 331.01 190.59 <
-5 -5 5 0 238.29 349.61 164.94 <
-5 5 5 1 246.98 310.98 180.05 <
-5 -5 5 1 226.29 392.32 184.02 <
-5 5 5 2 46.07 -6.99 22.51 <
-5 -5 5 2 40.89 126.13 124.18 <
-4 5 5 -2 240.67 317.79 146.93 <
-4 -5 5 -2 247.51 276.62 128.09 <
-4 5 5 -1 177.48 227.74 123.23 <
-4 -5 5 -1 167.70 297.71 91.36 o
-4 5 5 0 680.20 156.71 110.67 <
-4 -5 5 0 691.71 87.33 50.60 <
-4 5 5 1 229.55 199.54 133.18 <
-4 -5 5 1 246.76 190.77 77.32 <
-4 5 5 2 564.68 377.22 190.48 <
-4 -5 5 2 563.93 375.91 119.91 o
-3 5 5 -2 54.67 116.12 75.72 <
-3 -5 5 -2 58.55 203.15 72.99 <
-3 5 5 -1 2298.25 2979.58 393.80 o
-3 -5 5 -1 2178.18 2512.31 244.74 o
-3 5 5 0 1941.93 2457.21 345.76 o
-3 -5 5 0 1937.37 2294.76 234.61 o
-3 5 5 1 775.69 363.47 162.99 <
-3 -5 5 1 742.00 423.90 108.30 o
-3 5 5 2 58.78 87.03 79.27 <
-3 -5 5 2 56.78 25.53 38.75 <
-2 5 5 -2 113.54 44.85 33.65 <
-2 -5 5 -2 113.54 22.87 32.64 <
-2 5 5 -1 718.29 686.83 83.48 o
-2 -5 5 -1 694.91 1055.28 151.25 o
-2 5 5 0 6800.07 4884.80 199.24 o
-2 -5 5 0 6807.13 6570.81 358.44 o
-2 5 5 1 229.73 126.31 32.17 o
-2 -5 5 1 228.29 163.22 58.12 <
-2 5 5 2 630.38 403.82 67.90 o
-2 -5 5 2 627.93 612.54 120.86 o
-1 5 5 -2 469.65 336.57 58.18 o
-1 -5 5 -2 462.85 448.55 94.26 o
-1 5 5 -1 543.71 640.27 78.56 o
-1 -5 5 -1 608.80 662.66 152.79 o
-1 5 5 0 6719.81 7577.51 249.66 o
-1 -5 5 0 6609.16 8298.65 460.75 o
-1 5 5 1 1243.19 1065.06 121.28 o
-1 -5 5 1 1253.36 1004.45 162.10 o
-1 5 5 2 84.92 58.71 30.63 <
-1 -5 5 2 85.89 56.58 41.00 <
0 5 5 -2 60.38 40.76 26.54 <
0 -5 5 -2 60.08 73.82 35.55 <
0 5 5 -1 477.48 402.16 75.60 o
0 -5 5 -1 496.08 343.09 68.13 o
0 5 5 0 16475.60 18429.90 466.32 o
0 -5 5 0 16441.90 16564.90 455.42 o
0 5 5 1 645.13 574.80 92.25 o
0 -5 5 1 627.95 437.71 75.83 o
0 5 5 2 318.10 300.49 67.13 o
0 -5 5 2 331.23 277.98 114.64 <
1 5 5 -2 296.33 270.99 53.79 o
1 -5 5 -2 291.06 215.42 56.76 o
1 5 5 -1 561.25 442.21 69.44 o
1 -5 5 -1 562.41 651.23 156.35 o
1 5 5 0 7110.21 7854.37 296.52 o
1 -5 5 0 6978.90 9185.14 563.90 o
1 5 5 1 82.82 240.83 65.29 o
1 -5 5 1 66.75 213.58 119.38 <
1 5 5 2 284.39 166.36 52.08 o
1 -5 5 2 288.30 286.69 85.55 o
2 5 5 -2 169.29 124.83 66.30 <
2 -5 5 -2 179.68 165.12 59.36 <
2 5 5 -1 130.24 64.52 51.48 <
2 -5 5 -1 115.12 135.67 58.65 <
2 5 5 0 5829.45 5680.29 360.04 o
2 -5 5 0 5824.30 5624.18 336.34 o
2 5 5 1 1254.48 1235.92 174.83 o
2 -5 5 1 1235.37 1305.06 177.32 o
2 5 5 2 119.29 138.04 80.46 <
2 -5 5 2 106.91 119.26 71.86 <
3 5 5 -2 167.91 93.25 66.77 <
3 -5 5 -2 150.90 24.05 50.06 <
3 5 5 -1 64.78 94.62 50.60 <
3 -5 5 -1 66.22 132.83 63.16 <
3 5 5 0 1532.45 1901.67 237.04 o
3 -5 5 0 1494.55 1863.75 221.04 o
3 5 5 1 437.20 636.89 151.08 o
3 -5 5 1 480.77 671.13 143.32 o
3 5 5 2 107.04 210.38 96.51 <
3 -5 5 2 112.67 177.97 83.48 <
4 5 5 -2 133.60 180.40 102.32 <
4 -5 5 -2 145.37 128.86 72.52 <
4 5 5 -1 133.29 166.84 96.99 <
4 -5 5 -1 120.26 32.64 40.64 <
4 5 5 0 502.86 302.74 117.60 <
4 -5 5 0 506.96 224.13 82.71 <
4 5 5 1 554.47 512.65 147.05 o
4 -5 5 1 556.07 393.98 108.12 o
4 5 5 2 6.02 2.67 77.26 <
4 -5 5 2 2.37 114.29 99.30 <
5 5 5 -2 63.67 -11.02 10.19 <
5 -5 5 -2 54.01 28.32 58.42 <
5 5 5 -1 43.95 32.35 61.97 <
5 -5 5 -1 39.79 74.77 64.70 <
5 5 5 0 157.71 249.96 155.82 <
5 -5 5 0 151.28 143.26 149.42 <
5 5 5 1 19.32 73.29 106.35 <
5 -5 5 1 24.91 78.32 120.45 <
5 5 5 2 34.78 -10.60 53.91 <
5 -5 5 2 40.43 164.70 138.16 <
6 5 5 -2 43.86 -154.87 117.25 <
6 -5 5 -2 47.90 299.55 218.26 <
6 5 5 -1 34.69 -21.86 33.65 <
-6 6 5 1 13.73 -78.32 103.50 <
-6 6 5 2 132.74 109.13 98.23 <
-5 6 5 -2 89.22 83.83 107.24 <
-5 -6 5 -2 91.42 -87.80 82.59 <
-5 6 5 -1 348.72 443.10 188.40 <
-5 -6 5 -1 363.07 600.93 215.83 <
-5 6 5 0 5.64 -6.46 33.59 <
-5 -6 5 0 3.62 54.86 83.54 <
-5 6 5 1 269.50 174.00 123.65 <
-5 -6 5 1 275.81 112.45 81.46 <
-5 6 5 2 48.44 33.47 35.19 <
-5 -6 5 2 55.19 -21.27 28.44 <
-4 6 5 -2 346.48 883.17 258.67 o
-4 -6 5 -2 333.41 1014.82 253.33 o
-4 6 5 -1 171.14 197.58 130.34 <
-4 -6 5 -1 181.03 363.65 137.45 <
-4 6 5 0 121.06 -48.94 29.98 <
-4 -6 5 0 100.46 5.81 52.55 <
-4 6 5 1 189.00 107.89 112.27 <
-4 -6 5 1 218.95 102.20 60.79 <
-4 6 5 2 230.85 87.51 81.64 <
-4 -6 5 2 255.62 114.94 70.50 <
-3 6 5 -2 71.19 28.62 51.48 <
-3 -6 5 -2 70.11 33.95 39.75 <
-3 6 5 -1 73.77 241.60 114.11 <
-3 -6 5 -1 82.85 258.61 75.72 o
-3 6 5 0 442.06 497.43 160.73 o
-3 -6 5 0 415.58 419.28 112.21 o
-3 6 5 1 786.04 330.18 143.20 <
-3 -6 5 1 797.93 102.44 49.77 <
-3 6 5 2 98.36 151.85 109.43 <
-3 -6 5 2 99.43 145.09 75.48 <
-2 6 5 -2 464.97 309.44 86.79 o
-2 -6 5 -2 491.62 286.33 78.97 o
-2 6 5 -1 384.55 364.77 66.18 o
-2 -6 5 -1 398.12 459.45 99.65 o
-2 6 5 0 638.15 586.06 76.31 o
-2 -6 5 0 628.63 827.78 129.87 o
-2 6 5 1 250.65 157.77 44.32 o
-2 -6 5 1 250.58 239.47 76.90 o
-2 6 5 2 165.97 47.75 27.79 <
-2 -6 5 2 180.57 63.51 38.57 <
-1 6 5 -2 56.65 -7.35 18.96 <
-1 -6 5 -2 50.56 62.62 63.39 <
-1 6 5 -1 4494.87 3883.25 187.93 o
-1 -6 5 -1 4457.94 4584.07 368.57 o
-1 6 5 0 1287.69 1147.76 105.81 o
-1 -6 5 0 1186.71 1203.69 180.52 o
-1 6 5 1 2374.08 1591.81 151.61 o
-1 -6 5 1 2319.88 1494.35 157.83 o
-1 6 5 2 97.00 69.55 42.66 <
-1 -6 5 2 99.92 50.54 25.95 <
0 6 5 -2 48.42 25.53 24.23 <
0 -6 5 -2 43.21 39.16 27.19 <
0 6 5 -1 1093.07 923.58 109.31 o
0 -6 5 -1 1146.84 1023.29 113.10 o
0 6 5 0 1332.79 1184.20 120.92 o
0 -6 5 0 1218.12 1034.31 108.18 o
0 6 5 1 304.25 287.76 67.60 o
0 -6 5 1 278.47 257.48 61.79 o
0 6 5 2 66.59 -1.96 14.75 <
0 -6 5 2 67.78 25.24 27.55 <
1 6 5 -2 52.30 69.44 33.59 <
1 -6 5 -2 47.95 53.02 31.64 <
1 6 5 -1 191.91 83.24 33.24 <
1 -6 5 -1 213.87 130.58 45.44 <
1 6 5 0 1202.98 1232.66 120.45 o
1 -6 5 0 1141.91 1540.92 243.85 o
1 6 5 1 831.75 618.88 88.99 o
1 -6 5 1 881.84 734.29 182.42 o
1 6 5 2 42.41 31.99 22.34 <
1 -6 5 2 39.09 -26.54 31.76 <
2 6 5 -2 376.28 177.62 45.86 o
2 -6 5 -2 378.21 160.02 67.30 <
2 6 5 -1 629.21 377.33 65.88 o
2 -6 5 -1 717.26 413.30 90.71 o
2 6 5 0 167.94 335.45 69.73 o
2 -6 5 0 186.33 373.72 96.87 o
2 6 5 1 83.74 164.64 53.56 o
2 -6 5 1 102.97 167.43 64.52 <
2 6 5 2 14.77 56.22 52.67 <
2 -6 5 2 14.51 90.11 61.79 <
3 6 5 -2 7.73 87.03 48.11 <
3 -6 5 -2 7.78 89.11 43.19 <
3 6 5 -1 451.35 -21.15 22.28 <
3 -6 5 -1 465.64 47.46 47.93 <
3 6 5 0 60.69 83.00 60.13 <
3 -6 5 0 75.15 197.82 92.90 <
3 6 5 1 586.90 649.63 141.54 o
3 -6 5 1 503.61 512.12 127.08 o
3 6 5 2 27.72 15.70 61.67 <
3 -6 5 2 24.33 100.07 62.98 <
4 6 5 -2 460.64 92.78 49.00 <
4 -6 5 -2 485.01 74.95 72.40 <
4 6 5 -1 239.90 110.43 63.87 <
4 -6 5 -1 289.14 23.99 53.85 <
4 6 5 0 90.17 108.54 78.20 <
4 -6 5 0 81.85 51.19 56.05 <
4 6 5 1 63.98 274.01 98.58 <
4 -6 5 1 85.62 140.59 81.23 <
4 6 5 2 65.11 174.00 102.79 <
4 -6 5 2 80.64 138.52 103.92 <
5 6 5 -2 33.19 54.68 60.55 <
5 -6 5 -2 36.00 74.00 80.46 <
5 6 5 -1 223.44 106.76 75.18 <
5 -6 5 -1 233.64 156.05 91.18 <
5 6 5 0 67.64 119.68 100.72 <
5 -6 5 0 69.85 159.37 71.15 <
5 6 5 1 133.14 -36.44 104.45 <
5 -6 5 1 134.77 469.76 222.94 <
5 6 5 2 28.90 -30.93 83.00 <
5 -6 5 2 28.39 -21.45 35.73 <
6 6 5 -2 96.90 103.80 100.66 <
6 -6 5 -2 108.23 216.13 176.26 <
6 6 5 -1 23.84 39.28 93.79 <
-6 7 5 2 21.95 72.40 110.85 <
-5 7 5 -2 91.08 30.87 83.77 <
-5 -7 5 -2 105.16 84.31 58.00 <
-5 7 5 -1 99.13 62.80 39.46 <
-5 -7 5 -1 77.00 220.99 129.10 <
-5 7 5 0 620.79 775.58 245.87 o
-5 -7 5 0 643.93 578.53 224.96 <
-5 7 5 1 92.88 171.57 145.98 <
-5 -7 5 1 98.77 166.84 95.50 <
-5 7 5 2 26.59 81.82 142.07 <
-5 -7 5 2 23.37 -34.78 42.54 <
-4 7 5 -2 54.62 198.24 135.14 <
-4 -7 5 -2 56.13 -0.06 72.75 <
-4 7 5 -1 289.69 665.68 204.93 o
-4 -7 5 -1 299.04 549.38 204.63 <
-4 7 5 0 346.42 634.99 214.35 <
-4 -7 5 0 335.82 724.57 219.86 o
-4 7 5 1 37.04 95.68 108.89 <
-4 -7 5 1 57.56 148.17 81.76 <
-4 -7 5 2 49.74 18.07 17.66 <
-3 7 5 -2 79.80 127.73 66.89 <
-3 -7 5 -2 92.95 204.28 70.56 <
-3 7 5 -1 575.90 794.54 219.15 o
-3 -7 5 -1 490.20 782.93 134.55 o
-3 7 5 0 4261.10 4588.33 486.35 o
-3 -7 5 0 4377.19 3824.48 309.97 o
-3 7 5 1 263.84 -36.32 18.66 <
-3 -7 5 1 277.59 41.12 44.73 <
-3 7 5 2 50.97 -0.18 79.45 <
-3 -7 5 2 52.56 159.79 67.36 <
-2 7 5 -2 566.95 324.55 86.68 o
-2 -7 5 -2 564.14 374.67 94.02 o
-2 7 5 -1 81.24 83.89 31.87 <
-2 -7 5 -1 67.98 52.49 37.62 <
-2 7 5 0 298.75 238.23 52.14 o
-2 -7 5 0 289.65 253.69 77.20 o
-2 7 5 1 179.19 55.22 21.86 <
-2 -7 5 1 222.48 126.13 57.71 <
-2 7 5 2 197.94 22.16 20.50 <
-2 -7 5 2 177.88 54.62 46.21 <
-1 7 5 -2 99.44 71.04 36.38 <
-1 -7 5 -2 104.75 21.51 34.66 <
-1 7 5 -1 2344.13 2048.59 149.54 o
-1 -7 5 -1 2339.12 2151.98 270.99 o
-1 7 5 0 13930.90 15060.90 398.19 o
-1 -7 5 0 14104.80 15870.80 666.28 o
-1 7 5 1 1155.82 849.23 119.50 o
-1 -7 5 1 1150.90 798.75 112.80 o
-1 7 5 2 175.12 124.53 50.06 <
-1 -7 5 2 171.03 113.51 47.46 <
0 7 5 -2 65.27 100.72 39.75 <
0 -7 5 -2 78.76 66.89 33.59 <
0 7 5 -1 51.94 75.36 34.13 <
0 -7 5 -1 68.09 99.77 38.92 <
0 7 5 0 9146.67 10923.90 383.73 o
0 -7 5 0 9081.82 10005.60 329.17 o
0 7 5 1 700.80 726.83 103.80 o
0 -7 5 1 769.48 654.43 91.65 o
0 7 5 2 141.52 54.39 43.19 <
0 -7 5 2 130.62 51.60 34.01 <
1 7 5 -2 66.11 67.01 26.31 <
1 -7 5 -2 73.21 59.25 32.23 <
1 7 5 -1 44.66 1.30 18.96 <
1 -7 5 -1 48.50 46.15 33.59 <
1 7 5 0 14046.30 13959.30 393.57 o
1 -7 5 0 14140.60 17744.60 789.57 o
1 7 5 1 146.74 178.51 54.21 o
1 -7 5 1 119.28 171.75 111.80 <
1 7 5 2 57.61 31.64 38.57 <
1 -7 5 2 44.11 -47.22 56.88 <
2 7 5 -2 150.12 109.43 41.23 <
2 -7 5 -2 182.57 104.21 52.08 <
2 7 5 -1 47.19 75.78 30.63 <
2 -7 5 -1 63.49 54.33 41.12 <
2 7 5 0 302.74 232.30 52.67 o
2 -7 5 0 288.22 220.75 73.35 o
2 7 5 1 83.02 251.97 82.06 o
2 -7 5 1 86.59 228.69 86.79 <
2 7 5 2 937.54 992.78 179.99 o
2 -7 5 2 961.54 927.79 160.67 o
3 7 5 -2 58.34 18.48 55.63 <
3 -7 5 -2 73.30 83.65 56.88 <
3 7 5 -1 246.38 44.08 46.63 <
3 -7 5 -1 255.15 81.52 55.34 <
3 7 5 0 3619.38 4334.29 356.30 o
3 -7 5 0 3690.67 4286.66 347.42 o
3 7 5 1 295.00 231.18 91.30 <
3 -7 5 1 250.07 285.80 98.53 <
3 7 5 2 51.36 -29.50 36.55 <
3 -7 5 2 42.11 97.10 70.80 <
4 7 5 -2 271.14 185.91 95.09 <
4 -7 5 -2 296.23 28.02 42.24 <
4 7 5 -1 13.83 106.58 77.79 <
4 -7 5 -1 22.25 60.08 52.14 <
4 7 5 0 440.70 1015.82 206.41 o
4 -7 5 0 409.08 606.26 144.97 o
4 7 5 1 19.70 63.57 54.86 <
4 -7 5 1 19.78 150.25 74.95 <
4 7 5 2 47.29 135.91 91.42 <
4 -7 5 2 44.49 131.88 95.86 <
5 7 5 -2 10.46 19.61 45.09 <
5 -7 5 -2 11.93 43.31 63.45 <
5 7 5 -1 29.08 -30.63 39.87 <
5 -7 5 -1 32.63 48.52 43.78 <
5 7 5 0 577.75 534.10 205.88 <
5 -7 5 0 602.93 1275.97 358.14 o
5 7 5 1 71.94 21.03 42.42 <
5 -7 5 1 69.68 384.80 230.82 <
5 7 5 2 17.12 74.00 48.29 <
5 -7 5 2 14.19 92.78 110.61 <
6 7 5 -2 115.03 -7.52 6.34 <
6 -7 5 -2 113.65 100.89 108.89 <
-5 8 5 -2 57.03 324.07 175.43 <
-5 -8 5 -2 53.10 169.98 128.03 <
-5 8 5 -1 120.18 296.46 149.71 <
-5 -8 5 -1 139.90 380.24 180.94 <
-5 8 5 0 162.11 319.21 167.49 <
-5 -8 5 0 160.79 35.55 29.68 <
-5 8 5 1 80.98 28.85 49.65 <
-5 -8 5 1 89.64 89.40 108.78 <
-5 8 5 2 106.85 -102.44 33.06 <
-5 -8 5 2 102.71 67.01 81.40 <
-4 8 5 -2 193.88 149.36 138.22 <
-4 -8 5 -2 192.11 189.70 106.58 <
-4 8 5 -1 70.59 119.44 97.22 <
-4 -8 5 -1 83.22 39.40 82.47 <
-4 8 5 0 1225.29 1436.35 333.08 o
-4 -8 5 0 1264.63 1326.45 298.12 o
-4 8 5 1 134.74 162.75 125.42 <
-4 -8 5 1 94.81 213.40 118.67 <
-4 8 5 2 390.84 189.11 146.16 <
-4 -8 5 2 355.01 248.00 94.67 <
-3 8 5 -2 23.64 98.88 57.82 <
-3 -8 5 -2 23.40 74.59 62.44 <
-3 8 5 -1 207.53 304.82 86.91 o
-3 -8 5 -1 266.52 232.54 77.02 o
-3 8 5 0 733.93 1010.20 246.28 o
-3 -8 5 0 710.31 939.75 156.94 o
-3 8 5 1 417.74 349.19 148.94 <
-3 -8 5 1 454.06 228.27 86.26 <
-3 8 5 2 252.70 408.44 175.25 <
-3 -8 5 2 255.77 223.89 78.38 <
-2 8 5 -2 346.14 218.44 56.40 o
-2 -8 5 -2 342.59 246.23 79.80 o
-2 8 5 -1 115.33 112.21 42.24 <
-2 -8 5 -1 103.25 132.77 47.51 <
-2 8 5 0 6175.72 5302.78 246.94 o
-2 -8 5 0 6262.98 5761.75 344.93 o
-2 8 5 1 336.00 268.26 63.22 o
-2 -8 5 1 276.55 219.27 78.56 <
-2 8 5 2 422.69 347.30 73.76 o
-2 -8 5 2 395.68 404.47 147.99 <
-1 8 5 -2 101.67 7.76 32.23 <
-1 -8 5 -2 111.33 5.57 21.80 <
-1 8 5 -1 1120.24 1061.03 112.03 o
-1 -8 5 -1 1178.10 1214.00 200.72 o
-1 8 5 0 1531.57 1710.95 142.37 o
-1 -8 5 0 1437.74 1773.64 162.69 o
-1 8 5 1 519.49 354.88 77.97 o
-1 -8 5 1 564.71 426.45 86.44 o
-1 8 5 2 204.23 233.13 74.59 o
-1 -8 5 2 209.62 203.45 74.41 <
0 8 5 -2 68.81 88.63 37.80 <
0 -8 5 -2 70.59 25.36 24.23 <
0 8 5 -1 1080.51 834.65 117.07 o
0 -8 5 -1 969.65 833.35 102.26 o
0 8 5 0 17831.30 19745.80 534.10 o
0 -8 5 0 17934.90 17914.30 453.17 o
0 8 5 1 1452.08 1535.76 157.71 o
0 -8 5 1 1402.00 1338.36 129.75 o
0 8 5 2 160.25 271.58 69.02 o
0 -8 5 2 150.71 197.11 59.66 o
1 8 5 -2 106.75 39.99 13.51 <
1 -8 5 -2 106.63 -9.24 27.43 <
1 8 5 -1 1164.37 731.03 86.68 o
1 -8 5 -1 1149.51 857.99 107.29 o
1 8 5 0 1143.41 1287.88 120.74 o
1 -8 5 0 1072.87 1237.58 130.70 o
1 8 5 1 28.24 61.38 36.91 <
1 -8 5 1 39.62 24.17 14.34 <
1 8 5 2 55.40 59.72 27.43 <
1 -8 5 2 56.82 28.14 52.91 <
2 8 5 -2 316.69 94.14 35.67 <
2 -8 5 -2 322.40 204.81 61.97 o
2 8 5 -1 682.01 570.18 88.10 o
2 -8 5 -1 584.21 535.99 117.96 o
2 8 5 0 6546.47 5709.97 363.95 o
2 -8 5 0 6594.54 5808.14 361.87 o
2 8 5 1 1297.73 1492.57 197.58 o
2 -8 5 1 1260.47 1391.44 189.65 o
2 8 5 2 455.60 151.79 83.12 <
2 -8 5 2 473.29 229.34 82.06 <
3 8 5 -2 207.66 42.72 44.97 <
3 -8 5 -2 195.96 29.92 21.86 <
3 8 5 -1 760.40 701.71 143.43 o
3 -8 5 -1 716.04 686.89 139.35 o
3 8 5 0 217.54 331.12 103.62 o
3 -8 5 0 210.32 219.33 82.53 <
3 8 5 1 55.85 288.17 104.57 <
3 -8 5 1 48.70 175.31 78.44 <
3 8 5 2 109.75 126.49 70.27 <
3 -8 5 2 95.76 65.17 35.84 <
4 8 5 -2 250.95 35.43 60.73 <
4 -8 5 -2 242.71 164.94 87.03 <
4 8 5 -1 296.83 433.80 146.75 <
4 -8 5 -1 250.77 321.70 112.39 <
4 8 5 0 1447.98 1306.42 227.98 o
4 -8 5 0 1473.09 1101.43 204.63 o
4 8 5 1 428.51 639.56 167.66 o
4 -8 5 1 391.36 604.72 150.66 o
4 8 5 2 170.81 192.25 110.73 <
4 -8 5 2 161.41 209.91 79.27 <
5 8 5 -2 95.82 71.57 54.68 <
5 -8 5 -2 89.13 88.93 79.86 <
5 8 5 -1 98.09 75.89 83.60 <
5 -8 5 -1 88.18 29.50 68.19 <
5 8 5 0 78.16 156.59 90.65 <
5 -8 5 0 81.94 121.57 91.06 <
5 8 5 1 26.51 -69.73 76.84 <
5 -8 5 1 18.77 245.45 165.35 <
6 -8 5 -2 125.95 315.01 189.70 <
-5 9 5 -2 1.73 90.59 109.60 <
-5 -9 5 -2 1.49 -41.89 37.21 <
-5 9 5 -1 251.99 543.40 222.70 <
-5 -9 5 -1 269.65 205.58 160.38 <
-5 9 5 0 23.48 158.78 119.14 <
-5 -9 5 0 23.19 151.55 110.79 <
-5 9 5 1 110.88 -2.61 36.02 <
-5 -9 5 1 117.83 0.12 44.91 <
-5 9 5 2 65.58 193.32 148.71 <
-5 -9 5 2 68.07 122.93 126.07 <
-4 9 5 -2 113.76 102.67 98.23 <
-4 -9 5 -2 100.54 38.87 81.82 <
-4 9 5 -1 118.82 289.65 145.57 <
-4 -9 5 -1 119.65 269.27 130.04 <
-4 9 5 0 4954.80 7584.03 738.85 o
-4 -9 5 0 4939.22 6390.53 648.68 o
-4 9 5 1 126.30 146.51 99.59 <
-4 -9 5 1 116.37 0.59 50.48 <
-4 9 5 2 48.23 159.61 141.95 <
-4 -9 5 2 53.56 37.44 42.42 <
-3 9 5 -2 4.30 160.85 78.56 <
-3 -9 5 -2 4.81 82.06 75.95 <
-3 9 5 -1 716.65 676.35 139.29 o
-3 -9 5 -1 757.59 732.75 130.52 o
-3 9 5 0 156.16 117.66 66.12 <
-3 -9 5 0 137.31 58.83 51.66 <
-3 9 5 1 222.68 58.48 39.64 <
-3 -9 5 1 222.06 64.70 55.93 <
-3 9 5 2 145.09 227.86 114.82 <
-3 -9 5 2 174.12 74.18 48.46 <
-2 9 5 -2 702.94 350.67 73.41 o
-2 -9 5 -2 718.10 446.24 101.84 o
-2 9 5 -1 369.57 429.47 74.47 o
-2 -9 5 -1 340.16 444.70 98.64 o
-2 9 5 0 10262.40 9763.73 355.18 o
-2 -9 5 0 10244.90 9985.67 461.35 o
-2 9 5 1 501.51 233.31 60.25 o
-2 -9 5 1 483.88 240.66 77.55 o
-2 9 5 2 41.98 -7.58 23.22 <
-2 -9 5 2 43.50 34.78 58.42 <
-1 9 5 -2 72.82 -5.15 25.24 <
-1 -9 5 -2 78.47 104.04 76.96 <
-1 9 5 -1 283.17 288.53 65.82 o
-1 -9 5 -1 331.39 245.99 67.30 o
-1 9 5 0 2409.82 2570.25 182.00 o
-1 -9 5 0 2278.62 2593.59 196.34 o
-1 9 5 1 46.27 98.17 46.21 <
-1 -9 5 1 36.82 45.50 40.11 <
-1 9 5 2 290.94 330.53 84.48 o
-1 -9 5 2 315.15 322.71 77.08 o
0 9 5 -2 487.46 355.59 82.17 o
0 -9 5 -2 484.19 338.77 68.90 o
0 9 5 -1 761.37 926.72 125.42 o
0 -9 5 -1 758.47 781.63 101.37 o
0 9 5 0 52448.50 56445.40 1324.85 o
0 -9 5 0 52396.20 56557.40 830.45 o
0 9 5 1 2087.67 1785.07 174.89 o
0 -9 5 1 2081.63 1545.78 144.85 o
0 9 5 2 26.42 41.71 45.32 <
0 -9 5 2 27.63 21.92 22.87 <
1 9 5 -2 210.60 152.38 44.32 o
1 -9 5 -2 201.71 260.50 65.76 o
1 9 5 -1 497.49 363.29 59.13 o
1 -9 5 -1 544.64 450.09 80.40 o
1 9 5 0 2219.03 2417.10 184.13 o
1 -9 5 0 2076.44 2220.52 177.80 o
1 9 5 1 24.65 16.00 41.23 <
1 -9 5 1 14.64 12.03 26.66 <
1 9 5 2 75.70 34.42 33.83 <
1 -9 5 2 77.67 102.61 63.69 <
2 9 5 -2 370.70 277.15 62.92 o
2 -9 5 -2 365.45 307.78 83.60 o
2 9 5 -1 197.91 153.62 67.13 <
2 -9 5 -1 219.51 169.44 68.78 <
2 9 5 0 9448.42 9545.12 472.66 o
2 -9 5 0 9455.50 9496.42 473.91 o
2 9 5 1 1459.45 1415.38 199.42 o
2 -9 5 1 1485.40 1591.10 209.08 o
2 9 5 2 1581.20 1229.29 190.65 o
2 -9 5 2 1540.93 1565.92 212.22 o
3 9 5 -2 205.30 210.03 80.75 <
3 -9 5 -2 195.42 130.04 73.52 <
3 9 5 -1 257.39 219.62 84.37 <
3 -9 5 -1 254.68 233.19 88.93 <
3 9 5 0 123.04 120.74 61.97 <
3 -9 5 0 103.36 81.94 57.94 <
3 9 5 1 67.10 187.81 89.46 <
3 -9 5 1 77.37 187.34 82.94 <
3 9 5 2 24.79 101.43 59.72 <
3 -9 5 2 23.15 53.68 57.35 <
4 9 5 -2 149.56 149.24 80.34 <
4 -9 5 -2 155.35 49.77 54.21 <
4 9 5 -1 93.04 57.76 64.52 <
4 -9 5 -1 107.78 30.99 53.50 <
4 9 5 0 4454.70 6429.45 504.60 o
4 -9 5 0 4441.47 5838.65 462.29 o
4 9 5 1 532.47 721.08 182.18 o
4 -9 5 1 554.42 609.58 158.13 o
4 9 5 2 79.59 199.42 82.77 <
4 -9 5 2 86.27 107.00 57.47 <
5 9 5 -2 60.18 32.35 64.16 <
5 -9 5 -2 58.43 61.38 31.76 <
5 9 5 -1 104.66 76.90 88.81 <
5 -9 5 -1 108.09 60.79 90.35 <
5 9 5 0 35.86 299.19 198.95 <
5 -9 5 0 37.13 158.13 86.08 <
5 9 5 1 37.22 111.32 84.01 <
5 -9 5 1 38.48 383.85 211.21 <
6 -9 5 -2 52.22 13.51 20.20 <
-5 10 5 -2 78.12 142.96 137.75 <
-5 -10 5 -2 85.11 34.84 56.28 <
-5 10 5 -1 87.47 125.13 99.89 <
-5 -10 5 -1 82.29 226.26 148.29 <
-5 10 5 0 176.63 446.30 213.52 <
-5 -10 5 0 170.28 299.96 156.29 <
-5 10 5 1 267.27 149.48 114.34 <
-5 -10 5 1 271.94 -68.19 61.85 <
-5 10 5 2 174.71 476.63 226.26 <
-5 -10 5 2 190.93 204.22 138.04 <
-4 10 5 -2 61.34 48.34 58.48 <
-4 -10 5 -2 55.32 7.41 34.07 <
-4 10 5 -1 600.91 1141.25 295.81 o
-4 -10 5 -1 565.05 720.07 218.02 o
-4 10 5 0 244.10 419.10 189.88 <
-4 -10 5 0 242.55 289.77 156.53 <
-4 10 5 1 310.96 131.29 118.02 <
-4 -10 5 1 312.21 325.44 180.40 <
-4 10 5 2 80.94 190.83 170.21 <
-4 -10 5 2 83.78 28.44 61.32 <
-3 10 5 -2 201.73 317.32 98.17 o
-3 -10 5 -2 209.37 433.38 165.24 <
-3 10 5 -1 561.44 690.92 144.20 o
-3 -10 5 -1 555.66 883.00 229.58 o
-3 10 5 0 1039.13 968.66 161.27 o
-3 -10 5 0 1010.84 1068.49 172.58 o
-3 10 5 1 1079.71 145.21 61.85 <
-3 -10 5 1 1098.88 200.43 75.06 <
-3 10 5 2 217.07 247.76 83.36 <
-3 -10 5 2 250.39 242.49 87.68 <
-2 10 5 -2 899.13 735.18 113.75 o
-2 -10 5 -2 915.98 786.25 135.14 o
-2 10 5 -1 1328.63 1187.58 135.14 o
-2 -10 5 -1 1255.49 1206.48 164.64 o
-2 10 5 0 1460.44 1341.73 141.06 o
-2 -10 5 0 1422.89 1300.86 166.95 o
-2 10 5 1 714.38 214.11 58.48 o
-2 -10 5 1 698.55 322.18 129.87 <
-2 10 5 2 35.66 -8.59 39.69 <
-2 -10 5 2 31.19 17.06 14.75 <
-1 10 5 -2 287.73 266.72 64.87 o
-1 -10 5 -2 304.06 286.57 73.35 o
-1 10 5 -1 322.75 603.30 91.30 o
-1 -10 5 -1 358.17 576.52 97.99 o
-1 10 5 0 992.44 1076.43 123.65 o
-1 -10 5 0 959.68 1072.40 127.97 o
-1 10 5 1 1080.08 975.01 123.59 o
-1 -10 5 1 1091.92 1022.40 129.69 o
-1 10 5 2 120.26 95.15 47.40 <
-1 -10 5 2 145.82 72.04 35.96 <
0 10 5 -2 56.95 12.44 26.01 <
0 -10 5 -2 53.18 44.97 34.24 <
0 10 5 -1 1982.29 1881.88 179.57 o
0 -10 5 -1 1929.76 1639.27 146.10 o
0 10 5 0 11291.00 12789.50 459.63 o
0 -10 5 0 11184.80 11693.10 387.52 o
0 10 5 1 540.35 654.19 107.83 o
0 -10 5 1 529.57 633.22 97.58 o
0 10 5 2 36.71 186.86 59.54 o
0 -10 5 2 36.25 110.79 42.18 <
1 10 5 -2 86.43 38.63 29.33 <
1 -10 5 -2 90.13 69.79 38.09 <
1 10 5 -1 1285.22 951.48 99.12 o
1 -10 5 -1 1386.90 978.15 120.51 o
1 10 5 0 1027.46 742.29 90.29 o
1 -10 5 0 958.29 971.15 123.59 o
1 10 5 1 382.15 372.95 65.11 o
1 -10 5 1 396.74 466.74 91.36 o
1 10 5 2 132.76 127.02 44.32 <
1 -10 5 2 137.59 109.60 87.09 <
2 10 5 -2 100.68 24.29 37.15 <
2 -10 5 -2 95.99 -13.69 33.24 <
2 10 5 -1 179.05 271.40 80.75 o
2 -10 5 -1 180.68 183.07 78.56 <
2 10 5 0 2219.80 1775.83 210.26 o
2 -10 5 0 2203.50 1793.66 214.23 o
2 10 5 1 323.16 438.83 116.36 o
2 -10 5 1 342.78 350.91 107.00 o
2 10 5 2 425.28 408.02 106.05 o
2 -10 5 2 451.15 389.72 118.37 o
3 10 5 -2 284.83 82.11 59.66 <
3 -10 5 -2 298.14 60.79 59.25 <
3 10 5 -1 389.04 8.53 40.11 <
3 -10 5 -1 447.86 -3.26 30.63 <
3 10 5 0 859.84 916.71 166.48 o
3 -10 5 0 804.64 974.35 175.25 o
3 10 5 1 146.71 91.48 57.59 <
3 -10 5 1 162.16 141.24 80.34 <
3 10 5 2 93.00 218.08 92.36 <
3 -10 5 2 105.83 176.26 72.52 <
4 10 5 -2 124.16 44.91 64.10 <
4 -10 5 -2 119.26 103.92 71.92 <
4 10 5 -1 39.11 26.78 57.17 <
4 -10 5 -1 43.95 83.60 57.65 <
4 10 5 0 408.23 369.28 125.84 <
4 -10 5 0 405.79 405.89 133.72 o
4 10 5 1 85.76 98.41 57.53 <
4 -10 5 1 105.46 170.51 97.93 <
4 10 5 2 148.51 271.64 113.40 <
4 -10 5 2 153.11 314.83 112.45 <
5 10 5 -2 162.79 418.81 210.20 <
5 -10 5 -2 173.21 57.59 85.73 <
5 -10 5 -1 84.11 -19.49 19.20 <
5 10 5 0 240.09 293.92 173.18 <
5 -10 5 0 218.40 240.18 105.52 <
5 10 5 1 77.23 251.26 179.99 <
5 -10 5 1 98.31 234.08 162.45 <
6 -10 5 -2 111.05 72.52 67.78 <
-5 11 5 -2 30.33 235.50 146.69 <
-5 11 5 -1 20.97 177.62 113.46 <
-5 -11 5 -1 31.18 266.25 156.35 <
-5 11 5 0 587.92 498.49 212.81 <
-5 -11 5 0 562.27 436.76 194.09 <
-5 11 5 1 51.43 -47.10 58.53 <
-5 -11 5 1 56.85 265.42 157.42 <
-5 11 5 2 10.71 -60.96 58.42 <
-5 -11 5 2 11.59 123.23 110.02 <
-4 11 5 -2 1.00 -34.13 31.58 <
-4 -11 5 -2 1.41 16.11 95.68 <
-4 11 5 -1 518.48 662.25 239.41 <
-4 -11 5 -1 524.97 792.11 250.37 o
-4 11 5 0 760.77 1430.31 340.72 o
-4 -11 5 0 768.74 1171.70 299.31 o
-4 11 5 1 51.73 91.36 75.83 <
-4 -11 5 1 57.25 135.08 115.35 <
-4 11 5 2 271.08 152.74 122.99 <
-4 -11 5 2 280.20 170.15 107.53 <
-3 11 5 -2 64.33 188.93 78.50 <
-3 -11 5 -2 51.93 60.43 36.20 <
-3 11 5 -1 300.24 455.42 118.19 o
-3 -11 5 -1 276.36 306.42 145.39 <
-3 11 5 0 3176.46 2764.28 284.97 o
-3 -11 5 0 3079.38 2392.63 254.99 o
-3 11 5 1 126.35 135.73 64.76 <
-3 -11 5 1 158.72 47.22 44.49 <
-3 11 5 2 54.10 86.97 54.92 <
-3 -11 5 2 49.41 8.00 26.54 <
-2 11 5 -2 822.16 918.90 128.62 o
-2 -11 5 -2 844.97 784.41 139.40 o
-2 11 5 -1 364.87 500.68 93.07 o
-2 -11 5 -1 367.16 425.09 99.00 o
-2 11 5 0 2265.33 2200.44 190.18 o
-2 -11 5 0 2267.43 2458.34 240.06 o
-2 11 5 1 6.54 40.46 36.73 <
-2 -11 5 1 9.05 45.03 44.67 <
-2 11 5 2 496.41 294.45 82.35 o
-2 -11 5 2 476.68 305.89 138.75 <
-1 11 5 -2 78.76 20.85 19.08 <
-1 -11 5 -2 81.60 -35.78 58.12 <
-1 11 5 -1 755.87 843.54 115.77 o
-1 -11 5 -1 851.68 757.10 116.12 o
-1 11 5 0 6151.09 6769.88 323.24 o
-1 -11 5 0 6036.81 6448.76 311.10 o
-1 11 5 1 219.19 191.42 62.39 o
-1 -11 5 1 313.83 153.92 49.59 o
-1 11 5 2 24.27 37.50 41.12 <
-1 -11 5 2 20.23 39.87 31.16 <
0 11 5 -2 83.88 258.07 75.48 o
0 -11 5 -2 86.86 216.37 60.73 o
0 11 5 -1 738.78 768.36 123.47 o
0 -11 5 -1 760.47 775.41 107.24 o
0 11 5 0 10450.40 12116.20 459.98 o
0 -11 5 0 10433.80 10923.90 385.16 o
0 11 5 1 129.09 157.24 63.51 <
0 -11 5 1 133.91 114.88 49.06 <
0 11 5 2 168.60 166.60 65.47 <
0 -11 5 2 151.22 153.68 49.77 o
1 11 5 -2 56.16 46.09 34.30 <
1 -11 5 -2 60.81 25.71 25.12 <
1 11 5 -1 203.05 66.77 35.67 <
1 -11 5 -1 178.40 37.80 30.10 <
1 11 5 0 5938.52 7057.81 329.82 o
1 -11 5 0 5858.89 6246.50 307.37 o
1 11 5 1 319.80 190.12 51.72 o
1 -11 5 1 289.87 235.03 111.38 <
1 11 5 2 336.28 134.13 77.61 <
1 -11 5 2 337.96 95.92 74.41 <
2 11 5 -2 218.71 83.83 38.69 <
2 -11 5 -2 228.91 57.71 55.10 <
2 11 5 -1 589.04 308.67 86.20 o
2 -11 5 -1 629.40 428.76 102.44 o
2 11 5 0 2110.45 2338.48 244.51 o
2 -11 5 0 2132.05 2383.45 248.24 o
2 11 5 1 35.19 35.43 43.90 <
2 -11 5 1 35.34 91.59 62.74 <
2 11 5 2 64.27 29.33 23.22 <
2 -11 5 2 62.29 -20.50 31.64 <
3 11 5 -2 36.95 25.95 68.43 <
3 -11 5 -2 37.26 79.74 53.62 <
3 11 5 -1 234.10 50.18 39.34 <
3 -11 5 -1 258.66 49.53 62.68 <
3 11 5 0 2931.60 2381.38 269.74 o
3 -11 5 0 2879.88 2730.87 296.17 o
3 11 5 1 201.45 246.34 100.89 <
3 -11 5 1 221.75 213.34 80.51 <
3 11 5 2 82.17 49.53 66.53 <
3 -11 5 2 74.69 -15.34 68.31 <
4 11 5 -2 242.08 221.93 89.34 <
4 -11 5 -2 249.14 231.06 108.24 <
4 11 5 -1 165.28 125.36 80.81 <
4 -11 5 -1 193.34 137.09 66.65 <
4 11 5 0 717.88 1286.81 339.36 o
4 -11 5 0 743.74 1170.16 210.97 o
4 11 5 1 24.87 169.92 127.44 <
4 -11 5 1 27.55 229.04 107.47 <
4 11 5 2 41.54 38.98 150.01 <
4 -11 5 2 39.68 184.25 107.83 <
5 11 5 -2 14.12 51.13 79.39 <
5 -11 5 -2 12.82 167.61 87.51 <
5 11 5 -1 114.33 16.35 62.50 <
5 -11 5 -1 129.47 105.69 65.35 <
5 11 5 0 530.30 517.45 224.90 <
5 -11 5 0 514.53 421.59 142.19 <
6 -11 5 -2 21.21 101.96 78.03 <
-5 12 5 -1 369.55 850.41 288.88 <
-5 12 5 0 174.00 230.23 172.17 <
-5 -12 5 0 183.02 277.68 159.37 <
-5 12 5 1 132.11 -0.89 35.61 <
-5 -12 5 1 131.86 102.44 66.95 <
-5 12 5 2 20.83 4.27 72.93 <
-5 -12 5 2 21.55 -43.55 66.36 <
-4 12 5 -2 20.33 49.71 102.20 <
-4 -12 5 -2 17.52 39.58 37.21 <
-4 12 5 -1 118.04 126.25 145.09 <
-4 -12 5 -1 123.12 240.36 119.44 <
-4 12 5 0 11.96 8.24 49.65 <
-4 -12 5 0 12.82 86.56 88.22 <
-4 12 5 1 28.08 -67.30 55.39 <
-4 -12 5 1 26.13 33.71 85.91 <
-4 12 5 2 77.25 206.77 151.79 <
-4 -12 5 2 83.93 29.09 21.98 <
-3 12 5 -2 40.53 -4.21 29.62 <
-3 -12 5 -2 38.83 74.59 38.98 <
-3 12 5 -1 237.46 144.74 80.16 <
-3 -12 5 -1 249.86 277.39 167.01 <
-3 12 5 0 755.19 632.27 141.24 o
-3 -12 5 0 814.24 676.70 200.25 o
-3 12 5 1 131.90 71.45 57.59 <
-3 -12 5 1 143.09 81.40 54.45 <
-3 12 5 2 23.26 54.92 43.90 <
-3 -12 5 2 22.93 32.05 41.53 <
-2 12 5 -2 575.40 622.32 111.56 o
-2 -12 5 -2 548.25 502.52 117.01 o
-2 12 5 -1 348.88 371.47 87.39 o
-2 -12 5 -1 374.93 280.71 80.22 o
-2 12 5 0 44.73 107.47 40.35 <
-2 -12 5 0 38.19 159.19 101.37 <
-2 12 5 1 86.95 0.47 28.79 <
-2 -12 5 1 68.04 117.54 84.43 <
-2 12 5 2 59.75 -37.74 35.96 <
-2 -12 5 2 60.93 80.57 60.08 <
-1 12 5 -2 119.25 -1.66 47.57 <
-1 -12 5 -2 111.04 46.92 87.68 <
-1 12 5 -1 4040.62 4464.21 272.89 o
-1 -12 5 -1 4057.07 4790.54 471.12 o
-1 12 5 0 2017.11 2118.86 185.14 o
-1 -12 5 0 2101.43 2521.26 340.13 o
-1 12 5 1 586.95 522.66 103.68 o
-1 -12 5 1 543.66 667.64 175.49 o
-1 12 5 2 60.09 26.60 41.12 <
-1 -12 5 2 54.72 14.87 10.01 <
0 12 5 -2 144.07 186.98 61.14 o
0 -12 5 -2 137.47 154.34 52.73 <
0 12 5 -1 992.61 731.15 120.68 o
0 -12 5 -1 1025.41 742.76 105.64 o
0 12 5 0 476.89 549.21 104.92 o
0 -12 5 0 426.84 441.85 84.01 o
0 12 5 1 256.59 113.99 46.21 <
0 -12 5 1 217.60 181.29 53.62 o
0 12 5 2 48.79 76.72 45.74 <
0 -12 5 2 50.01 66.30 38.21 <
1 12 5 -2 120.85 196.16 54.68 o
1 -12 5 -2 123.58 137.98 56.40 <
1 12 5 -1 272.82 151.55 40.76 o
1 -12 5 -1 269.82 256.65 70.98 o
1 12 5 0 1434.77 1447.73 138.10 o
1 -12 5 0 1452.11 1346.83 147.64 o
1 12 5 1 1086.46 640.86 131.70 o
1 -12 5 1 1128.67 1078.09 212.75 o
1 12 5 2 180.86 19.31 33.71 <
1 -12 5 2 163.59 -21.74 36.32 <
2 12 5 -2 53.62 58.59 38.33 <
2 -12 5 -2 60.87 123.23 58.12 <
2 12 5 -1 558.95 306.89 85.02 o
2 -12 5 -1 567.40 412.53 99.77 o
2 12 5 0 108.18 124.18 61.02 <
2 -12 5 0 101.03 83.00 47.81 <
2 12 5 1 103.18 124.89 68.31 <
2 -12 5 1 71.47 54.45 47.51 <
2 12 5 2 86.85 165.53 83.89 <
2 -12 5 2 79.97 177.50 85.67 <
3 12 5 -2 184.91 67.54 48.88 <
3 -12 5 -2 189.84 269.33 100.60 <
3 12 5 -1 391.22 435.75 121.22 o
3 -12 5 -1 398.45 574.45 143.79 o
3 12 5 0 163.96 182.42 99.35 <
3 -12 5 0 151.42 240.95 88.75 <
3 12 5 1 314.75 491.15 134.19 o
3 -12 5 1 320.86 660.05 146.99 o
3 12 5 2 33.94 45.62 56.46 <
3 -12 5 2 31.86 10.13 68.78 <
4 12 5 -2 41.96 60.08 66.83 <
4 -12 5 -2 49.68 136.26 80.87 <
4 12 5 -1 211.59 11.38 54.86 <
4 -12 5 -1 217.33 196.87 124.83 <
4 12 5 0 3.98 162.04 150.43 <
4 -12 5 0 3.62 91.00 64.64 <
4 12 5 1 82.24 152.32 128.21 <
4 -12 5 1 74.05 103.80 90.23 <
4 12 5 2 54.65 196.99 177.26 <
4 -12 5 2 42.34 8.83 54.62 <
5 -12 5 -2 74.57 35.67 37.27 <
5 12 5 -1 23.92 98.41 144.09 <
5 -12 5 -1 24.78 -4.62 98.58 <
5 12 5 0 3.06 -13.69 104.04 <
5 -12 5 0 2.13 -21.27 64.40 <
-5 13 5 0 286.62 361.64 174.77 <
-5 -13 5 0 289.37 453.41 196.52 <
-5 13 5 1 68.28 110.43 108.18 <
-5 -13 5 1 67.26 75.30 51.43 <
-5 13 5 2 95.02 -19.14 93.02 <
-5 -13 5 2 99.45 204.63 115.17 <
-4 13 5 -2 76.70 94.56 70.92 <
-4 -13 5 -2 80.56 173.12 154.39 <
-4 13 5 -1 129.46 282.72 157.65 <
-4 -13 5 -1 157.84 239.00 133.18 <
-4 13 5 0 17.33 400.26 189.41 <
-4 -13 5 0 24.30 50.71 61.62 <
-4 13 5 1 43.61 -39.40 60.85 <
-4 -13 5 1 35.65 60.90 66.24 <
-4 13 5 2 158.07 70.86 111.14 <
-4 -13 5 2 165.42 -76.31 44.38 <
-3 13 5 -2 26.12 6.34 23.28 <
-3 -13 5 -2 22.23 33.83 62.92 <
-3 13 5 -1 375.89 322.89 103.92 o
-3 -13 5 -1 371.73 395.23 155.05 <
-3 13 5 0 930.08 571.96 172.35 o
-3 -13 5 0 944.83 954.62 260.80 o
-3 13 5 1 105.49 193.97 90.41 <
-3 -13 5 1 99.92 33.59 38.75 <
-3 13 5 2 175.55 78.50 60.08 <
-3 -13 5 2 172.95 3.67 34.66 <
-2 13 5 -2 420.86 835.30 137.21 o
-2 -13 5 -2 418.03 753.01 147.52 o
-2 13 5 -1 320.78 356.66 87.51 o
-2 -13 5 -1 381.02 407.91 105.22 o
-2 13 5 0 190.21 357.31 103.21 o
-2 -13 5 0 222.12 366.26 142.60 <
-2 13 5 1 95.49 47.51 43.49 <
-2 -13 5 1 74.69 176.85 90.88 <
-2 13 5 2 176.78 173.77 55.04 o
-2 -13 5 2 189.34 143.79 85.25 <
-1 13 5 -2 38.33 -3.55 49.23 <
-1 -13 5 -2 35.94 131.29 98.41 <
-1 13 5 -1 400.77 963.63 137.09 o
-1 -13 5 -1 341.11 749.87 209.02 o
-1 13 5 0 1620.03 1644.12 169.74 o
-1 -13 5 0 1664.20 1694.84 283.49 o
-1 13 5 1 295.94 389.72 86.56 o
-1 -13 5 1 303.46 320.64 136.03 <
-1 13 5 2 120.19 67.18 40.76 <
-1 -13 5 2 119.65 56.58 49.35 <
0 13 5 -2 220.37 486.58 97.99 o
0 -13 5 -2 241.84 465.20 156.65 <
0 13 5 -1 626.51 610.59 117.84 o
0 -13 5 -1 689.08 568.05 152.74 o
0 13 5 0 1355.66 1785.01 191.48 o
0 -13 5 0 1450.53 1665.63 157.18 o
0 13 5 1 119.46 108.54 46.57 <
0 -13 5 1 110.32 151.91 52.91 <
0 13 5 2 157.84 233.84 67.48 o
0 -13 5 2 174.79 224.48 69.79 o
1 13 5 -2 16.58 38.27 38.81 <
1 -13 5 -2 20.47 5.10 16.23 <
1 13 5 -1 82.83 156.23 54.86 <
1 -13 5 -1 72.82 43.60 29.86 <
1 13 5 0 1822.33 1503.36 194.98 o
1 -13 5 0 1888.15 1756.57 176.67 o
1 13 5 1 505.23 381.72 99.77 o
1 -13 5 1 507.53 523.26 151.20 o
1 13 5 2 58.70 112.27 57.17 <
1 -13 5 2 69.59 148.77 59.84 <
2 13 5 -2 208.67 113.22 54.15 <
2 -13 5 -2 224.69 106.88 49.06 <
2 13 5 -1 166.18 431.19 124.77 o
2 -13 5 -1 166.08 71.92 56.05 <
2 13 5 0 478.95 317.56 98.82 o
2 -13 5 0 551.57 321.82 91.06 o
2 13 5 1 241.40 218.56 78.74 <
2 -13 5 1 233.35 62.44 42.72 <
2 13 5 2 68.11 147.05 84.96 <
2 -13 5 2 61.93 143.26 78.38 <
3 13 5 -2 83.00 10.60 53.50 <
3 -13 5 -2 77.57 167.84 92.66 <
3 13 5 -1 159.48 219.09 124.36 <
3 -13 5 -1 156.36 342.26 115.29 <
3 13 5 0 924.56 1020.62 280.11 o
3 -13 5 0 931.88 858.05 173.53 o
3 13 5 1 583.19 773.04 242.02 o
3 -13 5 1 601.58 661.60 157.36 o
3 13 5 2 15.00 92.42 52.02 <
3 -13 5 2 23.81 -7.88 46.15 <
4 13 5 -2 56.13 81.05 64.16 <
4 -13 5 -2 54.39 51.19 56.22 <
4 13 5 -1 161.80 66.53 91.77 <
4 -13 5 -1 153.80 38.15 48.70 <
4 13 5 0 37.15 114.05 156.11 <
4 -13 5 0 47.49 65.76 52.31 <
4 13 5 1 149.96 219.15 133.18 <
4 -13 5 1 148.04 240.71 112.45 <
4 13 5 2 23.16 30.04 73.64 <
4 -13 5 2 23.11 64.28 80.04 <
5 13 5 -2 56.70 75.89 112.92 <
5 -13 5 -2 50.82 25.18 76.25 <
5 13 5 -1 52.21 -15.17 57.71 <
5 -13 5 -1 53.71 25.77 69.44 <
5 13 5 0 281.62 428.88 226.20 <
5 -13 5 0 277.09 298.48 131.52 <
-5 -14 5 1 33.56 281.30 156.76 <
-5 14 5 2 54.08 336.87 156.88 <
-5 -14 5 2 56.35 165.41 142.84 <
-4 14 5 -2 84.44 68.55 113.34 <
-4 -14 5 -2 83.23 89.64 70.74 <
-4 14 5 -1 53.59 351.74 191.30 <
-4 -14 5 -1 52.48 -72.75 82.94 <
-4 14 5 0 619.46 572.49 240.54 <
-4 -14 5 0 632.80 670.66 230.94 <
-4 14 5 1 341.01 285.03 176.20 <
-4 -14 5 1 333.53 154.63 128.74 <
-4 14 5 2 194.90 425.32 203.86 <
-4 -14 5 2 188.55 148.53 113.10 <
-3 14 5 -2 2.54 61.85 76.25 <
-3 -14 5 -2 2.73 -15.40 34.90 <
-3 14 5 -1 83.08 27.61 43.96 <
-3 -14 5 -1 104.67 14.69 39.58 <
-3 14 5 0 1342.28 1133.61 199.18 o
-3 -14 5 0 1329.20 1333.91 301.20 o
-3 14 5 1 81.98 271.58 110.20 <
-3 -14 5 1 86.98 198.47 140.06 <
-3 14 5 2 173.82 107.35 75.06 <
-3 -14 5 2 177.47 300.97 147.58 <
-2 14 5 -2 261.99 119.97 56.11 <
-2 -14 5 -2 257.65 320.64 160.08 <
-2 14 5 -1 600.47 651.11 122.52 o
-2 -14 5 -1 610.99 534.81 120.21 o
-2 14 5 0 754.25 557.38 105.69 o
-2 -14 5 0 756.30 844.19 222.65 o
-2 14 5 1 515.00 237.52 72.10 o
-2 -14 5 1 508.17 393.57 170.04 <
-2 14 5 2 243.28 139.76 60.85 <
-2 -14 5 2 246.10 160.97 104.51 <
-1 14 5 -2 105.51 114.76 57.59 <
-1 -14 5 -2 106.89 100.30 99.06 <
-1 14 5 -1 2785.05 2578.78 220.75 o
-1 -14 5 -1 2726.94 2853.56 393.10 o
-1 14 5 0 2516.13 2736.38 228.81 o
-1 -14 5 0 2530.72 2934.91 381.30 o
-1 14 5 1 205.47 235.32 74.59 o
-1 -14 5 1 207.83 112.09 82.47 <
-1 14 5 2 114.62 194.44 67.13 <
-1 -14 5 2 111.74 111.08 85.73 <
0 14 5 -2 62.76 46.86 31.46 <
0 -14 5 -2 67.71 43.96 32.17 <
0 14 5 -1 1330.69 1499.15 163.58 o
0 -14 5 -1 1356.21 1305.95 243.20 o
0 14 5 0 1899.66 2560.95 237.04 o
0 -14 5 0 1953.49 2360.40 301.98 o
0 14 5 1 530.44 409.86 96.33 o
0 -14 5 1 521.34 327.45 115.00 <
0 14 5 2 129.57 150.13 53.85 <
1 14 5 -2 84.35 83.24 34.42 <
1 -14 5 -2 86.58 80.46 47.10 <
1 14 5 -1 212.70 201.43 58.89 o
1 -14 5 -1 227.37 202.15 72.46 <
1 14 5 0 3046.55 2433.34 254.88 o
1 -14 5 0 3080.98 2847.40 226.55 o
1 14 5 1 891.96 629.25 136.26 o
1 -14 5 1 898.99 796.14 200.25 o
1 14 5 2 72.56 48.94 49.06 <
1 -14 5 2 77.45 76.96 54.39 <
2 14 5 -2 248.43 143.14 65.11 <
2 -14 5 -2 238.83 128.86 82.88 <
2 14 5 -1 338.44 191.07 79.09 <
2 -14 5 -1 364.87 245.22 73.58 o
2 14 5 0 247.35 264.18 90.17 <
2 -14 5 0 234.67 332.25 94.97 o
2 14 5 1 83.13 -39.75 84.54 <
2 -14 5 1 95.07 44.49 39.75 <
2 14 5 2 37.53 117.84 91.42 <
2 -14 5 2 41.50 87.03 60.43 <
3 14 5 -2 50.69 71.09 61.08 <
3 -14 5 -2 51.32 141.60 81.46 <
3 14 5 -1 359.83 422.95 188.88 <
3 -14 5 -1 386.57 391.73 129.45 o
3 14 5 0 1278.52 1581.68 330.95 o
3 -14 5 0 1286.56 1129.28 190.59 o
3 14 5 1 750.40 924.82 264.65 o
3 -14 5 1 818.52 829.08 173.47 o
3 14 5 2 52.20 17.95 51.01 <
3 -14 5 2 60.43 -63.51 44.91 <
4 14 5 -2 323.87 322.00 166.78 <
4 -14 5 -2 314.56 159.85 84.72 <
4 14 5 -1 74.13 86.44 104.21 <
4 -14 5 -1 76.25 81.23 86.38 <
4 14 5 0 139.24 183.78 140.89 <
4 -14 5 0 128.91 225.96 109.66 <
4 14 5 1 37.92 184.79 125.90 <
4 -14 5 1 47.22 40.76 66.18 <
4 14 5 2 40.77 193.79 132.95 <
4 -14 5 2 42.94 -37.50 55.63 <
5 14 5 -2 24.88 374.49 192.61 <
5 -14 5 -2 21.95 84.19 72.64 <
5 14 5 -1 64.05 83.00 95.03 <
5 -14 5 -1 69.63 27.37 35.73 <
5 -14 5 0 176.19 113.22 91.18 <
-5 -15 5 2 83.80 135.08 83.00 <
-4 15 5 -2 38.61 127.14 120.86 <
-4 -15 5 -2 39.56 10.01 62.56 <
-4 15 5 -1 152.88 229.34 146.99 <
-4 -15 5 -1 166.03 180.05 114.82 <
-4 15 5 0 177.32 185.91 118.43 <
-4 -15 5 0 165.93 201.14 140.35 <
-4 15 5 1 39.57 110.26 92.36 <
-4 -15 5 1 36.29 -64.22 107.18 <
-4 15 5 2 31.18 31.22 35.25 <
-4 -15 5 2 33.48 20.62 33.18 <
-3 15 5 -2 49.61 -58.53 63.57 <
-3 -15 5 -2 52.21 113.28 35.55 o
-3 15 5 -1 250.36 85.61 78.14 <
-3 -15 5 -1 265.33 178.39 115.77 <
-3 15 5 0 109.97 170.92 71.63 <
-3 -15 5 0 108.97 130.16 67.01 <
-3 15 5 1 99.75 10.07 67.18 <
-3 -15 5 1 95.46 -13.63 47.46 <
-3 15 5 2 253.99 23.22 79.03 <
-3 -15 5 2 246.77 117.48 109.19 <
-2 15 5 -2 48.74 104.04 63.10 <
-2 -15 5 -2 45.05 103.56 101.84 <
-2 15 5 -1 485.91 581.67 117.48 o
-2 -15 5 -1 505.48 631.08 195.81 o
-2 15 5 0 308.88 251.14 76.07 o
-2 -15 5 0 286.55 394.22 154.10 <
-2 15 5 1 14.45 -2.19 29.98 <
-2 -15 5 1 12.71 110.55 120.92 <
-2 15 5 2 31.93 -20.14 39.87 <
-2 -15 5 2 37.36 -73.82 68.90 <
-1 15 5 -2 99.50 149.95 54.68 <
-1 -15 5 -2 101.07 250.96 144.50 <
-1 15 5 -1 2866.02 3282.21 258.25 o
-1 -15 5 -1 2800.73 3501.24 442.68 o
-1 15 5 0 8.12 62.09 40.64 <
-1 -15 5 0 10.65 34.01 46.21 <
-1 15 5 1 178.76 207.06 70.44 <
-1 -15 5 1 161.91 31.52 39.87 <
-1 15 5 2 289.12 270.16 86.08 o
-1 -15 5 2 266.32 182.77 89.52 <
0 15 5 -2 363.37 376.51 99.30 o
0 -15 5 -2 360.67 337.70 140.77 <
0 15 5 -1 248.21 233.55 67.24 o
0 -15 5 -1 256.65 122.52 56.88 <
0 15 5 0 1772.04 2076.38 198.12 o
0 -15 5 0 1713.24 1968.85 287.82 o
0 15 5 1 50.29 139.76 54.03 <
0 -15 5 1 74.53 44.20 36.73 <
0 15 5 2 166.76 47.46 48.76 <
1 15 5 -2 91.14 148.59 49.35 o
1 -15 5 -2 88.98 123.11 80.10 <
1 15 5 -1 500.88 572.91 126.61 o
1 -15 5 -1 503.23 505.72 144.68 o
1 15 5 0 41.50 73.52 49.23 <
1 15 5 1 1231.67 846.97 158.96 o
1 -15 5 1 1223.00 1338.00 233.96 o
1 15 5 2 56.52 62.21 59.60 <
1 -15 5 2 51.64 159.37 87.92 <
2 15 5 -2 297.55 80.69 100.72 <
2 -15 5 -2 286.19 168.85 86.20 <
2 15 5 -1 39.01 -13.92 66.53 <
2 -15 5 -1 37.72 -8.24 40.76 <
2 15 5 0 310.86 216.25 117.96 <
2 -15 5 0 289.78 193.85 74.71 <
2 15 5 1 27.03 52.67 87.45 <
2 -15 5 1 10.54 15.82 11.20 <
2 15 5 2 87.04 22.39 44.08 <
2 -15 5 2 74.24 8.41 58.42 <
3 15 5 -2 125.10 124.12 96.87 <
3 -15 5 -2 131.22 251.20 94.38 <
3 15 5 -1 277.31 190.77 102.32 <
3 -15 5 -1 289.48 147.17 63.57 <
3 15 5 0 200.08 257.24 161.27 <
3 -15 5 0 194.77 79.92 91.12 <
3 15 5 1 255.19 428.11 190.41 <
3 -15 5 1 246.43 195.63 95.50 <
3 15 5 2 9.40 41.89 56.40 <
3 -15 5 2 7.24 2.90 4.03 <
4 15 5 -2 244.73 418.27 202.56 <
4 -15 5 -2 236.32 166.78 100.42 <
4 15 5 -1 121.94 187.45 147.76 <
4 -15 5 -1 122.65 196.46 100.66 <
4 15 5 0 212.53 421.47 215.36 <
4 -15 5 0 196.99 347.30 130.58 <
4 15 5 1 111.57 249.90 159.67 <
4 -15 5 1 102.44 245.16 106.64 <
4 15 5 2 119.56 81.29 100.01 <
4 -15 5 2 106.76 175.25 101.49 <
5 15 5 -2 51.19 60.55 53.44 <
5 -15 5 -2 55.13 223.95 144.97 <
5 -15 5 -1 43.18 136.44 145.74 <
-4 16 5 -2 41.43 443.45 202.44 <
-4 -16 5 -2 45.53 -33.41 34.13 <
-4 16 5 -1 442.01 718.53 263.94 <
-4 -16 5 -1 425.73 504.60 199.07 <
-4 16 5 0 52.92 103.92 97.76 <
-4 -16 5 0 63.65 135.32 138.04 <
-4 16 5 1 58.31 296.82 165.35 <
-4 -16 5 1 60.29 31.58 99.35 <
-4 16 5 2 148.90 233.78 165.65 <
-4 -16 5 2 150.52 163.58 82.94 <
-3 16 5 -2 22.70 97.76 94.20 <
-3 -16 5 -2 17.51 -41.89 90.05 <
-3 16 5 -1 124.36 -52.67 51.07 <
-3 -16 5 -1 97.57 0.71 85.55 <
-3 16 5 0 153.45 151.02 79.21 <
-3 -16 5 0 153.44 441.38 182.54 <
-3 16 5 1 53.64 29.92 56.70 <
-3 -16 5 1 45.03 -13.03 66.41 <
-3 16 5 2 50.11 -5.33 47.87 <
-3 -16 5 2 55.07 -91.30 78.50 <
-2 16 5 -2 298.97 182.36 87.86 <
-2 -16 5 -2 294.72 319.81 159.49 <
-2 16 5 -1 837.66 1036.21 157.65 o
-2 -16 5 -1 819.39 1198.24 285.68 o
-2 16 5 0 226.31 242.61 75.60 o
-2 -16 5 0 267.22 293.27 153.33 <
-2 16 5 1 144.59 83.65 50.71 <
-2 -16 5 1 164.58 77.79 60.31 <
-2 16 5 2 121.83 128.21 64.04 <
-2 -16 5 2 124.57 108.89 91.77 <
-1 16 5 -2 120.96 115.35 55.81 <
-1 -16 5 -2 117.64 259.61 156.41 <
-1 16 5 -1 257.58 382.02 91.59 o
-1 -16 5 -1 286.74 475.27 180.64 <
-1 16 5 0 338.93 403.34 92.72 o
-1 -16 5 0 355.51 502.23 164.52 o
-1 16 5 1 79.17 36.85 22.45 <
-1 -16 5 1 55.23 0.36 30.33 <
-1 16 5 2 3.41 34.01 51.31 <
-1 -16 5 2 4.25 47.99 64.99 <
0 16 5 -2 64.43 329.58 91.36 o
0 -16 5 -2 65.98 257.60 121.51 <
0 16 5 -1 763.14 785.42 129.93 o
0 -16 5 -1 758.49 680.02 190.89 o
0 16 5 0 60.31 61.02 50.83 <
0 -16 5 0 145.89 93.90 74.00 <
0 16 5 1 38.29 74.35 36.38 <
0 -16 5 1 42.05 4.74 21.33 <
0 16 5 2 48.21 110.73 72.52 <
1 16 5 -2 131.85 273.00 126.96 <
1 -16 5 -2 137.95 175.13 102.50 <
1 16 5 -1 42.06 125.01 103.44 <
1 -16 5 -1 48.58 33.71 58.36 <
1 16 5 0 245.22 205.11 91.12 <
1 16 5 1 79.31 63.63 74.89 <
1 16 5 2 40.24 -1.01 45.44 <
1 -16 5 2 37.31 -18.90 27.90 <
2 16 5 -2 121.46 191.96 123.59 <
2 -16 5 -2 124.57 170.15 81.29 <
2 16 5 -1 434.86 252.51 145.15 <
2 -16 5 -1 426.45 252.62 101.43 <
2 16 5 0 429.13 415.02 179.99 <
2 -16 5 0 458.83 382.31 111.56 o
2 16 5 1 101.06 92.60 97.10 <
2 -16 5 1 93.64 135.26 80.22 <
2 16 5 2 192.72 228.04 165.77 <
2 -16 5 2 201.95 52.91 84.66 <
3 16 5 -2 102.31 216.78 141.83 <
3 -16 5 -2 109.84 157.42 85.79 <
3 16 5 -1 78.90 96.27 117.37 <
3 -16 5 -1 88.86 16.89 30.75 <
3 16 5 0 168.23 140.71 121.04 <
3 -16 5 0 185.23 5.92 46.09 <
3 16 5 1 14.75 66.30 123.41 <
3 -16 5 1 12.16 -14.81 71.21 <
3 16 5 2 5.95 93.13 32.76 <
3 -16 5 2 4.01 -41.53 69.38 <
4 16 5 -2 161.34 281.18 171.16 <
4 -16 5 -2 167.39 179.75 97.87 <
4 16 5 -1 65.30 -21.62 91.95 <
4 -16 5 -1 61.02 21.62 59.84 <
4 16 5 0 180.02 258.55 145.33 <
4 -16 5 0 188.48 270.75 124.65 <
4 16 5 1 152.78 76.66 92.72 <
4 -16 5 1 137.18 186.39 98.23 <
4 -16 5 2 68.74 7.17 46.92 <
5 16 5 -2 80.57 39.69 43.31 <
5 -16 5 -2 82.59 130.58 152.74 <
-4 17 5 -2 51.04 49.35 85.14 <
-4 -17 5 -2 47.29 85.25 17.42 o
-4 17 5 -1 151.16 170.27 127.38 <
-4 -17 5 -1 138.72 153.09 120.86 <
-4 17 5 0 317.54 359.62 212.57 <
-4 -17 5 0 318.98 287.99 152.79 <
-4 17 5 1 95.19 295.22 163.52 <
-4 -17 5 1 95.17 51.13 63.22 <
-4 17 5 2 95.48 -1.72 68.13 <
-4 -17 5 2 87.49 32.70 48.88 <
-3 17 5 -2 66.34 80.34 83.42 <
-3 -17 5 -2 59.08 139.46 40.23 o
-3 17 5 -1 400.03 207.71 107.35 <
-3 -17 5 -1 375.53 340.48 174.48 <
-3 17 5 0 191.23 397.01 140.29 <
-3 -17 5 0 205.60 557.68 220.51 <
-3 17 5 1 47.54 -43.55 44.67 <
-3 -17 5 1 45.84 24.53 46.33 <
-3 17 5 2 103.70 -16.83 85.79 <
-3 -17 5 2 93.62 75.54 118.14 <
-2 17 5 -2 54.02 34.42 53.08 <
-2 -17 5 -2 47.95 47.16 29.33 <
-2 17 5 -1 39.34 128.44 55.51 <
-2 -17 5 -1 24.47 268.38 141.95 <
-2 17 5 0 2697.82 3786.15 377.57 o
-2 -17 5 0 2647.52 3267.57 484.81 o
-2 17 5 1 224.68 241.66 82.29 <
-2 -17 5 1 226.14 178.21 112.86 <
-2 17 5 2 67.28 73.11 45.56 <
-2 -17 5 2 67.50 149.54 118.43 <
-1 17 5 -2 64.19 135.61 52.02 <
-1 -17 5 -2 71.65 42.30 94.50 <
-1 17 5 -1 280.75 251.20 71.51 o
-1 -17 5 -1 263.13 445.70 180.11 <
-1 17 5 0 630.16 926.25 145.45 o
-1 -17 5 0 699.84 1169.03 262.93 o
-1 17 5 1 175.19 139.35 62.68 <
-1 -17 5 1 170.19 276.68 130.76 <
-1 17 5 2 169.21 211.74 73.76 <
-1 -17 5 2 148.03 96.75 88.51 <
0 17 5 -2 74.48 26.78 38.69 <
0 -17 5 -2 69.17 184.31 107.83 <
0 17 5 -1 232.15 369.52 102.44 o
0 -17 5 -1 199.09 145.74 103.62 <
0 17 5 0 400.85 347.95 90.29 o
0 -17 5 0 317.12 379.88 141.06 <
0 17 5 1 24.28 140.29 100.60 <
0 17 5 2 28.14 70.68 63.39 <
1 17 5 -2 40.29 138.63 111.50 <
1 -17 5 -2 43.57 22.22 35.25 <
1 17 5 -1 130.31 156.29 70.62 <
1 -17 5 -1 127.79 270.93 118.61 <
1 17 5 0 685.92 975.12 242.37 o
1 17 5 1 473.85 501.75 175.43 <
1 -17 5 1 458.12 619.53 259.26 <
1 17 5 2 46.52 127.38 109.72 <
1 -17 5 2 43.41 285.56 217.61 <
2 17 5 -2 99.82 16.29 16.41 <
2 -17 5 -2 98.95 153.74 151.37 <
2 17 5 -1 131.90 -78.14 49.29 <
2 -17 5 -1 106.40 131.23 103.38 <
2 17 5 0 2343.18 2843.55 441.02 o
2 -17 5 0 2290.30 1651.77 362.94 o
2 17 5 1 19.68 25.89 62.44 <
2 -17 5 1 26.14 77.55 111.26 <
2 17 5 2 447.00 350.38 157.30 <
2 -17 5 2 439.86 -21.62 89.46 <
3 17 5 -2 53.27 124.00 144.44 <
3 -17 5 -2 59.01 48.29 56.11 <
3 17 5 -1 25.67 45.26 92.54 <
3 -17 5 -1 20.44 -14.22 27.67 <
3 17 5 0 405.17 496.48 195.69 <
3 -17 5 0 426.42 392.09 126.79 o
3 17 5 1 298.90 744.42 235.15 o
3 -17 5 1 293.59 216.25 97.70 <
3 17 5 2 52.52 56.34 119.26 <
3 -17 5 2 60.14 6.52 90.47 <
4 17 5 -2 110.14 98.82 97.76 <
4 -17 5 -2 104.33 3.38 33.47 <
4 17 5 -1 61.73 98.53 38.27 <
4 -17 5 -1 51.38 98.88 125.07 <
4 17 5 0 181.87 121.63 122.88 <
4 -17 5 0 182.00 310.33 125.78 <
4 -17 5 1 20.36 -25.42 74.77 <
4 -17 5 2 17.29 96.33 87.92 <
-4 -18 5 -1 124.73 -51.90 105.69 <
-4 18 5 0 205.48 618.17 275.20 <
-4 -18 5 0 208.27 -28.85 44.85 <
-4 18 5 1 111.15 17.36 97.46 <
-4 -18 5 1 111.98 -12.38 83.24 <
-4 18 5 2 24.62 303.81 197.35 <
-4 -18 5 2 20.61 249.60 141.83 <
-3 18 5 -2 15.76 4.44 48.88 <
-3 -18 5 -2 12.23 72.81 84.48 <
-3 18 5 -1 104.74 92.01 86.74 <
-3 -18 5 -1 115.66 49.94 69.20 <
-3 18 5 0 91.61 34.48 55.63 <
-3 -18 5 0 93.12 -5.27 15.23 <
-3 18 5 1 145.05 25.71 74.18 <
-3 -18 5 1 132.98 -2.37 74.95 <
-3 18 5 2 20.56 -1.84 53.85 <
-3 -18 5 2 17.94 31.04 52.02 <
-2 18 5 -2 243.14 170.98 68.72 <
-2 -18 5 -2 245.51 238.40 124.36 <
-2 18 5 -1 255.68 271.23 83.12 o
-2 -18 5 -1 253.76 312.82 169.56 <
-2 18 5 0 276.58 349.61 99.35 o
-2 -18 5 0 293.74 273.12 163.70 <
-2 18 5 1 118.32 136.68 69.97 <
-2 -18 5 1 130.84 115.53 116.36 <
-2 18 5 2 98.46 258.73 97.16 <
-2 -18 5 2 89.45 135.02 121.93 <
-1 18 5 -2 59.96 128.56 69.55 <
-1 -18 5 -2 63.12 55.04 89.82 <
-1 18 5 -1 96.36 150.72 63.75 <
-1 -18 5 -1 104.21 243.26 133.66 <
-1 18 5 0 61.77 29.39 38.75 <
-1 -18 5 0 48.97 154.34 91.12 <
-1 18 5 1 119.11 92.90 51.78 <
-1 -18 5 1 107.16 66.65 82.94 <
-1 18 5 2 37.86 133.30 64.64 <
-1 -18 5 2 38.05 30.45 66.36 <
0 18 5 -2 222.33 183.72 71.21 <
0 -18 5 -2 208.13 143.67 104.92 <
0 18 5 -1 78.07 98.17 49.77 <
0 -18 5 -1 67.97 78.92 49.29 <
0 18 5 0 1065.82 1552.83 244.80 o
0 -18 5 0 1147.99 1103.09 241.13 o
0 18 5 1 180.36 252.51 105.87 <
0 18 5 2 122.89 118.91 83.95 <
1 18 5 -2 25.98 151.31 99.12 <
1 -18 5 -2 21.09 36.02 41.06 <
1 18 5 -1 99.88 74.35 63.63 <
1 18 5 0 73.88 185.79 126.31 <
1 18 5 1 40.76 115.35 88.45 <
1 -18 5 1 34.15 206.00 168.73 <
1 18 5 2 35.30 6.04 23.05 <
1 -18 5 2 35.01 221.34 192.73 <
2 18 5 -2 217.41 151.61 84.48 <
2 -18 5 -2 208.09 118.37 108.89 <
2 18 5 -1 32.79 -17.60 70.98 <
2 -18 5 -1 24.66 19.25 61.08 <
2 18 5 0 267.48 302.09 160.02 <
2 -18 5 0 288.97 337.34 179.87 <
2 18 5 1 312.32 439.36 186.92 <
2 -18 5 1 341.42 149.36 145.63 <
2 18 5 2 200.55 217.37 146.22 <
2 -18 5 2 204.32 9.95 86.74 <
3 18 5 -2 132.38 121.45 95.50 <
3 -18 5 -2 125.72 -80.57 74.23 <
3 18 5 -1 27.01 103.21 110.55 <
3 -18 5 -1 25.55 -197.88 135.43 <
3 18 5 0 4.93 271.17 152.20 <
3 -18 5 0 4.87 -179.75 130.70 <
3 18 5 1 77.39 244.21 143.49 <
3 -18 5 1 78.55 -47.69 154.87 <
3 18 5 2 28.22 91.06 77.20 <
3 -18 5 2 28.73 -291.31 171.46 <
4 18 5 -2 82.26 126.55 149.95 <
4 -18 5 -2 80.15 51.37 87.86 <
4 18 5 -1 25.77 126.25 108.18 <
4 -18 5 -1 27.38 -122.52 83.12 <
4 18 5 0 95.32 -2.61 61.97 <
4 -18 5 0 97.49 36.38 46.39 <
-4 -19 5 1 67.19 -29.45 115.77 <
-4 19 5 2 15.91 -73.94 135.14 <
-4 -19 5 2 13.75 45.97 35.96 <
-3 19 5 -2 46.39 -27.31 79.15 <
-3 -19 5 -2 49.24 226.91 143.85 <
-3 19 5 -1 54.51 -19.97 39.40 <
-3 -19 5 -1 83.00 68.13 78.03 <
-3 19 5 0 195.73 64.81 73.35 <
-3 -19 5 0 216.07 54.09 103.68 <
-3 19 5 1 60.13 -149.12 92.54 <
-3 -19 5 1 56.54 56.70 70.50 <
-3 19 5 2 26.15 -56.88 51.37 <
-3 -19 5 2 26.81 48.52 46.03 <
-2 19 5 -2 54.39 91.30 59.60 <
-2 -19 5 -2 46.88 112.80 84.96 <
-2 19 5 -1 182.21 84.37 50.60 <
-2 -19 5 -1 179.06 99.41 123.35 <
-2 19 5 0 757.66 873.22 197.70 o
-2 -19 5 0 749.39 904.03 278.28 o
-2 19 5 1 184.88 88.57 67.24 <
-2 -19 5 1 180.38 91.30 102.32 <
-2 19 5 2 19.18 73.64 86.97 <
-2 -19 5 2 14.33 28.79 60.96 <
-1 19 5 -2 258.05 481.79 118.08 o
-1 -19 5 -2 266.21 362.94 151.37 <
-1 19 5 -1 338.46 447.07 111.20 o
-1 -19 5 -1 342.40 255.94 113.04 <
-1 19 5 0 619.34 779.97 142.66 o
-1 -19 5 0 658.13 997.10 260.62 o
-1 19 5 1 136.44 79.74 45.32 <
-1 -19 5 1 112.53 93.67 48.46 <
-1 19 5 2 10.24 30.10 43.78 <
0 19 5 -2 69.61 105.46 58.36 <
0 -19 5 -2 63.12 81.40 81.05 <
0 19 5 -1 156.40 232.36 108.83 <
0 -19 5 -1 143.16 159.19 127.08 <
0 19 5 0 148.72 356.54 121.51 <
0 -19 5 0 48.10 322.65 137.63 <
0 19 5 1 133.44 121.04 76.25 <
0 19 5 2 14.74 107.24 95.86 <
1 19 5 -2 207.02 243.38 124.24 <
1 -19 5 -2 208.24 238.70 135.97 <
1 19 5 -1 60.20 93.96 80.40 <
1 19 5 0 573.92 680.49 222.88 o
1 -19 5 0 609.51 783.88 309.85 <
1 19 5 1 112.54 97.64 116.18 <
1 -19 5 1 81.35 92.90 89.93 <
1 19 5 2 194.02 126.73 109.01 <
1 -19 5 2 192.35 437.17 253.57 <
2 19 5 -2 77.43 92.72 102.14 <
2 -19 5 -2 72.99 175.54 148.71 <
2 19 5 -1 88.55 70.44 94.02 <
2 -19 5 -1 82.04 252.98 183.07 <
2 19 5 0 795.98 1123.24 297.77 o
2 -19 5 0 784.03 861.91 287.99 <
2 19 5 1 260.01 119.68 90.88 <
2 -19 5 1 247.68 109.43 122.46 <
2 19 5 2 112.60 199.72 154.99 <
2 -19 5 2 100.64 -110.67 108.48 <
3 19 5 -2 100.02 154.45 112.86 <
3 -19 5 -2 100.29 -194.98 135.14 <
3 19 5 -1 138.66 -33.89 70.56 <
3 -19 5 -1 129.59 -2.31 69.55 <
3 19 5 0 103.06 85.20 121.39 <
3 -19 5 0 111.74 -154.87 89.40 <
3 19 5 1 91.12 -4.38 63.63 <
3 -19 5 1 86.90 -113.46 123.29 <
3 19 5 2 34.16 148.17 107.59 <
3 -19 5 2 27.86 111.03 94.85 <
4 19 5 -2 62.94 141.89 145.51 <
4 -19 5 -2 61.90 -33.59 15.23 <
4 19 5 -1 32.79 58.83 75.95 <
4 -19 5 -1 34.02 -92.96 100.30 <
-4 -20 5 2 45.39 -70.86 102.61 <
-3 20 5 -2 76.93 80.75 113.28 <
-3 -20 5 -2 77.13 260.68 151.37 <
-3 20 5 -1 52.54 15.52 99.35 <
-3 -20 5 -1 46.02 138.40 88.16 <
-3 20 5 0 359.55 133.01 112.21 <
-3 -20 5 0 365.18 554.60 216.96 <
-3 20 5 1 94.74 -49.53 54.62 <
-3 -20 5 1 100.41 29.80 23.17 <
-3 20 5 2 86.35 77.55 62.03 <
-3 -20 5 2 83.26 255.82 162.57 <
-2 20 5 -2 167.92 43.84 60.61 <
-2 -20 5 -2 159.91 75.72 110.49 <
-2 20 5 -1 31.10 -25.12 51.13 <
-2 -20 5 -1 43.89 2.07 65.29 <
-2 20 5 0 148.71 205.70 90.47 <
-2 -20 5 0 147.55 187.63 123.23 <
-2 20 5 1 3.02 26.19 32.41 <
-2 -20 5 1 1.52 53.62 39.99 <
-2 20 5 2 34.03 194.92 113.22 <
-2 -20 5 2 33.94 -38.21 56.88 <
-1 20 5 -2 46.93 159.79 68.37 <
-1 -20 5 -2 49.10 109.84 85.97 <
-1 20 5 -1 626.04 771.85 144.09 o
-1 -20 5 -1 624.96 833.82 235.68 o
-1 20 5 0 654.09 846.80 149.18 o
-1 -20 5 0 642.68 741.28 227.92 o
-1 20 5 1 77.87 4.27 68.31 <
-1 -20 5 1 81.85 38.69 101.37 <
-1 20 5 2 77.81 67.07 72.10 <
0 20 5 -2 22.55 132.35 94.50 <
0 -20 5 -2 24.07 25.89 31.40 <
0 20 5 -1 51.73 106.94 89.05 <
0 -20 5 -1 87.69 49.35 64.87 <
0 20 5 0 34.42 146.57 83.83 <
0 20 5 1 56.85 180.34 101.43 <
0 20 5 2 6.53 141.48 124.00 <
1 20 5 -2 35.32 -0.18 44.79 <
1 -20 5 -2 37.30 -19.85 19.20 <
1 20 5 -1 100.06 146.57 90.41 <
1 20 5 0 563.05 899.64 210.85 o
1 -20 5 0 576.14 1063.10 344.33 o
1 20 5 1 622.08 694.06 250.73 <
1 -20 5 1 590.19 698.09 292.67 <
1 20 5 2 61.97 187.63 130.76 <
1 -20 5 2 68.28 325.02 210.03 <
2 20 5 -2 36.34 118.19 72.64 <
2 -20 5 -2 41.58 147.17 132.06 <
2 20 5 -1 35.41 40.35 11.61 o
2 -20 5 -1 41.24 100.48 134.43 <
2 20 5 0 65.36 294.45 140.83 <
2 -20 5 0 66.70 152.62 151.14 <
2 20 5 1 20.36 61.32 76.84 <
2 -20 5 1 30.46 -125.78 80.04 <
2 20 5 2 19.72 124.77 136.56 <
2 -20 5 2 17.11 -133.66 117.01 <
3 20 5 -2 53.76 118.79 129.27 <
3 -20 5 -2 55.30 -101.61 87.68 <
3 20 5 -1 113.76 31.52 93.90 <
3 -20 5 -1 108.59 36.14 90.41 <
3 20 5 0 266.98 295.16 179.81 <
3 -20 5 0 280.32 156.29 157.53 <
3 20 5 1 28.21 80.51 124.71 <
3 -20 5 1 25.18 -67.90 73.88 <
3 -20 5 2 29.54 -26.90 105.46 <
4 20 5 -2 12.42 59.96 80.93 <
4 -20 5 -2 11.71 -283.79 176.61 <
-3 21 5 -2 36.40 129.39 126.25 <
-3 -21 5 -2 33.61 150.72 158.19 <
-3 21 5 -1 17.89 -151.31 117.13 <
-3 -21 5 -1 16.49 -58.00 57.82 <
-3 21 5 0 765.57 782.10 204.34 o
-3 -21 5 0 749.69 771.85 278.51 <
-3 21 5 1 84.53 11.32 56.05 <
-3 -21 5 1 91.64 63.87 58.24 <
-3 21 5 2 22.05 -36.91 55.75 <
-3 -21 5 2 18.28 -22.57 59.42 <
-2 21 5 -2 80.12 -53.74 91.48 <
-2 -21 5 -2 83.51 7.46 29.50 <
-2 21 5 -1 410.02 469.23 143.43 o
-2 -21 5 -1 385.64 426.92 211.68 <
-2 21 5 0 17.46 102.97 87.15 <
-2 -21 5 0 18.70 182.83 143.97 <
-2 21 5 1 75.49 215.54 104.33 <
-2 -21 5 1 79.14 197.05 145.86 <
-2 21 5 2 98.03 165.59 100.84 <
-2 -21 5 2 94.63 259.85 150.43 <
-1 21 5 -2 62.97 206.23 86.97 <
-1 -21 5 -2 60.31 118.19 141.18 <
-1 21 5 -1 64.03 69.97 48.23 <
-1 -21 5 -1 75.23 161.09 154.28 <
-1 21 5 0 2022.46 2478.01 327.98 o
-1 -21 5 0 1948.56 2664.75 456.90 o
-1 21 5 1 185.77 190.06 87.39 <
-1 21 5 2 70.45 37.09 58.95 <
0 21 5 -2 71.09 13.80 84.90 <
0 -21 5 -2 67.04 110.91 119.62 <
0 21 5 -1 188.44 334.86 123.23 <
0 -21 5 -1 179.12 111.20 60.61 <
0 21 5 0 20.33 230.88 120.68 <
0 21 5 1 214.39 194.09 93.85 <
0 21 5 2 62.29 155.76 111.92 <
1 21 5 -2 4.50 -12.03 32.88 <
1 21 5 -1 19.13 38.69 56.58 <
1 -21 5 -1 15.92 222.41 206.53 <
1 21 5 0 1957.07 2850.01 384.45 o
1 -21 5 0 1869.79 2920.57 565.62 o
1 21 5 1 333.77 302.45 139.94 <
1 -21 5 1 362.45 484.10 263.41 <
1 21 5 2 23.67 -80.75 113.87 <
1 -21 5 2 25.45 170.27 193.91 <
2 21 5 -2 48.36 55.22 111.38 <
2 -21 5 -2 45.09 157.30 102.32 <
2 21 5 -1 120.54 64.40 123.88 <
2 -21 5 -1 127.01 284.44 156.65 <
2 21 5 0 36.30 25.65 111.92 <
2 -21 5 0 37.36 136.74 121.22 <
2 21 5 1 177.70 200.55 131.23 <
2 -21 5 1 170.05 117.90 167.31 <
2 21 5 2 33.26 68.43 56.11 <
2 -21 5 2 37.20 43.01 45.26 <
3 21 5 -2 1.65 57.47 66.30 <
3 -21 5 -2 2.84 -127.79 137.21 <
3 21 5 -1 18.19 -15.17 61.91 <
3 -21 5 -1 13.55 38.92 92.72 <
3 21 5 0 678.40 922.81 296.94 o
3 -21 5 0 662.66 634.70 273.95 <
3 -21 5 1 156.49 203.86 177.56 <
-3 -22 5 -1 594.18 566.27 238.11 <
-3 22 5 0 1.58 -240.54 110.85 <
-3 -22 5 0 1.58 -13.03 72.04 <
-3 22 5 1 48.87 35.78 34.18 <
-3 -22 5 1 45.71 79.57 110.14 <
-3 22 5 2 24.43 -28.56 43.25 <
-3 -22 5 2 22.49 27.85 40.88 <
-2 22 5 -2 67.68 90.53 68.37 <
-2 -22 5 -2 75.10 26.54 92.42 <
-2 22 5 -1 7.57 -47.16 40.70 <
-2 -22 5 -1 17.75 -57.35 102.14 <
-2 22 5 0 103.66 194.62 107.06 <
-2 -22 5 0 92.31 331.18 203.80 <
-2 22 5 1 32.16 148.71 95.09 <
-2 -22 5 1 28.78 -6.16 17.36 <
-2 22 5 2 22.38 148.11 93.31 <
-1 22 5 -2 77.99 101.13 52.73 <
-1 -22 5 -2 74.88 74.06 67.90 <
-1 22 5 -1 135.57 207.30 94.67 <
-1 -22 5 -1 122.99 260.15 151.08 <
-1 22 5 0 121.31 155.16 93.90 <
-1 -22 5 0 110.84 267.26 171.69 <
-1 22 5 1 216.56 307.96 133.78 <
-1 22 5 2 33.38 -28.14 60.85 <
0 22 5 -2 42.88 3.50 67.60 <
0 -22 5 -2 44.69 104.63 84.31 <
0 22 5 -1 36.01 61.50 72.22 <
0 22 5 0 60.20 45.56 54.80 <
0 22 5 1 25.23 20.38 58.36 <
0 22 5 2 33.42 132.59 109.72 <
1 22 5 -2 60.77 -2.61 45.92 <
1 22 5 -1 587.39 638.73 188.64 o
1 -22 5 -1 558.12 597.79 284.62 <
1 22 5 0 76.92 310.74 146.69 <
1 -22 5 0 70.02 220.81 203.92 <
1 22 5 1 16.84 63.22 124.00 <
1 -22 5 1 19.03 12.86 124.47 <
1 22 5 2 89.89 135.08 123.65 <
1 -22 5 2 91.01 39.93 148.82 <
2 22 5 -2 72.77 153.39 84.60 <
2 -22 5 -2 71.36 32.17 73.29 <
2 22 5 -1 26.38 228.87 153.27 <
2 -22 5 -1 25.12 164.70 197.17 <
2 22 5 0 81.88 102.79 75.89 <
2 -22 5 0 70.11 78.50 91.30 <
2 22 5 1 26.09 117.07 121.69 <
2 -22 5 1 24.86 42.06 117.43 <
2 22 5 2 62.60 61.20 62.74 <
2 -22 5 2 63.92 23.58 69.50 <
3 22 5 -2 72.40 -47.63 109.49 <
3 -22 5 -2 79.30 -58.71 34.42 <
3 22 5 -1 71.67 35.84 77.85 <
3 -22 5 -1 66.11 121.87 146.57 <
-3 -23 5 1 12.36 14.28 59.19 <
-3 23 5 2 61.22 21.86 14.63 <
-3 -23 5 2 62.96 49.41 55.28 <
-2 23 5 -2 24.12 39.81 113.10 <
-2 -23 5 -2 27.67 13.33 119.97 <
-2 23 5 -1 25.85 52.43 63.10 <
-2 -23 5 -1 34.63 -136.86 145.74 <
-2 23 5 0 297.34 76.13 60.31 <
-2 -23 5 0 303.69 135.73 119.38 <
-2 23 5 1 33.70 77.08 68.67 <
-2 -23 5 1 33.18 -30.39 12.68 <
-2 23 5 2 31.53 133.01 133.90 <
-1 23 5 -2 24.45 54.57 78.62 <
-1 -23 5 -2 25.35 68.31 102.85 <
-1 23 5 -1 26.71 -39.22 36.61 <
-1 -23 5 -1 20.17 5.87 219.68 <
-1 23 5 0 40.82 156.76 97.81 <
-1 23 5 1 66.69 -37.03 56.05 <
-1 23 5 2 19.68 -13.33 46.51 <
0 23 5 -2 56.54 127.32 95.74 <
0 -23 5 -2 57.51 69.02 88.99 <
0 23 5 -1 71.41 143.08 88.63 <
0 23 5 0 322.02 162.63 61.08 <
0 23 5 1 249.90 304.11 129.21 <
0 23 5 2 16.36 25.30 74.77 <
1 23 5 -2 14.17 84.01 73.35 <
1 -23 5 -2 19.03 -67.30 129.99 <
1 23 5 -1 197.15 219.09 127.73 <
1 -23 5 -1 195.04 81.64 138.57 <
1 23 5 0 68.85 179.22 109.54 <
1 -23 5 0 61.61 195.57 176.43 <
1 23 5 1 22.81 4.03 79.69 <
1 -23 5 1 25.64 10.01 87.57 <
1 23 5 2 48.94 68.37 14.40 o
1 -23 5 2 42.60 182.77 186.03 <
2 23 5 -2 33.88 50.06 63.10 <
2 -23 5 -2 33.97 90.29 60.25 <
2 23 5 -1 33.87 -19.85 84.54 <
2 -23 5 -1 35.60 61.79 54.39 <
2 23 5 0 227.89 361.81 166.42 <
2 -23 5 0 235.86 379.88 206.83 <
2 23 5 1 299.10 284.73 173.65 <
2 -23 5 1 301.48 269.03 129.69 <
3 23 5 -2 49.69 -85.73 89.11 <
3 -23 5 -2 57.36 -37.27 155.99 <
-2 24 5 -2 25.73 -42.95 141.89 <
-2 -24 5 -2 22.12 50.77 122.46 <
-2 24 5 -1 74.18 148.35 89.05 <
-2 -24 5 -1 86.59 69.61 131.94 <
-2 24 5 0 72.16 38.81 66.71 <
-2 -24 5 0 74.16 138.57 104.33 <
-2 24 5 1 29.48 -32.59 51.66 <
-2 24 5 2 18.02 196.28 168.67 <
-1 24 5 -2 72.00 41.77 67.24 <
-1 -24 5 -2 67.84 130.70 97.52 <
-1 24 5 -1 200.30 304.05 133.12 <
-1 -24 5 -1 196.07 235.92 188.99 <
-1 24 5 0 43.75 52.67 57.76 <
-1 24 5 1 4.90 -31.46 34.42 <
-1 24 5 2 50.77 -4.32 55.87 <
0 24 5 -2 28.76 -0.24 54.62 <
0 24 5 -1 91.12 183.01 102.08 <
0 24 5 0 13.85 17.71 99.95 <
0 24 5 1 29.01 30.27 75.42 <
0 24 5 2 19.63 41.65 107.71 <
1 24 5 -2 90.08 89.28 96.57 <
1 -24 5 -2 89.53 88.69 146.28 <
1 24 5 -1 33.27 121.69 105.28 <
1 -24 5 -1 24.66 262.87 199.78 <
1 24 5 0 43.11 142.13 138.81 <
1 -24 5 0 28.68 103.98 137.09 <
1 24 5 1 82.76 167.66 101.01 <
1 -24 5 1 98.19 181.53 158.42 <
1 24 5 2 6.61 -92.54 95.98 <
2 24 5 -2 39.10 72.40 87.27 <
2 -24 5 -2 36.45 329.76 217.96 <
2 24 5 -1 20.36 49.88 45.80 <
2 -24 5 -1 22.48 -42.36 68.37 <
-1 25 5 -2 43.25 -10.84 35.55 <
-1 -25 5 -2 49.08 0.12 36.44 <
-1 25 5 -1 43.65 -38.15 111.80 <
-1 25 5 0 135.43 285.21 134.49 <
-1 25 5 1 91.95 117.96 99.59 <
-1 25 5 2 12.57 -54.62 27.67 <
0 25 5 -2 7.82 118.49 74.47 <
0 25 5 -1 18.22 -9.12 41.65 <
0 25 5 0 24.28 228.04 136.50 <
0 25 5 1 48.24 -13.80 5.51 <
0 25 5 2 39.30 180.34 178.86 <
1 25 5 -2 17.20 99.89 91.06 <
1 -25 5 -2 16.56 99.30 177.44 <
1 25 5 -1 18.28 -77.14 70.09 <
1 -25 5 -1 20.87 82.41 54.74 <
1 25 5 0 179.75 322.77 189.82 <
-1 26 5 -2 6.12 51.19 69.08 <
-1 26 5 -1 26.49 109.37 144.56 <
-1 26 5 0 113.84 196.81 188.28 <
0 26 5 -2 8.34 -304.05 186.74 <
0 26 5 -1 216.17 195.27 202.21 <
-5 0 6 -2 33.21 25.48 93.67 <
-5 0 6 -1 222.50 272.11 103.86 <
-5 0 6 0 201.49 139.35 72.87 <
-5 0 6 1 44.57 23.52 40.11 <
-5 0 6 2 0.82 16.59 61.38 <
-4 0 6 -2 165.55 556.32 141.66 o
-4 0 6 -1 455.06 596.72 147.05 o
-4 0 6 0 279.15 570.12 136.44 o
-4 0 6 1 59.27 130.58 85.49 <
-4 0 6 2 916.78 210.20 90.71 <
-3 0 6 -2 38.49 115.77 65.70 <
-3 0 6 -1 431.31 1103.51 177.97 o
-3 0 6 0 842.60 890.05 161.56 o
-3 0 6 1 212.08 39.69 35.31 <
-3 0 6 2 74.75 84.25 68.19 <
-2 0 6 -2 3717.19 3247.13 286.33 o
-2 0 6 -1 283.21 259.79 78.50 o
-2 0 6 0 22.49 173.06 65.17 <
-2 0 6 1 16.69 -1.84 19.49 <
-2 0 6 2 385.87 36.08 34.84 <
-1 0 6 -2 292.08 316.67 89.16 o
-1 0 6 -1 250.80 425.38 98.23 o
-1 0 6 0 4356.43 5357.34 303.04 o
-1 0 6 1 56.83 83.77 64.64 <
-1 0 6 2 177.93 235.32 132.65 <
0 0 6 -2 186.32 144.03 79.03 <
0 0 6 0 21523.20 23779.60 1046.87 o
0 0 6 1 28.17 -14.52 19.31 <
0 0 6 2 176.54 107.47 54.62 <
1 0 6 -2 415.77 596.07 187.81 o
1 0 6 -1 96.13 169.15 122.82 <
1 0 6 0 4904.73 4388.38 273.00 o
1 0 6 1 58.13 109.72 50.95 <
1 0 6 2 2.46 10.96 17.06 <
2 0 6 -2 173.12 468.22 109.43 o
2 0 6 -1 316.43 197.29 76.43 <
2 0 6 0 106.42 61.91 27.61 <
2 0 6 1 900.34 722.26 135.97 o
2 0 6 2 2299.62 2212.41 388.71 o
3 0 6 -2 101.01 85.43 55.93 <
3 0 6 -1 316.53 102.20 71.15 <
3 0 6 0 1511.24 1749.40 334.56 o
3 0 6 1 105.17 248.48 145.09 <
3 0 6 2 41.77 77.55 88.51 <
4 0 6 -2 102.42 67.66 61.79 <
4 0 6 -1 299.44 486.76 206.59 <
4 0 6 0 842.44 949.83 282.36 o
4 0 6 1 678.86 1113.34 324.61 o
4 0 6 2 37.18 37.68 93.07 <
5 0 6 -2 165.76 118.08 120.51 <
5 0 6 -1 56.42 -48.05 23.70 <
5 0 6 0 313.77 405.65 195.04 <
5 0 6 1 56.12 37.09 149.36 <
5 0 6 2 36.84 82.94 71.69 <
6 0 6 -2 174.83 318.80 180.76 <
-6 1 6 2 128.01 -2.31 40.11 <
-5 1 6 -2 26.43 61.26 54.57 <
-5 -1 6 -2 26.22 187.10 153.62 <
-5 1 6 -1 631.35 1215.36 218.44 o
-5 -1 6 -1 626.10 1103.39 296.23 o
-5 1 6 0 300.28 220.27 98.47 <
-5 -1 6 0 284.12 209.85 108.66 <
-5 1 6 1 115.33 173.00 77.14 <
-5 -1 6 1 137.02 217.67 91.77 <
-5 1 6 2 22.61 43.66 71.98 <
-5 -1 6 2 23.63 27.25 55.57 <
-4 1 6 -2 139.25 14.52 37.09 <
-4 -1 6 -2 115.42 67.07 72.04 <
-4 1 6 -1 421.99 813.86 164.41 o
-4 -1 6 -1 355.52 663.79 151.02 o
-4 1 6 0 2042.85 2143.68 269.21 o
-4 -1 6 0 2003.67 1960.50 259.50 o
-4 1 6 1 55.80 -8.06 26.25 <
-4 -1 6 1 73.96 23.17 55.51 <
-4 1 6 2 189.29 149.42 87.39 <
-4 -1 6 2 201.46 110.91 82.88 <
-3 1 6 -2 88.13 1.18 64.81 <
-3 -1 6 -2 78.76 60.19 57.82 <
-3 1 6 -1 1639.75 3067.56 292.55 o
-3 -1 6 -1 1591.95 2814.17 274.19 o
-3 1 6 0 4371.78 4315.27 345.58 o
-3 -1 6 0 4278.88 4086.58 340.01 o
-3 1 6 1 527.37 496.06 128.74 o
-3 -1 6 1 576.52 412.11 119.97 o
-3 1 6 2 294.29 260.74 102.20 <
-3 -1 6 2 284.06 258.02 100.30 <
-2 1 6 -2 1090.59 986.02 160.50 o
-2 -1 6 -2 1177.28 920.26 162.51 o
-2 1 6 -1 245.41 370.58 93.61 o
-2 -1 6 -1 160.88 176.73 48.58 o
-2 1 6 0 6446.93 7240.64 392.09 o
-2 -1 6 0 6417.39 7490.12 403.70 o
-2 1 6 1 123.16 25.12 33.59 <
-2 -1 6 1 149.30 -2.43 39.69 <
-2 1 6 2 61.46 69.38 27.61 <
-2 -1 6 2 76.65 22.99 41.18 <
-1 1 6 -2 203.06 23.88 34.18 <
-1 -1 6 -2 189.06 36.02 32.41 <
-1 1 6 -1 1728.85 1756.75 133.95 o
-1 -1 6 -1 1663.84 2190.84 199.78 o
-1 1 6 0 21651.80 27991.40 1025.66 o
-1 -1 6 0 21308.30 26906.10 677.18 o
-1 1 6 1 411.48 537.48 160.67 o
-1 -1 6 1 478.69 400.68 96.16 o
-1 1 6 2 237.04 356.01 149.65 <
-1 -1 6 2 228.60 469.23 164.05 <
0 1 6 -2 351.24 164.47 95.80 <
0 -1 6 -2 344.43 139.40 71.63 <
0 1 6 -1 412.83 740.33 171.93 o
0 1 6 0 14849.50 15808.30 871.56 o
0 -1 6 0 14862.30 17404.10 875.35 o
0 1 6 1 135.49 198.65 113.46 <
0 -1 6 1 146.93 179.63 130.52 <
0 1 6 2 43.80 -84.90 29.33 <
0 -1 6 2 42.89 -9.24 26.13 <
1 1 6 -2 89.57 98.82 53.20 <
1 -1 6 -2 92.91 248.12 112.68 <
1 1 6 -1 1188.16 834.41 84.25 o
1 -1 6 -1 1147.69 1212.34 232.95 o
1 1 6 0 21798.20 26464.30 1144.57 o
1 -1 6 0 21364.00 21852.20 599.86 o
1 1 6 1 336.68 559.16 196.81 <
1 -1 6 1 365.77 445.88 90.05 o
1 1 6 2 37.43 30.33 25.59 <
1 -1 6 2 36.82 -9.30 14.46 <
2 1 6 -2 715.77 344.93 97.76 o
2 -1 6 -2 664.30 264.23 92.07 <
2 1 6 -1 78.85 73.64 51.25 <
2 -1 6 -1 78.19 131.17 64.16 <
2 1 6 0 5484.25 5555.16 335.80 o
2 -1 6 0 5445.45 5395.26 335.03 o
2 1 6 1 54.73 277.03 163.58 <
2 -1 6 1 50.31 170.27 75.30 <
2 1 6 2 554.70 416.50 215.30 <
2 -1 6 2 570.71 482.02 188.93 <
3 1 6 -2 127.37 22.10 37.62 <
3 -1 6 -2 142.19 43.60 52.55 <
3 1 6 -1 591.17 466.97 107.00 o
3 -1 6 -1 585.79 479.89 112.92 o
3 1 6 0 4669.80 4100.98 517.10 o
3 -1 6 0 4554.86 4196.84 325.97 o
3 1 6 1 607.50 359.27 159.79 <
3 -1 6 1 643.71 251.79 145.92 <
3 1 6 2 30.91 112.98 113.63 <
3 -1 6 2 37.08 97.81 83.24 <
4 1 6 -2 274.67 115.35 131.94 <
4 -1 6 -2 257.33 262.40 98.23 <
4 1 6 -1 6.46 214.88 128.38 <
4 -1 6 -1 7.71 -38.87 68.78 <
4 1 6 0 1972.58 1888.75 391.97 o
4 -1 6 0 1906.12 2470.48 442.21 o
4 1 6 1 18.84 203.21 155.22 <
4 -1 6 1 10.76 19.43 87.68 <
4 1 6 2 124.39 210.09 150.72 <
4 -1 6 2 123.44 428.82 229.28 <
5 1 6 -2 84.38 -46.27 36.85 <
5 -1 6 -2 100.93 12.32 32.29 <
5 1 6 -1 99.12 361.34 162.51 <
5 -1 6 -1 98.36 239.00 166.60 <
5 1 6 0 354.61 134.78 84.90 <
5 -1 6 0 337.63 207.30 135.55 <
5 1 6 1 94.15 230.94 159.25 <
5 -1 6 1 97.26 173.23 164.17 <
5 1 6 2 27.20 -88.22 71.21 <
5 -1 6 2 32.15 -41.53 80.75 <
6 1 6 -2 66.31 219.45 162.10 <
6 -1 6 -2 65.59 99.00 109.90 <
6 1 6 -1 3.49 29.62 113.16 <
-6 2 6 2 60.14 -33.30 8.71 <
-5 2 6 -2 70.64 74.59 58.59 <
-5 -2 6 -2 74.00 97.81 107.89 <
-5 2 6 -1 340.47 156.59 81.58 <
-5 -2 6 -1 341.14 329.11 175.60 <
-5 2 6 0 54.93 69.08 57.17 <
-5 -2 6 0 55.14 -3.73 11.67 <
-5 2 6 1 58.50 48.76 47.40 <
-5 -2 6 1 56.21 69.20 73.35 <
-5 2 6 2 306.23 199.66 97.52 <
-5 -2 6 2 334.50 138.34 62.50 <
-4 2 6 -2 65.77 25.95 66.30 <
-4 -2 6 -2 72.48 58.65 77.67 <
-4 2 6 -1 250.56 273.83 90.65 o
-4 -2 6 -1 239.11 244.98 101.43 <
-4 2 6 0 405.74 563.25 131.05 o
-4 -2 6 0 383.46 629.42 152.97 o
-4 2 6 1 342.60 275.31 94.08 <
-4 -2 6 1 313.58 305.71 108.12 <
-4 2 6 2 272.66 89.34 70.27 <
-4 -2 6 2 254.09 105.22 66.24 <
-3 2 6 -2 67.98 30.81 5.87 o
-3 -2 6 -2 63.05 12.74 29.80 <
-3 2 6 -1 761.05 661.42 144.56 o
-3 -2 6 -1 760.42 595.54 129.33 o
-3 2 6 0 558.75 647.79 133.66 o
-3 -2 6 0 550.28 753.84 145.86 o
-3 2 6 1 190.79 87.21 48.88 <
-3 -2 6 1 181.30 110.79 64.40 <
-3 2 6 2 469.28 559.75 137.92 o
-3 -2 6 2 497.67 530.19 137.75 o
-2 2 6 -2 940.36 806.81 146.81 o
-2 -2 6 -2 907.66 716.81 139.11 o
-2 2 6 -1 658.64 847.09 130.34 o
-2 -2 6 -1 617.99 804.32 137.15 o
-2 2 6 0 577.69 608.51 117.78 o
-2 -2 6 0 501.08 614.49 119.91 o
-2 2 6 1 1609.90 1330.48 251.74 o
-2 -2 6 1 1558.22 1311.05 178.92 o
-2 2 6 2 224.15 76.19 85.20 <
-2 -2 6 2 218.13 89.11 53.56 <
-1 2 6 -2 144.04 3.44 24.05 <
-1 -2 6 -2 133.46 29.62 38.57 <
-1 2 6 -1 522.19 832.22 112.51 o
-1 -2 6 -1 532.21 1048.29 144.20 o
-1 2 6 0 1848.54 2634.95 310.57 o
-1 -2 6 0 1867.70 2168.27 143.20 o
-1 2 6 1 513.47 392.92 131.23 <
-1 -2 6 1 507.61 423.07 92.90 o
-1 2 6 2 348.57 321.53 127.79 <
0 2 6 -2 28.06 56.05 33.77 <
0 -2 6 -2 31.30 -0.18 19.02 <
0 2 6 -1 1303.41 1231.48 123.17 o
0 -2 6 -1 1271.61 1611.30 257.72 o
0 2 6 0 9289.51 9769.01 350.26 o
0 -2 6 0 9002.18 10588.30 673.27 o
0 2 6 1 1794.55 1849.77 152.26 o
0 -2 6 1 1752.02 2376.16 345.28 o
0 2 6 2 42.14 116.42 126.67 <
0 -2 6 2 47.36 84.01 42.42 <
1 2 6 -2 121.82 164.47 62.03 <
1 -2 6 -2 114.14 151.31 87.80 <
1 2 6 -1 446.44 396.83 94.38 o
1 -2 6 -1 479.11 264.65 104.63 <
1 2 6 0 2512.45 3285.41 265.54 o
1 -2 6 0 2539.19 2748.34 330.83 o
1 2 6 1 973.79 669.30 125.78 o
1 -2 6 1 1010.78 688.61 114.64 o
1 2 6 2 165.83 134.78 72.16 <
1 -2 6 2 180.59 95.74 55.69 <
2 2 6 -2 178.94 53.56 41.47 <
2 -2 6 -2 175.71 82.23 43.60 <
2 2 6 -1 580.95 323.24 81.40 o
2 -2 6 -1 595.56 295.40 87.62 o
2 2 6 0 557.25 730.20 116.00 o
2 -2 6 0 497.42 683.81 135.26 o
2 2 6 1 1146.05 1838.75 239.23 o
2 -2 6 1 1095.34 1294.87 167.61 o
2 2 6 2 335.26 170.57 166.95 <
2 -2 6 2 297.13 88.87 41.47 <
3 2 6 -2 333.71 284.73 73.76 o
3 -2 6 -2 322.76 345.22 106.70 o
3 2 6 -1 275.93 273.71 101.19 <
3 -2 6 -1 330.04 241.31 88.16 <
3 2 6 0 1172.73 1496.60 304.70 o
3 -2 6 0 1192.35 1096.87 175.13 o
3 2 6 1 82.97 192.67 125.42 <
3 -2 6 1 127.39 370.76 177.56 <
3 2 6 2 28.44 112.21 90.65 <
3 -2 6 2 37.42 64.16 118.49 <
4 2 6 -2 137.00 75.54 92.19 <
4 -2 6 -2 124.79 107.35 54.27 <
4 2 6 -1 203.76 30.33 61.50 <
4 -2 6 -1 206.71 310.15 147.88 <
4 2 6 0 542.68 1087.87 295.64 o
4 -2 6 0 521.88 916.29 281.30 o
4 2 6 1 79.65 122.40 119.26 <
4 -2 6 1 68.07 375.38 193.02 <
4 2 6 2 175.40 337.11 206.71 <
4 -2 6 2 186.63 390.73 209.55 <
5 2 6 -2 200.06 96.57 94.67 <
5 -2 6 -2 192.68 46.92 75.30 <
5 2 6 -1 115.17 -56.05 72.75 <
5 -2 6 -1 141.82 107.89 103.38 <
5 2 6 0 371.52 119.14 32.59 o
5 -2 6 0 373.14 404.23 191.19 <
5 2 6 1 263.03 193.91 149.77 <
5 -2 6 1 274.82 107.53 111.80 <
5 2 6 2 19.54 -78.09 125.48 <
5 -2 6 2 24.30 89.58 98.64 <
6 2 6 -2 68.60 71.21 27.79 <
6 -2 6 -2 54.98 -41.65 37.03 <
6 2 6 -1 17.31 173.41 176.49 <
-6 3 6 1 15.40 -109.96 102.20 <
-6 3 6 2 30.48 -74.23 84.37 <
-5 3 6 -2 92.03 134.31 71.63 <
-5 -3 6 -2 86.24 164.29 124.30 <
-5 3 6 -1 347.22 749.64 239.65 o
-5 -3 6 -1 388.58 983.83 284.79 o
-5 3 6 0 348.11 301.26 173.06 <
-5 -3 6 0 333.78 493.69 209.49 <
-5 3 6 1 46.74 191.24 125.78 <
-5 -3 6 1 56.37 26.72 71.09 <
-5 3 6 2 91.19 108.66 82.06 <
-5 -3 6 2 91.29 33.30 69.85 <
-4 3 6 -2 135.56 92.36 48.23 <
-4 -3 6 -2 128.86 71.98 58.30 <
-4 3 6 -1 122.74 214.53 78.92 <
-4 -3 6 -1 133.71 277.92 91.12 o
-4 3 6 0 2649.71 2295.41 280.65 o
-4 -3 6 0 2700.90 1998.71 257.54 o
-4 3 6 1 16.17 85.02 60.08 <
-4 -3 6 1 15.58 88.99 72.28 <
-4 3 6 2 101.68 114.17 128.62 <
-4 -3 6 2 102.38 135.97 76.55 <
-3 3 6 -2 131.61 260.33 100.36 <
-3 -3 6 -2 118.99 232.84 92.54 <
-3 3 6 -1 82.90 124.30 64.46 <
-3 -3 6 -1 136.15 124.89 97.81 <
-3 3 6 0 1862.01 1836.38 226.85 o
-3 -3 6 0 1808.62 2030.46 232.01 o
-3 3 6 1 298.98 230.70 112.03 <
-3 -3 6 1 320.78 298.36 99.35 o
-3 3 6 2 117.50 93.49 116.36 <
-3 -3 6 2 105.22 118.02 65.94 <
-2 3 6 -2 16.64 18.31 21.33 <
-2 -3 6 -2 19.58 22.69 35.37 <
-2 3 6 -1 405.88 1208.91 237.75 o
-2 -3 6 -1 452.36 1143.91 162.69 o
-2 3 6 0 14706.50 16437.50 843.95 o
-2 -3 6 0 14938.40 16919.90 607.56 o
-2 3 6 1 284.30 207.06 126.25 <
-2 -3 6 1 254.41 312.82 104.04 o
-2 3 6 2 93.53 350.61 156.71 <
-2 -3 6 2 94.54 248.71 86.32 <
-1 3 6 -2 106.57 140.41 54.98 <
-1 -3 6 -2 103.89 166.84 68.13 <
-1 3 6 -1 7512.35 7772.73 524.15 o
-1 -3 6 -1 7612.04 7247.04 353.76 o
-1 3 6 0 3595.27 3629.68 363.29 o
-1 -3 6 0 3564.96 4143.34 266.31 o
-1 3 6 1 54.31 29.62 12.50 <
-1 -3 6 1 76.09 130.04 58.00 <
-1 3 6 2 32.02 23.34 60.13 <
-1 -3 6 2 30.82 17.60 2.78 o
0 3 6 -2 123.44 44.20 23.28 <
0 -3 6 -2 118.50 93.61 58.12 <
0 3 6 -1 516.11 652.47 93.79 o
0 -3 6 -1 553.90 645.01 105.10 o
0 3 6 0 39854.60 43694.90 741.58 o
0 -3 6 0 40296.30 46827.90 1382.32 o
0 3 6 1 434.10 450.80 86.50 o
0 -3 6 1 406.40 566.03 184.91 o
0 3 6 2 9.38 85.91 33.65 <
0 -3 6 2 9.70 227.74 135.26 <
1 3 6 -2 64.15 23.58 38.63 <
1 -3 6 -2 79.40 38.87 48.11 <
1 3 6 -1 44.90 31.04 21.86 <
1 -3 6 -1 24.06 2.37 129.87 <
1 3 6 0 3741.93 4361.78 315.78 o
1 -3 6 0 3679.63 4087.29 406.66 o
1 3 6 1 3374.18 2806.88 261.21 o
1 -3 6 1 3251.99 2427.05 216.84 o
1 3 6 2 166.32 44.91 54.45 <
1 -3 6 2 162.63 50.71 43.90 <
2 3 6 -2 285.96 231.29 87.33 <
2 -3 6 -2 261.61 230.46 79.45 <
2 3 6 -1 31.60 80.93 51.84 <
2 -3 6 -1 38.44 85.37 64.70 <
2 3 6 0 13044.00 15926.60 654.07 o
2 -3 6 0 13174.60 16190.20 913.92 o
2 3 6 1 378.34 861.55 173.23 o
2 -3 6 1 359.10 434.98 99.18 o
2 3 6 2 767.58 736.07 170.98 o
2 -3 6 2 790.41 383.32 105.34 o
3 3 6 -2 42.01 -2.25 28.91 <
3 -3 6 -2 57.27 98.94 64.34 <
3 3 6 -1 226.14 132.77 69.26 <
3 -3 6 -1 215.56 202.62 72.22 <
3 3 6 0 2070.91 2462.19 272.65 o
3 -3 6 0 2015.38 2010.68 225.25 o
3 3 6 1 316.20 381.60 176.08 <
3 -3 6 1 363.42 312.82 193.32 <
3 3 6 2 30.12 0.65 44.91 <
3 -3 6 2 27.95 237.46 132.00 <
4 3 6 -2 308.07 627.53 220.93 <
4 -3 6 -2 273.90 409.27 129.75 o
4 3 6 -1 3.78 157.36 105.93 <
4 -3 6 -1 4.77 119.79 88.75 <
4 3 6 0 2226.84 2114.06 404.17 o
4 -3 6 0 2231.73 2546.38 452.28 o
4 3 6 1 180.75 244.39 165.89 <
4 -3 6 1 185.98 434.45 225.67 <
4 3 6 2 8.87 38.15 100.66 <
4 -3 6 2 8.80 24.11 67.72 <
5 3 6 -2 15.43 -141.48 122.16 <
5 -3 6 -2 19.23 51.07 115.35 <
5 3 6 -1 35.35 43.96 91.24 <
5 -3 6 -1 36.19 109.72 105.64 <
5 3 6 0 396.29 63.27 98.64 <
5 -3 6 0 375.68 534.99 211.98 <
5 3 6 1 25.78 17.66 93.31 <
5 -3 6 1 19.44 177.80 137.57 <
5 3 6 2 9.70 -86.56 152.85 <
5 -3 6 2 7.64 74.35 40.29 <
6 3 6 -2 70.74 45.68 85.61 <
6 -3 6 -2 60.52 122.58 111.80 <
6 3 6 -1 2.98 172.29 188.10 <
-6 4 6 1 73.39 15.70 58.48 <
-6 4 6 2 34.32 -14.93 79.98 <
-5 4 6 -2 118.48 92.36 65.41 <
-5 -4 6 -2 122.54 99.12 101.72 <
-5 4 6 -1 481.83 690.33 250.31 <
-5 -4 6 -1 503.61 585.41 208.96 <
-5 4 6 0 59.39 42.72 63.75 <
-5 -4 6 0 55.59 134.07 113.93 <
-5 4 6 1 415.35 247.29 150.54 <
-5 -4 6 1 403.76 229.58 152.26 <
-5 4 6 2 122.73 62.92 59.84 <
-5 -4 6 2 137.35 107.41 79.09 <
-4 4 6 -2 41.62 -58.59 86.08 <
-4 -4 6 -2 31.46 58.12 60.19 <
-4 4 6 -1 187.57 234.61 144.03 <
-4 -4 6 -1 161.00 298.83 98.76 o
-4 4 6 0 59.00 211.98 125.07 <
-4 -4 6 0 54.43 247.35 96.51 <
-4 4 6 1 401.90 345.22 182.24 <
-4 -4 6 1 433.21 308.37 108.66 <
-4 4 6 2 188.18 49.11 81.82 <
-4 -4 6 2 190.30 20.68 35.67 <
-3 4 6 -2 120.57 74.53 55.39 <
-3 -4 6 -2 122.94 69.55 57.17 <
-3 4 6 -1 1218.51 1764.81 311.16 o
-3 -4 6 -1 1226.94 1566.75 208.01 o
-3 4 6 0 194.49 52.20 54.21 <
-3 -4 6 0 186.61 71.98 68.01 <
-3 4 6 1 1174.69 957.76 240.24 o
-3 -4 6 1 1143.37 986.97 171.34 o
-3 4 6 2 146.87 24.76 42.12 <
-3 -4 6 2 158.76 29.74 27.31 <
-2 4 6 -2 131.51 16.53 9.42 <
-2 -4 6 -2 114.03 74.18 43.72 <
-2 4 6 -1 546.75 482.61 96.57 o
-2 -4 6 -1 512.60 699.75 129.21 o
-2 4 6 0 202.91 249.07 62.44 o
-2 -4 6 0 200.29 315.60 82.94 o
-2 4 6 1 865.80 561.71 105.99 o
-2 -4 6 1 891.73 871.38 143.55 o
-2 4 6 2 299.90 104.98 56.99 <
-2 -4 6 2 317.26 159.37 76.72 <
-1 4 6 -2 84.90 82.47 33.24 <
-1 -4 6 -2 90.25 99.41 41.47 <
-1 4 6 -1 814.10 807.70 89.05 o
-1 -4 6 -1 825.82 1064.29 149.60 o
-1 4 6 0 100.53 128.09 49.06 <
-1 -4 6 0 58.28 142.60 74.71 <
-1 4 6 1 770.55 657.39 98.23 o
-1 -4 6 1 774.16 816.94 153.21 o
-1 4 6 2 86.62 30.33 19.14 <
-1 -4 6 2 71.21 110.61 64.10 <
0 4 6 -2 62.70 75.12 30.57 <
0 -4 6 -2 57.33 46.27 39.75 <
0 4 6 -1 1377.31 1263.29 128.09 o
0 -4 6 -1 1371.46 1317.39 140.18 o
0 4 6 0 136.23 324.01 66.30 o
0 -4 6 0 131.51 295.22 76.90 o
0 4 6 1 429.46 353.76 77.37 o
0 -4 6 1 427.82 496.30 181.59 <
0 4 6 2 227.04 211.09 72.16 <
0 -4 6 2 222.62 226.26 125.54 <
1 4 6 -2 63.99 33.24 32.70 <
1 -4 6 -2 65.26 -34.66 58.53 <
1 4 6 -1 19.16 69.50 42.60 <
1 -4 6 -1 21.42 32.88 56.99 <
1 4 6 0 13.16 98.64 38.51 <
1 -4 6 0 1.79 171.40 89.52 <
1 4 6 1 1770.68 1717.35 219.03 o
1 -4 6 1 1956.86 2078.51 322.59 o
1 4 6 2 251.51 118.73 50.12 <
1 -4 6 2 262.65 135.49 62.92 <
2 4 6 -2 180.79 126.13 56.94 <
2 -4 6 -2 182.65 63.27 32.53 <
2 4 6 -1 996.47 934.66 157.00 o
2 -4 6 -1 1029.17 821.80 134.13 o
2 4 6 0 273.81 518.70 124.59 o
2 -4 6 0 299.22 480.30 108.30 o
2 4 6 1 220.97 196.70 90.71 <
2 -4 6 1 198.93 272.23 81.82 o
2 4 6 2 62.55 117.07 79.09 <
2 -4 6 2 42.41 59.07 47.63 <
3 4 6 -2 29.86 22.69 47.46 <
3 -4 6 -2 34.94 -32.53 22.87 <
3 4 6 -1 295.52 286.45 104.98 <
3 -4 6 -1 301.06 365.72 106.40 o
3 4 6 0 26.39 162.27 75.66 <
3 -4 6 0 27.17 141.24 70.80 <
3 4 6 1 233.96 344.51 113.63 o
3 -4 6 1 276.97 320.64 91.53 o
3 4 6 2 63.98 67.48 46.39 <
3 -4 6 2 76.27 179.75 132.29 <
4 4 6 -2 513.89 230.17 111.32 <
4 -4 6 -2 518.81 94.14 59.72 <
4 4 6 -1 380.24 345.11 118.96 <
4 -4 6 -1 406.34 67.42 48.29 <
4 4 6 0 217.96 268.98 161.74 <
4 -4 6 0 237.08 812.08 259.50 o
4 4 6 1 206.42 306.00 169.03 <
4 -4 6 1 184.16 112.03 91.77 <
4 4 6 2 46.07 108.54 121.87 <
4 -4 6 2 35.81 76.90 15.46 o
5 4 6 -2 21.27 -24.35 67.24 <
5 -4 6 -2 25.90 45.32 94.73 <
5 4 6 -1 98.88 -22.57 77.08 <
5 -4 6 -1 108.20 30.57 83.00 <
5 4 6 0 12.30 -55.39 91.65 <
5 -4 6 0 12.41 106.29 125.90 <
5 4 6 1 261.52 243.38 164.70 <
5 -4 6 1 275.29 353.99 170.80 <
5 4 6 2 19.47 -193.08 138.40 <
6 4 6 -2 92.42 198.59 157.65 <
6 -4 6 -2 91.64 -72.28 117.54 <
6 4 6 -1 113.86 170.57 184.91 <
-6 5 6 2 6.25 21.45 76.66 <
-5 5 6 -2 24.23 64.04 85.20 <
-5 -5 6 -2 26.79 176.49 118.31 <
-5 5 6 -1 85.03 25.77 36.55 <
-5 -5 6 -1 95.46 56.82 35.96 <
-5 5 6 0 2000.25 1982.06 420.88 o
-5 -5 6 0 1954.31 2023.18 406.07 o
-5 5 6 1 171.42 82.77 101.96 <
-5 -5 6 1 185.59 114.05 126.43 <
-5 5 6 2 95.61 143.79 143.08 <
-5 -5 6 2 97.87 133.42 117.07 <
-4 5 6 -2 37.75 61.02 99.47 <
-4 -5 6 -2 37.24 177.38 102.44 <
-4 5 6 -1 325.78 413.65 181.71 <
-4 -5 6 -1 358.77 265.89 85.08 o
-4 5 6 0 97.21 168.08 136.68 <
-4 -5 6 0 111.09 105.52 52.55 <
-4 5 6 1 440.65 312.34 151.96 <
-4 -5 6 1 454.84 335.15 105.58 o
-4 5 6 2 133.77 24.11 88.04 <
-4 -5 6 2 133.60 -19.25 25.83 <
-3 5 6 -2 67.74 205.23 114.64 <
-3 -5 6 -2 58.59 97.93 58.65 <
-3 5 6 -1 2741.33 3098.25 414.66 o
-3 -5 6 -1 2828.92 3099.91 282.72 o
-3 5 6 0 7850.77 8775.40 693.94 o
-3 -5 6 0 7790.33 7377.50 443.63 o
-3 5 6 1 299.11 11.67 59.48 <
-3 -5 6 1 321.61 -56.64 42.54 <
-3 5 6 2 222.48 66.47 53.85 <
-3 -5 6 2 233.54 49.29 60.43 <
-2 5 6 -2 181.27 167.31 59.66 <
-2 -5 6 -2 192.77 276.62 84.48 o
-2 5 6 -1 1291.36 1253.76 149.77 o
-2 -5 6 -1 1378.96 1512.24 184.25 o
-2 5 6 0 1290.51 1134.97 144.62 o
-2 -5 6 0 1328.38 1319.52 168.67 o
-2 5 6 1 713.69 389.36 86.68 o
-2 -5 6 1 707.24 446.59 103.56 o
-2 5 6 2 112.71 74.77 50.48 <
-2 -5 6 2 125.58 143.02 67.13 <
-1 5 6 -2 305.45 76.60 29.86 <
-1 -5 6 -2 312.52 95.68 55.28 <
-1 5 6 -1 2312.51 1673.69 122.22 o
-1 -5 6 -1 2243.96 1975.37 240.24 o
-1 5 6 0 17805.50 17975.10 470.71 o
-1 -5 6 0 17984.90 19209.60 719.48 o
-1 5 6 1 361.23 222.76 63.99 o
-1 -5 6 1 397.27 336.99 104.27 o
-1 5 6 2 70.27 -1.30 16.35 <
-1 -5 6 2 84.21 -29.68 21.86 <
0 5 6 -2 203.17 257.95 64.93 o
0 -5 6 -2 217.83 185.50 59.96 o
0 5 6 -1 1446.82 1071.40 121.75 o
0 -5 6 -1 1547.33 1055.58 133.12 o
0 5 6 0 4541.74 5362.20 270.58 o
0 -5 6 0 4520.72 5564.94 283.08 o
0 5 6 1 294.62 318.86 73.29 o
0 -5 6 1 271.92 244.92 68.84 o
0 5 6 2 95.17 156.71 53.38 <
0 -5 6 2 109.29 206.18 105.46 <
1 5 6 -2 210.76 53.38 26.48 <
1 -5 6 -2 212.74 74.29 59.19 <
1 5 6 -1 904.73 621.84 91.65 o
1 -5 6 -1 899.32 748.63 175.01 o
1 5 6 0 16430.70 17408.20 477.93 o
1 -5 6 0 16477.10 19765.00 886.67 o
1 5 6 1 6268.41 5206.21 273.60 o
1 -5 6 1 6107.55 5869.82 519.94 o
1 5 6 2 31.13 -16.94 34.36 <
1 -5 6 2 32.33 41.12 19.37 <
2 5 6 -2 406.43 93.37 56.58 <
2 -5 6 -2 398.06 91.48 54.09 <
2 5 6 -1 311.87 233.19 73.64 o
2 -5 6 -1 341.07 259.67 81.76 o
2 5 6 0 1214.04 1308.79 182.89 o
2 -5 6 0 1204.20 1125.67 158.24 o
2 5 6 1 109.93 148.94 72.69 <
2 -5 6 1 96.42 124.53 61.32 <
2 5 6 2 248.87 160.62 87.03 <
2 -5 6 2 245.54 137.98 51.01 <
3 5 6 -2 240.28 63.75 51.72 <
3 -5 6 -2 246.20 47.57 51.37 <
3 5 6 -1 70.10 115.59 49.83 <
3 -5 6 -1 81.17 85.79 54.68 <
3 5 6 0 7008.28 7238.51 468.04 o
3 -5 6 0 6914.93 6003.77 397.83 o
3 5 6 1 216.44 301.26 99.83 o
3 -5 6 1 191.24 400.62 111.14 o
3 5 6 2 35.79 4.09 42.42 <
3 -5 6 2 33.77 77.43 114.17 <
4 5 6 -2 346.61 125.30 66.41 <
4 -5 6 -2 337.19 89.64 76.37 <
4 5 6 -1 30.66 204.10 107.12 <
4 -5 6 -1 31.67 4.32 37.74 <
4 5 6 0 145.41 224.60 97.16 <
4 -5 6 0 154.63 421.12 188.76 <
4 5 6 1 135.57 455.72 193.79 <
4 -5 6 1 142.66 341.02 174.60 <
4 5 6 2 35.90 0.36 99.35 <
4 -5 6 2 33.67 82.59 114.05 <
5 5 6 -2 63.64 -46.45 75.48 <
5 -5 6 -2 69.65 86.79 68.90 <
5 5 6 -1 14.89 -65.35 49.53 <
5 -5 6 -1 17.41 84.84 110.79 <
5 5 6 0 1607.78 1102.92 307.78 o
5 -5 6 0 1553.59 1666.70 399.20 o
5 5 6 1 306.30 270.69 156.88 <
5 -5 6 1 286.07 463.36 232.66 <
5 5 6 2 9.51 -216.96 146.46 <
6 5 6 -2 53.90 73.46 52.79 <
6 -5 6 -2 51.54 114.17 85.25 <
6 5 6 -1 6.50 44.49 103.86 <
-5 6 6 -2 24.72 -34.42 59.30 <
-5 -6 6 -2 20.52 65.05 91.48 <
-5 6 6 -1 291.80 453.23 199.60 <
-5 -6 6 -1 318.83 209.61 150.25 <
-5 6 6 0 19.72 19.37 41.89 <
-5 -6 6 0 16.16 140.65 121.45 <
-5 6 6 1 104.71 21.62 97.10 <
-5 -6 6 1 96.25 383.97 182.83 <
-5 6 6 2 221.64 99.35 132.95 <
-5 -6 6 2 234.99 20.56 71.33 <
-4 6 6 -2 98.88 0.83 35.61 <
-4 -6 6 -2 96.50 218.79 127.79 <
-4 6 6 -1 279.46 171.69 105.10 <
-4 -6 6 -1 250.53 99.89 55.63 <
-4 6 6 0 145.04 435.69 183.01 <
-4 -6 6 0 161.58 421.77 116.77 o
-4 6 6 1 158.55 6.58 48.58 <
-4 -6 6 1 158.64 0.89 32.82 <
-4 6 6 2 314.86 168.79 129.10 <
-4 -6 6 2 318.02 167.25 82.65 <
-3 6 6 -2 64.13 54.74 94.44 <
-3 -6 6 -2 54.41 26.66 38.27 <
-3 6 6 -1 177.64 302.33 150.01 <
-3 -6 6 -1 210.52 297.29 94.73 o
-3 6 6 0 114.01 61.26 17.24 o
-3 -6 6 0 98.49 107.71 67.42 <
-3 6 6 1 334.67 498.20 190.30 <
-3 -6 6 1 306.55 336.52 103.62 o
-3 6 6 2 214.41 52.31 69.14 <
-3 -6 6 2 210.03 54.27 55.69 <
-2 6 6 -2 55.23 25.71 44.49 <
-2 -6 6 -2 46.08 28.26 48.94 <
-2 6 6 -1 620.49 729.55 117.60 o
-2 -6 6 -1 580.32 650.10 117.13 o
-2 6 6 0 256.26 126.79 56.11 <
-2 -6 6 0 291.87 198.71 65.05 o
-2 6 6 1 224.12 60.31 44.32 <
-2 -6 6 1 220.28 106.46 55.69 <
-2 6 6 2 190.95 105.34 54.57 <
-2 -6 6 2 199.49 123.35 65.88 <
-1 6 6 -2 61.50 -14.40 21.45 <
-1 -6 6 -2 63.12 -16.00 19.02 <
-1 6 6 -1 719.79 450.44 73.05 o
-1 -6 6 -1 801.35 566.92 145.39 o
-1 6 6 0 341.55 105.87 36.26 <
-1 -6 6 0 297.01 108.83 49.41 <
-1 6 6 1 1648.48 1331.90 147.46 o
-1 -6 6 1 1612.88 1409.57 164.82 o
-1 6 6 2 54.39 71.75 44.02 <
-1 -6 6 2 49.36 15.23 33.95 <
0 6 6 -2 33.07 26.54 22.10 <
0 -6 6 -2 30.89 36.50 31.40 <
0 6 6 -1 920.09 1197.41 135.02 o
0 -6 6 -1 932.77 1044.09 126.79 o
0 6 6 0 1592.96 2033.49 171.46 o
0 -6 6 0 1687.13 1969.86 170.15 o
0 6 6 1 512.52 398.19 82.11 o
0 -6 6 1 504.74 323.78 71.98 o
0 6 6 2 31.01 55.57 40.23 <
0 -6 6 2 39.55 80.40 73.76 <
1 6 6 -2 377.51 167.25 53.50 o
1 -6 6 -2 365.97 206.83 63.16 o
1 6 6 -1 1169.58 960.37 110.79 o
1 -6 6 -1 1142.01 1161.75 216.48 o
1 6 6 0 275.13 129.21 48.52 <
1 -6 6 0 245.89 169.98 81.52 <
1 6 6 1 197.07 283.19 65.70 o
1 -6 6 1 183.73 364.06 145.09 <
1 6 6 2 163.46 128.15 59.42 <
1 -6 6 2 183.13 115.53 66.71 <
2 6 6 -2 444.23 220.63 55.51 o
2 -6 6 -2 425.27 233.90 73.41 o
2 6 6 -1 114.51 85.31 48.82 <
2 -6 6 -1 147.55 63.51 49.29 <
2 6 6 0 180.11 339.60 80.69 o
2 -6 6 0 213.42 239.00 85.49 <
2 6 6 1 292.02 324.19 76.43 o
2 -6 6 1 284.98 300.32 89.34 o
2 6 6 2 504.79 606.08 152.91 o
2 -6 6 2 502.87 500.39 125.07 o
3 6 6 -2 394.00 138.22 64.58 <
3 -6 6 -2 362.34 164.05 65.64 <
3 6 6 -1 1652.59 1402.88 206.06 o
3 -6 6 -1 1699.05 1449.50 198.89 o
3 6 6 0 151.21 149.95 77.91 <
3 -6 6 0 146.99 108.60 65.41 <
3 6 6 1 1153.98 1531.91 224.90 o
3 -6 6 1 1260.57 1532.03 212.99 o
3 6 6 2 270.52 440.25 128.44 o
3 -6 6 2 287.89 365.43 110.49 o
4 6 6 -2 358.88 400.08 131.35 o
4 -6 6 -2 345.34 316.85 110.55 <
4 6 6 -1 56.98 23.82 66.47 <
4 -6 6 -1 69.84 -7.05 56.82 <
4 6 6 0 165.56 547.84 160.44 o
4 -6 6 0 183.39 400.38 125.19 o
4 6 6 1 165.07 103.15 84.48 <
4 -6 6 1 156.12 200.31 141.83 <
4 6 6 2 35.39 138.10 68.37 <
4 -6 6 2 35.73 168.49 117.90 <
5 6 6 -2 166.13 110.43 92.60 <
5 -6 6 -2 150.13 58.53 60.79 <
5 6 6 -1 502.87 124.00 75.78 <
5 -6 6 -1 533.08 353.64 211.86 <
5 6 6 0 58.22 -68.78 109.84 <
5 -6 6 0 59.45 268.20 158.90 <
5 6 6 1 62.41 44.61 21.57 <
5 -6 6 1 86.62 0.71 48.70 <
5 6 6 2 119.72 9.30 71.63 <
6 6 6 -2 129.01 132.89 83.95 <
6 -6 6 -2 120.96 239.65 182.48 <
6 6 6 -1 39.36 15.40 111.08 <
-5 7 6 -2 28.72 21.62 35.37 <
-5 -7 6 -2 33.72 -77.43 74.00 <
-5 7 6 -1 78.25 -193.44 154.81 <
-5 -7 6 -1 87.54 141.24 103.32 <
-5 7 6 0 53.57 166.95 142.07 <
-5 -7 6 0 59.39 91.24 123.29 <
-5 7 6 1 91.50 38.45 74.29 <
-5 -7 6 1 89.15 33.83 111.03 <
-5 7 6 2 16.70 108.78 94.73 <
-5 -7 6 2 18.20 103.80 82.35 <
-4 7 6 -2 99.65 113.81 115.53 <
-4 -7 6 -2 101.55 193.97 138.28 <
-4 7 6 -1 129.08 50.89 86.74 <
-4 -7 6 -1 108.10 152.20 99.83 <
-4 7 6 0 2264.28 2715.58 462.12 o
-4 -7 6 0 2233.67 2120.40 264.59 o
-4 7 6 1 122.24 48.88 76.49 <
-4 -7 6 1 122.81 55.87 31.46 <
-4 7 6 2 108.45 142.13 127.44 <
-4 -7 6 2 117.66 120.68 67.13 <
-3 7 6 -2 46.09 -75.48 80.81 <
-3 -7 6 -2 44.32 50.30 58.71 <
-3 7 6 -1 411.90 140.83 79.57 <
-3 -7 6 -1 392.55 261.33 92.30 <
-3 7 6 0 465.46 547.37 185.44 <
-3 -7 6 0 534.49 487.65 117.07 o
-3 7 6 1 236.24 -12.15 51.66 <
-3 -7 6 1 223.19 90.05 66.89 <
-3 7 6 2 44.22 169.38 122.05 <
-3 -7 6 2 39.42 61.97 48.52 <
-2 7 6 -2 718.33 735.71 136.15 o
-2 -7 6 -2 715.89 887.50 154.34 o
-2 7 6 -1 643.30 555.19 105.81 o
-2 -7 6 -1 641.02 702.36 127.08 o
-2 7 6 0 8878.84 9763.32 681.80 o
-2 -7 6 0 8774.69 9486.35 457.14 o
-2 7 6 1 151.23 122.99 64.28 <
-2 -7 6 1 152.65 172.88 74.47 <
-2 7 6 2 56.08 -9.95 16.06 <
-2 -7 6 2 64.46 2.90 36.97 <
-1 7 6 -2 261.77 156.23 44.38 o
-1 -7 6 -2 248.85 238.40 111.14 <
-1 7 6 -1 53.06 44.79 28.02 <
-1 -7 6 -1 43.79 26.07 27.13 <
-1 7 6 0 3467.81 3982.84 212.22 o
-1 -7 6 0 3773.28 3921.29 257.07 o
-1 7 6 1 315.03 287.22 83.89 o
-1 -7 6 1 291.35 222.29 77.49 <
-1 7 6 2 71.59 151.37 60.67 <
-1 -7 6 2 64.08 146.22 68.19 <
0 7 6 -2 146.35 52.61 29.03 <
0 -7 6 -2 136.06 122.99 45.44 <
0 7 6 -1 796.48 753.07 109.31 o
0 -7 6 -1 817.84 744.42 101.72 o
0 7 6 0 8033.92 9177.38 370.23 o
0 -7 6 0 7938.15 8361.51 325.38 o
0 7 6 1 242.72 103.21 46.57 <
0 -7 6 1 273.20 126.79 35.07 o
0 7 6 2 81.04 66.59 46.15 <
0 -7 6 2 80.48 39.64 37.86 <
1 7 6 -2 159.51 114.34 39.75 <
1 -7 6 -2 150.19 103.62 42.54 <
1 7 6 -1 396.92 342.80 67.24 o
1 -7 6 -1 371.18 406.19 134.84 o
1 7 6 0 2999.76 3881.53 242.61 o
1 -7 6 0 3241.32 3783.96 398.84 o
1 7 6 1 49.47 27.25 34.42 <
1 -7 6 1 62.80 77.91 87.21 <
1 7 6 2 184.77 106.35 42.78 <
1 -7 6 2 185.51 105.04 66.95 <
2 7 6 -2 192.02 -6.81 34.90 <
2 -7 6 -2 193.89 -6.28 33.65 <
2 7 6 -1 262.99 75.66 34.90 <
2 -7 6 -1 257.79 174.54 66.65 <
2 7 6 0 9817.56 9516.03 363.17 o
2 -7 6 0 9778.77 10009.50 488.89 o
2 7 6 1 31.94 59.13 36.02 <
2 -7 6 1 45.23 62.62 55.75 <
2 7 6 2 992.75 736.66 167.43 o
2 -7 6 2 995.19 822.15 151.61 o
3 7 6 -2 106.00 2.49 39.75 <
3 -7 6 -2 110.49 108.78 69.14 <
3 7 6 -1 207.31 -22.04 21.57 <
3 -7 6 -1 200.08 -77.97 41.71 <
3 7 6 0 301.84 432.79 119.32 o
3 -7 6 0 351.39 255.53 80.81 o
3 7 6 1 194.95 559.63 153.27 o
3 -7 6 1 223.00 479.59 120.03 o
3 7 6 2 21.98 40.11 40.11 <
3 -7 6 2 26.01 32.88 42.78 <
4 7 6 -2 83.33 54.74 48.52 <
4 -7 6 -2 84.14 115.88 50.65 <
4 7 6 -1 129.03 18.37 57.71 <
4 -7 6 -1 123.98 -46.39 32.29 <
4 7 6 0 2569.39 1801.01 358.61 o
4 -7 6 0 2532.48 2073.54 268.74 o
4 7 6 1 44.25 75.12 84.19 <
4 -7 6 1 38.49 99.41 86.26 <
4 7 6 2 76.87 143.91 85.20 <
4 -7 6 2 75.38 -77.43 107.83 <
5 7 6 -2 23.69 30.99 34.54 <
5 -7 6 -2 30.03 27.08 59.25 <
5 7 6 -1 42.87 88.69 103.21 <
5 -7 6 -1 41.72 6.69 43.49 <
5 7 6 0 5.86 13.63 15.05 <
5 -7 6 0 8.10 -72.40 111.62 <
5 7 6 1 80.57 84.19 93.79 <
5 -7 6 1 86.54 126.07 144.80 <
5 7 6 2 7.27 260.74 179.69 <
6 7 6 -2 17.15 140.95 140.65 <
-5 8 6 -2 22.64 231.71 166.18 <
-5 -8 6 -2 21.58 189.76 107.18 <
-5 8 6 -1 74.50 -52.14 102.38 <
-5 -8 6 -1 67.00 37.27 33.59 <
-5 8 6 0 52.83 86.26 98.23 <
-5 -8 6 0 54.86 -4.62 81.82 <
-5 8 6 1 137.53 186.39 174.54 <
-5 -8 6 1 132.65 249.48 144.62 <
-5 8 6 2 10.66 -7.35 36.14 <
-5 -8 6 2 10.35 -29.33 84.43 <
-4 8 6 -2 201.17 162.04 113.87 <
-4 -8 6 -2 205.79 358.08 162.04 <
-4 8 6 -1 1300.94 1845.03 380.06 o
-4 -8 6 -1 1250.26 1499.03 332.90 o
-4 8 6 0 154.14 367.32 179.10 <
-4 -8 6 0 154.96 288.47 144.50 <
-4 8 6 1 409.91 399.43 185.14 <
-4 -8 6 1 393.63 121.75 73.76 <
-4 8 6 2 274.04 245.45 158.60 <
-4 -8 6 2 247.63 122.99 80.57 <
-3 8 6 -2 90.01 79.69 117.90 <
-3 -8 6 -2 85.58 279.88 94.56 <
-3 8 6 -1 60.42 30.33 93.13 <
-3 -8 6 -1 39.53 7.29 25.89 <
-3 8 6 0 413.85 344.45 148.82 <
-3 -8 6 0 411.35 344.69 100.95 o
-3 8 6 1 670.01 630.85 203.86 o
-3 -8 6 1 676.99 603.48 135.85 o
-3 8 6 2 101.93 88.63 104.81 <
-3 -8 6 2 96.17 103.21 60.31 <
-2 8 6 -2 2413.38 1645.96 195.69 o
-2 -8 6 -2 2405.17 1647.86 202.09 o
-2 8 6 -1 2236.76 1958.42 204.63 o
-2 -8 6 -1 2180.48 2112.99 220.93 o
-2 8 6 0 603.20 778.96 133.12 o
-2 -8 6 0 536.12 939.52 148.41 o
-2 8 6 1 161.76 62.33 49.53 <
-2 -8 6 1 167.71 232.78 77.79 <
-2 8 6 2 345.47 130.58 62.21 <
-2 -8 6 2 329.09 358.79 106.64 o
-1 8 6 -2 153.39 114.34 40.29 <
-1 -8 6 -2 146.13 198.41 88.16 <
-1 8 6 -1 660.73 454.18 74.35 o
-1 -8 6 -1 610.09 561.83 101.13 o
-1 8 6 0 433.32 480.84 82.06 o
-1 -8 6 0 419.51 481.79 89.52 o
-1 8 6 1 787.91 896.56 130.70 o
-1 -8 6 1 813.52 792.17 123.41 o
-1 8 6 2 80.61 73.29 40.11 <
-1 -8 6 2 79.11 64.52 50.18 <
0 8 6 -2 31.21 128.80 49.00 <
0 -8 6 -2 32.49 121.99 46.57 <
0 8 6 -1 610.82 500.51 92.07 o
0 -8 6 -1 617.94 373.19 70.15 o
0 8 6 0 3972.01 4727.27 275.37 o
0 -8 6 0 4098.04 4403.01 235.21 o
0 8 6 1 89.12 55.69 39.10 <
0 -8 6 1 61.67 98.64 31.04 o
0 8 6 2 222.89 143.37 57.05 <
0 -8 6 2 208.80 136.03 87.80 <
1 8 6 -2 267.00 228.81 62.50 o
1 -8 6 -2 270.17 235.21 65.29 o
1 8 6 -1 745.61 343.39 67.30 o
1 -8 6 -1 715.45 309.74 73.46 o
1 8 6 0 457.59 436.64 75.06 o
1 -8 6 0 429.98 605.84 160.79 o
1 8 6 1 76.09 27.13 40.35 <
1 -8 6 1 70.24 62.09 63.75 <
1 8 6 2 107.13 78.68 39.46 <
1 -8 6 2 99.16 62.74 62.33 <
2 8 6 -2 236.78 112.80 37.74 <
2 -8 6 -2 252.01 94.91 58.95 <
2 8 6 -1 105.84 87.15 39.58 <
2 -8 6 -1 65.43 86.26 49.77 <
2 8 6 0 1601.68 1554.25 202.80 o
2 -8 6 0 1599.59 1482.86 194.27 o
2 8 6 1 750.60 850.89 153.27 o
2 -8 6 1 674.63 869.19 149.60 o
2 8 6 2 445.02 225.13 87.74 <
2 -8 6 2 435.86 360.69 100.95 o
3 8 6 -2 171.67 232.54 96.27 <
3 -8 6 -2 184.29 246.46 95.50 <
3 8 6 -1 449.50 221.10 88.16 <
3 -8 6 -1 455.99 271.46 90.23 o
3 8 6 0 352.88 285.39 96.93 <
3 -8 6 0 340.02 287.87 105.69 <
3 8 6 1 394.93 390.61 119.50 o
3 -8 6 1 375.15 353.87 108.36 o
3 8 6 2 66.30 103.86 60.90 <
3 -8 6 2 56.87 92.19 43.07 <
4 8 6 -2 349.83 139.88 79.21 <
4 -8 6 -2 367.70 68.67 44.79 <
4 8 6 -1 283.79 251.32 107.00 <
4 -8 6 -1 226.21 225.84 95.15 <
4 8 6 0 103.72 127.97 98.58 <
4 -8 6 0 107.54 73.52 61.32 <
4 8 6 1 532.66 512.36 188.82 <
4 -8 6 1 489.71 727.71 244.45 <
4 8 6 2 285.35 477.82 145.03 o
4 -8 6 2 280.27 501.22 205.52 <
5 8 6 -2 68.80 182.30 107.89 <
5 -8 6 -2 78.62 86.02 74.47 <
5 8 6 -1 102.47 -5.75 52.49 <
5 -8 6 -1 108.87 244.21 164.64 <
5 8 6 0 67.71 41.18 79.57 <
5 -8 6 0 68.45 210.50 151.55 <
5 8 6 1 120.33 -113.75 102.08 <
5 -8 6 1 115.98 106.29 50.06 <
5 8 6 2 17.75 63.81 91.48 <
-5 9 6 -2 18.15 61.56 27.55 <
-5 -9 6 -2 20.35 -48.23 74.83 <
-5 9 6 -1 28.72 30.69 69.08 <
-5 -9 6 -1 38.34 40.76 69.44 <
-5 9 6 0 44.57 91.59 96.39 <
-5 -9 6 0 48.56 8.35 78.62 <
-5 9 6 1 90.19 122.70 131.76 <
-5 -9 6 1 79.77 130.34 112.68 <
-5 9 6 2 49.56 134.90 124.18 <
-5 -9 6 2 45.64 7.35 55.22 <
-4 9 6 -2 108.71 199.54 155.22 <
-4 -9 6 -2 102.14 290.48 153.45 <
-4 9 6 -1 1225.47 1221.82 312.58 o
-4 -9 6 -1 1246.05 900.59 246.99 o
-4 9 6 0 70.13 -0.30 27.25 <
-4 -9 6 0 55.23 134.37 113.46 <
-4 9 6 1 429.70 273.89 148.47 <
-4 -9 6 1 422.95 175.31 113.99 <
-4 9 6 2 176.52 -2.25 21.92 <
-4 -9 6 2 172.40 32.70 38.09 <
-3 9 6 -2 63.58 40.64 70.21 <
-3 -9 6 -2 68.72 36.61 58.24 <
-3 9 6 -1 44.80 90.88 88.28 <
-3 -9 6 -1 70.31 48.23 55.10 <
-3 9 6 0 269.33 203.57 124.83 <
-3 -9 6 0 299.42 210.44 88.69 <
-3 9 6 1 486.02 477.93 203.39 <
-3 -9 6 1 445.46 377.69 107.71 o
-3 9 6 2 70.85 155.82 109.54 <
-3 -9 6 2 64.39 36.50 35.25 <
-2 9 6 -2 415.31 78.50 48.64 <
-2 -9 6 -2 419.92 97.22 58.12 <
-2 9 6 -1 3295.11 2948.06 257.72 o
-2 -9 6 -1 3352.59 3335.05 277.57 o
-2 9 6 0 52.38 79.39 44.67 <
-2 -9 6 0 27.03 65.17 37.50 <
-2 9 6 1 507.23 147.17 63.51 <
-2 -9 6 1 515.99 157.00 72.28 <
-2 9 6 2 282.65 23.17 48.58 <
-2 -9 6 2 289.47 51.19 37.98 <
-1 9 6 -2 44.37 112.45 38.92 <
-1 -9 6 -2 48.51 150.60 85.37 <
-1 9 6 -1 240.19 218.50 58.24 o
-1 -9 6 -1 256.33 239.65 70.21 o
-1 9 6 0 301.46 129.27 50.65 <
-1 -9 6 0 368.79 76.43 45.09 <
-1 9 6 1 724.76 771.50 127.97 o
-1 -9 6 1 676.73 663.73 118.31 o
-1 9 6 2 16.85 27.85 23.99 <
-1 -9 6 2 14.73 15.40 14.93 <
0 9 6 -2 132.53 122.40 57.17 <
0 -9 6 -2 125.03 74.65 31.87 <
0 9 6 -1 1296.44 1183.25 143.26 o
0 -9 6 -1 1310.35 1137.40 123.82 o
0 9 6 0 167.55 286.21 74.06 o
0 -9 6 0 136.58 291.19 63.87 o
0 9 6 1 75.46 136.80 59.25 <
0 -9 6 1 88.86 103.21 47.04 <
0 9 6 2 149.18 127.44 59.96 <
0 -9 6 2 154.79 81.88 48.70 <
1 9 6 -2 190.11 120.98 46.80 <
1 -9 6 -2 200.77 160.02 51.60 o
1 9 6 -1 119.34 116.18 34.72 o
1 -9 6 -1 153.09 109.37 38.63 <
1 9 6 0 172.87 14.75 48.40 <
1 -9 6 0 233.31 90.88 63.87 <
1 9 6 1 139.01 216.25 54.33 o
1 -9 6 1 142.67 292.20 127.50 <
1 9 6 2 103.89 69.50 46.92 <
1 -9 6 2 101.20 96.87 112.09 <
2 9 6 -2 193.98 41.35 34.84 <
2 -9 6 -2 193.01 5.75 61.08 <
2 9 6 -1 120.70 57.88 15.23 o
2 -9 6 -1 118.39 87.74 99.18 <
2 9 6 0 55.12 63.45 58.71 <
2 -9 6 0 55.14 136.92 50.42 <
2 9 6 1 385.03 240.18 70.74 o
2 -9 6 1 377.45 145.86 67.30 <
2 9 6 2 205.89 166.72 82.41 <
2 -9 6 2 221.71 223.89 91.83 <
3 9 6 -2 188.65 151.61 73.70 <
3 -9 6 -2 179.20 280.53 95.39 <
3 9 6 -1 316.54 180.58 74.41 <
3 -9 6 -1 329.14 149.06 84.72 <
3 9 6 0 112.35 132.24 66.95 <
3 -9 6 0 145.20 143.32 90.23 <
3 9 6 1 35.56 189.41 77.55 <
3 -9 6 1 41.02 184.49 85.97 <
3 9 6 2 53.53 129.93 69.14 <
3 -9 6 2 51.17 98.58 73.70 <
4 9 6 -2 174.41 67.01 52.25 <
4 -9 6 -2 166.69 107.24 71.75 <
4 9 6 -1 11.14 79.98 74.53 <
4 -9 6 -1 10.24 56.34 42.30 <
4 9 6 0 19.34 32.53 62.27 <
4 -9 6 0 13.26 29.74 27.02 <
4 9 6 1 372.68 254.28 116.71 <
4 -9 6 1 372.83 482.08 198.83 <
4 9 6 2 49.95 41.65 80.57 <
4 -9 6 2 43.90 -14.28 77.61 <
5 9 6 -2 86.07 28.26 86.20 <
5 -9 6 -2 83.81 54.57 44.85 <
5 9 6 -1 70.03 87.68 78.50 <
5 -9 6 -1 69.14 200.78 175.78 <
5 9 6 0 14.21 159.90 155.88 <
5 -9 6 0 21.02 113.63 141.06 <
-5 10 6 -2 21.94 4.74 13.57 <
-5 10 6 -1 80.99 94.14 121.99 <
-5 -10 6 -1 79.20 121.87 97.87 <
-5 10 6 0 22.76 221.04 120.62 <
-5 -10 6 0 28.93 20.26 3.08 o
-5 10 6 1 12.76 80.34 63.04 <
-5 -10 6 1 14.03 -57.41 53.08 <
-5 10 6 2 74.20 146.69 151.14 <
-5 -10 6 2 73.08 16.71 62.27 <
-4 10 6 -2 161.31 149.42 130.34 <
-4 -10 6 -2 174.12 96.39 79.69 <
-4 10 6 -1 290.98 267.55 157.36 <
-4 -10 6 -1 337.60 303.93 158.84 <
-4 10 6 0 84.44 181.94 153.86 <
-4 -10 6 0 91.56 140.71 115.71 <
-4 10 6 1 138.77 191.01 132.65 <
-4 -10 6 1 165.35 204.28 108.00 <
-4 10 6 2 178.08 353.28 204.69 <
-4 -10 6 2 175.15 242.31 143.14 <
-3 10 6 -2 9.98 50.95 69.67 <
-3 -10 6 -2 8.00 101.96 84.25 <
-3 10 6 -1 40.19 11.61 48.11 <
-3 -10 6 -1 21.95 -20.20 31.28 <
-3 10 6 0 50.74 133.72 108.24 <
-3 -10 6 0 79.58 78.32 47.34 <
-3 10 6 1 26.73 202.98 143.73 <
-3 -10 6 1 36.21 39.75 51.54 <
-3 10 6 2 94.20 -40.94 55.34 <
-3 -10 6 2 86.66 6.16 18.90 <
-2 10 6 -2 634.06 167.31 71.04 <
-2 -10 6 -2 607.69 207.48 70.03 <
-2 10 6 -1 135.09 128.50 62.74 <
-2 -10 6 -1 182.18 123.35 56.82 <
-2 10 6 0 1480.42 1158.96 173.41 o
-2 -10 6 0 1547.64 1337.94 178.92 o
-2 10 6 1 98.68 96.33 54.92 <
-2 -10 6 1 112.89 179.81 70.32 <
-2 10 6 2 208.78 207.00 87.62 <
-2 -10 6 2 196.15 295.81 90.59 o
-1 10 6 -2 26.20 -0.71 40.17 <
-1 -10 6 -2 33.66 -32.35 19.20 <
-1 10 6 -1 34.69 66.71 36.20 <
-1 -10 6 -1 15.46 70.15 39.46 <
-1 10 6 0 51.06 23.34 45.15 <
-1 -10 6 0 101.39 98.82 42.95 <
-1 10 6 1 64.74 160.02 56.82 <
-1 -10 6 1 67.92 60.31 33.53 <
-1 10 6 2 38.36 13.03 29.45 <
-1 -10 6 2 31.44 45.26 24.76 <
0 10 6 -2 179.45 311.45 84.25 o
0 -10 6 -2 175.69 228.04 60.19 o
0 10 6 -1 157.64 283.31 82.53 o
0 -10 6 -1 179.03 140.71 48.29 <
0 10 6 0 575.14 811.25 122.40 o
0 -10 6 0 584.59 618.05 94.32 o
0 10 6 1 118.08 93.31 42.36 <
0 -10 6 1 170.95 56.22 30.16 <
0 10 6 2 83.58 126.55 55.51 <
0 -10 6 2 85.75 36.91 49.47 <
1 10 6 -2 174.99 62.74 35.84 <
1 -10 6 -2 149.20 50.71 33.18 <
1 10 6 -1 112.28 91.36 34.13 <
1 -10 6 -1 97.26 20.85 23.05 <
1 10 6 0 13.58 37.09 18.54 <
1 -10 6 0 38.16 156.47 82.23 <
1 10 6 1 389.05 270.69 59.07 o
1 -10 6 1 371.69 442.45 153.86 <
1 10 6 2 110.93 4.92 29.98 <
1 -10 6 2 111.07 72.93 81.82 <
2 10 6 -2 345.17 173.53 67.48 <
2 -10 6 -2 315.69 110.08 68.67 <
2 10 6 -1 557.58 229.52 88.22 <
2 -10 6 -1 572.48 309.26 92.72 o
2 10 6 0 1603.84 1222.83 183.48 o
2 -10 6 0 1688.23 1282.96 186.33 o
2 10 6 1 558.23 508.86 130.64 o
2 -10 6 1 656.54 469.40 121.63 o
2 10 6 2 238.02 173.59 87.68 <
2 -10 6 2 248.17 174.06 76.96 <
3 10 6 -2 100.24 39.16 34.90 <
3 -10 6 -2 80.72 157.06 78.80 <
3 10 6 -1 141.48 -21.51 30.93 <
3 -10 6 -1 149.36 -10.43 71.75 <
3 10 6 0 50.39 28.56 45.62 <
3 -10 6 0 31.23 96.63 75.72 <
3 10 6 1 44.72 123.82 70.80 <
3 -10 6 1 54.50 218.91 94.85 <
3 10 6 2 42.21 116.95 66.77 <
3 -10 6 2 44.18 92.07 66.83 <
4 10 6 -2 108.94 173.29 98.17 <
4 -10 6 -2 94.85 90.29 72.99 <
4 10 6 -1 545.94 219.62 89.64 <
4 -10 6 -1 578.84 145.68 74.83 <
4 10 6 0 160.32 90.11 61.26 <
4 -10 6 0 177.77 90.41 53.62 <
4 10 6 1 287.37 385.87 135.61 <
4 -10 6 1 338.07 264.30 98.17 <
4 10 6 2 160.10 95.98 71.57 <
4 -10 6 2 152.45 190.36 161.68 <
5 10 6 -2 46.49 71.63 77.91 <
5 -10 6 -2 40.43 -35.96 27.67 <
5 10 6 -1 30.38 17.89 23.11 <
5 -10 6 -1 34.47 41.00 47.04 <
5 10 6 0 62.13 188.58 155.05 <
5 -10 6 0 57.93 248.77 170.15 <
-5 11 6 0 51.40 91.30 109.31 <
-5 -11 6 0 50.22 216.19 153.86 <
-5 11 6 1 55.15 -23.22 67.18 <
-5 -11 6 1 48.11 42.72 58.59 <
-5 11 6 2 11.90 72.34 90.88 <
-5 -11 6 2 7.96 -77.55 115.17 <
-4 11 6 -2 31.11 -1.66 15.17 <
-4 -11 6 -2 40.10 6.99 16.23 <
-4 11 6 -1 104.37 217.79 122.22 <
-4 -11 6 -1 111.39 210.56 153.57 <
-4 11 6 0 776.14 1293.92 323.66 o
-4 -11 6 0 783.61 1118.50 280.11 o
-4 11 6 1 28.77 -17.54 23.82 <
-4 -11 6 1 29.15 114.64 121.33 <
-4 11 6 2 93.38 196.64 140.00 <
-4 -11 6 2 90.67 -38.69 35.43 <
-3 11 6 -2 22.73 -12.86 54.39 <
-3 -11 6 -2 23.33 149.71 114.11 <
-3 11 6 -1 636.91 967.84 284.97 o
-3 -11 6 -1 650.94 989.34 256.42 o
-3 11 6 0 174.23 613.37 229.93 <
-3 -11 6 0 157.78 232.18 85.25 <
-3 11 6 1 67.17 -3.50 59.42 <
-3 -11 6 1 65.24 99.18 64.93 <
-3 11 6 2 40.25 58.30 94.85 <
-3 -11 6 2 36.76 20.26 45.03 <
-2 11 6 -2 402.86 331.01 113.40 <
-2 -11 6 -2 428.11 297.18 92.66 o
-2 11 6 -1 129.55 129.15 63.87 <
-2 -11 6 -1 132.51 54.98 43.19 <
-2 11 6 0 2067.07 1934.96 233.84 o
-2 -11 6 0 2067.22 1959.19 220.16 o
-2 11 6 1 153.52 33.24 56.76 <
-2 -11 6 1 151.64 19.25 40.35 <
-2 11 6 2 263.34 280.41 105.75 <
-2 -11 6 2 251.08 256.83 125.01 <
-1 11 6 -2 216.21 99.24 45.92 <
-1 -11 6 -2 216.05 94.79 79.15 <
-1 11 6 -1 44.56 39.69 34.30 <
-1 -11 6 -1 38.65 83.30 51.19 <
-1 11 6 0 96.80 50.00 26.66 <
-1 -11 6 0 93.49 82.17 43.25 <
-1 11 6 1 204.60 196.76 61.67 o
-1 -11 6 1 197.97 125.96 51.54 <
-1 11 6 2 35.34 24.53 35.31 <
-1 -11 6 2 32.40 12.20 30.39 <
0 11 6 -2 73.70 98.70 51.31 <
0 -11 6 -2 74.50 24.88 21.03 <
0 11 6 -1 57.30 106.58 52.20 <
0 -11 6 -1 55.95 57.23 32.59 <
0 11 6 0 1176.99 1361.64 160.14 o
0 -11 6 0 1129.72 1129.46 128.44 o
0 11 6 1 41.93 111.08 58.89 <
0 -11 6 1 50.87 57.59 32.11 <
0 11 6 2 157.85 187.45 64.28 <
0 -11 6 2 151.67 149.71 84.19 <
1 11 6 -2 80.12 34.01 38.21 <
1 -11 6 -2 80.89 56.64 39.64 <
1 11 6 -1 586.10 397.66 75.72 o
1 -11 6 -1 610.81 473.08 87.57 o
1 11 6 0 108.01 42.72 30.39 <
1 -11 6 0 92.70 73.17 66.59 <
1 11 6 1 364.51 184.91 85.43 <
1 -11 6 1 390.07 408.56 138.81 <
1 11 6 2 224.60 70.80 64.70 <
1 -11 6 2 207.24 109.19 87.68 <
2 11 6 -2 275.83 101.84 56.34 <
2 -11 6 -2 300.21 175.84 65.47 <
2 11 6 -1 299.74 243.14 86.50 <
2 -11 6 -1 274.78 231.29 89.40 <
2 11 6 0 2349.85 2405.49 251.38 o
2 -11 6 0 2434.06 1964.11 235.74 o
2 11 6 1 8.42 87.51 73.88 <
2 -11 6 1 12.82 182.42 84.72 <
2 11 6 2 563.97 578.41 144.26 o
2 -11 6 2 584.50 443.87 127.50 o
3 11 6 -2 71.64 224.66 123.53 <
3 -11 6 -2 72.51 149.54 67.07 <
3 11 6 -1 112.43 26.19 30.16 <
3 -11 6 -1 112.06 -46.21 58.65 <
3 11 6 0 274.30 407.25 115.00 o
3 -11 6 0 272.39 218.56 91.77 <
3 11 6 1 239.91 169.50 70.80 <
3 -11 6 1 205.33 242.85 88.93 <
3 11 6 2 82.55 -3.20 42.42 <
3 -11 6 2 76.05 86.85 68.49 <
4 11 6 -2 214.97 -3.26 45.20 <
4 -11 6 -2 242.72 45.74 73.23 <
4 11 6 -1 81.74 136.80 82.47 <
4 -11 6 -1 74.42 75.06 70.98 <
4 11 6 0 729.95 821.26 188.52 o
4 -11 6 0 772.63 531.49 148.59 o
4 11 6 1 3.52 292.38 184.73 <
4 -11 6 1 1.73 151.02 73.70 <
4 11 6 2 18.19 31.46 64.87 <
4 -11 6 2 16.84 -33.71 69.50 <
5 11 6 -2 16.16 59.66 64.99 <
5 -11 6 -2 16.72 -12.56 86.74 <
5 11 6 -1 6.29 253.39 194.80 <
5 -11 6 -1 5.46 -56.76 82.35 <
5 11 6 0 81.25 358.38 187.27 <
5 -11 6 0 78.68 108.18 106.52 <
-5 12 6 1 8.30 12.74 99.00 <
-5 -12 6 1 6.82 129.81 120.33 <
-5 12 6 2 285.19 257.66 183.48 <
-5 -12 6 2 261.56 154.51 132.47 <
-4 12 6 -2 74.63 146.22 114.70 <
-4 -12 6 -2 74.87 197.17 123.71 <
-4 12 6 -1 64.19 -5.98 39.10 <
-4 -12 6 -1 72.46 24.35 58.95 <
-4 12 6 0 299.08 120.27 76.31 <
-4 -12 6 0 291.90 -33.71 66.71 <
-4 12 6 1 72.89 81.05 94.02 <
-4 -12 6 1 76.06 128.74 115.82 <
-4 12 6 2 86.40 246.46 186.98 <
-4 -12 6 2 88.57 -50.42 57.53 <
-3 12 6 -2 113.38 238.58 150.07 <
-3 -12 6 -2 104.04 127.61 105.04 <
-3 12 6 -1 948.34 1498.80 335.98 o
-3 -12 6 -1 881.80 1216.13 283.61 o
-3 12 6 0 139.41 152.08 120.09 <
-3 -12 6 0 132.82 106.46 53.56 <
-3 12 6 1 74.22 131.64 132.18 <
-3 -12 6 1 66.82 97.81 68.49 <
-3 12 6 2 420.08 360.15 195.87 <
-3 -12 6 2 399.75 196.99 83.60 <
-2 12 6 -2 194.90 286.21 105.28 <
-2 -12 6 -2 190.35 173.47 63.39 <
-2 12 6 -1 19.06 -27.08 36.38 <
-2 -12 6 -1 34.55 39.46 47.87 <
-2 12 6 0 1205.45 695.36 147.58 o
-2 -12 6 0 1171.07 759.29 138.52 o
-2 12 6 1 379.33 195.87 79.33 <
-2 -12 6 1 383.07 278.39 127.14 <
-2 12 6 2 171.73 -20.91 13.03 <
-2 -12 6 2 172.19 129.10 70.09 <
-1 12 6 -2 120.71 142.43 56.64 <
-1 -12 6 -2 119.51 176.85 106.29 <
-1 12 6 -1 1085.16 1277.75 148.71 o
-1 -12 6 -1 1093.47 1285.57 247.88 o
-1 12 6 0 1646.76 1831.64 181.05 o
-1 -12 6 0 1600.59 1655.08 268.15 o
-1 12 6 1 1207.16 1033.24 134.19 o
-1 -12 6 1 1184.03 923.52 201.67 o
-1 12 6 2 240.44 315.07 98.88 o
-1 -12 6 2 245.29 145.03 93.55 <
0 12 6 -2 192.07 242.97 79.98 o
0 -12 6 -2 197.60 149.65 51.07 <
0 12 6 -1 39.27 42.83 42.83 <
0 -12 6 -1 24.54 19.79 32.94 <
0 12 6 0 2807.91 3397.14 265.07 o
0 -12 6 0 2759.96 2788.75 206.53 o
0 12 6 1 140.70 268.98 74.59 o
0 -12 6 1 131.80 224.01 62.86 o
0 12 6 2 255.78 390.55 87.62 o
0 -12 6 2 260.89 227.68 94.62 <
1 12 6 -2 207.84 323.42 68.90 o
1 -12 6 -2 217.59 273.54 71.21 o
1 12 6 -1 282.73 313.11 72.75 o
1 -12 6 -1 244.34 236.03 66.24 o
1 12 6 0 1695.63 1630.79 155.99 o
1 -12 6 0 1664.09 1985.14 290.54 o
1 12 6 1 829.40 537.53 118.79 o
1 -12 6 1 767.84 1136.80 236.80 o
1 12 6 2 291.30 -17.89 65.58 <
1 -12 6 2 266.83 153.09 76.55 <
2 12 6 -2 198.67 148.94 63.51 <
2 -12 6 -2 212.88 154.39 69.85 <
2 12 6 -1 53.77 86.02 55.51 <
2 -12 6 -1 39.64 81.82 43.31 <
2 12 6 0 1273.78 1065.35 172.88 o
2 -12 6 0 1254.71 954.74 167.90 o
2 12 6 1 123.68 221.70 92.78 <
2 -12 6 1 113.01 164.64 61.85 <
2 12 6 2 309.40 249.48 103.68 <
2 -12 6 2 298.28 395.05 121.04 o
3 12 6 -2 269.12 181.82 87.57 <
3 -12 6 -2 283.27 211.15 96.81 <
3 12 6 -1 142.63 58.42 49.94 <
3 -12 6 -1 86.65 78.74 54.27 <
3 12 6 0 568.09 403.70 117.19 o
3 -12 6 0 565.68 311.04 102.85 o
3 12 6 1 1732.07 1862.03 253.16 o
3 -12 6 1 1629.39 1859.42 260.74 o
3 12 6 2 174.85 75.48 45.92 <
3 -12 6 2 156.00 78.62 58.48 <
4 12 6 -2 127.76 127.08 127.32 <
4 -12 6 -2 135.08 -103.62 87.45 <
4 12 6 -1 29.24 170.57 138.16 <
4 -12 6 -1 24.63 38.33 52.14 <
4 12 6 0 211.33 116.06 103.98 <
4 -12 6 0 211.12 119.14 76.60 <
4 12 6 1 88.56 257.90 153.98 <
4 -12 6 1 85.62 136.92 84.37 <
4 12 6 2 22.92 223.65 150.66 <
4 -12 6 2 21.86 117.60 61.08 <
5 12 6 -2 138.92 -2.90 58.24 <
5 -12 6 -2 143.41 31.93 43.72 <
5 12 6 -1 127.53 30.27 69.32 <
5 -12 6 -1 88.85 297.29 185.02 <
5 -12 6 0 169.66 430.60 224.18 <
-5 13 6 2 4.37 -70.27 73.05 <
-5 -13 6 2 5.39 179.93 139.58 <
-4 13 6 -2 22.91 -1.54 87.51 <
-4 -13 6 -2 24.37 -95.33 86.32 <
-4 13 6 -1 22.20 170.57 133.66 <
-4 -13 6 -1 22.39 85.61 64.76 <
-4 13 6 0 42.19 18.60 86.79 <
-4 -13 6 0 38.33 297.77 127.73 <
-4 13 6 1 57.01 33.47 73.70 <
-4 -13 6 1 42.88 79.69 100.60 <
-4 13 6 2 131.38 89.93 94.50 <
-4 -13 6 2 130.81 112.98 92.30 <
-3 13 6 -2 52.60 31.64 48.17 <
-3 -13 6 -2 53.67 110.97 94.38 <
-3 13 6 -1 1202.51 1997.52 400.32 o
-3 -13 6 -1 1171.77 1568.35 327.86 o
-3 13 6 0 3972.02 6165.51 697.73 o
-3 -13 6 0 3958.14 5370.14 598.79 o
-3 13 6 1 307.54 314.59 175.25 <
-3 -13 6 1 307.04 106.11 85.20 <
-3 13 6 2 63.79 44.43 79.39 <
-3 -13 6 2 62.22 -13.45 31.46 <
-2 13 6 -2 66.26 21.80 48.11 <
-2 -13 6 -2 66.49 19.08 28.44 <
-2 13 6 -1 13.07 34.78 59.66 <
-2 -13 6 -1 15.13 68.01 55.28 <
-2 13 6 0 275.21 174.71 79.15 <
-2 -13 6 0 258.69 221.88 123.35 <
-2 13 6 1 86.80 60.79 72.58 <
-2 -13 6 1 69.20 -43.31 67.24 <
-2 13 6 2 231.26 124.59 90.47 <
-2 -13 6 2 232.79 198.00 113.99 <
-1 13 6 -2 47.91 9.54 51.25 <
-1 -13 6 -2 40.00 6.75 31.81 <
-1 13 6 -1 1120.26 906.04 129.27 o
-1 -13 6 -1 1143.51 905.04 213.34 o
-1 13 6 0 9955.47 11446.80 561.00 o
-1 -13 6 0 9808.69 12296.80 745.43 o
-1 13 6 1 791.51 617.10 116.77 o
-1 -13 6 1 804.11 573.62 166.12 o
-1 13 6 2 37.65 17.71 25.65 <
-1 -13 6 2 32.18 56.88 71.39 <
0 13 6 -2 103.87 29.80 35.67 <
0 -13 6 -2 97.68 61.56 50.71 <
0 13 6 -1 7.96 14.99 40.41 <
0 -13 6 -1 13.13 66.65 62.33 <
0 13 6 0 800.17 636.77 121.51 o
0 -13 6 0 765.79 599.15 145.51 o
0 13 6 1 114.26 178.51 64.10 <
0 -13 6 1 124.60 136.62 87.57 <
0 13 6 2 51.46 139.40 49.47 <
0 -13 6 2 50.17 132.59 92.07 <
1 13 6 -2 242.35 153.86 50.71 o
1 -13 6 -2 210.61 158.96 57.76 <
1 13 6 -1 281.04 221.82 58.06 o
1 -13 6 -1 264.87 262.70 68.13 o
1 13 6 0 10205.10 12565.00 793.12 o
1 -13 6 0 10122.70 11662.40 694.12 o
1 13 6 1 980.99 797.03 157.53 o
1 -13 6 1 1042.04 1324.55 256.89 o
1 13 6 2 78.54 -10.37 43.90 <
1 -13 6 2 70.26 17.06 34.07 <
2 13 6 -2 38.16 -18.07 43.55 <
2 -13 6 -2 34.88 3.44 29.56 <
2 13 6 -1 0.92 80.81 55.57 <
2 -13 6 -1 1.24 -51.60 55.10 <
2 13 6 0 295.67 94.50 62.27 <
2 -13 6 0 291.63 143.97 76.37 <
2 13 6 1 95.12 83.65 67.36 <
2 -13 6 1 101.12 11.55 48.17 <
2 13 6 2 49.64 40.94 53.79 <
2 -13 6 2 50.96 35.78 52.55 <
3 13 6 -2 254.04 145.98 79.92 <
3 -13 6 -2 219.70 178.45 81.76 <
3 13 6 -1 59.58 132.35 83.83 <
3 -13 6 -1 58.29 83.77 58.12 <
3 13 6 0 3307.00 4393.24 546.07 o
3 -13 6 0 3315.72 5248.51 602.59 o
3 13 6 1 251.32 329.11 166.07 <
3 -13 6 1 269.72 315.01 107.59 <
3 13 6 2 13.70 18.66 82.53 <
3 -13 6 2 13.41 -88.99 79.15 <
4 13 6 -2 59.58 9.06 33.47 <
4 -13 6 -2 53.31 67.60 43.37 <
4 13 6 -1 10.65 182.89 157.36 <
4 -13 6 -1 12.97 -22.04 48.05 <
4 13 6 0 52.82 182.89 139.58 <
4 -13 6 0 57.21 71.57 65.17 <
4 13 6 1 67.87 198.18 148.71 <
4 -13 6 1 63.82 66.47 66.36 <
4 13 6 2 13.93 52.08 75.00 <
4 -13 6 2 15.03 97.81 71.04 <
5 13 6 -2 134.54 2.37 72.22 <
5 -13 6 -2 118.38 34.90 68.31 <
5 -13 6 -1 1.64 -90.23 57.65 <
-4 14 6 -2 38.38 138.75 146.93 <
-4 -14 6 -2 49.49 119.38 124.00 <
-4 14 6 -1 110.72 237.57 158.07 <
-4 -14 6 -1 132.43 142.19 134.07 <
-4 14 6 0 6.12 71.86 101.67 <
-4 -14 6 0 4.21 54.92 71.57 <
-4 14 6 1 119.59 278.87 153.27 <
-4 -14 6 1 114.04 86.56 80.81 <
-4 14 6 2 175.53 383.20 187.87 <
-4 -14 6 2 182.85 215.60 126.13 <
-3 14 6 -2 51.62 272.47 161.80 <
-3 -14 6 -2 56.05 100.60 66.24 <
-3 14 6 -1 683.70 1322.78 341.55 o
-3 -14 6 -1 683.11 630.37 211.80 <
-3 14 6 0 190.03 428.76 206.89 <
-3 -14 6 0 196.23 254.10 122.16 <
-3 14 6 1 349.65 271.17 160.62 <
-3 -14 6 1 350.96 188.70 119.74 <
-3 14 6 2 156.65 577.29 235.32 <
-3 -14 6 2 160.28 177.62 132.59 <
-2 14 6 -2 73.83 41.95 53.44 <
-2 -14 6 -2 79.45 147.52 100.12 <
-2 14 6 -1 76.08 83.00 69.08 <
-2 -14 6 -1 91.03 131.64 70.80 <
-2 14 6 0 37.11 2.73 29.27 <
-2 14 6 1 456.49 427.64 128.21 o
-2 -14 6 1 456.10 397.18 157.77 <
-2 14 6 2 169.65 237.52 101.37 <
-2 -14 6 2 183.34 273.00 170.57 <
-1 14 6 -2 49.72 -29.33 52.31 <
-1 -14 6 -2 43.96 12.68 34.07 <
-1 14 6 -1 1216.32 1295.82 162.33 o
-1 -14 6 -1 1191.24 1297.24 262.52 o
-1 14 6 0 315.30 568.93 107.94 o
-1 -14 6 0 340.46 663.73 185.02 o
-1 14 6 1 120.29 112.92 67.18 <
-1 -14 6 1 130.29 138.52 97.70 <
-1 14 6 2 210.14 277.62 85.55 o
-1 -14 6 2 217.66 284.02 121.51 <
0 14 6 -2 75.00 95.15 50.48 <
0 -14 6 -2 80.83 90.29 67.48 <
0 14 6 -1 227.13 281.42 90.82 o
0 -14 6 -1 207.76 177.68 80.10 <
0 14 6 0 94.32 163.87 68.55 <
0 -14 6 0 65.35 132.77 73.23 <
0 14 6 1 784.80 903.38 131.64 o
0 14 6 2 119.62 233.90 75.30 o
1 14 6 -2 35.95 28.26 34.42 <
1 -14 6 -2 32.16 41.23 29.80 <
1 14 6 -1 371.35 283.90 84.84 o
1 -14 6 -1 375.80 420.94 140.00 o
1 14 6 0 126.45 408.14 120.92 o
1 -14 6 0 150.78 526.34 158.07 o
1 14 6 1 44.15 124.65 65.23 <
1 -14 6 1 45.64 161.68 113.22 <
1 14 6 2 124.60 86.14 58.65 <
1 -14 6 2 135.98 293.86 111.26 <
2 14 6 -2 71.59 36.67 58.42 <
2 -14 6 -2 81.39 4.86 57.35 <
2 14 6 -1 273.49 145.68 67.95 <
2 -14 6 -1 275.57 177.03 58.48 o
2 14 6 0 44.48 119.62 61.85 <
2 -14 6 0 23.60 46.74 55.57 <
2 14 6 1 399.42 384.74 115.71 o
2 -14 6 1 432.77 346.59 101.55 o
2 14 6 2 134.48 183.19 86.74 <
2 -14 6 2 136.28 139.17 68.96 <
3 14 6 -2 114.93 -30.45 43.72 <
3 -14 6 -2 119.45 24.82 80.57 <
3 14 6 -1 6.35 -41.65 28.56 <
3 -14 6 -1 4.98 68.61 78.03 <
3 14 6 0 89.20 204.75 143.20 <
3 -14 6 0 97.91 102.61 61.97 <
3 14 6 1 421.17 382.85 150.90 <
3 -14 6 1 449.23 301.44 100.95 <
3 14 6 2 52.81 84.37 82.65 <
3 -14 6 2 58.06 -86.56 71.86 <
4 14 6 -2 84.59 33.83 87.57 <
4 -14 6 -2 92.92 5.51 82.06 <
4 14 6 -1 102.19 105.58 103.26 <
4 -14 6 -1 115.51 131.52 91.89 <
4 14 6 0 20.57 76.25 35.01 <
4 -14 6 0 9.14 178.62 96.81 <
4 14 6 1 147.95 322.89 212.16 <
4 -14 6 1 169.01 239.35 94.62 <
4 14 6 2 17.92 195.15 175.25 <
4 -14 6 2 20.75 118.79 131.11 <
5 14 6 -2 95.16 10.49 66.77 <
5 -14 6 -2 91.82 92.42 83.42 <
5 -14 6 -1 5.39 52.73 49.47 <
-4 15 6 -2 33.89 -91.30 45.26 <
-4 -15 6 -2 32.35 158.36 153.33 <
-4 15 6 -1 88.08 133.78 133.48 <
-4 -15 6 -1 83.14 56.34 74.18 <
-4 15 6 0 354.30 284.79 182.95 <
-4 -15 6 0 349.76 10.31 21.62 <
-4 15 6 1 88.95 308.20 178.09 <
-4 -15 6 1 94.48 24.17 69.67 <
-4 15 6 2 65.11 123.47 167.01 <
-4 -15 6 2 62.98 154.45 119.44 <
-3 15 6 -2 74.44 158.66 128.62 <
-3 -15 6 -2 78.33 142.37 139.17 <
-3 15 6 -1 63.56 146.75 100.36 <
-3 -15 6 -1 53.69 -71.39 75.06 <
-3 15 6 0 728.62 998.82 297.59 o
-3 -15 6 0 729.65 684.94 248.89 <
-3 15 6 1 162.73 17.95 53.56 <
-3 -15 6 1 170.98 152.38 100.84 <
-3 15 6 2 98.62 5.04 85.91 <
-3 -15 6 2 96.60 60.25 76.96 <
-2 15 6 -2 15.54 -16.71 42.06 <
-2 -15 6 -2 21.99 1.78 67.36 <
-2 15 6 -1 49.15 -26.78 25.95 <
-2 -15 6 -1 48.67 46.74 48.17 <
-2 15 6 0 1285.01 1532.09 347.59 o
-2 -15 6 0 1298.80 1275.08 286.04 o
-2 15 6 1 206.71 139.11 78.56 <
-2 -15 6 1 226.52 21.98 21.09 <
-2 15 6 2 24.44 130.99 80.28 <
-2 -15 6 2 20.74 142.72 85.79 <
-1 15 6 -2 47.79 -2.19 56.40 <
-1 -15 6 -2 48.81 -45.38 80.46 <
-1 15 6 -1 658.46 398.43 91.71 o
-1 -15 6 -1 633.79 559.46 175.25 o
-1 15 6 0 1046.10 1479.78 178.45 o
-1 -15 6 0 1025.15 1361.17 258.25 o
-1 15 6 1 289.02 256.30 77.67 o
-1 -15 6 1 283.45 218.20 102.14 <
-1 15 6 2 132.41 30.33 26.78 <
0 15 6 -2 99.68 80.40 50.60 <
0 -15 6 -2 112.58 43.78 23.58 <
0 15 6 -1 21.13 48.58 30.33 <
0 -15 6 -1 35.72 9.30 38.57 <
0 15 6 0 3924.41 5132.50 357.31 o
0 -15 6 0 3923.97 4026.75 408.02 o
0 15 6 1 747.03 427.04 91.53 o
0 15 6 2 7.62 24.53 36.32 <
1 15 6 -2 57.74 84.19 60.61 <
1 -15 6 -2 51.01 139.52 87.15 <
1 15 6 -1 74.25 111.08 62.44 <
1 15 6 0 1190.03 1237.76 200.43 o
1 15 6 1 39.82 25.12 55.63 <
1 15 6 2 111.42 109.84 65.23 <
1 -15 6 2 99.99 140.95 148.29 <
2 15 6 -2 56.49 146.63 78.20 <
2 -15 6 -2 67.32 -8.41 66.24 <
2 15 6 -1 81.00 -22.10 26.84 <
2 -15 6 -1 75.40 73.05 70.62 <
2 15 6 0 1110.42 924.88 255.41 o
2 -15 6 0 1095.88 621.13 139.40 o
2 15 6 1 399.76 356.18 155.05 <
2 -15 6 1 373.65 229.16 93.55 <
2 15 6 2 382.17 257.72 125.90 <
2 -15 6 2 379.84 540.73 196.16 <
3 15 6 -2 178.75 176.61 120.51 <
3 -15 6 -2 171.05 76.49 62.39 <
3 15 6 -1 88.37 182.77 133.90 <
3 -15 6 -1 83.57 74.65 57.11 <
3 15 6 0 515.83 766.64 242.73 o
3 -15 6 0 543.09 837.08 265.95 o
3 15 6 1 127.14 235.98 129.45 <
3 -15 6 1 119.34 117.96 63.27 <
3 15 6 2 38.82 -87.98 69.55 <
3 -15 6 2 36.75 -305.23 162.87 <
4 15 6 -2 38.17 59.19 102.79 <
4 -15 6 -2 44.71 -14.81 33.95 <
4 15 6 -1 80.51 18.31 50.00 <
4 -15 6 -1 86.58 16.41 59.48 <
4 15 6 0 283.75 475.68 196.04 <
4 -15 6 0 278.41 248.12 120.74 <
4 15 6 1 93.62 97.34 86.44 <
4 -15 6 1 83.89 14.40 67.66 <
4 -15 6 2 24.35 3.61 80.75 <
5 15 6 -2 69.17 67.60 107.06 <
5 -15 6 -2 71.87 128.86 89.70 <
5 -15 6 -1 26.95 172.46 176.02 <
-4 16 6 -2 68.70 150.01 134.90 <
-4 -16 6 -2 61.63 -58.06 76.84 <
-4 16 6 -1 7.66 173.95 113.87 <
-4 -16 6 -1 7.17 116.42 100.84 <
-4 16 6 0 81.23 14.04 71.09 <
-4 -16 6 0 76.09 70.74 75.06 <
-4 16 6 1 80.78 118.19 98.76 <
-4 -16 6 1 83.92 -4.50 68.43 <
-4 16 6 2 44.90 91.48 122.28 <
-4 -16 6 2 37.06 69.73 100.66 <
-3 16 6 -2 49.75 95.21 130.16 <
-3 -16 6 -2 48.20 4.80 75.12 <
-3 16 6 -1 74.50 99.95 116.71 <
-3 -16 6 -1 87.16 9.01 104.92 <
-3 16 6 0 32.29 42.95 32.47 <
-3 -16 6 0 31.81 152.97 119.08 <
-3 16 6 1 75.93 84.66 75.24 <
-3 -16 6 1 87.23 90.88 77.02 <
-3 16 6 2 6.88 -116.65 95.39 <
-3 -16 6 2 5.92 -25.24 89.70 <
-2 16 6 -2 203.42 162.75 87.45 <
-2 -16 6 -2 202.40 165.18 124.53 <
-2 16 6 -1 5.69 45.03 51.90 <
-2 -16 6 -1 6.28 36.67 56.34 <
-2 16 6 0 567.13 753.13 176.49 o
-2 -16 6 0 581.95 704.19 216.84 o
-2 16 6 1 292.00 196.99 90.82 <
-2 -16 6 1 280.08 312.58 145.80 <
-2 16 6 2 79.48 21.51 87.92 <
-2 -16 6 2 74.44 5.33 57.53 <
-1 16 6 -2 44.81 37.32 39.99 <
-1 -16 6 -2 40.47 76.01 99.12 <
-1 16 6 -1 43.58 55.63 43.90 <
-1 -16 6 -1 42.71 100.36 76.25 <
-1 16 6 0 12.05 134.78 63.45 <
-1 -16 6 0 8.56 78.32 102.50 <
-1 16 6 1 168.97 122.70 62.74 <
-1 -16 6 1 193.46 46.74 74.89 <
-1 16 6 2 40.86 59.60 36.44 <
0 16 6 -2 75.70 99.53 44.67 <
0 -16 6 -2 82.08 90.35 72.22 <
0 16 6 -1 85.54 51.72 44.97 <
0 -16 6 -1 81.30 64.52 42.18 <
0 16 6 0 490.39 542.28 107.35 o
0 16 6 1 482.23 512.65 128.44 o
0 16 6 2 52.28 -26.54 42.89 <
1 16 6 -2 54.05 9.95 18.25 <
1 -16 6 -2 48.33 19.61 41.83 <
1 16 6 -1 167.00 166.18 76.37 <
1 16 6 0 25.50 141.95 86.97 <
1 16 6 1 32.18 -51.13 70.86 <
1 16 6 2 204.05 217.96 131.29 <
1 -16 6 2 203.29 463.95 232.01 <
2 16 6 -2 38.96 127.50 102.55 <
2 -16 6 -2 33.51 96.81 105.87 <
2 16 6 -1 56.53 56.58 34.18 <
2 -16 6 -1 55.85 122.58 150.96 <
2 16 6 0 395.27 397.48 185.50 <
2 -16 6 0 404.35 143.61 106.64 <
2 16 6 1 424.26 384.68 166.48 <
2 -16 6 1 380.76 132.00 57.35 <
2 16 6 2 227.81 142.37 106.58 <
2 -16 6 2 241.29 -67.90 74.59 <
3 16 6 -2 89.81 -21.62 61.97 <
3 -16 6 -2 90.22 -66.71 61.62 <
3 16 6 -1 113.82 300.49 152.26 <
3 -16 6 -1 106.14 117.43 74.41 <
3 16 6 0 71.34 205.46 128.09 <
3 -16 6 0 82.14 84.01 92.01 <
3 16 6 1 45.85 26.01 13.03 <
3 -16 6 1 43.31 11.55 97.70 <
3 16 6 2 41.86 64.28 114.76 <
3 -16 6 2 42.78 -90.76 65.94 <
4 16 6 -2 24.63 83.89 111.56 <
4 -16 6 -2 18.34 -44.91 57.59 <
4 16 6 -1 45.08 67.60 114.76 <
4 -16 6 -1 45.07 42.60 51.19 <
4 16 6 0 3.14 178.98 134.72 <
4 -16 6 0 4.09 18.01 68.31 <
4 -16 6 1 130.11 64.87 108.18 <
4 -16 6 2 34.99 19.79 71.04 <
5 -16 6 -2 30.95 151.91 98.05 <
-4 -17 6 -1 54.59 68.31 33.53 <
-4 17 6 0 1010.04 1419.35 394.34 o
-4 -17 6 0 1024.76 1085.44 311.57 o
-4 17 6 1 10.08 260.92 165.29 <
-4 -17 6 1 9.67 -56.34 76.55 <
-4 17 6 2 11.95 45.15 76.78 <
-4 -17 6 2 13.22 -57.29 87.80 <
-3 17 6 -2 57.53 142.43 117.48 <
-3 -17 6 -2 62.83 -12.74 47.75 <
-3 17 6 -1 102.07 320.87 178.98 <
-3 -17 6 -1 114.48 106.70 107.71 <
-3 17 6 0 198.38 41.83 32.17 <
-3 -17 6 0 204.43 143.97 102.20 <
-3 17 6 1 72.39 51.31 132.71 <
-3 -17 6 1 78.56 23.11 24.23 <
-3 17 6 2 137.39 221.93 148.35 <
-3 -17 6 2 142.78 329.64 164.29 <
-2 17 6 -2 180.27 66.83 75.72 <
-2 -17 6 -2 164.04 201.14 156.23 <
-2 17 6 -1 9.70 73.35 92.90 <
-2 -17 6 -1 22.45 -107.65 110.67 <
-2 17 6 0 2528.21 4185.11 588.49 o
-2 -17 6 0 2523.30 3272.73 470.47 o
-2 17 6 1 34.31 134.37 81.94 <
-2 -17 6 1 38.35 4.98 63.81 <
-2 17 6 2 18.06 78.97 97.22 <
-2 -17 6 2 18.87 143.85 123.53 <
-1 17 6 -2 97.42 214.35 75.89 <
-1 -17 6 -2 99.25 396.71 156.29 <
-1 17 6 -1 167.71 189.76 68.72 <
-1 -17 6 -1 180.69 170.75 112.45 <
-1 17 6 0 1078.24 1066.48 154.28 o
-1 -17 6 0 1092.53 1182.66 269.03 o
-1 17 6 1 19.76 25.53 41.95 <
-1 -17 6 1 23.95 -56.64 79.39 <
-1 17 6 2 191.48 375.62 93.79 o
0 17 6 -2 30.12 80.04 47.57 <
0 -17 6 -2 28.09 73.29 55.10 <
0 17 6 -1 40.11 48.17 41.71 <
0 -17 6 -1 53.79 -114.40 81.94 <
0 17 6 0 4767.66 5606.53 365.01 o
0 17 6 1 339.78 227.80 93.55 <
0 17 6 2 10.37 11.14 40.46 <
1 17 6 -2 147.51 62.62 46.45 <
1 17 6 -1 194.95 237.57 120.98 <
1 17 6 0 1070.33 1080.88 277.68 o
1 17 6 1 95.24 196.58 135.97 <
1 17 6 2 18.84 30.16 45.56 <
1 -17 6 2 18.76 226.67 149.71 <
2 17 6 -2 16.70 -63.69 84.96 <
2 -17 6 -2 15.19 98.82 132.35 <
2 17 6 -1 76.77 130.64 98.11 <
2 -17 6 -1 76.35 237.99 141.36 <
2 17 6 0 2214.90 2381.38 407.31 o
2 -17 6 0 2173.46 1228.69 323.24 o
2 17 6 1 261.08 225.90 121.87 <
2 -17 6 1 269.79 15.46 58.30 <
2 17 6 2 2.86 105.52 132.47 <
2 -17 6 2 1.77 26.66 42.12 <
3 17 6 -2 97.75 47.93 35.55 <
3 -17 6 -2 101.62 -188.16 136.98 <
3 17 6 -1 83.76 172.52 150.43 <
3 -17 6 -1 86.09 -98.35 134.13 <
3 17 6 0 165.01 68.31 85.85 <
3 -17 6 0 174.87 -110.14 158.78 <
3 17 6 1 48.87 157.24 97.16 <
3 -17 6 1 38.15 -468.51 210.85 <
3 17 6 2 19.06 85.73 117.66 <
3 -17 6 2 21.60 -367.32 188.52 <
4 17 6 -2 27.26 -84.78 115.88 <
4 -17 6 -2 17.12 -5.33 95.56 <
4 17 6 -1 21.99 51.54 114.64 <
4 -17 6 -1 20.18 14.81 35.13 <
4 17 6 0 632.52 817.71 269.92 o
4 -17 6 0 630.67 576.04 172.88 o
4 -17 6 1 120.75 94.14 92.25 <
-4 -18 6 0 30.10 162.93 153.33 <
-4 -18 6 1 92.98 -43.49 56.16 <
-4 18 6 2 60.00 122.52 99.59 <
-4 -18 6 2 64.14 13.51 47.40 <
-3 18 6 -2 52.45 -41.35 67.66 <
-3 -18 6 -2 59.53 10.37 82.06 <
-3 18 6 -1 84.32 214.35 157.42 <
-3 -18 6 -1 96.11 -21.74 51.60 <
-3 18 6 0 135.44 86.44 59.60 <
-3 -18 6 0 117.94 48.94 21.39 <
-3 18 6 1 212.77 225.49 151.73 <
-3 -18 6 1 208.56 70.27 89.76 <
-3 18 6 2 151.83 291.31 168.61 <
-3 -18 6 2 157.48 57.76 79.74 <
-2 18 6 -2 427.09 510.40 146.16 o
-2 -18 6 -2 438.34 569.88 235.44 <
-2 18 6 -1 549.90 513.48 147.94 o
-2 -18 6 -1 541.58 599.39 209.43 <
-2 18 6 0 19.66 58.71 57.82 <
-2 -18 6 0 23.25 69.79 72.52 <
-2 18 6 1 72.09 90.41 58.89 <
-2 -18 6 1 60.08 184.20 120.09 <
-2 18 6 2 44.62 70.27 50.24 <
-2 -18 6 2 52.93 29.21 42.01 <
-1 18 6 -2 56.92 23.70 45.09 <
-1 -18 6 -2 66.25 100.36 132.89 <
-1 18 6 -1 343.49 435.16 103.26 o
-1 -18 6 -1 345.91 438.95 180.52 <
-1 18 6 0 128.93 180.46 74.59 <
-1 -18 6 0 104.83 62.50 80.34 <
-1 18 6 1 694.58 546.84 114.11 o
-1 18 6 2 70.03 197.70 76.43 <
0 18 6 -2 111.71 242.73 75.54 o
0 -18 6 -2 114.91 251.62 124.53 <
0 18 6 -1 700.45 631.50 155.34 o
0 -18 6 -1 676.46 548.38 174.77 o
0 18 6 0 1482.77 1685.00 265.54 o
0 18 6 1 150.22 139.05 82.17 <
0 18 6 2 63.73 -75.83 60.79 <
1 18 6 -2 61.46 8.41 31.40 <
1 18 6 -1 376.54 332.55 130.22 <
1 18 6 0 112.68 105.87 106.88 <
1 18 6 1 358.48 259.14 136.92 <
1 -18 6 1 376.24 441.79 249.48 <
1 18 6 2 59.61 105.22 110.26 <
1 -18 6 2 57.54 184.67 182.24 <
2 18 6 -2 264.40 386.34 171.69 <
2 -18 6 -2 256.73 507.38 267.85 <
2 18 6 -1 350.98 84.19 56.99 <
2 -18 6 -1 344.76 373.60 183.72 <
2 18 6 0 4.13 64.93 119.20 <
2 -18 6 0 6.30 -30.51 81.29 <
2 18 6 1 281.35 320.22 139.88 <
2 -18 6 1 292.96 132.41 115.71 <
2 18 6 2 315.16 410.87 204.46 <
2 -18 6 2 329.14 86.85 86.20 <
3 18 6 -2 84.17 11.61 27.31 <
3 -18 6 -2 94.97 -5.04 83.24 <
3 18 6 -1 194.28 91.18 75.72 <
3 -18 6 -1 199.80 -37.03 121.22 <
3 18 6 0 69.31 100.48 82.88 <
3 -18 6 0 60.66 -225.84 175.66 <
3 18 6 1 266.78 188.52 145.33 <
3 -18 6 1 282.22 -166.90 117.37 <
3 18 6 2 44.79 9.78 43.43 <
3 -18 6 2 45.83 -72.04 116.18 <
4 18 6 -2 167.17 15.40 20.20 <
4 -18 6 -2 160.59 -17.24 85.49 <
4 18 6 -1 105.81 -115.59 99.83 <
4 -18 6 -1 102.35 -25.36 106.52 <
4 -18 6 0 42.51 49.35 91.00 <
-4 -19 6 2 43.11 13.09 50.30 <
-3 19 6 -2 4.11 -4.62 46.57 <
-3 -19 6 -2 4.41 -100.24 112.63 <
-3 19 6 -1 199.57 423.19 211.86 <
-3 -19 6 -1 181.41 116.77 104.75 <
-3 19 6 0 359.19 295.04 175.54 <
-3 -19 6 0 357.99 199.95 122.28 <
-3 19 6 1 38.17 171.40 122.93 <
-3 -19 6 1 44.87 -85.02 86.74 <
-3 19 6 2 94.70 -87.74 73.52 <
-3 -19 6 2 100.37 169.26 102.08 <
-2 19 6 -2 140.37 197.41 95.50 <
-2 -19 6 -2 135.70 314.12 178.68 <
-2 19 6 -1 27.13 -56.34 69.85 <
-2 -19 6 -1 23.18 131.29 139.17 <
-2 19 6 0 266.32 202.86 91.71 <
-2 -19 6 0 266.95 441.26 184.20 <
-2 19 6 1 34.53 114.52 86.97 <
-2 -19 6 1 39.39 101.13 95.27 <
-2 19 6 2 75.91 156.41 87.27 <
-1 19 6 -2 73.99 152.44 72.04 <
-1 -19 6 -2 83.57 -65.53 82.71 <
-1 19 6 -1 493.15 457.55 110.85 o
-1 -19 6 -1 463.81 687.72 231.47 <
-1 19 6 0 1176.59 1142.31 171.99 o
-1 -19 6 0 1169.60 1172.23 271.70 o
-1 19 6 1 25.56 -0.18 30.99 <
-1 19 6 2 103.19 182.18 89.70 <
0 19 6 -2 23.11 1.66 61.38 <
0 -19 6 -2 23.05 10.78 3.97 <
0 19 6 -1 72.88 152.14 91.71 <
0 19 6 0 488.31 483.44 137.51 o
0 19 6 1 81.92 187.93 105.58 <
0 19 6 2 71.68 139.94 90.29 <
1 19 6 -2 74.88 12.03 37.27 <
1 19 6 -1 85.84 65.64 94.32 <
1 19 6 0 1238.53 868.90 248.42 o
1 19 6 1 24.24 32.05 78.50 <
1 -19 6 1 19.72 357.13 273.06 <
1 19 6 2 48.31 -80.10 72.40 <
1 -19 6 2 52.15 34.48 131.35 <
2 19 6 -2 56.42 101.31 102.44 <
2 -19 6 -2 51.58 56.11 140.53 <
2 19 6 -1 34.54 -34.84 70.03 <
2 -19 6 -1 31.83 106.17 141.54 <
2 19 6 0 139.76 128.15 111.14 <
2 -19 6 0 131.02 270.34 198.95 <
2 19 6 1 54.37 105.69 99.41 <
2 -19 6 1 43.93 107.89 97.28 <
2 19 6 2 122.57 51.25 102.08 <
2 -19 6 2 122.64 -133.54 127.79 <
3 19 6 -2 63.82 195.63 148.23 <
3 -19 6 -2 78.57 -170.98 106.11 <
3 19 6 -1 74.63 67.36 98.47 <
3 -19 6 -1 77.83 -125.48 111.32 <
3 19 6 0 354.53 302.45 157.00 <
3 -19 6 0 343.20 -70.21 116.30 <
3 19 6 1 118.01 206.41 152.85 <
3 -19 6 1 114.07 -133.72 181.41 <
3 -19 6 2 8.51 -94.50 110.14 <
4 19 6 -2 60.60 -13.63 88.34 <
4 -19 6 -2 60.55 80.99 111.44 <
4 -19 6 -1 14.14 -38.33 69.73 <
-3 20 6 -2 41.30 143.20 168.38 <
-3 -20 6 -2 44.30 128.86 132.71 <
-3 20 6 -1 242.55 638.67 272.00 <
-3 -20 6 -1 254.18 253.27 166.48 <
-3 20 6 0 17.06 -59.54 84.01 <
-3 -20 6 0 11.24 -104.98 137.80 <
-3 20 6 1 39.71 -0.83 16.53 <
-3 -20 6 1 45.41 -139.17 98.76 <
-3 20 6 2 42.33 5.81 48.52 <
-3 -20 6 2 42.28 87.03 99.18 <
-2 20 6 -2 84.15 61.14 57.35 <
-2 -20 6 -2 72.91 -21.92 73.05 <
-2 20 6 -1 65.91 24.59 56.64 <
-2 -20 6 -1 65.14 232.01 161.03 <
-2 20 6 0 24.61 44.32 82.00 <
-2 -20 6 0 33.07 210.68 125.36 <
-2 20 6 1 25.97 -12.80 24.41 <
-2 -20 6 1 34.93 -62.50 78.50 <
-2 20 6 2 23.45 47.75 49.23 <
-1 20 6 -2 116.07 236.92 88.04 <
-1 -20 6 -2 110.61 57.23 13.69 o
-1 20 6 -1 428.73 592.04 128.98 o
-1 -20 6 -1 437.23 454.24 205.17 <
-1 20 6 0 55.57 43.43 56.52 <
-1 20 6 1 3.72 148.05 95.21 <
-1 20 6 2 24.58 -24.88 70.15 <
0 20 6 -2 56.57 126.55 59.42 <
0 -20 6 -2 43.86 78.26 47.69 <
0 20 6 -1 27.53 31.10 79.09 <
0 20 6 0 56.32 147.64 100.72 <
0 20 6 1 4.93 129.10 99.77 <
0 20 6 2 47.03 19.31 71.39 <
1 20 6 -2 66.03 128.15 108.12 <
1 20 6 -1 411.75 281.54 115.00 <
1 20 6 0 19.87 32.53 78.20 <
1 -20 6 0 19.54 381.01 241.31 <
1 20 6 1 249.82 486.05 211.21 <
1 -20 6 1 259.59 583.45 249.48 <
1 20 6 2 21.40 -20.44 44.91 <
1 -20 6 2 18.48 125.07 189.65 <
2 20 6 -2 88.17 208.13 141.01 <
2 -20 6 -2 68.85 23.82 97.34 <
2 20 6 -1 2.48 -15.88 93.07 <
2 -20 6 -1 1.42 73.70 94.62 <
2 20 6 0 1.45 127.67 115.23 <
2 -20 6 0 3.65 95.92 122.64 <
2 20 6 1 20.09 -15.88 116.06 <
2 -20 6 1 23.42 -89.82 70.50 <
2 20 6 2 27.70 64.22 79.69 <
2 -20 6 2 25.95 159.25 150.84 <
3 20 6 -2 79.81 240.83 160.08 <
3 -20 6 -2 74.34 -178.21 133.66 <
3 20 6 -1 205.50 150.72 107.06 <
3 -20 6 -1 216.58 0.00 134.19 <
3 20 6 0 8.82 77.08 65.11 <
3 -20 6 0 9.34 0.00 95.15 <
3 -20 6 1 6.68 -60.49 81.40 <
4 -20 6 -2 34.87 -54.86 105.04 <
-3 -21 6 -2 2.65 -48.29 60.08 <
-3 21 6 -1 51.28 -6.81 66.12 <
-3 -21 6 -1 40.78 157.77 96.81 <
-3 21 6 0 5.26 -75.24 122.11 <
-3 -21 6 0 6.83 42.24 87.33 <
-3 21 6 1 57.95 -53.38 76.90 <
-3 -21 6 1 51.47 -117.54 144.26 <
-3 21 6 2 15.15 276.38 174.54 <
-2 21 6 -2 47.83 -23.82 57.82 <
-2 -21 6 -2 50.28 119.38 120.51 <
-2 21 6 -1 133.99 161.15 86.56 <
-2 -21 6 -1 135.29 260.15 157.36 <
-2 21 6 0 508.79 555.25 164.64 o
-2 -21 6 0 541.81 892.24 276.56 o
-2 21 6 1 27.60 -2.19 64.34 <
-2 21 6 2 83.32 209.14 110.61 <
-1 21 6 -2 20.18 92.42 65.76 <
-1 -21 6 -2 22.12 109.01 119.68 <
-1 21 6 -1 385.33 522.07 129.15 o
-1 -21 6 -1 423.49 402.99 168.55 <
-1 21 6 0 29.13 -42.42 50.48 <
-1 21 6 1 31.13 72.81 56.52 <
-1 21 6 2 19.26 -55.63 97.34 <
0 21 6 -2 67.71 178.57 97.81 <
0 21 6 -1 127.36 77.67 86.02 <
0 21 6 0 1125.86 1496.13 263.46 o
0 21 6 1 71.96 72.22 75.24 <
0 21 6 2 26.87 15.40 43.25 <
1 21 6 -2 28.07 -26.96 43.31 <
1 21 6 -1 36.97 122.64 105.52 <
1 21 6 0 11.03 11.79 46.57 <
1 21 6 1 250.63 220.10 121.51 <
1 -21 6 1 229.65 373.31 187.93 <
1 21 6 2 24.24 44.20 65.88 <
1 -21 6 2 26.64 141.83 173.35 <
2 21 6 -2 40.47 -5.27 10.78 <
2 -21 6 -2 34.49 111.26 163.87 <
2 21 6 -1 66.28 81.34 123.05 <
2 -21 6 -1 68.70 26.60 58.00 <
2 21 6 0 418.34 488.54 207.89 <
2 -21 6 0 441.13 359.33 216.07 <
2 21 6 1 7.10 116.83 112.33 <
2 -21 6 1 5.62 16.89 50.95 <
2 21 6 2 25.23 -3.61 22.57 <
2 -21 6 2 27.55 -55.75 97.87 <
3 21 6 -2 31.66 -79.39 75.12 <
3 -21 6 -2 33.56 13.21 55.81 <
3 21 6 -1 39.16 145.80 166.12 <
3 -21 6 -1 45.03 -51.37 79.63 <
3 -21 6 0 33.13 146.99 162.69 <
-3 -22 6 0 167.93 81.64 87.09 <
-3 -22 6 1 28.16 -55.28 70.21 <
-3 22 6 2 5.95 117.13 122.28 <
-2 22 6 -2 33.02 36.26 77.85 <
-2 -22 6 -2 25.71 57.59 49.59 <
-2 22 6 -1 19.11 94.14 76.84 <
-2 -22 6 -1 17.54 -21.15 78.56 <
-2 22 6 0 25.58 -30.69 39.64 <
-2 -22 6 0 29.20 15.94 71.45 <
-2 22 6 1 37.09 -29.92 59.60 <
-2 22 6 2 24.21 32.70 97.99 <
-1 22 6 -2 75.93 172.35 77.67 <
-1 -22 6 -2 86.87 88.39 111.97 <
-1 22 6 -1 45.08 102.73 76.60 <
-1 22 6 0 195.55 66.18 53.68 <
-1 22 6 1 13.08 124.71 89.82 <
-1 22 6 2 11.99 3.97 19.91 <
0 22 6 -2 9.12 88.93 65.17 <
0 22 6 -1 86.60 154.75 89.88 <
0 22 6 0 44.51 19.67 62.86 <
0 22 6 1 124.86 100.72 75.48 <
0 22 6 2 10.55 -13.51 56.70 <
1 22 6 -2 115.78 143.26 100.01 <
1 22 6 -1 83.59 52.08 76.96 <
1 22 6 0 199.41 209.20 109.25 <
1 -22 6 0 199.00 280.82 205.17 <
1 22 6 1 54.82 57.11 94.26 <
1 -22 6 1 65.04 108.24 79.15 <
1 22 6 2 61.82 73.58 42.95 <
1 -22 6 2 60.07 177.68 201.61 <
2 22 6 -2 25.91 117.84 102.55 <
2 -22 6 -2 30.59 158.24 185.97 <
2 22 6 -1 78.72 165.00 145.21 <
2 -22 6 -1 65.43 12.62 72.46 <
2 22 6 0 48.82 237.46 158.19 <
2 -22 6 0 51.57 237.04 168.55 <
2 22 6 1 53.93 59.60 116.18 <
2 -22 6 1 52.38 102.38 85.43 <
3 22 6 -2 90.46 40.88 72.93 <
3 -22 6 -2 92.62 52.73 88.16 <
-2 23 6 -2 36.09 18.78 21.68 <
-2 -23 6 -2 33.53 31.22 71.63 <
-2 23 6 -1 57.54 162.27 102.91 <
-2 -23 6 -1 52.52 -57.47 88.04 <
-2 23 6 0 17.49 -36.26 68.13 <
-2 23 6 1 67.70 101.78 113.28 <
-2 23 6 2 55.12 97.93 128.38 <
-1 23 6 -2 7.13 -91.77 66.12 <
-1 -23 6 -2 6.11 2.90 43.25 <
-1 23 6 -1 58.98 149.00 86.74 <
-1 23 6 0 741.79 1152.21 243.44 o
-1 23 6 1 19.89 -236.09 119.44 <
-1 23 6 2 5.95 114.34 84.37 <
0 23 6 -2 65.82 111.97 68.67 <
0 23 6 -1 34.55 72.22 76.66 <
0 23 6 0 112.86 30.75 85.73 <
0 23 6 1 16.86 23.58 72.22 <
0 23 6 2 106.41 177.50 117.66 <
1 23 6 -2 5.72 54.57 83.42 <
1 -23 6 -2 6.04 287.28 195.10 <
1 23 6 -1 59.21 262.04 159.13 <
1 -23 6 -1 61.31 191.84 210.20 <
1 23 6 0 512.32 1138.17 261.81 o
1 -23 6 0 525.34 698.98 294.63 <
1 23 6 1 379.19 504.71 197.35 <
1 -23 6 1 387.17 465.43 238.58 <
1 23 6 2 18.98 -24.17 39.75 <
1 -23 6 2 22.90 96.63 131.58 <
2 23 6 -2 93.99 142.66 123.41 <
2 -23 6 -2 93.52 198.12 188.05 <
2 23 6 -1 7.37 74.83 49.47 <
2 -23 6 -1 7.72 -36.32 53.97 <
2 23 6 0 20.10 104.15 141.12 <
2 -23 6 0 18.70 -79.03 87.80 <
-2 24 6 -2 69.50 54.33 94.79 <
-2 -24 6 -2 69.47 357.55 215.30 <
-2 24 6 -1 223.65 244.03 185.14 <
-2 24 6 0 6.89 -14.52 52.25 <
-2 24 6 1 102.31 15.88 47.40 <
-2 24 6 2 32.97 47.69 125.48 <
-1 24 6 -2 23.86 94.50 136.15 <
-1 24 6 -1 67.11 188.05 179.87 <
-1 24 6 0 52.19 220.69 183.84 <
-1 24 6 1 4.16 -24.65 10.31 <
-1 24 6 2 18.98 -18.66 100.78 <
0 24 6 -2 21.59 169.38 110.43 <
0 24 6 -1 332.37 209.14 111.68 <
0 24 6 0 251.01 444.46 153.51 <
0 24 6 1 154.30 23.82 32.53 <
0 24 6 2 24.82 -73.70 78.62 <
1 24 6 -2 41.55 109.84 69.32 <
1 -24 6 -2 38.42 253.75 241.78 <
1 24 6 -1 22.91 201.55 130.70 <
1 -24 6 -1 33.41 300.85 254.64 <
1 24 6 0 66.29 308.67 162.93 <
1 -24 6 0 56.80 414.42 260.98 <
1 24 6 1 63.80 -0.89 69.32 <
2 24 6 -2 44.37 -57.65 73.52 <
2 -24 6 -2 43.51 101.25 108.60 <
0 25 6 -2 47.65 -7.88 83.12 <
0 25 6 -1 98.62 79.63 73.05 <
0 25 6 0 199.39 537.65 266.66 <
0 25 6 1 10.22 -6.93 27.19 <
1 25 6 -2 22.66 10.01 33.95 <
1 25 6 -1 26.47 131.76 159.79 <
-5 0 7 -2 29.92 166.24 104.04 <
-5 0 7 -1 401.46 444.40 136.92 o
-5 0 7 0 38.12 151.55 76.90 <
-5 0 7 1 638.18 237.63 105.69 <
-5 0 7 2 47.31 82.47 58.42 <
-4 0 7 -2 63.07 166.42 87.86 <
-4 0 7 -1 1439.64 2024.90 272.23 o
-4 0 7 0 17.08 225.19 100.54 <
-4 0 7 1 311.26 215.60 97.40 <
-4 0 7 2 109.99 109.49 77.61 <
-3 0 7 -2 65.08 178.33 85.25 <
-3 0 7 -1 1397.46 1361.35 204.10 o
-3 0 7 0 52.04 164.11 71.04 <
-3 0 7 1 1897.46 1110.20 197.29 o
-3 0 7 2 32.14 13.09 36.26 <
-2 0 7 -2 1666.55 1062.93 181.17 o
-2 0 7 -1 1697.68 2053.51 218.79 o
-2 0 7 0 275.54 395.52 106.94 o
-2 0 7 1 134.65 56.99 34.54 <
-2 0 7 2 189.41 49.06 61.26 <
-1 0 7 -2 38.53 89.40 58.12 <
-1 0 7 -1 390.18 444.70 97.93 o
-1 0 7 0 261.68 48.11 77.43 <
-1 0 7 1 4462.80 4837.34 485.46 o
-1 0 7 2 72.29 300.14 146.16 <
0 0 7 -2 76.11 78.14 83.18 <
0 0 7 0 573.57 528.89 219.03 <
0 0 7 1 82.94 209.97 126.55 <
0 0 7 2 310.29 154.81 127.14 <
1 0 7 -2 12.32 42.18 48.94 <
1 0 7 -1 11.56 188.58 140.59 <
1 0 7 0 245.62 -22.22 37.09 <
1 0 7 1 8.68 67.95 28.26 <
1 0 7 2 71.85 60.08 81.64 <
2 0 7 -2 62.46 12.74 28.38 <
2 0 7 -1 30.69 42.42 54.92 <
2 0 7 0 241.15 724.22 262.93 <
2 0 7 1 142.20 218.62 155.16 <
2 0 7 2 231.49 127.20 80.99 <
3 0 7 -2 24.22 -24.23 39.16 <
3 0 7 -1 721.87 672.26 211.86 o
3 0 7 0 198.50 217.96 147.94 <
3 0 7 1 783.39 871.50 247.76 o
3 0 7 2 109.56 242.37 166.60 <
4 0 7 -2 100.82 161.09 131.70 <
4 0 7 -1 127.50 -52.25 91.30 <
4 0 7 0 17.42 512.95 251.85 <
4 0 7 1 86.10 190.48 135.20 <
4 0 7 2 44.79 41.06 141.89 <
5 0 7 -2 3.19 -21.68 96.10 <
5 0 7 -1 213.41 220.45 156.82 <
5 0 7 0 119.22 -60.85 31.04 <
5 0 7 1 3.20 49.77 73.94 <
6 0 7 -2 12.47 119.26 145.03 <
-6 1 7 2 40.83 212.51 142.90 <
-5 1 7 -2 97.75 21.98 16.11 <
-5 -1 7 -2 95.33 48.46 70.09 <
-5 1 7 -1 189.38 218.14 99.18 <
-5 -1 7 -1 198.73 208.96 110.08 <
-5 1 7 0 234.85 38.04 75.30 <
-5 -1 7 0 238.52 74.29 72.64 <
-5 1 7 1 383.79 263.35 99.06 <
-5 -1 7 1 389.38 281.54 119.08 <
-5 1 7 2 127.97 -48.29 45.50 <
-5 -1 7 2 148.81 58.42 74.12 <
-4 1 7 -2 4.29 -53.56 25.36 <
-4 -1 7 -2 3.53 30.93 51.78 <
-4 1 7 -1 279.21 242.20 95.44 <
-4 -1 7 -1 252.24 219.51 94.79 <
-4 1 7 0 1932.90 3227.76 342.32 o
-4 -1 7 0 1918.70 2953.04 323.30 o
-4 1 7 1 18.15 49.17 52.55 <
-4 -1 7 1 9.58 110.38 79.09 <
-4 1 7 2 171.72 172.11 77.79 <
-4 -1 7 2 173.42 166.01 78.14 <
-3 1 7 -2 94.52 65.05 64.93 <
-3 -1 7 -2 85.71 72.34 65.94 <
-3 1 7 -1 29.37 66.59 46.27 <
-3 -1 7 -1 34.82 50.24 65.94 <
-3 1 7 0 965.96 648.33 135.73 o
-3 -1 7 0 964.71 664.20 143.32 o
-3 1 7 1 1100.66 831.28 170.80 o
-3 -1 7 1 1109.24 780.62 165.12 o
-3 1 7 2 197.80 -4.80 41.83 <
-3 -1 7 2 219.29 -21.45 43.90 <
-2 1 7 -2 2811.22 2761.14 268.44 o
-2 -1 7 -2 2795.57 2888.16 278.34 o
-2 1 7 -1 1110.71 1309.27 181.35 o
-2 -1 7 -1 1068.45 1246.23 176.55 o
-2 1 7 0 3827.82 4561.67 334.09 o
-2 -1 7 0 3793.94 5006.85 342.85 o
-2 1 7 1 220.40 309.02 133.60 <
-2 -1 7 1 152.07 292.55 92.66 o
-2 1 7 2 262.88 -55.34 41.00 <
-2 -1 7 2 266.15 19.97 36.79 <
-1 1 7 -2 173.81 44.43 19.31 <
-1 -1 7 -2 166.89 74.95 40.11 <
-1 1 7 -1 791.77 488.48 89.64 o
-1 -1 7 -1 779.41 692.76 121.28 o
-1 1 7 0 2764.37 3206.55 373.42 o
-1 -1 7 0 2706.50 3033.20 249.66 o
-1 1 7 1 1820.91 1760.36 299.31 o
-1 -1 7 1 1836.97 2005.52 320.40 o
-1 1 7 2 85.65 42.60 75.12 <
-1 -1 7 2 89.14 111.03 89.11 <
0 1 7 -2 323.14 79.21 67.07 <
0 1 7 -1 518.09 456.19 137.21 o
0 -1 7 -1 498.90 500.15 179.16 <
0 1 7 0 17523.40 19895.90 682.15 o
0 -1 7 0 17598.40 20499.10 1032.00 o
0 1 7 1 596.12 268.44 138.69 <
0 -1 7 1 466.64 435.34 181.05 <
0 1 7 2 84.19 59.54 5.39 o
0 -1 7 2 83.66 -43.43 21.27 <
1 1 7 -2 26.31 41.59 76.25 <
1 -1 7 -2 22.13 26.48 96.39 <
1 1 7 -1 1253.72 1040.00 158.30 o
1 -1 7 -1 1317.46 1406.19 274.01 o
1 1 7 0 2052.65 2645.91 391.79 o
1 -1 7 0 1997.07 2343.34 349.08 o
1 1 7 1 717.07 438.54 178.68 <
1 -1 7 1 839.49 549.80 108.60 o
1 1 7 2 137.16 -27.19 45.80 <
1 -1 7 2 150.94 120.74 91.30 <
2 1 7 -2 59.42 18.48 32.70 <
2 -1 7 -2 62.27 39.52 53.56 <
2 1 7 -1 66.04 70.98 22.63 o
2 -1 7 -1 68.29 73.94 51.43 <
2 1 7 0 3945.52 5547.64 612.36 o
2 -1 7 0 4007.46 4981.96 541.15 o
2 1 7 1 495.78 732.99 253.69 <
2 -1 7 1 439.99 592.69 205.52 <
2 1 7 2 100.71 154.81 150.90 <
2 -1 7 2 96.09 214.82 164.29 <
3 1 7 -2 13.68 23.11 183.31 <
3 -1 7 -2 16.03 65.76 46.45 <
3 1 7 -1 921.55 495.23 198.35 <
3 -1 7 -1 957.47 641.81 215.12 <
3 1 7 0 196.84 243.20 141.36 <
3 -1 7 0 201.30 238.35 137.80 <
3 1 7 1 650.72 692.11 233.60 <
3 -1 7 1 733.49 893.25 258.90 o
3 1 7 2 71.50 18.66 51.37 <
3 -1 7 2 80.80 174.18 125.25 <
4 1 7 -2 43.48 126.13 144.15 <
4 -1 7 -2 45.30 72.40 96.27 <
4 1 7 -1 8.00 49.17 88.93 <
4 -1 7 -1 15.57 216.37 135.79 <
4 1 7 0 1754.31 2368.64 435.63 o
4 -1 7 0 1731.44 2352.76 442.09 o
4 1 7 1 283.41 452.87 210.74 <
4 -1 7 1 268.57 469.88 218.79 <
4 1 7 2 8.21 149.06 168.08 <
4 -1 7 2 8.02 123.23 131.41 <
5 1 7 -2 51.47 162.75 120.86 <
5 -1 7 -2 58.94 82.00 150.43 <
5 1 7 -1 258.96 190.95 169.50 <
5 -1 7 -1 275.03 122.76 127.44 <
5 1 7 0 12.64 10.31 65.35 <
5 -1 7 0 15.40 114.05 135.61 <
5 1 7 1 226.34 117.37 133.30 <
5 -1 7 1 261.14 244.51 193.44 <
6 1 7 -2 16.20 282.84 185.50 <
6 -1 7 -2 14.98 351.50 207.83 <
-5 2 7 -2 68.81 182.95 82.11 <
-5 -2 7 -2 77.18 294.51 166.66 <
-5 2 7 -1 200.52 292.38 121.33 <
-5 -2 7 -1 193.40 107.41 87.80 <
-5 2 7 0 353.31 25.42 62.86 <
-5 -2 7 0 360.64 150.01 73.05 <
-5 2 7 1 143.15 79.86 54.51 <
-5 -2 7 1 154.67 23.22 32.94 <
-5 2 7 2 17.28 66.36 56.94 <
-5 -2 7 2 15.47 -20.80 73.35 <
-4 2 7 -2 141.16 120.27 72.87 <
-4 -2 7 -2 134.39 101.78 74.71 <
-4 2 7 -1 371.20 309.97 109.25 <
-4 -2 7 -1 375.65 251.02 110.73 <
-4 2 7 0 89.03 107.29 66.95 <
-4 -2 7 0 73.47 -0.83 18.54 <
-4 2 7 1 156.86 60.67 62.09 <
-4 -2 7 1 136.03 73.82 62.15 <
-4 2 7 2 323.58 139.23 127.26 <
-4 -2 7 2 317.32 82.59 42.36 <
-3 2 7 -2 186.61 250.73 92.48 <
-3 -2 7 -2 205.79 342.68 111.26 o
-3 2 7 -1 190.21 282.01 87.68 o
-3 -2 7 -1 158.68 297.95 97.04 o
-3 2 7 0 1910.57 1894.20 236.45 o
-3 -2 7 0 2003.48 2111.16 252.74 o
-3 2 7 1 414.80 207.71 119.91 <
-3 -2 7 1 434.37 160.73 76.13 <
-3 2 7 2 25.87 131.88 92.96 <
-3 -2 7 2 23.94 78.86 68.25 <
-2 2 7 -2 731.81 639.97 132.29 o
-2 -2 7 -2 714.97 805.80 144.80 o
-2 2 7 -1 439.70 656.26 190.89 o
-2 -2 7 -1 500.48 785.83 146.04 o
-2 2 7 0 364.23 370.23 140.59 <
-2 -2 7 0 270.78 344.22 87.09 o
-2 2 7 1 284.28 140.59 108.00 <
-2 -2 7 1 293.89 110.49 51.19 <
-2 2 7 2 414.36 372.95 167.90 <
-2 -2 7 2 394.86 258.67 89.64 <
-1 2 7 -2 327.80 255.17 55.75 o
-1 -2 7 -2 354.06 390.90 96.51 o
-1 2 7 -1 535.30 294.69 71.98 o
-1 -2 7 -1 538.21 489.61 105.87 o
-1 2 7 0 4344.94 5614.29 494.35 o
-1 -2 7 0 4641.30 5671.58 335.57 o
-1 2 7 1 1460.52 1160.86 227.98 o
-1 -2 7 1 1401.88 1346.95 266.31 o
-1 2 7 2 20.42 97.99 68.90 <
-1 -2 7 2 15.54 70.38 80.22 <
0 2 7 -2 93.91 125.96 74.06 <
0 -2 7 -2 103.58 52.31 43.90 <
0 2 7 -1 141.69 264.00 111.38 <
0 -2 7 -1 178.86 279.40 139.40 <
0 2 7 0 3454.96 4215.62 321.05 o
0 -2 7 0 3282.57 4364.62 469.46 o
0 2 7 1 1013.07 906.40 156.53 o
0 -2 7 1 1047.34 838.27 225.73 o
0 2 7 2 65.21 44.20 67.78 <
0 -2 7 2 58.20 45.62 42.42 <
1 2 7 -2 73.44 27.31 27.73 <
1 -2 7 -2 72.92 19.49 65.17 <
1 2 7 -1 132.38 105.10 58.65 <
1 -2 7 -1 124.64 91.95 68.31 <
1 2 7 0 5148.14 6495.86 636.95 o
1 -2 7 0 5454.66 6336.08 553.00 o
1 2 7 1 436.18 378.17 143.67 <
1 -2 7 1 372.56 333.67 96.27 o
1 2 7 2 335.54 278.69 123.11 <
1 -2 7 2 305.80 234.73 71.39 o
2 2 7 -2 509.45 264.12 88.81 <
2 -2 7 -2 522.68 137.27 50.36 <
2 2 7 -1 100.33 106.17 93.55 <
2 -2 7 -1 79.26 144.91 62.39 <
2 2 7 0 626.76 314.54 155.22 <
2 -2 7 0 509.56 329.52 75.48 o
2 2 7 1 760.01 746.20 230.17 o
2 -2 7 1 812.81 614.38 205.88 <
2 2 7 2 70.26 19.02 107.12 <
2 -2 7 2 61.61 47.34 69.73 <
3 2 7 -2 118.50 28.38 20.62 <
3 -2 7 -2 120.58 62.92 43.13 <
3 2 7 -1 237.91 167.96 127.32 <
3 -2 7 -1 249.39 191.96 80.87 <
3 2 7 0 2081.46 1765.10 356.01 o
3 -2 7 0 2183.99 2252.40 399.67 o
3 2 7 1 1068.57 825.11 243.85 o
3 -2 7 1 988.86 1048.17 277.51 o
3 2 7 2 181.01 209.61 98.88 <
3 -2 7 2 161.99 285.39 159.67 <
4 2 7 -2 403.93 251.50 185.02 <
4 -2 7 -2 407.61 167.61 128.44 <
4 2 7 -1 220.76 345.76 181.82 <
4 -2 7 -1 206.80 156.88 154.16 <
4 2 7 0 96.89 386.52 209.67 <
4 -2 7 0 74.42 322.24 172.11 <
4 2 7 1 207.10 240.48 173.00 <
4 -2 7 1 234.86 304.64 181.11 <
4 2 7 2 256.04 612.24 246.58 <
4 -2 7 2 267.16 421.30 234.26 <
5 2 7 -2 42.30 -129.21 105.93 <
5 -2 7 -2 44.46 92.66 41.89 <
5 2 7 -1 35.56 105.58 89.76 <
5 -2 7 -1 38.19 248.00 160.44 <
5 2 7 0 531.28 221.16 150.37 <
5 -2 7 0 553.27 534.34 231.47 <
5 2 7 1 10.18 41.41 59.60 <
5 -2 7 1 6.15 150.01 128.74 <
6 2 7 -2 129.02 194.92 155.46 <
6 -2 7 -2 127.93 -69.85 100.60 <
-5 3 7 -2 71.67 156.41 127.02 <
-5 -3 7 -2 77.58 300.97 170.45 <
-5 3 7 -1 140.88 273.65 157.71 <
-5 -3 7 -1 158.38 374.31 182.30 <
-5 3 7 0 441.17 746.73 260.92 <
-5 -3 7 0 441.20 567.69 219.62 <
-5 3 7 1 65.89 40.35 44.49 <
-5 -3 7 1 76.88 -45.86 57.71 <
-5 3 7 2 83.97 137.98 130.99 <
-5 -3 7 2 85.87 104.86 71.51 <
-4 3 7 -2 67.41 23.52 52.25 <
-4 -3 7 -2 70.14 3.67 29.39 <
-4 3 7 -1 351.32 553.35 198.29 <
-4 -3 7 -1 379.07 476.69 131.70 o
-4 3 7 0 16.75 74.95 108.00 <
-4 -3 7 0 19.19 -19.14 34.24 <
-4 3 7 1 168.23 148.88 125.48 <
-4 -3 7 1 141.61 205.88 100.48 <
-4 3 7 2 270.18 267.02 148.29 <
-4 -3 7 2 221.96 207.95 87.51 <
-3 3 7 -2 19.92 45.09 48.40 <
-3 -3 7 -2 27.97 60.02 58.77 <
-3 3 7 -1 167.95 169.98 125.13 <
-3 -3 7 -1 262.22 215.12 82.77 <
-3 3 7 0 2255.51 3121.41 429.95 o
-3 -3 7 0 2267.73 3194.70 308.08 o
-3 3 7 1 212.26 159.55 108.95 <
-3 -3 7 1 267.83 74.41 60.25 <
-3 3 7 2 108.28 1.48 38.33 <
-3 -3 7 2 115.07 21.57 56.34 <
-2 3 7 -2 152.67 218.56 112.68 <
-2 -3 7 -2 172.19 88.34 49.83 <
-2 3 7 -1 1074.01 1356.96 260.92 o
-2 -3 7 -1 1109.55 1347.78 183.42 o
-2 3 7 0 813.46 1116.19 244.03 o
-2 -3 7 0 860.23 1116.42 165.41 o
-2 3 7 1 33.38 132.89 71.27 <
-2 -3 7 1 28.42 96.33 70.44 <
-2 3 7 2 458.94 356.84 161.33 <
-2 -3 7 2 412.56 488.01 128.80 o
-1 3 7 -2 74.61 197.41 67.30 <
-1 -3 7 -2 70.85 185.14 74.29 <
-1 3 7 -1 2417.25 2565.99 342.50 o
-1 -3 7 -1 2407.01 2378.89 221.64 o
-1 3 7 0 3441.17 4599.41 440.37 o
-1 -3 7 0 3355.60 4043.87 280.88 o
-1 3 7 1 156.21 72.28 70.74 <
-1 -3 7 1 250.83 104.81 63.27 <
-1 3 7 2 44.49 21.45 77.85 <
-1 -3 7 2 50.05 60.67 100.95 <
0 3 7 -2 95.92 86.85 39.64 <
0 -3 7 -2 88.25 33.47 44.85 <
0 3 7 -1 1741.38 1465.68 144.26 o
0 -3 7 -1 1673.79 1636.36 278.75 o
0 3 7 0 64.65 97.70 43.78 <
0 3 7 1 300.80 323.60 73.52 o
0 -3 7 1 288.80 639.67 215.48 <
0 3 7 2 221.29 248.06 97.93 <
0 -3 7 2 219.29 340.07 153.39 <
1 3 7 -2 40.33 57.35 32.82 <
1 -3 7 -2 43.99 -40.88 21.33 <
1 3 7 -1 153.27 167.07 63.39 <
1 -3 7 -1 176.78 321.70 113.99 <
1 3 7 0 4080.29 4963.60 353.34 o
1 -3 7 0 3985.86 4945.58 480.78 o
1 3 7 1 2225.64 1962.81 222.47 o
1 -3 7 1 2325.18 1749.40 200.07 o
1 3 7 2 246.35 111.44 66.65 <
1 -3 7 2 233.09 116.12 65.47 <
2 3 7 -2 343.00 139.94 74.89 <
2 -3 7 -2 357.65 226.91 75.95 <
2 3 7 -1 2480.76 2697.93 294.51 o
2 -3 7 -1 2338.54 1968.85 206.00 o
2 3 7 0 1919.19 2147.00 268.56 o
2 -3 7 0 1954.70 1542.04 184.96 o
2 3 7 1 1176.56 1722.45 249.66 o
2 -3 7 1 1065.39 1271.94 176.97 o
2 3 7 2 307.58 540.73 207.95 <
2 -3 7 2 329.40 428.05 182.36 <
3 3 7 -2 54.99 88.51 71.69 <
3 -3 7 -2 57.54 52.85 43.31 <
3 3 7 -1 322.64 407.85 121.45 o
3 -3 7 -1 311.98 285.39 83.65 o
3 3 7 0 2275.65 2537.43 426.33 o
3 -3 7 0 2276.51 3108.38 476.51 o
3 3 7 1 41.32 141.24 102.20 <
3 -3 7 1 66.31 40.64 40.46 <
3 3 7 2 97.30 405.12 169.09 <
3 -3 7 2 88.41 -18.96 24.76 <
4 3 7 -2 365.87 107.59 126.13 <
4 -3 7 -2 373.84 56.64 129.27 <
4 3 7 -1 789.23 962.80 289.24 o
4 -3 7 -1 717.76 770.55 266.66 <
4 3 7 0 201.25 179.75 136.86 <
4 -3 7 0 229.49 180.58 152.62 <
4 3 7 1 764.36 777.48 287.46 <
4 -3 7 1 683.52 906.64 296.17 o
4 3 7 2 305.10 392.92 269.21 <
4 -3 7 2 282.75 396.83 216.25 <
5 3 7 -2 49.80 35.84 47.40 <
5 -3 7 -2 54.62 7.88 78.80 <
5 3 7 -1 51.37 -133.01 144.97 <
5 -3 7 -1 46.87 -103.38 77.43 <
5 3 7 0 603.84 228.57 156.41 <
5 -3 7 0 615.82 555.55 250.37 <
5 3 7 1 24.89 -188.05 149.36 <
5 -3 7 1 15.10 -56.40 21.57 <
6 3 7 -2 111.26 -38.98 78.32 <
-5 4 7 -2 44.78 105.58 118.91 <
-5 -4 7 -2 41.96 164.70 125.60 <
-5 4 7 -1 680.58 769.13 248.30 o
-5 -4 7 -1 621.43 1036.03 297.23 o
-5 4 7 0 9.76 -114.05 41.18 <
-5 -4 7 0 14.85 150.96 128.21 <
-5 4 7 1 61.11 -73.94 63.63 <
-5 -4 7 1 62.46 162.45 119.08 <
-5 4 7 2 213.49 25.12 71.57 <
-5 -4 7 2 203.28 -24.53 55.63 <
-4 4 7 -2 23.33 -81.11 64.28 <
-4 -4 7 -2 27.53 -2.37 41.77 <
-4 4 7 -1 403.54 467.33 181.71 <
-4 -4 7 -1 385.47 427.52 129.21 o
-4 4 7 0 1693.46 1474.68 338.89 o
-4 -4 7 0 1688.50 1316.50 220.99 o
-4 4 7 1 401.23 375.08 195.10 <
-4 -4 7 1 380.93 275.37 105.81 <
-4 4 7 2 54.38 126.79 140.65 <
-4 -4 7 2 55.60 20.62 49.00 <
-3 4 7 -2 143.34 108.06 103.92 <
-3 -4 7 -2 134.18 26.36 46.63 <
-3 4 7 -1 706.08 662.13 198.47 o
-3 -4 7 -1 653.08 602.05 132.06 o
-3 4 7 0 277.71 349.31 152.14 <
-3 -4 7 0 315.42 231.53 83.77 <
-3 4 7 1 217.52 135.32 108.78 <
-3 -4 7 1 221.83 23.28 39.64 <
-3 4 7 2 162.55 3.85 52.43 <
-3 -4 7 2 174.66 -59.84 52.85 <
-2 4 7 -2 64.82 98.58 77.32 <
-2 -4 7 -2 70.45 51.90 44.14 <
-2 4 7 -1 223.51 275.02 131.58 <
-2 -4 7 -1 216.07 249.48 86.32 <
-2 4 7 0 6495.51 7234.01 593.46 o
-2 -4 7 0 6386.13 6812.47 412.70 o
-2 4 7 1 1473.09 1351.87 292.55 o
-2 -4 7 1 1443.80 1250.32 185.38 o
-2 4 7 2 89.28 86.38 85.14 <
-2 -4 7 2 84.60 105.10 66.47 <
-1 4 7 -2 275.38 195.63 65.64 <
-1 -4 7 -2 270.10 307.96 86.68 o
-1 4 7 -1 8163.04 8059.59 571.01 o
-1 -4 7 -1 8086.35 7891.57 395.40 o
-1 4 7 0 936.95 925.95 201.85 o
-1 -4 7 0 960.35 1017.96 177.74 o
-1 4 7 1 183.37 24.05 36.79 <
-1 -4 7 1 155.43 43.31 44.61 <
-1 4 7 2 102.93 59.78 81.58 <
-1 -4 7 2 125.70 127.44 58.00 <
0 4 7 -2 501.11 562.42 94.50 o
0 -4 7 -2 498.11 493.99 98.53 o
0 4 7 -1 62.35 52.85 30.22 <
0 -4 7 -1 55.32 51.01 38.51 <
0 4 7 0 7032.89 6678.76 319.04 o
0 -4 7 0 6951.82 7764.43 628.30 o
0 4 7 1 930.08 927.02 127.38 o
0 -4 7 1 935.65 1268.57 278.34 o
0 4 7 2 51.87 74.35 51.31 <
0 -4 7 2 50.31 189.65 95.50 <
1 4 7 -2 73.80 131.41 47.04 <
1 -4 7 -2 81.97 179.63 108.36 <
1 4 7 -1 127.36 171.81 55.63 o
1 -4 7 -1 142.11 93.25 64.70 <
1 4 7 0 479.48 611.47 97.70 o
1 -4 7 0 476.25 709.29 184.85 o
1 4 7 1 1570.55 1473.85 155.16 o
1 -4 7 1 1502.21 1849.23 306.89 o
1 4 7 2 180.80 93.31 40.46 <
1 -4 7 2 179.29 178.68 65.82 <
2 4 7 -2 880.69 856.16 170.27 o
2 -4 7 -2 862.44 685.71 129.45 o
2 4 7 -1 66.59 97.64 75.48 <
2 -4 7 -1 62.27 20.80 22.63 <
2 4 7 0 6936.87 7691.50 481.73 o
2 -4 7 0 6918.72 7432.30 654.13 o
2 4 7 1 254.03 467.92 143.02 o
2 -4 7 1 276.51 373.84 104.33 o
2 4 7 2 268.33 43.37 37.09 <
2 -4 7 2 248.82 -28.79 113.34 <
3 4 7 -2 100.54 166.60 92.30 <
3 -4 7 -2 126.08 30.39 54.21 <
3 -4 7 -1 205.75 82.88 65.88 <
3 4 7 0 134.52 204.99 96.87 <
3 -4 7 0 114.56 213.88 138.10 <
3 4 7 1 233.09 432.14 172.23 <
3 -4 7 1 209.83 506.90 188.10 <
3 4 7 2 88.58 -70.74 79.57 <
3 -4 7 2 92.27 188.99 151.91 <
4 4 7 -2 514.67 369.81 134.13 <
4 -4 7 -2 502.76 279.17 115.47 <
4 4 7 -1 139.12 93.85 105.16 <
4 -4 7 -1 127.61 175.25 141.24 <
4 4 7 0 1910.55 1351.93 323.01 o
4 -4 7 0 1921.74 2328.65 457.20 o
4 4 7 1 47.32 161.50 131.58 <
4 -4 7 1 61.28 147.11 130.34 <
4 4 7 2 100.02 156.71 140.29 <
4 -4 7 2 111.19 207.30 171.63 <
5 4 7 -2 57.18 -92.42 89.88 <
5 -4 7 -2 70.13 -29.15 30.10 <
5 4 7 -1 198.54 23.76 58.65 <
5 -4 7 -1 158.68 -187.27 159.13 <
5 4 7 0 68.17 0.00 62.03 <
5 -4 7 0 56.89 250.02 158.01 <
5 4 7 1 129.13 12.80 43.66 <
5 -4 7 1 120.83 284.32 137.57 <
6 4 7 -2 10.14 42.95 106.76 <
-5 5 7 -2 99.59 337.05 149.30 <
-5 -5 7 -2 97.86 389.72 187.16 <
-5 5 7 -1 288.64 487.00 198.65 <
-5 -5 7 -1 268.00 677.18 245.45 <
-5 5 7 0 66.83 20.26 107.94 <
-5 -5 7 0 61.85 94.62 115.94 <
-5 5 7 1 27.81 147.23 120.74 <
-5 -5 7 1 41.86 90.05 90.59 <
-5 5 7 2 65.61 37.38 45.20 <
-5 -5 7 2 71.58 31.16 59.01 <
-4 5 7 -2 57.03 153.09 122.76 <
-4 -5 7 -2 60.65 109.96 65.35 <
-4 5 7 -1 1055.68 1339.96 304.40 o
-4 -5 7 -1 1033.79 959.42 181.05 o
-4 5 7 0 240.56 209.20 141.24 <
-4 -5 7 0 216.75 54.39 63.99 <
-4 5 7 1 570.46 193.91 144.68 <
-4 -5 7 1 532.88 367.32 124.71 <
-4 5 7 2 200.14 134.43 134.84 <
-4 -5 7 2 197.78 79.15 72.99 <
-3 5 7 -2 51.84 308.02 152.50 <
-3 -5 7 -2 51.88 171.69 74.53 <
-3 5 7 -1 1091.64 1571.49 311.99 o
-3 -5 7 -1 1027.07 1338.59 194.50 o
-3 5 7 0 221.73 120.27 79.39 <
-3 -5 7 0 204.60 99.47 61.91 <
-3 5 7 1 220.66 305.23 161.86 <
-3 -5 7 1 262.73 141.12 62.15 <
-3 5 7 2 112.60 235.26 131.11 <
-3 -5 7 2 128.67 111.97 68.49 <
-2 5 7 -2 48.90 123.88 86.44 <
-2 -5 7 -2 52.58 26.54 28.44 <
-2 5 7 -1 910.91 862.85 201.38 o
-2 -5 7 -1 867.72 748.03 140.53 o
-2 5 7 0 832.75 450.33 157.95 <
-2 -5 7 0 746.33 389.18 97.52 o
-2 5 7 1 1083.49 1085.08 252.68 o
-2 -5 7 1 1078.17 947.63 162.10 o
-2 5 7 2 85.16 58.59 65.70 <
-2 -5 7 2 82.30 10.01 31.04 <
-1 5 7 -2 100.97 75.06 33.30 <
-1 -5 7 -2 102.96 161.50 65.82 <
-1 5 7 -1 579.36 704.90 96.10 o
-1 -5 7 -1 518.57 667.28 183.72 o
-1 5 7 0 1283.59 1125.25 129.75 o
-1 -5 7 0 1197.62 1358.26 204.93 o
-1 5 7 1 316.25 339.18 77.49 o
-1 -5 7 1 324.91 428.76 112.63 o
-1 5 7 2 23.12 -2.49 20.50 <
-1 -5 7 2 24.12 15.23 9.89 <
0 5 7 -2 16.89 40.41 22.51 <
0 -5 7 -2 15.99 37.68 21.92 <
0 5 7 -1 215.37 117.37 46.03 <
0 -5 7 -1 173.12 80.22 48.70 <
0 5 7 0 5776.25 6164.74 311.39 o
0 -5 7 0 5619.14 6136.36 324.78 o
0 5 7 1 989.15 990.23 122.28 o
0 -5 7 1 998.02 972.34 243.26 o
0 5 7 2 123.61 49.71 34.13 <
0 -5 7 2 120.24 60.55 85.37 <
1 5 7 -2 161.10 96.27 46.63 <
1 -5 7 -2 172.37 9.54 31.64 <
1 5 7 -1 346.32 259.32 63.27 o
1 -5 7 -1 327.31 330.77 136.74 <
1 5 7 0 846.14 964.40 121.69 o
1 -5 7 0 780.15 1088.76 234.91 o
1 5 7 1 2168.51 2296.95 192.07 o
1 -5 7 1 2176.31 2817.42 380.42 o
1 5 7 2 159.21 131.82 43.55 o
1 -5 7 2 155.37 93.96 74.12 <
2 5 7 -2 300.35 171.63 54.03 o
2 -5 7 -2 288.14 167.90 70.09 <
2 5 7 -1 62.13 127.91 68.78 <
2 -5 7 -1 40.99 147.88 66.95 <
2 5 7 0 459.92 393.33 120.68 o
2 -5 7 0 440.47 291.31 81.23 o
2 5 7 1 136.73 154.04 85.14 <
2 -5 7 1 129.76 154.63 69.73 <
2 5 7 2 1173.15 1205.11 224.72 o
2 -5 7 2 1152.65 1302.63 316.37 o
3 5 7 -2 312.50 248.36 98.53 <
3 -5 7 -2 308.44 203.09 85.67 <
3 5 7 -1 36.26 53.20 70.44 <
3 -5 7 -1 64.75 82.59 59.13 <
3 5 7 0 243.26 112.27 63.22 <
3 -5 7 0 212.69 157.06 66.47 <
3 5 7 1 391.78 359.98 122.40 <
3 -5 7 1 409.94 502.34 185.38 <
3 5 7 2 11.49 124.36 80.93 <
3 -5 7 2 16.29 172.52 149.12 <
4 5 7 -2 522.61 496.60 158.36 o
4 -5 7 -2 504.67 450.44 132.06 o
4 5 7 -1 72.34 18.60 20.26 <
4 -5 7 -1 66.32 109.96 103.56 <
4 5 7 0 228.12 229.16 158.30 <
4 -5 7 0 232.63 749.58 265.24 <
4 5 7 1 11.52 153.74 129.87 <
4 -5 7 1 8.12 83.36 111.26 <
4 5 7 2 45.37 279.52 176.20 <
4 -5 7 2 46.88 67.13 28.67 <
5 5 7 -2 187.10 -19.91 51.43 <
5 -5 7 -2 182.54 147.23 125.42 <
5 5 7 -1 15.66 -122.99 166.60 <
5 -5 7 -1 22.99 55.75 63.81 <
5 5 7 0 93.37 -46.86 48.58 <
5 -5 7 0 84.51 237.46 173.83 <
5 5 7 1 271.57 0.12 104.45 <
5 -5 7 1 266.89 282.78 191.54 <
6 5 7 -2 156.45 11.38 61.20 <
-5 6 7 -2 14.73 153.74 125.25 <
-5 -6 7 -2 14.58 36.02 46.39 <
-5 6 7 -1 60.86 129.27 101.37 <
-5 -6 7 -1 48.39 80.69 100.24 <
-5 6 7 0 185.07 207.54 157.24 <
-5 -6 7 0 173.20 207.00 144.38 <
-5 6 7 1 53.39 53.91 107.06 <
-5 -6 7 1 63.99 115.71 104.45 <
-5 6 7 2 135.62 205.35 147.99 <
-5 -6 7 2 128.69 383.08 173.65 <
-4 6 7 -2 49.84 199.84 131.29 <
-4 -6 7 -2 61.62 -47.81 72.34 <
-4 6 7 -1 178.33 153.45 124.53 <
-4 -6 7 -1 175.83 316.25 106.35 <
-4 6 7 0 219.86 392.68 169.74 <
-4 -6 7 0 228.71 149.00 87.86 <
-4 6 7 1 52.59 36.79 89.70 <
-4 -6 7 1 43.73 -5.69 62.68 <
-4 6 7 2 144.03 209.67 168.49 <
-4 -6 7 2 141.30 208.84 86.85 <
-3 6 7 -2 34.40 55.22 70.92 <
-3 -6 7 -2 35.23 34.78 63.75 <
-3 6 7 -1 334.14 971.75 252.56 o
-3 -6 7 -1 376.11 668.71 137.15 o
-3 6 7 0 1459.73 1041.00 248.65 o
-3 -6 7 0 1420.53 1029.16 176.73 o
-3 6 7 1 441.85 485.70 188.05 <
-3 -6 7 1 465.24 418.15 110.91 o
-3 6 7 2 363.32 521.12 207.89 <
-3 -6 7 2 351.93 390.67 118.85 o
-2 6 7 -2 688.18 1083.01 243.26 o
-2 -6 7 -2 732.06 853.02 150.19 o
-2 6 7 -1 50.09 121.81 98.11 <
-2 -6 7 -1 52.75 113.46 60.13 <
-2 6 7 0 140.34 98.47 58.12 <
-2 -6 7 0 167.94 24.53 42.60 <
-2 6 7 1 34.39 95.80 101.13 <
-2 -6 7 1 38.87 26.84 32.05 <
-2 6 7 2 187.74 161.44 123.05 <
-2 -6 7 2 166.34 194.92 75.30 <
-1 6 7 -2 45.25 10.84 18.90 <
-1 -6 7 -2 38.88 52.49 44.43 <
-1 6 7 -1 596.23 329.05 56.58 o
-1 -6 7 -1 535.86 485.70 130.52 o
-1 6 7 0 5795.71 5173.74 275.61 o
-1 -6 7 0 5705.73 5796.71 335.45 o
-1 6 7 1 145.60 175.25 65.76 <
-1 -6 7 1 150.82 111.80 64.28 <
-1 6 7 2 279.35 421.24 89.46 o
-1 -6 7 2 277.21 419.04 110.38 o
0 6 7 -2 106.10 71.09 39.52 <
0 -6 7 -2 94.52 57.53 37.21 <
0 6 7 -1 120.94 79.33 46.86 <
0 -6 7 -1 117.89 101.55 52.97 <
0 6 7 0 6892.16 7830.79 353.34 o
0 -6 7 0 7002.87 7700.98 360.86 o
0 6 7 1 48.58 37.56 57.88 <
0 -6 7 1 53.81 67.66 89.64 <
0 6 7 2 344.02 293.74 97.04 o
0 -6 7 2 326.86 268.15 129.15 <
1 6 7 -2 188.75 153.74 54.21 <
1 -6 7 -2 203.89 231.00 101.01 <
1 6 7 -1 159.45 216.25 62.80 o
1 -6 7 -1 162.93 250.49 123.11 <
1 6 7 0 5695.53 4956.13 271.52 o
1 -6 7 0 5574.61 5435.96 502.52 o
1 6 7 1 549.74 722.09 109.96 o
1 -6 7 1 522.51 1160.38 256.18 o
1 6 7 2 21.87 -3.44 46.92 <
1 -6 7 2 20.25 35.49 55.45 <
2 6 7 -2 225.61 76.25 34.78 <
2 -6 7 -2 212.69 167.19 76.60 <
2 6 7 -1 67.04 76.01 45.44 <
2 -6 7 -1 81.88 -3.38 22.16 <
2 6 7 0 286.83 165.71 44.32 o
2 -6 7 0 310.46 148.94 68.84 <
2 6 7 1 149.48 30.39 35.19 <
2 -6 7 1 154.42 59.78 47.81 <
2 6 7 2 363.78 69.55 75.95 <
2 -6 7 2 388.76 122.70 65.64 <
3 6 7 -2 267.64 201.43 97.34 <
3 -6 7 -2 286.03 74.89 54.98 <
3 6 7 -1 98.71 175.37 79.98 <
3 -6 7 -1 93.08 173.35 74.53 <
3 6 7 0 1859.46 1403.05 215.48 o
3 -6 7 0 1817.78 1384.81 206.41 o
3 6 7 1 271.26 179.16 91.65 <
3 -6 7 1 296.29 207.60 147.17 <
3 6 7 2 45.68 1.72 70.32 <
3 -6 7 2 44.45 172.94 127.02 <
4 6 7 -2 61.22 176.55 97.52 <
4 -6 7 -2 57.73 150.54 73.46 <
4 6 7 -1 61.76 50.89 46.80 <
4 -6 7 -1 78.92 169.92 104.15 <
4 6 7 0 459.04 492.86 161.68 o
4 -6 7 0 486.87 438.65 202.50 <
4 6 7 1 40.25 15.52 94.50 <
4 -6 7 1 46.90 -62.68 98.82 <
4 6 7 2 81.73 200.31 163.28 <
4 -6 7 2 73.41 204.40 151.14 <
5 6 7 -2 87.34 -68.61 31.52 <
5 -6 7 -2 92.33 46.27 78.03 <
5 6 7 -1 28.87 -35.07 43.19 <
5 -6 7 -1 24.77 -84.19 55.34 <
5 6 7 0 347.34 32.94 72.93 <
5 -6 7 0 342.25 369.04 216.84 <
5 6 7 1 50.27 21.45 83.06 <
6 6 7 -2 57.89 140.77 110.91 <
-5 7 7 -2 47.81 -116.60 108.60 <
-5 -7 7 -2 45.12 25.06 87.92 <
-5 7 7 -1 279.40 472.78 225.49 <
-5 -7 7 -1 299.48 446.06 194.92 <
-5 7 7 0 549.52 616.75 228.69 <
-5 -7 7 0 567.31 419.87 188.99 <
-5 7 7 1 14.84 -51.84 45.50 <
-5 -7 7 1 15.91 119.97 102.79 <
-5 7 7 2 40.96 174.18 141.01 <
-5 -7 7 2 38.96 0.12 38.75 <
-4 7 7 -2 134.97 -73.05 73.29 <
-4 -7 7 -2 149.29 198.41 141.71 <
-4 7 7 -1 50.97 163.93 127.67 <
-4 -7 7 -1 73.45 28.79 65.29 <
-4 -7 7 0 33.78 6.93 32.17 <
-4 7 7 1 164.06 98.76 46.69 <
-4 -7 7 1 169.80 61.62 57.47 <
-4 7 7 2 170.23 63.87 73.94 <
-4 -7 7 2 172.31 106.52 70.50 <
-3 7 7 -2 54.65 40.88 70.27 <
-3 -7 7 -2 52.10 66.47 64.93 <
-3 7 7 -1 1267.97 2180.18 368.21 o
-3 -7 7 -1 1332.16 1891.12 233.72 o
-3 7 7 0 2413.27 2317.33 383.08 o
-3 -7 7 0 2486.36 1917.31 233.37 o
-3 7 7 1 31.82 94.26 122.70 <
-3 -7 7 1 28.47 1.60 34.36 <
-3 7 7 2 168.79 123.41 99.06 <
-3 -7 7 2 174.79 24.88 31.58 <
-2 7 7 -2 461.33 737.31 214.47 o
-2 -7 7 -2 449.06 502.99 128.09 o
-2 7 7 -1 96.71 110.61 107.00 <
-2 -7 7 -1 141.04 91.18 57.29 <
-2 7 7 0 1006.62 1030.87 236.33 o
-2 -7 7 0 963.33 987.15 161.15 o
-2 7 7 1 531.28 312.28 153.39 <
-2 -7 7 1 531.82 398.07 103.26 o
-2 7 7 2 62.01 30.63 40.11 <
-2 -7 7 2 68.87 -1.66 26.90 <
-1 7 7 -2 58.59 19.37 22.39 <
-1 -7 7 -2 62.82 39.75 43.49 <
-1 7 7 -1 62.08 89.22 42.24 <
-1 -7 7 -1 42.76 49.47 52.43 <
-1 7 7 0 5316.94 4638.04 271.17 o
-1 -7 7 0 5394.08 4971.59 308.85 o
-1 7 7 1 43.80 75.48 48.05 <
-1 -7 7 1 45.09 94.85 46.21 <
-1 7 7 2 131.32 96.93 44.91 <
-1 -7 7 2 132.10 108.78 59.66 <
0 7 7 -2 106.73 101.55 50.06 <
0 -7 7 -2 92.81 66.12 46.45 <
0 7 7 -1 408.47 378.93 81.76 o
0 -7 7 -1 475.21 398.01 89.82 o
0 7 7 0 19.00 71.21 45.26 <
0 -7 7 0 10.31 62.98 30.69 <
0 7 7 1 548.79 414.13 83.36 o
0 -7 7 1 481.45 428.11 152.14 <
0 7 7 2 29.24 7.41 35.84 <
0 -7 7 2 33.27 46.63 75.72 <
1 7 7 -2 184.82 78.92 32.41 <
1 -7 7 -2 175.21 140.95 81.40 <
1 7 7 -1 2141.69 1644.36 150.84 o
1 -7 7 -1 2123.43 2337.42 323.24 o
1 7 7 0 4915.17 4880.36 297.83 o
1 -7 7 0 4925.70 5075.16 482.26 o
1 7 7 1 3842.94 4112.30 285.80 o
1 -7 7 1 3868.97 4041.02 462.35 o
1 7 7 2 62.11 32.82 25.48 <
1 -7 7 2 72.14 -34.30 15.29 <
2 7 7 -2 110.06 73.76 37.86 <
2 -7 7 -2 106.84 48.34 41.06 <
2 7 7 -1 268.69 142.78 48.76 <
2 -7 7 -1 278.22 73.46 47.99 <
2 7 7 0 915.43 758.34 108.60 o
2 -7 7 0 941.20 716.99 145.03 o
2 7 7 1 314.36 199.07 80.40 <
2 -7 7 1 222.22 208.66 78.38 <
2 7 7 2 42.13 -15.88 34.95 <
2 -7 7 2 41.03 -19.43 32.70 <
3 7 7 -2 168.11 154.34 84.01 <
3 -7 7 -2 173.18 169.92 84.01 <
3 7 7 -1 592.45 464.19 127.44 o
3 -7 7 -1 573.05 476.22 120.86 o
3 7 7 0 2048.12 1851.31 254.04 o
3 -7 7 0 2077.83 1769.73 227.62 o
3 7 7 1 154.58 126.43 64.28 <
3 -7 7 1 167.00 225.49 147.58 <
3 7 7 2 55.17 -0.77 56.11 <
3 -7 7 2 62.77 -120.39 116.12 <
4 7 7 -2 25.69 21.21 31.76 <
4 -7 7 -2 27.62 12.86 49.94 <
4 7 7 -1 194.27 138.52 80.40 <
4 -7 7 -1 195.90 176.55 78.74 <
4 7 7 0 34.40 109.25 86.38 <
4 -7 7 0 39.27 90.17 115.88 <
4 7 7 1 140.84 183.72 116.36 <
4 -7 7 1 97.82 313.29 164.17 <
4 7 7 2 110.88 38.39 141.30 <
4 -7 7 2 102.58 140.12 143.67 <
5 7 7 -2 136.23 32.59 69.50 <
5 -7 7 -2 137.39 66.41 63.33 <
5 7 7 -1 133.28 262.99 124.18 <
5 -7 7 -1 125.31 274.19 169.56 <
5 7 7 0 369.93 78.09 134.84 <
5 -7 7 0 388.41 421.12 192.49 <
5 7 7 1 53.35 -39.46 63.16 <
6 7 7 -2 20.19 -27.31 95.68 <
-5 8 7 -2 12.19 -43.78 87.39 <
-5 8 7 -1 73.05 244.45 150.66 <
-5 -8 7 -1 73.22 145.09 93.43 <
-5 8 7 0 494.83 579.36 243.56 <
-5 -8 7 0 513.63 480.30 195.63 <
-5 8 7 1 28.59 32.53 28.97 <
-5 -8 7 1 38.79 21.74 9.60 <
-5 8 7 2 44.97 242.67 143.43 <
-5 -8 7 2 54.31 78.86 5.10 o
-4 8 7 -2 75.63 142.66 116.95 <
-4 -8 7 -2 84.39 79.98 57.76 <
-4 8 7 -1 312.84 474.79 211.80 <
-4 -8 7 -1 277.53 384.27 192.07 <
-4 8 7 0 74.91 262.99 141.30 <
-4 -8 7 0 76.07 143.55 102.91 <
-4 8 7 1 151.90 106.88 97.46 <
-4 -8 7 1 162.35 100.95 71.45 <
-4 8 7 2 181.04 22.75 53.56 <
-4 -8 7 2 176.70 18.37 47.81 <
-3 8 7 -2 18.15 32.17 80.99 <
-3 -8 7 -2 13.70 40.17 43.31 <
-3 8 7 -1 64.56 351.68 161.03 <
-3 -8 7 -1 40.29 246.11 90.59 <
-3 8 7 0 2213.89 2331.85 377.63 o
-3 -8 7 0 2260.48 1911.56 238.23 o
-3 8 7 1 45.70 152.79 124.95 <
-3 -8 7 1 57.12 55.87 51.13 <
-3 8 7 2 164.77 40.94 74.23 <
-3 -8 7 2 172.49 44.85 61.79 <
-2 8 7 -2 586.55 257.90 134.84 <
-2 -8 7 -2 570.86 350.44 100.72 o
-2 8 7 -1 394.74 270.04 155.93 <
-2 -8 7 -1 355.59 323.90 96.51 o
-2 8 7 0 1483.39 1823.46 309.74 o
-2 -8 7 0 1505.71 1452.05 187.04 o
-2 8 7 1 727.93 637.84 198.47 o
-2 -8 7 1 758.69 625.52 134.96 o
-2 8 7 2 51.79 108.12 95.39 <
-2 -8 7 2 59.74 86.79 44.67 <
-1 8 7 -2 42.18 5.39 23.76 <
-1 -8 7 -2 51.90 56.88 74.23 <
-1 8 7 -1 21.89 7.17 31.87 <
-1 -8 7 -1 27.76 68.78 51.37 <
-1 8 7 0 3716.41 3547.45 216.48 o
-1 -8 7 0 3781.32 3538.27 256.95 o
-1 8 7 1 152.14 72.58 41.06 <
-1 -8 7 1 164.90 135.97 54.45 <
-1 8 7 2 172.60 263.82 87.68 o
-1 -8 7 2 163.54 211.98 68.43 o
0 8 7 -2 164.46 278.57 76.37 o
0 -8 7 -2 173.49 329.40 79.69 o
0 8 7 -1 43.84 131.88 55.34 <
0 -8 7 -1 33.81 91.95 41.47 <
0 8 7 0 429.30 477.64 92.19 o
0 -8 7 0 414.76 465.61 83.54 o
0 8 7 1 578.93 511.23 90.53 o
0 -8 7 1 591.87 492.92 145.86 o
0 8 7 2 90.86 88.28 48.82 <
0 -8 7 2 85.01 149.00 85.37 <
1 8 7 -2 435.26 441.14 85.91 o
1 -8 7 -2 453.64 401.98 86.32 o
1 8 7 -1 74.69 111.92 41.71 <
1 -8 7 -1 71.34 162.57 101.55 <
1 8 7 0 3502.73 3829.75 268.80 o
1 -8 7 0 3538.61 3797.82 421.53 o
1 8 7 1 489.58 497.72 86.14 o
1 -8 7 1 460.48 719.83 202.68 o
1 8 7 2 101.71 90.65 62.09 <
1 -8 7 2 99.35 113.10 76.25 <
2 8 7 -2 57.57 91.95 36.32 <
2 -8 7 -2 61.73 55.93 38.63 <
2 8 7 -1 15.92 19.61 25.65 <
2 -8 7 -1 16.12 -0.12 38.57 <
2 8 7 0 1132.49 1169.03 182.89 o
2 -8 7 0 1132.01 1084.91 178.62 o
2 8 7 1 497.55 489.01 129.39 o
2 -8 7 1 497.60 433.26 110.97 o
2 8 7 2 224.34 208.13 95.86 <
2 -8 7 2 218.87 177.44 78.56 <
3 8 7 -2 218.94 305.00 110.73 <
3 -8 7 -2 222.96 216.37 87.86 <
3 8 7 -1 213.85 18.31 51.07 <
3 -8 7 -1 225.48 92.19 60.19 <
3 8 7 0 1996.99 2066.25 260.09 o
3 -8 7 0 2019.87 1811.85 242.20 o
3 8 7 1 272.91 190.71 90.29 <
3 -8 7 1 272.43 269.69 97.46 <
3 8 7 2 7.81 -30.63 42.18 <
3 -8 7 2 11.90 32.05 51.31 <
4 8 7 -2 41.91 30.10 23.76 <
4 -8 7 -2 44.26 46.51 48.58 <
4 8 7 -1 83.26 -50.83 83.89 <
4 -8 7 -1 71.65 -6.64 67.84 <
4 8 7 0 35.07 160.38 93.90 <
4 -8 7 0 32.07 172.11 123.65 <
4 8 7 1 125.26 153.68 80.40 <
4 -8 7 1 119.99 155.58 128.03 <
4 8 7 2 11.32 78.32 73.46 <
4 -8 7 2 13.16 4.86 45.44 <
5 8 7 -2 15.60 14.99 44.85 <
5 -8 7 -2 16.17 -83.12 103.15 <
5 8 7 -1 55.61 42.42 111.86 <
5 -8 7 -1 66.97 186.09 152.62 <
5 8 7 0 415.88 376.86 196.28 <
5 -8 7 0 425.45 690.21 270.16 <
5 8 7 1 44.58 0.00 79.74 <
-5 9 7 -1 103.44 134.07 125.72 <
-5 9 7 0 23.14 163.93 152.91 <
-5 -9 7 0 21.74 257.13 137.15 <
-5 9 7 1 71.44 314.65 186.51 <
-5 -9 7 1 59.00 104.98 105.58 <
-5 9 7 2 116.06 8.29 39.28 <
-5 -9 7 2 114.98 102.61 95.62 <
-4 9 7 -2 176.36 257.54 171.16 <
-4 -9 7 -2 181.34 77.26 76.55 <
-4 9 7 -1 159.38 68.07 72.93 <
-4 -9 7 -1 182.36 255.70 145.39 <
-4 9 7 0 1623.41 1142.49 322.24 o
-4 -9 7 0 1602.81 1209.02 300.73 o
-4 9 7 1 197.73 72.04 140.06 <
-4 -9 7 1 204.46 144.38 103.98 <
-4 9 7 2 255.53 358.44 204.46 <
-4 -9 7 2 259.41 91.06 69.97 <
-3 9 7 -2 17.69 113.51 81.11 <
-3 -9 7 -2 18.33 28.56 22.28 <
-3 9 7 -1 173.72 347.77 158.24 <
-3 -9 7 -1 154.00 113.22 52.61 <
-3 9 7 0 159.92 89.82 100.66 <
-3 -9 7 0 121.74 -8.35 37.74 <
-3 9 7 1 87.24 141.54 116.65 <
-3 -9 7 1 71.13 122.40 73.05 <
-3 9 7 2 247.82 315.78 185.02 <
-3 -9 7 2 250.46 239.88 108.00 <
-2 9 7 -2 1215.52 1129.58 178.21 o
-2 -9 7 -2 1212.27 1202.39 180.76 o
-2 9 7 -1 245.96 102.20 46.27 <
-2 -9 7 -1 280.26 122.40 44.97 <
-2 9 7 0 7009.00 8285.44 674.81 o
-2 -9 7 0 6937.40 7835.94 604.48 o
-2 9 7 1 660.53 571.42 179.46 o
-2 -9 7 1 658.48 366.14 109.72 o
-2 9 7 2 261.99 82.77 83.30 <
-2 -9 7 2 276.59 188.46 69.14 <
-1 9 7 -2 62.38 92.36 37.50 <
-1 -9 7 -2 67.17 83.77 58.06 <
-1 9 7 -1 660.98 408.91 83.77 o
-1 -9 7 -1 600.44 422.89 93.19 o
-1 9 7 0 1760.98 1463.90 146.75 o
-1 -9 7 0 1644.09 1512.78 174.30 o
-1 9 7 1 72.16 212.63 72.75 <
-1 -9 7 1 74.01 257.60 75.48 o
-1 9 7 2 133.98 136.26 53.68 <
-1 -9 7 2 131.79 107.77 42.78 <
0 9 7 -2 35.11 -5.21 17.12 <
0 -9 7 -2 51.02 15.82 12.38 <
0 9 7 -1 243.78 242.20 61.08 o
0 -9 7 -1 267.56 195.39 59.07 o
0 9 7 0 3517.99 4347.09 292.02 o
0 -9 7 0 3364.82 3627.07 230.58 o
0 9 7 1 196.53 312.05 82.41 o
0 -9 7 1 189.05 270.75 112.92 <
0 9 7 2 27.80 27.85 42.78 <
0 -9 7 2 32.06 71.21 86.74 <
1 9 7 -2 33.73 19.25 29.27 <
1 -9 7 -2 32.06 31.22 29.74 <
1 9 7 -1 271.89 101.90 51.54 <
1 -9 7 -1 231.29 219.27 112.57 <
1 9 7 0 1978.68 1974.12 196.28 o
1 -9 7 0 1884.14 1904.27 305.06 o
1 9 7 1 775.06 743.41 109.90 o
1 -9 7 1 804.82 1095.63 255.35 o
1 9 7 2 235.58 36.97 61.38 <
1 -9 7 2 241.66 53.14 83.48 <
2 9 7 -2 236.84 50.60 50.00 <
2 -9 7 -2 250.06 -2.96 64.76 <
2 9 7 -1 584.58 218.20 77.43 <
2 -9 7 -1 617.42 223.30 81.82 <
2 9 7 0 5330.68 4605.99 361.40 o
2 -9 7 0 5227.19 4243.88 350.56 o
2 9 7 1 60.81 89.22 60.61 <
2 -9 7 1 55.49 185.85 83.06 <
2 9 7 2 24.96 87.15 71.86 <
2 -9 7 2 27.37 -17.77 37.09 <
3 9 7 -2 90.07 103.15 52.79 <
3 -9 7 -2 86.77 107.47 63.33 <
3 9 7 -1 176.07 172.40 75.18 <
3 -9 7 -1 161.79 179.57 87.57 <
3 9 7 0 228.24 21.68 62.50 <
3 -9 7 0 202.21 56.46 75.60 <
3 9 7 1 231.58 122.76 71.92 <
3 -9 7 1 247.79 177.85 72.04 <
3 9 7 2 121.12 119.44 80.16 <
3 -9 7 2 126.74 193.55 136.44 <
4 9 7 -2 357.32 170.98 86.14 <
4 -9 7 -2 350.47 126.67 68.61 <
4 9 7 -1 99.45 97.87 84.96 <
4 -9 7 -1 112.38 61.73 41.00 <
4 9 7 0 1108.95 705.97 179.04 o
4 -9 7 0 1073.49 862.73 276.32 o
4 9 7 1 9.18 -23.28 43.07 <
4 -9 7 1 9.66 55.93 30.81 <
4 9 7 2 34.05 61.20 79.98 <
4 -9 7 2 39.58 120.27 134.55 <
5 9 7 -2 102.67 24.47 51.01 <
5 9 7 -1 20.76 70.68 88.51 <
5 -9 7 -1 17.97 150.19 129.81 <
5 9 7 0 13.18 4.32 18.96 <
5 -9 7 0 12.41 -96.16 92.84 <
-5 10 7 0 91.65 429.00 216.54 <
-5 -10 7 0 86.05 171.63 133.36 <
-5 10 7 1 66.52 106.46 102.91 <
-5 -10 7 1 64.89 20.97 48.76 <
-5 10 7 2 29.84 -65.05 103.09 <
-5 -10 7 2 34.16 291.61 157.53 <
-4 10 7 -2 36.17 194.15 154.45 <
-4 -10 7 -2 36.53 290.90 154.75 <
-4 10 7 -1 112.49 89.40 4.27 o
-4 -10 7 -1 151.45 274.01 154.99 <
-4 10 7 0 586.37 778.31 249.96 o
-4 -10 7 0 570.50 394.46 167.72 <
-4 10 7 1 333.59 480.36 228.27 <
-4 -10 7 1 346.74 276.97 158.78 <
-4 -10 7 2 77.15 -16.47 27.02 <
-3 10 7 -2 96.48 102.73 119.44 <
-3 -10 7 -2 102.14 79.15 49.77 <
-3 10 7 -1 120.95 154.81 88.57 <
-3 -10 7 -1 149.93 119.02 77.43 <
-3 10 7 0 302.13 221.04 137.04 <
-3 -10 7 0 301.25 240.48 81.58 <
-3 10 7 1 354.26 98.53 92.66 <
-3 -10 7 1 337.92 123.76 71.09 <
-3 10 7 2 111.56 85.20 99.47 <
-3 -10 7 2 110.38 58.77 51.25 <
-2 10 7 -2 348.41 155.70 75.42 <
-2 -10 7 -2 338.01 269.03 93.31 <
-2 10 7 -1 224.64 225.31 86.20 <
-2 -10 7 -1 287.86 281.36 94.50 <
-2 10 7 0 4391.75 3905.59 322.65 o
-2 -10 7 0 4339.78 3908.79 322.95 o
-2 10 7 1 696.08 390.78 106.05 o
-2 -10 7 1 724.58 636.18 136.26 o
-2 10 7 2 240.00 98.88 75.42 <
-2 -10 7 2 254.47 198.95 109.01 <
-1 10 7 -2 99.74 42.95 42.60 <
-1 -10 7 -2 99.06 117.01 56.05 <
-1 10 7 -1 618.27 628.18 100.30 o
-1 -10 7 -1 604.33 605.14 112.86 o
-1 10 7 0 1289.29 1378.41 151.55 o
-1 -10 7 0 1285.24 1248.84 156.65 o
-1 10 7 1 353.81 209.20 70.21 <
-1 -10 7 1 369.98 141.95 51.60 <
-1 10 7 2 148.96 99.77 47.99 <
-1 -10 7 2 143.41 252.45 125.13 <
0 10 7 -2 12.09 -16.47 30.27 <
0 -10 7 -2 11.15 3.79 24.17 <
0 10 7 -1 142.65 115.77 48.76 <
0 -10 7 -1 170.28 175.25 58.89 <
0 10 7 0 1949.40 2305.90 218.68 o
0 -10 7 0 1885.13 2054.40 174.30 o
0 10 7 1 195.61 263.11 75.72 o
0 -10 7 1 205.40 223.65 94.02 <
0 10 7 2 319.45 376.51 93.90 o
0 -10 7 2 345.45 376.21 131.70 <
1 10 7 -2 116.71 95.56 46.15 <
1 -10 7 -2 112.66 127.32 46.98 <
1 10 7 -1 84.39 162.81 56.46 <
1 -10 7 -1 91.90 161.68 103.32 <
1 10 7 0 1087.87 862.73 115.77 o
1 -10 7 0 1083.97 1180.35 240.66 o
1 10 7 1 2750.61 3120.47 256.12 o
1 -10 7 1 2828.60 3394.30 422.84 o
1 10 7 2 436.91 45.44 122.76 <
1 -10 7 2 448.90 195.93 116.30 <
2 10 7 -2 84.86 64.52 66.65 <
2 -10 7 -2 76.42 77.49 72.52 <
2 10 7 -1 183.44 150.60 59.60 <
2 -10 7 -1 180.68 161.80 72.58 <
2 10 7 0 4113.75 3592.36 325.79 o
2 -10 7 0 4009.19 3687.50 325.55 o
2 10 7 1 39.28 18.84 79.39 <
2 -10 7 1 49.80 89.58 61.50 <
2 10 7 2 623.74 396.06 120.68 o
2 -10 7 2 634.98 620.72 157.95 o
3 10 7 -2 38.82 -22.81 61.85 <
3 -10 7 -2 31.82 105.34 69.44 <
3 10 7 -1 297.45 208.66 90.23 <
3 -10 7 -1 320.23 307.54 109.19 <
3 10 7 0 383.92 133.42 80.10 <
3 -10 7 0 380.12 161.21 73.46 <
3 10 7 1 109.70 97.93 71.09 <
3 -10 7 1 131.87 177.68 84.25 <
3 10 7 2 79.80 43.43 48.05 <
3 -10 7 2 94.30 195.51 132.95 <
4 10 7 -2 36.41 92.96 71.27 <
4 -10 7 -2 32.22 4.74 37.15 <
4 10 7 -1 161.12 192.55 90.35 <
4 -10 7 -1 156.80 259.38 95.33 <
4 10 7 0 471.28 313.59 119.44 <
4 -10 7 0 451.91 518.99 210.91 <
4 10 7 1 49.96 107.94 70.38 <
4 -10 7 1 50.58 100.89 79.39 <
4 10 7 2 29.45 62.62 74.65 <
4 -10 7 2 25.25 34.54 31.10 <
5 10 7 -2 35.65 -89.52 92.36 <
5 -10 7 -2 29.07 74.18 114.70 <
5 10 7 -1 42.87 -42.36 118.73 <
5 -10 7 -1 48.35 -232.18 158.48 <
-5 -11 7 1 28.55 14.40 79.33 <
-5 11 7 2 20.18 -48.17 37.15 <
-5 -11 7 2 22.41 -202.50 149.48 <
-4 11 7 -2 163.30 221.22 141.77 <
-4 -11 7 -2 158.70 192.19 129.10 <
-4 11 7 -1 169.67 364.54 191.90 <
-4 -11 7 -1 157.03 323.24 162.57 <
-4 11 7 0 247.06 68.55 100.36 <
-4 -11 7 0 248.65 35.37 80.87 <
-4 11 7 1 47.85 59.48 95.68 <
-4 -11 7 1 58.18 83.00 98.05 <
-4 11 7 2 90.76 32.82 113.87 <
-4 -11 7 2 104.99 13.92 74.47 <
-3 11 7 -2 113.91 104.33 127.67 <
-3 -11 7 -2 109.55 114.76 85.79 <
-3 11 7 -1 1132.26 1489.08 345.64 o
-3 -11 7 -1 1056.97 1145.51 185.85 o
-3 11 7 0 1274.35 1485.29 332.84 o
-3 -11 7 0 1293.61 1075.66 182.36 o
-3 11 7 1 301.55 236.45 146.16 <
-3 -11 7 1 274.28 154.45 65.29 <
-3 11 7 2 82.35 98.29 105.64 <
-3 -11 7 2 82.33 14.81 31.81 <
-2 11 7 -2 9.19 23.17 40.23 <
-2 -11 7 -2 8.97 22.75 36.44 <
-2 11 7 -1 553.74 614.20 127.91 o
-2 -11 7 -1 538.47 610.70 126.55 o
-2 11 7 0 1278.36 1601.94 310.15 o
-2 -11 7 0 1309.88 1014.82 164.41 o
-2 11 7 1 48.04 7.29 31.58 <
-2 -11 7 1 54.46 2.96 29.68 <
-2 11 7 2 64.05 67.78 94.79 <
-2 -11 7 2 64.04 71.15 69.44 <
-1 11 7 -2 414.59 148.23 49.83 <
-1 -11 7 -2 386.73 128.80 97.10 <
-1 11 7 -1 54.55 91.30 48.88 <
-1 -11 7 -1 72.09 89.11 73.11 <
-1 11 7 0 4665.36 5234.59 296.46 o
-1 -11 7 0 4759.46 4415.34 280.65 o
-1 11 7 1 396.32 284.67 82.23 o
-1 -11 7 1 335.63 244.21 68.43 o
-1 11 7 2 41.35 74.83 53.91 <
-1 -11 7 2 32.94 101.31 80.99 <
0 11 7 -2 20.10 -2.67 34.36 <
0 -11 7 -2 25.53 46.09 24.94 <
0 11 7 -1 561.60 650.46 117.72 o
0 -11 7 -1 573.60 552.88 92.72 o
0 11 7 0 379.07 442.33 99.65 o
0 -11 7 0 401.59 345.05 120.09 <
0 11 7 1 41.51 -12.80 43.90 <
0 -11 7 1 46.05 61.44 69.38 <
0 11 7 2 43.18 -34.48 37.92 <
0 -11 7 2 43.12 106.52 87.92 <
1 11 7 -2 84.09 2.43 22.28 <
1 -11 7 -2 75.36 30.04 29.74 <
1 11 7 -1 311.40 250.96 74.06 o
1 -11 7 -1 297.33 342.97 123.11 <
1 11 7 0 4312.04 5251.53 322.77 o
1 -11 7 0 4425.37 4992.74 487.06 o
1 11 7 1 3219.79 3016.73 385.81 o
1 -11 7 1 3079.84 3202.88 414.72 o
1 11 7 2 64.83 -30.33 78.68 <
1 -11 7 2 63.56 117.25 72.87 <
2 11 7 -2 100.52 87.15 51.54 <
2 -11 7 -2 99.88 56.64 80.22 <
2 11 7 -1 529.74 315.25 96.75 o
2 -11 7 -1 538.66 333.97 142.84 <
2 11 7 0 863.02 732.93 151.85 o
2 -11 7 0 885.30 739.56 150.96 o
2 11 7 1 92.13 -1.54 55.99 <
2 -11 7 1 123.77 86.74 64.64 <
2 11 7 2 188.64 136.92 79.51 <
2 -11 7 2 185.16 86.50 62.56 <
3 11 7 -2 96.64 -64.28 54.98 <
3 -11 7 -2 93.63 51.31 74.59 <
3 11 7 -1 57.65 49.29 28.50 <
3 -11 7 -1 60.93 9.60 42.83 <
3 11 7 0 1564.28 1392.03 224.84 o
3 -11 7 0 1602.16 1342.74 215.54 o
3 11 7 1 58.25 5.57 52.73 <
3 -11 7 1 47.84 -20.32 59.60 <
3 11 7 2 46.12 54.68 68.90 <
3 -11 7 2 44.46 19.73 91.77 <
4 11 7 -2 78.95 106.29 68.78 <
4 -11 7 -2 81.70 134.84 75.30 <
4 11 7 -1 136.89 23.76 59.13 <
4 -11 7 -1 138.31 98.70 69.26 <
4 11 7 0 25.56 3.91 50.83 <
4 -11 7 0 29.94 143.37 78.56 <
4 11 7 1 112.69 286.39 189.17 <
4 -11 7 1 139.66 132.29 117.54 <
4 11 7 2 31.39 125.36 106.82 <
4 -11 7 2 36.35 130.40 121.04 <
5 11 7 -2 34.24 99.65 137.75 <
5 -11 7 -2 29.30 -8.18 58.12 <
5 11 7 -1 28.38 -21.09 43.49 <
5 -11 7 -1 26.86 -118.73 65.23 <
-5 -12 7 2 34.20 79.74 97.28 <
-4 12 7 -2 34.11 40.82 101.78 <
-4 -12 7 -2 26.51 8.24 48.58 <
-4 12 7 -1 34.76 72.64 95.15 <
-4 -12 7 -1 33.01 158.01 134.96 <
-4 12 7 0 56.62 124.06 104.86 <
-4 -12 7 0 60.29 47.81 69.67 <
-4 12 7 1 201.73 139.23 123.65 <
-4 -12 7 1 212.80 62.15 66.36 <
-4 12 7 2 29.76 108.06 126.37 <
-4 -12 7 2 31.03 46.15 56.11 <
-3 12 7 -2 90.22 79.39 111.08 <
-3 -12 7 -2 91.32 143.85 109.37 <
-3 12 7 -1 1073.63 1113.70 328.99 o
-3 -12 7 -1 1038.06 1039.52 270.58 o
-3 12 7 0 336.95 653.48 263.64 <
-3 -12 7 0 359.39 391.08 108.60 o
-3 12 7 1 329.83 525.98 210.14 <
-3 -12 7 1 341.38 228.69 77.85 <
-3 -12 7 2 112.41 24.53 22.22 <
-2 12 7 -2 263.66 217.96 84.19 <
-2 -12 7 -2 242.54 291.55 92.90 o
-2 12 7 -1 59.73 73.11 44.38 <
-2 -12 7 -1 49.78 42.01 25.18 <
-2 12 7 0 147.15 -12.80 17.83 <
-2 -12 7 0 160.06 80.87 24.94 o
-2 12 7 1 147.32 8.47 65.82 <
-2 -12 7 1 174.71 144.68 105.22 <
-2 12 7 2 93.61 13.27 47.22 <
-2 -12 7 2 85.81 59.60 62.62 <
-1 12 7 -2 238.69 316.43 81.23 o
-1 -12 7 -2 228.07 238.70 124.00 <
-1 12 7 -1 111.11 304.82 79.21 o
-1 -12 7 -1 93.77 289.30 124.00 <
-1 12 7 0 1415.93 1804.32 181.35 o
-1 -12 7 0 1518.41 1703.96 262.16 o
-1 12 7 1 124.65 169.92 61.62 <
-1 -12 7 1 137.85 -21.57 21.80 <
-1 12 7 2 132.50 225.25 84.19 <
0 12 7 -2 28.50 7.52 43.78 <
0 -12 7 -2 26.09 -20.74 19.55 <
0 12 7 -1 43.50 90.17 51.07 <
0 -12 7 -1 36.57 27.43 30.69 <
0 12 7 0 2287.32 2616.46 243.68 o
0 -12 7 0 2211.95 2293.87 293.33 o
0 12 7 1 45.51 125.13 64.70 <
0 -12 7 1 58.72 -4.32 19.79 <
0 12 7 2 90.94 129.51 60.49 <
0 -12 7 2 95.28 76.72 65.23 <
1 12 7 -2 41.38 132.59 54.39 <
1 -12 7 -2 42.42 50.30 34.01 <
1 12 7 -1 519.92 397.72 84.84 o
1 -12 7 -1 509.88 386.64 146.51 <
1 12 7 0 1392.07 1284.50 197.17 o
1 -12 7 0 1483.51 1662.31 288.11 o
1 12 7 1 443.05 228.98 88.04 <
1 -12 7 1 458.11 498.49 171.63 <
1 12 7 2 153.58 37.50 73.11 <
1 -12 7 2 136.94 -60.19 51.78 <
2 12 7 -2 107.91 13.27 57.47 <
2 -12 7 -2 94.16 -50.71 63.63 <
2 12 7 -1 177.91 81.23 62.44 <
2 -12 7 -1 170.35 63.10 46.63 <
2 12 7 0 149.39 177.68 78.44 <
2 -12 7 0 152.14 44.02 42.18 <
2 12 7 1 16.39 -41.35 63.33 <
2 -12 7 1 7.39 10.55 33.30 <
2 12 7 2 209.07 133.54 82.41 <
2 -12 7 2 191.62 215.00 95.03 <
3 12 7 -2 93.84 1.30 31.04 <
3 -12 7 -2 93.15 9.66 71.21 <
3 12 7 -1 79.69 -30.10 64.76 <
3 -12 7 -1 79.82 103.15 55.93 <
3 12 7 0 611.16 708.52 156.53 o
3 -12 7 0 634.48 753.25 162.45 o
3 12 7 1 44.59 46.74 84.66 <
3 -12 7 1 41.97 -21.80 63.04 <
3 12 7 2 83.22 66.06 76.72 <
3 -12 7 2 82.52 113.75 67.95 <
4 12 7 -2 134.62 214.29 152.85 <
4 -12 7 -2 126.02 -1.72 59.30 <
4 12 7 -1 74.93 51.19 50.71 <
4 -12 7 -1 82.77 30.51 52.85 <
4 12 7 0 104.98 181.71 140.83 <
4 -12 7 0 104.39 6.46 75.95 <
4 12 7 1 44.81 30.75 56.58 <
4 -12 7 1 30.36 121.81 123.11 <
4 12 7 2 9.64 4.56 38.27 <
4 -12 7 2 19.36 154.63 95.15 <
5 12 7 -2 50.62 0.12 67.42 <
5 -12 7 -2 52.56 -28.14 61.08 <
5 12 7 -1 36.77 89.93 125.48 <
5 -12 7 -1 39.63 365.90 201.79 <
-4 13 7 -2 19.42 245.69 149.89 <
-4 -13 7 -2 20.74 130.46 114.82 <
-4 13 7 -1 143.93 13.74 55.57 <
-4 -13 7 -1 156.98 262.64 148.65 <
-4 13 7 0 269.55 402.93 192.19 <
-4 -13 7 0 279.75 420.29 182.71 <
-4 13 7 1 87.31 57.76 91.36 <
-4 -13 7 1 86.42 45.20 29.80 <
-4 13 7 2 19.88 53.02 96.93 <
-4 -13 7 2 20.35 113.81 101.72 <
-3 13 7 -2 119.91 283.02 170.33 <
-3 -13 7 -2 107.43 96.69 71.75 <
-3 13 7 -1 717.19 760.48 255.47 <
-3 -13 7 -1 751.21 524.21 198.29 <
-3 13 7 0 759.19 735.24 258.49 <
-3 -13 7 0 734.44 525.51 181.94 <
-3 13 7 1 149.58 -54.68 51.19 <
-3 -13 7 1 141.41 43.55 39.81 <
-3 13 7 2 125.85 89.34 106.05 <
-3 -13 7 2 134.08 -20.44 33.71 <
-2 13 7 -2 14.45 17.66 26.13 <
-2 -13 7 -2 13.93 -9.72 28.79 <
-2 13 7 -1 336.06 340.60 117.37 <
-2 -13 7 -1 349.89 315.07 104.33 o
-2 13 7 0 773.47 469.82 129.04 o
-2 -13 7 0 811.01 567.87 123.47 o
-2 13 7 1 207.34 93.61 63.81 <
-2 -13 7 1 200.75 139.29 91.00 <
-2 13 7 2 29.40 5.10 55.69 <
-2 -13 7 2 28.87 34.07 64.76 <
-1 13 7 -2 56.55 12.62 38.45 <
-1 -13 7 -2 54.21 65.94 95.68 <
-1 13 7 -1 1518.44 1501.64 167.07 o
-1 -13 7 -1 1557.49 1463.13 273.30 o
-1 13 7 0 2150.21 2561.96 220.16 o
-1 -13 7 0 2082.23 2210.28 304.58 o
-1 13 7 1 65.23 107.83 57.35 <
-1 -13 7 1 61.41 60.13 27.90 <
-1 13 7 2 137.13 268.68 83.18 o
0 13 7 -2 32.28 91.00 58.06 <
0 -13 7 -2 28.85 94.32 71.09 <
0 13 7 -1 435.50 345.64 97.10 o
0 -13 7 -1 431.68 244.68 99.53 <
0 13 7 0 3420.11 4521.92 329.23 o
0 13 7 1 160.57 194.09 73.35 <
0 13 7 2 81.86 82.88 43.84 <
1 13 7 -2 34.55 4.27 23.64 <
1 -13 7 -2 31.87 64.22 56.88 <
1 13 7 -1 1136.78 734.53 143.67 o
1 -13 7 -1 1123.11 880.86 196.10 o
1 13 7 0 1254.08 1624.99 223.00 o
1 -13 7 0 1208.14 1715.04 288.70 o
1 13 7 1 19.99 -56.76 80.34 <
1 -13 7 1 21.71 20.74 67.13 <
1 13 7 2 92.59 -5.21 47.69 <
1 -13 7 2 99.75 245.40 109.60 <
2 13 7 -2 46.50 10.43 31.28 <
2 -13 7 -2 40.15 60.08 41.47 <
2 13 7 -1 119.29 11.38 60.73 <
2 -13 7 -1 119.87 72.34 56.28 <
2 13 7 0 515.68 269.09 85.55 o
2 -13 7 0 547.73 270.63 94.73 <
2 13 7 1 191.13 188.05 94.26 <
2 -13 7 1 243.88 159.31 79.98 <
2 13 7 2 485.81 217.13 83.00 <
2 -13 7 2 484.99 100.24 49.77 <
3 13 7 -2 6.98 64.16 60.90 <
3 -13 7 -2 4.68 -4.15 64.87 <
3 13 7 -1 489.13 295.70 111.08 <
3 -13 7 -1 482.78 364.42 131.47 <
3 13 7 0 273.92 236.92 124.71 <
3 -13 7 0 249.52 134.61 67.42 <
3 13 7 1 122.49 51.43 62.74 <
3 -13 7 1 127.36 71.04 70.68 <
3 13 7 2 18.93 73.94 45.38 <
3 -13 7 2 16.53 42.78 55.69 <
4 13 7 -2 113.28 130.64 126.37 <
4 -13 7 -2 111.04 74.53 72.40 <
4 13 7 -1 49.43 22.39 52.61 <
4 -13 7 -1 49.47 -17.89 52.49 <
4 13 7 0 164.01 252.56 152.97 <
4 -13 7 0 163.37 363.47 127.91 <
4 13 7 1 110.34 380.42 204.57 <
4 -13 7 1 124.36 225.96 159.73 <
4 -13 7 2 13.12 -119.20 95.21 <
5 13 7 -2 9.95 63.39 66.24 <
5 -13 7 -2 7.63 272.83 134.31 <
5 -13 7 -1 57.73 260.98 174.66 <
-4 14 7 -2 59.23 35.37 54.86 <
-4 -14 7 -2 54.28 -20.56 18.96 <
-4 14 7 -1 64.38 227.56 154.28 <
-4 -14 7 -1 67.15 187.34 131.35 <
-4 14 7 0 371.46 425.80 193.50 <
-4 -14 7 0 370.38 301.32 164.76 <
-4 14 7 1 22.21 85.43 103.44 <
-4 -14 7 1 18.46 11.02 57.76 <
-4 14 7 2 78.09 7.64 91.06 <
-4 -14 7 2 78.29 236.15 149.54 <
-3 14 7 -2 24.02 106.58 120.86 <
-3 -14 7 -2 24.51 114.34 98.11 <
-3 14 7 -1 362.31 343.27 185.14 <
-3 -14 7 -1 428.92 248.54 140.29 <
-3 14 7 0 65.58 25.42 43.37 <
-3 -14 7 0 67.09 -26.25 59.42 <
-3 14 7 1 246.79 352.93 187.69 <
-3 -14 7 1 239.14 352.39 162.33 <
-3 14 7 2 39.11 58.53 60.13 <
-3 -14 7 2 42.13 34.72 39.64 <
-2 14 7 -2 82.46 -54.80 49.06 <
-2 -14 7 -2 76.52 -12.50 41.95 <
-2 14 7 -1 42.57 56.82 73.23 <
-2 -14 7 -1 43.59 107.29 64.04 <
-2 14 7 0 1607.42 1268.45 224.96 o
-2 -14 7 0 1648.40 1645.55 311.87 o
-2 14 7 1 71.77 11.55 75.54 <
-2 -14 7 1 67.68 21.33 47.87 <
-2 14 7 2 45.65 132.59 64.52 <
-2 -14 7 2 47.34 65.88 110.61 <
-1 14 7 -2 127.83 371.41 87.33 o
-1 -14 7 -2 137.57 311.87 140.23 <
-1 14 7 -1 461.45 285.86 77.73 o
-1 -14 7 -1 562.27 389.18 149.12 <
-1 14 7 0 578.84 808.76 133.30 o
-1 -14 7 0 578.80 647.26 171.87 o
-1 14 7 1 130.87 105.64 55.81 <
-1 14 7 2 65.08 107.00 60.13 <
0 14 7 -2 47.98 76.07 41.95 <
0 -14 7 -2 48.52 44.49 39.69 <
0 14 7 -1 45.93 150.01 79.15 <
0 14 7 0 475.02 489.07 111.92 o
0 14 7 1 440.65 306.00 76.07 o
0 14 7 2 15.32 15.88 57.71 <
1 14 7 -2 557.45 593.88 131.17 o
1 14 7 -1 393.06 243.14 85.79 <
1 -14 7 -1 402.42 515.91 152.44 o
1 14 7 0 547.32 530.96 124.65 o
1 -14 7 0 543.46 613.72 174.71 o
1 14 7 1 193.56 148.23 82.47 <
1 -14 7 1 188.28 183.19 108.00 <
1 14 7 2 33.18 25.95 55.04 <
1 -14 7 2 38.50 189.53 95.33 <
2 14 7 -2 96.15 54.68 58.42 <
2 -14 7 -2 92.57 26.19 59.96 <
2 14 7 -1 45.70 97.22 56.76 <
2 -14 7 -1 42.98 -43.01 61.50 <
2 14 7 0 1765.58 1542.64 225.01 o
2 -14 7 0 1796.59 2106.60 360.75 o
2 14 7 1 501.69 472.96 141.54 o
2 -14 7 1 506.54 324.67 101.13 o
2 14 7 2 179.17 143.08 75.95 <
2 -14 7 2 197.79 18.90 43.43 <
3 14 7 -2 382.56 395.35 163.40 <
3 -14 7 -2 360.03 301.20 110.55 <
3 14 7 -1 240.32 198.18 149.00 <
3 -14 7 -1 224.25 112.45 79.51 <
3 14 7 0 37.94 65.29 49.71 <
3 -14 7 0 41.70 64.70 24.76 <
3 14 7 1 10.05 71.81 71.51 <
3 -14 7 1 13.41 -26.13 60.08 <
3 14 7 2 51.91 111.38 123.05 <
3 -14 7 2 46.58 121.51 71.45 <
4 14 7 -2 43.31 8.24 75.00 <
4 -14 7 -2 44.76 33.65 55.45 <
4 14 7 -1 34.21 39.99 71.33 <
4 -14 7 -1 30.68 -11.14 44.55 <
4 14 7 0 576.03 852.72 281.48 o
4 -14 7 0 566.60 469.23 147.23 o
4 14 7 1 195.70 50.18 34.18 <
4 -14 7 1 198.02 298.89 179.63 <
5 14 7 -2 134.08 -44.79 80.40 <
5 -14 7 -2 124.36 82.83 80.46 <
-4 15 7 -2 47.84 374.37 186.86 <
-4 -15 7 -2 56.36 4.03 44.43 <
-4 15 7 -1 339.47 249.66 169.09 <
-4 -15 7 -1 320.70 393.10 197.88 <
-4 15 7 0 51.05 52.31 49.88 <
-4 -15 7 0 56.06 95.03 44.32 <
-4 15 7 1 20.98 113.93 79.51 <
-4 -15 7 1 22.87 -102.67 94.44 <
-4 15 7 2 27.78 202.15 171.57 <
-4 -15 7 2 23.17 -11.32 48.64 <
-3 15 7 -2 63.07 -1.84 58.89 <
-3 -15 7 -2 67.97 -18.25 96.87 <
-3 15 7 -1 235.29 480.84 206.95 <
-3 -15 7 -1 216.84 524.56 191.42 <
-3 15 7 0 661.57 1196.05 327.33 o
-3 -15 7 0 666.13 1060.02 286.57 o
-3 15 7 1 78.44 93.07 103.50 <
-3 -15 7 1 84.87 174.24 111.44 <
-3 15 7 2 88.22 45.92 24.35 <
-3 -15 7 2 93.76 98.64 111.08 <
-2 15 7 -2 96.59 1.18 38.45 <
-2 -15 7 -2 90.59 -32.59 52.97 <
-2 15 7 -1 874.22 704.08 170.45 o
-2 -15 7 -1 832.93 726.65 151.14 o
-2 15 7 0 562.04 537.42 144.44 o
-2 -15 7 0 587.43 662.37 196.99 o
-2 15 7 1 18.45 1.90 58.83 <
-2 -15 7 1 10.44 3.38 27.31 <
-2 15 7 2 44.58 11.20 35.55 <
-1 15 7 -2 62.20 71.75 42.12 <
-1 -15 7 -2 56.40 46.86 96.69 <
-1 15 7 -1 16.54 75.36 36.79 <
-1 -15 7 -1 20.45 4.98 64.52 <
-1 15 7 0 1095.81 1335.75 172.88 o
-1 -15 7 0 1142.95 1383.62 257.60 o
-1 15 7 1 248.15 209.37 61.97 o
-1 15 7 2 28.41 37.09 45.32 <
0 15 7 -2 10.84 4.86 38.09 <
0 -15 7 -2 14.50 68.61 83.18 <
0 15 7 -1 661.58 710.53 124.65 o
0 15 7 0 21.89 39.22 49.29 <
0 15 7 1 34.35 106.94 77.14 <
0 15 7 2 70.76 20.26 47.40 <
1 15 7 -2 74.51 30.39 54.33 <
1 15 7 -1 556.55 645.07 145.09 o
1 15 7 0 1061.43 1045.98 179.93 o
1 15 7 1 174.41 93.13 54.45 <
1 15 7 2 46.65 39.87 46.45 <
1 -15 7 2 46.29 205.11 173.83 <
2 15 7 -2 34.10 -15.34 46.09 <
2 -15 7 -2 35.37 -28.67 49.77 <
2 15 7 -1 309.61 196.64 130.87 <
2 -15 7 -1 323.35 259.85 112.09 <
2 15 7 0 665.66 609.22 215.48 <
2 -15 7 0 674.54 474.91 159.61 <
2 15 7 1 94.60 349.25 153.27 <
2 -15 7 1 110.22 110.20 60.73 <
2 15 7 2 174.29 215.36 137.75 <
2 -15 7 2 157.43 79.39 97.28 <
3 15 7 -2 190.46 16.53 70.03 <
3 -15 7 -2 195.87 12.50 77.26 <
3 15 7 -1 75.81 168.14 105.81 <
3 -15 7 -1 86.02 83.71 54.80 <
3 15 7 0 615.25 820.97 260.03 o
3 -15 7 0 619.36 496.06 140.41 o
3 -15 7 1 84.47 22.57 54.39 <
3 15 7 2 34.39 74.83 94.38 <
3 -15 7 2 34.22 -1.30 33.18 <
4 15 7 -2 35.88 133.18 103.62 <
4 -15 7 -2 34.53 -11.55 43.31 <
4 15 7 -1 51.07 26.78 78.56 <
4 -15 7 -1 53.81 70.74 75.42 <
4 15 7 0 52.12 -19.08 71.45 <
4 -15 7 0 53.31 14.63 60.37 <
4 -15 7 1 86.00 -52.37 63.22 <
5 -15 7 -2 104.74 212.99 120.98 <
-4 -16 7 -1 224.58 385.21 204.81 <
-4 16 7 0 4.89 -80.10 84.66 <
-4 -16 7 0 2.70 74.59 66.06 <
-4 16 7 1 5.28 139.29 158.54 <
-4 -16 7 1 4.91 -24.88 61.85 <
-4 16 7 2 204.54 186.56 153.21 <
-4 -16 7 2 201.03 111.14 118.73 <
-3 16 7 -2 55.56 135.20 100.54 <
-3 -16 7 -2 50.45 -87.39 86.56 <
-3 16 7 -1 17.68 -62.33 86.08 <
-3 -16 7 -1 16.21 18.96 26.72 <
-3 16 7 0 846.20 1043.85 308.61 o
-3 -16 7 0 804.97 712.72 234.67 o
-3 16 7 1 77.43 240.83 164.88 <
-3 -16 7 1 75.56 70.15 84.90 <
-3 16 7 2 54.91 -65.41 95.03 <
-3 -16 7 2 50.64 75.30 69.32 <
-2 16 7 -2 87.19 -70.32 62.39 <
-2 -16 7 -2 85.99 -31.46 61.26 <
-2 16 7 -1 763.43 753.78 179.69 o
-2 -16 7 -1 734.90 806.69 231.53 o
-2 16 7 0 319.77 372.48 133.12 <
-2 -16 7 0 324.90 591.51 186.80 o
-2 16 7 1 50.19 103.44 84.72 <
-2 -16 7 1 45.86 37.62 79.92 <
-2 16 7 2 282.02 271.88 101.19 <
-1 16 7 -2 83.23 78.62 54.39 <
-1 -16 7 -2 75.76 29.33 70.09 <
-1 16 7 -1 5.44 18.31 36.38 <
-1 -16 7 -1 8.98 42.89 68.78 <
-1 16 7 0 2281.64 2198.25 224.13 o
-1 16 7 1 39.06 170.86 64.99 <
-1 16 7 2 84.59 105.58 59.48 <
0 16 7 -2 114.71 280.94 89.40 o
0 -16 7 -2 101.93 226.02 122.76 <
0 16 7 -1 643.24 752.42 126.49 o
0 16 7 0 53.07 168.79 84.31 <
0 16 7 1 356.32 219.56 83.77 <
0 16 7 2 119.89 99.30 72.34 <
1 16 7 -2 23.43 69.67 50.48 <
1 16 7 -1 64.74 34.90 69.44 <
1 16 7 0 2333.57 1964.29 259.32 o
1 16 7 1 238.42 114.40 70.27 <
1 16 7 2 118.64 11.02 52.14 <
1 -16 7 2 121.62 188.76 183.13 <
2 16 7 -2 180.67 187.81 86.62 <
2 -16 7 -2 181.72 192.07 144.09 <
2 16 7 -1 205.34 143.26 94.91 <
2 -16 7 -1 209.93 194.62 155.16 <
2 16 7 0 423.88 396.77 177.80 <
2 -16 7 0 443.37 149.12 103.56 <
2 16 7 1 252.89 344.10 169.74 <
2 -16 7 1 234.65 56.88 40.94 <
2 16 7 2 88.25 106.94 35.37 o
2 -16 7 2 86.31 -119.02 98.94 <
3 16 7 -2 109.39 325.79 178.68 <
3 -16 7 -2 104.65 88.99 70.56 <
3 16 7 -1 119.55 188.05 141.48 <
3 -16 7 -1 121.22 40.70 51.60 <
3 -16 7 0 836.97 236.51 120.51 <
3 16 7 1 5.52 148.59 116.71 <
3 -16 7 1 3.67 77.97 71.98 <
3 16 7 2 40.17 33.30 53.56 <
3 -16 7 2 39.53 75.66 48.17 <
4 16 7 -2 112.62 -44.79 72.16 <
4 -16 7 -2 114.31 -5.87 44.55 <
4 16 7 -1 74.98 116.18 95.03 <
4 -16 7 -1 76.10 -58.06 68.07 <
4 16 7 0 52.43 91.65 75.48 <
4 -16 7 0 53.96 33.71 70.32 <
4 -16 7 1 105.25 329.29 189.53 <
5 -16 7 -2 26.86 241.01 180.70 <
-4 -17 7 0 144.00 358.97 190.18 <
-4 -17 7 1 30.13 45.15 61.14 <
-4 17 7 2 34.94 136.92 126.96 <
-4 -17 7 2 37.03 -42.24 76.07 <
-3 17 7 -2 40.51 250.90 168.79 <
-3 -17 7 -2 43.72 -85.43 97.87 <
-3 17 7 -1 317.76 673.45 269.21 <
-3 -17 7 -1 314.98 316.67 174.71 <
-3 17 7 0 431.14 524.50 222.29 <
-3 -17 7 0 441.63 363.35 183.19 <
-3 17 7 1 53.60 129.87 123.94 <
-3 -17 7 1 54.31 -74.06 82.59 <
-3 17 7 2 27.36 31.10 40.41 <
-3 -17 7 2 25.05 -35.84 19.67 <
-2 17 7 -2 218.24 93.79 59.90 <
-2 -17 7 -2 216.93 162.39 89.28 <
-2 17 7 -1 83.14 51.96 53.26 <
-2 -17 7 -1 90.40 114.46 72.40 <
-2 17 7 0 117.49 123.17 118.37 <
-2 -17 7 0 115.10 72.22 63.75 <
-2 17 7 1 63.51 133.36 84.54 <
-2 17 7 2 56.94 13.39 46.33 <
-1 17 7 -2 61.19 16.00 13.09 <
-1 -17 7 -2 58.83 52.73 70.80 <
-1 17 7 -1 701.59 765.28 132.29 o
-1 -17 7 -1 696.14 688.67 194.62 o
-1 17 7 0 1180.93 1511.89 190.83 o
-1 17 7 1 34.60 11.38 46.63 <
-1 17 7 2 35.52 -30.69 23.05 <
0 17 7 -2 69.03 60.08 32.47 <
0 17 7 -1 20.12 184.31 75.24 <
0 17 7 0 1369.44 1828.32 219.27 o
0 17 7 1 84.45 217.61 100.36 <
0 17 7 2 15.91 27.43 17.18 <
1 17 7 -2 74.44 182.77 110.08 <
1 17 7 -1 157.37 160.67 106.76 <
1 17 7 0 890.92 1209.38 279.22 o
1 17 7 1 249.10 163.87 130.22 <
1 17 7 2 23.00 43.07 97.70 <
1 -17 7 2 21.59 234.20 188.05 <
2 17 7 -2 85.99 94.26 102.55 <
2 -17 7 -2 80.61 245.69 159.61 <
2 17 7 -1 139.17 89.16 71.33 <
2 -17 7 -1 141.93 278.10 182.24 <
2 17 7 0 255.87 393.69 170.04 <
2 -17 7 0 256.34 251.20 156.35 <
2 17 7 1 104.30 106.64 71.39 <
2 -17 7 1 116.18 115.17 81.17 <
2 17 7 2 20.83 -122.28 87.45 <
2 -17 7 2 20.05 -123.65 117.48 <
3 17 7 -2 67.36 228.10 152.56 <
3 -17 7 -2 71.15 -107.89 155.40 <
3 17 7 -1 37.00 103.26 89.46 <
3 -17 7 -1 36.87 -288.70 161.98 <
3 17 7 0 209.12 181.35 104.81 <
3 -17 7 0 206.32 0.41 49.83 <
3 17 7 1 93.67 277.45 166.36 <
3 -17 7 1 85.98 -186.33 133.36 <
3 17 7 2 20.01 -79.09 104.21 <
3 -17 7 2 19.17 -69.85 82.17 <
4 17 7 -2 60.83 104.86 70.68 <
4 -17 7 -2 58.20 -6.10 79.09 <
4 17 7 -1 25.18 23.94 34.18 <
4 -17 7 -1 25.98 108.12 91.89 <
4 -17 7 0 229.36 -208.37 145.15 <
-4 -18 7 1 47.48 -11.61 17.48 <
-4 -18 7 2 48.43 47.51 86.38 <
-3 18 7 -2 20.67 20.68 30.22 <
-3 -18 7 -2 22.61 -24.59 101.37 <
-3 18 7 -1 116.83 306.24 168.02 <
-3 -18 7 -1 117.86 170.09 63.93 <
-3 18 7 0 2.19 -133.66 142.90 <
-3 -18 7 0 1.00 -101.78 88.99 <
-3 18 7 1 104.50 49.17 83.18 <
-3 -18 7 1 103.06 -26.84 9.36 <
-3 18 7 2 59.64 178.27 144.44 <
-2 18 7 -2 267.93 196.28 96.21 <
-2 -18 7 -2 271.84 509.04 208.25 <
-2 18 7 -1 76.78 127.20 76.19 <
-2 -18 7 -1 92.86 33.06 43.25 <
-2 18 7 0 173.19 272.53 110.97 <
-2 -18 7 0 191.88 177.97 117.19 <
-2 18 7 1 38.30 69.02 69.67 <
-2 18 7 2 29.35 97.87 77.14 <
-1 18 7 -2 39.24 -13.98 39.28 <
-1 -18 7 -2 44.35 -3.20 29.45 <
-1 18 7 -1 91.70 147.64 59.01 <
-1 -18 7 -1 81.61 221.10 132.77 <
-1 18 7 0 53.90 90.76 52.02 <
-1 18 7 1 104.68 61.97 52.91 <
-1 18 7 2 46.84 94.73 72.75 <
0 18 7 -2 64.81 300.79 86.44 o
0 18 7 -1 55.90 88.10 44.97 <
0 18 7 0 490.73 458.15 142.90 o
0 18 7 1 84.60 141.71 83.65 <
0 18 7 2 12.15 71.09 92.78 <
1 18 7 -2 41.57 37.27 33.47 <
1 18 7 -1 118.88 134.61 98.17 <
1 18 7 0 53.00 39.16 82.17 <
1 18 7 1 276.80 207.00 117.78 <
1 -18 7 1 298.23 296.05 211.15 <
1 18 7 2 44.65 -49.59 97.04 <
1 -18 7 2 52.26 108.30 165.35 <
2 18 7 -2 160.02 208.60 130.93 <
2 -18 7 -2 162.40 313.70 209.14 <
2 18 7 -1 21.22 -25.53 21.45 <
2 -18 7 -1 19.23 115.82 162.63 <
2 18 7 0 92.21 133.07 104.86 <
2 -18 7 0 113.00 123.53 139.64 <
2 18 7 1 109.59 193.14 110.02 <
2 -18 7 1 107.27 106.88 117.19 <
2 18 7 2 8.75 101.78 117.19 <
2 -18 7 2 9.20 -224.66 144.50 <
3 18 7 -2 50.35 -7.11 68.19 <
3 -18 7 -2 45.21 -234.08 169.92 <
3 18 7 -1 99.94 134.37 122.82 <
3 -18 7 -1 95.62 -338.89 180.11 <
3 18 7 0 27.92 16.11 30.87 <
3 -18 7 0 23.46 -551.16 233.72 <
3 18 7 1 9.37 89.76 122.93 <
3 -18 7 1 8.30 -200.72 141.83 <
3 -18 7 2 8.56 106.23 86.97 <
4 18 7 -2 29.40 9.95 26.19 <
4 -18 7 -2 26.98 -339.83 186.74 <
4 -18 7 -1 28.51 -267.67 167.37 <
-3 19 7 -2 9.15 81.34 96.33 <
-3 -19 7 -2 11.03 267.91 152.32 <
-3 19 7 -1 3.27 58.65 51.54 <
-3 -19 7 -1 4.28 32.59 65.82 <
-3 19 7 0 3.06 -60.73 92.01 <
-3 -19 7 0 2.23 -28.26 99.83 <
-3 19 7 1 18.36 228.10 187.22 <
-3 -19 7 1 22.30 69.20 31.52 <
-3 19 7 2 44.69 100.36 126.79 <
-2 19 7 -2 127.79 80.46 67.42 <
-2 -19 7 -2 129.95 223.00 143.37 <
-2 19 7 -1 200.15 266.90 101.67 <
-2 -19 7 -1 207.63 255.94 143.43 <
-2 19 7 0 769.88 1020.09 211.86 o
-2 19 7 1 28.31 40.05 96.10 <
-2 19 7 2 62.09 104.86 87.21 <
-1 19 7 -2 2.64 -24.11 73.64 <
-1 -19 7 -2 3.00 -72.46 57.88 <
-1 19 7 -1 270.54 282.54 104.86 <
-1 19 7 0 34.00 71.33 78.68 <
-1 19 7 1 93.10 110.55 114.46 <
-1 19 7 2 37.89 37.98 72.52 <
0 19 7 -2 10.60 69.79 54.98 <
0 19 7 -1 287.33 292.14 112.68 <
0 19 7 0 1521.64 2301.93 322.77 o
0 19 7 1 25.55 35.67 65.88 <
0 19 7 2 30.79 23.99 53.20 <
1 19 7 -2 63.35 90.41 67.72 <
1 19 7 -1 9.95 -17.95 23.11 <
1 19 7 0 61.18 51.84 27.08 <
1 19 7 1 329.50 362.17 172.11 <
1 -19 7 1 357.30 576.28 273.30 <
1 19 7 2 82.66 42.78 27.13 <
1 -19 7 2 78.49 268.32 215.24 <
2 19 7 -2 25.91 -4.50 4.86 <
2 -19 7 -2 26.00 190.41 162.33 <
2 19 7 -1 35.20 10.49 41.59 <
2 -19 7 -1 35.76 103.26 147.17 <
2 19 7 0 518.08 765.87 243.97 o
2 -19 7 0 530.14 487.35 236.69 <
2 19 7 1 2.49 29.33 12.38 <
2 -19 7 1 4.24 57.11 141.30 <
2 19 7 2 32.23 75.66 112.15 <
2 -19 7 2 37.90 -104.04 129.75 <
3 19 7 -2 52.75 41.41 64.70 <
3 -19 7 -2 53.94 -79.21 114.52 <
3 19 7 -1 8.12 95.33 84.84 <
3 -19 7 -1 7.39 -118.91 156.29 <
3 19 7 0 9.10 20.68 39.22 <
3 -19 7 0 7.04 99.95 150.90 <
3 -19 7 1 74.48 -151.61 126.25 <
4 -19 7 -2 64.08 66.06 140.89 <
-3 -20 7 -2 9.69 -271.17 155.76 <
-3 20 7 -1 139.20 192.49 137.57 <
-3 -20 7 -1 120.33 113.51 96.69 <
-3 20 7 0 4.00 21.21 43.37 <
-3 -20 7 0 2.89 -57.17 96.51 <
-3 20 7 1 68.30 6.40 87.27 <
-3 20 7 2 70.67 39.28 46.80 <
-2 20 7 -2 16.75 -35.37 64.99 <
-2 -20 7 -2 19.49 -197.94 125.30 <
-2 20 7 -1 19.63 8.35 65.70 <
-2 -20 7 -1 18.66 28.32 76.60 <
-2 20 7 0 171.84 175.66 90.94 <
-2 20 7 1 32.13 150.19 101.96 <
-2 20 7 2 36.52 123.82 85.91 <
-1 20 7 -2 42.72 96.93 80.22 <
-1 -20 7 -2 39.97 27.19 61.85 <
-1 20 7 -1 65.52 71.27 59.30 <
-1 20 7 0 4.73 98.88 108.24 <
-1 20 7 1 244.86 -16.89 123.82 <
-1 20 7 2 39.77 56.11 79.98 <
0 20 7 -2 62.14 117.07 67.01 <
0 20 7 -1 26.71 -18.84 35.07 <
0 20 7 0 1154.91 1025.54 216.96 o
0 20 7 1 21.17 80.81 88.28 <
0 20 7 2 93.66 110.73 91.71 <
1 20 7 -2 53.51 100.54 94.50 <
1 20 7 -1 43.71 133.54 103.26 <
1 20 7 0 0.07 203.86 150.90 <
1 -20 7 0 3.21 407.55 273.65 <
1 20 7 1 58.04 -2.37 30.04 <
1 -20 7 1 47.31 206.23 176.08 <
1 20 7 2 58.51 -7.70 87.86 <
1 -20 7 2 59.43 212.34 183.60 <
2 20 7 -2 46.51 67.90 100.78 <
2 -20 7 -2 49.10 184.02 205.29 <
2 20 7 -1 11.69 -78.74 85.25 <
2 -20 7 -1 11.70 210.74 150.13 <
2 20 7 0 152.61 347.12 200.07 <
2 -20 7 0 141.94 160.73 161.21 <
2 20 7 1 8.91 170.15 144.80 <
2 -20 7 1 3.86 -59.01 48.40 <
2 20 7 2 26.83 -28.50 89.76 <
2 -20 7 2 27.82 -116.71 109.78 <
3 20 7 -2 72.91 34.84 103.68 <
3 -20 7 -2 75.76 -89.93 113.04 <
3 20 7 -1 19.15 11.02 88.99 <
3 -20 7 -1 24.06 -293.56 175.78 <
3 -20 7 0 4.53 -32.17 102.08 <
-3 -21 7 -1 38.23 137.39 132.89 <
-3 21 7 2 3.62 -11.67 67.54 <
-2 21 7 -2 44.88 143.14 97.46 <
-2 -21 7 -2 43.15 117.43 124.00 <
-2 21 7 -1 180.78 231.71 105.87 <
-2 21 7 0 10.20 26.66 51.43 <
-2 21 7 1 28.16 5.51 41.23 <
-2 21 7 2 73.31 293.15 177.03 <
-1 21 7 -2 12.99 22.04 48.29 <
-1 21 7 -1 177.94 -78.97 113.63 <
-1 21 7 0 328.59 269.39 156.47 <
-1 21 7 1 1.43 -118.67 102.20 <
-1 21 7 2 5.50 52.73 51.19 <
0 21 7 -2 24.37 105.69 58.95 <
0 21 7 -1 334.99 166.95 62.86 <
0 21 7 0 9.35 57.47 55.22 <
0 21 7 1 342.82 397.89 161.27 <
0 21 7 2 43.49 87.45 59.90 <
1 21 7 -2 23.20 47.34 84.37 <
1 21 7 -1 31.28 121.81 118.08 <
1 21 7 0 369.26 515.08 181.05 <
1 -21 7 0 346.84 642.64 295.34 <
1 21 7 1 39.32 169.80 125.07 <
1 -21 7 1 37.02 302.33 215.00 <
1 21 7 2 14.27 99.00 108.95 <
1 -21 7 2 12.37 281.00 224.07 <
2 21 7 -2 26.94 23.11 91.36 <
2 -21 7 -2 30.03 55.81 121.75 <
2 21 7 -1 54.96 -29.21 39.40 <
2 -21 7 -1 49.06 128.68 77.61 <
2 21 7 0 29.91 30.69 32.70 <
2 -21 7 0 29.17 253.57 189.94 <
2 21 7 1 282.20 495.23 227.44 <
2 -21 7 1 262.52 62.03 24.59 <
2 -21 7 2 60.12 -77.14 160.26 <
3 21 7 -2 23.28 80.10 112.39 <
3 -21 7 -2 22.61 -194.21 166.84 <
3 -21 7 -1 15.53 -33.36 44.43 <
-2 22 7 -2 27.43 -58.42 60.37 <
-2 -22 7 -2 25.42 -43.66 135.85 <
-2 22 7 -1 16.33 3.02 77.79 <
-2 22 7 0 255.69 341.37 134.78 <
-1 22 7 -2 80.12 135.97 141.71 <
-1 22 7 -1 525.24 952.25 313.41 o
-1 22 7 0 52.67 -86.20 134.72 <
-1 22 7 1 55.67 54.57 67.42 <
-1 22 7 2 39.36 31.93 74.12 <
0 22 7 -2 22.12 105.10 82.77 <
0 22 7 -1 42.62 69.20 51.37 <
0 22 7 0 618.00 1009.78 219.51 o
0 22 7 1 163.98 336.04 161.50 <
0 22 7 2 6.59 30.99 91.12 <
1 22 7 -2 27.78 59.96 86.62 <
1 22 7 -1 48.86 103.68 97.76 <
1 -22 7 -1 50.45 239.77 201.38 <
1 22 7 0 46.95 115.77 122.76 <
1 -22 7 0 57.25 329.35 244.27 <
1 22 7 1 291.85 464.19 171.52 <
1 -22 7 1 284.87 545.77 290.07 <
1 22 7 2 142.97 157.30 96.45 <
2 22 7 -2 51.94 295.34 148.77 <
2 -22 7 -2 58.21 160.73 130.22 <
2 22 7 -1 39.64 89.93 99.41 <
2 -22 7 -1 34.47 -14.28 73.23 <
2 22 7 0 276.23 427.69 186.39 <
2 -22 7 0 269.27 114.64 101.49 <
-2 23 7 -2 12.60 26.48 84.90 <
-2 23 7 -1 280.68 596.19 251.68 <
-1 23 7 -2 15.09 187.69 141.48 <
-1 23 7 -1 111.50 411.34 215.95 <
-1 23 7 0 2.47 140.77 157.06 <
-1 23 7 1 10.34 12.09 4.21 <
-1 23 7 2 16.37 -51.78 86.14 <
0 23 7 -2 77.93 111.44 82.77 <
0 23 7 -1 228.74 293.03 134.19 <
0 23 7 0 348.71 359.92 144.44 <
0 23 7 1 4.01 7.41 31.22 <
0 23 7 2 28.89 -1.48 69.32 <
1 23 7 -2 5.90 7.11 98.17 <
1 23 7 -1 9.26 60.31 84.60 <
1 -23 7 -1 14.24 184.31 205.11 <
1 23 7 0 2.55 28.91 83.71 <
1 -23 7 0 2.57 157.36 135.02 <
1 23 7 1 116.07 110.67 145.80 <
2 23 7 -2 80.61 92.54 93.85 <
2 -23 7 -2 76.07 97.16 147.88 <
2 23 7 -1 133.12 47.99 96.45 <
-1 24 7 -2 41.42 -23.22 118.96 <
-1 24 7 -1 25.65 15.05 40.29 <
-1 24 7 0 91.14 186.21 166.54 <
-1 24 7 1 28.11 3.61 33.12 <
0 24 7 -2 22.39 -4.92 66.95 <
0 24 7 -1 56.45 1.90 39.10 <
0 24 7 0 210.09 376.09 126.43 <
0 24 7 1 8.12 21.03 21.86 <
0 24 7 2 12.45 29.39 128.56 <
1 24 7 -2 43.47 241.78 140.00 <
1 -24 7 -2 47.25 217.90 188.28 <
1 24 7 -1 11.33 -30.51 20.56 <
1 24 7 0 63.41 100.54 124.89 <
0 25 7 -2 8.43 129.45 100.66 <
0 25 7 -1 41.87 97.28 119.74 <
-5 0 8 -2 46.94 8.18 99.59 <
-5 0 8 -1 83.99 176.85 98.58 <
-5 0 8 0 1502.89 1057.47 215.89 o
-5 0 8 1 50.13 48.52 76.19 <
-5 0 8 2 406.38 110.55 102.20 <
-4 0 8 -2 61.27 219.92 96.57 <
-4 0 8 -1 275.64 316.96 129.87 <
-4 0 8 0 460.89 513.24 147.94 o
-4 0 8 1 77.15 44.02 35.49 <
-4 0 8 2 57.79 97.58 60.90 <
-3 0 8 -2 53.13 83.60 72.99 <
-3 0 8 -1 23.97 194.62 94.20 <
-3 0 8 0 7538.70 6527.09 456.49 o
-3 0 8 1 249.08 95.92 77.14 <
-3 0 8 2 446.43 317.50 180.11 <
-2 0 8 -2 25.15 147.05 82.59 <
-2 0 8 -1 899.98 493.75 119.08 o
-2 0 8 0 4645.20 4645.21 353.52 o
-2 0 8 1 228.34 418.04 173.41 <
-2 0 8 2 7.43 103.68 70.03 <
-1 0 8 -2 6.77 29.33 11.97 <
-1 0 8 -1 347.76 238.88 131.41 <
-1 0 8 0 20055.00 19232.90 979.68 o
-1 0 8 1 201.26 145.80 112.09 <
-1 0 8 2 102.00 283.61 147.58 <
0 0 8 -2 98.57 249.66 127.79 <
0 0 8 -1 418.15 475.86 129.81 o
0 0 8 0 6125.77 6398.35 632.51 o
0 0 8 1 72.06 107.29 97.34 <
0 0 8 2 45.47 134.31 166.12 <
1 0 8 -2 1142.94 1474.03 339.24 o
1 0 8 -1 4.48 225.19 152.26 <
1 0 8 0 18071.60 15752.60 997.28 o
1 0 8 1 1141.28 2247.42 402.52 o
1 0 8 2 24.71 6.81 66.06 <
2 0 8 -2 41.72 61.20 40.64 <
2 0 8 -1 94.75 378.70 155.34 <
2 0 8 0 3276.35 3553.31 497.07 o
2 0 8 1 17.31 203.39 145.09 <
2 0 8 2 42.00 61.79 113.93 <
3 0 8 -2 752.86 275.79 167.90 <
3 0 8 -1 1.59 -29.50 50.77 <
3 0 8 0 7866.04 7236.26 755.62 o
3 0 8 1 12.58 116.06 115.71 <
3 0 8 2 56.97 20.74 51.54 <
4 0 8 -2 10.06 -18.54 62.27 <
4 0 8 -1 15.09 118.91 120.45 <
4 0 8 0 177.50 316.49 180.94 <
4 0 8 1 2.62 -21.98 52.49 <
4 0 8 2 3.14 352.16 202.15 <
5 0 8 -2 174.03 377.87 217.37 <
5 0 8 -1 9.54 118.14 146.57 <
5 0 8 0 1730.04 1129.34 335.92 o
-5 1 8 -2 29.73 53.74 63.57 <
-5 -1 8 -2 26.66 134.07 111.62 <
-5 1 8 -1 540.65 420.35 144.80 <
-5 -1 8 -1 546.06 322.06 110.73 <
-5 1 8 0 73.58 80.34 116.71 <
-5 -1 8 0 72.00 40.58 50.24 <
-5 1 8 1 114.37 281.00 176.79 <
-5 -1 8 1 114.47 78.14 61.38 <
-5 1 8 2 164.65 84.01 96.27 <
-5 -1 8 2 181.54 34.24 64.58 <
-4 1 8 -2 32.77 50.36 63.99 <
-4 -1 8 -2 38.63 62.80 43.37 <
-4 1 8 -1 414.13 340.19 121.93 <
-4 -1 8 -1 387.56 397.66 133.01 <
-4 1 8 0 11.78 -66.83 45.56 <
-4 -1 8 0 13.54 22.57 52.31 <
-4 1 8 1 76.80 203.69 139.46 <
-4 -1 8 1 57.63 13.03 57.29 <
-4 1 8 2 218.68 5.04 76.49 <
-4 -1 8 2 232.76 113.22 85.91 <
-3 1 8 -2 40.46 -28.20 38.69 <
-3 -1 8 -2 41.16 -15.70 29.15 <
-3 1 8 -1 2593.85 3000.79 309.02 o
-3 -1 8 -1 2515.94 3257.62 324.61 o
-3 1 8 0 584.88 746.55 159.01 o
-3 -1 8 0 575.27 877.37 175.84 o
-3 1 8 1 884.78 1056.11 271.88 o
-3 -1 8 1 888.57 803.84 175.19 o
-3 1 8 2 236.40 67.72 109.31 <
-3 -1 8 2 245.24 136.92 90.41 <
-2 1 8 -2 693.37 612.48 138.34 o
-2 -1 8 -2 682.34 770.19 156.41 o
-2 1 8 -1 824.99 660.89 221.70 <
-2 -1 8 -1 757.26 646.78 137.51 o
-2 1 8 0 222.65 444.22 174.24 <
-2 -1 8 0 250.43 343.39 104.04 o
-2 1 8 1 176.11 69.32 100.01 <
-2 -1 8 1 126.83 16.11 31.64 <
-2 1 8 2 155.68 31.28 29.27 <
-2 -1 8 2 151.43 -12.15 54.15 <
-1 1 8 -2 29.04 -2.43 46.03 <
-1 -1 8 -2 26.33 92.42 57.53 <
-1 1 8 -1 37.06 60.67 47.69 <
-1 -1 8 -1 85.62 225.19 136.98 <
-1 1 8 0 882.52 841.88 207.42 o
-1 -1 8 0 848.90 958.42 233.01 o
-1 1 8 1 1010.88 1197.53 251.85 o
-1 -1 8 1 1023.03 1400.74 290.84 o
-1 1 8 2 151.82 127.73 99.65 <
-1 -1 8 2 162.71 97.52 65.94 <
0 1 8 -2 105.99 119.08 86.38 <
0 1 8 -1 582.39 549.68 134.96 o
0 -1 8 -1 499.60 507.02 196.04 <
0 1 8 0 145.11 234.79 98.64 <
0 -1 8 0 117.83 110.55 131.11 <
0 1 8 1 32.69 111.56 69.38 <
0 -1 8 1 25.29 59.60 73.17 <
0 1 8 2 197.40 151.96 76.13 <
0 -1 8 2 197.74 184.73 145.92 <
1 1 8 -2 159.79 133.72 125.54 <
1 -1 8 -2 148.45 215.54 130.04 <
1 1 8 -1 2881.64 2527.48 429.59 o
1 -1 8 -1 2843.33 2536.48 397.30 o
1 1 8 0 856.10 756.45 228.27 o
1 -1 8 0 842.09 585.52 196.52 <
1 1 8 1 8820.55 8615.38 762.73 o
1 -1 8 1 8938.88 9380.77 766.70 o
1 1 8 2 409.25 275.67 162.04 <
1 -1 8 2 436.38 475.39 181.71 <
2 1 8 -2 100.61 -9.01 41.83 <
2 -1 8 -2 109.42 25.42 26.66 <
2 1 8 -1 54.37 12.20 60.02 <
2 -1 8 -1 30.66 282.25 147.94 <
2 1 8 0 162.06 378.99 180.46 <
2 -1 8 0 174.46 330.77 157.24 <
2 1 8 1 31.40 160.14 140.71 <
2 -1 8 1 54.35 121.28 132.47 <
2 1 8 2 82.39 117.19 135.97 <
2 -1 8 2 99.17 174.77 133.30 <
3 1 8 -2 212.98 167.37 147.76 <
3 -1 8 -2 182.09 301.56 160.32 <
3 1 8 -1 543.99 195.63 136.98 <
3 -1 8 -1 558.74 219.21 109.90 <
3 1 8 0 275.15 567.87 243.80 <
3 -1 8 0 273.36 702.06 238.58 <
3 1 8 1 352.30 248.65 155.88 <
3 -1 8 1 381.71 368.57 204.52 <
3 1 8 2 157.46 360.21 184.37 <
3 -1 8 2 168.80 154.81 146.57 <
4 1 8 -2 236.25 134.49 112.09 <
4 -1 8 -2 222.00 106.88 142.66 <
4 1 8 -1 30.19 55.87 83.12 <
4 -1 8 -1 26.89 64.10 104.33 <
4 1 8 0 70.90 91.48 132.71 <
4 -1 8 0 70.67 118.37 162.81 <
4 1 8 1 141.33 216.90 165.65 <
4 -1 8 1 159.32 235.44 203.98 <
4 1 8 2 20.09 303.63 195.04 <
4 -1 8 2 31.54 181.29 157.77 <
5 1 8 -2 158.07 184.31 190.18 <
5 -1 8 -2 136.57 54.39 99.24 <
5 1 8 -1 138.30 103.80 135.02 <
5 -1 8 -1 156.73 -25.83 155.76 <
5 1 8 0 9.98 219.56 179.93 <
5 -1 8 0 9.33 -70.56 99.71 <
-5 2 8 -2 47.47 85.55 136.80 <
-5 -2 8 -2 48.34 203.75 149.48 <
-5 2 8 -1 20.08 -86.85 52.49 <
-5 -2 8 -1 37.18 179.51 139.76 <
-5 2 8 0 58.03 80.81 90.65 <
-5 -2 8 0 65.14 155.52 83.36 <
-5 2 8 1 65.51 94.97 105.28 <
-5 -2 8 1 69.00 9.01 65.76 <
-5 2 8 2 30.99 175.43 163.04 <
-5 -2 8 2 26.98 -97.87 92.66 <
-4 2 8 -2 237.41 302.27 122.70 <
-4 -2 8 -2 234.55 398.60 125.66 o
-4 2 8 -1 109.69 408.85 185.20 <
-4 -2 8 -1 105.01 350.61 117.90 <
-4 2 8 0 1258.76 546.66 210.14 <
-4 -2 8 0 1201.50 481.73 145.27 o
-4 2 8 1 161.10 234.91 139.05 <
-4 -2 8 1 174.34 205.46 102.79 <
-4 2 8 2 116.87 217.49 148.65 <
-4 -2 8 2 131.07 228.51 96.63 <
-3 2 8 -2 150.91 157.06 66.24 <
-3 -2 8 -2 157.34 167.49 77.55 <
-3 2 8 -1 100.23 360.33 154.69 <
-3 -2 8 -1 61.88 378.34 113.22 o
-3 2 8 0 513.61 303.40 141.89 <
-3 -2 8 0 557.55 293.68 109.66 <
-3 2 8 1 184.04 214.76 144.09 <
-3 -2 8 1 166.94 18.13 63.22 <
-3 2 8 2 180.06 165.18 138.87 <
-3 -2 8 2 160.31 87.33 61.14 <
-2 2 8 -2 248.79 124.18 101.90 <
-2 -2 8 -2 244.86 72.16 73.64 <
-2 2 8 -1 137.61 491.86 169.21 <
-2 -2 8 -1 159.64 326.44 102.91 o
-2 2 8 0 8377.73 8798.62 698.39 o
-2 -2 8 0 8113.09 8697.55 482.20 o
-2 2 8 1 348.86 520.12 187.69 <
-2 -2 8 1 375.07 440.43 121.81 o
-2 2 8 2 214.83 407.55 180.58 <
-2 -2 8 2 233.79 384.98 183.72 <
-1 2 8 -2 110.10 26.13 51.37 <
-1 -2 8 -2 119.60 133.30 56.88 <
-1 2 8 -1 1685.14 1698.63 278.16 o
-1 -2 8 -1 1809.63 1481.08 183.84 o
-1 2 8 0 2373.21 2482.51 353.76 o
-1 -2 8 0 2510.04 2336.17 346.70 o
-1 2 8 1 656.51 590.97 186.92 o
-1 -2 8 1 621.99 641.10 199.24 o
-1 2 8 2 154.15 138.52 81.70 <
-1 -2 8 2 149.38 195.57 94.50 <
0 2 8 -2 228.99 169.98 107.94 <
0 -2 8 -2 212.40 182.00 130.81 <
0 2 8 -1 157.21 374.14 141.24 <
0 -2 8 -1 182.97 452.93 203.86 <
0 2 8 0 8516.84 8836.95 488.95 o
0 -2 8 0 8248.57 9070.50 733.58 o
0 2 8 1 192.63 307.60 115.88 <
0 -2 8 1 202.75 399.02 177.62 <
0 2 8 2 159.15 158.54 72.46 <
0 -2 8 2 165.12 352.98 192.84 <
1 2 8 -2 179.34 128.15 149.24 <
1 -2 8 -2 172.27 265.07 140.35 <
1 2 8 -1 51.71 225.43 160.02 <
1 -2 8 -1 29.98 250.73 130.70 <
1 2 8 0 2294.01 1856.93 356.78 o
1 -2 8 0 2428.43 1828.14 322.95 o
1 2 8 1 591.17 626.11 229.40 <
1 -2 8 1 546.58 681.44 202.09 o
1 2 8 2 87.33 95.86 55.99 <
1 -2 8 2 90.03 76.43 54.51 <
2 2 8 -2 164.75 33.83 61.85 <
2 -2 8 -2 155.86 11.55 29.33 <
2 2 8 -1 76.39 63.87 85.67 <
2 -2 8 -1 73.05 153.62 110.20 <
2 2 8 0 9943.86 9200.96 830.39 o
2 -2 8 0 9763.19 8575.74 737.02 o
2 2 8 1 165.48 314.12 189.94 <
2 -2 8 1 167.42 245.87 164.41 <
2 2 8 2 164.04 120.86 121.63 <
2 -2 8 2 171.60 181.17 112.57 <
3 2 8 -2 72.34 258.55 152.50 <
3 -2 8 -2 64.26 -72.52 40.35 <
3 2 8 -1 77.70 164.64 133.07 <
3 -2 8 -1 73.77 87.27 63.45 <
3 2 8 0 731.55 324.25 160.44 <
3 -2 8 0 782.25 500.21 188.88 <
3 2 8 1 325.46 246.23 149.65 <
3 -2 8 1 315.76 331.18 192.13 <
3 2 8 2 21.52 224.60 135.97 <
3 -2 8 2 18.27 87.74 122.05 <
4 2 8 -2 183.79 106.40 88.99 <
4 -2 8 -2 186.08 31.52 51.54 <
4 2 8 -1 5.92 127.50 90.59 <
4 -2 8 -1 5.24 39.81 117.66 <
4 2 8 0 1890.52 810.18 287.34 <
4 -2 8 0 1842.61 1265.31 334.14 o
4 2 8 1 47.24 227.80 157.59 <
4 -2 8 1 49.85 201.49 172.88 <
4 2 8 2 96.32 163.81 95.44 <
4 -2 8 2 96.54 0.83 94.97 <
5 2 8 -2 29.10 203.51 187.57 <
5 -2 8 -2 27.38 95.74 51.31 <
5 2 8 -1 22.67 -77.02 77.37 <
5 -2 8 -1 20.60 -140.35 170.45 <
5 2 8 0 81.49 278.81 172.76 <
5 -2 8 0 92.07 124.30 84.90 <
-5 3 8 -2 29.20 123.59 107.47 <
-5 -3 8 -2 23.45 131.11 124.65 <
-5 3 8 -1 54.83 144.80 132.47 <
-5 -3 8 -1 52.14 176.08 131.23 <
-5 3 8 0 136.96 486.88 200.43 <
-5 -3 8 0 130.00 228.33 101.19 <
-5 3 8 1 34.99 177.14 113.16 <
-5 -3 8 1 34.28 65.11 71.15 <
-5 3 8 2 16.58 -64.52 104.63 <
-5 -3 8 2 17.75 -30.33 68.61 <
-4 3 8 -2 246.85 95.68 114.58 <
-4 -3 8 -2 243.53 241.43 112.63 <
-4 3 8 -1 1058.46 1126.67 291.37 o
-4 -3 8 -1 1086.17 1057.65 196.76 o
-4 3 8 0 227.41 233.72 152.02 <
-4 -3 8 0 206.86 103.80 58.83 <
-4 3 8 1 289.20 90.11 93.13 <
-4 -3 8 1 281.15 248.12 108.48 <
-4 3 8 2 144.34 109.31 71.39 <
-4 -3 8 2 141.11 65.82 55.04 <
-3 3 8 -2 33.91 14.63 67.36 <
-3 -3 8 -2 31.59 58.06 52.55 <
-3 3 8 -1 213.64 52.31 66.77 <
-3 -3 8 -1 214.68 223.59 94.14 <
-3 3 8 0 652.51 961.26 267.20 o
-3 -3 8 0 656.89 890.40 168.49 o
-3 3 8 1 151.95 232.66 137.39 <
-3 -3 8 1 151.60 205.23 89.22 <
-3 3 8 2 145.84 165.95 131.17 <
-3 -3 8 2 152.66 35.37 54.80 <
-2 3 8 -2 393.64 309.20 143.67 <
-2 -3 8 -2 396.62 373.96 103.03 o
-2 3 8 -1 2015.18 2599.04 384.09 o
-2 -3 8 -1 2053.07 2521.79 263.23 o
-2 3 8 0 574.15 620.89 197.82 o
-2 -3 8 0 530.72 668.17 139.52 o
-2 3 8 1 850.83 1070.15 257.95 o
-2 -3 8 1 870.02 930.93 171.40 o
-2 3 8 2 304.28 105.99 85.49 <
-2 -3 8 2 295.14 177.14 87.21 <
-1 3 8 -2 218.70 90.53 51.31 <
-1 -3 8 -2 211.21 76.78 50.48 <
-1 3 8 -1 326.97 491.62 168.02 <
-1 -3 8 -1 359.63 418.10 114.94 o
-1 3 8 0 586.12 510.40 159.43 o
-1 -3 8 0 637.48 552.47 117.43 o
-1 3 8 1 65.95 24.53 83.83 <
-1 -3 8 1 48.01 101.25 73.23 <
-1 3 8 2 146.62 7.58 16.06 <
-1 -3 8 2 152.45 9.60 72.04 <
0 3 8 -2 24.22 50.89 46.21 <
0 -3 8 -2 31.10 64.64 112.15 <
0 3 8 -1 981.14 630.67 172.35 o
0 -3 8 -1 1003.41 683.93 207.00 o
0 3 8 0 142.27 84.25 80.22 <
0 -3 8 0 90.84 154.10 96.57 <
0 3 8 1 532.43 658.87 147.34 o
0 -3 8 1 588.05 1142.43 294.15 o
0 3 8 2 150.10 292.08 101.55 <
0 -3 8 2 144.17 170.45 119.08 <
1 3 8 -2 161.26 44.49 34.30 <
1 -3 8 -2 136.99 94.67 97.04 <
1 3 8 -1 233.05 280.41 74.89 o
1 -3 8 -1 273.51 141.83 78.14 <
1 3 8 0 657.52 784.47 153.03 o
1 -3 8 0 706.08 618.17 181.59 o
1 3 8 1 471.95 259.08 79.69 o
1 -3 8 1 398.40 233.55 84.96 <
1 3 8 2 306.92 138.22 85.02 <
1 -3 8 2 295.07 55.22 30.69 <
2 3 8 -2 129.60 4.09 66.47 <
2 -3 8 -2 150.46 69.67 49.59 <
2 3 8 -1 281.12 102.02 68.55 <
2 -3 8 -1 301.51 109.78 61.67 <
2 3 8 0 194.85 218.38 160.50 <
2 -3 8 0 167.60 265.12 137.27 <
2 3 8 1 191.65 347.48 217.55 <
2 -3 8 1 225.21 452.81 180.28 <
2 3 8 2 307.36 271.17 188.16 <
2 -3 8 2 292.41 450.68 221.46 <
3 3 8 -2 35.01 135.73 86.02 <
3 -3 8 -2 30.48 49.53 52.85 <
3 3 8 -1 121.51 82.17 127.85 <
3 -3 8 -1 140.48 83.36 127.61 <
3 3 8 0 442.35 452.34 167.07 <
3 -3 8 0 455.20 640.92 236.69 <
3 3 8 1 422.23 104.04 60.25 <
3 -3 8 1 344.48 129.10 122.11 <
3 3 8 2 122.80 52.14 109.54 <
3 -3 8 2 112.32 322.71 171.28 <
4 3 8 -2 169.44 13.45 73.70 <
4 -3 8 -2 198.24 130.99 93.07 <
4 3 8 -1 81.56 18.43 32.76 <
4 -3 8 -1 89.93 9.89 26.19 <
4 3 8 0 20.49 90.88 156.35 <
4 -3 8 0 23.29 457.38 218.02 <
4 3 8 1 42.76 34.36 37.68 <
4 -3 8 1 48.51 189.88 127.61 <
4 3 8 2 54.31 204.40 163.40 <
4 -3 8 2 58.74 35.90 66.83 <
5 3 8 -2 36.95 301.03 213.52 <
5 -3 8 -2 41.28 114.94 89.64 <
5 3 8 -1 39.75 210.97 156.88 <
5 -3 8 -1 49.14 -12.09 18.01 <
5 3 8 0 82.61 0.00 47.93 <
5 -3 8 0 83.17 72.34 59.30 <
-5 4 8 -2 14.66 -161.68 123.11 <
-5 4 8 -1 25.66 159.19 93.55 <
-5 -4 8 -1 33.60 57.05 81.11 <
-5 4 8 0 113.16 75.12 130.22 <
-5 -4 8 0 118.93 213.94 133.12 <
-5 4 8 1 16.19 -9.66 59.07 <
-5 -4 8 1 17.55 -52.61 60.25 <
-5 4 8 2 17.82 136.21 87.21 <
-5 -4 8 2 16.93 69.97 51.13 <
-4 4 8 -2 129.45 -117.01 105.28 <
-4 -4 8 -2 125.71 107.77 59.36 <
-4 4 8 -1 459.54 841.76 259.79 o
-4 -4 8 -1 508.13 560.40 145.15 o
-4 4 8 0 543.33 377.04 167.31 <
-4 -4 8 0 530.93 259.79 98.88 <
-4 4 8 1 589.33 353.40 181.71 <
-4 -4 8 1 595.00 330.35 118.08 <
-4 4 8 2 221.19 104.63 75.00 <
-4 -4 8 2 225.01 23.76 49.11 <
-3 4 8 -2 37.07 169.92 126.73 <
-3 -4 8 -2 32.64 29.98 44.97 <
-3 4 8 -1 144.50 153.39 122.16 <
-3 -4 8 -1 168.68 103.15 65.23 <
-3 4 8 0 1597.02 1600.58 322.18 o
-3 -4 8 0 1657.73 1616.52 224.66 o
-3 4 8 1 107.64 61.56 69.32 <
-3 -4 8 1 121.39 -6.64 56.70 <
-3 4 8 2 49.33 24.23 124.18 <
-3 -4 8 2 49.64 12.56 28.20 <
-2 4 8 -2 660.90 427.93 168.85 <
-2 -4 8 -2 616.61 569.05 135.14 o
-2 4 8 -1 910.04 1088.76 227.86 o
-2 -4 8 -1 988.73 1071.81 168.91 o
-2 4 8 0 4690.33 4390.63 494.64 o
-2 -4 8 0 4684.22 4511.85 355.30 o
-2 4 8 1 879.60 634.28 192.73 o
-2 -4 8 1 857.83 602.53 139.46 o
-2 4 8 2 279.03 318.56 166.24 <
-2 -4 8 2 281.44 259.55 93.61 <
-1 4 8 -2 188.30 220.04 70.44 o
-1 -4 8 -2 195.05 290.01 89.88 o
-1 4 8 -1 883.42 825.82 210.50 o
-1 -4 8 -1 918.23 628.95 131.52 o
-1 4 8 0 5789.88 6257.22 538.01 o
-1 -4 8 0 5898.52 5976.93 364.77 o
-1 4 8 1 154.49 143.85 111.32 <
-1 -4 8 1 189.14 134.78 81.29 <
-1 4 8 2 62.52 136.62 93.43 <
-1 -4 8 2 66.53 -26.54 70.32 <
0 4 8 -2 93.49 92.30 41.89 <
0 -4 8 -2 100.02 138.40 53.68 <
0 4 8 -1 607.58 562.12 101.72 o
0 -4 8 -1 643.53 790.81 226.08 o
0 4 8 0 221.67 371.94 82.29 o
0 -4 8 0 123.49 465.49 187.75 <
0 4 8 1 205.99 203.15 52.25 o
0 -4 8 1 193.50 264.18 181.94 <
0 4 8 2 60.81 95.92 41.18 <
0 -4 8 2 60.80 122.05 124.53 <
1 4 8 -2 23.25 34.07 31.10 <
1 -4 8 -2 18.93 79.98 53.62 <
1 4 8 -1 280.20 281.59 77.32 o
1 -4 8 -1 294.58 300.38 130.34 <
1 4 8 0 5163.59 5316.28 300.61 o
1 -4 8 0 5209.07 5163.08 524.50 o
1 4 8 1 301.34 224.07 68.37 o
1 -4 8 1 336.20 225.67 147.52 <
1 4 8 2 82.64 63.16 42.30 <
1 -4 8 2 91.35 27.19 63.16 <
2 4 8 -2 69.58 54.86 73.23 <
2 -4 8 -2 81.52 49.06 43.96 <
2 4 8 -1 45.06 52.85 60.25 <
2 -4 8 -1 45.41 116.65 66.53 <
2 4 8 0 3978.56 4016.79 365.78 o
2 -4 8 0 3973.23 4154.83 517.81 o
2 4 8 1 8.32 78.03 73.64 <
2 -4 8 1 11.50 230.17 139.88 <
2 4 8 2 809.21 548.02 230.76 <
2 -4 8 2 816.30 904.09 268.92 o
3 4 8 -2 97.55 42.36 44.79 <
3 -4 8 -2 78.39 39.34 28.14 <
3 4 8 -1 129.44 279.70 125.01 <
3 -4 8 -1 132.64 270.16 155.88 <
3 4 8 0 1010.47 762.31 217.85 o
3 -4 8 0 994.58 1420.06 336.57 o
3 4 8 1 65.46 4.98 82.77 <
3 -4 8 1 67.25 116.24 147.29 <
3 4 8 2 68.55 124.18 126.19 <
3 -4 8 2 72.33 -8.24 66.59 <
4 4 8 -2 62.95 -35.67 11.97 <
4 -4 8 -2 65.85 -6.46 74.77 <
4 4 8 -1 15.79 56.22 47.69 <
4 -4 8 -1 18.03 266.43 195.45 <
4 4 8 0 335.80 174.12 176.49 <
4 -4 8 0 320.49 31.28 97.76 <
4 4 8 1 26.10 32.17 64.52 <
4 -4 8 1 35.52 80.57 108.36 <
4 4 8 2 108.64 62.21 53.79 <
4 -4 8 2 105.30 268.56 198.00 <
5 4 8 -2 77.58 327.51 201.55 <
5 -4 8 -2 64.02 48.58 36.26 <
5 4 8 -1 15.90 109.19 126.85 <
5 -4 8 -1 16.97 -35.31 55.22 <
5 4 8 0 35.01 185.20 170.33 <
5 -4 8 0 29.83 270.58 175.13 <
-5 5 8 -2 17.91 56.58 87.09 <
-5 5 8 -1 156.82 204.16 163.87 <
-5 -5 8 -1 137.58 119.56 112.57 <
-5 5 8 0 169.30 126.43 112.98 <
-5 -5 8 0 171.56 459.04 199.18 <
-5 5 8 1 55.32 -5.57 65.41 <
-5 -5 8 1 47.96 154.10 130.58 <
-5 5 8 2 37.83 149.00 139.17 <
-5 -5 8 2 38.79 82.35 71.57 <
-4 5 8 -2 9.97 -85.14 71.86 <
-4 -5 8 -2 12.34 68.78 54.57 <
-4 5 8 -1 203.55 269.69 173.83 <
-4 -5 8 -1 228.71 141.12 87.98 <
-4 5 8 0 274.30 509.99 222.35 <
-4 -5 8 0 257.45 243.20 104.10 <
-4 5 8 1 14.34 110.26 96.75 <
-4 -5 8 1 17.15 75.12 41.59 <
-4 5 8 2 282.12 156.76 138.81 <
-4 -5 8 2 294.73 81.29 75.66 <
-3 5 8 -2 24.22 -21.74 40.29 <
-3 -5 8 -2 20.85 2.31 12.97 <
-3 5 8 -1 208.45 226.44 135.55 <
-3 -5 8 -1 179.65 199.95 82.65 <
-3 5 8 0 621.97 624.57 194.74 o
-3 -5 8 0 646.33 762.31 159.61 o
-3 -5 8 1 287.02 -26.25 47.51 <
-3 5 8 2 88.45 120.86 111.14 <
-3 -5 8 2 82.68 18.37 61.73 <
-2 5 8 -2 543.87 392.32 158.01 <
-2 -5 8 -2 522.69 352.45 109.49 o
-2 5 8 -1 49.55 138.16 92.19 <
-2 -5 8 -1 67.24 67.60 61.38 <
-2 5 8 0 532.21 635.94 188.05 o
-2 -5 8 0 480.89 625.28 129.33 o
-2 5 8 1 40.46 39.04 94.97 <
-2 -5 8 1 53.86 146.34 80.75 <
-2 5 8 2 161.77 171.57 119.38 <
-2 -5 8 2 163.14 143.14 63.22 <
-1 5 8 -2 53.36 14.10 36.73 <
-1 -5 8 -2 47.31 139.58 75.66 <
-1 5 8 -1 610.11 650.52 131.64 o
-1 -5 8 -1 574.89 781.63 142.90 o
-1 5 8 0 1902.26 2403.71 336.81 o
-1 -5 8 0 1978.18 2251.81 228.27 o
-1 5 8 1 378.74 385.63 154.10 <
-1 -5 8 1 320.55 229.87 68.90 o
-1 5 8 2 76.36 101.25 86.32 <
-1 -5 8 2 68.33 214.65 150.01 <
0 5 8 -2 17.55 17.77 24.11 <
0 -5 8 -2 17.93 14.04 9.48 <
0 5 8 -1 97.94 80.10 51.19 <
0 -5 8 -1 79.27 74.65 59.30 <
0 5 8 0 2097.09 2591.05 198.95 o
0 -5 8 0 2015.72 3042.74 435.93 o
0 5 8 1 658.98 647.26 116.83 o
0 -5 8 1 779.83 526.58 192.84 <
0 5 8 2 95.44 105.64 61.97 <
0 -5 8 2 101.29 183.48 145.80 <
1 5 8 -2 24.31 18.72 35.78 <
1 -5 8 -2 22.58 71.81 71.27 <
1 5 8 -1 537.01 450.27 93.90 o
1 -5 8 -1 539.65 546.18 177.74 o
1 5 8 0 1396.55 1876.43 178.86 o
1 -5 8 0 1419.93 1813.03 311.28 o
1 5 8 1 835.37 822.51 119.50 o
1 -5 8 1 781.57 867.24 242.08 o
1 5 8 2 94.28 0.30 48.05 <
1 -5 8 2 97.50 60.43 41.12 <
2 5 8 -2 219.02 21.68 23.28 <
2 -5 8 -2 218.84 1.24 38.57 <
2 5 8 -1 1088.41 660.83 106.76 o
2 -5 8 -1 1149.72 782.58 146.51 o
2 5 8 0 537.44 635.29 115.11 o
2 -5 8 0 515.58 502.23 123.59 o
2 5 8 1 876.58 1060.38 149.71 o
2 -5 8 1 1043.67 1534.40 326.09 o
2 5 8 2 284.65 174.18 87.27 <
2 -5 8 2 293.36 122.99 98.88 <
3 5 8 -2 149.84 8.47 55.81 <
3 -5 8 -2 141.41 -49.94 39.52 <
3 5 8 -1 382.73 335.15 130.22 <
3 -5 8 -1 392.61 423.78 197.82 <
3 5 8 0 315.81 297.95 118.91 <
3 -5 8 0 314.61 582.74 212.16 <
3 5 8 1 83.83 50.48 14.40 o
3 -5 8 1 69.32 66.36 86.56 <
3 5 8 2 21.60 -159.61 13.98 <
3 -5 8 2 20.41 -51.37 57.76 <
4 5 8 -2 190.12 200.25 90.59 <
4 -5 8 -2 182.53 110.91 150.07 <
4 5 8 -1 576.44 344.39 181.29 <
4 -5 8 -1 648.61 225.90 138.81 <
4 5 8 0 90.72 155.52 123.59 <
4 -5 8 0 83.90 162.93 148.77 <
4 5 8 1 448.18 408.44 208.54 <
4 -5 8 1 526.30 322.77 192.73 <
4 5 8 2 117.64 267.26 185.44 <
4 -5 8 2 132.48 412.41 230.35 <
5 5 8 -2 92.76 109.43 83.42 <
5 -5 8 -2 86.87 -49.47 72.64 <
5 5 8 -1 50.66 189.11 165.53 <
5 -5 8 -1 52.21 -105.75 93.96 <
5 5 8 0 72.03 35.55 120.39 <
5 -5 8 0 72.04 127.56 117.01 <
-5 6 8 -2 36.02 125.54 116.77 <
-5 6 8 -1 175.51 398.55 199.07 <
-5 -6 8 -1 173.80 247.47 139.05 <
-5 6 8 0 254.75 414.30 227.56 <
-5 -6 8 0 244.52 167.31 132.12 <
-5 6 8 1 238.42 216.72 156.76 <
-5 -6 8 1 238.79 196.10 141.71 <
-5 6 8 2 6.70 131.88 134.37 <
-5 -6 8 2 6.40 36.20 96.45 <
-4 6 8 -2 36.05 -49.06 73.82 <
-4 -6 8 -2 34.34 32.11 71.69 <
-4 6 8 -1 35.18 113.28 104.10 <
-4 -6 8 -1 48.25 103.21 63.87 <
-4 6 8 0 814.79 1469.71 355.47 o
-4 -6 8 0 800.05 1132.30 206.41 o
-4 6 8 1 112.82 168.08 100.18 <
-4 -6 8 1 114.42 39.52 48.64 <
-4 6 8 2 118.42 141.48 138.57 <
-4 -6 8 2 117.21 133.36 75.95 <
-3 6 8 -2 52.43 180.82 116.12 <
-3 -6 8 -2 58.51 48.34 41.00 <
-3 6 8 -1 381.51 392.92 168.14 <
-3 -6 8 -1 376.85 302.80 88.22 o
-3 6 8 0 1193.51 1035.02 261.27 o
-3 -6 8 0 1143.59 831.87 163.70 o
-3 6 8 1 654.54 527.46 212.34 <
-3 -6 8 1 658.21 348.07 112.45 o
-3 6 8 2 20.88 46.80 90.53 <
-3 -6 8 2 20.26 -49.06 24.05 <
-2 6 8 -2 593.27 364.83 151.85 <
-2 -6 8 -2 589.15 289.30 96.87 <
-2 6 8 -1 17.66 23.40 6.10 o
-2 -6 8 -1 7.52 59.84 55.87 <
-2 6 8 0 620.09 956.05 234.49 o
-2 -6 8 0 666.70 822.33 151.73 o
-2 6 8 1 184.29 115.17 86.97 <
-2 -6 8 1 167.18 61.67 39.99 <
-2 6 8 2 153.69 76.31 73.11 <
-2 -6 8 2 152.34 69.14 73.17 <
-1 6 8 -2 125.76 28.38 36.02 <
-1 -6 8 -2 133.76 124.36 62.80 <
-1 6 8 -1 3738.49 4177.11 442.68 o
-1 -6 8 -1 3723.80 3761.21 367.97 o
-1 6 8 0 3876.97 4168.40 436.17 o
-1 -6 8 0 3740.25 4121.83 302.21 o
-1 6 8 1 549.63 375.26 136.50 <
-1 -6 8 1 560.99 262.10 80.51 o
-1 6 8 2 89.17 -3.14 49.94 <
-1 -6 8 2 95.45 178.62 132.18 <
0 6 8 -2 167.78 110.55 79.09 <
0 -6 8 -2 171.05 77.37 59.54 <
0 6 8 -1 2.58 30.69 37.27 <
0 -6 8 -1 7.36 25.95 33.36 <
0 6 8 0 6993.46 7844.06 346.05 o
0 -6 8 0 7143.54 9221.99 717.17 o
0 6 8 1 1377.38 958.00 132.89 o
0 -6 8 1 1310.35 1179.46 263.88 o
0 6 8 2 47.13 86.91 39.87 <
0 -6 8 2 46.48 186.27 112.92 <
1 6 8 -2 127.16 81.94 45.68 <
1 -6 8 -2 118.57 48.70 68.96 <
1 6 8 -1 270.80 271.58 67.95 o
1 -6 8 -1 283.12 222.88 123.88 <
1 6 8 0 3841.37 4124.80 259.67 o
1 -6 8 0 3715.42 4730.11 501.57 o
1 6 8 1 316.77 63.04 36.97 <
1 -6 8 1 317.26 212.10 97.76 <
1 6 8 2 34.73 33.83 38.57 <
1 -6 8 2 32.34 8.65 43.01 <
2 6 8 -2 250.30 102.85 49.94 <
2 -6 8 -2 270.90 117.07 56.76 <
2 6 8 -1 13.30 41.23 43.19 <
2 -6 8 -1 18.47 60.25 49.29 <
2 6 8 0 884.18 1108.37 144.68 o
2 -6 8 0 928.91 863.15 155.76 o
2 6 8 1 760.98 666.39 170.33 o
2 -6 8 1 738.63 672.44 212.87 o
2 6 8 2 257.36 229.10 107.47 <
2 -6 8 2 265.44 158.90 107.18 <
3 6 8 -2 65.82 91.53 88.51 <
3 -6 8 -2 54.68 2.90 20.38 <
3 6 8 -1 108.39 239.00 113.10 <
3 -6 8 -1 101.51 48.76 53.50 <
3 6 8 0 1348.53 1400.51 235.80 o
3 -6 8 0 1285.79 1412.47 338.00 o
3 6 8 1 71.48 42.36 58.83 <
3 -6 8 1 67.01 143.97 78.86 <
3 6 8 2 93.71 34.36 51.96 <
3 -6 8 2 82.60 157.89 91.36 <
4 6 8 -2 180.51 186.33 117.43 <
4 -6 8 -2 202.88 160.38 160.14 <
4 6 8 -1 4.70 -42.72 38.09 <
4 -6 8 -1 4.91 19.25 96.63 <
4 6 8 0 1173.56 1057.42 293.74 o
4 -6 8 0 1176.91 1997.41 420.58 o
4 6 8 1 143.55 163.87 150.66 <
4 -6 8 1 138.27 261.45 167.01 <
4 6 8 2 47.67 153.45 116.00 <
4 -6 8 2 46.48 136.62 123.59 <
5 6 8 -2 15.87 55.16 122.16 <
5 -6 8 -2 14.61 -52.91 111.97 <
5 6 8 -1 34.02 167.78 161.80 <
5 -6 8 -1 29.47 185.74 159.43 <
5 6 8 0 250.74 99.95 131.64 <
5 -6 8 0 234.99 222.47 178.62 <
-5 7 8 -1 119.55 436.34 218.26 <
-5 7 8 0 59.39 -75.06 99.24 <
-5 -7 8 0 58.19 49.11 56.70 <
-5 7 8 1 13.05 162.93 129.27 <
-5 -7 8 1 10.64 268.32 163.46 <
-5 7 8 2 241.25 123.76 146.93 <
-5 -7 8 2 238.91 296.46 155.82 <
-4 7 8 -2 81.70 -36.08 26.54 <
-4 -7 8 -2 75.45 35.25 75.18 <
-4 7 8 -1 422.92 681.21 239.83 <
-4 -7 8 -1 416.84 366.20 107.71 o
-4 7 8 0 63.97 229.10 146.10 <
-4 -7 8 0 67.63 147.40 80.81 <
-4 7 8 1 9.22 -21.80 94.62 <
-4 -7 8 1 13.67 -65.94 43.31 <
-4 7 8 2 121.40 89.88 87.21 <
-4 -7 8 2 131.09 -15.70 56.64 <
-3 7 8 -2 159.32 171.52 95.27 <
-3 -7 8 -2 156.26 114.88 73.64 <
-3 7 8 -1 544.66 634.52 216.48 <
-3 -7 8 -1 505.33 607.92 130.40 o
-3 7 8 0 24.03 96.51 94.32 <
-3 -7 8 0 20.14 92.78 49.41 <
-3 7 8 1 102.64 172.35 125.72 <
-3 -7 8 1 104.74 39.69 31.93 <
-3 7 8 2 514.84 171.99 138.40 <
-3 -7 8 2 514.58 95.03 64.40 <
-2 7 8 -2 564.11 603.18 215.95 <
-2 -7 8 -2 590.14 394.28 108.06 o
-2 7 8 -1 235.22 228.10 113.69 <
-2 -7 8 -1 215.04 250.19 88.22 <
-2 7 8 0 1.26 -25.24 29.39 <
-2 -7 8 0 2.15 11.85 18.31 <
-2 7 8 1 12.55 60.37 65.05 <
-2 -7 8 1 7.72 12.86 30.81 <
-2 7 8 2 158.76 48.52 12.92 o
-2 -7 8 2 161.35 56.88 54.45 <
-1 7 8 -2 15.78 -1.13 28.14 <
-1 -7 8 -2 15.86 58.12 51.01 <
-1 7 8 -1 280.29 519.88 125.84 o
-1 -7 8 -1 300.35 544.65 122.22 o
-1 7 8 0 45.96 97.22 68.72 <
-1 -7 8 0 43.03 160.44 69.50 <
-1 7 8 1 265.92 215.36 100.48 <
-1 -7 8 1 261.13 208.01 77.20 <
-1 7 8 2 300.96 214.59 114.05 <
-1 -7 8 2 308.77 243.97 135.43 <
0 7 8 -2 181.14 65.05 44.38 <
0 -7 8 -2 186.93 34.07 42.78 <
0 7 8 -1 287.83 234.97 72.75 o
0 -7 8 -1 254.06 216.19 60.13 o
0 7 8 0 756.45 771.55 120.33 o
0 -7 8 0 813.35 712.66 184.61 o
0 7 8 1 210.78 125.48 49.11 <
0 -7 8 1 202.15 168.20 94.56 <
0 7 8 2 86.38 82.17 55.39 <
0 -7 8 2 84.29 21.51 81.94 <
1 7 8 -2 156.03 105.46 53.50 <
1 -7 8 -2 154.41 182.71 108.54 <
1 7 8 -1 203.88 129.27 50.95 <
1 -7 8 -1 220.17 155.05 117.84 <
1 7 8 0 6.32 31.87 53.08 <
1 -7 8 0 8.03 50.83 58.12 <
1 7 8 1 62.06 7.76 39.69 <
1 -7 8 1 93.18 70.44 58.24 <
1 7 8 2 81.51 47.28 51.13 <
1 -7 8 2 82.49 42.54 31.99 <
2 7 8 -2 174.88 15.52 20.14 <
2 -7 8 -2 174.73 -35.25 51.07 <
2 7 8 -1 184.49 242.67 60.61 o
2 -7 8 -1 172.87 292.61 89.76 o
2 7 8 0 22.54 23.58 56.70 <
2 -7 8 0 30.98 60.55 45.80 <
2 7 8 1 261.68 161.50 74.71 <
2 -7 8 1 247.84 112.51 62.74 <
2 7 8 2 131.32 137.21 106.35 <
2 -7 8 2 135.42 166.01 100.66 <
3 7 8 -2 286.35 281.48 103.68 <
3 -7 8 -2 275.32 188.10 72.81 <
3 7 8 -1 444.55 298.18 114.17 <
3 -7 8 -1 416.40 143.67 69.55 <
3 7 8 0 61.25 95.50 80.34 <
3 -7 8 0 66.56 190.83 103.09 <
3 7 8 1 1192.35 1163.58 215.30 o
3 -7 8 1 1109.18 1305.77 337.23 o
3 7 8 2 72.31 148.65 103.32 <
3 -7 8 2 66.39 294.21 163.70 <
4 7 8 -2 158.68 153.80 99.18 <
4 -7 8 -2 159.47 245.81 152.32 <
4 7 8 -1 108.09 122.99 89.99 <
4 -7 8 -1 105.35 43.72 46.33 <
4 7 8 0 47.51 158.54 93.19 <
4 -7 8 0 50.93 292.55 180.99 <
4 7 8 1 77.52 -60.96 82.11 <
4 -7 8 1 72.64 132.00 123.94 <
4 7 8 2 155.06 328.81 185.50 <
4 -7 8 2 153.96 219.80 161.68 <
5 7 8 -2 130.01 206.53 150.60 <
5 -7 8 -2 124.67 261.10 178.92 <
5 7 8 -1 220.52 219.68 162.27 <
5 -7 8 -1 207.02 47.10 107.12 <
5 7 8 0 13.55 -41.77 53.62 <
-5 -8 8 0 295.90 217.19 156.76 <
-5 8 8 1 251.64 239.88 170.98 <
-5 -8 8 1 243.48 184.43 124.42 <
-5 8 8 2 5.41 -15.29 32.47 <
-5 -8 8 2 4.70 50.77 98.94 <
-4 8 8 -2 32.29 129.10 107.24 <
-4 -8 8 -2 33.21 -6.28 48.52 <
-4 8 8 -1 45.31 165.95 117.48 <
-4 -8 8 -1 37.43 178.68 101.43 <
-4 8 8 0 184.98 472.78 215.42 <
-4 -8 8 0 196.97 356.95 116.54 o
-4 8 8 1 44.99 4.92 19.61 <
-4 -8 8 1 37.76 25.00 55.81 <
-4 8 8 2 197.24 107.65 98.53 <
-4 -8 8 2 196.84 40.17 24.71 <
-3 8 8 -2 157.30 286.93 156.53 <
-3 -8 8 -2 148.22 201.14 78.74 <
-3 8 8 -1 284.98 338.00 193.02 <
-3 -8 8 -1 299.94 342.38 102.44 o
-3 8 8 0 1594.84 1836.61 347.30 o
-3 -8 8 0 1590.67 1545.66 222.53 o
-3 8 8 1 570.64 412.94 185.32 <
-3 -8 8 1 550.92 291.43 102.08 <
-3 8 8 2 20.90 82.71 91.36 <
-3 -8 8 2 14.15 16.35 53.02 <
-2 8 8 -2 354.30 239.65 137.51 <
-2 -8 8 -2 340.23 100.60 53.38 <
-2 8 8 -1 167.83 229.99 142.25 <
-2 -8 8 -1 146.97 247.53 93.37 <
-2 8 8 0 983.20 1334.68 281.30 o
-2 -8 8 0 1044.92 1306.54 191.96 o
-2 8 8 1 27.64 111.62 77.32 <
-2 -8 8 1 20.66 174.83 81.29 <
-2 8 8 2 138.71 -22.51 60.19 <
-2 -8 8 2 143.68 121.39 63.04 <
-1 8 8 -2 552.80 308.73 88.51 o
-1 -8 8 -2 546.74 525.03 115.35 o
-1 8 8 -1 973.71 1081.05 165.53 o
-1 -8 8 -1 970.34 1249.43 163.64 o
-1 8 8 0 3666.40 4741.19 487.30 o
-1 -8 8 0 3678.20 4925.92 320.16 o
-1 8 8 1 454.69 513.84 178.33 <
-1 -8 8 1 456.82 400.44 106.35 o
-1 8 8 2 34.61 81.05 56.58 <
-1 -8 8 2 32.84 -57.17 69.79 <
0 8 8 -2 151.09 101.55 50.12 <
0 -8 8 -2 145.51 66.95 48.23 <
0 8 8 -1 458.83 304.58 85.02 o
0 -8 8 -1 433.77 305.23 72.58 o
0 8 8 0 1419.36 1415.38 171.28 o
0 -8 8 0 1537.76 1567.58 277.21 o
0 8 8 1 29.32 123.17 68.13 <
0 -8 8 1 29.68 221.58 124.71 <
0 8 8 2 110.12 180.70 69.32 <
0 -8 8 2 110.93 148.23 71.04 <
1 8 8 -2 161.17 152.68 63.10 <
1 -8 8 -2 149.83 165.24 102.55 <
1 8 8 -1 39.94 74.53 36.26 <
1 -8 8 -1 42.64 12.62 67.07 <
1 8 8 0 4757.25 6351.42 366.20 o
1 -8 8 0 4769.32 5826.27 563.37 o
1 8 8 1 129.82 121.45 75.30 <
1 -8 8 1 108.24 311.16 151.91 <
1 8 8 2 41.28 -23.99 49.23 <
1 -8 8 2 45.55 18.37 56.58 <
2 8 8 -2 114.01 -10.31 41.29 <
2 -8 8 -2 114.21 -4.98 47.46 <
2 8 8 -1 176.93 172.46 79.80 <
2 -8 8 -1 194.73 115.17 64.58 <
2 8 8 0 927.01 913.63 171.63 o
2 -8 8 0 981.96 963.45 165.59 o
2 8 8 1 39.36 13.98 63.45 <
2 -8 8 1 44.75 71.75 70.80 <
2 8 8 2 19.81 5.63 36.97 <
2 -8 8 2 24.09 111.38 74.95 <
3 8 8 -2 158.25 152.91 89.34 <
3 -8 8 -2 153.20 30.27 49.88 <
3 8 8 -1 12.88 79.27 72.87 <
3 -8 8 -1 13.79 52.67 47.10 <
3 8 8 0 2152.84 2104.88 287.70 o
3 -8 8 0 2163.42 2329.48 422.13 o
3 8 8 1 42.71 2.90 95.80 <
3 -8 8 1 58.45 126.31 119.14 <
3 8 8 2 10.85 25.48 43.72 <
3 -8 8 2 5.93 244.03 143.97 <
4 8 8 -2 71.22 62.44 61.14 <
4 -8 8 -2 71.41 12.86 20.26 <
4 8 8 -1 50.87 125.84 79.69 <
4 -8 8 -1 60.46 139.94 75.30 <
4 8 8 0 193.31 276.38 113.87 <
4 -8 8 0 192.71 583.63 234.85 <
4 8 8 1 36.88 28.85 68.13 <
4 -8 8 1 36.40 153.68 93.96 <
4 8 8 2 20.65 53.20 70.74 <
4 -8 8 2 24.39 -148.29 100.84 <
5 8 8 -2 72.74 366.08 148.05 <
5 -8 8 -2 71.87 183.25 150.07 <
5 8 8 -1 13.64 68.19 107.35 <
5 -8 8 -1 14.25 10.90 42.66 <
5 8 8 0 511.15 191.96 117.66 <
-5 -9 8 1 130.38 185.74 123.65 <
-5 -9 8 2 48.91 79.63 98.70 <
-4 9 8 -2 88.22 224.30 155.40 <
-4 -9 8 -2 80.34 183.48 97.46 <
-4 9 8 -1 80.61 105.58 80.34 <
-4 -9 8 -1 87.24 196.04 107.89 <
-4 9 8 0 82.29 335.15 181.59 <
-4 -9 8 0 88.12 -3.67 68.49 <
-4 -9 8 1 136.36 -28.20 34.66 <
-4 9 8 2 96.43 50.77 83.89 <
-4 -9 8 2 98.29 7.52 48.76 <
-3 9 8 -2 135.92 333.61 166.48 <
-3 -9 8 -2 142.35 126.73 61.56 <
-3 9 8 -1 882.01 817.47 245.69 o
-3 -9 8 -1 862.59 708.10 150.48 o
-3 9 8 0 90.57 64.28 77.97 <
-3 -9 8 0 97.70 54.62 58.42 <
-3 9 8 1 136.98 28.02 37.86 <
-3 -9 8 1 147.91 90.41 71.21 <
-3 -9 8 2 13.82 24.76 39.22 <
-2 9 8 -2 72.37 177.20 98.11 <
-2 -9 8 -2 71.44 58.00 47.04 <
-2 9 8 -1 266.50 485.40 171.81 <
-2 -9 8 -1 268.19 382.90 103.56 o
-2 9 8 0 471.06 739.92 221.40 o
-2 -9 8 0 482.81 629.54 133.78 o
-2 9 8 1 565.17 551.81 195.98 <
-2 -9 8 1 535.74 472.54 98.11 o
-2 9 8 2 58.87 6.64 59.78 <
-2 -9 8 2 59.29 -46.51 40.46 <
-1 9 8 -2 295.21 215.06 71.21 o
-1 -9 8 -2 292.19 289.65 91.30 o
-1 9 8 -1 6324.00 4870.52 357.84 o
-1 -9 8 -1 6263.82 5222.68 332.37 o
-1 9 8 0 376.65 503.59 122.99 o
-1 -9 8 0 427.25 560.29 118.19 o
-1 9 8 1 195.07 151.67 105.75 <
-1 -9 8 1 215.60 153.21 118.73 <
-1 9 8 2 110.40 51.37 75.83 <
-1 -9 8 2 105.64 -45.15 81.05 <
0 9 8 -2 244.63 251.20 74.65 o
0 -9 8 -2 250.49 193.55 62.33 o
0 9 8 -1 343.14 280.35 76.78 o
0 -9 8 -1 338.90 318.74 111.92 <
0 9 8 0 242.03 339.71 87.27 o
0 -9 8 0 232.11 436.29 147.11 <
0 9 8 1 1263.37 1448.26 160.26 o
0 -9 8 1 1250.72 1580.79 289.59 o
0 9 8 2 55.22 65.41 44.02 <
0 -9 8 2 48.98 -24.35 76.90 <
1 9 8 -2 35.15 18.96 22.57 <
1 -9 8 -2 40.92 26.78 31.04 <
1 9 8 -1 27.57 66.36 46.92 <
1 -9 8 -1 47.64 76.13 83.95 <
1 9 8 0 208.98 413.06 83.83 o
1 -9 8 0 251.41 501.81 180.52 <
1 9 8 1 3358.09 3635.67 286.81 o
1 -9 8 1 3415.47 3201.81 432.49 o
1 9 8 2 193.16 53.20 99.83 <
1 -9 8 2 191.60 88.34 54.15 <
2 9 8 -2 195.93 81.70 81.34 <
2 -9 8 -2 218.80 79.03 68.43 <
2 9 8 -1 530.30 299.01 100.12 <
2 -9 8 -1 532.64 287.05 87.21 o
2 9 8 0 322.72 221.34 89.34 <
2 -9 8 0 290.44 317.91 103.32 o
2 9 8 1 771.34 1086.27 258.19 o
2 -9 8 1 770.50 1030.99 184.43 o
2 9 8 2 75.93 156.47 89.05 <
2 -9 8 2 70.12 250.25 150.60 <
3 9 8 -2 86.03 45.50 74.53 <
3 -9 8 -2 88.72 68.01 46.92 <
3 9 8 -1 97.15 85.20 69.44 <
3 -9 8 -1 114.08 -45.09 60.31 <
3 9 8 0 28.39 74.53 67.78 <
3 -9 8 0 39.85 279.76 142.84 <
3 9 8 1 30.15 29.39 59.25 <
3 -9 8 1 51.43 47.75 2.96 o
3 9 8 2 31.62 -103.03 118.02 <
3 -9 8 2 31.12 -32.47 16.71 <
4 9 8 -2 104.61 17.24 35.73 <
4 -9 8 -2 119.97 97.28 83.18 <
4 9 8 -1 163.88 234.08 109.43 <
4 -9 8 -1 169.76 142.13 121.57 <
4 9 8 0 58.43 -73.64 78.09 <
4 -9 8 0 50.83 -56.94 23.52 <
4 9 8 1 313.94 252.86 111.62 <
4 -9 8 1 314.32 359.68 192.43 <
4 9 8 2 10.52 173.59 142.84 <
4 -9 8 2 9.85 162.21 142.07 <
5 9 8 -2 31.93 136.74 89.05 <
5 -9 8 -2 38.61 85.97 75.78 <
5 9 8 -1 110.51 118.08 74.35 <
5 -9 8 -1 120.79 57.71 122.99 <
5 9 8 0 4.95 72.40 117.25 <
-5 -10 8 2 78.76 17.12 25.48 <
-4 10 8 -2 38.20 16.59 118.19 <
-4 -10 8 -2 44.96 -211.51 143.37 <
-4 10 8 -1 115.41 135.67 108.95 <
-4 -10 8 -1 119.74 -6.16 41.18 <
-4 10 8 0 150.22 31.76 56.58 <
-4 -10 8 0 153.87 64.70 61.26 <
-4 10 8 1 157.65 194.03 128.68 <
-4 -10 8 1 146.88 -96.45 114.64 <
-4 10 8 2 160.48 138.22 99.89 <
-4 -10 8 2 157.00 109.01 94.85 <
-3 10 8 -2 126.15 503.11 204.75 <
-3 -10 8 -2 132.51 249.96 80.04 o
-3 10 8 -1 273.29 179.81 123.35 <
-3 -10 8 -1 268.78 93.37 57.47 <
-3 10 8 0 1256.31 1319.22 312.88 o
-3 -10 8 0 1271.98 810.54 160.26 o
-3 10 8 1 51.55 -5.57 22.63 <
-3 -10 8 1 57.08 -34.60 58.00 <
-3 10 8 2 173.01 152.68 126.37 <
-3 -10 8 2 179.21 -12.32 49.29 <
-2 10 8 -2 323.67 477.46 187.93 <
-2 -10 8 -2 351.76 311.45 98.94 o
-2 10 8 -1 95.06 181.11 116.30 <
-2 -10 8 -1 101.74 137.15 75.30 <
-2 10 8 0 369.89 230.94 113.46 <
-2 -10 8 0 385.83 130.99 73.41 <
-2 10 8 1 397.37 244.86 116.71 <
-2 -10 8 1 376.02 198.29 69.79 <
-2 10 8 2 42.58 65.88 42.66 <
-2 -10 8 2 43.55 104.81 57.88 <
-1 10 8 -2 354.72 126.31 97.93 <
-1 -10 8 -2 369.96 224.60 85.14 <
-1 10 8 -1 2382.85 2320.00 262.70 o
-1 -10 8 -1 2362.19 2551.00 240.66 o
-1 10 8 0 2449.91 2790.35 287.46 o
-1 -10 8 0 2511.28 2864.52 250.02 o
-1 10 8 1 14.16 55.39 18.07 o
-1 -10 8 1 15.81 17.30 53.91 <
-1 10 8 2 206.42 132.12 89.22 <
-1 -10 8 2 213.19 201.97 91.59 <
0 10 8 -2 173.35 285.51 82.00 o
0 -10 8 -2 184.69 180.17 62.80 <
0 10 8 -1 121.82 196.70 69.20 <
0 -10 8 -1 140.20 183.72 89.99 <
0 10 8 0 724.85 370.88 83.54 o
0 -10 8 0 755.32 473.14 149.83 o
0 10 8 1 193.93 206.59 75.66 <
0 -10 8 1 180.04 122.70 73.05 <
0 10 8 2 40.70 32.76 44.85 <
0 -10 8 2 36.90 4.09 44.14 <
1 10 8 -2 14.83 56.76 51.37 <
1 -10 8 -2 16.73 22.04 48.64 <
1 10 8 -1 106.10 127.20 43.49 <
1 -10 8 -1 106.77 105.87 75.42 <
1 10 8 0 3012.68 3987.76 295.58 o
1 -10 8 0 3151.27 3667.66 445.64 o
1 10 8 1 238.07 287.82 88.34 o
1 -10 8 1 263.94 523.73 202.62 <
1 10 8 2 23.61 9.60 74.77 <
1 -10 8 2 22.06 14.28 33.89 <
2 10 8 -2 372.63 172.46 92.48 <
2 -10 8 -2 379.95 206.00 102.97 <
2 10 8 -1 84.12 72.93 47.10 <
2 -10 8 -1 101.35 -33.65 31.93 <
2 10 8 0 232.37 93.13 74.71 <
2 -10 8 0 253.76 169.38 78.74 <
2 10 8 1 77.63 109.66 80.34 <
2 -10 8 1 68.16 194.98 95.80 <
2 10 8 2 82.40 -15.29 38.39 <
2 -10 8 2 77.70 73.35 64.04 <
3 10 8 -2 21.21 -47.87 27.31 <
3 -10 8 -2 28.42 37.62 43.96 <
3 10 8 -1 67.57 7.35 31.40 <
3 -10 8 -1 58.84 95.92 56.40 <
3 10 8 0 1393.44 1093.56 205.23 o
3 -10 8 0 1428.41 1050.37 200.72 o
3 10 8 1 84.63 14.75 85.37 <
3 -10 8 1 78.89 -24.17 43.96 <
3 10 8 2 4.27 -42.89 105.34 <
3 -10 8 2 2.94 -140.18 125.60 <
4 10 8 -2 193.46 99.18 79.69 <
4 -10 8 -2 198.38 171.75 77.49 <
4 10 8 -1 13.34 286.33 118.14 <
4 -10 8 -1 13.51 -64.70 125.07 <
4 10 8 0 88.23 -22.99 115.29 <
4 -10 8 0 95.80 97.64 71.21 <
4 10 8 1 25.86 139.70 86.79 <
4 -10 8 1 22.21 114.34 95.39 <
4 10 8 2 26.34 68.01 66.89 <
4 -10 8 2 23.11 57.05 98.23 <
5 10 8 -2 8.86 55.45 38.63 <
5 10 8 -1 31.33 159.90 146.99 <
5 -10 8 -1 25.95 68.67 70.03 <
-4 11 8 -2 80.40 106.29 91.89 <
-4 -11 8 -2 69.77 126.55 95.39 <
-4 11 8 -1 74.00 180.88 134.43 <
-4 -11 8 -1 67.76 98.88 98.53 <
-4 11 8 0 410.71 808.23 281.48 <
-4 -11 8 0 424.34 664.62 227.09 <
-4 11 8 1 66.68 142.66 143.32 <
-4 -11 8 1 72.83 -69.91 79.92 <
-4 11 8 2 72.89 54.80 89.34 <
-4 -11 8 2 66.83 73.52 68.49 <
-3 11 8 -2 72.67 21.92 83.06 <
-3 -11 8 -2 73.67 -30.16 76.37 <
-3 -11 8 -1 223.10 97.76 59.66 <
-3 11 8 0 171.43 230.17 151.43 <
-3 -11 8 0 177.15 75.54 55.28 <
-3 11 8 1 119.96 121.99 92.48 <
-3 -11 8 1 138.32 95.33 46.45 <
-3 11 8 2 158.57 177.97 121.33 <
-3 -11 8 2 155.59 -53.91 57.05 <
-2 11 8 -2 538.03 565.74 213.17 <
-2 -11 8 -2 520.07 352.98 106.05 o
-2 11 8 -1 2.15 211.33 141.89 <
-2 -11 8 -1 5.21 42.60 38.69 <
-2 11 8 0 949.87 1092.73 276.80 o
-2 -11 8 0 960.72 828.73 153.45 o
-2 11 8 1 200.97 121.45 92.36 <
-2 -11 8 1 204.71 -4.44 30.81 <
-2 11 8 2 103.57 141.71 114.17 <
-1 11 8 -2 14.29 77.37 62.50 <
-1 -11 8 -2 12.47 85.25 45.62 <
-1 11 8 -1 1315.12 1566.99 226.67 o
-1 -11 8 -1 1243.14 1290.96 242.73 o
-1 11 8 0 1151.28 1336.70 206.12 o
-1 -11 8 0 1171.21 1235.33 213.88 o
-1 11 8 1 58.40 175.72 95.15 <
-1 11 8 2 100.81 71.33 77.85 <
-1 -11 8 2 94.08 -8.18 42.24 <
0 11 8 -2 191.60 75.72 45.50 <
0 -11 8 -2 186.73 50.30 36.08 <
0 11 8 -1 21.92 132.65 57.65 <
0 -11 8 -1 32.25 41.23 39.10 <
0 11 8 0 3528.89 3997.48 270.99 o
0 -11 8 0 3613.62 3719.38 417.03 o
0 11 8 1 1295.69 1223.54 159.61 o
0 -11 8 1 1234.08 1171.29 245.16 o
0 11 8 2 72.95 4.44 38.87 <
0 -11 8 2 67.22 9.89 18.72 <
1 11 8 -2 99.83 161.74 64.16 <
1 -11 8 -2 100.33 66.89 72.52 <
1 11 8 -1 378.10 403.11 85.14 o
1 -11 8 -1 371.69 344.04 142.37 <
1 11 8 0 830.84 969.91 176.32 o
1 -11 8 0 843.85 1024.89 237.40 o
1 11 8 1 159.49 74.65 78.86 <
1 -11 8 1 148.80 277.09 139.76 <
1 11 8 2 32.14 -27.37 38.15 <
1 -11 8 2 31.66 36.91 27.37 <
2 11 8 -2 418.27 78.86 44.49 <
2 -11 8 -2 405.89 -99.06 129.33 <
2 11 8 -1 102.85 85.14 67.95 <
2 -11 8 -1 94.57 159.37 65.35 <
2 11 8 0 992.74 735.12 153.74 o
2 -11 8 0 1039.24 721.02 157.06 o
2 11 8 1 879.17 622.61 152.02 o
2 -11 8 1 822.85 682.27 152.79 o
2 11 8 2 167.51 28.73 18.43 <
2 -11 8 2 151.56 0.47 39.87 <
3 11 8 -2 110.40 131.47 76.96 <
3 -11 8 -2 106.19 96.04 71.86 <
3 11 8 -1 471.55 564.49 145.63 o
3 -11 8 -1 448.83 540.08 151.14 o
3 11 8 0 196.64 125.30 71.81 <
3 -11 8 0 204.56 242.08 100.07 <
3 11 8 1 168.04 75.30 88.81 <
3 -11 8 1 201.91 285.80 175.78 <
3 11 8 2 92.75 16.23 24.71 <
3 -11 8 2 95.42 84.01 67.07 <
4 11 8 -2 293.05 146.04 84.25 <
4 -11 8 -2 281.87 85.97 40.46 <
4 11 8 -1 60.74 49.71 56.16 <
4 -11 8 -1 48.01 59.66 74.65 <
4 11 8 0 330.25 413.24 138.22 <
4 -11 8 0 342.37 370.88 182.06 <
4 11 8 1 214.52 339.54 175.90 <
4 -11 8 1 190.59 202.50 145.15 <
4 -11 8 2 102.04 103.56 130.40 <
5 11 8 -2 45.38 72.81 71.57 <
5 -11 8 -2 41.73 95.68 135.32 <
-4 12 8 -2 33.14 93.67 105.75 <
-4 -12 8 -2 25.39 47.63 96.63 <
-4 12 8 -1 10.85 -20.80 76.49 <
-4 -12 8 -1 16.88 83.24 74.18 <
-4 12 8 0 1664.14 2636.07 502.99 o
-4 -12 8 0 1675.38 2176.15 413.53 o
-4 12 8 1 88.89 196.34 140.65 <
-4 -12 8 1 76.50 193.14 138.46 <
-4 12 8 2 80.55 -35.01 66.06 <
-4 -12 8 2 78.15 -25.65 26.60 <
-3 12 8 -2 34.51 -134.43 95.27 <
-3 -12 8 -2 38.65 24.94 49.83 <
-3 12 8 -1 136.16 93.49 92.60 <
-3 -12 8 -1 123.07 122.76 111.97 <
-3 12 8 0 53.21 104.33 96.81 <
-3 -12 8 0 66.32 -45.92 51.43 <
-3 12 8 1 199.98 161.56 161.33 <
-3 -12 8 1 193.05 138.10 59.42 <
-3 12 8 2 13.70 56.82 62.27 <
-3 -12 8 2 15.80 -98.88 70.38 <
-2 12 8 -2 488.27 577.47 222.05 <
-2 -12 8 -2 504.39 513.66 122.93 o
-2 12 8 -1 15.14 118.02 91.06 <
-2 -12 8 -1 29.61 41.89 46.74 <
-2 12 8 0 3065.71 2955.82 454.89 o
-2 -12 8 0 3045.72 2328.83 257.30 o
-2 12 8 1 83.61 104.51 70.09 <
-2 -12 8 1 76.44 66.89 55.45 <
-2 12 8 2 101.75 97.34 95.92 <
-1 12 8 -2 247.33 130.40 71.92 <
-1 -12 8 -2 225.00 203.39 104.75 <
-1 12 8 -1 748.71 751.83 154.69 o
-1 -12 8 -1 707.66 686.01 172.88 o
-1 12 8 0 165.01 253.57 94.85 <
-1 12 8 1 142.22 160.44 97.81 <
-1 12 8 2 52.79 106.11 65.17 <
0 12 8 -2 139.75 190.18 70.56 <
0 -12 8 -2 129.74 92.66 71.21 <
0 12 8 -1 12.94 87.15 59.01 <
0 -12 8 -1 20.60 68.90 73.29 <
0 12 8 0 13563.10 13663.00 652.71 o
0 -12 8 0 13587.50 14545.90 800.94 o
0 12 8 1 205.36 288.64 84.54 o
0 -12 8 1 205.88 240.12 125.78 <
0 12 8 2 119.93 243.74 71.09 o
0 -12 8 2 119.95 48.94 66.65 <
1 12 8 -2 217.63 269.45 77.73 o
1 -12 8 -2 201.78 173.59 103.15 <
1 12 8 -1 160.98 169.86 59.36 <
1 -12 8 -1 149.04 161.92 73.23 <
1 12 8 0 162.00 135.14 62.44 <
1 -12 8 0 220.39 229.40 126.96 <
1 12 8 1 119.91 91.59 75.89 <
1 -12 8 1 115.75 356.18 141.95 <
1 12 8 2 106.50 107.18 81.82 <
1 -12 8 2 103.57 148.47 71.39 <
2 12 8 -2 287.99 81.23 51.25 <
2 -12 8 -2 261.23 172.23 68.01 <
2 12 8 -1 53.38 70.21 55.75 <
2 -12 8 -1 53.10 16.35 65.05 <
2 12 8 0 3007.82 2258.74 277.21 o
2 -12 8 0 2986.00 1927.38 246.16 o
2 12 8 1 83.06 91.30 49.65 <
2 -12 8 1 85.76 116.06 70.15 <
2 12 8 2 161.43 119.32 87.80 <
2 -12 8 2 154.40 62.56 53.56 <
3 12 8 -2 195.04 121.93 73.88 <
3 -12 8 -2 197.45 135.79 64.76 <
3 12 8 -1 84.12 145.33 74.12 <
3 -12 8 -1 83.85 150.07 70.09 <
3 12 8 0 87.56 218.85 135.14 <
3 -12 8 0 111.50 40.17 52.14 <
3 12 8 1 31.35 -25.06 38.81 <
3 -12 8 1 26.27 16.35 38.27 <
3 12 8 2 44.10 46.98 46.45 <
3 -12 8 2 42.45 -68.19 121.93 <
4 12 8 -2 131.73 182.24 96.33 <
4 -12 8 -2 122.47 206.71 97.70 <
4 12 8 -1 13.55 54.39 73.35 <
4 -12 8 -1 13.57 -45.15 73.05 <
4 12 8 0 1715.90 2937.04 521.54 o
4 -12 8 0 1725.26 2426.46 483.39 o
4 12 8 1 12.62 217.90 149.95 <
4 -12 8 1 8.72 212.28 182.18 <
5 12 8 -2 38.59 28.26 29.68 <
5 -12 8 -2 44.31 145.27 134.07 <
-4 13 8 -2 37.38 170.21 154.81 <
-4 -13 8 -2 35.73 109.13 86.20 <
-4 13 8 -1 655.36 1005.75 306.42 o
-4 -13 8 -1 618.87 793.12 252.51 o
-4 13 8 0 413.06 764.62 278.51 <
-4 -13 8 0 416.16 423.84 183.07 <
-4 13 8 1 71.62 153.33 151.96 <
-4 -13 8 1 69.75 323.66 167.72 <
-4 13 8 2 93.17 172.17 156.41 <
-4 -13 8 2 87.07 119.44 92.25 <
-3 13 8 -2 57.73 134.49 124.83 <
-3 -13 8 -2 61.96 148.82 102.97 <
-3 13 8 -1 46.62 142.78 117.72 <
-3 -13 8 -1 61.17 12.03 65.53 <
-3 13 8 0 207.42 158.78 129.21 <
-3 -13 8 0 169.88 173.00 113.28 <
-3 13 8 1 268.13 -1.01 49.71 <
-3 -13 8 1 273.60 60.37 50.12 <
-3 13 8 2 23.71 -1.96 56.76 <
-3 -13 8 2 25.53 34.24 27.31 <
-2 13 8 -2 253.15 512.95 218.32 <
-2 -13 8 -2 262.48 360.21 110.91 o
-2 13 8 -1 1258.74 1556.68 351.50 o
-2 -13 8 -1 1210.49 981.52 167.78 o
-2 13 8 0 1047.21 1421.24 324.84 o
-2 -13 8 0 1094.55 1058.13 172.52 o
-2 13 8 1 19.52 116.00 91.89 <
-2 -13 8 1 17.88 26.25 43.49 <
-2 13 8 2 91.63 13.57 15.46 <
-1 13 8 -2 286.38 356.95 112.80 o
-1 -13 8 -2 302.80 395.88 152.62 <
-1 13 8 -1 7.98 93.85 61.32 <
-1 -13 8 -1 15.32 43.37 40.94 <
-1 13 8 0 446.42 312.70 112.09 <
-1 13 8 1 397.98 584.75 147.58 o
-1 13 8 2 16.33 89.11 75.06 <
0 13 8 -2 65.35 162.45 67.36 <
0 13 8 -1 1339.08 1277.99 180.28 o
0 13 8 0 627.14 1142.67 162.51 o
0 13 8 1 443.40 398.72 91.59 o
0 13 8 2 175.25 63.57 51.13 <
1 13 8 -2 175.80 286.04 77.61 o
1 -13 8 -2 212.24 343.51 130.28 <
1 13 8 -1 35.68 45.50 41.06 <
1 -13 8 -1 24.12 34.07 26.31 <
1 13 8 0 439.51 190.48 72.93 <
1 -13 8 0 317.19 297.89 149.54 <
1 13 8 1 1031.38 850.59 156.29 o
1 -13 8 1 1081.93 1225.55 272.59 o
1 13 8 2 20.90 73.17 44.49 <
1 -13 8 2 20.24 52.02 66.06 <
2 13 8 -2 99.94 28.08 43.55 <
2 -13 8 -2 102.42 99.24 56.52 <
2 13 8 -1 126.08 51.13 63.81 <
2 -13 8 -1 114.48 73.52 48.23 <
2 13 8 0 406.08 550.33 142.60 o
2 -13 8 0 447.93 816.82 234.79 o
2 13 8 1 912.63 716.87 169.56 o
2 -13 8 1 847.37 608.98 148.88 o
2 13 8 2 200.31 215.12 106.76 <
2 -13 8 2 207.16 71.63 58.30 <
3 13 8 -2 124.91 138.57 82.17 <
3 -13 8 -2 155.56 71.92 60.49 <
3 13 8 -1 46.09 84.07 83.36 <
3 -13 8 -1 42.49 58.83 52.61 <
3 13 8 0 130.00 22.63 73.46 <
3 -13 8 0 100.11 62.68 94.85 <
3 13 8 1 208.12 417.80 198.71 <
3 -13 8 1 219.03 199.90 136.68 <
3 13 8 2 11.79 105.64 103.62 <
3 -13 8 2 13.56 -65.29 110.14 <
4 13 8 -2 112.26 75.24 98.35 <
4 -13 8 -2 115.57 61.26 74.53 <
4 13 8 -1 15.24 80.81 82.53 <
4 -13 8 -1 8.57 51.54 52.97 <
4 13 8 0 108.27 97.93 102.79 <
4 -13 8 0 111.45 248.36 161.74 <
4 -13 8 1 358.56 468.16 190.06 <
5 -13 8 -2 86.85 107.29 167.90 <
-4 -14 8 -2 33.61 67.72 86.02 <
-4 14 8 -1 171.47 217.49 163.58 <
-4 -14 8 -1 166.74 360.21 180.28 <
-4 14 8 0 20.00 87.33 130.34 <
-4 -14 8 0 15.85 145.21 123.47 <
-4 14 8 1 140.13 30.99 59.96 <
-4 -14 8 1 154.53 85.97 103.62 <
-4 14 8 2 73.22 -28.20 43.07 <
-4 -14 8 2 68.06 193.14 116.71 <
-3 14 8 -2 21.93 24.94 71.27 <
-3 -14 8 -2 25.07 101.49 99.89 <
-3 14 8 -1 80.91 298.30 172.05 <
-3 -14 8 -1 68.98 326.33 142.01 <
-3 14 8 0 589.89 578.89 229.81 <
-3 -14 8 0 580.17 363.77 164.64 <
-3 14 8 1 125.58 295.52 170.04 <
-3 -14 8 1 114.63 23.40 62.56 <
-3 14 8 2 155.58 349.61 209.32 <
-3 -14 8 2 156.01 162.81 71.75 <
-2 14 8 -2 591.14 1001.43 284.20 o
-2 -14 8 -2 597.10 466.68 126.31 o
-2 14 8 -1 73.34 263.88 165.47 <
-2 -14 8 -1 72.45 95.39 63.10 <
-2 14 8 0 470.50 530.43 197.70 <
-2 -14 8 0 409.73 513.78 134.66 o
-2 14 8 1 367.43 34.54 90.23 <
-2 14 8 2 155.19 45.03 82.00 <
-1 14 8 -2 25.57 41.41 16.94 <
-1 -14 8 -2 31.64 64.99 66.71 <
-1 14 8 -1 116.32 70.38 55.22 <
-1 -14 8 -1 137.37 88.87 61.67 <
-1 14 8 0 1455.16 1214.36 209.73 o
-1 14 8 1 96.23 183.01 83.54 <
-1 14 8 2 134.19 329.23 118.25 <
0 14 8 -2 18.51 41.35 33.41 <
0 14 8 -1 111.72 -48.76 32.70 <
0 14 8 0 398.60 682.86 121.45 o
0 14 8 1 181.22 229.99 108.48 <
0 14 8 2 189.49 179.22 91.71 <
1 14 8 -2 137.19 155.52 68.37 <
1 14 8 -1 14.05 9.06 43.01 <
1 14 8 0 1282.58 745.96 152.20 o
1 14 8 1 121.71 46.09 67.36 <
1 14 8 2 73.21 117.96 62.86 <
1 -14 8 2 80.46 245.57 171.87 <
2 14 8 -2 130.80 75.48 42.66 <
2 -14 8 -2 123.40 47.69 60.79 <
2 14 8 -1 45.98 -18.25 45.15 <
2 -14 8 -1 37.66 1.84 68.90 <
2 14 8 0 359.47 442.86 115.06 o
2 -14 8 0 306.27 228.57 91.06 <
2 14 8 1 80.71 146.28 79.92 <
2 -14 8 1 87.84 81.11 54.68 <
2 14 8 2 95.81 101.90 74.65 <
2 -14 8 2 95.98 88.57 66.36 <
3 14 8 -2 73.30 41.47 70.38 <
3 -14 8 -2 74.05 14.69 19.37 <
3 14 8 -1 42.45 29.39 17.24 <
3 -14 8 -1 47.57 -78.62 61.97 <
3 14 8 0 521.46 507.97 216.31 <
3 -14 8 0 518.24 256.30 99.95 <
3 14 8 1 18.85 246.99 148.59 <
3 -14 8 1 20.75 -35.01 74.89 <
3 14 8 2 1.60 20.74 93.67 <
3 -14 8 2 1.10 88.34 137.39 <
4 14 8 -2 185.05 50.48 64.99 <
4 -14 8 -2 179.93 -52.55 55.10 <
4 14 8 -1 38.48 32.94 88.39 <
4 -14 8 -1 30.92 30.27 65.17 <
4 14 8 0 4.03 -46.45 81.23 <
4 -14 8 0 5.05 -20.44 97.16 <
4 -14 8 1 7.71 115.23 136.03 <
-4 -15 8 -1 119.74 48.17 106.17 <
-4 -15 8 0 48.40 146.51 114.64 <
-4 15 8 1 91.12 319.87 196.16 <
-4 -15 8 1 97.53 49.71 108.83 <
-4 15 8 2 26.50 114.52 138.87 <
-4 -15 8 2 28.41 19.61 70.32 <
-3 15 8 -2 12.84 -162.10 139.88 <
-3 -15 8 -2 19.07 -2.07 45.56 <
-3 15 8 -1 10.02 131.64 133.12 <
-3 -15 8 -1 15.57 198.12 132.12 <
-3 15 8 0 621.38 1123.59 320.52 o
-3 -15 8 0 620.94 786.60 232.84 o
-3 15 8 1 28.83 187.45 136.32 <
-3 -15 8 1 26.77 5.81 56.94 <
-3 15 8 2 32.38 131.05 126.25 <
-2 15 8 -2 254.19 397.95 201.20 <
-2 -15 8 -2 257.03 296.11 130.99 <
-2 15 8 -1 126.19 237.57 127.67 <
-2 -15 8 -1 136.59 196.99 82.17 <
-2 15 8 0 424.09 961.02 290.42 o
-2 -15 8 0 431.83 570.36 134.90 o
-2 15 8 1 198.62 339.60 189.53 <
-2 15 8 2 14.21 110.49 134.90 <
-1 15 8 -2 40.74 109.66 80.22 <
-1 -15 8 -2 42.20 29.21 47.57 <
-1 15 8 -1 159.24 156.47 85.73 <
-1 15 8 0 755.79 1183.37 217.31 o
-1 15 8 1 49.48 -17.18 36.79 <
-1 15 8 2 31.19 109.37 108.24 <
0 15 8 -2 61.99 92.90 60.31 <
0 15 8 -1 7.59 21.45 21.86 <
0 15 8 0 85.02 281.89 91.12 o
0 15 8 1 343.66 180.34 73.64 <
0 15 8 2 6.39 18.84 39.40 <
1 15 8 -2 101.72 132.83 82.41 <
1 15 8 -1 56.87 77.79 44.73 <
1 15 8 0 789.79 996.87 188.46 o
1 15 8 1 171.29 -47.81 76.49 <
1 15 8 2 46.45 -13.09 74.18 <
1 -15 8 2 52.90 176.55 166.24 <
2 15 8 -2 45.27 168.02 73.88 <
2 -15 8 -2 33.45 188.10 140.00 <
2 15 8 -1 3.00 -38.39 43.60 <
2 -15 8 -1 4.64 128.86 108.18 <
2 15 8 0 317.45 526.81 209.14 <
2 -15 8 0 320.37 128.56 84.60 <
2 15 8 1 108.01 276.26 159.79 <
2 -15 8 1 102.11 -37.80 91.89 <
2 15 8 2 20.93 -38.81 47.99 <
2 -15 8 2 24.12 -17.30 22.99 <
3 15 8 -2 37.72 55.28 69.61 <
3 -15 8 -2 36.02 -39.87 64.40 <
3 15 8 -1 180.28 140.47 121.28 <
3 -15 8 -1 217.71 93.37 57.65 <
3 15 8 0 398.56 618.29 227.32 <
3 -15 8 0 403.52 290.78 121.28 <
3 15 8 1 55.04 63.81 52.08 <
3 -15 8 1 74.95 65.05 77.49 <
3 15 8 2 18.44 127.97 104.69 <
3 -15 8 2 18.99 -26.42 7.29 <
4 15 8 -2 48.56 64.64 83.83 <
4 -15 8 -2 44.05 41.95 65.82 <
4 15 8 -1 21.23 -14.57 74.59 <
4 -15 8 -1 19.32 4.74 33.12 <
4 -15 8 0 66.29 66.06 102.85 <
-4 -16 8 0 143.27 221.22 154.75 <
-4 -16 8 1 81.23 122.76 100.48 <
-4 -16 8 2 56.32 45.62 16.41 <
-3 16 8 -2 19.84 7.94 122.88 <
-3 -16 8 -2 18.75 80.87 72.22 <
-3 16 8 -1 6.80 35.25 45.50 <
-3 -16 8 -1 7.64 -86.74 95.50 <
-3 16 8 0 260.03 213.76 147.64 <
-3 -16 8 0 252.99 258.73 127.73 <
-3 16 8 1 135.30 42.12 82.35 <
-3 -16 8 1 136.10 130.87 100.78 <
-3 16 8 2 44.48 -30.87 56.05 <
-2 16 8 -2 67.10 116.48 118.73 <
-2 -16 8 -2 56.41 2.55 32.76 <
-2 16 8 -1 123.50 61.26 61.14 <
-2 -16 8 -1 108.93 134.49 115.59 <
-2 16 8 0 673.41 830.86 270.22 o
-2 -16 8 0 679.21 262.28 133.18 <
-2 16 8 1 163.53 155.58 142.78 <
-2 16 8 2 78.69 167.66 113.87 <
-1 16 8 -2 15.36 12.86 40.58 <
-1 -16 8 -2 17.49 28.97 9.78 <
-1 16 8 -1 215.44 322.30 124.06 <
-1 16 8 0 191.54 115.59 69.20 <
-1 16 8 1 145.23 206.83 111.86 <
-1 16 8 2 34.45 216.54 85.49 <
0 16 8 -2 78.76 163.81 59.66 <
0 16 8 -1 150.80 160.20 71.92 <
0 16 8 0 620.36 613.84 153.27 o
0 16 8 1 23.43 68.25 70.27 <
0 16 8 2 105.95 97.76 79.27 <
1 16 8 -2 29.77 85.43 62.98 <
1 16 8 -1 13.49 17.83 63.27 <
1 16 8 0 118.67 28.14 75.12 <
1 16 8 1 317.50 203.86 86.44 <
1 16 8 2 241.70 246.16 89.58 <
1 -16 8 2 241.76 385.21 238.40 <
2 16 8 -2 72.51 208.13 143.67 <
2 -16 8 -2 73.73 295.46 222.88 <
2 16 8 -1 59.04 59.36 91.77 <
2 -16 8 -1 48.06 141.36 95.56 <
2 16 8 0 584.90 446.71 203.75 <
2 -16 8 0 595.33 149.65 129.04 <
2 16 8 1 12.04 -54.09 71.33 <
2 -16 8 1 8.75 -79.57 118.14 <
2 16 8 2 6.27 18.01 61.67 <
2 -16 8 2 6.52 -277.21 152.74 <
3 16 8 -2 54.63 9.72 29.86 <
3 -16 8 -2 58.05 -100.78 119.02 <
3 16 8 -1 22.28 -97.58 112.57 <
3 -16 8 -1 24.39 -104.75 120.57 <
3 16 8 0 81.61 157.95 126.61 <
3 -16 8 0 75.56 -58.53 106.29 <
3 16 8 1 15.08 61.56 69.97 <
3 -16 8 1 11.62 -430.71 196.87 <
3 16 8 2 81.61 155.70 137.04 <
4 16 8 -2 35.85 -37.03 46.45 <
4 -16 8 -2 37.58 -58.00 72.81 <
4 16 8 -1 36.79 10.01 41.95 <
4 -16 8 -1 32.79 14.28 72.04 <
4 -16 8 0 115.95 97.28 109.72 <
-4 -17 8 1 47.40 107.89 97.70 <
-3 17 8 -2 21.59 81.88 123.82 <
-3 -17 8 -2 21.02 6.87 42.06 <
-3 17 8 -1 54.08 195.10 147.46 <
-3 -17 8 -1 64.40 143.02 125.25 <
-3 17 8 0 0.90 291.90 179.75 <
-3 -17 8 0 1.10 95.44 83.83 <
-3 17 8 1 69.89 212.57 148.82 <
-3 17 8 2 24.71 -63.27 102.79 <
-2 17 8 -2 84.50 -53.97 71.27 <
-2 -17 8 -2 89.89 34.60 89.82 <
-2 17 8 -1 212.00 209.67 143.43 <
-2 -17 8 -1 226.31 61.32 88.57 <
-2 17 8 0 113.29 303.52 171.46 <
-2 17 8 1 122.66 108.66 107.06 <
-2 17 8 2 81.70 204.52 147.94 <
-1 17 8 -2 44.68 78.14 91.12 <
-1 17 8 -1 754.38 658.93 164.05 o
-1 17 8 0 33.22 69.73 73.23 <
-1 17 8 1 95.29 23.82 51.72 <
-1 17 8 2 24.27 140.12 139.82 <
0 17 8 -2 86.45 31.76 40.46 <
0 17 8 -1 332.43 314.06 98.11 o
0 17 8 0 73.03 335.98 102.26 o
0 17 8 1 101.16 140.29 77.02 <
0 17 8 2 50.83 196.99 87.92 <
1 17 8 -2 67.11 217.55 132.95 <
1 17 8 -1 21.66 50.12 55.51 <
1 17 8 0 9.44 47.40 75.66 <
1 17 8 1 2203.71 2104.70 391.38 o
1 -17 8 1 2162.64 1780.15 439.01 o
1 17 8 2 60.62 -25.42 70.98 <
1 -17 8 2 60.95 161.38 175.90 <
2 17 8 -2 69.32 35.25 70.44 <
2 -17 8 -2 81.59 236.33 172.64 <
2 17 8 -1 182.50 28.91 71.69 <
2 -17 8 -1 174.76 305.41 192.49 <
2 17 8 0 62.54 274.13 163.46 <
2 -17 8 0 49.12 34.78 89.34 <
2 17 8 1 48.66 -54.21 56.88 <
2 -17 8 1 50.06 289.00 160.20 <
2 17 8 2 6.57 34.48 93.13 <
2 -17 8 2 7.79 -206.47 135.61 <
3 17 8 -2 115.45 115.59 87.27 <
3 -17 8 -2 115.49 -259.44 152.20 <
3 17 8 -1 94.12 327.04 186.51 <
3 -17 8 -1 90.72 -84.01 160.02 <
3 17 8 0 0.55 -77.14 88.28 <
3 -17 8 0 0.30 -241.84 151.25 <
3 17 8 1 169.36 313.29 186.80 <
3 -17 8 1 167.23 -361.04 185.38 <
4 17 8 -2 34.10 246.52 144.44 <
4 -17 8 -2 39.74 -271.52 163.16 <
4 -17 8 -1 58.98 -24.82 49.71 <
-3 18 8 -2 29.13 74.59 103.92 <
-3 -18 8 -2 28.08 -155.22 133.90 <
-3 18 8 -1 18.47 191.36 152.79 <
-3 -18 8 -1 19.92 101.61 120.62 <
-3 18 8 0 854.65 1117.31 334.50 o
-3 18 8 1 56.19 -98.76 109.25 <
-3 18 8 2 9.25 218.74 163.70 <
-2 18 8 -2 37.34 -16.41 29.50 <
-2 -18 8 -2 36.00 215.83 161.03 <
-2 18 8 -1 130.87 126.19 105.93 <
-2 18 8 0 394.21 471.65 207.18 <
-2 18 8 1 13.34 117.96 92.60 <
-2 18 8 2 77.32 191.36 135.08 <
-1 18 8 -2 77.32 -41.29 81.64 <
-1 18 8 -1 76.28 178.51 86.79 <
-1 18 8 0 1579.09 2339.37 303.57 o
-1 18 8 1 85.69 84.25 114.17 <
-1 18 8 2 13.95 67.72 105.87 <
0 18 8 -2 88.14 106.82 60.31 <
0 18 8 -1 130.83 124.18 61.44 <
0 18 8 0 480.43 541.80 156.82 o
0 18 8 1 29.42 2.01 80.34 <
0 18 8 2 69.91 161.62 106.94 <
1 18 8 -2 43.74 7.52 31.93 <
1 18 8 -1 49.12 60.79 22.63 <
1 18 8 0 1251.02 1506.91 343.33 o
1 18 8 1 549.62 427.40 188.88 <
1 -18 8 1 572.83 746.85 319.75 <
1 18 8 2 19.22 -55.39 96.04 <
1 -18 8 2 22.07 255.82 231.83 <
2 18 8 -2 87.86 113.99 69.20 <
2 -18 8 -2 90.16 143.37 148.53 <
2 18 8 -1 2.12 38.27 20.02 <
2 -18 8 -1 2.60 68.96 143.20 <
2 18 8 0 314.95 164.58 106.17 <
2 -18 8 0 298.92 -39.22 82.71 <
2 18 8 1 25.41 247.35 148.35 <
2 -18 8 1 24.65 55.34 77.14 <
2 18 8 2 50.18 98.35 57.23 <
2 -18 8 2 50.53 -207.60 140.29 <
3 18 8 -2 60.46 226.61 153.92 <
3 -18 8 -2 53.75 -171.75 165.53 <
3 18 8 -1 32.18 -20.68 67.07 <
3 -18 8 -1 33.59 -397.83 196.40 <
3 18 8 0 735.69 1002.32 315.96 o
3 -18 8 0 715.54 93.43 73.41 <
3 -18 8 1 118.14 -284.56 168.97 <
4 -18 8 -2 79.14 -43.37 112.33 <
4 -18 8 -1 16.59 -64.34 81.94 <
-3 -19 8 -2 12.93 35.01 69.79 <
-3 19 8 -1 489.50 887.79 310.51 <
-3 -19 8 -1 480.47 371.23 171.57 <
-3 19 8 0 11.92 14.22 62.98 <
-3 19 8 1 32.48 116.60 136.32 <
-3 19 8 2 13.10 242.67 150.84 <
-2 19 8 -2 111.23 172.05 147.70 <
-2 -19 8 -2 117.94 69.79 98.88 <
-2 19 8 -1 39.60 305.35 185.91 <
-2 19 8 0 22.05 182.42 132.95 <
-2 19 8 1 132.65 49.47 68.01 <
-2 19 8 2 48.03 92.42 105.52 <
-1 19 8 -2 65.48 51.78 80.99 <
-1 19 8 -1 18.09 185.97 93.55 <
-1 19 8 0 30.15 127.85 86.14 <
-1 19 8 1 23.04 178.74 129.15 <
-1 19 8 2 10.69 17.42 67.48 <
0 19 8 -2 15.13 28.56 68.84 <
0 19 8 -1 35.85 90.53 71.04 <
0 19 8 0 56.92 109.84 73.88 <
0 19 8 1 57.43 21.33 51.43 <
0 19 8 2 24.52 142.07 80.87 <
1 19 8 -2 36.88 42.30 53.79 <
1 19 8 -1 294.59 226.61 138.57 <
1 19 8 0 1.95 156.17 104.86 <
1 19 8 1 208.80 263.64 166.78 <
1 -19 8 1 213.26 627.83 294.98 <
1 19 8 2 72.57 47.51 93.07 <
1 -19 8 2 75.05 228.04 190.48 <
2 19 8 -2 12.40 85.55 123.35 <
2 -19 8 -2 11.71 44.02 165.18 <
2 19 8 -1 203.97 249.84 139.46 <
2 -19 8 -1 222.85 324.13 191.90 <
2 19 8 0 7.66 133.95 112.45 <
2 -19 8 0 4.94 56.11 46.21 <
2 19 8 1 96.29 175.43 127.85 <
2 -19 8 1 117.63 80.99 88.45 <
2 19 8 2 11.90 -188.16 146.34 <
2 -19 8 2 13.35 -308.26 175.19 <
3 19 8 -2 50.97 73.17 89.93 <
3 -19 8 -2 45.87 -233.25 151.85 <
3 19 8 -1 80.83 -48.64 81.94 <
3 -19 8 -1 86.10 -416.85 206.06 <
3 -19 8 0 5.93 0.30 104.57 <
3 -19 8 1 53.26 49.23 72.04 <
-3 -20 8 -2 25.88 -16.17 61.62 <
-2 20 8 -2 28.86 47.40 9.60 o
-2 20 8 -1 83.29 18.01 70.86 <
-2 20 8 0 675.30 949.29 315.66 o
-2 20 8 1 98.40 -0.12 27.02 <
-1 20 8 -2 11.25 22.81 62.44 <
-1 20 8 -1 70.51 675.46 273.48 <
-1 20 8 0 119.40 51.43 112.68 <
-1 20 8 1 11.51 44.97 55.57 <
-1 20 8 2 41.63 14.87 25.71 <
0 20 8 -2 25.42 -36.32 67.13 <
0 20 8 -1 78.25 -49.65 34.95 <
0 20 8 0 324.58 283.55 110.08 <
0 20 8 1 55.25 216.84 124.89 <
0 20 8 2 6.69 171.46 113.63 <
1 20 8 -2 45.52 111.92 83.48 <
1 20 8 -1 55.23 75.00 102.50 <
1 20 8 0 93.79 205.52 161.68 <
1 -20 8 0 99.91 222.76 183.54 <
1 20 8 1 7.89 -4.74 12.32 <
1 -20 8 1 5.43 274.43 207.18 <
1 20 8 2 78.90 208.43 145.57 <
1 -20 8 2 77.26 234.55 201.49 <
2 20 8 -2 38.68 -14.81 76.78 <
2 -20 8 -2 44.32 463.18 246.88 <
2 20 8 -1 30.28 -43.49 89.46 <
2 -20 8 -1 31.63 35.01 99.18 <
2 20 8 0 765.79 981.76 292.49 o
2 -20 8 0 776.16 600.87 266.55 <
2 20 8 1 39.56 21.68 58.71 <
2 -20 8 1 40.64 -143.49 120.33 <
2 -20 8 2 14.08 -11.20 87.98 <
3 20 8 -2 44.61 129.81 137.75 <
3 -20 8 -2 43.76 -85.20 117.84 <
3 -20 8 -1 25.58 -94.79 149.24 <
-2 21 8 -2 9.10 93.85 95.62 <
-2 21 8 -1 197.23 408.14 206.41 <
-2 21 8 0 239.33 467.39 214.53 <
-1 21 8 -2 63.81 401.33 216.66 <
-1 21 8 -1 25.35 -256.30 160.91 <
-1 21 8 0 45.00 -57.53 113.28 <
-1 21 8 1 1.84 -35.43 123.94 <
-1 21 8 2 37.66 -40.29 52.08 <
0 21 8 -2 29.64 -37.32 62.33 <
0 21 8 -1 153.81 146.99 76.90 <
0 21 8 0 269.81 541.03 164.41 o
0 21 8 1 10.36 -13.45 39.22 <
0 21 8 2 14.82 175.37 86.44 <
1 21 8 -2 31.24 212.04 122.28 <
1 21 8 -1 12.37 66.00 70.27 <
1 21 8 0 90.54 277.21 136.56 <
1 -21 8 0 109.27 729.08 366.20 <
1 21 8 1 16.81 20.08 68.19 <
1 -21 8 1 10.58 313.23 213.46 <
1 21 8 2 10.16 49.53 29.45 <
1 -21 8 2 9.12 160.62 154.87 <
2 21 8 -2 23.10 -10.19 40.76 <
2 -21 8 -2 24.43 185.74 186.39 <
2 21 8 -1 70.17 -13.63 111.08 <
2 -21 8 -1 70.80 21.51 140.77 <
2 21 8 0 169.90 201.02 162.63 <
2 -21 8 0 163.70 366.91 205.11 <
3 -21 8 -2 27.62 -92.48 76.07 <
-2 22 8 -2 54.56 84.13 118.02 <
-2 22 8 -1 56.19 71.45 45.92 <
-1 22 8 -2 69.37 184.67 156.53 <
-1 22 8 -1 123.87 116.30 152.56 <
-1 22 8 0 121.20 52.97 30.51 <
-1 22 8 1 83.60 92.01 52.73 <
-1 22 8 2 19.01 45.86 80.46 <
0 22 8 -2 49.54 44.97 72.93 <
0 22 8 -1 77.73 29.50 67.13 <
0 22 8 0 131.22 183.90 164.58 <
0 22 8 1 15.64 224.18 196.40 <
0 22 8 2 13.09 24.17 120.39 <
1 22 8 -2 54.54 103.44 88.28 <
1 22 8 -1 28.99 98.41 84.90 <
1 -22 8 -1 35.05 138.10 167.72 <
1 22 8 0 137.49 110.73 91.42 <
1 -22 8 0 162.80 366.49 221.58 <
1 22 8 1 47.88 30.99 93.19 <
1 -22 8 1 50.67 -10.84 70.44 <
2 22 8 -2 4.28 -67.95 9.83 <
2 -22 8 -2 5.56 93.02 122.34 <
2 22 8 -1 27.28 -28.97 83.77 <
2 -22 8 -1 30.04 144.91 203.33 <
-1 23 8 -2 57.14 247.23 201.61 <
-1 23 8 -1 78.01 231.35 180.40 <
-1 23 8 0 340.04 291.90 173.23 <
-1 23 8 1 53.37 -54.27 46.39 <
0 23 8 -2 39.29 291.31 196.16 <
0 23 8 -1 20.34 2.43 35.37 <
0 23 8 0 104.97 74.29 56.46 <
1 23 8 -2 5.95 91.77 98.29 <
1 23 8 -1 81.16 232.60 139.17 <
1 -23 8 -1 87.30 449.91 266.19 <
1 23 8 0 212.94 251.74 145.63 <
2 23 8 -2 73.77 70.38 96.75 <
-1 24 8 -2 9.40 67.90 101.90 <
0 24 8 -2 8.04 1.30 77.20 <
1 24 8 -2 21.80 -176.26 134.01 <
-5 0 9 -2 51.25 -28.73 52.08 <
-5 0 9 -1 360.77 646.84 248.54 <
-5 0 9 0 62.18 60.79 46.51 <
-5 0 9 1 137.99 -45.44 66.00 <
-5 0 9 2 10.82 70.68 91.36 <
-4 0 9 -2 35.06 54.62 32.29 <
-4 0 9 -1 224.69 121.63 77.97 <
-4 0 9 0 171.59 57.23 61.38 <
-4 0 9 1 62.82 90.05 24.76 o
-4 0 9 2 83.58 -73.82 106.52 <
-3 0 9 -2 15.55 -2.13 37.03 <
-3 0 9 -1 210.51 229.99 95.98 <
-3 0 9 0 111.62 22.04 52.20 <
-3 0 9 1 312.32 215.30 138.34 <
-3 0 9 2 1.35 100.36 104.63 <
-2 0 9 -2 4.99 79.27 59.78 <
-2 0 9 -1 149.35 121.87 121.04 <
-2 0 9 0 277.93 74.47 98.29 <
-2 0 9 1 43.79 210.80 124.00 <
-2 0 9 2 89.60 122.52 107.71 <
-1 0 9 -2 240.29 148.94 113.93 <
-1 0 9 -1 10534.80 11831.50 830.09 o
-1 0 9 0 310.46 56.82 68.19 <
-1 0 9 1 42.98 248.89 138.63 <
-1 0 9 2 119.77 91.83 68.90 <
0 0 9 -2 8.05 161.50 74.29 <
0 0 9 -1 136.30 272.47 101.78 <
0 0 9 0 182.61 264.53 119.38 <
0 0 9 1 348.16 543.40 147.17 o
0 0 9 2 0.82 200.19 147.46 <
1 0 9 -2 169.17 163.64 181.11 <
1 0 9 -1 368.31 219.74 134.07 <
1 0 9 0 73.48 37.98 104.33 <
1 0 9 1 679.58 575.28 235.56 <
1 0 9 2 49.22 194.74 130.10 <
2 0 9 -2 154.55 59.90 92.13 <
2 0 9 -1 934.36 869.61 228.51 o
2 0 9 0 28.61 215.54 153.27 <
2 0 9 1 502.78 883.65 276.68 o
2 0 9 2 22.39 118.37 104.10 <
3 0 9 -2 176.45 29.86 107.24 <
3 0 9 -1 319.92 226.73 156.53 <
3 0 9 0 5.40 196.64 100.30 <
3 0 9 1 720.54 935.37 303.22 o
3 0 9 2 20.08 101.90 114.58 <
4 0 9 -2 231.29 85.73 89.99 <
4 0 9 -1 402.49 181.88 114.82 <
4 0 9 0 0.61 46.09 69.61 <
4 0 9 1 108.74 152.08 128.50 <
4 0 9 2 19.81 126.96 146.40 <
5 0 9 -2 32.63 49.41 107.18 <
5 0 9 -1 9.05 39.04 105.93 <
-5 1 9 -2 51.51 81.58 86.91 <
-5 1 9 -1 442.42 487.47 228.21 <
-5 -1 9 -1 455.32 455.01 194.68 <
-5 1 9 0 194.28 106.94 104.10 <
-5 -1 9 0 183.11 126.13 80.75 <
-5 1 9 1 15.73 17.83 46.09 <
-5 -1 9 1 17.21 4.03 36.26 <
-5 1 9 2 147.92 62.86 82.23 <
-5 -1 9 2 149.58 -19.67 25.53 <
-4 1 9 -2 30.61 144.80 84.25 <
-4 -1 9 -2 37.21 67.01 60.19 <
-4 1 9 -1 188.09 48.40 52.49 <
-4 -1 9 -1 192.50 168.67 73.05 <
-4 1 9 0 40.81 -0.47 20.91 <
-4 -1 9 0 36.13 18.43 28.08 <
-4 1 9 1 234.08 103.09 112.92 <
-4 -1 9 1 228.42 93.79 68.55 <
-4 1 9 2 87.77 -29.68 48.76 <
-4 -1 9 2 82.55 40.64 77.79 <
-3 1 9 -2 222.58 187.34 97.10 <
-3 -1 9 -2 211.47 102.97 74.47 <
-3 1 9 -1 1234.29 1510.82 343.03 o
-3 -1 9 -1 1290.72 1101.49 199.01 o
-3 1 9 0 523.56 518.10 204.57 <
-3 -1 9 0 433.06 352.04 115.53 o
-3 1 9 1 79.10 149.42 112.27 <
-3 -1 9 1 88.53 62.98 84.37 <
-3 1 9 2 245.15 236.63 144.32 <
-3 -1 9 2 232.92 103.80 106.88 <
-2 1 9 -2 65.47 66.36 92.01 <
-2 -1 9 -2 64.33 129.10 74.29 <
-2 1 9 -1 259.75 313.59 145.03 <
-2 -1 9 -1 277.46 215.12 88.34 <
-2 1 9 0 93.38 267.85 141.95 <
-2 -1 9 0 67.43 188.88 105.28 <
-2 1 9 1 526.39 399.14 180.88 <
-2 -1 9 1 498.90 444.16 183.13 <
-2 1 9 2 78.91 52.37 74.71 <
-2 -1 9 2 74.08 279.93 148.35 <
-1 1 9 -2 272.69 378.46 144.80 <
-1 -1 9 -2 257.13 366.49 185.14 <
-1 1 9 -1 2017.74 3398.80 465.02 o
-1 -1 9 -1 2100.98 3177.70 451.51 o
-1 1 9 0 1766.01 1817.18 325.97 o
-1 -1 9 0 1510.14 1799.58 327.92 o
-1 1 9 1 82.54 -31.58 69.20 <
-1 -1 9 1 115.25 -105.22 79.45 <
-1 1 9 2 89.88 228.98 105.75 <
-1 -1 9 2 80.93 191.90 108.72 <
0 1 9 -2 107.34 155.34 98.17 <
0 -1 9 -2 109.58 38.87 58.18 <
0 1 9 -1 101.56 173.29 85.49 <
0 -1 9 -1 119.45 215.30 101.96 <
0 1 9 0 67.87 83.65 59.66 <
0 -1 9 0 39.05 115.29 112.57 <
0 1 9 1 1061.14 804.08 174.83 o
0 -1 9 1 1057.05 908.83 279.52 o
0 1 9 2 85.98 143.49 95.62 <
0 -1 9 2 83.69 112.86 100.24 <
1 1 9 -2 246.76 195.87 128.03 <
1 -1 9 -2 249.36 348.25 168.38 <
1 1 9 -1 552.48 446.65 212.10 <
1 -1 9 -1 548.26 559.40 204.87 <
1 1 9 0 1196.67 1017.84 278.63 o
1 -1 9 0 957.05 1155.11 272.29 o
1 1 9 1 1255.35 1168.26 313.35 o
1 -1 9 1 1463.78 1051.73 268.26 o
1 1 9 2 78.10 -48.88 55.45 <
1 -1 9 2 75.65 145.98 109.43 <
2 1 9 -2 279.70 -11.73 82.65 <
2 -1 9 -2 298.98 164.05 123.11 <
2 1 9 -1 129.62 22.87 44.20 <
2 -1 9 -1 108.73 -23.88 56.28 <
2 1 9 0 71.07 54.33 71.98 <
2 -1 9 0 51.30 97.40 104.21 <
2 1 9 1 455.32 473.14 225.79 <
2 -1 9 1 495.53 307.60 157.24 <
2 1 9 2 176.12 173.35 103.98 <
2 -1 9 2 182.35 114.94 160.85 <
3 1 9 -2 341.51 316.31 176.85 <
3 -1 9 -2 336.70 236.98 134.13 <
3 1 9 -1 180.11 134.66 110.38 <
3 -1 9 -1 187.60 -265.07 144.85 <
3 1 9 0 324.97 458.50 222.70 <
3 -1 9 0 255.48 418.81 198.35 <
3 1 9 1 70.56 61.38 80.34 <
3 -1 9 1 103.49 309.68 170.63 <
3 1 9 2 67.42 -19.08 76.31 <
3 -1 9 2 67.03 79.92 61.38 <
4 1 9 -2 306.80 246.16 170.27 <
4 -1 9 -2 310.45 -10.84 84.72 <
4 1 9 -1 95.94 113.81 139.35 <
4 -1 9 -1 83.42 116.36 88.45 <
4 1 9 0 100.51 569.35 237.63 <
4 -1 9 0 102.15 118.55 65.58 <
4 1 9 1 107.03 187.51 164.70 <
4 -1 9 1 130.60 182.83 120.57 <
4 1 9 2 85.76 0.00 152.32 <
4 -1 9 2 87.23 89.93 148.59 <
5 1 9 -2 104.59 359.98 222.59 <
5 -1 9 -2 98.56 99.35 131.23 <
5 1 9 -1 106.25 269.09 200.31 <
5 -1 9 -1 117.05 236.74 181.88 <
-5 2 9 -2 38.44 212.51 171.16 <
-5 2 9 -1 156.48 316.61 182.24 <
-5 -2 9 -1 177.26 305.59 166.01 <
-5 2 9 0 416.56 309.56 180.28 <
-5 -2 9 0 430.74 313.88 113.34 <
-5 2 9 1 115.56 201.14 137.27 <
-5 -2 9 1 96.67 112.21 83.18 <
-5 -2 9 2 101.28 61.50 52.20 <
-4 2 9 -2 111.22 3.32 62.21 <
-4 -2 9 -2 110.11 113.57 87.21 <
-4 2 9 -1 29.76 92.54 85.20 <
-4 -2 9 -1 27.25 26.01 32.17 <
-4 2 9 0 36.26 -162.51 155.40 <
-4 -2 9 0 30.84 156.11 94.14 <
-4 2 9 1 504.46 300.85 176.97 <
-4 -2 9 1 527.61 219.21 101.61 <
-4 2 9 2 114.93 136.09 115.35 <
-4 -2 9 2 117.56 101.55 92.66 <
-3 2 9 -2 211.52 197.94 126.55 <
-3 -2 9 -2 208.64 267.02 99.41 <
-3 2 9 -1 13.08 221.82 120.57 <
-3 -2 9 -1 5.76 183.42 97.76 <
-3 2 9 0 1545.19 1640.63 356.01 o
-3 -2 9 0 1567.42 1210.92 208.13 o
-3 2 9 1 471.59 345.99 170.51 <
-3 -2 9 1 420.46 472.07 132.53 o
-3 2 9 2 186.27 252.92 162.15 <
-3 -2 9 2 164.09 151.20 83.06 <
-2 2 9 -2 157.77 377.75 167.61 <
-2 -2 9 -2 160.78 139.76 72.58 <
-2 2 9 -1 49.73 107.65 115.77 <
-2 -2 9 -1 43.19 162.10 74.59 <
-2 2 9 0 184.63 99.95 101.43 <
-2 -2 9 0 153.23 144.56 76.90 <
-2 2 9 1 1244.88 1122.23 287.76 o
-2 -2 9 1 1276.16 1230.65 304.23 o
-2 2 9 2 77.52 3.14 43.43 <
-2 -2 9 2 81.91 12.74 60.02 <
-1 2 9 -2 952.07 867.35 227.03 o
-1 -2 9 -2 957.50 919.26 164.94 o
-1 2 9 -1 1461.02 1776.60 316.79 o
-1 -2 9 -1 1499.18 1868.84 340.42 o
-1 2 9 0 4975.68 6303.85 604.60 o
-1 -2 9 0 5006.20 5628.57 580.25 o
-1 2 9 1 170.54 71.15 56.40 <
-1 -2 9 1 143.37 205.52 93.90 <
-1 2 9 2 237.24 240.06 113.10 <
-1 -2 9 2 218.79 273.77 124.89 <
0 2 9 -2 83.57 227.15 125.66 <
0 -2 9 -2 85.81 251.38 152.26 <
0 2 9 -1 463.15 450.15 121.33 o
0 -2 9 -1 468.97 388.71 185.32 <
0 2 9 0 412.33 851.72 171.99 o
0 -2 9 0 392.91 649.09 220.33 <
0 2 9 1 861.54 749.40 160.85 o
0 -2 9 1 859.93 1117.67 317.73 o
0 2 9 2 126.30 39.58 61.50 <
0 -2 9 2 136.26 147.58 76.78 <
1 2 9 -2 438.18 447.72 127.79 o
1 -2 9 -2 453.03 317.38 172.23 <
1 2 9 -1 239.23 233.13 152.97 <
1 -2 9 -1 226.10 317.67 165.18 <
1 2 9 0 5839.20 5989.73 685.65 o
1 -2 9 0 5876.23 6006.38 625.28 o
1 2 9 1 624.40 414.36 187.45 <
1 -2 9 1 592.42 552.05 199.90 <
1 2 9 2 83.85 58.42 69.91 <
1 -2 9 2 76.62 152.20 139.29 <
2 2 9 -2 138.04 243.38 158.30 <
2 -2 9 -2 130.39 213.46 142.84 <
2 2 9 -1 477.00 328.64 147.82 <
2 -2 9 -1 499.23 663.73 232.78 <
2 2 9 0 70.80 93.73 129.10 <
2 -2 9 0 58.79 128.33 103.03 <
2 2 9 1 267.60 254.04 172.11 <
2 -2 9 1 254.34 463.89 214.41 <
2 2 9 2 208.10 278.39 155.64 <
2 -2 9 2 211.37 325.79 182.89 <
3 2 9 -2 284.26 294.69 189.17 <
3 -2 9 -2 300.60 72.75 51.19 <
3 2 9 -1 477.49 898.58 313.17 <
3 -2 9 -1 455.94 564.37 233.37 <
3 2 9 0 2294.45 1822.04 403.29 o
3 -2 9 0 2332.34 2241.85 449.08 o
3 2 9 1 105.84 179.10 107.18 <
3 -2 9 1 114.64 -14.81 22.10 <
3 2 9 2 46.64 12.09 72.93 <
3 -2 9 2 40.81 11.85 33.59 <
4 2 9 -2 56.55 360.86 182.48 <
4 -2 9 -2 50.97 194.38 135.38 <
4 2 9 -1 223.77 139.76 123.76 <
4 -2 9 -1 231.19 391.38 223.71 <
4 2 9 0 23.84 132.00 110.91 <
4 -2 9 0 22.51 266.01 193.50 <
4 2 9 1 114.99 204.40 177.97 <
4 -2 9 1 111.00 296.88 207.54 <
4 2 9 2 19.43 35.37 80.04 <
4 -2 9 2 19.72 96.33 119.50 <
5 2 9 -2 96.73 116.30 133.84 <
5 -2 9 -2 107.05 182.65 168.20 <
5 2 9 -1 68.16 160.79 165.77 <
5 -2 9 -1 57.69 175.07 132.89 <
-5 3 9 -2 17.16 239.41 190.18 <
-5 3 9 -1 396.81 313.65 168.73 <
-5 3 9 0 106.74 70.68 109.96 <
-5 -3 9 0 117.17 114.94 81.40 <
-5 -3 9 1 16.92 -47.10 40.76 <
-5 3 9 2 8.71 109.07 76.25 <
-5 -3 9 2 7.56 29.98 95.15 <
-4 3 9 -2 253.55 217.73 144.97 <
-4 -3 9 -2 264.96 284.08 111.56 <
-4 3 9 -1 215.39 162.27 134.72 <
-4 -3 9 -1 177.75 65.41 80.46 <
-4 3 9 0 348.46 276.86 177.62 <
-4 -3 9 0 378.17 65.11 84.96 <
-4 3 9 1 261.50 120.98 134.78 <
-4 -3 9 1 263.82 115.06 69.85 <
-4 3 9 2 205.32 146.40 121.69 <
-4 -3 9 2 202.92 15.58 76.66 <
-3 3 9 -2 43.57 -13.57 50.06 <
-3 -3 9 -2 42.75 76.19 37.92 <
-3 3 9 -1 699.87 766.10 234.79 o
-3 -3 9 -1 658.80 454.00 119.85 o
-3 3 9 0 463.29 256.77 133.24 <
-3 -3 9 0 473.04 339.89 114.23 <
-3 3 9 1 39.54 100.54 113.46 <
-3 -3 9 1 38.75 42.42 31.70 <
-3 3 9 2 46.73 52.08 106.11 <
-3 -3 9 2 39.99 39.22 63.63 <
-2 3 9 -2 545.15 426.51 168.26 <
-2 -3 9 -2 515.91 548.20 141.30 o
-2 3 9 -1 233.06 378.99 148.47 <
-2 -3 9 -1 171.63 279.52 89.52 o
-2 3 9 0 3147.31 3519.60 464.55 o
-2 -3 9 0 3267.67 3361.36 314.83 o
-2 3 9 1 1104.91 667.34 228.10 <
-2 -3 9 1 1092.63 611.65 144.20 o
-2 3 9 2 69.47 -9.72 60.67 <
-2 -3 9 2 80.85 49.77 102.67 <
-1 3 9 -2 119.83 147.11 104.92 <
-1 -3 9 -2 119.25 244.86 80.04 o
-1 3 9 -1 1207.66 957.41 226.55 o
-1 -3 9 -1 1167.66 929.92 160.56 o
-1 3 9 0 1429.03 1427.05 283.37 o
-1 -3 9 0 1410.19 1850.54 341.02 o
-1 3 9 1 65.58 156.88 89.70 <
-1 -3 9 1 71.43 269.98 108.95 <
-1 3 9 2 112.18 147.52 92.36 <
-1 -3 9 2 94.10 103.15 96.63 <
0 3 9 -2 92.84 31.22 26.36 <
0 -3 9 -2 87.23 187.16 100.60 <
0 3 9 -1 292.53 410.33 124.47 o
0 -3 9 -1 297.21 314.83 167.49 <
0 3 9 0 348.33 184.79 93.31 <
0 -3 9 0 495.70 210.20 150.01 <
0 3 9 1 2640.52 2381.79 285.62 o
0 -3 9 1 2542.41 2794.50 472.84 o
0 3 9 2 68.13 -5.10 41.47 <
0 -3 9 2 53.52 -67.54 72.04 <
1 3 9 -2 72.56 133.12 69.20 <
1 -3 9 -2 68.47 264.41 182.89 <
1 3 9 -1 214.81 283.73 90.71 o
1 -3 9 -1 211.02 299.25 132.00 <
1 3 9 0 1531.35 1651.71 232.54 o
1 -3 9 0 1534.75 1462.42 311.10 o
1 3 9 1 155.04 177.62 86.62 <
1 -3 9 1 185.50 137.33 125.36 <
1 3 9 2 105.38 103.86 59.66 <
1 -3 9 2 99.60 234.32 99.77 <
2 3 9 -2 462.89 234.38 136.74 <
2 -3 9 -2 453.73 475.15 198.06 <
2 3 9 -1 195.57 56.76 93.37 <
2 -3 9 -1 200.23 87.62 105.22 <
2 3 9 0 2475.99 2379.72 454.71 o
2 -3 9 0 2621.61 2787.98 437.59 o
2 3 9 1 1672.25 1538.02 389.89 o
2 -3 9 1 1581.39 2307.85 413.00 o
2 3 9 2 763.62 532.03 258.84 <
2 -3 9 2 730.06 585.76 246.99 <
3 3 9 -2 82.22 272.65 185.97 <
3 -3 9 -2 81.31 69.61 43.78 <
3 3 9 -1 107.07 214.71 213.70 <
3 -3 9 -1 107.33 71.39 79.15 <
3 3 9 0 576.84 487.95 261.04 <
3 -3 9 0 580.02 525.92 198.89 <
3 3 9 1 444.05 174.95 91.48 <
3 -3 9 1 451.39 343.33 196.81 <
3 3 9 2 63.72 -94.32 72.52 <
3 -3 9 2 72.57 164.05 104.04 <
4 3 9 -2 197.31 27.85 27.25 <
4 -3 9 -2 206.37 173.18 109.43 <
4 3 9 -1 233.92 -15.05 60.61 <
4 -3 9 -1 220.46 242.97 190.30 <
4 3 9 0 234.82 120.51 131.94 <
4 -3 9 0 271.27 61.44 97.22 <
4 3 9 1 403.85 494.35 241.19 <
4 -3 9 1 375.12 505.60 242.31 <
4 3 9 2 47.65 9.06 92.25 <
4 -3 9 2 44.68 77.26 126.61 <
5 3 9 -2 35.31 178.21 180.23 <
5 -3 9 -2 39.06 21.68 77.67 <
5 3 9 -1 20.20 72.16 130.28 <
5 -3 9 -1 18.24 -93.25 107.18 <
-5 4 9 0 73.97 238.76 153.68 <
-5 4 9 1 46.67 64.81 103.74 <
-5 -4 9 1 44.22 263.88 168.85 <
-5 4 9 2 44.37 157.30 131.82 <
-5 -4 9 2 37.43 104.33 81.94 <
-4 4 9 -2 128.22 66.30 86.38 <
-4 -4 9 -2 119.29 42.66 58.36 <
-4 4 9 -1 300.69 637.66 224.78 <
-4 -4 9 -1 344.47 367.20 118.73 o
-4 4 9 0 1148.68 1307.31 337.64 o
-4 -4 9 0 1150.17 943.72 194.15 o
-4 4 9 1 105.92 98.29 114.11 <
-4 -4 9 1 134.93 -53.50 21.80 <
-4 4 9 2 219.98 50.48 118.14 <
-4 -4 9 2 211.83 126.49 75.00 <
-3 4 9 -2 90.35 437.88 185.38 <
-3 -4 9 -2 95.78 165.89 72.52 <
-3 4 9 -1 66.92 59.54 98.17 <
-3 -4 9 -1 51.79 140.65 73.35 <
-3 4 9 0 100.46 152.91 122.99 <
-3 -4 9 0 88.12 79.27 51.60 <
-3 4 9 1 117.82 113.57 100.36 <
-3 -4 9 1 115.96 72.99 65.47 <
-3 4 9 2 136.77 164.11 149.00 <
-3 -4 9 2 126.92 27.73 61.91 <
-2 4 9 -2 397.55 214.47 137.04 <
-2 -4 9 -2 443.97 158.90 81.82 <
-2 4 9 -1 291.40 325.26 132.06 <
-2 -4 9 -1 349.54 354.88 111.92 o
-2 4 9 0 4257.19 4511.08 525.33 o
-2 -4 9 0 4173.13 4608.18 368.92 o
-2 4 9 1 243.90 190.24 120.68 <
-2 -4 9 1 317.01 137.15 70.92 <
-2 4 9 2 118.51 94.32 108.12 <
-2 -4 9 2 121.52 2.73 46.15 <
-1 4 9 -2 326.13 311.81 152.79 <
-1 -4 9 -2 305.21 453.41 121.51 o
-1 4 9 -1 674.05 629.72 198.53 o
-1 -4 9 -1 640.61 645.90 135.38 o
-1 4 9 0 268.97 337.11 138.28 <
-1 -4 9 0 229.72 298.72 112.09 <
-1 4 9 1 12.00 -38.27 23.22 <
-1 -4 9 1 10.59 -49.77 49.00 <
-1 4 9 2 43.58 75.30 52.43 <
-1 -4 9 2 37.70 149.54 100.01 <
0 4 9 -2 83.01 -17.36 44.91 <
0 -4 9 -2 96.40 59.90 8.12 o
0 4 9 -1 254.10 426.69 113.93 o
0 -4 9 -1 273.13 426.57 197.11 <
0 4 9 0 4894.39 4787.75 381.96 o
0 -4 9 0 4739.57 6089.08 676.76 o
0 4 9 1 931.86 1093.85 197.35 o
0 -4 9 1 1038.04 1575.40 352.04 o
0 4 9 2 65.78 80.10 71.15 <
0 -4 9 2 74.71 -27.19 43.84 <
1 4 9 -2 165.20 111.62 50.77 <
1 -4 9 -2 150.18 101.01 86.02 <
1 4 9 -1 640.63 476.16 92.42 o
1 -4 9 -1 585.05 595.30 199.66 <
1 4 9 0 149.26 218.08 100.48 <
1 -4 9 0 123.79 209.37 143.20 <
1 4 9 1 266.17 344.04 106.88 o
1 -4 9 1 226.49 478.29 193.08 <
1 4 9 2 34.55 80.40 60.73 <
1 -4 9 2 30.22 49.23 111.26 <
2 4 9 -2 269.50 159.55 87.86 <
2 -4 9 -2 279.61 246.58 87.27 <
2 4 9 -1 20.90 49.00 56.94 <
2 -4 9 -1 15.41 108.60 123.65 <
2 4 9 0 4404.02 3362.01 537.48 o
2 -4 9 0 4347.85 4911.16 583.98 o
2 4 9 1 393.99 605.84 263.41 <
2 -4 9 1 423.96 463.06 207.77 <
2 4 9 2 139.83 94.85 117.37 <
2 -4 9 2 133.28 -23.11 32.41 <
3 4 9 -2 40.09 107.47 79.33 <
3 -4 9 -2 36.91 -46.45 97.93 <
3 4 9 -1 604.05 379.05 221.88 <
3 -4 9 -1 569.56 119.91 87.92 <
3 4 9 0 40.22 58.42 68.43 <
3 -4 9 0 34.00 87.86 112.27 <
3 4 9 1 332.65 601.70 254.46 <
3 -4 9 1 290.17 587.24 248.12 <
3 4 9 2 40.52 -121.16 167.61 <
3 -4 9 2 35.79 37.86 49.00 <
4 4 9 -2 294.20 106.11 70.27 <
4 -4 9 -2 302.00 99.35 120.98 <
4 4 9 -1 10.18 28.32 84.37 <
4 -4 9 -1 13.70 65.11 95.62 <
4 4 9 0 1552.55 740.57 276.68 <
4 -4 9 0 1544.93 1147.41 348.36 o
4 4 9 1 72.25 75.78 113.63 <
4 -4 9 1 74.72 297.59 196.22 <
4 4 9 2 30.30 52.31 89.64 <
4 -4 9 2 28.01 205.17 169.32 <
5 4 9 -2 4.86 22.93 98.23 <
5 -4 9 -2 7.26 -88.93 101.67 <
5 4 9 -1 131.47 93.96 99.71 <
5 -4 9 -1 124.25 -20.26 11.38 <
-5 5 9 1 142.43 306.54 177.97 <
-5 -5 9 1 126.89 19.08 86.20 <
-5 5 9 2 20.76 -48.40 86.38 <
-5 -5 9 2 16.63 -97.76 62.56 <
-4 5 9 -2 162.04 266.55 139.40 <
-4 -5 9 -2 162.80 216.78 91.83 <
-4 5 9 -1 1002.08 1045.63 299.90 o
-4 -5 9 -1 1013.68 978.26 195.51 o
-4 5 9 0 556.75 934.72 286.69 o
-4 -5 9 0 559.54 831.45 181.47 o
-4 5 9 1 158.41 167.78 121.45 <
-4 -5 9 1 163.05 206.95 98.53 <
-4 5 9 2 88.78 18.37 83.54 <
-4 -5 9 2 93.54 -63.45 27.61 <
-3 5 9 -2 85.89 163.40 154.87 <
-3 -5 9 -2 101.23 -12.09 46.98 <
-3 5 9 -1 21.19 122.16 100.36 <
-3 -5 9 -1 21.30 -22.99 41.95 <
-3 5 9 0 290.01 412.70 185.38 <
-3 -5 9 0 268.29 381.42 110.02 o
-3 5 9 1 694.68 829.02 263.88 o
-3 -5 9 1 664.37 395.76 125.66 o
-3 5 9 2 89.19 85.02 102.73 <
-3 -5 9 2 79.16 41.83 32.82 <
-2 5 9 -2 1324.39 796.44 235.68 o
-2 -5 9 -2 1324.16 928.61 177.97 o
-2 5 9 -1 2118.69 2301.34 374.91 o
-2 -5 9 -1 2187.85 2210.22 262.04 o
-2 5 9 0 872.57 1041.42 271.70 o
-2 -5 9 0 890.76 1001.84 176.67 o
-2 5 9 1 284.24 279.99 137.39 <
-2 -5 9 1 277.34 295.40 93.55 o
-2 5 9 2 142.27 154.87 96.93 <
-2 -5 9 2 160.74 11.91 61.67 <
-1 5 9 -2 186.85 147.99 104.21 <
-1 -5 9 -2 178.75 120.15 67.30 <
-1 5 9 -1 93.84 306.24 146.40 <
-1 -5 9 -1 87.05 157.12 76.90 <
-1 5 9 0 487.61 282.96 122.88 <
-1 -5 9 0 449.45 287.99 82.35 o
-1 5 9 1 1054.45 1387.06 287.82 o
-1 -5 9 1 1063.39 1373.02 326.92 o
-1 5 9 2 126.18 -2.37 74.65 <
-1 -5 9 2 114.39 68.37 175.90 <
0 5 9 -2 219.60 51.60 29.03 <
0 -5 9 -2 213.73 37.09 44.91 <
0 5 9 -1 1921.31 1654.31 178.45 o
0 -5 9 -1 1977.74 2077.09 388.06 o
0 5 9 0 12040.50 12372.40 460.46 o
0 -5 9 0 12147.10 14291.00 1015.82 o
0 5 9 1 381.70 373.48 131.76 <
0 -5 9 1 309.68 455.07 213.11 <
0 5 9 2 171.63 312.05 119.38 <
0 -5 9 2 177.29 389.54 173.95 <
1 5 9 -2 369.83 284.26 63.10 o
1 -5 9 -2 386.22 260.56 134.90 <
1 5 9 -1 284.25 167.90 54.39 o
1 -5 9 -1 263.20 61.67 44.79 <
1 5 9 0 513.92 236.27 65.82 o
1 -5 9 0 476.99 496.77 191.54 <
1 5 9 1 1968.89 2257.55 213.70 o
1 -5 9 1 2084.20 2514.98 422.01 o
1 5 9 2 56.49 147.23 89.34 <
1 -5 9 2 64.05 109.78 74.53 <
2 5 9 -2 229.61 52.31 54.98 <
2 -5 9 -2 214.26 101.07 52.43 <
2 5 9 -1 397.79 208.43 57.65 o
2 -5 9 -1 405.15 282.84 130.93 <
2 5 9 0 769.72 872.45 139.40 o
2 -5 9 0 796.21 831.04 239.35 o
2 5 9 1 122.73 184.79 110.55 <
2 -5 9 1 83.81 211.86 115.82 <
2 5 9 2 101.49 96.10 170.33 <
2 -5 9 2 85.03 120.45 69.38 <
3 5 9 -2 197.57 208.01 118.37 <
3 -5 9 -2 227.34 71.39 104.15 <
3 5 9 -1 240.04 183.48 107.18 <
3 -5 9 -1 219.37 135.61 133.78 <
3 5 9 0 254.44 165.24 153.51 <
3 -5 9 0 235.45 198.24 169.86 <
3 5 9 1 374.75 223.95 224.84 <
3 -5 9 1 430.72 354.82 166.48 <
3 5 9 2 66.24 -12.80 145.68 <
3 -5 9 2 81.88 56.82 83.83 <
4 5 9 -2 50.65 214.53 153.09 <
4 -5 9 -2 39.72 24.76 55.87 <
4 5 9 -1 35.35 160.32 142.37 <
4 -5 9 -1 37.65 124.06 126.67 <
4 5 9 0 404.42 319.69 179.22 <
4 -5 9 0 416.97 677.59 281.54 <
4 5 9 1 27.99 2.19 73.23 <
4 -5 9 1 17.51 78.50 56.46 <
4 5 9 2 41.72 88.10 95.68 <
4 -5 9 2 40.74 -17.54 52.61 <
5 5 9 -2 22.56 26.36 70.44 <
5 -5 9 -2 30.34 -84.01 50.77 <
5 5 9 -1 93.53 61.44 105.75 <
5 -5 9 -1 82.15 -56.82 34.95 <
-5 -6 9 1 71.67 108.42 103.68 <
-5 -6 9 2 48.29 -62.39 84.84 <
-4 6 9 -2 172.55 274.84 162.69 <
-4 -6 9 -2 158.71 325.26 122.28 <
-4 6 9 -1 15.48 109.66 117.96 <
-4 -6 9 -1 14.14 116.36 70.92 <
-4 6 9 0 648.35 557.03 219.86 <
-4 -6 9 0 660.20 404.23 132.59 o
-4 6 9 1 13.92 155.93 127.91 <
-4 -6 9 1 21.28 87.39 71.63 <
-4 6 9 2 132.78 182.95 138.57 <
-4 -6 9 2 113.88 169.74 95.33 <
-3 6 9 -2 65.83 45.68 113.93 <
-3 -6 9 -2 61.64 70.74 47.81 <
-3 6 9 -1 587.10 852.60 263.76 o
-3 -6 9 -1 544.30 625.52 144.38 o
-3 6 9 0 1373.42 999.35 275.26 o
-3 -6 9 0 1347.92 786.54 173.77 o
-3 6 9 1 554.74 691.99 247.35 <
-3 -6 9 1 535.10 424.67 119.50 o
-3 6 9 2 49.41 -15.82 69.79 <
-3 -6 9 2 46.93 73.46 57.17 <
-2 6 9 -2 288.99 499.74 177.26 <
-2 -6 9 -2 299.13 490.20 124.95 o
-2 6 9 -1 67.07 213.64 146.51 <
-2 -6 9 -1 47.15 91.12 74.41 <
-2 6 9 0 1466.06 1637.79 327.57 o
-2 -6 9 0 1472.41 961.20 174.83 o
-2 6 9 1 29.45 -37.56 52.49 <
-2 -6 9 1 41.33 123.76 72.52 <
-2 6 9 2 166.85 109.43 98.53 <
-2 -6 9 2 149.23 107.77 61.32 <
-1 6 9 -2 62.50 -20.97 17.24 <
-1 -6 9 -2 58.17 42.48 41.29 <
-1 6 9 -1 54.08 161.03 91.95 <
-1 -6 9 -1 39.28 141.66 61.26 <
-1 6 9 0 3261.78 2850.54 381.48 o
-1 -6 9 0 3214.45 2746.86 261.69 o
-1 6 9 1 866.34 784.71 219.09 o
-1 -6 9 1 818.75 851.72 263.70 o
-1 6 9 2 34.71 -78.74 74.12 <
-1 -6 9 2 26.46 4.92 59.96 <
0 6 9 -2 206.13 237.10 79.80 <
0 -6 9 -2 229.21 166.48 56.88 <
0 6 9 -1 256.44 405.30 91.18 o
0 -6 9 -1 230.50 349.49 158.30 <
0 6 9 0 5049.02 5357.28 307.90 o
0 -6 9 0 5091.96 5708.91 603.53 o
0 6 9 1 146.28 209.79 70.62 <
0 -6 9 1 155.74 140.47 111.97 <
0 6 9 2 156.46 137.45 59.60 <
0 -6 9 2 157.00 83.60 32.59 <
1 6 9 -2 125.49 92.25 54.92 <
1 -6 9 -2 126.50 142.84 97.52 <
1 6 9 -1 40.52 69.91 46.63 <
1 -6 9 -1 31.68 -0.59 59.07 <
1 6 9 0 3003.49 2555.14 223.30 o
1 -6 9 0 2983.87 2444.89 385.10 o
1 6 9 1 1737.71 1598.86 178.80 o
1 -6 9 1 1664.11 1985.91 380.18 o
1 6 9 2 39.43 53.56 35.01 <
1 -6 9 2 36.57 -38.09 98.23 <
2 6 9 -2 67.80 34.66 34.78 <
2 -6 9 -2 80.70 110.20 48.70 <
2 6 9 -1 164.13 105.34 48.29 <
2 -6 9 -1 158.27 101.67 50.65 <
2 6 9 0 1539.32 1156.41 202.44 o
2 -6 9 0 1576.85 1523.50 330.83 o
2 6 9 1 103.71 57.23 45.56 <
2 -6 9 1 119.89 50.65 63.10 <
2 6 9 2 178.74 -3.79 61.73 <
2 -6 9 2 176.32 186.98 95.27 <
3 6 9 -2 133.88 75.12 64.76 <
3 -6 9 -2 133.04 22.34 34.84 <
3 6 9 -1 153.26 225.49 101.84 <
3 -6 9 -1 156.48 211.33 157.36 <
3 6 9 0 1302.43 1021.22 219.51 o
3 -6 9 0 1315.86 1000.72 290.60 o
3 6 9 1 62.12 -122.46 112.74 <
3 -6 9 1 56.12 229.34 145.51 <
3 6 9 2 42.20 -167.49 184.43 <
3 -6 9 2 44.57 -51.13 67.18 <
4 6 9 -2 31.70 80.75 90.94 <
4 -6 9 -2 30.17 231.65 166.36 <
4 6 9 -1 85.76 129.04 100.89 <
4 -6 9 -1 78.70 231.12 140.06 <
4 6 9 0 741.16 734.05 270.34 <
4 -6 9 0 764.06 859.83 311.57 <
4 6 9 1 17.17 -105.52 118.43 <
4 -6 9 1 25.37 -18.13 50.24 <
4 6 9 2 7.10 2.19 72.28 <
4 -6 9 2 7.88 -5.87 40.46 <
5 6 9 -2 84.86 59.84 120.68 <
5 -6 9 -2 81.77 -56.82 87.09 <
5 6 9 -1 26.50 54.92 122.64 <
5 -6 9 -1 24.38 -20.08 73.94 <
-5 -7 9 2 30.37 20.80 52.49 <
-4 7 9 -2 49.17 97.87 111.68 <
-4 -7 9 -2 41.35 175.01 133.72 <
-4 7 9 -1 106.53 162.45 108.42 <
-4 -7 9 -1 89.59 63.39 58.77 <
-4 7 9 0 323.98 849.76 259.55 o
-4 -7 9 0 343.79 646.72 159.73 o
-4 -7 9 1 43.80 -4.92 56.76 <
-4 7 9 2 154.57 221.40 168.20 <
-4 -7 9 2 151.22 33.53 62.80 <
-3 7 9 -2 64.14 286.81 154.10 <
-3 -7 9 -2 75.28 83.00 62.68 <
-3 7 9 -1 337.06 545.00 197.41 <
-3 -7 9 -1 297.46 494.23 134.49 o
-3 7 9 0 65.12 60.37 103.03 <
-3 -7 9 0 63.43 65.64 59.19 <
-3 7 9 1 519.21 347.12 173.47 <
-3 -7 9 1 530.77 268.86 102.61 <
-3 7 9 2 73.05 152.32 115.17 <
-3 -7 9 2 66.35 65.76 70.03 <
-2 7 9 -2 98.22 66.53 100.84 <
-2 -7 9 -2 105.74 -22.69 63.99 <
-2 7 9 -1 437.72 368.57 151.14 <
-2 -7 9 -1 408.84 304.11 86.56 o
-2 7 9 0 325.10 498.97 177.32 <
-2 -7 9 0 328.42 404.88 116.30 o
-2 7 9 1 12.73 -25.30 60.02 <
-2 -7 9 1 25.76 -0.36 20.80 <
-2 7 9 2 168.33 23.40 80.93 <
-2 -7 9 2 164.60 63.81 88.69 <
-1 7 9 -2 18.10 66.41 74.47 <
-1 -7 9 -2 24.02 45.74 37.32 <
-1 7 9 -1 24.58 23.34 56.88 <
-1 -7 9 -1 41.56 7.46 41.71 <
-1 7 9 0 649.48 500.98 176.73 <
-1 -7 9 0 657.11 510.99 119.08 o
-1 7 9 1 823.67 769.48 216.25 o
-1 -7 9 1 824.97 850.77 236.15 o
-1 7 9 2 121.01 311.57 139.17 <
-1 -7 9 2 105.53 186.56 121.99 <
0 7 9 -2 109.29 29.33 40.58 <
0 -7 9 -2 99.44 86.38 62.50 <
0 7 9 -1 689.02 419.34 90.17 o
0 -7 9 -1 669.60 495.53 192.96 <
0 7 9 0 927.26 1023.29 141.12 o
0 -7 9 0 930.97 978.56 239.35 o
0 7 9 1 6.87 71.15 38.98 <
0 -7 9 1 22.81 118.96 101.13 <
0 7 9 2 118.85 69.20 44.73 <
0 -7 9 2 102.58 159.07 109.49 <
1 7 9 -2 104.16 84.72 49.00 <
1 -7 9 -2 90.95 88.69 71.27 <
1 7 9 -1 150.11 22.81 29.50 <
1 -7 9 -1 140.67 17.24 82.35 <
1 7 9 0 519.31 434.33 98.70 o
1 -7 9 0 544.47 422.18 178.62 <
1 7 9 1 3046.49 3769.80 308.02 o
1 -7 9 1 3062.12 3545.91 496.77 o
1 7 9 2 53.78 62.39 55.22 <
1 -7 9 2 48.93 83.77 91.89 <
2 7 9 -2 58.86 100.89 40.46 <
2 -7 9 -2 53.11 32.29 36.08 <
2 7 9 -1 62.33 58.06 45.74 <
2 -7 9 -1 70.41 110.91 61.02 <
2 7 9 0 188.10 152.20 75.89 <
2 -7 9 0 183.96 189.82 112.80 <
2 7 9 1 117.66 84.72 78.44 <
2 -7 9 1 105.32 34.18 104.57 <
2 7 9 2 10.03 42.18 98.17 <
2 -7 9 2 16.13 -21.09 76.01 <
3 7 9 -2 104.98 120.92 79.09 <
3 -7 9 -2 98.16 63.81 126.55 <
3 7 9 -1 89.93 146.40 99.00 <
3 -7 9 -1 90.21 104.81 116.06 <
3 7 9 0 96.53 120.62 84.07 <
3 -7 9 0 109.98 -14.16 98.70 <
3 7 9 1 240.26 93.37 62.21 <
3 -7 9 1 226.07 244.80 170.92 <
3 7 9 2 60.35 -102.14 158.07 <
3 -7 9 2 57.67 -74.00 75.30 <
4 7 9 -2 121.48 119.26 106.64 <
4 -7 9 -2 126.91 178.03 124.71 <
4 7 9 -1 41.28 16.65 61.73 <
4 -7 9 -1 47.20 42.18 118.85 <
4 7 9 0 174.49 376.57 207.89 <
4 -7 9 0 184.64 446.65 233.19 <
4 7 9 1 196.59 234.38 134.55 <
4 -7 9 1 196.26 234.55 172.94 <
4 7 9 2 98.96 31.52 93.37 <
4 -7 9 2 102.14 222.05 162.51 <
5 7 9 -2 51.72 82.47 73.94 <
5 -7 9 -2 53.30 49.23 65.58 <
5 7 9 -1 19.22 133.66 134.01 <
5 -7 9 -1 20.63 -45.86 58.83 <
-4 8 9 -2 25.42 239.53 153.68 <
-4 -8 9 -2 25.59 30.99 44.14 <
-4 8 9 -1 190.01 468.93 213.82 <
-4 -8 9 -1 199.66 250.85 148.11 <
-4 8 9 0 65.41 71.15 91.18 <
-4 -8 9 0 73.48 57.35 41.89 <
-4 -8 9 1 41.90 63.16 46.74 <
-4 8 9 2 75.26 53.62 89.46 <
-4 -8 9 2 68.00 -111.08 102.79 <
-3 8 9 -2 73.68 63.75 36.85 <
-3 -8 9 -2 72.13 97.16 45.09 <
-3 -8 9 -1 801.20 468.28 125.90 o
-3 8 9 0 1518.01 1577.65 353.52 o
-3 -8 9 0 1474.72 1295.94 217.79 o
-3 8 9 1 473.84 122.64 121.57 <
-3 -8 9 1 475.01 181.82 83.30 <
-3 8 9 2 263.35 235.92 150.01 <
-3 -8 9 2 276.90 96.04 71.33 <
-2 8 9 -2 41.85 191.66 126.67 <
-2 -8 9 -2 43.63 61.14 52.49 <
-2 8 9 -1 305.87 233.84 122.34 <
-2 -8 9 -1 313.97 196.28 73.41 <
-2 8 9 0 623.67 596.54 192.73 o
-2 -8 9 0 659.12 376.92 105.64 o
-2 8 9 1 35.35 49.53 79.15 <
-2 -8 9 1 43.65 54.27 50.54 <
-2 8 9 2 87.39 234.79 122.28 <
-2 -8 9 2 86.87 29.74 64.76 <
-1 8 9 -2 129.49 20.74 36.73 <
-1 -8 9 -2 130.24 32.11 41.59 <
-1 8 9 -1 1148.42 1168.56 249.19 o
-1 -8 9 -1 1206.96 1116.96 165.12 o
-1 8 9 0 2339.59 2349.50 359.86 o
-1 -8 9 0 2252.15 2402.94 395.23 o
-1 8 9 1 1196.97 1242.50 274.19 o
-1 -8 9 1 1237.60 934.12 276.91 o
-1 8 9 2 73.53 146.93 107.35 <
-1 -8 9 2 86.41 103.98 120.68 <
0 8 9 -2 69.24 176.26 69.79 <
0 -8 9 -2 70.09 229.81 122.22 <
0 8 9 -1 412.35 433.08 97.34 o
0 -8 9 -1 384.41 511.70 172.88 <
0 8 9 0 420.90 266.43 80.34 o
0 -8 9 0 445.77 258.96 123.05 <
0 8 9 1 179.13 104.92 53.44 <
0 -8 9 1 153.57 254.99 146.93 <
0 8 9 2 64.06 120.92 71.81 <
0 -8 9 2 73.36 91.00 76.66 <
1 8 9 -2 75.23 55.69 40.05 <
1 -8 9 -2 75.69 117.72 65.17 <
1 8 9 -1 725.80 701.11 119.56 o
1 -8 9 -1 760.15 832.58 213.64 o
1 8 9 0 1811.23 1558.28 175.54 o
1 -8 9 0 1690.96 1711.61 318.21 o
1 8 9 1 145.27 88.69 51.07 <
1 -8 9 1 151.79 257.24 158.60 <
1 8 9 2 32.02 150.07 89.40 <
1 -8 9 2 30.39 -43.25 55.63 <
2 8 9 -2 185.92 -15.11 42.60 <
2 -8 9 -2 189.79 -15.64 28.73 <
2 8 9 -1 357.34 190.00 82.23 <
2 -8 9 -1 309.10 246.52 94.85 <
2 8 9 0 573.97 305.71 100.72 o
2 -8 9 0 585.91 411.22 161.38 <
2 8 9 1 359.86 273.95 98.58 <
2 -8 9 1 307.87 362.05 155.93 <
2 8 9 2 20.75 -62.50 71.98 <
2 -8 9 2 25.13 -10.84 18.48 <
3 8 9 -2 62.62 74.77 76.07 <
3 -8 9 -2 72.60 -15.58 32.29 <
3 8 9 -1 90.02 96.69 70.15 <
3 -8 9 -1 95.99 144.20 110.97 <
3 8 9 0 1125.03 831.99 191.42 o
3 -8 9 0 1090.37 1163.29 311.51 o
3 8 9 1 273.52 220.45 87.15 <
3 -8 9 1 267.80 238.58 112.09 <
3 8 9 2 36.53 -14.87 116.60 <
3 -8 9 2 31.40 -29.62 54.51 <
4 8 9 -2 208.36 61.14 53.14 <
4 -8 9 -2 210.85 71.27 25.53 <
4 8 9 -1 42.79 97.40 70.21 <
4 -8 9 -1 26.88 47.87 76.13 <
4 8 9 0 53.64 133.30 99.35 <
4 -8 9 0 56.43 105.10 71.51 <
4 8 9 1 143.43 157.36 138.04 <
4 -8 9 1 120.30 127.79 112.63 <
4 8 9 2 84.35 111.68 117.96 <
5 8 9 -2 51.78 88.87 116.60 <
5 -8 9 -2 56.26 49.06 45.97 <
5 8 9 -1 42.67 110.85 123.29 <
-4 9 9 -2 21.28 85.49 121.87 <
-4 -9 9 -2 24.08 48.52 50.83 <
-4 9 9 -1 19.39 229.64 171.16 <
-4 -9 9 -1 22.37 99.35 74.77 <
-4 9 9 0 163.15 293.56 184.91 <
-4 -9 9 0 151.29 -58.89 102.02 <
-4 9 9 1 29.31 61.73 73.41 <
-4 -9 9 1 24.24 84.66 68.90 <
-4 9 9 2 66.10 68.37 92.72 <
-4 -9 9 2 70.21 -11.85 35.73 <
-3 9 9 -2 28.64 -1.30 49.77 <
-3 -9 9 -2 28.74 37.56 33.65 <
-3 9 9 -1 165.12 124.47 118.79 <
-3 -9 9 -1 174.85 112.68 60.02 <
-3 9 9 0 2087.52 2711.08 454.30 o
-3 -9 9 0 2159.46 2045.69 266.25 o
-3 -9 9 1 59.63 -1.42 29.27 <
-3 9 9 2 19.96 -50.54 37.50 <
-3 -9 9 2 25.77 -71.86 42.89 <
-2 9 9 -2 103.48 131.94 94.02 <
-2 -9 9 -2 110.44 88.16 50.12 <
-2 9 9 -1 39.68 288.29 161.21 <
-2 -9 9 -1 44.09 135.73 72.52 <
-2 9 9 0 541.29 343.51 163.04 <
-2 -9 9 0 523.26 198.95 95.86 <
-2 9 9 1 153.51 -4.62 14.28 <
-2 -9 9 1 144.66 64.52 58.48 <
-2 9 9 2 66.33 159.13 114.88 <
-2 -9 9 2 75.73 80.69 68.96 <
-1 9 9 -2 93.03 0.77 34.60 <
-1 -9 9 -2 93.62 46.63 33.59 <
-1 9 9 -1 660.58 789.62 235.56 o
-1 -9 9 -1 698.80 946.57 166.48 o
-1 9 9 0 3989.24 5036.11 529.24 o
-1 -9 9 0 4136.61 5453.14 608.93 o
-1 9 9 1 191.54 121.22 79.74 <
-1 -9 9 1 185.08 103.50 128.98 <
-1 9 9 2 31.71 104.21 67.01 <
-1 -9 9 2 46.19 148.53 91.59 <
0 9 9 -2 204.88 261.98 79.63 o
0 -9 9 -2 213.25 278.28 121.51 <
0 9 9 -1 112.67 204.57 77.97 <
0 -9 9 -1 114.76 284.62 133.36 <
0 9 9 0 1483.29 909.12 135.49 o
0 -9 9 0 1443.54 771.85 207.42 o
0 9 9 1 320.96 370.05 95.39 o
0 -9 9 1 355.72 277.86 126.85 <
0 9 9 2 36.15 144.44 65.58 <
0 -9 9 2 40.48 194.98 103.50 <
1 9 9 -2 114.77 266.90 63.51 o
1 -9 9 -2 115.48 148.71 98.17 <
1 9 9 -1 85.93 71.69 51.48 <
1 -9 9 -1 89.57 54.27 67.01 <
1 9 9 0 4141.00 4936.58 310.57 o
1 -9 9 0 4253.00 5118.11 560.34 o
1 9 9 1 116.62 -10.13 66.30 <
1 -9 9 1 113.15 3.02 78.74 <
1 9 9 2 274.52 255.41 97.04 <
1 -9 9 2 288.54 202.56 133.72 <
2 9 9 -2 194.10 109.19 89.52 <
2 -9 9 -2 198.41 184.13 68.13 <
2 9 9 -1 22.90 -49.29 64.81 <
2 -9 9 -1 21.99 11.73 51.13 <
2 9 9 0 722.26 163.22 76.13 <
2 -9 9 0 705.17 291.37 99.83 <
2 9 9 1 262.52 197.23 86.56 <
2 -9 9 1 301.66 305.83 144.91 <
2 9 9 2 40.47 -22.93 53.02 <
2 -9 9 2 51.71 58.48 49.94 <
3 9 9 -2 140.44 -15.52 20.20 <
3 -9 9 -2 134.32 18.60 20.74 <
3 9 9 -1 184.24 190.48 149.95 <
3 -9 9 -1 185.24 139.29 108.18 <
3 9 9 0 1225.91 1373.08 236.45 o
3 -9 9 0 1252.27 1544.95 365.31 o
3 9 9 1 368.82 163.70 87.80 <
3 -9 9 1 369.68 376.33 194.98 <
3 9 9 2 83.98 -12.74 93.67 <
3 -9 9 2 82.98 55.34 81.29 <
4 9 9 -2 91.16 37.21 61.73 <
4 -9 9 -2 93.45 178.09 127.44 <
4 9 9 -1 11.03 119.44 73.46 <
4 -9 9 -1 9.31 136.15 113.63 <
4 9 9 0 158.83 51.01 85.91 <
4 -9 9 0 154.06 -83.60 107.00 <
4 9 9 1 112.79 74.71 120.39 <
4 -9 9 1 128.19 78.92 15.46 o
4 9 9 2 73.70 74.41 109.78 <
5 9 9 -2 49.18 279.28 128.50 <
5 -9 9 -2 43.86 197.05 160.02 <
5 9 9 -1 88.89 -13.03 40.52 <
-4 10 9 -2 19.60 -79.57 89.40 <
-4 -10 9 -2 16.62 -15.34 54.45 <
-4 10 9 -1 444.71 563.54 250.61 <
-4 -10 9 -1 409.07 466.74 186.09 <
-4 10 9 0 181.93 160.32 141.36 <
-4 -10 9 0 183.21 62.33 62.44 <
-4 10 9 1 68.30 74.47 99.65 <
-4 -10 9 1 59.80 25.83 76.72 <
-4 10 9 2 120.86 74.29 87.15 <
-4 -10 9 2 128.92 58.24 75.18 <
-3 10 9 -2 60.05 151.73 117.54 <
-3 -10 9 -2 57.69 64.70 70.74 <
-3 10 9 -1 133.76 80.46 92.96 <
-3 -10 9 -1 113.12 31.34 19.20 <
-3 -10 9 0 366.29 306.60 108.12 <
-3 10 9 1 130.85 39.16 73.94 <
-3 -10 9 1 152.07 106.35 69.85 <
-3 10 9 2 117.57 -93.43 92.01 <
-3 -10 9 2 127.83 -4.80 33.59 <
-2 10 9 -2 94.55 138.28 127.20 <
-2 -10 9 -2 92.73 126.37 48.76 <
-2 10 9 -1 906.02 1193.50 289.30 o
-2 -10 9 -1 837.96 885.48 160.38 o
-2 10 9 0 1429.01 1436.05 322.18 o
-2 -10 9 0 1437.72 1137.46 181.82 o
-2 10 9 1 116.71 46.45 57.82 <
-2 -10 9 1 84.51 100.12 94.26 <
-2 10 9 2 149.29 94.85 96.10 <
-2 -10 9 2 147.67 143.85 80.22 <
-1 10 9 -2 155.87 36.91 50.30 <
-1 -10 9 -2 159.88 124.42 62.80 <
-1 10 9 -1 2001.07 2020.33 247.65 o
-1 -10 9 -1 2058.07 2203.64 233.19 o
-1 10 9 0 610.45 858.35 167.13 o
-1 -10 9 0 596.53 787.32 223.89 o
-1 10 9 1 144.13 186.80 121.04 <
-1 -10 9 1 146.16 153.57 102.67 <
-1 10 9 2 56.47 96.21 79.33 <
-1 -10 9 2 58.60 58.95 84.07 <
0 10 9 -2 67.52 79.39 49.65 <
0 -10 9 -2 62.85 45.62 51.25 <
0 10 9 -1 942.63 941.00 150.13 o
0 -10 9 -1 892.73 806.75 201.20 o
0 10 9 0 1193.68 1056.65 145.92 o
0 -10 9 0 1199.95 925.47 222.59 o
0 10 9 1 59.38 189.53 77.73 <
0 -10 9 1 42.08 156.65 100.30 <
0 10 9 2 88.34 64.46 48.34 <
0 -10 9 2 90.52 66.65 49.29 <
1 10 9 -2 62.48 67.36 47.10 <
1 -10 9 -2 62.86 49.11 51.37 <
1 10 9 -1 190.65 57.11 38.04 <
1 -10 9 -1 200.23 197.17 117.96 <
1 10 9 0 647.02 823.40 130.52 o
1 -10 9 0 624.01 790.69 232.30 o
1 10 9 1 139.74 213.40 75.12 <
1 -10 9 1 129.70 132.95 88.57 <
1 10 9 2 64.27 148.29 75.42 <
1 -10 9 2 69.92 58.06 58.59 <
2 10 9 -2 161.70 -59.13 84.60 <
2 -10 9 -2 157.50 -47.46 74.83 <
2 10 9 -1 257.93 39.40 85.02 <
2 -10 9 -1 245.14 26.78 43.01 <
2 10 9 0 1387.10 617.93 151.79 o
2 -10 9 0 1390.72 1127.98 200.13 o
2 10 9 1 65.80 104.27 77.73 <
2 -10 9 1 65.03 129.69 103.56 <
2 10 9 2 69.02 113.46 58.65 <
2 -10 9 2 69.75 143.55 117.19 <
3 10 9 -2 218.72 45.15 49.71 <
3 -10 9 -2 211.57 191.07 88.28 <
3 10 9 -1 306.58 363.41 134.43 <
3 -10 9 -1 327.26 270.28 172.94 <
3 10 9 0 340.09 347.95 119.20 <
3 -10 9 0 323.19 604.07 229.10 <
3 10 9 1 153.00 225.96 94.32 <
3 -10 9 1 173.72 209.73 142.25 <
3 10 9 2 35.83 21.92 92.72 <
3 -10 9 2 44.47 38.21 90.17 <
4 10 9 -2 164.08 10.66 70.21 <
4 -10 9 -2 156.32 60.79 128.98 <
4 10 9 -1 31.78 36.91 73.94 <
4 -10 9 -1 34.63 -57.17 94.14 <
4 10 9 0 158.54 113.75 91.89 <
4 -10 9 0 157.62 324.13 190.71 <
4 10 9 1 23.91 29.21 45.74 <
4 -10 9 1 30.21 -85.08 100.24 <
4 10 9 2 51.53 100.07 129.39 <
5 10 9 -2 136.34 86.97 90.29 <
5 -10 9 -2 130.72 193.32 140.65 <
-4 11 9 -2 45.82 -128.68 94.85 <
-4 -11 9 -2 53.88 224.60 167.19 <
-4 11 9 -1 68.61 102.97 128.03 <
-4 -11 9 -1 72.79 170.80 121.22 <
-4 11 9 0 226.25 518.04 248.77 <
-4 -11 9 0 217.72 139.35 75.72 <
-4 11 9 1 25.61 268.32 186.39 <
-4 -11 9 1 35.68 -87.27 107.53 <
-4 11 9 2 115.40 235.86 180.99 <
-4 -11 9 2 116.57 99.47 89.70 <
-3 11 9 -2 17.93 76.43 119.79 <
-3 -11 9 -2 15.25 -73.76 66.95 <
-3 11 9 -1 111.46 278.81 161.15 <
-3 -11 9 -1 135.61 111.14 60.19 <
-3 11 9 0 215.63 62.50 39.69 <
-3 -11 9 0 199.78 -11.73 59.13 <
-3 11 9 1 148.73 116.83 71.57 <
-3 -11 9 1 155.51 -54.03 49.88 <
-3 11 9 2 53.81 130.28 101.31 <
-3 -11 9 2 55.74 57.53 64.04 <
-2 11 9 -2 239.32 147.34 127.20 <
-2 -11 9 -2 231.41 56.99 57.47 <
-2 11 9 -1 9.87 85.73 88.10 <
-2 -11 9 -1 14.85 106.35 66.95 <
-2 11 9 0 72.07 -6.99 37.98 <
-2 -11 9 0 48.11 51.78 47.81 <
-2 11 9 1 57.15 27.25 29.33 <
-2 -11 9 1 73.41 -6.34 61.32 <
-2 11 9 2 151.13 237.99 125.84 <
-2 -11 9 2 147.12 209.91 155.58 <
-1 11 9 -2 175.24 26.42 33.30 <
-1 -11 9 -2 170.97 69.02 50.60 <
-1 11 9 -1 33.18 93.67 61.79 <
-1 11 9 0 437.82 357.43 121.75 <
-1 11 9 1 82.25 102.61 77.37 <
-1 11 9 2 55.56 116.48 93.02 <
0 11 9 -2 96.84 68.01 56.70 <
0 -11 9 -2 96.72 93.07 78.20 <
0 11 9 -1 93.70 135.61 56.34 <
0 -11 9 -1 85.33 172.17 107.94 <
0 11 9 0 1088.57 1468.22 180.23 o
0 -11 9 0 1117.27 1472.55 284.67 o
0 11 9 1 132.46 46.98 53.62 <
0 -11 9 1 159.69 69.67 62.44 <
0 11 9 2 131.72 176.26 68.13 <
0 -11 9 2 131.03 226.91 124.30 <
1 11 9 -2 47.52 -51.90 35.67 <
1 -11 9 -2 45.15 21.39 49.06 <
1 11 9 -1 113.13 166.30 66.06 <
1 -11 9 -1 109.44 180.05 108.36 <
1 11 9 0 392.42 116.95 66.30 <
1 -11 9 0 341.32 276.91 134.13 <
1 11 9 1 651.18 474.85 128.56 o
1 -11 9 1 636.10 663.85 202.92 o
1 11 9 2 52.68 71.81 65.35 <
1 -11 9 2 53.75 26.96 35.84 <
2 11 9 -2 56.06 30.04 44.67 <
2 -11 9 -2 54.27 57.11 82.83 <
2 11 9 -1 142.41 -43.13 77.49 <
2 -11 9 -1 147.32 -85.02 85.49 <
2 11 9 0 6.03 21.62 57.05 <
2 -11 9 0 18.27 42.24 57.05 <
2 11 9 1 145.27 -11.79 57.41 <
2 -11 9 1 150.47 103.92 88.87 <
2 11 9 2 259.04 97.81 92.72 <
2 -11 9 2 251.16 242.20 117.37 <
3 11 9 -2 26.35 -14.52 59.90 <
3 -11 9 -2 25.25 -17.60 59.30 <
3 11 9 -1 50.53 70.98 63.81 <
3 -11 9 -1 50.68 12.20 49.65 <
3 11 9 0 279.89 53.85 79.45 <
3 -11 9 0 251.11 267.67 160.67 <
3 11 9 1 87.76 118.61 55.45 <
3 -11 9 1 76.34 188.70 141.95 <
3 11 9 2 22.98 26.42 43.19 <
3 -11 9 2 19.61 -68.72 60.85 <
4 11 9 -2 93.66 -37.80 46.27 <
4 -11 9 -2 93.22 -60.73 130.58 <
4 11 9 -1 97.85 36.44 84.37 <
4 -11 9 -1 100.00 -150.43 157.30 <
4 11 9 0 66.59 63.57 100.12 <
4 -11 9 0 61.57 2.73 8.06 <
4 -11 9 1 164.43 220.93 143.97 <
5 -11 9 -2 10.39 -28.97 81.52 <
-4 12 9 -2 70.24 -7.52 104.21 <
-4 -12 9 -2 62.98 75.95 80.75 <
-4 12 9 -1 16.85 -11.32 54.57 <
-4 -12 9 -1 12.19 142.01 128.80 <
-4 12 9 0 72.70 197.35 133.12 <
-4 -12 9 0 64.78 34.78 27.13 <
-4 12 9 1 247.49 207.89 156.29 <
-4 -12 9 1 228.09 149.00 96.81 <
-4 12 9 2 37.60 70.68 100.48 <
-4 -12 9 2 40.73 22.63 52.20 <
-3 12 9 -2 14.56 207.89 158.66 <
-3 -12 9 -2 16.27 12.38 23.05 <
-3 12 9 -1 240.19 267.43 151.08 <
-3 -12 9 -1 247.14 92.30 43.25 <
-3 -12 9 0 1026.62 517.39 121.45 o
-3 12 9 1 63.78 7.88 74.23 <
-3 -12 9 1 68.14 -20.74 34.18 <
-3 12 9 2 77.07 -35.61 24.88 <
-3 -12 9 2 72.22 -89.76 75.95 <
-2 12 9 -2 181.47 4.15 32.53 <
-2 -12 9 -2 203.02 -1.54 26.78 <
-2 12 9 -1 66.08 5.63 34.36 <
-2 -12 9 -1 77.56 14.69 10.19 <
-2 12 9 0 185.32 96.51 114.05 <
-2 -12 9 0 179.70 43.31 39.04 <
-2 12 9 1 305.97 102.26 81.40 <
-2 -12 9 1 283.65 65.58 96.63 <
-2 12 9 2 21.24 11.20 43.37 <
-2 -12 9 2 26.16 89.22 108.24 <
-1 12 9 -2 7.71 22.57 40.58 <
-1 -12 9 -2 5.12 41.65 50.65 <
-1 12 9 -1 431.63 600.57 143.97 o
-1 12 9 0 1771.14 2043.50 270.81 o
-1 12 9 1 4.38 138.57 91.42 <
-1 12 9 2 16.68 -104.39 82.35 <
0 12 9 -2 237.73 121.69 54.21 <
0 12 9 -1 115.86 147.94 59.48 <
0 12 9 0 1324.82 1354.71 173.59 o
0 12 9 1 625.89 445.05 105.46 o
0 12 9 2 50.30 3.32 46.39 <
0 -12 9 2 56.70 56.99 69.67 <
1 12 9 -2 24.72 34.90 50.36 <
1 -12 9 -2 24.10 -51.43 51.96 <
1 12 9 -1 128.41 168.32 95.62 <
1 -12 9 -1 132.78 223.00 135.43 <
1 12 9 0 1593.08 1254.70 218.26 o
1 -12 9 0 1588.17 1496.07 301.26 o
1 12 9 1 13.68 40.46 48.52 <
1 -12 9 1 15.22 45.32 43.60 <
1 12 9 2 6.15 43.55 62.56 <
1 -12 9 2 4.33 99.77 87.15 <
2 12 9 -2 98.54 -12.50 48.82 <
2 -12 9 -2 90.64 50.77 56.70 <
2 12 9 -1 59.54 132.77 80.46 <
2 -12 9 -1 65.92 -35.67 44.26 <
2 12 9 0 317.08 159.31 61.38 <
2 -12 9 0 314.99 193.67 77.73 <
2 12 9 1 129.94 45.03 60.79 <
2 -12 9 1 111.93 45.15 63.10 <
2 12 9 2 253.20 261.39 100.07 <
2 -12 9 2 264.75 225.61 130.10 <
3 12 9 -2 3.19 46.15 35.67 <
3 -12 9 -2 2.49 119.91 58.18 <
3 12 9 -1 78.19 102.50 70.74 <
3 -12 9 -1 77.04 75.36 67.01 <
3 12 9 0 708.81 432.37 137.86 o
3 -12 9 0 696.66 675.10 265.18 <
3 12 9 1 17.71 99.83 75.48 <
3 -12 9 1 15.31 61.50 38.15 <
3 12 9 2 36.06 27.79 35.49 <
3 -12 9 2 39.14 -109.90 121.69 <
4 12 9 -2 33.09 49.94 42.72 <
4 -12 9 -2 32.53 33.06 18.60 <
4 12 9 -1 48.52 32.53 59.54 <
4 -12 9 -1 51.53 51.66 77.91 <
4 12 9 0 161.17 305.47 186.51 <
4 -12 9 0 160.39 202.50 151.49 <
-4 -13 9 -2 68.21 323.54 162.33 <
-4 -13 9 -1 444.54 420.82 191.84 <
-4 -13 9 0 96.50 316.73 180.40 <
-4 13 9 1 38.66 82.35 80.34 <
-4 -13 9 1 36.94 109.37 114.64 <
-4 13 9 2 12.40 -74.41 83.18 <
-3 13 9 -2 48.11 158.30 114.17 <
-3 -13 9 -2 37.23 30.75 60.25 <
-3 13 9 -1 36.58 52.49 10.60 o
-3 -13 9 -1 37.93 -55.16 70.03 <
-3 13 9 0 139.99 189.88 113.69 <
-3 -13 9 0 141.74 116.83 75.06 <
-3 13 9 1 167.55 -0.95 61.85 <
-3 -13 9 1 169.89 -5.10 49.00 <
-3 13 9 2 85.34 30.04 13.33 <
-3 -13 9 2 94.19 56.28 18.31 o
-2 13 9 -2 365.18 450.56 211.03 <
-2 -13 9 -2 358.70 262.99 102.73 <
-2 13 9 -1 661.69 620.12 216.96 <
-2 -13 9 -1 654.25 507.73 127.67 o
-2 13 9 0 111.59 312.05 147.11 <
-2 -13 9 0 123.18 160.79 122.99 <
-2 13 9 1 53.01 23.58 58.77 <
-2 -13 9 1 54.23 83.24 94.85 <
-2 13 9 2 31.20 -54.27 48.40 <
-2 -13 9 2 34.08 120.86 103.38 <
-1 13 9 -2 12.23 -1.66 46.27 <
-1 13 9 -1 84.16 163.99 93.19 <
-1 13 9 0 80.85 203.75 97.40 <
-1 13 9 1 158.39 254.46 105.34 <
-1 13 9 2 51.34 195.21 105.46 <
0 13 9 -2 66.48 413.48 115.17 o
0 13 9 -1 539.04 509.22 121.93 o
0 13 9 0 3626.88 4791.13 323.36 o
0 13 9 1 81.30 17.71 48.11 <
0 13 9 2 40.53 59.42 54.21 <
1 13 9 -2 17.86 -25.65 23.05 <
1 -13 9 -2 19.64 25.59 71.51 <
1 13 9 -1 130.21 80.34 51.01 <
1 -13 9 -1 129.93 119.08 93.31 <
1 13 9 0 117.82 48.82 72.52 <
1 -13 9 0 119.68 130.93 94.79 <
1 13 9 1 14.00 37.92 67.13 <
1 -13 9 1 9.12 67.01 76.49 <
1 13 9 2 61.25 43.66 84.25 <
1 -13 9 2 55.47 6.04 64.16 <
2 13 9 -2 81.10 156.82 72.64 <
2 -13 9 -2 79.72 125.54 90.41 <
2 13 9 -1 9.84 -18.54 30.69 <
2 -13 9 -1 10.70 35.96 54.92 <
2 13 9 0 101.62 227.09 100.95 <
2 -13 9 0 109.98 153.57 84.25 <
2 13 9 1 77.47 5.27 54.57 <
2 -13 9 1 94.43 57.05 43.84 <
2 13 9 2 74.99 58.77 82.23 <
2 -13 9 2 79.70 89.28 122.11 <
3 13 9 -2 34.72 -86.38 57.17 <
3 -13 9 -2 28.57 51.01 65.58 <
3 13 9 -1 134.65 21.86 68.07 <
3 -13 9 -1 136.34 26.25 36.85 <
3 13 9 0 165.05 20.68 85.08 <
3 -13 9 0 163.94 -47.99 65.76 <
3 13 9 1 0.79 -78.92 81.34 <
3 -13 9 1 2.54 105.93 119.56 <
3 13 9 2 11.13 -6.87 45.80 <
3 -13 9 2 10.08 -65.23 70.56 <
4 13 9 -2 62.29 132.24 126.73 <
4 -13 9 -2 58.45 101.31 61.79 <
4 13 9 -1 20.59 -30.27 85.31 <
4 -13 9 -1 21.52 -53.74 69.67 <
4 -13 9 0 68.19 151.08 130.81 <
-4 -14 9 -1 182.01 -43.31 70.92 <
-4 -14 9 0 871.81 1158.73 314.06 o
-4 -14 9 1 44.20 94.44 90.53 <
-3 14 9 -2 10.13 -12.68 42.54 <
-3 -14 9 -2 10.04 27.31 70.09 <
-3 14 9 -1 42.87 101.67 114.23 <
-3 -14 9 -1 37.98 100.54 91.18 <
-3 14 9 0 43.40 86.68 73.52 <
-3 -14 9 0 50.54 15.29 66.83 <
-3 14 9 1 35.90 44.43 78.86 <
-3 -14 9 1 39.17 -162.27 115.29 <
-3 14 9 2 26.23 65.94 34.60 <
-3 -14 9 2 24.80 -46.33 33.30 <
-2 14 9 -2 411.07 366.14 178.33 <
-2 -14 9 -2 395.66 274.43 98.88 <
-2 14 9 -1 483.86 465.61 206.47 <
-2 -14 9 -1 496.73 360.75 98.94 o
-2 14 9 0 2451.71 3271.19 526.34 o
-2 -14 9 0 2474.80 1501.28 338.77 o
-2 14 9 1 58.29 122.58 127.97 <
-2 -14 9 1 55.10 69.20 104.75 <
-2 14 9 2 47.75 128.86 123.11 <
-1 14 9 -2 57.38 -12.50 61.50 <
-1 14 9 -1 212.73 174.30 83.77 <
-1 14 9 0 164.65 206.65 109.01 <
-1 14 9 1 41.51 31.87 26.13 <
-1 14 9 2 24.61 185.32 100.84 <
0 14 9 -2 213.04 294.75 95.74 o
0 14 9 -1 1100.72 1128.98 162.10 o
0 14 9 0 2902.99 3413.43 277.21 o
0 14 9 1 2.35 193.62 109.25 <
0 14 9 2 14.94 -22.69 29.92 <
1 14 9 -2 10.47 104.86 71.98 <
1 14 9 -1 178.65 78.74 69.26 <
1 14 9 0 111.81 -5.63 74.71 <
1 14 9 1 76.51 136.38 79.98 <
1 14 9 2 11.45 -1.78 34.66 <
1 -14 9 2 15.75 116.71 136.44 <
2 14 9 -2 119.91 35.96 50.30 <
2 -14 9 -2 118.81 -12.80 59.72 <
2 14 9 -1 414.89 150.96 78.50 <
2 -14 9 -1 422.13 185.62 88.93 <
2 14 9 0 2258.41 1991.54 277.57 o
2 -14 9 0 2257.12 2769.79 438.30 o
2 14 9 1 25.86 -6.04 37.86 <
2 -14 9 1 27.27 -15.11 62.03 <
2 14 9 2 24.33 42.18 87.98 <
2 -14 9 2 22.45 28.44 49.35 <
3 14 9 -2 13.50 -55.99 84.72 <
3 -14 9 -2 17.61 46.69 45.86 <
3 14 9 -1 111.79 -78.20 75.72 <
3 -14 9 -1 115.99 47.75 41.29 <
3 14 9 0 7.13 -87.09 82.83 <
3 -14 9 0 3.51 174.36 146.69 <
3 14 9 1 84.49 66.89 81.52 <
3 -14 9 1 102.39 342.56 168.97 <
3 14 9 2 10.26 -73.58 110.02 <
3 -14 9 2 11.52 -276.68 160.79 <
4 14 9 -2 105.82 146.40 127.73 <
4 -14 9 -2 108.11 101.96 140.06 <
4 14 9 -1 96.21 189.29 148.17 <
4 -14 9 -1 99.40 -102.32 52.79 <
4 -14 9 0 623.56 634.52 278.87 <
-4 -15 9 0 285.90 96.45 88.22 <
-3 15 9 -2 26.35 -71.04 81.40 <
-3 -15 9 -2 25.34 -6.40 22.99 <
-3 15 9 -1 20.00 83.95 71.57 <
-3 -15 9 -1 21.58 4.09 52.91 <
-3 15 9 0 15.44 74.83 111.68 <
-3 15 9 1 30.95 -54.86 88.04 <
-3 15 9 2 25.47 55.22 79.21 <
-2 -15 9 -2 140.59 107.89 72.64 <
-2 15 9 -1 120.05 188.82 143.20 <
-2 -15 9 -1 149.40 -3.85 69.85 <
-2 15 9 0 1439.63 1887.86 420.41 o
-2 -15 9 0 1376.23 733.58 239.23 o
-2 15 9 1 52.03 63.33 84.25 <
-2 -15 9 1 48.16 -7.82 64.34 <
-2 15 9 2 98.78 48.82 57.59 <
-1 15 9 -2 112.84 -36.79 69.44 <
-1 15 9 -1 31.91 -77.55 68.72 <
-1 15 9 0 77.82 96.93 80.22 <
-1 15 9 1 318.26 88.22 67.13 <
-1 15 9 2 27.42 130.99 80.16 <
0 15 9 -2 113.65 124.59 65.17 <
0 15 9 -1 78.63 170.04 71.81 <
0 15 9 0 815.70 837.50 183.07 o
0 15 9 1 114.86 116.48 78.62 <
0 15 9 2 112.67 108.42 139.05 <
1 15 9 -2 89.00 50.54 64.87 <
1 15 9 -1 48.11 62.68 84.54 <
1 15 9 0 52.85 29.45 73.52 <
1 15 9 1 55.21 -17.60 92.66 <
1 15 9 2 7.94 18.25 61.26 <
1 -15 9 2 10.60 27.02 101.31 <
2 15 9 -2 148.32 164.76 87.33 <
2 -15 9 -2 149.52 161.86 113.16 <
2 15 9 -1 208.29 305.06 109.90 <
2 -15 9 -1 200.14 219.86 166.95 <
2 15 9 0 1394.15 608.51 247.47 <
2 -15 9 0 1325.01 335.74 156.88 <
2 15 9 1 31.52 51.19 72.28 <
2 -15 9 1 39.10 40.58 23.28 <
2 15 9 2 261.03 276.86 160.73 <
3 15 9 -2 95.94 38.98 45.97 <
3 -15 9 -2 95.47 -14.52 41.95 <
3 15 9 -1 57.03 74.47 102.38 <
3 -15 9 -1 61.57 -26.07 55.22 <
3 15 9 0 21.99 35.96 6.99 o
3 -15 9 0 33.14 59.36 119.44 <
3 15 9 1 378.08 522.96 220.87 <
3 -15 9 1 376.23 629.19 256.53 <
4 15 9 -2 95.73 134.84 161.15 <
4 -15 9 -2 91.14 40.70 59.60 <
4 -15 9 -1 100.11 152.56 140.83 <
-3 16 9 -2 13.89 -58.53 102.55 <
-3 -16 9 -2 15.21 78.32 65.70 <
-3 16 9 -1 34.47 -35.13 64.46 <
-3 -16 9 -1 42.60 169.09 133.95 <
-3 16 9 0 474.54 401.63 214.47 <
-3 16 9 1 24.05 -12.97 21.33 <
-3 16 9 2 48.83 62.39 87.09 <
-2 16 9 -2 69.00 86.20 88.16 <
-2 -16 9 -2 62.26 115.00 87.15 <
-2 16 9 -1 92.45 229.34 125.01 <
-2 -16 9 -1 90.24 95.39 99.83 <
-2 16 9 0 326.01 571.90 221.16 <
-2 -16 9 0 326.04 173.59 132.95 <
-2 16 9 1 11.08 15.94 57.41 <
-2 -16 9 1 11.28 113.69 111.38 <
-2 16 9 2 39.23 13.69 56.16 <
-1 16 9 -2 122.85 113.69 67.30 <
-1 16 9 -1 1054.61 944.49 208.37 o
-1 16 9 0 1160.29 1196.05 227.98 o
-1 16 9 1 34.29 -18.43 61.20 <
-1 16 9 2 52.76 6.64 84.19 <
0 16 9 -2 124.73 76.13 53.08 <
0 16 9 -1 41.28 165.29 92.01 <
0 16 9 0 166.52 244.62 106.29 <
0 16 9 1 15.27 140.65 154.16 <
0 16 9 2 29.95 -127.26 143.14 <
1 16 9 -2 70.59 71.21 75.42 <
1 16 9 -1 12.43 78.14 56.58 <
1 16 9 0 1459.37 1325.80 230.41 o
1 16 9 1 279.15 416.44 123.17 o
1 16 9 2 4.63 20.14 49.65 <
1 -16 9 2 3.64 97.81 141.06 <
2 16 9 -2 66.09 126.96 105.58 <
2 -16 9 -2 61.85 151.20 143.32 <
2 16 9 -1 72.50 245.04 157.12 <
2 -16 9 -1 73.93 237.34 162.81 <
2 16 9 0 253.57 208.84 100.84 <
2 -16 9 0 253.53 194.21 172.35 <
2 16 9 1 48.23 0.53 71.63 <
2 -16 9 1 44.52 11.91 94.91 <
2 16 9 2 94.51 175.72 110.02 <
3 16 9 -2 62.98 65.58 69.44 <
3 -16 9 -2 59.42 -239.12 177.56 <
3 16 9 -1 31.63 86.02 87.80 <
3 -16 9 -1 32.55 -114.40 99.95 <
3 16 9 0 584.07 680.08 252.21 <
3 16 9 1 23.20 130.70 126.19 <
4 16 9 -2 37.53 -16.29 55.51 <
4 -16 9 -2 37.13 -44.08 83.18 <
-3 17 9 -2 48.90 304.88 188.46 <
-3 -17 9 -2 42.91 168.38 105.34 <
-3 17 9 -1 366.35 607.15 267.20 <
-3 17 9 0 145.94 276.20 185.08 <
-3 17 9 1 18.92 -59.72 72.99 <
-3 17 9 2 68.79 -41.95 11.38 <
-2 17 9 -2 28.78 5.63 31.52 <
-2 17 9 -1 36.71 149.83 108.95 <
-2 17 9 0 109.69 58.53 64.46 <
-2 -17 9 0 90.94 95.68 125.60 <
-2 17 9 1 169.89 145.09 95.68 <
-2 -17 9 1 171.27 53.38 82.71 <
-2 17 9 2 41.51 -14.52 61.20 <
-1 17 9 -2 75.31 169.44 101.25 <
-1 17 9 -1 947.08 1061.98 222.47 o
-1 17 9 0 402.52 567.34 157.18 o
-1 17 9 1 28.82 -232.84 150.78 <
-1 17 9 2 49.44 6.22 68.72 <
0 17 9 -2 27.31 124.53 81.64 <
0 17 9 -1 80.59 130.22 58.77 <
0 17 9 0 72.27 92.90 87.15 <
0 17 9 1 201.63 64.99 45.15 <
0 17 9 2 29.29 -9.83 95.39 <
1 17 9 -2 57.76 52.02 60.96 <
1 17 9 -1 268.16 206.29 120.45 <
1 17 9 0 217.92 336.04 162.33 <
1 17 9 1 307.81 345.34 163.99 <
1 -17 9 1 280.10 806.92 315.78 <
1 17 9 2 11.52 7.58 12.74 <
1 -17 9 2 8.86 308.61 244.09 <
2 17 9 -2 46.43 19.20 37.62 <
2 -17 9 -2 40.26 347.89 241.90 <
2 17 9 -1 56.16 -7.29 45.20 <
2 -17 9 -1 51.67 40.82 111.03 <
2 17 9 0 62.73 133.30 109.60 <
2 -17 9 0 54.90 51.37 75.83 <
2 17 9 1 78.95 170.98 109.13 <
2 -17 9 1 72.61 117.01 151.14 <
2 17 9 2 6.50 -2.37 69.08 <
3 17 9 -2 21.32 40.82 87.03 <
3 -17 9 -2 19.29 -48.29 110.97 <
3 17 9 -1 23.54 12.74 49.94 <
3 -17 9 -1 25.05 -293.62 164.70 <
3 17 9 0 97.81 152.74 150.37 <
3 -17 9 0 115.03 6.64 53.08 <
4 -17 9 -2 65.96 -195.98 138.16 <
-3 -18 9 -2 28.46 104.63 113.16 <
-3 18 9 1 73.76 253.33 180.52 <
-3 18 9 2 29.49 43.25 74.53 <
-2 18 9 -2 35.93 50.83 69.20 <
-2 18 9 -1 175.73 295.10 184.96 <
-2 18 9 0 18.09 49.94 75.66 <
-2 18 9 1 42.41 226.67 166.60 <
-2 18 9 2 34.46 -59.96 114.23 <
-1 18 9 -2 88.26 107.24 59.48 <
-1 18 9 -1 1248.99 1468.46 258.67 o
-1 18 9 0 410.04 338.17 164.29 <
-1 18 9 1 9.74 23.88 50.12 <
-1 18 9 2 64.80 25.30 63.10 <
0 18 9 -2 34.86 147.23 103.62 <
0 18 9 -1 51.82 92.07 86.91 <
0 18 9 0 31.53 82.00 115.47 <
0 18 9 1 148.68 183.37 140.95 <
1 18 9 -2 17.91 16.59 59.25 <
1 18 9 -1 57.12 12.62 71.98 <
1 18 9 0 410.83 392.74 187.51 <
1 18 9 1 119.33 243.02 141.12 <
1 -18 9 1 111.02 289.30 204.57 <
1 18 9 2 15.44 86.32 111.03 <
1 -18 9 2 16.64 182.60 157.77 <
2 18 9 -2 59.84 11.55 74.41 <
2 -18 9 -2 59.41 345.28 219.39 <
2 18 9 -1 14.11 -27.19 60.73 <
2 -18 9 -1 13.39 31.22 31.64 <
2 18 9 0 5.68 71.21 96.04 <
2 -18 9 0 11.50 7.11 83.60 <
2 18 9 1 58.78 145.80 127.14 <
2 -18 9 1 72.92 63.87 63.04 <
2 18 9 2 5.34 -23.05 31.81 <
3 18 9 -2 33.66 -6.34 73.94 <
3 -18 9 -2 34.05 -78.44 120.27 <
3 18 9 -1 42.21 121.81 100.60 <
3 -18 9 -1 43.86 -315.78 175.43 <
3 -18 9 0 97.92 56.70 56.99 <
4 -18 9 -2 39.61 24.29 95.92 <
-2 19 9 -2 9.35 45.15 73.52 <
-2 19 9 -1 15.55 76.37 103.62 <
-2 19 9 0 79.47 328.75 188.46 <
-2 19 9 1 54.26 45.56 100.12 <
-1 19 9 -2 186.53 381.30 139.40 <
-1 19 9 -1 4.21 -132.06 113.16 <
-1 19 9 0 277.22 29.39 63.10 <
0 19 9 -2 27.34 99.41 99.41 <
0 19 9 -1 16.58 54.68 129.15 <
0 19 9 0 37.09 193.73 168.08 <
0 19 9 1 95.76 86.32 85.97 <
0 19 9 2 14.11 84.72 113.57 <
1 19 9 -2 103.90 95.98 101.19 <
1 19 9 -1 66.46 134.49 92.01 <
1 19 9 0 216.01 206.29 145.86 <
1 19 9 1 66.17 157.77 113.28 <
1 -19 9 1 60.06 239.17 194.68 <
1 19 9 2 55.61 20.97 35.37 <
1 -19 9 2 53.14 455.07 261.45 <
2 19 9 -2 37.33 39.28 34.90 <
2 -19 9 -2 35.32 207.30 163.40 <
2 19 9 -1 14.36 -63.87 94.62 <
2 -19 9 -1 12.29 116.95 187.87 <
2 19 9 0 56.54 213.76 175.25 <
2 -19 9 0 52.15 178.51 148.94 <
2 19 9 1 53.16 -50.89 84.13 <
2 -19 9 1 52.81 13.33 52.25 <
2 -19 9 2 67.68 -457.61 214.47 <
3 19 9 -2 92.85 6.87 61.85 <
3 -19 9 -2 96.57 -95.50 144.44 <
3 -19 9 -1 30.42 -345.76 188.16 <
3 -19 9 0 121.91 -107.53 106.05 <
-2 20 9 -2 7.23 219.62 168.91 <
-2 20 9 -1 16.92 -41.23 30.45 <
-2 20 9 0 48.69 -45.74 84.48 <
-1 20 9 -2 27.87 48.05 86.44 <
-1 20 9 -1 34.80 34.13 40.29 <
-1 20 9 0 273.70 415.67 199.60 <
0 20 9 -2 2.00 -34.48 137.92 <
0 20 9 -1 11.83 44.67 62.44 <
0 20 9 0 287.22 322.00 213.34 <
0 20 9 1 11.20 16.77 127.79 <
0 20 9 2 71.53 218.79 180.40 <
1 20 9 -2 17.62 48.17 72.28 <
1 20 9 -1 81.65 131.41 68.13 <
1 20 9 0 240.39 323.54 164.70 <
1 -20 9 0 261.08 782.10 341.91 <
1 20 9 1 38.19 49.17 56.28 <
1 -20 9 1 29.68 371.83 202.26 <
1 20 9 2 17.18 174.60 102.67 <
1 -20 9 2 16.20 165.41 159.49 <
2 20 9 -2 24.04 73.29 93.02 <
2 -20 9 -2 23.19 198.06 138.57 <
2 20 9 -1 24.57 -40.76 49.77 <
2 -20 9 -1 26.63 -11.91 112.21 <
2 20 9 0 31.55 -35.31 32.59 <
2 -20 9 0 35.46 -45.68 100.60 <
2 -20 9 1 21.12 180.34 184.25 <
3 -20 9 -2 43.93 -434.33 213.82 <
-2 21 9 -2 113.39 320.82 179.57 <
-2 21 9 -1 81.95 109.19 117.72 <
-1 21 9 -2 37.67 119.38 132.41 <
-1 21 9 -1 122.99 -5.45 28.08 <
0 21 9 -2 43.31 205.17 155.99 <
0 21 9 -1 142.13 70.56 162.27 <
0 21 9 0 58.53 -23.58 122.52 <
0 21 9 1 330.63 581.14 285.09 <
0 21 9 2 12.90 156.71 150.90 <
1 21 9 -2 18.01 52.02 65.88 <
1 21 9 -1 22.03 -3.61 44.73 <
1 21 9 0 391.46 453.94 177.20 <
1 -21 9 0 378.70 649.92 311.93 <
1 21 9 1 144.24 -31.93 72.99 <
1 -21 9 1 142.14 155.76 137.80 <
2 21 9 -2 106.21 230.88 165.53 <
2 -21 9 -2 104.63 359.33 206.41 <
2 21 9 -1 15.31 60.25 91.42 <
2 -21 9 -1 16.74 15.34 135.14 <
0 22 9 -2 3.45 57.53 151.25 <
0 22 9 -1 11.20 35.49 107.12 <
0 22 9 0 127.48 329.82 182.54 <
0 22 9 1 30.28 88.87 121.51 <
1 22 9 -2 34.91 91.30 114.05 <
1 22 9 -1 119.99 69.14 86.97 <
1 -22 9 -1 109.54 103.74 131.05 <
1 22 9 0 12.65 -31.52 72.10 <
2 22 9 -2 30.82 76.84 98.47 <
0 23 9 -2 18.89 -106.23 119.74 <
0 23 9 -1 24.80 -47.51 32.88 <
1 23 9 -2 3.26 -11.85 47.22 <
1 23 9 -1 17.12 27.85 43.37 <
-4 0 10 -2 8.04 88.04 80.46 <
-4 0 10 -1 25.89 73.82 90.11 <
-4 0 10 0 649.28 667.52 254.58 <
-4 0 10 1 7.40 65.23 94.56 <
-4 0 10 2 7.99 -96.21 104.39 <
-3 0 10 -2 4.23 130.70 117.72 <
-3 0 10 -1 630.76 595.36 221.82 <
-3 0 10 0 874.71 1273.25 331.24 o
-3 0 10 1 287.49 17.12 96.33 <
-3 0 10 2 151.35 53.32 45.62 <
-2 0 10 -2 165.57 150.07 120.98 <
-2 0 10 -1 31.75 233.72 143.79 <
-2 0 10 0 1268.92 1570.30 337.94 o
-2 0 10 1 87.68 51.37 38.51 <
-2 0 10 2 35.36 296.05 139.40 <
-1 0 10 -2 121.87 -36.08 22.34 <
-1 0 10 -1 145.12 313.65 180.28 <
-1 0 10 0 847.96 1549.92 318.27 o
-1 0 10 1 158.50 169.44 93.55 <
-1 0 10 2 105.25 93.07 75.60 <
0 0 10 -2 335.89 212.81 103.80 <
0 0 10 -1 105.55 83.18 82.65 <
0 0 10 0 6101.72 7551.38 525.33 o
0 0 10 1 257.95 246.58 122.76 <
0 0 10 2 105.39 88.39 79.09 <
1 0 10 -2 23.66 6.93 60.02 <
1 0 10 -1 199.94 176.97 95.98 <
1 0 10 0 1010.15 1480.37 356.89 o
1 0 10 1 50.29 41.12 111.20 <
1 0 10 2 28.81 150.96 154.87 <
2 0 10 -2 332.21 151.85 120.57 <
2 0 10 -1 175.53 64.10 57.05 <
2 0 10 0 1137.87 1254.94 343.09 o
2 0 10 1 408.87 504.95 241.90 <
2 0 10 2 245.06 137.51 71.63 <
3 0 10 -2 177.09 85.37 111.80 <
3 0 10 -1 14.05 -25.36 131.11 <
3 0 10 0 840.46 1258.44 360.75 o
3 0 10 1 13.21 -113.46 123.71 <
3 0 10 2 8.96 325.14 191.07 <
4 0 10 -2 176.72 213.34 116.77 <
4 0 10 -1 77.65 81.46 110.43 <
4 0 10 0 638.17 694.54 269.03 <
4 0 10 1 270.12 228.98 220.22 <
5 0 10 -2 203.21 158.42 130.52 <
-4 1 10 -2 118.28 248.83 159.37 <
-4 -1 10 -2 132.35 53.97 77.79 <
-4 1 10 -1 212.55 207.54 133.01 <
-4 -1 10 -1 240.35 202.80 91.53 <
-4 1 10 0 442.75 505.60 222.05 <
-4 -1 10 0 424.15 213.88 141.77 <
-4 1 10 1 272.80 287.76 193.38 <
-4 -1 10 1 283.63 228.51 151.37 <
-4 1 10 2 149.50 104.39 126.85 <
-4 -1 10 2 154.37 37.62 30.57 <
-3 1 10 -2 17.14 -15.76 27.79 <
-3 -1 10 -2 15.90 11.14 62.98 <
-3 1 10 -1 105.25 178.39 143.91 <
-3 -1 10 -1 152.52 166.48 96.57 <
-3 1 10 0 2137.07 1858.42 383.91 o
-3 -1 10 0 2051.68 1869.44 383.20 o
-3 1 10 1 478.13 106.35 103.50 <
-3 -1 10 1 480.34 140.59 131.64 <
-3 1 10 2 6.50 117.72 159.13 <
-3 -1 10 2 7.70 7.88 91.89 <
-2 1 10 -2 189.79 118.55 102.97 <
-2 -1 10 -2 185.71 2.49 66.24 <
-2 1 10 -1 812.14 1081.47 288.53 o
-2 -1 10 -1 879.86 887.38 248.71 o
-2 1 10 0 755.69 524.97 182.71 <
-2 -1 10 0 745.61 649.81 209.79 o
-2 1 10 1 632.66 763.26 256.95 <
-2 -1 10 1 653.04 721.85 243.56 <
-2 1 10 2 129.37 34.54 64.64 <
-2 -1 10 2 142.61 46.74 105.64 <
-1 1 10 -2 50.06 41.53 68.19 <
-1 -1 10 -2 48.74 57.94 65.17 <
-1 1 10 -1 1092.28 712.19 234.02 o
-1 -1 10 -1 1201.84 1080.46 287.70 o
-1 1 10 0 5561.40 6259.00 641.16 o
-1 -1 10 0 5380.89 5707.84 612.48 o
-1 1 10 1 648.25 597.79 179.57 o
-1 -1 10 1 622.00 757.93 193.32 o
-1 1 10 2 16.02 136.03 149.89 <
-1 -1 10 2 18.35 197.88 116.06 <
0 1 10 -2 136.12 169.62 106.11 <
0 -1 10 -2 131.85 62.15 47.28 <
0 1 10 -1 1350.31 1345.29 218.26 o
0 -1 10 -1 1421.25 1308.50 216.96 o
0 1 10 0 4041.81 3668.78 364.12 o
0 -1 10 0 4020.78 3963.23 384.92 o
0 1 10 1 535.07 490.97 140.89 o
0 -1 10 1 568.96 481.96 148.17 o
0 1 10 2 87.40 226.91 125.36 <
0 -1 10 2 105.74 61.67 60.90 <
1 1 10 -2 24.67 149.71 105.40 <
1 -1 10 -2 24.16 67.18 85.25 <
1 1 10 -1 56.27 205.76 181.05 <
1 -1 10 -1 95.48 303.99 166.18 <
1 1 10 0 5567.27 4944.22 639.85 o
1 -1 10 0 5427.77 5309.77 633.93 o
1 1 10 1 191.08 333.20 170.86 <
1 -1 10 1 167.55 212.81 131.52 <
1 1 10 2 60.89 28.38 145.21 <
1 -1 10 2 57.30 -30.93 36.08 <
2 1 10 -2 195.51 206.83 92.19 <
2 -1 10 -2 193.96 401.98 196.87 <
2 1 10 -1 198.76 96.10 127.32 <
2 -1 10 -1 212.85 227.98 155.64 <
2 1 10 0 760.87 510.22 208.01 <
2 -1 10 0 759.65 606.79 254.70 <
2 1 10 1 423.65 302.45 194.68 <
2 -1 10 1 445.33 411.52 206.95 <
2 1 10 2 226.72 204.40 154.99 <
2 -1 10 2 220.81 135.38 109.13 <
3 1 10 -2 42.86 66.95 115.59 <
3 -1 10 -2 43.71 3.50 28.73 <
3 1 10 -1 103.50 273.71 240.66 <
3 -1 10 -1 98.75 142.13 123.41 <
3 1 10 0 1699.91 1107.18 344.57 o
3 -1 10 0 1658.45 1485.35 369.99 o
3 1 10 1 227.87 -37.68 62.86 <
3 -1 10 1 209.39 145.51 116.71 <
3 1 10 2 68.64 217.61 164.64 <
3 -1 10 2 60.96 323.24 207.89 <
4 1 10 -2 115.61 115.77 150.43 <
4 -1 10 -2 115.75 210.03 155.05 <
4 1 10 -1 67.01 -9.72 36.97 <
4 -1 10 -1 68.67 51.72 101.01 <
4 1 10 0 458.68 320.05 181.47 <
4 -1 10 0 446.59 454.89 261.39 <
4 1 10 1 230.92 217.61 171.16 <
4 -1 10 1 247.44 237.52 212.22 <
5 1 10 -2 19.39 124.00 175.96 <
5 -1 10 -2 19.29 157.36 152.91 <
5 1 10 -1 32.48 -13.92 79.33 <
-5 -2 10 1 90.33 -130.40 113.63 <
-5 -2 10 2 33.09 -56.70 136.56 <
-4 2 10 -2 10.17 -30.10 53.02 <
-4 -2 10 -2 5.83 133.07 86.44 <
-4 2 10 -1 574.43 873.46 289.12 o
-4 -2 10 -1 557.86 685.59 167.66 o
-4 -2 10 0 285.22 163.40 77.43 <
-4 2 10 1 17.85 48.88 61.85 <
-4 -2 10 1 13.89 -8.24 88.75 <
-4 2 10 2 183.26 -4.68 63.45 <
-4 -2 10 2 191.88 -138.69 109.37 <
-3 2 10 -2 33.55 155.82 79.74 <
-3 -2 10 -2 33.17 89.11 55.16 <
-3 2 10 -1 68.86 123.41 62.98 <
-3 -2 10 -1 61.54 97.28 68.37 <
-3 2 10 0 535.04 367.50 184.02 <
-3 -2 10 0 518.61 513.90 149.12 o
-3 2 10 1 223.48 -37.09 34.66 <
-3 -2 10 1 253.57 195.33 142.13 <
-3 2 10 2 168.23 288.53 172.05 <
-3 -2 10 2 170.55 346.29 185.74 <
-2 2 10 -2 485.53 465.08 200.43 <
-2 -2 10 -2 505.87 422.07 131.47 o
-2 2 10 -1 589.87 959.84 250.67 o
-2 -2 10 -1 559.95 802.90 164.58 o
-2 2 10 0 307.33 155.93 73.76 <
-2 -2 10 0 349.21 250.25 142.54 <
-2 2 10 1 114.24 26.25 49.06 <
-2 -2 10 1 90.65 43.07 103.86 <
-2 2 10 2 141.43 16.17 72.87 <
-2 -2 10 2 135.83 -58.42 9.48 <
-1 2 10 -2 202.89 190.77 110.08 <
-1 -2 10 -2 218.85 323.84 131.41 <
-1 2 10 -1 1091.98 1434.16 290.60 o
-1 -2 10 -1 1117.18 1502.88 318.62 o
-1 2 10 0 617.71 668.47 197.94 o
-1 -2 10 0 599.18 709.94 172.64 o
-1 2 10 1 938.92 1049.30 266.55 o
-1 -2 10 1 1008.43 1027.61 210.50 o
-1 2 10 2 85.73 54.62 83.36 <
-1 -2 10 2 92.58 -26.42 88.57 <
0 2 10 -2 344.30 332.72 134.78 <
0 -2 10 -2 334.74 278.39 107.65 <
0 2 10 -1 891.43 1077.80 203.69 o
0 -2 10 -1 838.22 1020.09 286.93 o
0 2 10 0 2628.02 2540.27 303.10 o
0 -2 10 0 2758.34 2886.68 504.30 o
0 2 10 1 791.08 933.83 198.18 o
0 -2 10 1 743.05 1019.68 321.41 o
0 2 10 2 167.37 68.55 53.32 <
0 -2 10 2 162.10 -61.20 90.71 <
1 2 10 -2 103.85 127.56 52.37 <
1 -2 10 -2 109.18 -14.75 67.95 <
1 2 10 -1 22.09 91.77 51.48 <
1 -2 10 -1 27.54 -51.84 114.82 <
1 2 10 0 739.23 777.78 167.84 o
1 -2 10 0 708.91 537.18 194.86 <
1 2 10 1 84.40 47.51 59.96 <
1 -2 10 1 93.09 31.87 10.78 <
1 2 10 2 15.56 73.94 47.34 <
1 -2 10 2 23.40 1.48 79.09 <
2 2 10 -2 335.59 174.77 129.45 <
2 -2 10 -2 306.65 178.27 118.96 <
2 2 10 -1 304.10 85.20 106.82 <
2 -2 10 -1 290.11 277.39 149.71 <
2 2 10 0 318.94 460.46 208.31 <
2 -2 10 0 363.80 199.54 104.15 <
2 2 10 1 427.88 317.67 207.77 <
2 -2 10 1 401.48 320.76 179.57 <
2 2 10 2 551.21 633.04 275.91 <
2 -2 10 2 547.51 436.05 225.13 <
3 2 10 -2 55.01 -15.58 107.77 <
3 -2 10 -2 45.05 86.26 104.51 <
3 2 10 -1 77.85 352.69 203.75 <
3 -2 10 -1 93.66 -13.33 77.08 <
3 2 10 0 395.20 162.63 136.68 <
3 -2 10 0 378.78 405.77 180.28 <
3 2 10 1 188.42 169.62 163.10 <
3 -2 10 1 246.92 146.99 95.39 <
3 2 10 2 22.47 -61.38 98.23 <
3 -2 10 2 30.31 137.69 112.39 <
4 2 10 -2 197.23 128.86 52.20 <
4 -2 10 -2 175.83 -60.43 38.51 <
4 2 10 -1 50.21 113.10 145.63 <
4 -2 10 -1 52.19 -6.34 80.40 <
4 2 10 0 338.76 481.49 257.42 <
4 -2 10 0 358.85 470.47 219.98 <
4 2 10 1 57.78 346.29 205.76 <
4 -2 10 1 48.93 -9.89 116.06 <
5 2 10 -2 26.10 157.12 126.85 <
5 -2 10 -2 19.13 320.28 210.80 <
5 2 10 -1 42.01 223.00 169.44 <
-5 -3 10 0 79.43 62.33 73.70 <
-5 -3 10 1 138.74 -403.23 198.47 <
-5 -3 10 2 25.31 24.17 8.24 <
-4 3 10 -2 13.36 -57.35 74.06 <
-4 -3 10 -2 14.15 55.87 49.94 <
-4 3 10 -1 130.20 347.00 200.61 <
-4 -3 10 -1 122.58 209.08 100.01 <
-4 3 10 0 71.12 197.41 135.55 <
-4 -3 10 0 95.34 52.67 49.53 <
-4 3 10 1 30.37 41.83 86.44 <
-4 -3 10 1 33.33 30.69 55.57 <
-4 3 10 2 87.15 176.79 160.50 <
-4 -3 10 2 87.98 30.16 37.74 <
-3 3 10 -2 252.65 414.13 183.31 <
-3 -3 10 -2 231.78 176.85 90.71 <
-3 -3 10 -1 23.47 -33.36 17.30 <
-3 3 10 0 155.08 134.61 85.79 <
-3 -3 10 0 154.86 45.80 69.55 <
-3 3 10 1 249.90 22.75 60.13 <
-3 -3 10 1 243.06 136.62 89.52 <
-3 3 10 2 67.23 59.60 151.08 <
-3 -3 10 2 76.57 18.13 56.05 <
-2 3 10 -2 516.70 511.76 206.77 <
-2 -3 10 -2 515.03 520.89 147.82 o
-2 3 10 -1 124.90 481.07 204.16 <
-2 -3 10 -1 82.09 410.57 128.68 o
-2 3 10 0 294.39 233.25 145.09 <
-2 -3 10 0 389.86 233.49 158.13 <
-2 3 10 1 18.95 144.32 145.45 <
-2 -3 10 1 25.57 79.15 59.66 <
-2 3 10 2 69.00 179.75 122.16 <
-2 -3 10 2 65.58 231.77 158.66 <
-1 3 10 -2 81.86 58.18 77.32 <
-1 -3 10 -2 77.49 111.74 76.19 <
-1 3 10 -1 519.54 424.43 155.40 <
-1 -3 10 -1 466.81 429.59 188.05 <
-1 3 10 0 338.33 129.10 77.32 <
-1 -3 10 0 315.16 181.35 81.17 <
-1 3 10 1 606.32 661.36 217.31 o
-1 -3 10 1 567.74 616.98 165.35 o
-1 3 10 2 109.93 342.20 142.37 <
-1 -3 10 2 102.08 335.45 137.80 <
0 3 10 -2 145.82 265.60 158.07 <
0 -3 10 -2 139.65 310.80 173.65 <
0 3 10 -1 346.95 391.55 138.22 <
0 -3 10 -1 276.91 381.78 213.82 <
0 3 10 0 3682.87 3220.29 334.98 o
0 -3 10 0 3920.99 3443.18 549.62 o
0 3 10 1 72.40 279.88 124.12 <
0 -3 10 1 97.39 205.05 165.24 <
0 3 10 2 37.72 40.76 81.70 <
0 -3 10 2 37.70 273.54 184.25 <
1 3 10 -2 31.47 27.67 85.02 <
1 -3 10 -2 31.57 131.58 104.98 <
1 3 10 -1 32.63 54.98 42.78 <
1 -3 10 -1 28.12 82.35 115.35 <
1 3 10 0 300.90 303.63 106.23 <
1 -3 10 0 275.16 255.47 156.47 <
1 3 10 1 115.32 122.93 100.07 <
1 -3 10 1 88.88 143.91 111.56 <
1 3 10 2 30.28 153.27 93.37 <
1 -3 10 2 22.58 141.06 112.39 <
2 3 10 -2 133.59 95.74 105.10 <
2 -3 10 -2 124.43 199.12 140.06 <
2 3 10 -1 179.87 154.93 148.17 <
2 -3 10 -1 174.35 176.43 99.77 <
2 3 10 0 282.63 122.40 106.35 <
2 -3 10 0 326.11 307.48 176.91 <
2 3 10 1 28.00 198.83 184.25 <
2 -3 10 1 26.87 22.28 111.68 <
2 3 10 2 195.54 196.58 186.56 <
2 -3 10 2 209.95 50.65 60.67 <
3 3 10 -2 54.76 270.93 169.15 <
3 -3 10 -2 47.78 95.03 92.72 <
3 3 10 -1 143.11 249.72 173.35 <
3 -3 10 -1 144.31 84.13 117.78 <
3 3 10 0 158.24 377.51 222.35 <
3 -3 10 0 140.06 405.00 189.47 <
3 3 10 1 581.68 356.72 236.98 <
3 -3 10 1 591.96 419.22 188.10 <
3 3 10 2 3.60 -174.30 140.47 <
3 -3 10 2 3.16 143.14 166.24 <
4 3 10 -2 72.82 55.34 71.39 <
4 -3 10 -2 75.16 25.77 55.93 <
4 3 10 -1 51.54 19.61 87.74 <
4 -3 10 -1 55.63 113.63 71.75 <
4 3 10 0 69.66 295.81 170.09 <
4 -3 10 0 70.23 -62.92 78.74 <
4 3 10 1 39.92 27.19 31.16 <
4 -3 10 1 33.78 45.80 122.40 <
5 3 10 -2 20.74 159.37 150.66 <
5 -3 10 -2 15.77 203.15 212.22 <
5 3 10 -1 21.11 34.01 116.00 <
-5 -4 10 1 3.17 -100.72 98.11 <
-5 -4 10 2 44.34 153.74 97.10 <
-4 4 10 -2 39.57 143.49 104.69 <
-4 -4 10 -2 50.28 74.23 83.42 <
-4 4 10 -1 190.36 380.65 197.17 <
-4 -4 10 -1 199.65 108.48 74.18 <
-4 4 10 0 98.05 390.90 211.74 <
-4 -4 10 0 98.14 292.55 122.11 <
-4 4 10 1 139.72 2.01 30.87 <
-4 -4 10 1 109.81 83.18 68.31 <
-4 4 10 2 142.74 117.54 137.51 <
-4 -4 10 2 155.89 3.20 80.10 <
-3 4 10 -2 101.56 -48.58 80.40 <
-3 -4 10 -2 104.78 -61.79 69.44 <
-3 4 10 -1 1432.97 1728.79 364.12 o
-3 -4 10 -1 1461.09 1493.82 234.02 o
-3 4 10 0 58.81 3.20 84.31 <
-3 -4 10 0 53.78 10.25 90.88 <
-3 4 10 1 13.11 58.30 63.75 <
-3 -4 10 1 12.57 59.25 72.87 <
-3 4 10 2 141.31 150.54 117.19 <
-3 -4 10 2 123.62 -18.01 52.85 <
-2 4 10 -2 603.77 853.20 243.91 o
-2 -4 10 -2 587.05 750.58 175.31 o
-2 4 10 -1 520.89 523.61 192.01 <
-2 -4 10 -1 549.20 582.44 141.48 o
-2 4 10 0 99.33 220.10 155.22 <
-2 -4 10 0 94.37 213.70 89.70 <
-2 4 10 1 157.76 94.62 95.33 <
-2 -4 10 1 117.74 111.26 60.19 <
-2 4 10 2 163.55 247.65 145.51 <
-2 -4 10 2 176.13 41.00 80.93 <
-1 4 10 -2 297.57 290.42 143.26 <
-1 -4 10 -2 307.05 266.78 99.06 <
-1 4 10 -1 713.39 983.12 253.87 o
-1 -4 10 -1 716.10 611.83 155.52 o
-1 4 10 0 504.16 870.26 236.57 o
-1 -4 10 0 472.53 631.32 171.34 o
-1 4 10 1 104.48 -8.71 51.31 <
-1 -4 10 1 122.56 108.72 108.95 <
-1 4 10 2 140.40 150.96 104.51 <
-1 -4 10 2 140.24 191.72 103.86 <
0 4 10 -2 117.55 25.65 29.86 <
0 -4 10 -2 92.25 92.42 49.00 <
0 4 10 -1 942.18 1144.98 210.50 o
0 -4 10 -1 998.90 1269.69 332.01 o
0 4 10 0 1258.77 1674.81 243.44 o
0 -4 10 0 1236.61 1960.73 397.06 o
0 4 10 1 37.74 89.64 93.02 <
0 -4 10 1 26.78 23.58 98.82 <
0 4 10 2 165.44 21.15 55.10 <
0 -4 10 2 164.39 21.51 48.46 <
1 4 10 -2 88.35 148.47 61.38 <
1 -4 10 -2 106.78 112.15 82.77 <
1 4 10 -1 262.87 246.94 91.95 <
1 -4 10 -1 266.58 171.81 126.19 <
1 4 10 0 660.26 857.05 181.88 o
1 -4 10 0 623.54 849.70 257.95 o
1 4 10 1 10.10 85.14 78.86 <
1 -4 10 1 9.68 -48.34 34.54 <
1 4 10 2 37.44 59.19 64.81 <
1 -4 10 2 44.70 93.67 70.56 <
2 4 10 -2 156.45 136.26 45.92 <
2 -4 10 -2 132.10 50.18 106.05 <
2 4 10 -1 297.44 218.74 89.11 <
2 -4 10 -1 334.71 285.45 150.31 <
2 4 10 0 66.12 112.92 63.39 <
2 -4 10 0 66.53 137.63 101.78 <
2 4 10 1 32.58 -130.46 93.31 <
2 -4 10 1 30.68 80.40 24.35 o
2 4 10 2 74.39 -27.13 58.89 <
2 -4 10 2 61.61 -87.03 57.05 <
3 4 10 -2 78.36 105.58 197.11 <
3 -4 10 -2 99.27 66.47 84.19 <
3 4 10 -1 53.17 -8.35 167.49 <
3 -4 10 -1 60.45 72.10 78.80 <
3 4 10 0 82.53 218.50 164.47 <
3 -4 10 0 79.53 199.66 144.09 <
3 4 10 1 131.09 1.96 162.39 <
3 -4 10 1 155.03 272.35 186.74 <
3 4 10 2 16.98 166.90 100.30 <
3 -4 10 2 22.19 28.20 74.12 <
4 4 10 -2 112.11 -50.00 98.23 <
4 -4 10 -2 110.40 -48.58 28.73 <
4 4 10 -1 94.20 113.34 130.40 <
4 -4 10 -1 113.37 -69.02 101.13 <
4 4 10 0 84.51 24.76 98.05 <
4 -4 10 0 83.58 104.92 108.95 <
4 4 10 1 70.52 16.17 5.92 <
4 -4 10 1 65.36 -54.68 114.88 <
5 4 10 -2 35.73 8.89 41.00 <
5 -4 10 -2 45.01 78.68 137.04 <
5 4 10 -1 35.29 292.55 187.39 <
-5 -5 10 2 203.02 -112.33 103.32 <
-4 5 10 -2 69.75 54.62 44.02 <
-4 -5 10 -2 68.61 -43.60 52.79 <
-4 5 10 -1 192.07 158.54 128.38 <
-4 -5 10 -1 209.22 125.84 92.96 <
-4 5 10 0 774.64 902.13 292.14 o
-4 -5 10 0 749.24 668.88 168.79 o
-4 5 10 1 113.37 -83.71 141.54 <
-4 -5 10 1 115.75 14.93 47.22 <
-4 5 10 2 153.71 319.63 202.68 <
-4 -5 10 2 145.99 186.74 95.03 <
-3 5 10 -2 29.97 -3.79 82.29 <
-3 -5 10 -2 28.22 13.09 45.80 <
-3 5 10 -1 365.13 696.85 233.60 <
-3 -5 10 -1 379.94 543.04 146.69 o
-3 5 10 0 910.22 671.25 220.27 o
-3 -5 10 0 892.68 486.58 139.52 o
-3 5 10 1 83.83 154.99 167.96 <
-3 -5 10 1 89.53 172.35 81.17 <
-3 5 10 2 321.17 112.57 118.37 <
-3 -5 10 2 344.22 216.84 90.76 <
-2 5 10 -2 46.58 76.43 81.94 <
-2 -5 10 -2 38.99 77.73 67.24 <
-2 5 10 -1 1037.82 1042.13 283.37 o
-2 -5 10 -1 1088.69 1078.27 202.15 o
-2 5 10 0 2404.97 2558.76 420.23 o
-2 -5 10 0 2323.66 2124.19 259.02 o
-2 5 10 1 105.08 95.27 107.06 <
-2 -5 10 1 109.96 -21.86 18.66 <
-2 5 10 2 112.68 79.86 42.89 <
-2 -5 10 2 104.88 30.75 50.77 <
-1 5 10 -2 137.10 298.83 137.63 <
-1 -5 10 -2 133.52 205.17 84.66 <
-1 5 10 -1 1815.31 2260.52 381.07 o
-1 -5 10 -1 1858.25 1957.12 203.27 o
-1 5 10 0 1574.00 1418.93 284.50 o
-1 -5 10 0 1594.71 1356.96 225.49 o
-1 5 10 1 8.90 60.96 81.58 <
-1 -5 10 1 14.26 143.26 93.02 <
-1 5 10 2 141.79 211.51 93.61 <
-1 -5 10 2 153.54 141.60 124.12 <
0 5 10 -2 177.26 362.11 143.79 <
0 -5 10 -2 187.27 648.68 225.73 <
0 5 10 -1 1216.51 1248.42 228.63 o
0 -5 10 -1 1263.47 1322.07 339.48 o
0 5 10 0 6106.66 6460.14 478.29 o
0 -5 10 0 6010.92 7113.14 767.76 o
0 5 10 1 389.59 250.31 112.98 <
0 -5 10 1 385.38 299.61 144.32 <
0 5 10 2 15.97 114.76 80.81 <
0 -5 10 2 16.15 86.68 97.04 <
1 5 10 -2 279.16 351.86 92.07 o
1 -5 10 -2 286.73 408.14 153.27 <
1 5 10 -1 273.41 253.57 75.78 o
1 -5 10 -1 291.01 357.49 182.18 <
1 5 10 0 1973.10 1562.31 242.97 o
1 -5 10 0 1985.83 1784.36 364.12 o
1 5 10 1 688.27 727.12 161.86 o
1 -5 10 1 695.00 718.00 252.68 <
1 5 10 2 55.92 113.51 103.44 <
1 -5 10 2 48.35 29.74 3.02 o
2 5 10 -2 97.04 152.38 45.38 o
2 -5 10 -2 97.70 184.96 122.82 <
2 5 10 -1 169.87 239.83 84.48 <
2 -5 10 -1 176.88 335.57 158.42 <
2 5 10 0 1757.90 1436.65 224.66 o
2 -5 10 0 1708.21 1428.94 341.26 o
2 5 10 1 118.21 150.78 141.66 <
2 -5 10 1 108.71 -31.16 87.39 <
2 5 10 2 63.17 130.40 52.85 <
2 -5 10 2 56.97 16.71 59.25 <
3 5 10 -2 199.04 123.59 155.05 <
3 -5 10 -2 204.79 254.52 138.34 <
3 5 10 -1 158.21 130.40 138.40 <
3 -5 10 -1 168.24 316.02 163.99 <
3 5 10 0 1193.18 658.63 304.52 <
3 -5 10 0 1177.08 723.09 244.74 <
3 5 10 1 247.05 44.97 82.23 <
3 -5 10 1 307.26 364.01 201.32 <
3 5 10 2 21.93 97.58 60.08 <
3 -5 10 2 20.74 28.79 55.69 <
4 5 10 -2 85.64 -120.57 56.88 <
4 -5 10 -2 85.29 242.37 153.27 <
4 5 10 -1 37.68 -45.38 127.08 <
4 -5 10 -1 33.02 2.73 88.93 <
4 5 10 0 385.04 272.59 185.79 <
4 -5 10 0 361.88 385.75 190.65 <
4 5 10 1 66.96 6.46 57.53 <
4 -5 10 1 57.64 84.07 120.98 <
5 5 10 -2 53.29 172.88 168.32 <
5 -5 10 -2 52.70 206.41 168.73 <
-4 6 10 -2 71.62 -27.37 42.12 <
-4 -6 10 -2 68.39 27.67 29.21 <
-4 6 10 -1 164.47 322.24 189.59 <
-4 -6 10 -1 141.32 272.11 109.19 <
-4 6 10 0 75.74 -121.57 113.04 <
-4 -6 10 0 84.00 111.44 70.27 <
-4 6 10 1 71.71 -71.09 97.28 <
-4 -6 10 1 74.93 104.33 59.84 <
-4 6 10 2 146.48 161.15 147.64 <
-4 -6 10 2 161.02 155.22 87.51 <
-3 6 10 -2 45.12 -17.42 87.62 <
-3 -6 10 -2 36.74 -46.86 70.27 <
-3 6 10 -1 267.83 366.67 182.00 <
-3 -6 10 -1 292.06 209.32 91.48 <
-3 6 10 0 216.57 387.41 175.37 <
-3 -6 10 0 203.35 252.86 95.80 <
-3 6 10 1 70.17 136.92 62.39 <
-3 -6 10 1 79.16 13.27 41.95 <
-3 6 10 2 191.26 137.98 101.13 <
-3 -6 10 2 180.53 34.78 93.25 <
-2 6 10 -2 136.41 249.48 153.80 <
-2 -6 10 -2 141.09 162.04 71.86 <
-2 6 10 -1 120.18 -4.98 30.75 <
-2 -6 10 -1 95.41 131.17 74.47 <
-2 6 10 0 800.94 1127.33 277.98 o
-2 -6 10 0 854.47 1240.96 196.81 o
-2 6 10 1 133.08 53.14 80.63 <
-2 -6 10 1 121.87 55.99 39.28 <
-2 6 10 2 109.23 63.45 52.85 <
-2 -6 10 2 119.94 165.00 104.33 <
-1 6 10 -2 137.82 229.87 112.57 <
-1 -6 10 -2 158.28 227.80 69.44 o
-1 6 10 -1 3013.74 3028.87 426.80 o
-1 -6 10 -1 2902.43 2782.00 315.19 o
-1 6 10 0 481.63 614.91 203.80 o
-1 -6 10 0 455.62 641.87 158.54 o
-1 6 10 1 117.52 307.60 151.02 <
-1 -6 10 1 136.41 229.87 108.72 <
-1 6 10 2 126.89 212.22 102.32 <
-1 -6 10 2 115.89 53.32 66.53 <
0 6 10 -2 154.45 90.11 46.69 <
0 -6 10 -2 134.52 154.81 134.84 <
0 6 10 -1 7.87 155.82 66.77 <
0 -6 10 -1 5.43 223.77 119.44 <
0 6 10 0 317.19 421.83 142.78 <
0 -6 10 0 355.88 275.08 127.73 <
0 6 10 1 230.53 176.79 107.83 <
0 -6 10 1 220.49 218.38 154.63 <
0 6 10 2 45.30 18.37 69.32 <
0 -6 10 2 45.65 24.29 77.97 <
1 6 10 -2 160.55 271.29 76.84 o
1 -6 10 -2 177.73 191.60 109.78 <
1 6 10 -1 706.26 557.44 111.86 o
1 -6 10 -1 659.27 786.25 239.95 o
1 6 10 0 370.58 322.59 79.69 o
1 -6 10 0 339.12 243.38 135.32 <
1 6 10 1 316.55 300.32 97.40 o
1 -6 10 1 366.87 453.41 214.05 <
1 6 10 2 172.53 179.40 90.65 <
1 -6 10 2 189.20 233.25 136.50 <
2 6 10 -2 325.76 49.53 57.71 <
2 -6 10 -2 291.51 79.92 89.28 <
2 6 10 -1 22.65 82.00 44.20 <
2 -6 10 -1 32.35 -78.20 64.04 <
2 6 10 0 947.35 1009.66 201.85 o
2 -6 10 0 1002.44 1172.00 295.52 o
2 6 10 1 8.10 4.32 30.75 <
2 -6 10 1 5.81 82.53 109.54 <
2 6 10 2 105.66 87.03 79.15 <
2 -6 10 2 116.56 195.98 133.66 <
3 6 10 -2 216.55 123.59 102.26 <
3 -6 10 -2 220.05 126.49 81.40 <
3 6 10 -1 604.23 349.43 135.73 <
3 -6 10 -1 586.35 444.88 213.76 <
3 6 10 0 235.05 374.14 224.18 <
3 -6 10 0 223.84 206.00 150.96 <
3 6 10 1 221.10 -37.27 156.35 <
3 -6 10 1 276.72 290.24 165.41 <
3 6 10 2 100.64 62.15 128.03 <
3 -6 10 2 115.78 133.54 145.74 <
4 6 10 -2 367.25 116.12 69.08 <
4 -6 10 -2 338.50 221.58 170.63 <
4 6 10 -1 51.02 -41.12 121.28 <
4 -6 10 -1 54.30 41.23 121.63 <
4 6 10 0 111.57 26.96 5.81 o
4 -6 10 0 119.25 201.49 188.22 <
4 6 10 1 68.55 -13.98 52.20 <
4 -6 10 1 67.32 79.27 52.49 <
5 6 10 -2 77.24 -77.73 87.27 <
5 -6 10 -2 68.62 -62.27 116.42 <
-4 7 10 -2 151.98 333.20 167.49 <
-4 -7 10 -2 150.10 471.24 210.09 <
-4 7 10 -1 102.69 155.22 118.02 <
-4 -7 10 -1 117.87 139.76 74.89 <
-4 -7 10 0 398.23 52.85 45.80 <
-4 7 10 1 85.10 214.76 169.74 <
-4 -7 10 1 90.06 106.70 72.93 <
-4 7 10 2 78.56 122.16 136.50 <
-4 -7 10 2 78.36 69.38 55.22 <
-3 7 10 -2 38.79 -105.22 83.89 <
-3 -7 10 -2 36.24 -34.30 28.38 <
-3 7 10 -1 193.60 240.42 148.77 <
-3 -7 10 -1 211.29 218.14 89.22 <
-3 7 10 0 145.26 165.83 109.54 <
-3 -7 10 0 180.49 143.55 71.21 <
-3 7 10 1 295.90 289.59 187.69 <
-3 -7 10 1 276.42 275.73 108.89 <
-3 7 10 2 27.57 -4.32 77.08 <
-3 -7 10 2 30.17 89.88 83.71 <
-2 7 10 -2 60.99 -26.19 40.82 <
-2 -7 10 -2 50.40 5.39 16.83 <
-2 7 10 -1 85.70 187.34 135.73 <
-2 -7 10 -1 96.52 71.45 43.07 <
-2 7 10 0 2464.48 2912.93 453.58 o
-2 -7 10 0 2412.26 2517.05 242.67 o
-2 7 10 1 148.02 257.30 156.35 <
-2 -7 10 1 165.59 269.74 113.22 <
-2 7 10 2 145.69 263.64 167.19 <
-2 -7 10 2 143.18 396.71 149.77 <
-1 7 10 -2 188.81 201.97 95.21 <
-1 -7 10 -2 184.55 179.87 66.30 <
-1 7 10 -1 473.07 963.81 252.09 o
-1 -7 10 -1 451.92 675.46 175.96 o
-1 7 10 0 326.40 358.97 150.48 <
-1 -7 10 0 436.55 508.09 201.79 <
-1 7 10 1 526.57 420.88 166.07 <
-1 -7 10 1 475.11 531.91 239.47 <
-1 7 10 2 39.67 12.92 68.31 <
-1 -7 10 2 39.16 35.96 101.37 <
0 7 10 -2 133.10 130.87 93.43 <
0 -7 10 -2 112.05 345.58 160.38 <
0 7 10 -1 29.31 121.51 95.09 <
0 -7 10 -1 25.59 27.96 32.41 <
0 7 10 0 889.16 869.84 191.66 o
0 -7 10 0 883.83 895.79 236.09 o
0 7 10 1 287.99 238.52 102.20 <
0 -7 10 1 301.84 312.88 163.76 <
0 7 10 2 163.09 167.43 109.54 <
0 -7 10 2 173.04 136.09 119.85 <
1 7 10 -2 210.23 219.27 74.18 <
1 -7 10 -2 197.80 200.96 138.22 <
1 7 10 -1 3.92 -7.41 33.71 <
1 -7 10 -1 5.31 92.25 129.87 <
1 7 10 0 196.97 309.38 100.84 o
1 -7 10 0 294.38 218.68 131.58 <
1 7 10 1 1541.31 1262.64 162.04 o
1 -7 10 1 1489.14 1424.56 338.47 o
1 7 10 2 49.52 -12.32 36.32 <
1 -7 10 2 43.05 -14.16 84.66 <
2 7 10 -2 96.22 163.93 66.06 <
2 -7 10 -2 88.83 102.26 58.83 <
2 7 10 -1 15.73 10.07 36.55 <
2 -7 10 -1 19.09 -14.40 47.46 <
2 7 10 0 3206.42 4407.34 554.42 o
2 -7 10 0 3163.80 3583.29 528.11 o
2 7 10 1 281.15 237.81 94.08 <
2 -7 10 1 268.47 190.71 135.38 <
2 7 10 2 344.22 4.09 81.29 <
2 -7 10 2 354.52 255.82 155.58 <
3 7 10 -2 126.34 78.14 57.65 <
3 -7 10 -2 122.89 139.29 117.78 <
3 7 10 -1 49.69 239.47 106.58 <
3 -7 10 -1 56.41 7.94 47.81 <
3 7 10 0 182.34 177.62 168.55 <
3 -7 10 0 223.97 227.44 180.52 <
3 7 10 1 178.18 -53.85 81.82 <
3 -7 10 1 164.21 233.01 132.89 <
3 7 10 2 33.22 -23.88 93.13 <
3 -7 10 2 26.44 59.54 98.05 <
4 7 10 -2 159.88 135.73 122.82 <
4 -7 10 -2 162.55 329.88 188.52 <
4 7 10 -1 9.60 96.75 120.92 <
4 -7 10 -1 10.63 57.05 31.58 <
4 7 10 0 814.34 278.34 196.28 <
4 -7 10 0 809.44 738.32 264.71 <
4 7 10 1 117.37 -21.21 49.11 <
4 -7 10 1 109.10 116.30 153.33 <
5 7 10 -2 41.07 5.51 23.11 <
5 -7 10 -2 42.01 199.84 161.21 <
-4 8 10 -2 154.29 238.64 168.97 <
-4 -8 10 -2 161.35 303.22 159.55 <
-4 8 10 -1 666.64 719.30 243.26 <
-4 -8 10 -1 650.09 935.78 292.44 o
-4 8 10 0 336.66 162.87 166.84 <
-4 -8 10 0 329.37 111.44 85.61 <
-4 8 10 1 32.31 188.82 154.39 <
-4 -8 10 1 31.96 121.22 75.42 <
-4 8 10 2 64.02 -47.81 86.38 <
-4 -8 10 2 54.96 -8.77 36.14 <
-3 8 10 -2 38.41 105.52 110.14 <
-3 -8 10 -2 46.45 41.18 49.06 <
-3 8 10 -1 9.32 164.88 126.19 <
-3 -8 10 -1 7.93 16.06 32.88 <
-3 8 10 0 154.82 307.37 187.57 <
-3 -8 10 0 142.73 260.62 96.16 <
-3 8 10 1 16.43 53.85 16.65 o
-3 -8 10 1 15.19 91.00 63.81 <
-3 8 10 2 65.47 88.45 93.85 <
-3 -8 10 2 68.42 69.02 31.81 <
-2 8 10 -2 96.66 250.73 164.82 <
-2 -8 10 -2 100.46 151.02 61.38 <
-2 8 10 -1 1032.78 1085.14 273.89 o
-2 -8 10 -1 1013.47 1122.11 191.24 o
-2 8 10 0 1481.92 1665.28 341.97 o
-2 -8 10 0 1502.17 1615.57 249.54 o
-2 8 10 1 51.71 -28.38 47.69 <
-2 -8 10 1 43.26 35.43 86.26 <
-2 8 10 2 108.99 10.13 62.39 <
-2 -8 10 2 99.79 146.93 87.03 <
-1 8 10 -2 244.17 -45.20 64.70 <
-1 -8 10 -2 254.99 80.99 58.53 <
-1 8 10 -1 541.24 586.35 197.23 <
-1 -8 10 -1 570.71 536.41 195.15 <
-1 8 10 0 712.01 589.38 185.79 o
-1 -8 10 0 716.68 815.75 278.81 <
-1 8 10 1 103.88 308.02 153.80 <
-1 -8 10 1 138.37 475.09 208.19 <
-1 8 10 2 75.15 50.89 79.63 <
-1 -8 10 2 82.24 10.13 41.29 <
0 8 10 -2 52.74 88.99 83.65 <
0 -8 10 -2 47.99 38.81 88.57 <
0 8 10 -1 337.81 333.85 122.34 <
0 -8 10 -1 320.06 229.40 115.88 <
0 8 10 0 377.15 509.16 147.40 o
0 -8 10 0 394.20 282.36 119.68 <
0 8 10 1 196.08 217.25 99.71 <
0 -8 10 1 159.57 193.08 136.56 <
0 8 10 2 99.91 108.48 93.43 <
0 -8 10 2 90.65 193.32 138.34 <
1 8 10 -2 103.73 43.84 49.11 <
1 -8 10 -2 106.43 109.43 95.09 <
1 8 10 -1 93.72 195.04 82.23 <
1 -8 10 -1 94.38 -0.89 46.15 <
1 8 10 0 672.70 676.29 120.27 o
1 -8 10 0 671.62 777.12 232.18 o
1 8 10 1 61.06 56.46 31.64 <
1 -8 10 1 67.13 121.57 111.56 <
1 8 10 2 126.81 77.61 48.76 <
1 -8 10 2 122.71 5.10 48.76 <
2 8 10 -2 120.03 6.58 35.61 <
2 -8 10 -2 120.64 -48.70 41.77 <
2 8 10 -1 58.11 51.66 50.00 <
2 -8 10 -1 44.54 -31.58 56.88 <
2 8 10 0 1154.96 1575.40 328.52 o
2 -8 10 0 1206.02 1272.18 320.87 o
2 8 10 1 280.42 241.13 105.64 <
2 -8 10 1 232.90 373.07 176.08 <
2 8 10 2 250.52 50.36 101.19 <
2 -8 10 2 248.35 155.93 127.26 <
3 8 10 -2 141.98 -126.01 123.23 <
3 -8 10 -2 149.77 -2.78 24.05 <
3 8 10 -1 79.13 59.90 52.43 <
3 -8 10 -1 78.21 76.19 72.16 <
3 8 10 0 380.14 236.57 105.69 <
3 -8 10 0 365.00 351.56 192.25 <
3 8 10 1 106.63 44.67 97.52 <
3 -8 10 1 111.66 370.05 190.95 <
3 8 10 2 66.19 -182.95 206.41 <
3 -8 10 2 65.40 124.36 125.72 <
4 8 10 -2 147.96 195.21 100.66 <
4 -8 10 -2 146.80 352.63 182.95 <
4 8 10 -1 55.26 -50.00 125.78 <
4 -8 10 -1 44.12 155.93 135.20 <
4 8 10 0 135.30 -224.78 156.53 <
4 -8 10 0 146.12 24.71 133.12 <
4 8 10 1 128.82 193.50 111.44 <
5 8 10 -2 49.68 -142.43 117.48 <
5 -8 10 -2 56.65 113.04 134.90 <
-4 9 10 -2 51.61 188.64 146.04 <
-4 -9 10 -2 54.24 150.66 123.71 <
-4 9 10 -1 44.15 -147.05 139.35 <
-4 -9 10 -1 48.88 153.57 130.46 <
-4 9 10 0 137.87 18.31 86.02 <
-4 -9 10 0 131.72 142.01 137.21 <
-4 9 10 1 423.45 224.24 139.76 <
-4 -9 10 1 417.92 172.35 101.96 <
-4 9 10 2 82.94 91.24 81.40 <
-4 -9 10 2 88.90 -67.90 78.74 <
-3 9 10 -2 71.30 15.58 54.33 <
-3 -9 10 -2 67.92 -62.15 69.26 <
-3 9 10 -1 995.43 1032.18 297.83 o
-3 -9 10 -1 990.80 750.46 163.87 o
-3 9 10 0 236.46 101.37 72.16 <
-3 -9 10 0 257.74 198.18 97.52 <
-3 9 10 1 109.00 216.13 165.29 <
-3 -9 10 1 101.51 32.29 60.37 <
-3 9 10 2 96.30 75.06 80.16 <
-3 -9 10 2 90.59 53.91 84.60 <
-2 9 10 -2 89.34 19.20 63.81 <
-2 -9 10 -2 86.49 175.54 77.20 <
-2 9 10 -1 277.33 349.43 158.19 <
-2 -9 10 -1 292.09 503.59 127.02 o
-2 9 10 0 227.00 136.98 116.36 <
-2 -9 10 0 196.82 117.25 137.45 <
-2 9 10 1 666.49 219.21 130.99 <
-2 -9 10 1 681.02 338.83 184.96 <
-2 9 10 2 113.50 44.67 13.51 o
-2 -9 10 2 123.19 77.14 132.00 <
-1 9 10 -2 196.27 235.38 135.55 <
-1 -9 10 -2 198.51 202.15 89.16 <
-1 9 10 -1 153.84 190.71 91.06 <
-1 -9 10 -1 151.53 200.31 107.71 <
-1 9 10 0 393.67 482.67 180.05 <
-1 -9 10 0 422.42 552.94 222.05 <
-1 9 10 1 84.18 55.81 64.70 <
-1 -9 10 1 76.95 98.64 48.82 <
-1 9 10 2 117.55 292.91 137.27 <
-1 -9 10 2 112.70 305.94 151.43 <
0 9 10 -2 27.62 68.31 71.21 <
0 -9 10 -2 23.50 20.68 80.81 <
0 9 10 -1 355.94 450.33 132.95 o
0 -9 10 -1 375.85 428.58 169.80 <
0 9 10 0 329.41 293.21 124.83 <
0 -9 10 0 349.70 265.95 150.43 <
0 9 10 1 743.26 677.12 175.31 o
0 -9 10 1 738.66 908.53 241.90 o
0 9 10 2 115.32 325.61 112.27 <
0 -9 10 2 119.50 114.70 119.91 <
1 9 10 -2 149.72 334.20 91.71 o
1 -9 10 -2 152.81 177.38 103.38 <
1 9 10 -1 986.14 804.67 132.24 o
1 -9 10 -1 999.33 868.42 255.70 o
1 9 10 0 369.12 294.63 75.12 o
1 -9 10 0 402.00 469.40 187.99 <
1 9 10 1 211.36 170.75 75.60 <
1 -9 10 1 209.18 141.42 104.98 <
1 9 10 2 26.23 136.62 93.61 <
1 -9 10 2 24.37 -51.72 83.54 <
2 9 10 -2 60.39 45.20 64.16 <
2 -9 10 -2 58.35 -6.22 75.12 <
2 9 10 -1 29.76 54.21 67.84 <
2 -9 10 -1 32.97 -1.18 53.32 <
2 9 10 0 199.05 56.34 59.78 <
2 -9 10 0 177.40 24.41 25.83 <
2 9 10 1 236.38 168.55 93.73 <
2 -9 10 1 248.86 270.16 156.05 <
2 9 10 2 297.17 166.84 88.99 <
2 -9 10 2 274.86 118.02 112.15 <
3 9 10 -2 66.23 100.18 74.47 <
3 -9 10 -2 64.53 44.32 93.90 <
3 9 10 -1 147.81 89.76 71.15 <
3 -9 10 -1 155.56 128.74 132.83 <
3 9 10 0 61.19 207.42 100.89 <
3 -9 10 0 76.69 314.42 174.42 <
3 9 10 1 88.49 -2.43 106.94 <
3 -9 10 1 91.95 106.23 93.61 <
3 9 10 2 3.08 -84.72 83.42 <
3 -9 10 2 5.13 60.79 75.18 <
4 9 10 -2 105.43 97.16 58.18 <
4 -9 10 -2 103.16 -73.46 126.73 <
4 9 10 -1 35.42 -19.97 87.45 <
4 -9 10 -1 35.12 110.32 118.37 <
4 9 10 0 88.36 0.00 49.41 <
4 -9 10 0 85.66 166.84 172.23 <
4 9 10 1 21.94 133.01 162.87 <
5 9 10 -2 24.40 0.00 55.28 <
-4 -10 10 -2 110.63 46.39 90.59 <
-4 10 10 -1 60.12 76.90 5.27 o
-4 -10 10 -1 59.25 -107.24 78.03 <
-4 10 10 0 113.58 59.30 50.83 <
-4 -10 10 0 107.46 33.36 14.46 <
-4 10 10 1 54.72 62.15 76.43 <
-4 -10 10 1 52.55 -138.69 100.24 <
-4 10 10 2 59.94 37.21 42.48 <
-4 -10 10 2 54.96 -40.35 89.46 <
-3 10 10 -2 130.85 233.60 122.82 <
-3 -10 10 -2 122.29 110.97 70.15 <
-3 10 10 -1 16.12 198.35 164.41 <
-3 -10 10 -1 10.10 23.46 52.79 <
-3 10 10 0 1103.94 1171.70 313.53 o
-3 -10 10 0 1133.23 699.75 155.70 o
-3 10 10 1 95.97 313.59 180.11 <
-3 -10 10 1 75.18 35.25 52.25 <
-3 10 10 2 73.98 13.03 67.07 <
-3 -10 10 2 78.01 99.12 100.48 <
-2 10 10 -2 73.93 108.66 95.80 <
-2 -10 10 -2 67.72 8.41 30.81 <
-2 10 10 -1 108.35 186.27 135.55 <
-2 -10 10 -1 105.03 103.62 62.09 <
-2 10 10 0 933.90 1321.65 322.00 o
-2 -10 10 0 879.58 1031.29 284.20 o
-2 10 10 1 133.35 48.23 55.75 <
-2 -10 10 1 139.34 282.13 158.19 <
-2 10 10 2 65.48 30.87 46.98 <
-2 -10 10 2 56.87 102.79 145.92 <
-1 10 10 -2 414.12 314.71 161.44 <
-1 10 10 -1 897.27 692.70 208.90 o
-1 10 10 0 3246.15 4090.02 505.78 o
-1 10 10 1 243.87 123.59 99.59 <
-1 -10 10 1 196.03 188.76 130.10 <
-1 10 10 2 37.49 38.63 71.09 <
-1 -10 10 2 39.31 138.10 122.70 <
0 10 10 -2 20.63 16.94 30.10 <
0 -10 10 -2 18.88 -12.50 54.09 <
0 10 10 -1 20.27 90.88 78.14 <
0 -10 10 -1 15.44 34.18 70.68 <
0 10 10 0 352.72 456.37 143.08 o
0 -10 10 0 282.26 369.81 162.57 <
0 10 10 1 223.37 320.05 136.09 <
0 -10 10 1 277.54 204.40 127.85 <
0 10 10 2 1.05 79.63 76.25 <
0 -10 10 2 1.68 -35.61 88.51 <
1 10 10 -2 468.94 395.23 96.45 o
1 -10 10 -2 470.91 322.18 131.05 <
1 10 10 -1 38.24 71.04 45.86 <
1 -10 10 -1 30.69 174.54 123.65 <
1 10 10 0 2979.17 2916.90 332.19 o
1 -10 10 0 3014.33 3160.40 459.04 o
1 10 10 1 369.69 212.34 95.33 <
1 -10 10 1 357.58 212.57 145.63 <
1 10 10 2 114.80 106.52 97.40 <
1 -10 10 2 112.66 74.83 90.41 <
2 10 10 -2 88.08 -36.91 70.74 <
2 -10 10 -2 97.54 -21.33 33.18 <
2 10 10 -1 172.66 56.76 62.86 <
2 -10 10 -1 175.10 248.18 97.10 <
2 10 10 0 1129.00 1379.83 325.67 o
2 -10 10 0 1097.07 1299.79 317.73 o
2 10 10 1 192.48 40.82 95.98 <
2 -10 10 1 253.12 205.76 128.33 <
2 10 10 2 212.36 255.35 85.85 <
2 -10 10 2 227.82 238.58 137.21 <
3 10 10 -2 274.59 3.20 57.35 <
3 -10 10 -2 274.67 63.33 91.89 <
3 10 10 -1 55.17 65.82 85.08 <
3 -10 10 -1 47.98 35.49 56.70 <
3 10 10 0 1002.19 808.94 196.52 o
3 -10 10 0 1004.30 1030.04 313.29 o
3 10 10 1 59.41 -89.34 102.97 <
3 -10 10 1 53.82 -71.81 141.48 <
3 10 10 2 49.40 -38.69 57.88 <
3 -10 10 2 51.99 160.56 115.82 <
4 10 10 -2 66.97 -27.85 90.11 <
4 -10 10 -2 71.65 60.67 94.62 <
4 10 10 -1 131.31 142.54 90.35 <
4 -10 10 -1 131.64 44.02 95.80 <
4 10 10 0 199.85 132.77 82.71 <
4 -10 10 0 189.37 21.21 76.19 <
4 10 10 1 96.64 43.60 69.44 <
5 10 10 -2 74.52 -46.03 66.47 <
-4 -11 10 -2 98.79 -1.60 22.16 <
-4 -11 10 -1 72.59 -43.66 48.05 <
-4 -11 10 0 44.25 356.48 170.80 <
-3 -11 10 -2 88.28 12.32 58.65 <
-3 11 10 -1 251.00 235.15 157.42 <
-3 -11 10 -1 231.51 134.25 59.25 <
-3 11 10 0 1089.47 1272.83 337.29 o
-3 -11 10 0 1073.08 463.00 183.90 <
-3 11 10 1 381.87 193.20 132.06 <
-3 -11 10 1 385.50 148.82 131.76 <
-3 11 10 2 27.95 19.79 45.92 <
-3 -11 10 2 21.61 33.47 115.35 <
-2 11 10 -2 115.96 110.08 99.89 <
-2 -11 10 -2 110.28 64.10 66.30 <
-2 11 10 -1 199.31 315.84 163.70 <
-2 -11 10 -1 195.78 69.08 80.87 <
-2 11 10 0 420.26 619.95 225.96 <
-2 -11 10 0 463.86 531.49 223.47 <
-2 11 10 1 260.97 255.05 155.76 <
-2 -11 10 1 240.32 271.82 166.12 <
-2 11 10 2 63.84 110.73 124.95 <
-2 -11 10 2 60.71 165.41 132.18 <
-1 11 10 -2 68.83 124.59 122.82 <
-1 11 10 -1 11.54 54.33 90.82 <
-1 11 10 0 2173.75 2148.13 381.96 o
-1 11 10 1 340.98 368.21 146.04 <
-1 11 10 2 79.50 -5.10 35.78 <
0 11 10 -2 46.89 40.29 73.58 <
0 -11 10 -2 47.91 51.25 78.03 <
0 11 10 -1 66.59 89.64 75.00 <
0 -11 10 -1 76.49 62.03 78.38 <
0 11 10 0 85.74 146.87 82.53 <
0 -11 10 0 102.64 165.53 109.13 <
0 11 10 1 476.36 287.76 120.51 <
0 -11 10 1 421.39 420.23 178.86 <
0 11 10 2 37.62 63.63 97.46 <
0 -11 10 2 37.10 134.25 112.51 <
1 11 10 -2 51.25 74.12 48.34 <
1 -11 10 -2 50.83 66.53 90.23 <
1 11 10 -1 120.39 127.56 77.08 <
1 -11 10 -1 114.08 206.18 123.88 <
1 11 10 0 1831.60 1776.95 261.10 o
1 -11 10 0 1779.73 1735.60 325.85 o
1 11 10 1 553.27 443.99 116.95 o
1 -11 10 1 557.22 530.43 179.40 <
1 11 10 2 66.93 204.22 116.65 <
1 -11 10 2 66.39 82.65 102.32 <
2 11 10 -2 98.12 -35.01 40.70 <
2 -11 10 -2 101.86 -27.55 41.77 <
2 11 10 -1 33.62 46.92 49.94 <
2 -11 10 -1 24.49 -12.68 42.78 <
2 11 10 0 457.06 445.53 127.38 o
2 -11 10 0 511.92 534.63 207.95 <
2 11 10 1 337.70 342.44 120.39 <
2 -11 10 1 307.48 425.86 179.16 <
2 11 10 2 200.40 18.19 53.20 <
2 -11 10 2 185.42 132.06 107.65 <
3 11 10 -2 73.07 37.80 20.50 <
3 -11 10 -2 79.55 106.76 67.07 <
3 11 10 -1 45.70 -11.91 74.83 <
3 -11 10 -1 48.74 107.59 115.71 <
3 11 10 0 848.82 888.33 202.56 o
3 -11 10 0 842.85 805.62 282.30 <
3 11 10 1 57.73 18.07 53.02 <
3 11 10 2 71.05 78.26 66.53 <
3 -11 10 2 67.91 235.26 168.73 <
4 11 10 -2 24.85 6.52 86.68 <
4 -11 10 -2 28.82 69.79 55.87 <
4 11 10 -1 13.86 43.49 56.28 <
4 -11 10 -1 9.55 -51.72 85.97 <
4 11 10 0 101.38 -12.50 36.32 <
4 -11 10 0 115.82 368.51 202.74 <
-4 -12 10 -1 238.12 162.27 115.65 <
-4 -12 10 0 50.89 -52.37 35.37 <
-3 12 10 -2 49.41 138.04 158.48 <
-3 -12 10 -2 53.40 166.60 111.92 <
-3 12 10 -1 73.76 201.26 157.36 <
-3 -12 10 -1 62.50 63.93 69.44 <
-3 12 10 0 186.58 100.24 103.74 <
-3 -12 10 0 197.06 73.35 73.29 <
-3 12 10 1 26.01 83.71 121.22 <
-3 -12 10 1 23.84 96.21 100.48 <
-3 12 10 2 48.66 9.42 34.01 <
-3 -12 10 2 43.21 -139.05 114.46 <
-2 12 10 -2 207.47 127.91 114.94 <
-2 -12 10 -2 207.47 57.23 34.95 <
-2 12 10 -1 245.72 110.97 122.28 <
-2 -12 10 -1 255.49 173.71 113.81 <
-2 12 10 0 197.45 208.72 148.59 <
-2 -12 10 0 180.04 321.82 185.50 <
-2 12 10 1 319.28 161.09 119.02 <
-2 -12 10 1 359.00 154.93 98.82 <
-2 12 10 2 53.18 136.44 136.32 <
-2 -12 10 2 51.62 97.58 83.42 <
-1 12 10 -2 42.07 34.42 35.90 <
-1 12 10 -1 81.85 200.78 127.44 <
-1 12 10 0 180.21 289.83 136.09 <
-1 12 10 1 160.29 103.62 120.09 <
-1 12 10 2 93.44 82.88 88.99 <
0 12 10 -2 6.15 89.58 61.14 <
0 12 10 -1 43.33 69.67 91.95 <
0 12 10 0 215.53 372.18 133.42 <
0 12 10 1 318.36 375.74 125.60 <
0 12 10 2 24.92 206.47 193.02 <
1 12 10 -2 39.62 -52.91 62.50 <
1 -12 10 -2 36.67 94.50 98.29 <
1 12 10 -1 82.05 -103.15 97.28 <
1 -12 10 -1 72.67 19.67 44.02 <
1 12 10 0 102.37 49.11 85.14 <
1 -12 10 0 117.19 79.33 28.38 <
1 12 10 1 348.49 272.65 109.66 <
1 -12 10 1 313.57 411.22 174.95 <
1 12 10 2 85.09 62.27 79.15 <
1 -12 10 2 82.17 121.45 75.89 <
2 12 10 -2 32.31 21.80 29.74 <
2 -12 10 -2 39.32 -59.84 69.79 <
2 12 10 -1 133.41 120.33 79.03 <
2 -12 10 -1 136.12 138.99 63.99 <
2 12 10 0 167.90 28.02 43.01 <
2 -12 10 0 153.45 148.77 108.42 <
2 12 10 1 80.77 106.76 56.46 <
2 -12 10 1 86.99 175.60 163.99 <
2 12 10 2 33.16 45.32 63.10 <
2 -12 10 2 31.41 -91.53 111.62 <
3 12 10 -2 78.69 95.03 75.89 <
3 -12 10 -2 79.77 46.80 35.19 <
3 12 10 -1 111.81 89.11 75.36 <
3 -12 10 -1 85.23 259.50 160.91 <
3 12 10 0 67.76 27.37 73.94 <
3 -12 10 0 77.90 102.02 124.12 <
3 12 10 1 419.68 347.83 128.86 <
3 -12 10 1 372.48 449.44 202.56 <
3 12 10 2 57.95 -36.91 81.58 <
3 -12 10 2 56.55 118.25 113.57 <
4 12 10 -2 42.60 61.56 78.14 <
4 -12 10 -2 48.07 9.30 57.29 <
4 12 10 -1 39.17 73.52 76.84 <
4 -12 10 -1 37.87 201.38 162.15 <
-3 13 10 -2 15.70 86.91 61.79 <
-3 -13 10 -2 15.75 109.78 93.02 <
-3 13 10 -1 16.52 49.00 73.70 <
-3 13 10 0 256.52 274.48 173.35 <
-3 -13 10 0 238.65 115.06 99.83 <
-3 13 10 1 176.17 241.54 174.71 <
-3 -13 10 1 179.71 136.74 119.38 <
-3 13 10 2 3.76 11.91 61.38 <
-3 -13 10 2 4.26 18.66 43.55 <
-2 13 10 -2 81.95 69.38 93.43 <
-2 -13 10 -2 85.09 -14.52 66.36 <
-2 13 10 -1 190.01 242.49 137.27 <
-2 -13 10 -1 182.41 42.36 35.78 <
-2 13 10 0 911.99 1168.20 319.87 o
-2 -13 10 0 951.05 590.74 222.29 <
-2 13 10 1 43.89 -98.82 105.87 <
-2 -13 10 1 35.20 49.00 98.47 <
-2 13 10 2 51.44 80.99 125.60 <
-2 -13 10 2 50.95 63.04 97.81 <
-1 13 10 -2 108.53 134.01 129.81 <
-1 13 10 -1 86.22 263.82 149.36 <
-1 13 10 0 871.50 604.30 208.13 <
-1 13 10 1 96.18 306.48 147.11 <
-1 13 10 2 0.95 -5.10 30.93 <
0 13 10 -2 138.86 96.21 61.20 <
0 13 10 -1 283.47 335.63 135.91 <
0 13 10 0 1371.04 1669.19 260.68 o
0 13 10 1 61.11 252.45 166.48 <
0 13 10 2 68.90 89.76 156.94 <
1 13 10 -2 110.79 188.88 106.64 <
1 13 10 -1 59.87 -17.71 78.74 <
1 13 10 0 823.95 500.92 124.12 o
1 13 10 1 537.72 239.12 128.92 <
1 13 10 2 65.69 68.84 91.53 <
2 13 10 -2 92.22 17.66 47.04 <
2 -13 10 -2 97.15 -30.63 42.48 <
2 13 10 -1 68.08 66.47 75.78 <
2 -13 10 -1 73.64 78.09 74.59 <
2 13 10 0 761.79 569.82 153.45 o
2 -13 10 0 783.04 814.98 252.03 o
2 13 10 1 37.75 -18.19 67.36 <
2 -13 10 1 35.73 26.36 102.08 <
2 13 10 2 39.73 45.80 53.14 <
2 -13 10 2 47.01 61.91 95.21 <
3 13 10 -2 145.54 184.25 93.55 <
3 -13 10 -2 139.28 167.01 84.13 <
3 13 10 -1 90.30 17.24 82.65 <
3 -13 10 -1 90.50 -17.00 43.37 <
3 13 10 0 260.44 146.28 100.30 <
3 -13 10 0 245.02 186.68 160.97 <
3 13 10 1 27.24 39.40 63.04 <
3 -13 10 1 22.04 36.32 31.99 <
3 -13 10 2 23.30 218.56 146.16 <
4 13 10 -2 32.32 -29.92 47.99 <
4 -13 10 -2 32.43 -4.38 49.23 <
4 -13 10 -1 43.98 100.30 81.88 <
-3 14 10 -2 20.02 96.16 74.12 <
-3 -14 10 -2 18.81 81.11 87.15 <
-3 14 10 -1 645.53 720.96 277.57 <
-3 14 10 0 9.87 0.30 56.40 <
-3 14 10 1 28.08 -108.24 110.79 <
-3 -14 10 1 18.45 170.57 135.73 <
-3 14 10 2 60.77 64.76 82.88 <
-3 -14 10 2 65.29 -43.19 67.84 <
-2 14 10 -2 23.90 -51.84 67.07 <
-2 -14 10 -2 30.09 -40.05 88.34 <
-2 14 10 -1 13.87 43.01 65.35 <
-2 -14 10 -1 18.13 -25.00 77.73 <
-2 14 10 0 348.54 312.46 163.28 <
-2 -14 10 0 367.87 224.18 156.88 <
-2 14 10 1 50.92 -37.98 77.02 <
-2 -14 10 1 40.54 199.36 156.88 <
-2 14 10 2 62.06 -52.43 39.22 <
-2 -14 10 2 60.13 -76.78 84.13 <
-1 14 10 -2 20.92 -13.15 25.83 <
-1 14 10 -1 138.44 230.58 147.23 <
-1 14 10 0 11.40 96.99 90.29 <
-1 14 10 1 59.99 -46.57 65.76 <
-1 14 10 2 37.20 182.30 111.92 <
0 14 10 -2 188.33 308.85 157.83 <
0 14 10 -1 5.92 146.57 111.86 <
0 14 10 0 163.21 278.63 183.01 <
0 14 10 1 204.03 222.35 163.34 <
0 14 10 2 26.08 -197.94 185.50 <
1 14 10 -2 20.85 34.36 40.70 <
1 14 10 -1 248.14 139.40 80.40 <
1 14 10 0 49.57 -83.18 103.92 <
1 14 10 1 55.96 -73.94 73.35 <
1 14 10 2 18.44 124.77 82.06 <
2 14 10 -2 81.45 48.05 52.79 <
2 -14 10 -2 93.93 44.97 34.30 <
2 14 10 -1 16.83 -7.35 23.70 <
2 -14 10 -1 18.23 10.07 47.46 <
2 14 10 0 312.90 278.45 119.91 <
2 14 10 1 188.29 63.16 74.00 <
2 14 10 2 7.94 32.88 67.66 <
3 14 10 -2 17.03 23.58 43.55 <
3 -14 10 -2 16.38 81.17 79.51 <
3 14 10 -1 19.03 -1.96 16.29 <
3 -14 10 -1 21.50 140.29 143.43 <
3 14 10 0 16.36 106.17 133.72 <
3 -14 10 0 21.47 67.90 83.24 <
3 14 10 1 113.62 200.90 116.77 <
3 -14 10 1 109.28 253.57 168.79 <
3 -14 10 2 4.07 223.53 179.57 <
4 14 10 -2 24.67 60.90 119.50 <
4 -14 10 -2 30.77 -177.09 88.22 <
4 -14 10 -1 34.90 -38.98 72.22 <
-3 15 10 -2 82.13 365.90 198.35 <
-3 15 10 -1 69.19 251.68 179.81 <
-3 15 10 0 5.42 159.37 125.19 <
-3 15 10 1 37.62 -150.31 94.02 <
-3 15 10 2 91.08 68.25 118.73 <
-3 -15 10 2 86.85 -33.18 79.33 <
-2 15 10 -2 142.17 -71.57 116.60 <
-2 -15 10 -2 147.07 -27.08 56.88 <
-2 15 10 -1 53.67 168.85 129.87 <
-2 -15 10 -1 35.34 17.18 80.81 <
-2 15 10 0 266.27 189.41 130.93 <
-2 -15 10 0 249.94 90.23 106.35 <
-2 15 10 1 79.29 12.86 59.19 <
-2 -15 10 1 76.28 168.79 135.43 <
-2 15 10 2 48.13 38.92 71.81 <
-2 -15 10 2 44.42 102.61 138.87 <
-1 15 10 -2 54.11 32.76 75.36 <
-1 15 10 -1 246.99 260.74 160.02 <
-1 15 10 0 53.62 -117.72 98.94 <
-1 15 10 1 93.33 -41.83 87.09 <
-1 15 10 2 117.77 256.30 192.37 <
0 15 10 -2 25.74 137.69 68.31 <
0 15 10 -1 30.04 -19.85 77.37 <
0 15 10 0 921.72 491.80 244.80 <
0 15 10 1 79.91 179.28 175.07 <
0 15 10 2 25.89 -10.84 137.92 <
1 15 10 -2 14.78 69.44 76.07 <
1 15 10 -1 87.26 24.17 77.85 <
1 15 10 0 27.48 35.13 29.56 <
1 15 10 1 120.40 89.64 91.18 <
1 -15 10 1 128.04 230.29 180.11 <
1 15 10 2 23.77 40.64 44.73 <
2 15 10 -2 106.40 -35.67 30.45 <
2 15 10 -1 11.93 -0.36 25.30 <
2 -15 10 -1 11.04 81.40 116.24 <
2 15 10 0 102.22 51.13 61.73 <
2 -15 10 0 93.46 9.60 34.54 <
2 15 10 1 8.00 283.31 143.14 <
2 15 10 2 148.32 91.42 106.40 <
3 15 10 -2 50.40 -64.70 40.41 <
3 -15 10 -2 46.24 14.52 71.86 <
3 15 10 -1 62.30 205.64 158.72 <
3 15 10 0 5.76 -3.50 74.41 <
4 -15 10 -2 109.47 36.91 108.83 <
-3 16 10 -1 59.15 70.86 70.92 <
-3 16 10 0 62.68 348.19 198.65 <
-3 16 10 1 128.52 45.86 92.54 <
-3 16 10 2 20.68 -79.57 102.08 <
-2 16 10 -2 8.47 55.57 85.43 <
-2 16 10 -1 61.02 158.01 127.91 <
-2 -16 10 -1 72.30 37.98 87.80 <
-2 16 10 0 186.74 203.27 149.00 <
-2 -16 10 0 177.25 150.07 88.28 <
-2 16 10 1 14.06 33.65 36.55 <
-2 -16 10 1 13.96 -11.32 81.17 <
-2 16 10 2 49.91 -7.29 25.48 <
-2 -16 10 2 48.63 216.37 138.93 <
-1 16 10 -2 58.25 -9.72 52.67 <
-1 16 10 -1 163.77 150.48 130.99 <
-1 16 10 0 99.60 422.01 192.13 <
-1 16 10 1 335.95 352.16 222.17 <
-1 16 10 2 14.64 460.58 253.93 <
0 16 10 -2 14.12 0.06 85.79 <
0 16 10 -1 153.12 174.66 101.07 <
0 16 10 0 635.68 934.66 303.87 o
0 16 10 1 96.53 -14.93 136.56 <
0 16 10 2 28.72 116.18 138.28 <
1 16 10 -2 33.30 -114.94 88.45 <
1 16 10 -1 54.97 182.71 87.21 <
1 16 10 0 218.38 301.80 117.31 <
1 16 10 1 9.50 56.94 50.12 <
1 -16 10 1 7.82 199.66 194.38 <
1 16 10 2 9.81 -4.15 56.34 <
2 16 10 -2 59.34 54.51 78.26 <
2 -16 10 -2 66.05 249.37 169.68 <
2 16 10 -1 33.82 -45.74 42.24 <
2 -16 10 -1 28.85 197.64 151.08 <
2 16 10 0 182.22 116.12 48.52 <
2 -16 10 0 179.98 61.44 44.49 <
2 16 10 1 110.47 135.49 132.00 <
2 16 10 2 94.05 61.26 98.58 <
3 16 10 -2 28.31 -27.55 52.20 <
3 -16 10 -2 23.76 -98.58 92.07 <
3 16 10 -1 34.97 115.71 117.31 <
3 16 10 0 84.63 237.75 160.56 <
-2 17 10 -2 47.22 16.06 59.72 <
-2 17 10 -1 33.14 95.62 123.23 <
-2 17 10 0 696.44 729.73 265.66 <
-2 -17 10 0 694.38 349.08 165.47 <
-2 17 10 1 20.59 41.65 65.29 <
-2 -17 10 1 16.66 80.63 124.12 <
-2 17 10 2 33.58 -78.50 90.65 <
-2 -17 10 2 36.94 56.11 80.46 <
-1 17 10 -2 23.49 -25.00 73.35 <
-1 17 10 -1 490.75 452.52 216.01 <
-1 17 10 1 59.38 271.05 226.26 <
-1 17 10 2 40.18 10.60 127.14 <
0 17 10 -2 62.58 86.74 79.15 <
0 17 10 -1 19.92 221.34 115.06 <
0 17 10 0 1133.22 933.77 229.46 o
0 17 10 1 14.85 154.81 191.72 <
0 17 10 2 23.90 113.16 171.46 <
1 17 10 -2 80.87 92.25 60.67 <
1 17 10 -1 28.56 -5.92 50.60 <
1 17 10 0 555.85 917.30 268.56 o
1 17 10 1 11.76 95.44 96.87 <
1 -17 10 1 12.50 0.00 109.90 <
1 17 10 2 9.00 6.34 64.10 <
1 -17 10 2 9.89 165.18 149.00 <
2 17 10 -2 64.66 204.46 136.56 <
2 -17 10 -2 64.56 256.83 172.23 <
2 17 10 -1 36.94 14.34 77.14 <
2 -17 10 -1 40.81 33.71 89.88 <
2 17 10 0 523.17 758.34 260.68 <
2 -17 10 0 505.18 92.01 85.79 <
2 17 10 1 8.16 -44.55 76.07 <
3 17 10 -2 69.50 -44.20 119.74 <
3 -17 10 -2 67.44 -147.23 115.82 <
3 17 10 -1 6.75 111.92 136.92 <
-2 18 10 -2 26.93 136.92 146.34 <
-2 18 10 -1 249.06 368.03 182.00 <
-2 18 10 0 63.38 52.31 91.83 <
-2 18 10 1 18.93 -88.04 114.40 <
-2 -18 10 1 16.92 208.72 180.23 <
-2 -18 10 2 16.54 8.89 75.54 <
-1 18 10 -2 27.85 282.54 159.43 <
-1 18 10 -1 53.86 104.21 122.28 <
-1 18 10 1 70.21 142.90 111.92 <
-1 18 10 2 10.37 77.14 145.86 <
0 18 10 -2 22.56 21.80 88.28 <
0 18 10 -1 342.89 85.20 91.36 <
0 18 10 0 529.58 726.41 202.86 o
0 18 10 1 237.32 201.32 177.20 <
1 18 10 -2 2.98 64.99 69.91 <
1 18 10 -1 193.52 260.56 145.45 <
1 18 10 0 208.30 435.63 197.47 <
1 18 10 1 12.47 91.36 111.62 <
1 -18 10 1 16.80 273.36 229.40 <
1 -18 10 2 4.11 183.78 178.03 <
2 18 10 -2 12.73 41.65 73.41 <
2 -18 10 -2 12.10 222.23 183.13 <
2 18 10 -1 91.55 129.99 121.16 <
2 -18 10 -1 88.90 169.32 149.65 <
2 18 10 0 59.99 57.59 79.57 <
2 -18 10 0 61.30 93.73 91.30 <
2 18 10 1 216.62 91.30 91.65 <
3 18 10 -2 11.25 -17.83 73.76 <
3 -18 10 -2 13.61 -61.79 77.02 <
-2 19 10 -2 11.52 10.60 47.81 <
-2 19 10 -1 54.01 -45.80 86.74 <
-2 19 10 0 13.91 297.71 181.29 <
-1 19 10 -2 31.01 33.95 68.19 <
0 19 10 -2 17.29 64.34 90.71 <
0 19 10 -1 116.94 22.51 119.74 <
0 19 10 0 444.37 506.96 273.95 <
0 19 10 1 149.66 149.24 170.27 <
0 19 10 2 27.72 326.56 254.10 <
1 19 10 -2 17.86 -27.37 30.16 <
1 19 10 -1 18.25 42.95 57.11 <
1 19 10 0 798.50 682.92 235.62 <
1 -19 10 0 802.18 854.26 350.85 <
1 -19 10 1 3.53 205.52 165.59 <
1 -19 10 2 65.61 262.58 232.24 <
2 19 10 -2 13.45 -26.60 80.22 <
2 -19 10 -2 12.95 429.12 236.39 <
2 19 10 -1 67.82 5.33 106.58 <
2 -19 10 -1 66.88 167.31 173.00 <
2 19 10 0 14.92 243.38 159.73 <
2 -19 10 0 16.27 -207.71 145.80 <
3 -19 10 -2 40.37 -118.31 109.31 <
-2 20 10 -2 109.40 13.33 38.63 <
-2 20 10 -1 114.00 195.69 164.88 <
0 20 10 -2 67.65 -34.36 91.30 <
0 20 10 -1 160.32 131.05 86.85 <
0 20 10 0 648.56 1047.82 375.74 <
0 20 10 1 24.43 31.46 137.92 <
0 20 10 2 5.49 205.23 172.94 <
1 20 10 -2 8.35 -15.34 45.74 <
1 20 10 -1 45.54 15.58 4.44 o
1 -20 10 0 354.57 718.47 293.50 <
1 -20 10 1 112.44 199.84 219.74 <
2 20 10 -2 58.59 111.97 111.26 <
2 -20 10 -2 51.68 215.71 193.55 <
2 20 10 -1 33.04 -86.97 135.85 <
2 -20 10 -1 30.67 214.76 164.41 <
0 21 10 -2 10.24 40.58 57.76 <
0 21 10 -1 81.45 106.35 114.11 <
0 21 10 0 139.14 312.82 189.59 <
0 21 10 1 42.52 121.75 109.90 <
1 21 10 -2 11.16 -20.02 88.57 <
1 21 10 -1 34.07 44.67 148.41 <
1 -21 10 -1 38.87 259.73 245.40 <
2 21 10 -2 31.85 213.40 163.52 <
2 -21 10 -2 30.85 141.89 174.30 <
0 22 10 -2 25.67 -245.63 168.26 <
0 22 10 -1 210.03 126.67 152.44 <
1 22 10 -2 30.95 301.44 239.00 <
-4 0 11 -2 160.97 374.55 200.90 <
-4 0 11 -1 1389.60 1190.66 333.97 o
-4 0 11 0 54.15 211.21 177.62 <
-4 0 11 1 30.30 80.75 139.11 <
-4 0 11 2 43.46 143.08 159.90 <
-3 0 11 -2 24.53 -27.19 77.14 <
-3 0 11 -1 17.17 -10.31 54.80 <
-3 0 11 0 111.69 115.82 81.34 <
-3 0 11 1 239.87 183.72 142.66 <
-3 0 11 2 18.51 2.90 71.04 <
-2 0 11 -2 24.53 120.27 146.40 <
-2 0 11 -1 2673.88 2264.19 430.89 o
-2 0 11 0 214.94 343.39 188.76 <
-2 0 11 1 32.38 168.38 141.24 <
-2 0 11 2 136.88 168.79 147.99 <
-1 0 11 -2 113.34 191.54 119.85 <
-1 0 11 -1 148.04 181.23 142.43 <
-1 0 11 0 76.09 80.63 92.19 <
-1 0 11 1 482.42 879.09 206.89 o
-1 0 11 2 70.59 63.27 69.73 <
0 0 11 -2 97.70 143.85 106.88 <
0 0 11 -1 1208.04 632.57 161.27 o
0 0 11 0 618.40 198.89 104.57 <
0 0 11 1 25.55 127.85 110.61 <
0 0 11 2 120.03 157.59 105.93 <
1 0 11 -2 98.47 -8.00 90.76 <
1 0 11 -1 254.53 134.49 53.32 <
1 0 11 0 77.28 72.28 124.53 <
1 0 11 1 38.50 109.43 129.87 <
1 0 11 2 178.19 410.33 218.26 <
2 0 11 -2 52.26 69.50 133.12 <
2 0 11 -1 530.74 286.21 188.22 <
2 0 11 0 247.47 486.35 229.52 <
2 0 11 1 13.94 84.48 100.78 <
2 0 11 2 258.70 423.01 225.37 <
3 0 11 -2 188.43 174.54 146.99 <
3 0 11 -1 261.43 -29.39 59.72 <
3 0 11 0 100.82 39.22 57.53 <
3 0 11 1 112.58 223.30 165.41 <
3 0 11 2 70.87 50.18 91.42 <
4 0 11 -2 22.05 26.42 133.07 <
4 0 11 -1 32.76 241.66 202.09 <
4 0 11 0 69.48 -50.12 126.96 <
5 0 11 -2 73.37 110.85 93.19 <
-4 1 11 -2 212.64 289.00 157.12 <
-4 -1 11 -2 204.09 121.39 72.64 <
-4 1 11 -1 38.45 212.22 130.46 <
-4 -1 11 -1 24.42 401.98 207.18 <
-4 1 11 0 118.95 77.85 60.55 <
-4 -1 11 0 116.06 -39.99 6.22 <
-4 1 11 1 50.95 168.20 148.65 <
-4 -1 11 1 51.33 -50.12 88.10 <
-4 1 11 2 216.04 647.49 285.09 <
-4 -1 11 2 212.85 365.07 212.04 <
-3 1 11 -2 52.00 90.47 128.03 <
-3 -1 11 -2 46.53 159.49 98.76 <
-3 1 11 -1 31.55 106.05 108.54 <
-3 -1 11 -1 37.90 43.43 59.19 <
-3 1 11 0 226.43 139.17 112.80 <
-3 -1 11 0 209.31 259.32 168.08 <
-3 1 11 1 97.31 -11.02 16.59 <
-3 -1 11 1 101.49 78.09 104.04 <
-3 1 11 2 59.15 -102.02 89.11 <
-3 -1 11 2 46.14 77.91 123.35 <
-2 1 11 -2 20.48 35.67 63.22 <
-2 -1 11 -2 21.57 104.15 129.57 <
-2 1 11 -1 258.36 469.17 210.26 <
-2 -1 11 -1 231.93 480.48 206.95 <
-2 1 11 0 1122.59 1066.54 290.60 o
-2 -1 11 0 1172.57 805.27 261.45 o
-2 1 11 1 30.66 304.46 158.84 <
-2 -1 11 1 39.25 128.62 127.79 <
-2 1 11 2 360.47 496.83 211.21 <
-2 -1 11 2 355.47 473.20 171.28 <
-1 1 11 -2 183.09 242.14 139.64 <
-1 -1 11 -2 194.56 377.28 196.22 <
-1 1 11 -1 97.71 46.27 99.30 <
-1 -1 11 -1 106.66 134.72 97.40 <
-1 1 11 0 178.27 88.34 75.00 <
-1 -1 11 0 153.48 153.09 105.28 <
-1 1 11 1 17.94 84.01 80.81 <
-1 -1 11 1 19.16 220.10 121.63 <
-1 1 11 2 32.93 131.11 90.82 <
-1 -1 11 2 26.77 66.47 70.38 <
0 1 11 -2 258.95 373.78 136.32 <
0 -1 11 -2 274.06 541.56 153.45 o
0 1 11 -1 260.06 368.39 134.84 <
0 -1 11 -1 253.26 261.63 100.89 <
0 1 11 0 169.66 405.83 141.36 <
0 -1 11 0 115.93 564.08 169.86 o
0 1 11 1 88.75 217.49 109.01 <
0 -1 11 1 128.85 19.31 54.39 <
0 1 11 2 163.47 323.18 150.19 <
0 -1 11 2 158.76 74.12 71.63 <
1 1 11 -2 126.44 192.55 76.49 <
1 -1 11 -2 145.18 213.94 142.31 <
1 1 11 -1 566.85 593.64 159.85 o
1 -1 11 -1 588.65 631.62 238.64 <
1 1 11 0 114.04 101.55 69.26 <
1 -1 11 0 100.69 41.12 39.52 <
1 1 11 1 74.62 198.77 100.95 <
1 -1 11 1 68.22 118.08 121.93 <
1 1 11 2 57.24 94.32 72.16 <
1 -1 11 2 53.35 187.57 171.69 <
2 1 11 -2 170.50 242.20 144.03 <
2 -1 11 -2 174.72 248.95 160.20 <
2 1 11 -1 93.10 145.74 129.93 <
2 -1 11 -1 89.07 10.37 57.53 <
2 1 11 0 1423.56 1225.85 342.38 o
2 -1 11 0 1472.25 1593.65 390.73 o
2 1 11 1 33.95 80.57 117.25 <
2 -1 11 1 52.00 -45.97 107.94 <
2 1 11 2 303.37 508.92 248.00 <
2 -1 11 2 290.86 245.75 181.29 <
3 1 11 -2 49.77 206.06 212.46 <
3 -1 11 -2 57.21 60.25 151.14 <
3 1 11 -1 399.80 574.80 248.48 <
3 -1 11 -1 405.22 257.66 178.03 <
3 1 11 0 16.97 159.43 88.93 <
3 -1 11 0 15.70 -67.54 60.43 <
3 1 11 1 128.11 66.71 118.14 <
3 -1 11 1 120.03 177.09 185.68 <
3 1 11 2 30.57 -49.83 158.19 <
3 -1 11 2 26.99 116.65 133.72 <
4 1 11 -2 133.13 136.03 110.61 <
4 -1 11 -2 128.69 286.27 202.62 <
4 1 11 -1 100.79 216.31 161.44 <
4 -1 11 -1 90.70 105.75 138.75 <
4 1 11 0 249.44 165.47 135.26 <
4 -1 11 0 256.31 325.67 216.42 <
5 1 11 -2 27.08 120.92 140.00 <
-4 2 11 -2 15.45 67.95 79.33 <
-4 -2 11 -2 16.84 13.39 66.30 <
-4 2 11 -1 99.71 28.20 6.28 o
-4 -2 11 -1 100.38 150.96 108.60 <
-4 2 11 0 501.53 461.46 218.02 <
-4 -2 11 0 504.98 329.94 174.18 <
-4 2 11 1 41.10 -85.02 132.59 <
-4 -2 11 1 38.36 100.78 99.00 <
-4 2 11 2 123.78 79.92 79.86 <
-4 -2 11 2 117.92 171.10 155.88 <
-3 -2 11 -2 16.14 -18.37 38.51 <
-3 2 11 -1 694.14 613.07 233.66 <
-3 -2 11 -1 692.17 669.47 232.95 <
-3 2 11 0 19.89 171.69 148.11 <
-3 -2 11 0 24.81 7.70 42.60 <
-3 2 11 1 42.99 201.85 133.90 <
-3 -2 11 1 45.25 71.69 49.71 <
-3 2 11 2 48.91 62.86 135.61 <
-3 -2 11 2 58.71 143.14 153.39 <
-2 2 11 -2 548.28 542.39 215.89 <
-2 -2 11 -2 544.65 431.60 211.33 <
-2 2 11 -1 103.76 82.11 148.94 <
-2 -2 11 -1 103.73 157.00 125.54 <
-2 2 11 0 1047.67 1153.22 308.43 o
-2 -2 11 0 993.64 1113.46 295.34 o
-2 2 11 1 41.46 181.76 117.31 <
-2 -2 11 1 37.07 9.83 39.99 <
-2 2 11 2 138.28 158.54 130.28 <
-2 -2 11 2 127.79 210.20 105.58 <
-1 2 11 -2 175.91 136.15 140.77 <
-1 -2 11 -2 152.50 161.27 134.49 <
-1 2 11 -1 186.85 -39.34 47.46 <
-1 -2 11 -1 133.12 49.88 32.88 <
-1 2 11 0 115.91 62.74 88.34 <
-1 -2 11 0 113.49 171.81 97.16 <
-1 2 11 1 133.32 113.51 112.03 <
-1 -2 11 1 126.23 181.71 157.18 <
-1 2 11 2 45.72 39.93 58.42 <
-1 -2 11 2 44.59 128.33 84.13 <
0 2 11 -2 30.06 49.35 95.92 <
0 -2 11 -2 28.94 150.13 97.76 <
0 2 11 -1 14.25 84.48 84.72 <
0 -2 11 -1 11.43 130.76 95.03 <
0 2 11 0 2442.33 2675.83 331.18 o
0 -2 11 0 2365.45 2763.81 346.53 o
0 2 11 1 231.09 252.51 108.78 <
0 -2 11 1 238.34 316.85 125.84 <
0 2 11 2 68.57 63.51 78.44 <
0 -2 11 2 66.95 9.18 50.77 <
1 2 11 -2 251.16 49.71 59.48 <
1 -2 11 -2 223.79 4.62 27.67 <
1 2 11 -1 233.33 286.27 126.07 <
1 -2 11 -1 247.09 220.39 153.15 <
1 2 11 0 78.04 105.04 75.54 <
1 -2 11 0 80.13 10.43 78.50 <
1 2 11 1 671.75 762.37 177.85 o
1 -2 11 1 657.45 684.88 266.66 <
1 2 11 2 398.07 293.62 111.92 <
1 -2 11 2 384.77 309.02 185.68 <
2 2 11 -2 214.22 -132.35 145.21 <
2 -2 11 -2 234.46 76.49 25.06 o
2 2 11 -1 101.30 121.87 90.05 <
2 -2 11 -1 94.32 270.04 169.98 <
2 2 11 0 1121.37 845.26 303.04 <
2 -2 11 0 1058.49 1113.58 326.33 o
2 2 11 1 326.03 484.51 229.04 <
2 -2 11 1 362.05 466.62 223.53 <
2 2 11 2 235.18 239.12 168.14 <
2 -2 11 2 246.94 243.62 155.99 <
3 2 11 -2 270.46 -69.91 115.53 <
3 -2 11 -2 245.25 -92.01 82.47 <
3 2 11 -1 86.00 235.50 198.65 <
3 -2 11 -1 90.51 265.12 165.59 <
3 2 11 0 40.33 -57.53 82.06 <
3 -2 11 0 48.43 123.05 125.54 <
3 2 11 1 149.28 185.97 95.86 <
3 -2 11 1 141.93 195.21 117.66 <
3 2 11 2 184.56 314.36 174.12 <
3 -2 11 2 177.03 305.35 217.25 <
4 2 11 -2 194.90 137.57 164.76 <
4 -2 11 -2 214.32 65.82 162.15 <
4 2 11 -1 89.11 112.15 53.62 <
4 -2 11 -1 84.11 -15.46 40.23 <
4 2 11 0 444.35 260.38 212.22 <
4 -2 11 0 437.78 328.99 214.23 <
5 2 11 -2 104.35 337.29 217.96 <
-4 -3 11 -2 30.98 52.79 47.63 <
-4 3 11 -1 52.48 60.55 99.59 <
-4 -3 11 -1 44.27 18.31 61.73 <
-4 3 11 0 159.45 395.46 209.55 <
-4 -3 11 0 165.10 201.20 99.47 <
-4 3 11 1 242.99 148.59 127.50 <
-4 -3 11 1 231.77 44.61 52.79 <
-4 3 11 2 75.13 -65.64 105.93 <
-4 -3 11 2 69.12 61.67 70.09 <
-3 3 11 -2 143.44 -17.30 89.05 <
-3 -3 11 -2 143.39 216.72 99.53 <
-3 3 11 -1 260.59 480.07 200.66 <
-3 -3 11 -1 293.94 395.23 131.82 <
-3 3 11 0 526.31 603.36 213.88 <
-3 -3 11 0 510.63 445.17 202.56 <
-3 3 11 1 723.88 827.66 282.19 <
-3 -3 11 1 755.29 746.08 279.46 <
-3 3 11 2 228.98 272.65 192.79 <
-3 -3 11 2 230.49 236.74 189.35 <
-2 3 11 -2 101.65 121.63 90.11 <
-2 -3 11 -2 109.17 96.33 56.16 <
-2 3 11 -1 102.95 38.27 91.42 <
-2 -3 11 -1 82.85 127.08 134.96 <
-2 3 11 0 389.59 343.15 169.98 <
-2 -3 11 0 399.23 626.58 244.45 <
-2 3 11 1 263.65 150.54 115.94 <
-2 -3 11 1 254.43 136.56 95.86 <
-2 3 11 2 94.65 3.79 69.38 <
-2 -3 11 2 88.93 -17.54 63.99 <
-1 3 11 -2 130.23 55.16 51.90 <
-1 -3 11 -2 122.40 163.46 119.44 <
-1 3 11 -1 112.54 114.64 95.21 <
-1 -3 11 -1 138.86 166.72 92.60 <
-1 3 11 0 1471.15 1246.76 305.29 o
-1 -3 11 0 1388.29 1196.88 234.26 o
-1 3 11 1 1562.30 1568.82 275.97 o
-1 -3 11 1 1605.55 1664.21 278.63 o
-1 3 11 2 129.68 175.54 95.39 <
-1 -3 11 2 137.60 235.68 135.55 <
0 3 11 -2 98.20 120.62 94.44 <
0 -3 11 -2 90.70 22.10 59.72 <
0 3 11 -1 325.56 353.28 133.66 <
0 -3 11 -1 296.02 313.41 110.67 <
0 3 11 0 792.24 900.47 202.15 o
0 -3 11 0 785.51 969.73 293.50 o
0 3 11 1 326.39 249.30 132.24 <
0 -3 11 1 312.61 304.64 182.71 <
0 3 11 2 77.96 27.85 90.53 <
0 -3 11 2 76.49 1.07 60.61 <
1 3 11 -2 238.42 379.05 127.44 <
1 -3 11 -2 240.51 275.97 160.38 <
1 3 11 -1 113.76 285.21 132.18 <
1 -3 11 -1 102.04 237.16 151.08 <
1 3 11 0 1298.62 901.78 189.76 o
1 -3 11 0 1230.95 1150.08 318.74 o
1 3 11 1 1360.16 1313.47 240.77 o
1 -3 11 1 1366.72 1104.87 316.96 o
1 3 11 2 27.56 55.22 74.06 <
1 -3 11 2 25.18 29.39 69.97 <
2 3 11 -2 109.12 90.11 55.99 <
2 -3 11 -2 106.47 20.80 57.76 <
2 3 11 -1 230.23 284.38 109.01 <
2 -3 11 -1 189.71 467.92 245.69 <
2 3 11 0 380.14 512.89 161.21 o
2 -3 11 0 388.03 701.76 258.31 <
2 3 11 1 47.67 291.07 203.45 <
2 -3 11 1 38.01 89.70 97.64 <
2 3 11 2 143.95 292.08 209.08 <
2 -3 11 2 138.11 75.12 100.78 <
3 3 11 -2 186.21 136.21 152.62 <
3 -3 11 -2 189.52 130.93 102.44 <
3 3 11 -1 81.26 70.27 156.59 <
3 -3 11 -1 82.05 29.86 121.39 <
3 3 11 0 841.92 639.67 305.23 <
3 -3 11 0 815.19 888.21 300.26 <
3 3 11 1 610.58 406.54 231.59 <
3 -3 11 1 615.86 674.22 264.59 <
3 3 11 2 13.77 77.37 69.26 <
3 -3 11 2 7.83 -31.52 44.02 <
4 3 11 -2 78.32 98.17 119.08 <
4 -3 11 -2 75.83 142.43 157.65 <
4 3 11 -1 65.25 33.77 107.53 <
4 -3 11 -1 50.75 201.91 172.23 <
4 3 11 0 192.48 646.43 289.06 <
4 -3 11 0 195.14 339.18 220.63 <
5 3 11 -2 97.06 2.07 83.54 <
-4 4 11 -2 6.70 112.80 125.07 <
-4 -4 11 -2 8.83 3.55 59.60 <
-4 4 11 -1 168.51 57.23 88.10 <
-4 -4 11 -1 143.71 80.69 57.76 <
-4 4 11 0 68.24 -92.96 47.69 <
-4 -4 11 0 66.93 36.79 71.81 <
-4 4 11 1 60.07 -104.10 128.86 <
-4 -4 11 1 56.42 -69.67 57.71 <
-4 4 11 2 67.78 146.51 157.53 <
-4 -4 11 2 72.45 -33.59 71.63 <
-3 4 11 -2 175.23 2.49 51.96 <
-3 -4 11 -2 202.36 139.58 86.08 <
-3 4 11 -1 983.33 1233.79 320.52 o
-3 -4 11 -1 944.08 1195.34 219.56 o
-3 4 11 0 2214.53 2014.88 418.69 o
-3 -4 11 0 2343.26 1789.63 273.00 o
-3 4 11 1 204.77 20.20 33.95 <
-3 -4 11 1 190.44 259.85 184.20 <
-3 4 11 2 77.24 169.68 163.58 <
-3 -4 11 2 88.87 206.41 190.00 <
-2 4 11 -2 53.30 82.29 92.25 <
-2 -4 11 -2 52.93 86.85 58.12 <
-2 4 11 -1 154.07 200.43 154.75 <
-2 -4 11 -1 136.83 187.34 88.75 <
-2 4 11 0 150.08 160.56 97.76 <
-2 -4 11 0 150.26 155.52 173.23 <
-2 4 11 1 210.28 318.39 189.41 <
-2 -4 11 1 220.13 250.08 103.98 <
-2 4 11 2 88.54 75.48 93.67 <
-2 -4 11 2 90.66 70.98 93.02 <
-1 4 11 -2 166.44 6.28 69.32 <
-1 -4 11 -2 177.59 48.88 83.60 <
-1 4 11 -1 77.86 345.52 164.41 <
-1 -4 11 -1 81.46 240.30 116.48 <
-1 4 11 0 5536.46 6192.88 653.72 o
-1 -4 11 0 5811.03 6166.22 511.17 o
-1 4 11 1 646.79 439.90 154.75 <
-1 -4 11 1 551.33 376.68 140.00 <
-1 4 11 2 103.56 258.02 139.82 <
-1 -4 11 2 107.66 228.75 127.79 <
0 4 11 -2 35.95 126.31 58.00 <
0 -4 11 -2 36.76 110.97 117.78 <
0 4 11 -1 63.89 151.91 97.34 <
0 -4 11 -1 68.74 58.95 71.98 <
0 4 11 0 273.46 230.58 119.08 <
0 -4 11 0 283.55 157.53 158.24 <
0 4 11 1 244.22 380.83 151.14 <
0 -4 11 1 270.75 300.67 164.76 <
0 4 11 2 68.40 20.02 39.10 <
0 -4 11 2 71.21 110.91 110.43 <
1 4 11 -2 128.99 80.04 63.27 <
1 -4 11 -2 129.94 65.82 55.57 <
1 4 11 -1 620.45 483.56 151.49 o
1 -4 11 -1 639.53 446.24 200.37 <
1 4 11 0 5219.00 5323.33 453.94 o
1 -4 11 0 5475.13 5282.40 652.18 o
1 4 11 1 906.08 861.73 197.47 o
1 -4 11 1 926.96 610.53 253.45 <
1 4 11 2 37.44 121.33 91.53 <
1 -4 11 2 30.27 87.03 84.01 <
2 4 11 -2 73.35 104.33 77.08 <
2 -4 11 -2 81.82 54.57 93.73 <
2 4 11 -1 77.50 97.16 58.65 <
2 -4 11 -1 80.33 22.28 94.14 <
2 4 11 0 125.03 232.36 124.12 <
2 -4 11 0 128.48 372.54 235.44 <
2 4 11 1 121.06 -58.06 39.52 <
2 -4 11 1 130.39 106.23 78.03 <
2 4 11 2 48.67 122.16 136.26 <
2 -4 11 2 54.75 202.21 108.18 <
3 4 11 -2 70.87 284.97 220.57 <
3 -4 11 -2 63.24 95.21 61.67 <
3 4 11 -1 74.65 87.45 156.29 <
3 -4 11 -1 73.28 28.73 32.35 <
3 4 11 0 1772.53 1436.59 435.87 o
3 -4 11 0 1886.95 1357.91 376.21 o
3 4 11 1 544.41 288.17 212.81 <
3 -4 11 1 470.39 486.05 240.60 <
3 4 11 2 28.03 -55.81 114.52 <
3 -4 11 2 22.20 124.00 104.04 <
4 4 11 -2 52.91 -246.64 165.95 <
4 -4 11 -2 58.26 159.01 158.13 <
4 4 11 -1 49.77 63.27 86.32 <
4 -4 11 -1 50.76 -61.50 72.28 <
4 4 11 0 41.03 182.06 136.56 <
4 -4 11 0 43.11 56.22 120.98 <
-4 5 11 -2 25.00 67.07 58.59 <
-4 -5 11 -2 22.98 -12.15 53.32 <
-4 5 11 -1 20.71 76.49 64.28 <
-4 -5 11 -1 17.35 49.88 63.33 <
-4 5 11 0 86.59 0.12 55.04 <
-4 -5 11 0 88.81 -29.15 26.13 <
-4 -5 11 1 22.97 9.72 45.97 <
-4 5 11 2 96.81 176.61 141.18 <
-4 -5 11 2 88.95 269.69 212.81 <
-3 5 11 -2 82.47 47.28 73.94 <
-3 -5 11 -2 74.40 90.71 64.99 <
-3 5 11 -1 88.58 252.15 174.42 <
-3 -5 11 -1 121.81 128.38 84.54 <
-3 5 11 0 86.65 114.11 104.21 <
-3 -5 11 0 83.55 183.96 104.98 <
-3 5 11 1 336.55 119.08 138.52 <
-3 -5 11 1 383.40 353.58 204.75 <
-3 5 11 2 38.05 124.47 105.52 <
-3 -5 11 2 44.98 -0.41 59.84 <
-2 5 11 -2 51.51 140.06 119.68 <
-2 -5 11 -2 50.42 59.42 62.62 <
-2 5 11 -1 41.79 70.38 59.54 <
-2 -5 11 -1 49.52 57.29 51.96 <
-2 5 11 0 463.82 412.47 179.34 <
-2 -5 11 0 462.02 372.00 189.05 <
-2 5 11 1 129.07 113.51 126.01 <
-2 -5 11 1 105.68 29.09 68.55 <
-2 5 11 2 87.86 -89.99 98.58 <
-2 -5 11 2 80.26 11.49 42.42 <
-1 -5 11 -2 20.36 119.62 87.39 <
-1 5 11 -1 189.33 218.85 144.32 <
-1 -5 11 -1 208.66 261.57 116.00 <
-1 5 11 0 120.08 425.68 171.10 <
-1 -5 11 0 115.72 663.91 179.40 o
-1 5 11 1 484.10 397.24 138.57 <
-1 -5 11 1 560.05 531.31 153.15 o
-1 5 11 2 116.14 227.56 140.71 <
-1 -5 11 2 132.40 360.75 143.55 <
0 5 11 -2 51.01 116.65 98.17 <
0 -5 11 -2 63.69 167.13 126.13 <
0 5 11 -1 292.51 285.56 107.12 <
0 -5 11 -1 294.97 294.86 174.54 <
0 5 11 0 1381.72 1310.22 227.21 o
0 -5 11 0 1372.81 1510.53 357.01 o
0 5 11 1 241.99 300.79 119.26 <
0 -5 11 1 205.19 217.49 149.71 <
0 5 11 2 88.58 2.84 59.30 <
0 -5 11 2 78.27 22.99 60.25 <
1 5 11 -2 50.91 62.33 85.02 <
1 -5 11 -2 56.79 6.28 42.54 <
1 5 11 -1 90.93 120.21 73.46 <
1 -5 11 -1 99.07 168.55 115.47 <
1 5 11 0 224.37 505.66 165.12 o
1 -5 11 0 213.29 683.99 231.59 <
1 5 11 1 304.69 365.43 126.37 <
1 -5 11 1 261.23 253.57 145.21 <
1 5 11 2 96.29 239.77 122.40 <
1 -5 11 2 108.35 138.22 68.43 <
2 5 11 -2 37.74 155.16 85.85 <
2 -5 11 -2 43.60 -103.56 123.29 <
2 5 11 -1 174.04 237.04 101.67 <
2 -5 11 -1 175.21 259.08 129.10 <
2 5 11 0 441.25 383.44 228.15 <
2 -5 11 0 447.72 267.49 170.09 <
2 5 11 1 227.71 369.52 197.82 <
2 -5 11 1 215.55 164.47 85.20 <
2 5 11 2 84.28 73.29 124.06 <
2 -5 11 2 70.93 -39.28 63.93 <
3 5 11 -2 34.04 150.48 146.28 <
3 -5 11 -2 34.46 31.87 61.56 <
3 5 11 -1 68.55 161.86 156.35 <
3 -5 11 -1 66.51 55.99 112.57 <
3 5 11 0 23.31 173.59 136.03 <
3 -5 11 0 26.58 13.63 47.22 <
3 5 11 1 84.34 -70.09 117.25 <
3 -5 11 1 97.79 -3.67 124.77 <
3 5 11 2 34.11 2.49 73.05 <
3 -5 11 2 35.15 132.00 106.23 <
4 5 11 -2 84.81 -102.20 82.53 <
4 -5 11 -2 82.64 28.44 108.36 <
4 5 11 -1 125.20 11.91 83.65 <
4 -5 11 -1 120.63 134.25 151.96 <
4 5 11 0 52.33 93.13 137.92 <
4 -5 11 0 56.44 74.59 105.99 <
-4 6 11 -2 64.72 110.02 111.03 <
-4 -6 11 -2 69.77 4.86 38.33 <
-4 6 11 -1 26.38 292.85 185.50 <
-4 -6 11 -1 17.48 88.04 61.85 <
-4 6 11 0 305.53 104.98 83.36 <
-4 -6 11 0 293.52 279.34 115.29 <
-4 6 11 1 50.79 267.20 164.70 <
-4 -6 11 1 54.73 121.33 81.29 <
-4 6 11 2 17.92 -17.66 86.08 <
-4 -6 11 2 15.84 3.26 24.88 <
-3 6 11 -2 40.38 35.13 49.35 <
-3 -6 11 -2 37.14 52.31 30.45 <
-3 6 11 -1 138.25 97.70 60.85 <
-3 -6 11 -1 169.69 182.48 83.71 <
-3 6 11 0 388.78 601.82 214.29 <
-3 -6 11 0 382.24 410.39 131.64 o
-3 6 11 1 42.32 148.17 98.41 <
-3 -6 11 1 39.30 -12.38 94.97 <
-3 6 11 2 120.86 100.24 137.63 <
-3 -6 11 2 133.21 190.36 92.25 <
-2 6 11 -2 77.31 7.82 20.68 <
-2 -6 11 -2 85.14 136.15 80.81 <
-2 6 11 -1 52.48 -32.17 82.23 <
-2 -6 11 -1 34.94 48.34 96.51 <
-2 6 11 0 1029.59 1209.80 304.17 o
-2 -6 11 0 960.44 803.78 194.15 o
-2 6 11 1 237.49 185.44 133.01 <
-2 -6 11 1 258.77 208.01 117.37 <
-2 6 11 2 41.53 -31.70 92.54 <
-2 -6 11 2 36.13 156.29 116.83 <
-1 6 11 -2 104.05 97.93 95.15 <
-1 -6 11 -2 95.39 258.19 132.24 <
-1 6 11 -1 1956.44 2114.18 373.54 o
-1 -6 11 -1 1966.55 2040.42 286.39 o
-1 6 11 0 370.83 285.45 156.23 <
-1 -6 11 0 286.89 212.75 110.38 <
-1 6 11 1 47.40 132.18 109.96 <
-1 -6 11 1 31.12 113.93 94.56 <
-1 6 11 2 79.07 138.22 81.34 <
-1 -6 11 2 77.52 277.15 119.74 <
0 6 11 -2 288.30 129.51 101.01 <
0 -6 11 -2 267.72 195.33 142.25 <
0 6 11 -1 67.36 102.79 93.37 <
0 -6 11 -1 49.16 145.21 114.70 <
0 6 11 0 655.72 594.94 169.50 o
0 -6 11 0 588.02 784.11 258.49 o
0 6 11 1 399.58 253.27 114.05 <
0 -6 11 1 427.46 319.75 151.02 <
0 6 11 2 91.01 56.58 55.16 <
0 -6 11 2 92.62 72.04 73.17 <
1 6 11 -2 26.51 50.65 38.45 <
1 -6 11 -2 26.23 45.92 77.97 <
1 6 11 -1 180.16 59.25 73.70 <
1 -6 11 -1 195.80 55.57 27.25 <
1 6 11 0 361.07 232.12 119.85 <
1 -6 11 0 288.61 406.48 193.14 <
1 6 11 1 658.12 623.32 160.08 o
1 -6 11 1 721.82 669.77 263.46 <
1 6 11 2 70.08 121.93 84.54 <
1 -6 11 2 67.15 -84.25 72.16 <
2 6 11 -2 257.65 121.51 55.87 <
2 -6 11 -2 267.05 58.36 75.48 <
2 6 11 -1 76.84 254.76 166.54 <
2 -6 11 -1 60.79 -106.35 105.46 <
2 6 11 0 768.34 678.72 263.05 <
2 -6 11 0 709.74 689.03 219.27 o
2 6 11 1 446.20 84.72 141.06 <
2 -6 11 1 483.53 305.35 184.25 <
2 6 11 2 165.87 -24.47 147.05 <
2 -6 11 2 169.29 202.86 166.78 <
3 6 11 -2 14.03 -19.61 89.40 <
3 -6 11 -2 12.67 28.97 50.89 <
3 6 11 -1 77.93 -11.49 87.27 <
3 -6 11 -1 77.10 134.01 117.66 <
3 6 11 0 283.80 157.95 183.96 <
3 -6 11 0 272.99 401.98 199.72 <
3 6 11 1 85.02 -50.36 89.70 <
3 -6 11 1 75.54 -132.24 116.18 <
3 6 11 2 24.04 39.81 122.93 <
3 -6 11 2 21.58 115.06 132.95 <
4 6 11 -2 120.21 -182.30 195.69 <
4 -6 11 -2 131.45 243.85 199.90 <
4 6 11 -1 34.94 89.22 79.03 <
4 -6 11 -1 32.28 -8.95 65.88 <
4 6 11 0 195.08 175.49 75.66 <
4 -6 11 0 178.93 413.77 209.67 <
-4 -7 11 -2 161.09 165.53 122.64 <
-4 -7 11 -1 62.10 72.69 69.02 <
-4 -7 11 0 130.45 73.64 62.62 <
-4 -7 11 1 503.71 490.91 251.56 <
-4 -7 11 2 19.42 196.10 144.38 <
-3 7 11 -2 39.18 262.40 183.48 <
-3 -7 11 -2 39.43 40.46 61.26 <
-3 7 11 -1 28.64 409.21 207.66 <
-3 -7 11 -1 27.43 219.68 92.66 <
-3 7 11 0 239.04 168.97 138.22 <
-3 -7 11 0 246.46 275.43 165.24 <
-3 7 11 1 89.25 1.90 54.51 <
-3 -7 11 1 84.12 79.15 59.54 <
-3 7 11 2 76.97 193.85 134.72 <
-3 -7 11 2 65.39 36.02 41.29 <
-2 7 11 -2 307.49 150.96 118.14 <
-2 -7 11 -2 299.76 287.34 116.95 <
-2 7 11 -1 302.38 306.06 144.97 <
-2 -7 11 -1 269.34 480.72 221.99 <
-2 7 11 0 506.19 566.68 225.25 <
-2 -7 11 0 477.24 541.62 151.43 o
-2 7 11 1 1491.31 1541.57 354.23 o
-2 -7 11 1 1476.16 1349.79 256.42 o
-2 7 11 2 17.71 -7.46 56.64 <
-2 -7 11 2 14.98 142.49 117.25 <
-1 7 11 -2 116.91 176.85 114.82 <
-1 -7 11 -2 124.04 225.79 105.46 <
-1 7 11 -1 296.79 272.65 152.44 <
-1 -7 11 -1 231.51 295.64 127.38 <
-1 7 11 0 859.53 786.48 245.75 o
-1 -7 11 0 846.35 668.05 177.80 o
-1 7 11 1 32.72 92.72 94.97 <
-1 -7 11 1 31.24 43.72 86.79 <
-1 7 11 2 52.84 135.32 116.36 <
-1 -7 11 2 48.16 133.66 92.36 <
0 7 11 -2 88.74 176.49 102.38 <
0 -7 11 -2 90.27 87.98 125.90 <
0 7 11 -1 249.27 232.66 114.88 <
0 -7 11 -1 222.14 85.20 112.80 <
0 7 11 0 727.23 172.82 102.20 <
0 -7 11 0 573.27 297.95 171.69 <
0 7 11 1 1212.27 1210.27 219.62 o
0 -7 11 1 1217.90 1050.96 296.11 o
0 7 11 2 10.42 -6.34 53.56 <
0 -7 11 2 12.32 34.36 60.25 <
1 7 11 -2 86.73 176.73 69.26 <
1 -7 11 -2 104.77 83.65 96.63 <
1 7 11 -1 108.42 109.49 59.66 <
1 -7 11 -1 87.14 235.68 140.18 <
1 7 11 0 1069.14 796.91 170.09 o
1 -7 11 0 1066.10 937.27 291.25 o
1 7 11 1 51.23 64.46 80.22 <
1 -7 11 1 35.41 66.59 122.34 <
1 7 11 2 145.15 268.20 213.99 <
1 -7 11 2 142.21 9.78 19.55 <
2 7 11 -2 61.64 50.77 75.83 <
2 -7 11 -2 61.87 244.86 156.47 <
2 7 11 -1 3.47 115.53 108.78 <
2 -7 11 -1 2.49 39.87 68.96 <
2 7 11 0 282.33 277.45 210.97 <
2 -7 11 0 260.00 414.01 173.23 <
2 7 11 1 641.04 555.96 247.05 <
2 -7 11 1 637.83 709.94 257.90 <
2 7 11 2 223.91 215.48 211.33 <
2 -7 11 2 243.05 18.01 17.24 <
3 7 11 -2 63.26 -42.78 52.25 <
3 -7 11 -2 70.96 31.46 102.08 <
3 7 11 -1 47.99 25.42 131.64 <
3 -7 11 -1 36.05 148.94 158.48 <
3 7 11 0 360.41 52.85 119.20 <
3 -7 11 0 362.36 363.23 186.39 <
3 7 11 1 38.82 -134.66 172.58 <
3 -7 11 1 21.64 54.21 116.60 <
3 7 11 2 92.14 -163.76 196.46 <
3 -7 11 2 85.77 201.14 136.44 <
4 7 11 -2 73.27 -228.81 186.15 <
4 -7 11 -2 70.74 65.05 85.37 <
4 7 11 -1 3.81 -201.73 140.41 <
4 -7 11 -1 3.03 -51.43 44.67 <
4 7 11 0 9.72 67.66 66.30 <
-4 -8 11 -2 72.00 104.63 88.39 <
-4 -8 11 -1 241.83 370.76 182.95 <
-4 -8 11 0 386.77 295.28 114.46 <
-4 -8 11 1 34.98 140.35 141.48 <
-4 -8 11 2 35.19 2.55 54.21 <
-3 8 11 -2 21.04 -32.11 64.70 <
-3 -8 11 -2 18.53 -33.47 44.49 <
-3 8 11 -1 371.40 434.68 203.39 <
-3 -8 11 -1 350.15 398.55 125.66 o
-3 8 11 0 114.65 176.61 132.95 <
-3 -8 11 0 121.77 81.46 73.58 <
-3 8 11 1 79.70 63.27 67.84 <
-3 -8 11 1 88.19 96.75 56.82 <
-3 8 11 2 104.93 19.37 109.43 <
-3 -8 11 2 109.89 26.13 16.35 <
-2 8 11 -2 71.17 132.18 127.61 <
-2 -8 11 -2 66.71 100.78 64.93 <
-2 8 11 -1 175.27 60.43 99.41 <
-2 -8 11 -1 167.17 112.27 83.60 <
-2 8 11 0 1723.12 1586.24 342.32 o
-2 -8 11 0 1756.58 1303.82 339.60 o
-2 8 11 1 180.26 154.34 102.02 <
-2 -8 11 1 164.60 54.98 159.37 <
-2 8 11 2 72.54 87.03 78.03 <
-2 -8 11 2 69.36 265.89 183.19 <
-1 8 11 -2 28.10 41.35 40.94 <
-1 -8 11 -2 31.41 130.99 80.87 <
-1 8 11 -1 501.05 506.43 188.88 <
-1 -8 11 -1 477.22 474.73 142.66 o
-1 8 11 0 447.00 391.32 172.94 <
-1 -8 11 0 442.57 276.20 120.51 <
-1 8 11 1 143.92 28.44 62.62 <
-1 -8 11 1 171.60 115.47 88.22 <
-1 8 11 2 82.31 288.58 148.94 <
-1 -8 11 2 80.31 87.98 85.20 <
0 8 11 -2 44.45 125.78 79.45 <
0 -8 11 -2 49.23 109.84 77.20 <
0 8 11 -1 241.48 277.92 137.63 <
0 -8 11 -1 237.33 256.59 149.18 <
0 8 11 0 2779.34 3215.44 361.75 o
0 -8 11 0 2870.77 3140.08 482.55 o
0 8 11 1 491.15 449.32 139.52 o
0 -8 11 1 462.54 206.47 123.65 <
0 8 11 2 74.32 19.02 61.79 <
0 -8 11 2 71.74 85.49 96.39 <
1 8 11 -2 106.73 223.36 86.44 <
1 -8 11 -2 91.58 165.24 120.51 <
1 8 11 -1 298.27 380.06 99.06 o
1 -8 11 -1 310.60 305.17 177.68 <
1 8 11 0 392.62 306.71 71.27 o
1 -8 11 0 386.25 154.57 116.06 <
1 8 11 1 43.99 -5.21 80.46 <
1 -8 11 1 48.59 72.04 32.64 <
1 8 11 2 29.98 149.12 160.08 <
1 -8 11 2 33.29 48.34 74.29 <
2 8 11 -2 36.40 23.28 47.16 <
2 -8 11 -2 48.67 -63.81 117.37 <
2 8 11 -1 64.24 94.26 89.22 <
2 -8 11 -1 65.51 19.85 52.25 <
2 8 11 0 1415.13 942.54 200.49 o
2 -8 11 0 1459.02 1439.85 363.00 o
2 8 11 1 388.66 104.86 73.17 <
2 -8 11 1 370.47 288.41 161.50 <
2 8 11 2 111.40 269.21 222.82 <
2 -8 11 2 102.64 -15.52 51.54 <
3 8 11 -2 71.01 160.44 83.54 <
3 -8 11 -2 57.10 48.76 48.40 <
3 8 11 -1 131.74 214.94 117.78 <
3 -8 11 -1 144.50 292.67 216.31 <
3 8 11 0 96.79 -67.13 109.90 <
3 -8 11 0 100.85 15.88 129.39 <
3 8 11 1 6.17 -327.51 204.10 <
3 -8 11 1 4.69 96.04 111.74 <
3 8 11 2 9.01 -563.07 275.91 <
3 -8 11 2 9.04 214.59 193.32 <
4 8 11 -2 24.39 -70.44 74.77 <
4 -8 11 -2 34.30 17.89 64.28 <
4 8 11 -1 37.22 -87.62 146.87 <
4 -8 11 -1 37.31 -21.09 108.95 <
4 8 11 0 253.16 192.67 164.11 <
-4 -9 11 -2 10.01 113.28 104.92 <
-4 -9 11 -1 178.21 177.20 136.98 <
-4 -9 11 1 66.51 -40.35 62.39 <
-4 -9 11 2 183.90 -161.03 127.02 <
-3 -9 11 -2 31.12 35.25 49.47 <
-3 9 11 -1 44.23 229.10 157.24 <
-3 -9 11 -1 38.76 -22.45 70.03 <
-3 9 11 0 387.07 471.24 183.84 <
-3 -9 11 0 408.84 194.03 101.19 <
-3 9 11 1 31.83 105.75 92.07 <
-3 -9 11 1 25.29 -24.71 91.24 <
-3 9 11 2 10.10 96.87 100.89 <
-3 -9 11 2 11.75 -59.48 123.71 <
-2 9 11 -2 216.69 205.94 122.76 <
-2 -9 11 -2 212.69 83.83 39.04 <
-2 9 11 -1 213.46 94.02 102.38 <
-2 -9 11 -1 240.29 180.82 139.05 <
-2 9 11 0 281.92 132.24 108.78 <
-2 -9 11 0 275.80 305.71 178.09 <
-2 9 11 1 42.50 167.96 122.34 <
-2 -9 11 1 54.49 3.61 99.89 <
-2 9 11 2 80.26 -10.01 45.15 <
-2 -9 11 2 95.75 17.60 32.70 <
-1 9 11 -2 48.61 168.14 129.99 <
-1 -9 11 -2 47.38 97.81 70.32 <
-1 9 11 -1 194.24 229.52 142.43 <
-1 -9 11 -1 179.42 159.90 89.76 <
-1 9 11 0 1116.17 1231.72 291.49 o
-1 -9 11 0 1154.41 1445.59 350.79 o
-1 9 11 1 46.62 42.06 80.22 <
-1 -9 11 1 35.58 90.76 144.26 <
-1 9 11 2 23.48 168.61 115.17 <
-1 -9 11 2 26.34 199.60 129.75 <
0 9 11 -2 80.85 203.33 120.21 <
0 -9 11 -2 75.70 184.67 129.51 <
0 9 11 -1 197.79 217.31 117.13 <
0 -9 11 -1 217.46 160.73 135.38 <
0 9 11 0 4698.39 4388.91 423.07 o
0 -9 11 0 4647.43 4744.74 592.69 o
0 9 11 1 39.30 170.57 111.08 <
0 -9 11 1 49.51 -40.11 78.32 <
0 9 11 2 16.16 92.84 77.43 <
0 -9 11 2 22.14 92.48 134.37 <
1 9 11 -2 103.72 216.54 71.81 o
1 -9 11 -2 107.90 226.97 116.36 <
1 9 11 -1 57.14 71.21 50.24 <
1 -9 11 -1 46.58 -4.68 64.22 <
1 9 11 0 927.61 774.70 178.62 o
1 -9 11 0 941.31 815.10 249.37 o
1 9 11 1 33.38 65.05 48.88 <
1 -9 11 1 32.16 -8.41 55.04 <
1 9 11 2 25.83 93.96 75.36 <
1 -9 11 2 28.96 -8.83 61.67 <
2 9 11 -2 234.42 244.21 96.04 <
2 -9 11 -2 231.66 309.38 168.26 <
2 9 11 -1 248.92 131.47 71.39 <
2 -9 11 -1 270.27 246.11 116.54 <
2 9 11 0 349.04 319.51 135.55 <
2 -9 11 0 333.52 247.41 163.46 <
2 9 11 1 47.00 -37.80 37.03 <
2 -9 11 1 45.59 2.25 83.00 <
2 9 11 2 355.96 -8.12 24.82 <
2 -9 11 2 365.12 262.34 151.25 <
3 9 11 -2 109.84 65.11 62.86 <
3 9 11 -1 13.79 -24.88 99.00 <
3 -9 11 -1 16.01 -15.23 49.94 <
3 9 11 0 165.41 114.52 118.61 <
3 -9 11 0 166.17 85.49 63.45 <
3 9 11 1 11.84 -421.83 230.52 <
3 -9 11 1 11.38 64.58 29.62 <
3 9 11 2 2.97 -173.65 191.07 <
3 -9 11 2 4.19 131.05 137.92 <
4 9 11 -2 169.35 74.18 128.21 <
4 -9 11 -2 169.82 66.83 71.92 <
4 9 11 -1 75.18 -278.04 179.93 <
4 -9 11 -1 87.25 -16.71 160.26 <
4 9 11 0 440.98 -8.77 32.70 <
-4 -10 11 -1 379.32 291.07 148.29 <
-4 -10 11 2 26.43 27.67 52.67 <
-3 10 11 -2 19.36 33.30 33.89 <
-3 -10 11 -2 21.74 84.48 60.19 <
-3 10 11 -1 106.85 96.99 77.37 <
-3 -10 11 -1 107.61 21.51 90.11 <
-3 10 11 0 49.16 40.82 66.77 <
-3 -10 11 0 46.41 133.30 98.35 <
-3 10 11 1 57.58 -59.90 36.55 <
-3 -10 11 1 64.61 31.52 58.65 <
-3 10 11 2 39.66 27.67 41.47 <
-3 -10 11 2 37.00 147.46 148.41 <
-2 10 11 -2 198.95 283.08 167.01 <
-2 -10 11 -2 212.19 263.94 144.80 <
-2 10 11 -1 428.29 679.49 257.60 <
-2 -10 11 -1 473.07 485.46 201.55 <
-2 10 11 0 1328.39 1189.53 310.15 o
-2 -10 11 0 1285.38 1012.39 318.03 o
-2 10 11 1 18.65 29.15 78.74 <
-2 -10 11 1 21.74 -10.90 41.35 <
-2 10 11 2 22.13 17.83 43.19 <
-2 -10 11 2 30.63 130.70 118.85 <
-1 10 11 -2 109.03 43.90 48.52 <
-1 -10 11 -2 106.64 55.34 66.18 <
-1 10 11 -1 257.51 123.59 108.42 <
-1 10 11 0 279.49 79.21 69.32 <
-1 10 11 1 105.50 89.28 114.05 <
-1 10 11 2 39.42 169.68 123.29 <
0 10 11 -2 56.58 156.41 106.23 <
0 -10 11 -2 65.23 154.10 103.15 <
0 10 11 -1 819.06 1175.79 226.91 o
0 -10 11 -1 839.72 941.41 259.85 o
0 10 11 0 1103.94 1338.36 242.43 o
0 -10 11 0 1051.02 1347.36 318.45 o
0 10 11 1 10.46 83.30 76.13 <
0 -10 11 1 15.86 109.13 119.14 <
0 10 11 2 62.31 87.92 60.61 <
0 -10 11 2 68.67 105.10 119.68 <
1 10 11 -2 20.93 54.21 42.01 <
1 -10 11 -2 21.49 43.55 57.41 <
1 10 11 -1 98.90 -62.98 77.08 <
1 -10 11 -1 86.41 13.09 38.04 <
1 10 11 0 234.86 3.67 82.35 <
1 -10 11 0 231.33 100.66 95.33 <
1 10 11 1 213.05 227.50 117.66 <
1 -10 11 1 230.99 303.34 142.01 <
1 10 11 2 52.41 57.88 81.70 <
1 -10 11 2 55.12 -6.64 39.40 <
2 10 11 -2 43.31 240.06 102.32 <
2 -10 11 -2 47.03 99.12 104.75 <
2 10 11 -1 240.52 -65.35 113.63 <
2 -10 11 -1 235.09 43.72 46.09 <
2 10 11 0 1169.03 846.15 198.89 o
2 -10 11 0 1125.65 1202.92 326.33 o
2 10 11 1 33.78 -16.59 54.92 <
2 -10 11 1 38.08 3.38 47.69 <
2 10 11 2 47.89 100.24 60.79 <
2 -10 11 2 51.90 27.08 93.19 <
3 10 11 -2 8.90 93.85 79.39 <
3 -10 11 -2 10.80 169.74 153.21 <
3 10 11 -1 143.78 20.74 61.26 <
3 -10 11 -1 132.08 -69.26 44.91 <
3 10 11 0 35.34 -53.02 99.12 <
3 -10 11 0 31.99 -58.36 52.91 <
3 10 11 1 301.71 -339.77 205.64 <
3 -10 11 1 321.28 225.67 180.64 <
3 10 11 2 5.01 -56.46 86.32 <
4 10 11 -2 38.05 -12.74 125.48 <
4 -10 11 -2 39.36 69.02 112.98 <
4 10 11 -1 94.72 0.18 4.32 <
4 -10 11 -1 93.15 190.83 146.04 <
-3 11 11 -2 30.77 144.32 128.21 <
-3 -11 11 -2 32.80 36.85 61.14 <
-3 11 11 -1 143.89 205.11 152.79 <
-3 -11 11 -1 116.79 16.71 71.27 <
-3 11 11 0 322.58 186.51 132.83 <
-3 -11 11 0 292.47 28.14 100.72 <
-3 11 11 1 37.02 108.12 91.00 <
-3 -11 11 1 31.26 5.15 42.42 <
-3 11 11 2 129.49 32.82 99.12 <
-3 -11 11 2 124.26 194.33 172.05 <
-2 11 11 -2 307.92 270.34 166.07 <
-2 -11 11 -2 306.78 215.95 100.18 <
-2 11 11 -1 357.74 515.44 204.81 <
-2 -11 11 -1 371.40 417.68 198.71 <
-2 11 11 0 20.40 33.77 87.33 <
-2 -11 11 0 20.42 63.81 64.46 <
-2 11 11 1 119.11 263.35 182.77 <
-2 -11 11 1 118.25 140.12 143.55 <
-2 11 11 2 57.97 130.81 118.73 <
-2 -11 11 2 49.78 147.99 133.07 <
-1 11 11 -2 82.40 33.12 4.98 o
-1 -11 11 -2 85.94 140.12 111.08 <
-1 11 11 -1 15.34 85.79 94.20 <
-1 11 11 0 632.54 280.77 159.43 <
-1 11 11 1 101.44 217.31 95.44 <
-1 11 11 2 58.29 189.47 130.16 <
0 11 11 -2 108.76 216.90 120.62 <
0 11 11 -1 447.90 573.85 175.60 o
0 11 11 0 587.04 495.59 147.29 o
0 11 11 1 71.13 181.88 113.63 <
0 11 11 2 20.32 -26.96 20.02 <
1 11 11 -2 176.96 151.91 62.33 <
1 -11 11 -2 173.56 135.14 111.03 <
1 11 11 -1 68.12 121.75 94.73 <
1 -11 11 -1 67.40 126.79 98.82 <
1 11 11 0 665.85 197.88 76.90 <
1 -11 11 0 635.46 280.47 137.57 <
1 11 11 1 86.62 48.88 73.88 <
1 -11 11 1 95.85 55.75 51.48 <
1 11 11 2 55.56 354.58 243.26 <
1 -11 11 2 52.45 -28.97 76.84 <
2 11 11 -2 77.14 40.52 77.55 <
2 -11 11 -2 79.90 72.69 68.90 <
2 11 11 -1 113.46 124.12 71.27 <
2 -11 11 -1 115.62 81.94 30.16 <
2 11 11 0 52.84 33.65 31.22 <
2 -11 11 0 54.49 22.69 110.97 <
2 11 11 1 88.05 116.12 79.80 <
2 -11 11 1 76.53 208.25 162.75 <
2 11 11 2 41.36 22.28 98.23 <
2 -11 11 2 43.31 117.66 139.70 <
3 11 11 -2 138.52 40.70 45.62 <
3 -11 11 -2 131.19 -40.05 24.23 <
3 11 11 -1 26.78 -66.41 66.00 <
3 -11 11 -1 29.73 -31.04 126.43 <
3 11 11 0 391.38 248.18 130.28 <
3 -11 11 0 387.45 259.73 169.09 <
3 11 11 1 17.48 -95.68 96.75 <
3 -11 11 1 19.92 -31.99 74.83 <
4 11 11 -2 56.13 20.26 36.50 <
4 -11 11 -2 56.73 170.69 150.90 <
4 11 11 -1 24.51 -91.53 101.90 <
4 -11 11 -1 24.00 74.29 170.63 <
-3 12 11 -2 10.31 40.11 62.98 <
-3 12 11 -1 148.67 193.91 156.17 <
-3 -12 11 -1 140.66 -203.33 134.49 <
-3 12 11 0 123.96 179.04 111.20 <
-3 -12 11 0 122.12 85.37 91.42 <
-3 12 11 1 21.90 143.79 109.78 <
-3 -12 11 1 24.30 102.32 99.30 <
-3 12 11 2 53.28 81.52 120.98 <
-3 -12 11 2 49.95 -26.54 114.52 <
-2 12 11 -2 74.10 42.66 60.08 <
-2 -12 11 -2 64.71 33.30 49.47 <
-2 12 11 -1 43.38 30.27 27.79 <
-2 -12 11 -1 41.00 215.48 136.32 <
-2 12 11 0 328.71 260.21 158.36 <
-2 -12 11 0 328.66 105.34 107.47 <
-2 12 11 1 18.45 102.61 100.95 <
-2 -12 11 1 23.01 34.66 28.85 <
-2 12 11 2 10.32 -92.01 91.65 <
-2 -12 11 2 11.06 12.74 46.69 <
-1 12 11 -2 66.10 343.92 181.94 <
-1 12 11 -1 1270.41 871.09 256.89 o
-1 12 11 0 59.86 43.72 46.98 <
-1 12 11 1 144.70 397.24 159.25 <
-1 12 11 2 54.84 171.34 96.51 <
0 12 11 -2 52.55 119.91 121.63 <
0 12 11 -1 68.54 85.14 54.45 <
0 12 11 0 259.16 215.60 99.35 <
0 12 11 1 25.39 241.66 164.11 <
0 12 11 2 19.57 52.25 102.73 <
1 12 11 -2 30.91 32.76 62.15 <
1 -12 11 -2 35.59 148.65 125.72 <
1 12 11 -1 56.09 14.34 90.29 <
1 -12 11 -1 51.80 103.80 96.93 <
1 12 11 0 52.11 -48.11 88.39 <
1 -12 11 0 69.74 -50.89 115.88 <
1 12 11 1 213.91 -90.94 122.88 <
1 -12 11 1 181.96 178.98 117.78 <
1 12 11 2 35.87 221.34 208.43 <
1 -12 11 2 36.92 173.53 123.88 <
2 12 11 -2 58.02 90.11 64.28 <
2 -12 11 -2 42.87 40.70 41.77 <
2 12 11 -1 49.64 73.64 71.33 <
2 -12 11 -1 59.71 36.50 33.65 <
2 12 11 0 275.71 211.92 99.41 <
2 -12 11 0 269.41 199.72 163.04 <
2 12 11 1 29.83 19.49 66.59 <
2 -12 11 1 21.65 31.46 91.59 <
2 12 11 2 44.54 -5.51 46.45 <
2 -12 11 2 39.65 -78.80 63.10 <
3 12 11 -2 43.73 32.11 80.87 <
3 -12 11 -2 50.83 90.05 123.47 <
3 12 11 -1 75.51 -123.88 82.77 <
3 -12 11 -1 74.35 -90.71 137.69 <
3 12 11 0 134.64 371.47 138.81 <
3 -12 11 0 135.59 429.59 196.81 <
3 12 11 1 133.74 97.99 73.70 <
3 -12 11 1 145.65 35.31 126.07 <
4 12 11 -2 35.10 161.98 93.55 <
4 -12 11 -2 27.92 -91.00 83.30 <
-3 13 11 -2 39.34 -60.43 90.65 <
-3 13 11 -1 55.66 110.20 105.58 <
-3 13 11 0 533.15 490.73 230.29 <
-3 -13 11 0 529.29 152.62 125.48 <
-3 13 11 1 196.49 -19.25 24.88 <
-3 -13 11 1 183.40 -74.77 95.09 <
-3 13 11 2 83.47 3.20 67.90 <
-3 -13 11 2 89.01 101.19 65.70 <
-2 13 11 -2 11.94 62.98 89.22 <
-2 -13 11 -2 11.93 -52.25 66.12 <
-2 13 11 -1 97.55 -10.49 13.98 <
-2 -13 11 -1 91.51 -12.44 54.15 <
-2 13 11 0 238.49 84.13 91.65 <
-2 -13 11 0 265.36 206.47 119.74 <
-2 13 11 1 67.55 276.38 160.20 <
-2 -13 11 1 72.17 27.61 101.84 <
-2 13 11 2 26.03 -6.99 34.60 <
-2 -13 11 2 24.45 230.05 182.77 <
-1 13 11 -2 79.36 312.11 175.07 <
-1 13 11 -1 159.89 359.68 183.07 <
-1 13 11 0 714.14 395.70 207.24 <
-1 13 11 1 168.24 356.24 156.65 <
-1 13 11 2 50.42 -61.67 65.05 <
0 13 11 -2 25.41 204.69 117.01 <
0 13 11 -1 169.82 179.40 115.11 <
0 13 11 0 464.42 701.88 289.65 <
0 13 11 1 136.64 433.92 228.51 <
0 13 11 2 5.83 387.41 217.37 <
1 13 11 -2 66.00 85.08 66.18 <
1 13 11 -1 123.29 83.89 98.23 <
1 13 11 0 686.80 417.62 134.49 o
1 13 11 1 230.19 387.94 220.69 <
1 13 11 2 48.93 143.91 110.55 <
2 13 11 -2 53.91 79.27 55.22 <
2 -13 11 -2 60.40 12.62 54.39 <
2 13 11 -1 64.32 99.47 99.77 <
2 -13 11 -1 67.34 26.66 19.97 <
2 13 11 0 91.39 170.15 107.29 <
2 -13 11 0 99.73 39.46 65.29 <
2 13 11 1 89.42 66.30 43.90 <
2 -13 11 1 94.01 206.12 162.63 <
2 13 11 2 26.17 -58.71 69.85 <
3 13 11 -2 40.56 11.97 57.71 <
3 -13 11 -2 42.44 26.01 72.75 <
3 13 11 -1 39.20 184.20 119.32 <
3 -13 11 -1 46.90 -89.22 88.99 <
3 13 11 0 244.62 153.80 74.35 <
3 -13 11 0 234.37 83.24 85.02 <
3 -13 11 1 2.14 -72.22 85.55 <
4 -13 11 -2 40.40 -15.52 109.66 <
-3 -14 11 1 14.07 -48.17 109.49 <
-3 -14 11 2 13.88 72.93 99.77 <
-2 14 11 -2 133.51 133.36 129.33 <
-2 -14 11 -2 130.38 215.60 150.07 <
-2 14 11 -1 19.26 -34.54 87.45 <
-2 -14 11 -1 20.40 147.52 105.34 <
-2 14 11 0 96.39 120.92 126.90 <
-2 -14 11 0 105.41 58.24 97.76 <
-2 14 11 1 50.50 -22.99 33.89 <
-2 -14 11 1 36.37 173.18 150.72 <
-2 14 11 2 3.52 108.30 113.93 <
-2 -14 11 2 5.17 -110.32 100.84 <
-1 14 11 -2 11.20 19.43 20.68 <
-1 14 11 -1 288.45 211.86 140.83 <
-1 14 11 0 1958.09 2892.55 479.36 o
-1 14 11 1 51.72 127.61 105.75 <
-1 14 11 2 31.88 223.00 225.19 <
0 14 11 -2 36.71 133.30 77.32 <
0 14 11 -1 11.14 185.26 158.90 <
0 14 11 0 407.30 596.13 235.86 <
0 14 11 1 105.76 161.03 175.72 <
0 14 11 2 22.91 112.27 127.73 <
1 14 11 -2 41.91 90.65 56.99 <
1 14 11 -1 7.12 -77.97 61.62 <
1 14 11 0 1711.83 1545.18 417.86 o
1 14 11 1 343.11 282.07 140.12 <
1 14 11 2 29.99 63.22 133.78 <
2 14 11 -2 63.70 -12.80 55.04 <
2 -14 11 -2 60.20 160.97 148.65 <
2 14 11 -1 8.49 -44.97 34.01 <
2 14 11 0 86.84 98.58 62.15 <
2 14 11 1 82.87 48.34 53.08 <
2 14 11 2 16.23 48.52 57.82 <
3 14 11 -2 91.66 27.55 31.64 <
3 -14 11 -2 93.28 105.81 111.56 <
3 14 11 -1 102.36 98.35 114.17 <
3 -14 11 -1 98.51 186.45 150.48 <
3 14 11 0 701.38 594.23 234.26 <
4 -14 11 -2 66.43 -20.80 40.58 <
-3 -15 11 2 35.93 -88.16 96.27 <
-2 15 11 -2 86.08 201.79 114.34 <
-2 -15 11 -2 86.05 18.84 63.39 <
-2 15 11 -1 83.38 152.44 132.47 <
-2 -15 11 -1 73.99 91.36 94.85 <
-2 15 11 0 529.54 364.54 181.76 <
-2 -15 11 0 528.70 124.30 120.33 <
-2 15 11 1 62.89 141.30 99.89 <
-2 -15 11 1 71.24 41.59 57.94 <
-2 15 11 2 52.06 -2.19 24.76 <
-2 -15 11 2 49.86 -14.10 37.92 <
-1 15 11 -2 3.02 -25.36 70.56 <
-1 15 11 -1 124.98 124.77 113.87 <
-1 15 11 0 96.37 225.43 128.80 <
-1 15 11 1 47.27 261.27 211.86 <
-1 15 11 2 22.07 86.79 162.45 <
0 15 11 -2 59.01 196.87 116.65 <
0 15 11 -1 128.09 150.13 174.12 <
0 15 11 0 1134.33 838.68 336.10 <
0 15 11 1 121.01 13.45 80.34 <
0 15 11 2 40.46 -286.75 216.84 <
1 15 11 -2 35.13 58.59 24.88 <
1 15 11 -1 310.70 -42.06 128.33 <
1 15 11 0 47.99 -19.85 127.02 <
1 15 11 1 88.51 216.13 170.27 <
1 15 11 2 11.31 -39.04 31.10 <
2 15 11 -2 75.01 48.52 64.58 <
2 -15 11 -2 71.49 46.69 110.91 <
2 15 11 -1 36.93 58.30 51.07 <
2 15 11 0 409.81 292.02 131.35 <
2 15 11 1 47.86 202.56 147.94 <
2 15 11 2 28.67 27.13 90.35 <
3 15 11 -2 38.25 -30.93 58.42 <
3 15 11 -1 107.36 143.73 117.01 <
-2 16 11 -2 104.91 233.31 149.00 <
-2 16 11 -1 9.28 144.62 122.76 <
-2 -16 11 -1 6.54 11.73 76.96 <
-2 16 11 0 430.30 599.62 243.09 <
-2 -16 11 0 451.13 312.82 186.27 <
-2 16 11 1 45.21 57.76 85.14 <
-2 -16 11 1 44.25 50.12 129.27 <
-2 16 11 2 24.26 111.68 121.51 <
-2 -16 11 2 23.65 176.55 145.03 <
-1 16 11 -2 9.76 15.64 38.87 <
-1 16 11 -1 33.74 148.23 117.84 <
-1 16 11 0 116.53 166.72 129.93 <
-1 16 11 1 15.38 -40.88 125.42 <
-1 16 11 2 15.68 -102.67 115.35 <
0 16 11 -2 34.59 172.70 123.94 <
0 16 11 -1 15.89 -38.09 85.08 <
0 16 11 0 512.25 696.67 308.55 <
0 16 11 1 45.99 -27.37 144.03 <
0 16 11 2 9.10 21.27 117.96 <
1 16 11 -2 35.83 51.72 70.15 <
1 16 11 -1 55.16 162.21 157.77 <
1 16 11 0 118.12 39.46 122.05 <
1 16 11 1 12.47 46.86 85.85 <
1 16 11 2 86.34 156.53 146.63 <
2 16 11 -2 38.72 9.48 52.14 <
2 -16 11 -2 39.41 322.30 216.78 <
2 16 11 -1 29.23 -44.91 102.14 <
2 16 11 0 313.63 387.88 194.38 <
2 16 11 1 87.89 242.26 147.05 <
3 16 11 -2 41.93 82.53 88.57 <
-2 17 11 -2 48.65 -25.48 33.77 <
-2 17 11 -1 54.45 9.18 51.66 <
-2 17 11 0 54.88 7.11 49.88 <
-2 -17 11 0 54.55 108.00 156.71 <
-2 17 11 1 60.99 12.50 87.62 <
-2 -17 11 1 57.27 73.58 160.97 <
-2 -17 11 2 8.84 -120.62 112.03 <
-1 17 11 -2 48.54 189.94 140.65 <
-1 17 11 -1 24.73 178.57 112.33 <
-1 17 11 0 11.08 167.19 225.84 <
-1 17 11 1 68.56 321.29 291.19 <
-1 17 11 2 33.35 65.82 50.24 <
0 17 11 -2 26.06 33.89 42.06 <
0 17 11 -1 56.42 -75.36 85.55 <
0 17 11 0 278.53 422.72 197.35 <
0 17 11 1 7.59 30.87 141.89 <
0 17 11 2 40.87 100.66 129.39 <
1 17 11 -2 91.17 327.45 203.57 <
1 17 11 -1 12.03 179.63 155.05 <
2 17 11 -2 40.70 62.21 51.96 <
2 -17 11 -2 43.64 96.04 125.25 <
2 17 11 -1 13.04 133.54 87.92 <
2 17 11 0 91.49 215.65 136.98 <
3 17 11 -2 56.12 202.62 155.52 <
-2 18 11 -2 45.11 26.31 50.48 <
-2 18 11 -1 312.89 479.48 234.08 <
-2 18 11 0 100.81 -6.34 56.22 <
-1 18 11 -2 3.88 166.60 127.26 <
-1 18 11 0 138.97 220.75 181.23 <
-1 18 11 1 94.14 3.32 46.15 <
-1 18 11 2 5.57 29.62 62.74 <
0 18 11 -2 48.77 169.03 94.44 <
0 18 11 -1 87.32 134.49 99.53 <
0 18 11 0 195.73 191.96 98.35 <
1 -18 11 0 102.01 644.53 328.34 <
2 18 11 -2 29.58 -21.86 111.62 <
2 -18 11 -2 29.79 113.28 168.14 <
2 18 11 -1 19.91 99.77 111.03 <
2 18 11 0 56.91 274.78 184.91 <
-1 19 11 0 71.65 53.68 103.21 <
1 -19 11 0 42.48 190.95 193.97 <
2 19 11 -2 33.40 -41.23 93.61 <
2 -19 11 -2 37.70 222.47 208.60 <
2 19 11 -1 52.99 14.93 10.43 <
2 -19 11 -1 52.33 183.25 205.46 <
1 20 11 -2 42.62 340.48 232.66 <
1 20 11 -1 14.13 323.84 250.79 <
2 20 11 -2 29.60 -87.45 116.89 <
2 -20 11 -2 32.67 0.18 129.99 <
1 21 11 -2 35.09 44.97 135.02 <
-4 0 12 -2 85.68 70.56 97.28 <
-3 0 12 -2 10.50 -35.96 128.15 <
-3 0 12 -1 17.77 -18.78 91.42 <
-3 0 12 0 89.56 296.70 194.33 <
-3 0 12 1 1.97 126.43 101.72 <
-3 0 12 2 167.89 263.05 208.43 <
-2 0 12 -2 533.19 968.61 304.94 o
-2 0 12 -1 23.14 203.04 137.98 <
-2 0 12 0 5465.46 6222.09 740.69 o
-2 0 12 1 296.07 627.65 264.41 <
-2 0 12 2 11.36 194.92 123.76 <
-1 0 12 -2 36.71 35.19 32.88 <
-1 0 12 -1 4.52 -4.32 89.99 <
-1 0 12 0 478.14 301.14 136.26 <
-1 0 12 1 6.16 76.78 97.52 <
-1 0 12 2 92.85 203.92 85.25 <
0 0 12 -2 5.69 192.84 104.39 <
0 0 12 -1 11.93 169.03 101.55 <
0 0 12 0 2282.56 2528.72 366.85 o
0 0 12 1 255.01 346.94 167.55 <
0 0 12 2 31.19 -94.73 82.11 <
1 0 12 -2 150.48 275.49 117.07 <
1 0 12 -1 17.46 187.34 109.90 <
1 0 12 0 471.33 195.51 102.73 <
1 0 12 1 106.30 297.18 124.95 <
1 0 12 2 102.99 52.91 31.58 <
2 0 12 -2 55.53 -1.01 73.11 <
2 0 12 -1 21.39 164.88 150.60 <
2 0 12 0 4638.99 4173.62 674.51 o
2 0 12 1 321.68 12.92 136.09 <
2 0 12 2 32.91 156.05 98.58 <
3 0 12 -2 143.85 367.80 220.16 <
3 0 12 -1 48.12 -49.35 143.20 <
3 0 12 0 112.12 195.27 145.39 <
3 0 12 1 68.38 225.55 204.57 <
4 0 12 -2 68.85 382.37 177.68 <
4 0 12 -1 51.48 217.67 181.41 <
-4 -1 12 -2 64.06 145.80 150.54 <
-4 -1 12 -1 85.40 91.59 120.92 <
-3 1 12 -2 30.53 -27.02 83.24 <
-3 -1 12 -2 32.14 27.25 90.11 <
-3 1 12 -1 61.68 196.28 156.29 <
-3 -1 12 -1 55.61 298.78 179.51 <
-3 1 12 0 37.25 115.23 89.52 <
-3 -1 12 0 42.04 -2.31 93.13 <
-3 1 12 1 55.71 6.69 90.94 <
-3 -1 12 1 62.42 104.45 179.40 <
-3 1 12 2 79.10 -8.77 88.10 <
-3 -1 12 2 80.08 82.88 119.50 <
-2 1 12 -2 187.18 227.98 150.19 <
-2 -1 12 -2 196.26 160.20 165.24 <
-2 1 12 -1 127.27 200.78 163.34 <
-2 -1 12 -1 114.22 222.88 146.93 <
-2 1 12 0 24.16 336.28 188.10 <
-2 -1 12 0 28.60 850.41 284.14 <
-2 1 12 1 720.06 601.22 269.63 <
-2 -1 12 1 750.91 566.74 165.65 o
-2 1 12 2 14.29 9.95 84.01 <
-2 -1 12 2 8.73 168.91 113.16 <
-1 1 12 -2 38.74 86.79 99.06 <
-1 -1 12 -2 40.58 111.38 100.12 <
-1 1 12 -1 63.40 166.60 96.04 <
-1 -1 12 -1 55.87 203.21 103.68 <
-1 1 12 0 191.84 234.38 112.27 <
-1 -1 12 0 198.15 318.86 124.65 <
-1 1 12 1 43.17 100.48 75.36 <
-1 -1 12 1 50.66 36.50 63.87 <
-1 1 12 2 80.90 174.77 109.54 <
-1 -1 12 2 81.01 40.52 87.39 <
0 1 12 -2 58.85 65.05 75.36 <
0 -1 12 -2 70.34 -21.62 39.46 <
0 1 12 -1 23.72 3.08 26.13 <
0 -1 12 -1 17.59 93.85 78.56 <
0 1 12 0 426.34 1166.13 250.25 o
0 -1 12 0 456.62 904.03 218.68 o
0 1 12 1 421.31 461.64 169.26 <
0 -1 12 1 439.08 452.04 153.86 <
0 1 12 2 9.86 50.30 87.80 <
0 -1 12 2 8.53 18.13 43.07 <
1 1 12 -2 128.67 83.18 75.36 <
1 -1 12 -2 122.10 110.73 109.37 <
1 1 12 -1 71.99 111.03 67.36 <
1 -1 12 -1 75.19 -1.54 75.54 <
1 1 12 0 116.11 149.60 83.60 <
1 -1 12 0 113.78 356.60 170.92 <
1 1 12 1 149.76 271.17 105.28 <
1 -1 12 1 180.32 475.51 240.89 <
1 1 12 2 170.80 6.46 52.08 <
1 -1 12 2 179.21 90.65 110.55 <
2 1 12 -2 54.95 100.24 107.77 <
2 -1 12 -2 61.70 8.29 118.67 <
2 1 12 -1 13.17 109.01 115.59 <
2 -1 12 -1 16.61 -89.76 57.29 <
2 1 12 0 37.36 962.09 337.05 <
2 -1 12 0 46.84 48.46 11.55 o
2 1 12 1 270.57 292.55 182.18 <
2 -1 12 1 276.10 296.70 169.62 <
2 1 12 2 75.82 255.76 167.37 <
2 -1 12 2 79.12 -9.60 21.39 <
3 1 12 -2 93.13 8.65 39.93 <
3 -1 12 -2 82.43 52.43 90.76 <
3 1 12 -1 69.44 21.15 39.10 <
3 -1 12 -1 77.42 104.45 139.17 <
3 1 12 0 43.08 20.26 99.65 <
3 -1 12 0 40.08 211.45 151.73 <
3 1 12 1 27.33 207.36 166.54 <
3 -1 12 1 33.41 -124.06 100.07 <
4 1 12 -2 71.91 2.31 109.96 <
4 -1 12 -2 66.27 58.59 133.60 <
4 1 12 -1 15.91 143.14 144.62 <
4 -1 12 -1 21.60 176.20 133.48 <
-4 -2 12 -2 8.74 96.10 71.63 <
-4 -2 12 -1 118.89 -8.00 29.98 <
-3 2 12 -2 68.30 35.73 94.02 <
-3 -2 12 -2 67.25 96.33 149.30 <
-3 2 12 -1 451.56 745.13 271.58 <
-3 -2 12 -1 473.98 519.23 230.17 <
-3 2 12 0 512.17 548.32 245.28 <
-3 -2 12 0 523.60 345.64 184.96 <
-3 2 12 1 207.32 250.13 174.95 <
-3 -2 12 1 207.19 99.83 128.09 <
-3 2 12 2 129.74 -55.39 116.83 <
-3 -2 12 2 125.63 82.47 115.59 <
-2 2 12 -2 227.15 288.29 154.51 <
-2 -2 12 -2 209.67 285.45 193.55 <
-2 2 12 -1 209.78 233.90 143.73 <
-2 -2 12 -1 269.69 257.60 165.41 <
-2 2 12 0 174.73 159.01 117.96 <
-2 -2 12 0 156.41 176.14 174.60 <
-2 2 12 1 42.25 56.82 105.28 <
-2 -2 12 1 41.14 -0.65 57.65 <
-2 2 12 2 75.32 208.19 115.29 <
-2 -2 12 2 88.21 99.35 102.02 <
-1 2 12 -2 109.46 21.57 74.06 <
-1 -2 12 -2 109.71 -27.79 56.46 <
-1 2 12 -1 288.16 187.93 119.02 <
-1 -2 12 -1 300.38 358.67 145.80 <
-1 2 12 0 943.36 699.87 185.50 o
-1 -2 12 0 1013.13 918.78 204.40 o
-1 2 12 1 223.56 204.63 103.26 <
-1 -2 12 1 216.62 293.98 133.48 <
-1 2 12 2 127.55 -33.30 121.33 <
-1 -2 12 2 122.97 167.37 89.40 <
0 2 12 -2 18.23 26.54 60.43 <
0 -2 12 -2 19.66 116.48 94.08 <
0 2 12 -1 310.26 336.28 139.88 <
0 -2 12 -1 366.22 367.92 138.16 <
0 2 12 0 1159.10 1318.04 255.29 o
0 -2 12 0 1052.94 1104.40 232.01 o
0 2 12 1 97.32 194.38 120.27 <
0 -2 12 1 113.74 157.89 95.15 <
0 2 12 2 89.82 119.56 116.89 <
0 -2 12 2 99.34 26.13 70.32 <
1 2 12 -2 86.84 141.89 102.91 <
1 -2 12 -2 81.06 30.99 84.66 <
1 2 12 -1 338.28 101.01 60.31 <
1 -2 12 -1 343.07 346.11 223.65 <
1 2 12 0 752.71 626.11 170.57 o
1 -2 12 0 829.07 759.41 261.87 <
1 2 12 1 1421.19 1524.15 259.50 o
1 -2 12 1 1342.65 1808.83 433.32 o
1 2 12 2 43.71 22.04 61.02 <
1 -2 12 2 45.32 124.77 138.52 <
2 2 12 -2 45.45 -4.56 47.63 <
2 -2 12 -2 48.33 165.83 148.41 <
2 2 12 -1 43.84 229.75 104.21 <
2 -2 12 -1 60.87 183.19 149.89 <
2 2 12 0 126.37 151.96 90.59 <
2 -2 12 0 108.99 111.32 115.11 <
2 2 12 1 144.30 180.82 90.11 <
2 -2 12 1 173.27 165.29 84.66 <
2 2 12 2 24.78 92.13 175.31 <
2 -2 12 2 23.41 4.09 104.81 <
3 2 12 -2 58.73 282.42 209.32 <
3 -2 12 -2 61.19 162.04 130.76 <
3 2 12 -1 45.74 193.08 163.52 <
3 -2 12 -1 43.50 83.30 102.91 <
3 2 12 0 386.24 398.66 234.49 <
3 -2 12 0 389.72 378.58 214.47 <
3 2 12 1 217.97 -21.92 70.21 <
3 -2 12 1 197.50 4.15 55.28 <
4 2 12 -2 44.17 118.31 139.82 <
4 -2 12 -2 47.63 106.88 85.43 <
4 2 12 -1 29.26 150.90 137.21 <
4 -2 12 -1 30.11 -26.90 46.86 <
-4 -3 12 -2 46.14 27.67 30.45 <
-4 -3 12 -1 185.45 396.06 199.24 <
-3 3 12 -2 58.64 219.33 121.87 <
-3 -3 12 -2 69.64 -153.98 99.83 <
-3 3 12 -1 213.28 669.00 249.54 <
-3 -3 12 -1 188.96 473.25 232.54 <
-3 3 12 0 15.92 -33.47 71.69 <
-3 -3 12 0 16.09 176.91 120.86 <
-3 3 12 1 272.64 263.23 171.75 <
-3 -3 12 1 246.06 266.43 222.82 <
-3 3 12 2 78.73 85.02 124.53 <
-3 -3 12 2 84.08 135.43 142.90 <
-2 3 12 -2 120.09 294.45 174.18 <
-2 -3 12 -2 128.81 77.91 112.15 <
-2 3 12 -1 325.50 736.54 257.07 <
-2 -3 12 -1 336.70 684.17 248.48 <
-2 3 12 0 73.50 124.24 85.20 <
-2 -3 12 0 62.95 144.50 151.49 <
-2 3 12 1 21.66 50.54 92.25 <
-2 -3 12 1 31.44 89.34 101.25 <
-2 3 12 2 10.79 125.48 129.27 <
-2 -3 12 2 12.65 19.25 45.62 <
-1 3 12 -2 81.12 113.99 68.90 <
-1 -3 12 -2 87.38 58.53 72.75 <
-1 3 12 -1 425.85 561.11 238.29 <
-1 -3 12 -1 468.04 719.48 192.37 o
-1 3 12 0 31.83 337.17 157.59 <
-1 -3 12 0 41.73 254.16 134.19 <
-1 3 12 1 325.77 242.61 98.64 <
-1 -3 12 1 304.42 266.07 142.25 <
-1 3 12 2 33.68 121.51 114.52 <
-1 -3 12 2 35.36 260.68 126.19 <
0 3 12 -2 52.23 59.07 58.89 <
0 -3 12 -2 59.62 110.61 105.46 <
0 3 12 -1 260.61 316.96 126.73 <
0 -3 12 -1 274.00 227.27 114.82 <
0 3 12 0 785.03 917.66 211.80 o
0 -3 12 0 765.21 826.42 208.78 o
0 3 12 1 15.94 194.56 118.55 <
0 -3 12 1 22.17 13.69 71.09 <
0 3 12 2 15.48 144.91 79.33 <
0 -3 12 2 20.21 226.91 118.08 <
1 3 12 -2 511.67 304.11 124.77 <
1 -3 12 -2 490.23 335.45 163.40 <
1 3 12 -1 75.95 222.47 114.34 <
1 -3 12 -1 64.10 326.15 202.92 <
1 3 12 0 8.83 316.31 140.41 <
1 -3 12 0 17.12 232.36 167.01 <
1 3 12 1 1122.65 1305.89 250.61 o
1 -3 12 1 1142.06 1008.48 333.73 o
1 3 12 2 33.50 219.51 103.26 <
1 -3 12 2 30.75 134.37 184.61 <
2 3 12 -2 66.20 222.82 94.32 <
2 -3 12 -2 72.06 -79.80 82.47 <
2 3 12 -1 11.56 93.55 88.63 <
2 -3 12 -1 11.95 290.01 162.69 <
2 3 12 0 109.45 44.79 86.02 <
2 -3 12 0 105.85 152.97 163.40 <
2 3 12 1 20.91 186.09 120.15 <
2 -3 12 1 21.39 139.40 130.16 <
2 3 12 2 184.97 267.85 281.83 <
2 -3 12 2 187.68 182.12 185.32 <
3 3 12 -2 254.73 324.25 221.22 <
3 -3 12 -2 238.93 298.78 172.40 <
3 3 12 -1 30.84 132.24 105.10 <
3 -3 12 -1 35.69 114.05 89.52 <
3 3 12 0 82.40 221.28 153.62 <
3 -3 12 0 88.29 250.37 137.39 <
3 3 12 1 7.00 -79.15 87.45 <
3 -3 12 1 8.98 133.90 171.87 <
4 3 12 -2 46.94 74.18 110.38 <
4 -3 12 -2 52.05 106.29 109.07 <
4 3 12 -1 7.74 85.67 126.73 <
4 -3 12 -1 10.99 156.41 105.75 <
-4 -4 12 -2 44.62 -100.42 72.46 <
-4 -4 12 -1 42.94 -28.91 79.74 <
-3 4 12 -2 39.31 250.19 121.63 <
-3 -4 12 -2 35.33 175.96 99.12 <
-3 4 12 -1 1039.47 862.02 291.07 <
-3 -4 12 -1 997.17 877.19 285.80 o
-3 4 12 0 582.46 346.88 187.04 <
-3 -4 12 0 590.76 373.07 205.64 <
-3 4 12 1 28.25 138.46 161.50 <
-3 -4 12 1 29.81 326.38 208.49 <
-3 4 12 2 105.78 87.62 86.08 <
-3 -4 12 2 92.54 126.49 109.72 <
-2 4 12 -2 114.79 206.95 130.99 <
-2 -4 12 -2 106.65 21.27 87.15 <
-2 4 12 -1 92.49 78.26 107.83 <
-2 -4 12 -1 68.40 134.13 128.68 <
-2 4 12 0 405.41 227.15 154.93 <
-2 -4 12 0 410.68 121.10 90.65 <
-2 4 12 1 207.55 188.93 135.61 <
-2 -4 12 1 183.94 290.84 156.11 <
-2 4 12 2 45.89 109.66 127.61 <
-2 -4 12 2 47.49 109.19 105.04 <
-1 4 12 -2 73.65 212.28 143.20 <
-1 -4 12 -2 65.67 139.88 100.66 <
-1 4 12 -1 1074.14 903.61 280.77 o
-1 -4 12 -1 1076.53 857.11 209.20 o
-1 4 12 0 2355.21 1822.45 296.29 o
-1 -4 12 0 2432.91 1826.66 294.75 o
-1 4 12 1 93.13 195.51 119.74 <
-1 -4 12 1 94.66 211.39 127.20 <
-1 4 12 2 94.57 175.31 116.00 <
-1 -4 12 2 85.22 239.59 148.65 <
0 4 12 -2 45.24 -43.60 63.75 <
0 -4 12 -2 49.17 142.96 100.01 <
0 4 12 -1 125.58 112.92 113.51 <
0 -4 12 -1 102.81 206.18 113.16 <
0 4 12 0 412.83 235.21 125.78 <
0 -4 12 0 406.24 243.50 129.45 <
0 4 12 1 174.45 177.09 115.47 <
0 -4 12 1 175.67 152.20 84.48 <
0 4 12 2 99.68 100.01 108.54 <
0 -4 12 2 88.30 30.69 78.62 <
1 4 12 -2 105.52 248.54 114.34 <
1 -4 12 -2 100.10 120.57 102.50 <
1 4 12 -1 944.23 549.15 163.93 o
1 -4 12 -1 943.08 666.34 244.21 <
1 4 12 0 1674.87 1370.23 244.39 o
1 -4 12 0 1709.51 1374.91 343.27 o
1 4 12 1 328.81 494.58 167.66 <
1 -4 12 1 332.02 355.89 218.56 <
1 4 12 2 160.41 167.19 77.14 <
1 -4 12 2 165.86 31.46 111.74 <
2 4 12 -2 136.04 176.08 85.37 <
2 -4 12 -2 127.87 161.09 123.59 <
2 4 12 -1 31.60 -60.79 92.42 <
2 -4 12 -1 28.76 -14.28 89.82 <
2 4 12 0 225.89 91.30 138.81 <
2 -4 12 0 216.90 -87.92 136.38 <
2 4 12 1 110.97 -151.14 108.00 <
2 -4 12 1 102.04 95.92 79.27 <
2 4 12 2 103.10 234.91 182.89 <
2 -4 12 2 98.13 107.41 140.77 <
3 4 12 -2 75.04 -63.81 109.07 <
3 -4 12 -2 77.87 63.39 100.18 <
3 4 12 -1 284.24 294.57 215.95 <
3 -4 12 -1 302.32 -14.52 23.64 <
3 4 12 0 371.14 229.52 160.56 <
3 -4 12 0 361.94 428.70 220.16 <
3 4 12 1 88.74 -58.48 124.06 <
3 -4 12 1 89.91 -41.47 79.63 <
4 4 12 -2 161.66 -64.10 173.06 <
4 -4 12 -2 148.95 137.57 141.54 <
4 4 12 -1 19.47 -123.82 111.62 <
4 -4 12 -1 17.50 3.02 37.21 <
-4 -5 12 -2 69.98 -16.41 52.31 <
-4 -5 12 -1 31.42 6.64 95.27 <
-3 5 12 -2 102.04 94.26 64.10 <
-3 -5 12 -2 97.60 68.90 63.99 <
-3 5 12 -1 280.58 299.72 163.81 <
-3 -5 12 -1 237.84 337.52 204.28 <
-3 5 12 0 172.31 351.09 193.26 <
-3 -5 12 0 176.33 282.84 159.37 <
-3 5 12 1 144.42 161.86 121.99 <
-3 -5 12 1 118.97 381.07 191.01 <
-3 5 12 2 101.82 47.57 60.49 <
-3 -5 12 2 97.83 207.42 136.56 <
-2 5 12 -2 134.09 213.76 160.56 <
-2 -5 12 -2 125.83 310.74 173.18 <
-2 5 12 -1 38.87 46.98 99.89 <
-2 -5 12 -1 37.24 194.38 94.85 <
-2 5 12 0 247.24 375.91 176.61 <
-2 -5 12 0 236.71 325.73 146.22 <
-2 5 12 1 58.22 33.83 112.27 <
-2 -5 12 1 72.58 -42.72 35.61 <
-2 5 12 2 16.78 94.97 123.76 <
-2 -5 12 2 22.23 32.76 42.30 <
-1 5 12 -2 287.89 519.05 202.86 <
-1 -5 12 -2 300.74 451.21 149.89 o
-1 5 12 -1 820.24 536.71 196.93 <
-1 -5 12 -1 830.45 753.07 198.18 o
-1 5 12 0 616.57 722.85 201.32 o
-1 -5 12 0 645.59 777.36 205.40 o
-1 5 12 1 65.74 131.41 95.09 <
-1 -5 12 1 45.30 231.35 123.41 <
-1 5 12 2 41.74 228.45 123.23 <
-1 -5 12 2 35.61 33.41 64.34 <
0 5 12 -2 137.16 305.71 110.79 <
0 -5 12 -2 140.90 133.30 27.02 o
0 5 12 -1 124.02 233.84 115.94 <
0 -5 12 -1 133.35 75.36 87.62 <
0 5 12 0 279.60 321.58 152.32 <
0 -5 12 0 248.38 211.57 156.05 <
0 5 12 1 34.91 104.15 100.66 <
0 -5 12 1 48.45 389.48 226.79 <
0 5 12 2 25.97 -38.15 52.79 <
0 -5 12 2 34.51 -48.76 119.08 <
1 5 12 -2 313.22 138.87 68.90 <
1 -5 12 -2 303.71 351.56 158.78 <
1 5 12 -1 193.24 264.12 108.24 <
1 -5 12 -1 183.05 379.41 181.29 <
1 5 12 0 687.81 740.10 189.17 o
1 -5 12 0 722.34 806.21 281.30 <
1 5 12 1 425.52 462.29 160.38 <
1 -5 12 1 447.59 246.64 177.20 <
1 5 12 2 62.42 135.49 144.38 <
1 -5 12 2 68.31 106.35 59.54 <
2 5 12 -2 160.73 174.89 110.32 <
2 -5 12 -2 170.01 24.82 55.63 <
2 5 12 -1 95.98 235.92 191.07 <
2 -5 12 -1 106.05 -39.69 53.38 <
2 5 12 0 429.81 185.85 167.01 <
2 -5 12 0 402.56 346.88 199.90 <
2 5 12 1 59.97 293.74 215.60 <
2 -5 12 1 73.42 198.95 162.39 <
2 5 12 2 113.56 71.57 76.72 <
2 -5 12 2 127.00 48.40 29.86 <
3 5 12 -2 344.54 72.58 92.90 <
3 -5 12 -2 338.19 274.01 185.97 <
3 5 12 -1 23.98 92.13 140.77 <
3 -5 12 -1 25.04 77.08 47.93 <
3 5 12 0 322.29 126.37 144.68 <
3 -5 12 0 330.78 519.29 272.41 <
3 5 12 1 32.80 48.76 140.23 <
3 -5 12 1 33.31 76.25 95.80 <
4 5 12 -2 81.07 -103.80 120.62 <
4 -5 12 -2 89.16 147.94 108.18 <
4 5 12 -1 80.67 0.00 114.88 <
4 -5 12 -1 85.96 117.48 116.36 <
-4 -6 12 -2 65.77 74.95 136.38 <
-4 -6 12 -1 530.91 485.34 200.66 <
-3 6 12 -2 68.35 245.99 181.35 <
-3 -6 12 -2 61.50 132.12 84.31 <
-3 6 12 -1 103.21 -4.56 84.37 <
-3 -6 12 -1 127.43 105.75 110.49 <
-3 6 12 0 1640.58 1468.22 366.97 o
-3 -6 12 0 1595.51 1386.17 387.23 o
-3 6 12 1 75.09 178.15 153.80 <
-3 -6 12 1 85.25 63.33 83.30 <
-3 6 12 2 15.32 79.09 97.70 <
-3 -6 12 2 16.51 -238.82 159.19 <
-2 6 12 -2 21.28 -13.09 48.94 <
-2 -6 12 -2 23.48 -14.46 11.79 <
-2 6 12 -1 879.44 694.00 226.44 o
-2 -6 12 -1 913.33 760.59 202.15 o
-2 6 12 0 369.89 419.16 191.30 <
-2 -6 12 0 395.92 286.27 121.75 <
-2 6 12 1 75.64 109.66 83.95 <
-2 -6 12 1 69.70 208.25 100.12 <
-2 6 12 2 133.17 92.72 124.53 <
-2 -6 12 2 139.24 142.72 106.52 <
-1 6 12 -2 140.26 84.96 92.78 <
-1 -6 12 -2 123.69 54.03 76.37 <
-1 6 12 -1 368.77 557.92 202.68 <
-1 -6 12 -1 437.77 426.39 153.33 <
-1 6 12 0 3303.42 3810.74 434.21 o
-1 -6 12 0 3223.44 3537.91 421.77 o
-1 6 12 1 237.71 328.64 147.82 <
-1 -6 12 1 257.03 437.83 164.82 <
-1 6 12 2 55.86 -8.53 23.22 <
-1 -6 12 2 59.60 -15.76 54.80 <
0 6 12 -2 39.46 66.41 74.47 <
0 -6 12 -2 44.82 48.94 51.66 <
0 6 12 -1 501.73 248.95 95.56 <
0 -6 12 -1 510.58 71.04 74.59 <
0 6 12 0 104.25 81.70 47.69 <
0 -6 12 0 134.41 222.82 136.26 <
0 6 12 1 279.52 508.80 169.15 o
0 -6 12 1 277.69 113.93 66.83 <
0 6 12 2 123.24 -3.61 46.57 <
0 -6 12 2 122.79 60.67 68.43 <
1 6 12 -2 46.35 1.24 80.93 <
1 -6 12 -2 39.98 104.92 119.91 <
1 6 12 -1 26.91 142.37 64.52 <
1 -6 12 -1 48.91 359.80 192.25 <
1 6 12 0 3541.84 3242.16 372.00 o
1 -6 12 0 3477.80 3406.09 559.34 o
1 6 12 1 17.30 28.32 77.32 <
1 -6 12 1 13.48 -2.31 89.40 <
1 6 12 2 179.22 14.75 60.49 <
1 -6 12 2 179.02 178.62 142.19 <
2 6 12 -2 37.61 305.47 199.66 <
2 -6 12 -2 38.57 115.77 196.40 <
2 6 12 -1 337.21 119.44 131.76 <
2 -6 12 -1 338.73 16.00 99.77 <
2 6 12 0 447.97 221.99 215.24 <
2 -6 12 0 478.63 493.81 247.82 <
2 6 12 1 344.54 224.84 121.63 <
2 -6 12 1 350.57 374.91 206.89 <
2 6 12 2 177.71 -170.86 192.31 <
2 -6 12 2 165.62 194.74 203.45 <
3 6 12 -2 86.96 24.59 76.78 <
3 -6 12 -2 90.73 25.83 42.95 <
3 6 12 -1 25.63 -61.67 98.82 <
3 -6 12 -1 31.60 175.43 159.13 <
3 6 12 0 1516.00 800.76 313.94 <
3 -6 12 0 1474.74 1535.82 399.26 o
3 6 12 1 119.29 -16.47 114.29 <
3 -6 12 1 121.20 235.80 155.16 <
4 6 12 -2 48.99 -189.76 246.82 <
4 -6 12 -2 47.71 -128.80 122.28 <
4 6 12 -1 55.35 73.58 68.72 <
4 -6 12 -1 52.30 111.92 50.18 <
-3 7 12 -2 92.97 294.69 167.19 <
-3 -7 12 -2 100.10 108.06 102.26 <
-3 7 12 -1 119.89 111.97 94.62 <
-3 -7 12 -1 118.59 229.16 150.19 <
-3 7 12 0 92.89 72.75 143.32 <
-3 -7 12 0 92.75 25.83 68.96 <
-3 7 12 1 220.38 -16.11 118.37 <
-3 -7 12 1 221.95 37.09 54.09 <
-3 7 12 2 21.03 -31.93 38.09 <
-3 -7 12 2 14.49 -213.34 220.22 <
-2 7 12 -2 120.33 288.47 141.48 <
-2 -7 12 -2 134.19 132.65 88.81 <
-2 7 12 -1 245.13 470.83 204.63 <
-2 -7 12 -1 236.59 295.75 131.64 <
-2 7 12 0 39.52 225.61 169.50 <
-2 -7 12 0 46.59 80.16 34.18 <
-2 7 12 1 126.34 -12.68 43.43 <
-2 -7 12 1 143.34 200.55 117.19 <
-2 7 12 2 127.58 155.64 102.61 <
-2 -7 12 2 129.37 50.89 76.49 <
-1 7 12 -2 219.19 330.23 172.70 <
-1 -7 12 -2 222.83 346.23 140.00 <
-1 7 12 -1 453.66 423.96 174.00 <
-1 -7 12 -1 457.45 526.93 164.23 o
-1 7 12 0 309.51 481.02 182.18 <
-1 -7 12 0 308.05 345.70 141.89 <
-1 7 12 1 221.71 341.55 174.60 <
-1 -7 12 1 224.54 375.20 143.43 <
-1 7 12 2 32.83 38.57 83.06 <
-1 -7 12 2 25.90 -98.64 43.66 <
0 7 12 -2 339.33 476.22 154.69 o
0 -7 12 -2 336.57 335.63 180.52 <
0 7 12 -1 162.59 166.48 107.41 <
0 -7 12 -1 160.29 186.74 163.76 <
0 7 12 0 132.34 460.10 138.16 o
0 -7 12 0 106.41 618.05 239.65 <
0 7 12 1 252.28 273.36 160.67 <
0 -7 12 1 264.46 204.69 176.20 <
0 7 12 2 8.81 53.26 125.90 <
0 -7 12 2 10.57 220.81 229.87 <
1 7 12 -2 21.14 59.13 47.46 <
1 -7 12 -2 10.57 1.84 35.43 <
1 7 12 -1 98.46 161.33 62.39 <
1 -7 12 -1 96.34 64.64 67.72 <
1 7 12 0 344.12 400.20 143.91 <
1 -7 12 0 351.80 407.73 164.82 <
1 7 12 1 13.70 57.59 131.23 <
1 -7 12 1 17.81 103.56 122.11 <
1 7 12 2 24.41 76.55 189.53 <
1 -7 12 2 20.51 -9.89 104.75 <
2 7 12 -2 462.98 301.20 190.53 <
2 -7 12 -2 448.34 376.15 203.33 <
2 7 12 -1 87.78 163.22 139.52 <
2 -7 12 -1 79.20 164.64 85.67 <
2 7 12 0 101.53 163.58 229.16 <
2 -7 12 0 113.22 55.93 106.05 <
2 7 12 1 68.12 76.01 131.47 <
2 -7 12 1 70.22 106.11 73.35 <
2 7 12 2 19.90 167.49 162.33 <
2 -7 12 2 22.05 43.01 88.93 <
3 7 12 -2 32.96 35.49 83.77 <
3 -7 12 -2 23.36 217.96 162.10 <
3 7 12 -1 83.14 -203.04 158.84 <
3 -7 12 -1 77.36 75.00 64.22 <
3 7 12 0 91.77 -97.04 154.51 <
3 -7 12 0 96.75 32.82 106.23 <
3 7 12 1 32.06 -152.62 166.36 <
3 -7 12 1 34.64 173.89 163.04 <
4 7 12 -2 198.46 -287.52 191.01 <
4 -7 12 -2 191.65 31.99 31.76 <
4 7 12 -1 54.62 -43.66 64.52 <
-3 8 12 -2 19.62 25.36 96.33 <
-3 -8 12 -2 16.67 42.48 97.16 <
-3 8 12 -1 27.69 -45.32 35.01 <
-3 -8 12 -1 28.75 72.10 88.10 <
-3 8 12 0 231.27 428.46 223.53 <
-3 -8 12 0 218.49 -13.27 80.87 <
-3 8 12 1 75.90 117.84 107.12 <
-3 -8 12 1 75.00 37.09 65.23 <
-3 8 12 2 18.32 -1.96 67.24 <
-3 -8 12 2 18.23 104.69 99.53 <
-2 8 12 -2 487.29 312.99 190.00 <
-2 -8 12 -2 486.77 283.19 172.76 <
-2 8 12 -1 481.29 518.04 199.12 <
-2 -8 12 -1 480.40 344.75 199.60 <
-2 8 12 0 449.71 415.02 200.07 <
-2 -8 12 0 530.07 431.43 227.56 <
-2 8 12 1 71.21 190.65 122.82 <
-2 -8 12 1 66.83 -80.81 107.59 <
-2 8 12 2 98.33 114.76 156.82 <
-2 -8 12 2 100.48 -0.12 62.92 <
-1 8 12 -2 21.88 86.68 79.09 <
-1 -8 12 -2 23.42 73.70 87.92 <
-1 8 12 -1 25.69 -39.58 39.52 <
-1 -8 12 -1 24.95 50.36 36.85 <
-1 8 12 0 458.17 157.06 97.81 <
-1 -8 12 0 472.48 238.35 119.20 <
-1 8 12 1 163.57 288.70 156.17 <
-1 -8 12 1 138.77 114.40 89.88 <
-1 8 12 2 35.67 22.34 75.36 <
-1 -8 12 2 30.69 153.45 105.10 <
0 8 12 -2 148.89 194.44 114.76 <
0 -8 12 -2 154.14 155.82 136.44 <
0 8 12 -1 385.83 312.11 120.15 <
0 -8 12 -1 390.67 234.49 151.02 <
0 8 12 0 3208.62 3279.95 385.16 o
0 -8 12 0 3299.05 3466.99 538.30 o
0 8 12 1 167.01 55.45 81.52 <
0 -8 12 1 190.01 318.15 206.71 <
0 8 12 2 55.25 -14.75 54.98 <
0 -8 12 2 57.51 31.58 65.41 <
1 8 12 -2 7.13 26.42 76.90 <
1 -8 12 -2 6.36 139.17 126.96 <
1 8 12 -1 13.90 34.13 107.59 <
1 -8 12 -1 13.04 -90.65 85.02 <
1 8 12 0 313.57 -74.41 171.99 <
1 -8 12 0 320.91 59.84 123.41 <
1 8 12 1 86.41 262.75 207.71 <
1 -8 12 1 52.73 11.02 29.80 <
1 8 12 2 109.49 343.92 204.28 <
1 -8 12 2 98.25 -32.64 63.69 <
2 8 12 -2 82.57 88.45 95.62 <
2 -8 12 -2 92.58 157.00 152.56 <
2 8 12 -1 380.84 315.78 215.06 <
2 -8 12 -1 396.44 153.21 115.00 <
2 8 12 0 384.67 353.46 209.02 <
2 -8 12 0 450.04 553.18 252.21 <
2 8 12 1 83.50 37.44 106.05 <
2 -8 12 1 106.53 213.28 120.45 <
2 8 12 2 47.92 18.72 89.16 <
2 -8 12 2 46.83 -75.12 142.01 <
3 8 12 -2 16.58 -176.14 143.43 <
3 -8 12 -2 14.70 153.92 72.10 <
3 8 12 -1 38.89 -84.90 103.50 <
3 -8 12 -1 35.48 -61.85 33.06 <
3 8 12 0 119.11 -143.49 214.65 <
3 -8 12 0 103.98 163.34 120.98 <
3 8 12 1 155.85 -667.05 303.40 <
3 -8 12 1 126.25 121.16 143.55 <
4 8 12 -2 36.93 -145.09 145.74 <
4 -8 12 -2 42.58 -19.25 63.57 <
-3 9 12 -2 59.20 97.10 119.20 <
-3 -9 12 -2 57.09 3.44 51.01 <
-3 9 12 -1 179.91 322.36 178.03 <
-3 -9 12 -1 177.97 78.44 83.30 <
-3 9 12 0 3.53 117.43 103.21 <
-3 -9 12 0 2.99 -15.34 80.22 <
-3 9 12 1 99.60 15.17 78.56 <
-3 -9 12 1 93.36 153.80 145.39 <
-3 9 12 2 17.66 42.36 27.79 <
-3 -9 12 2 15.98 35.43 267.55 <
-2 9 12 -2 161.98 216.13 162.63 <
-2 -9 12 -2 172.41 261.15 189.11 <
-2 9 12 -1 22.48 23.70 13.69 <
-2 -9 12 -1 16.33 37.27 84.60 <
-2 9 12 0 292.31 331.54 159.13 <
-2 -9 12 0 305.85 182.83 126.43 <
-2 9 12 1 103.95 -32.23 93.85 <
-2 -9 12 1 75.19 149.00 84.84 <
-2 9 12 2 56.97 -56.11 81.17 <
-2 -9 12 2 55.74 224.36 187.04 <
-1 9 12 -2 70.54 28.38 70.68 <
-1 -9 12 -2 66.17 110.08 112.68 <
-1 9 12 -1 194.59 142.60 113.16 <
-1 -9 12 -1 192.09 344.81 199.95 <
-1 9 12 0 81.33 118.08 92.13 <
-1 -9 12 0 70.23 -37.74 84.13 <
-1 9 12 1 257.69 294.33 145.86 <
-1 -9 12 1 245.72 327.33 209.79 <
-1 9 12 2 22.24 207.95 136.32 <
-1 -9 12 2 25.73 264.06 180.82 <
0 9 12 -2 129.81 153.21 107.18 <
0 -9 12 -2 126.48 156.23 114.82 <
0 9 12 -1 13.16 63.16 54.80 <
0 -9 12 -1 11.03 112.92 100.36 <
0 9 12 0 403.08 666.93 189.88 o
0 -9 12 0 424.06 577.41 227.92 <
0 9 12 1 220.03 116.18 93.90 <
0 -9 12 1 184.60 130.40 155.10 <
0 9 12 2 67.02 24.47 93.55 <
0 -9 12 2 63.35 -48.94 22.51 <
1 9 12 -2 19.96 7.58 23.52 <
1 -9 12 -2 21.74 9.12 46.74 <
1 9 12 -1 1.86 -85.31 149.42 <
1 -9 12 -1 2.62 132.95 139.05 <
1 9 12 0 119.48 -96.81 135.55 <
1 -9 12 0 108.10 130.87 138.22 <
1 9 12 1 275.78 350.08 176.26 <
1 -9 12 1 265.96 418.33 179.63 <
1 9 12 2 37.61 328.28 226.20 <
1 -9 12 2 40.12 108.00 108.24 <
2 9 12 -2 243.73 150.07 91.24 <
2 -9 12 -2 244.24 302.69 165.53 <
2 9 12 -1 14.21 13.21 63.93 <
2 -9 12 -1 11.14 -7.58 17.95 <
2 9 12 0 213.58 164.88 177.91 <
2 -9 12 0 224.23 273.71 158.13 <
2 9 12 1 40.84 77.61 109.31 <
2 -9 12 1 32.93 -62.39 81.58 <
2 9 12 2 22.40 5.63 54.80 <
2 -9 12 2 22.00 -58.89 24.59 <
3 9 12 -2 25.15 -20.97 82.17 <
3 -9 12 -2 25.89 103.74 91.89 <
3 9 12 -1 105.64 -86.91 142.43 <
3 -9 12 -1 99.78 100.60 95.86 <
3 9 12 0 46.10 -269.69 188.46 <
3 -9 12 0 43.73 122.40 144.91 <
4 9 12 -2 79.81 -94.62 100.48 <
4 -9 12 -2 81.73 53.91 52.49 <
-3 10 12 -2 35.41 168.91 165.18 <
-3 -10 12 -2 38.43 159.43 158.78 <
-3 10 12 -1 173.71 268.56 165.29 <
-3 -10 12 -1 183.23 239.59 138.40 <
-3 10 12 0 34.62 -105.04 122.70 <
-3 -10 12 0 25.59 55.10 52.02 <
-3 10 12 1 58.28 28.62 44.55 <
-3 -10 12 1 60.18 -95.33 185.38 <
-3 -10 12 2 80.77 -15.23 109.43 <
-2 10 12 -2 356.52 118.79 80.99 <
-2 -10 12 -2 353.76 166.24 113.28 <
-2 10 12 -1 60.70 -30.51 74.06 <
-2 -10 12 -1 63.75 156.29 131.70 <
-2 10 12 0 991.81 965.53 292.20 o
-2 -10 12 0 926.84 758.99 267.97 <
-2 10 12 1 69.69 117.13 68.84 <
-2 -10 12 1 79.13 180.76 140.23 <
-2 10 12 2 87.65 8.00 26.01 <
-2 -10 12 2 85.74 50.95 98.05 <
-1 10 12 -2 16.72 -1.90 51.01 <
-1 -10 12 -2 19.52 151.73 138.22 <
-1 10 12 -1 150.59 99.47 81.64 <
-1 -10 12 -1 155.36 67.90 69.79 <
-1 10 12 0 13.13 263.35 149.60 <
-1 -10 12 0 5.21 345.70 189.17 <
-1 10 12 1 261.90 202.80 128.86 <
-1 -10 12 1 262.18 62.92 104.04 <
-1 10 12 2 123.54 181.71 82.59 <
-1 -10 12 2 119.12 2.84 101.07 <
0 10 12 -2 70.65 71.63 66.59 <
0 -10 12 -2 68.63 294.57 170.75 <
0 10 12 -1 55.42 138.99 117.37 <
0 -10 12 -1 57.69 159.79 87.03 <
0 10 12 0 3172.82 3374.04 394.16 o
0 -10 12 0 3106.90 3166.38 500.45 o
0 10 12 1 51.51 19.61 34.13 <
0 -10 12 1 62.92 1.36 81.82 <
0 10 12 2 54.43 169.26 192.67 <
0 -10 12 2 52.83 -26.90 48.17 <
1 10 12 -2 13.70 40.76 83.30 <
1 -10 12 -2 13.81 -10.43 59.90 <
1 10 12 -1 144.23 95.98 65.70 <
1 -10 12 -1 144.90 23.40 30.10 <
1 10 12 0 16.74 -305.29 204.69 <
1 -10 12 0 15.10 55.45 87.33 <
1 10 12 1 196.68 328.81 219.51 <
1 -10 12 1 231.29 71.04 77.91 <
1 10 12 2 125.54 618.23 298.54 <
1 -10 12 2 115.40 137.98 133.30 <
2 10 12 -2 27.46 137.15 90.65 <
2 -10 12 -2 27.27 132.29 106.70 <
2 10 12 -1 48.70 225.55 106.17 <
2 -10 12 -1 43.67 106.76 101.01 <
2 10 12 0 785.22 732.75 182.30 o
2 -10 12 0 742.11 658.10 277.27 <
2 10 12 1 41.71 -16.41 153.74 <
2 -10 12 1 51.04 169.80 118.25 <
2 10 12 2 20.56 284.62 207.36 <
2 -10 12 2 20.40 -55.81 135.91 <
3 10 12 -2 30.90 -78.44 110.67 <
3 -10 12 -2 28.15 -30.81 138.57 <
3 10 12 -1 64.89 -4.50 89.64 <
3 -10 12 -1 58.69 5.63 78.86 <
3 10 12 0 0.52 -218.91 235.80 <
3 -10 12 0 0.94 -85.37 50.54 <
4 10 12 -2 33.54 -171.63 145.03 <
4 -10 12 -2 34.80 206.83 180.05 <
-3 11 12 -2 50.34 89.28 95.68 <
-3 -11 12 -2 49.21 74.00 74.89 <
-3 -11 12 -1 82.67 10.43 55.69 <
-3 -11 12 0 6.90 -267.38 165.47 <
-3 -11 12 1 271.52 88.16 100.24 <
-3 -11 12 2 50.02 295.16 209.20 <
-2 11 12 -2 62.95 245.04 167.25 <
-2 -11 12 -2 67.53 117.48 118.14 <
-2 11 12 -1 86.12 83.30 109.96 <
-2 -11 12 -1 80.57 74.71 92.25 <
-2 11 12 0 79.69 203.33 137.63 <
-2 -11 12 0 89.11 385.69 227.44 <
-2 11 12 1 75.71 13.27 113.51 <
-2 -11 12 1 74.13 110.49 164.29 <
-2 11 12 2 73.69 -138.69 103.44 <
-2 -11 12 2 74.70 376.33 215.30 <
-1 11 12 -2 50.69 104.63 79.63 <
-1 -11 12 -2 46.71 16.17 59.96 <
-1 11 12 -1 56.56 186.27 133.60 <
-1 -11 12 -1 56.95 334.03 178.80 <
-1 11 12 0 47.58 230.76 113.51 <
-1 -11 12 0 41.26 135.32 120.62 <
-1 11 12 1 457.93 336.52 155.22 <
-1 11 12 2 38.04 -50.36 67.78 <
0 11 12 -2 102.19 137.39 110.91 <
0 11 12 -1 176.39 214.94 107.59 <
0 11 12 0 59.78 121.99 95.80 <
0 11 12 1 12.68 -46.03 86.74 <
0 11 12 2 58.40 109.96 127.14 <
1 11 12 -2 43.64 71.92 120.68 <
1 -11 12 -2 46.01 9.18 75.06 <
1 11 12 -1 87.03 204.34 103.44 <
1 -11 12 -1 87.07 94.85 91.06 <
1 11 12 0 100.46 72.10 73.82 <
1 -11 12 0 98.71 124.18 37.98 o
1 11 12 1 25.94 430.30 264.83 <
1 -11 12 1 14.47 105.04 81.64 <
1 11 12 2 22.49 147.58 170.51 <
1 -11 12 2 23.81 44.61 112.21 <
2 11 12 -2 139.05 70.86 75.89 <
2 -11 12 -2 135.78 51.96 99.00 <
2 11 12 -1 60.39 209.43 123.05 <
2 -11 12 -1 52.46 226.14 138.40 <
2 11 12 0 124.89 261.21 112.15 <
2 -11 12 0 133.38 214.71 174.77 <
2 11 12 1 15.27 57.88 68.37 <
2 -11 12 1 12.83 21.27 76.19 <
2 11 12 2 29.74 91.89 141.54 <
2 -11 12 2 29.23 49.06 80.93 <
3 11 12 -2 38.13 -7.11 51.07 <
3 -11 12 -2 41.00 -6.93 31.10 <
3 11 12 -1 35.21 -9.30 91.89 <
3 -11 12 -1 34.25 34.36 36.79 <
3 11 12 0 6.54 -579.24 273.24 <
3 -11 12 0 7.41 23.40 16.71 <
4 11 12 -2 96.33 1.18 60.49 <
4 -11 12 -2 96.98 -14.93 87.92 <
-3 -12 12 -1 19.72 90.17 80.57 <
-3 -12 12 0 606.51 498.37 215.71 <
-3 -12 12 1 39.51 38.09 23.40 <
-2 12 12 -2 15.64 118.55 133.18 <
-2 -12 12 -2 16.71 -64.10 85.67 <
-2 12 12 -1 182.91 240.30 147.11 <
-2 -12 12 -1 180.35 267.55 173.89 <
-2 12 12 0 300.24 306.77 154.34 <
-2 -12 12 0 290.32 233.90 191.60 <
-2 12 12 1 36.69 -23.05 47.51 <
-2 -12 12 1 32.83 75.06 151.25 <
-2 12 12 2 42.16 92.60 102.08 <
-2 -12 12 2 35.90 3.26 31.46 <
-1 12 12 -2 21.71 210.56 178.27 <
-1 -12 12 -2 21.09 125.48 65.05 <
-1 12 12 -1 145.93 28.67 88.69 <
-1 -12 12 -1 130.67 173.06 110.14 <
-1 12 12 0 593.02 747.44 217.79 o
-1 12 12 1 130.79 160.50 125.30 <
-1 12 12 2 11.14 15.76 62.15 <
0 12 12 -2 21.92 92.90 92.36 <
0 12 12 -1 34.79 113.99 74.47 <
0 12 12 0 469.92 129.99 151.91 <
0 12 12 1 115.62 -30.04 78.97 <
0 12 12 2 52.62 252.03 157.53 <
1 12 12 -2 28.65 82.65 131.11 <
1 12 12 -1 10.03 -27.85 114.58 <
1 12 12 0 708.04 724.75 272.06 <
1 12 12 1 0.37 333.85 179.22 <
1 12 12 2 80.00 12.68 119.50 <
2 12 12 -2 44.15 127.38 75.66 <
2 -12 12 -2 43.40 50.48 99.06 <
2 12 12 -1 44.63 158.13 98.11 <
2 -12 12 -1 40.21 98.05 98.70 <
2 12 12 0 381.62 276.56 113.87 <
2 -12 12 0 364.70 44.67 56.52 <
2 12 12 1 144.17 119.50 106.70 <
2 -12 12 1 131.57 193.38 128.86 <
2 -12 12 2 50.47 153.80 161.27 <
3 12 12 -2 9.90 4.86 73.23 <
3 -12 12 -2 10.24 -1.60 71.39 <
3 12 12 -1 9.38 -38.04 61.73 <
3 -12 12 -1 14.36 -115.17 73.94 <
3 12 12 0 414.40 185.32 157.18 <
3 -12 12 0 443.52 277.57 168.38 <
4 12 12 -2 36.11 -150.54 133.30 <
-3 -13 12 0 2.47 96.04 102.44 <
-2 13 12 -2 34.31 -12.20 51.84 <
-2 -13 12 -2 38.32 119.85 132.41 <
-2 13 12 -1 91.58 150.72 118.67 <
-2 -13 12 -1 84.48 52.91 56.88 <
-2 13 12 0 49.46 -35.13 12.50 <
-2 -13 12 0 55.73 -21.45 69.44 <
-2 13 12 1 91.27 63.45 63.87 <
-2 -13 12 1 83.08 8.18 93.90 <
-2 13 12 2 46.44 35.73 77.20 <
-2 -13 12 2 48.90 235.44 183.96 <
-1 13 12 -2 27.91 63.22 45.74 <
-1 -13 12 -2 20.97 -70.62 59.54 <
-1 13 12 -1 603.62 907.94 277.33 o
-1 13 12 0 16.19 156.05 113.81 <
-1 13 12 1 22.05 229.58 121.33 <
-1 13 12 2 8.55 -43.78 135.97 <
0 13 12 -2 31.79 71.98 67.78 <
0 13 12 -1 32.12 194.09 146.75 <
0 13 12 0 37.70 -16.89 77.61 <
0 13 12 1 143.04 365.66 257.18 <
0 13 12 2 33.91 13.98 12.26 <
1 13 12 -2 16.49 -96.21 128.33 <
1 13 12 -1 1.38 -139.17 124.36 <
1 13 12 0 28.88 70.09 84.90 <
1 13 12 1 388.84 477.40 267.32 <
1 13 12 2 71.84 193.97 182.54 <
2 13 12 -2 35.86 -10.66 36.67 <
2 13 12 -1 18.38 110.73 93.61 <
2 13 12 0 37.01 107.00 105.87 <
2 13 12 1 181.79 91.18 127.32 <
3 13 12 -2 34.20 72.93 74.12 <
3 -13 12 -2 40.90 -29.15 105.46 <
3 13 12 -1 47.77 33.30 96.10 <
3 -13 12 -1 53.02 161.74 108.48 <
3 13 12 0 19.16 -37.50 117.07 <
-2 14 12 -2 19.44 -1.78 8.35 <
-2 -14 12 -2 20.83 17.18 62.50 <
-2 14 12 -1 77.55 72.81 85.02 <
-2 -14 12 -1 92.57 137.69 139.94 <
-2 14 12 0 77.83 125.13 123.71 <
-2 -14 12 0 70.02 48.17 70.80 <
-2 14 12 1 199.93 210.85 156.53 <
-2 -14 12 1 206.96 94.44 155.34 <
-2 14 12 2 47.57 17.77 63.22 <
-1 14 12 -2 15.13 -5.81 80.22 <
-1 -14 12 -2 20.37 164.23 154.28 <
-1 14 12 -1 183.22 163.70 121.69 <
-1 14 12 0 559.79 545.06 177.14 o
-1 14 12 1 16.22 65.88 149.71 <
-1 14 12 2 37.75 213.46 125.13 <
0 14 12 -2 14.54 72.28 37.03 <
0 14 12 -1 167.31 287.87 222.17 <
0 14 12 0 225.14 307.19 196.87 <
0 14 12 1 214.67 204.10 152.20 <
0 14 12 2 96.14 284.91 166.30 <
1 14 12 -2 80.52 -224.60 204.81 <
1 14 12 -1 145.42 -62.44 120.86 <
1 14 12 0 455.01 143.91 151.31 <
1 14 12 1 29.56 204.40 177.91 <
1 14 12 2 34.08 431.66 282.36 <
2 14 12 -2 53.59 88.81 76.13 <
2 14 12 -1 88.16 96.51 77.91 <
2 14 12 0 40.07 170.86 108.83 <
2 14 12 1 134.15 69.38 84.13 <
3 14 12 -2 61.71 163.93 108.36 <
3 14 12 -1 24.05 -120.62 120.74 <
-2 15 12 -2 31.13 -125.36 133.07 <
-2 -15 12 -2 30.75 -16.89 49.11 <
-2 15 12 -1 28.71 107.65 60.55 <
-2 -15 12 -1 24.83 184.13 175.66 <
-2 15 12 0 14.07 35.73 82.71 <
-2 -15 12 0 13.20 21.09 122.52 <
-2 15 12 1 32.48 55.16 115.47 <
-1 15 12 -2 59.21 177.44 132.53 <
-1 15 12 -1 39.09 -85.37 76.78 <
-1 15 12 0 362.17 457.38 160.56 <
-1 15 12 1 41.21 -197.76 172.64 <
-1 15 12 2 21.56 22.16 126.61 <
0 15 12 -2 29.43 177.91 158.19 <
0 15 12 -1 11.28 -138.93 186.56 <
0 15 12 0 366.99 416.67 250.13 <
0 15 12 1 52.62 0.41 173.53 <
0 15 12 2 15.08 52.14 97.93 <
1 15 12 -2 137.03 47.99 83.00 <
1 15 12 -1 24.61 -100.42 118.49 <
1 15 12 0 364.96 350.85 248.12 <
1 15 12 1 160.70 421.12 264.18 <
1 15 12 2 7.83 169.15 169.80 <
2 15 12 -2 57.66 105.34 81.64 <
2 15 12 -1 12.13 34.60 53.91 <
2 15 12 0 62.09 74.89 64.81 <
3 15 12 -2 72.15 75.12 94.26 <
-2 16 12 -2 86.52 173.12 146.28 <
-2 16 12 -1 96.56 148.65 149.65 <
-2 -16 12 -1 86.39 78.68 123.29 <
-2 -16 12 0 24.47 35.25 6.93 o
-1 16 12 -2 34.36 36.14 46.21 <
-1 16 12 -1 41.09 113.51 102.20 <
-1 16 12 0 577.75 513.96 271.23 <
-1 16 12 1 83.33 -49.47 86.97 <
0 16 12 -2 17.57 20.26 87.09 <
0 16 12 -1 147.47 267.61 233.19 <
0 16 12 0 278.89 200.66 189.11 <
0 16 12 1 37.11 -22.10 112.92 <
0 16 12 2 21.08 -43.84 184.61 <
1 16 12 -2 12.84 -56.64 101.96 <
1 16 12 -1 81.57 98.76 19.97 o
1 16 12 0 537.56 600.28 278.28 <
1 16 12 1 165.45 433.44 257.72 <
2 16 12 -2 30.10 -10.01 63.63 <
2 16 12 -1 19.57 -62.92 50.95 <
-1 17 12 -2 1.68 134.37 139.40 <
-1 17 12 -1 63.67 145.63 155.05 <
-1 17 12 0 5.76 -117.78 38.57 <
0 17 12 -2 65.72 222.29 207.24 <
0 17 12 -1 25.73 147.11 138.40 <
0 17 12 0 254.57 278.81 223.65 <
0 17 12 1 113.48 154.04 201.55 <
1 17 12 -2 5.99 -27.90 144.44 <
2 17 12 -2 17.52 66.71 89.70 <
-1 18 12 -1 22.02 112.63 193.38 <
0 18 12 -2 18.78 -44.49 73.82 <
0 18 12 -1 2.86 74.47 180.34 <
1 19 12 -2 67.67 56.40 128.33 <
1 -19 12 -1 55.42 130.40 230.17 <
-3 0 13 -2 29.62 -69.85 58.53 <
-3 0 13 -1 28.14 183.07 141.95 <
-3 0 13 0 109.45 -15.34 107.77 <
-3 0 13 1 106.50 77.97 112.68 <
-3 0 13 2 11.19 107.53 99.47 <
-2 0 13 -2 120.65 112.63 50.06 <
-2 0 13 -1 322.26 296.46 166.18 <
-2 0 13 0 112.31 280.94 176.32 <
-2 0 13 1 24.70 145.09 75.06 <
-2 0 13 2 75.87 57.41 115.23 <
-1 0 13 -2 21.15 168.85 97.16 <
-1 0 13 -1 217.10 257.54 131.17 <
-1 0 13 0 140.83 420.88 148.71 <
-1 0 13 1 264.79 300.97 148.23 <
-1 0 13 2 32.98 -150.60 98.88 <
0 0 13 -2 118.03 218.38 111.26 <
0 0 13 -1 459.85 512.36 176.73 <
0 0 13 0 161.64 231.65 106.17 <
0 0 13 1 521.77 751.95 205.76 o
0 0 13 2 69.41 164.52 93.85 <
1 0 13 -2 11.92 5.33 30.75 <
1 0 13 -1 8.76 24.17 59.90 <
1 0 13 0 55.45 473.96 163.64 <
1 0 13 1 33.59 176.26 106.88 <
1 0 13 2 74.45 135.91 101.55 <
2 0 13 -2 167.32 129.51 146.69 <
2 0 13 -1 678.81 695.96 268.68 <
2 0 13 0 23.36 137.57 152.20 <
2 0 13 1 463.23 503.71 147.99 o
2 0 13 2 35.49 274.96 202.26 <
3 0 13 -2 26.72 58.53 78.14 <
3 0 13 -1 70.14 71.27 57.59 <
3 0 13 0 17.08 436.58 263.94 <
4 0 13 -2 79.58 414.19 244.86 <
-3 1 13 -2 201.29 237.22 176.08 <
-3 -1 13 -2 185.35 53.38 101.72 <
-3 1 13 -1 198.81 316.61 200.96 <
-3 -1 13 -1 187.68 187.10 165.47 <
-3 1 13 0 396.80 152.26 141.71 <
-3 -1 13 0 362.63 305.71 193.02 <
-3 1 13 1 76.73 87.86 127.73 <
-3 -1 13 1 85.38 205.05 165.53 <
-3 1 13 2 3.68 96.81 94.14 <
-3 -1 13 2 5.87 70.21 68.37 <
-2 1 13 -2 376.47 460.87 205.58 <
-2 -1 13 -2 364.62 690.98 267.79 <
-2 1 13 -1 141.13 329.94 186.92 <
-2 -1 13 -1 142.62 305.23 190.65 <
-2 1 13 0 70.86 416.85 201.85 <
-2 -1 13 0 74.17 262.34 154.75 <
-2 1 13 1 57.67 182.65 125.42 <
-2 -1 13 1 46.28 205.11 133.66 <
-2 1 13 2 28.85 121.04 101.84 <
-2 -1 13 2 29.09 -81.82 65.41 <
-1 1 13 -2 526.92 468.81 164.82 <
-1 -1 13 -2 494.93 540.97 166.60 o
-1 1 13 -1 996.81 1108.37 241.78 o
-1 -1 13 -1 959.13 909.06 227.38 o
-1 1 13 0 1325.56 1300.32 262.04 o
-1 -1 13 0 1202.14 1577.24 290.72 o
-1 1 13 1 149.98 137.33 98.64 <
-1 -1 13 1 168.32 208.49 123.76 <
-1 1 13 2 35.32 159.96 122.28 <
-1 -1 13 2 38.55 119.08 104.75 <
0 1 13 -2 220.56 208.90 101.61 <
0 -1 13 -2 216.54 410.16 146.46 <
0 1 13 -1 115.05 218.14 121.10 <
0 -1 13 -1 112.87 295.40 127.73 <
0 1 13 0 290.93 325.61 136.92 <
0 -1 13 0 266.57 349.25 162.45 <
0 1 13 1 126.44 233.43 128.62 <
0 -1 13 1 126.36 237.22 111.86 <
0 1 13 2 60.49 35.25 103.86 <
0 -1 13 2 60.49 -111.20 77.79 <
1 1 13 -2 61.95 145.86 82.00 <
1 -1 13 -2 53.13 69.91 104.45 <
1 1 13 -1 164.37 29.68 86.85 <
1 -1 13 -1 151.87 164.05 102.97 <
1 1 13 0 1602.59 1543.23 274.66 o
1 -1 13 0 1481.96 1553.89 275.85 o
1 1 13 1 280.84 431.43 166.84 <
1 -1 13 1 328.60 359.44 155.28 <
1 1 13 2 39.05 -57.35 50.24 <
1 -1 13 2 40.99 -27.90 56.05 <
2 1 13 -2 323.42 196.46 88.04 <
2 -1 13 -2 330.28 294.15 191.90 <
2 1 13 -1 18.86 97.81 82.17 <
2 -1 13 -1 16.24 163.52 129.93 <
2 1 13 0 55.16 85.37 89.88 <
2 -1 13 0 58.37 328.22 220.87 <
2 1 13 1 87.17 412.35 237.63 <
2 -1 13 1 92.86 106.70 154.63 <
2 1 13 2 111.17 -7.88 70.80 <
2 -1 13 2 112.37 153.21 141.66 <
3 1 13 -2 28.65 60.55 130.70 <
3 -1 13 -2 31.05 -40.17 79.69 <
3 1 13 -1 61.14 125.36 247.59 <
3 -1 13 -1 56.52 63.87 64.28 <
3 1 13 0 542.20 172.70 110.02 <
3 -1 13 0 498.13 237.63 180.70 <
4 1 13 -2 136.49 -181.23 190.65 <
4 -1 13 -2 144.90 16.71 59.72 <
-3 2 13 -2 62.37 27.67 79.09 <
-3 -2 13 -2 60.92 85.97 86.20 <
-3 2 13 -1 123.66 62.98 90.23 <
-3 -2 13 -1 111.69 84.48 126.73 <
-3 2 13 0 83.57 81.23 45.03 <
-3 -2 13 0 87.50 280.71 168.61 <
-3 2 13 1 131.06 232.18 174.95 <
-3 -2 13 1 122.32 157.77 128.15 <
-3 -2 13 2 197.35 -14.57 17.77 <
-2 2 13 -2 360.10 438.89 214.71 <
-2 -2 13 -2 352.26 300.08 215.24 <
-2 2 13 -1 207.52 498.08 207.77 <
-2 -2 13 -1 212.29 231.06 121.04 <
-2 2 13 0 542.17 525.45 230.29 <
-2 -2 13 0 506.98 506.43 168.14 o
-2 2 13 1 484.86 500.51 189.70 <
-2 -2 13 1 519.43 291.13 138.10 <
-2 2 13 2 65.03 154.57 145.57 <
-2 -2 13 2 69.33 62.74 62.33 <
-1 2 13 -2 213.10 322.89 176.55 <
-1 -2 13 -2 228.66 385.75 143.97 <
-1 2 13 -1 807.68 995.86 238.88 o
-1 -2 13 -1 763.85 1042.37 241.37 o
-1 2 13 0 68.20 94.08 117.78 <
-1 -2 13 0 70.57 206.89 117.66 <
-1 2 13 1 304.28 239.23 108.06 <
-1 -2 13 1 282.59 287.87 136.26 <
-1 2 13 2 149.99 310.92 161.38 <
-1 -2 13 2 141.33 237.75 130.28 <
0 2 13 -2 113.94 199.42 129.93 <
0 -2 13 -2 107.48 83.65 99.77 <
0 2 13 -1 150.28 307.42 120.98 <
0 -2 13 -1 163.98 120.45 118.96 <
0 2 13 0 2226.28 2989.83 401.98 o
0 -2 13 0 2226.43 2514.92 382.02 o
0 2 13 1 744.42 564.14 188.99 <
0 -2 13 1 764.43 757.40 202.38 o
0 2 13 2 68.69 61.97 69.38 <
0 -2 13 2 74.00 91.71 81.11 <
1 2 13 -2 126.49 59.84 67.54 <
1 -2 13 -2 148.93 118.61 84.37 <
1 2 13 -1 122.95 131.11 89.11 <
1 -2 13 -1 95.41 148.47 90.05 <
1 2 13 0 157.87 500.63 177.97 <
1 -2 13 0 166.76 316.79 129.15 <
1 2 13 1 197.17 259.02 123.11 <
1 -2 13 1 160.87 205.52 107.41 <
1 2 13 2 114.51 214.11 110.49 <
1 -2 13 2 103.29 53.85 54.98 <
2 2 13 -2 30.18 -4.32 72.46 <
2 -2 13 -2 24.30 45.86 112.51 <
2 2 13 -1 17.76 117.84 122.64 <
2 -2 13 -1 24.74 201.85 163.28 <
2 2 13 0 476.00 158.66 82.77 <
2 -2 13 0 449.33 264.23 162.39 <
2 2 13 1 343.22 198.95 164.58 <
2 -2 13 1 348.96 304.40 191.07 <
2 2 13 2 47.12 97.34 53.38 <
2 -2 13 2 42.06 9.24 124.83 <
3 2 13 -2 68.78 256.95 218.91 <
3 -2 13 -2 77.15 271.70 182.89 <
3 2 13 -1 142.84 -100.12 97.40 <
3 -2 13 -1 115.27 242.85 169.98 <
3 2 13 0 134.86 221.34 146.16 <
3 -2 13 0 140.08 157.71 194.98 <
4 2 13 -2 36.71 -98.29 145.74 <
4 -2 13 -2 33.48 283.55 178.68 <
-3 3 13 -2 1.96 119.85 127.61 <
-3 -3 13 -2 2.05 171.22 139.88 <
-3 3 13 -1 212.25 122.52 125.07 <
-3 -3 13 -1 198.47 324.78 197.47 <
-3 3 13 0 87.01 60.85 115.06 <
-3 -3 13 0 90.67 -254.70 164.64 <
-3 3 13 1 158.49 103.09 151.79 <
-3 -3 13 1 161.99 291.37 181.71 <
-3 -3 13 2 16.72 219.27 137.15 <
-2 3 13 -2 206.73 195.27 149.89 <
-2 -3 13 -2 233.85 141.66 114.29 <
-2 3 13 -1 4.29 146.34 131.41 <
-2 -3 13 -1 9.96 -30.39 122.28 <
-2 3 13 0 727.54 631.56 254.28 <
-2 -3 13 0 801.28 499.03 169.32 <
-2 3 13 1 104.20 152.68 117.37 <
-2 -3 13 1 87.79 166.72 95.56 <
-2 3 13 2 64.61 -9.42 37.80 <
-2 -3 13 2 67.88 98.94 69.50 <
-1 3 13 -2 88.50 101.67 65.88 <
-1 -3 13 -2 82.89 132.83 97.40 <
-1 3 13 -1 686.10 999.59 242.31 o
-1 -3 13 -1 636.87 581.49 182.95 o
-1 3 13 0 340.36 565.20 184.61 o
-1 -3 13 0 362.62 643.82 191.07 o
-1 3 13 1 116.52 188.76 123.71 <
-1 -3 13 1 119.30 4.27 84.84 <
-1 3 13 2 39.65 -107.41 107.24 <
-1 -3 13 2 37.22 2.37 76.49 <
0 3 13 -2 26.62 157.65 89.34 <
0 -3 13 -2 34.13 142.54 101.90 <
0 3 13 -1 35.91 217.08 118.73 <
0 -3 13 -1 50.71 122.40 91.95 <
0 3 13 0 2685.80 3688.16 450.09 o
0 -3 13 0 2849.22 3232.02 408.97 o
0 3 13 1 84.73 66.71 110.97 <
0 -3 13 1 76.43 255.23 130.10 <
0 3 13 2 86.63 36.91 68.67 <
0 -3 13 2 87.94 -15.64 87.74 <
1 3 13 -2 112.30 212.04 124.71 <
1 -3 13 -2 117.11 236.57 158.84 <
1 3 13 -1 53.88 71.57 74.89 <
1 3 13 0 250.64 414.72 155.76 <
1 -3 13 0 263.52 213.58 159.43 <
1 3 13 1 337.81 289.83 133.95 <
1 -3 13 1 342.24 524.56 225.25 <
1 3 13 2 75.38 94.67 93.79 <
1 -3 13 2 69.97 44.49 117.54 <
2 3 13 -2 24.05 105.10 76.13 <
2 -3 13 -2 20.85 255.88 193.08 <
2 3 13 -1 40.58 106.58 89.82 <
2 -3 13 -1 51.80 49.00 112.33 <
2 3 13 0 684.62 959.42 339.18 <
2 -3 13 0 768.22 352.33 182.00 <
2 3 13 1 54.11 113.40 106.29 <
2 -3 13 1 45.33 62.68 130.04 <
2 3 13 2 45.06 24.05 76.13 <
2 -3 13 2 46.48 78.56 68.67 <
3 3 13 -2 167.00 247.41 183.42 <
3 -3 13 -2 170.23 -122.64 173.95 <
3 3 13 -1 16.18 -157.77 141.66 <
3 -3 13 -1 18.25 111.38 138.75 <
3 3 13 0 72.75 26.66 60.13 <
3 -3 13 0 73.30 153.33 186.80 <
4 3 13 -2 49.38 -71.51 137.04 <
4 -3 13 -2 47.80 137.92 143.49 <
-3 4 13 -2 28.44 -67.72 63.87 <
-3 -4 13 -2 27.86 58.83 95.86 <
-3 4 13 -1 4.69 84.78 99.47 <
-3 -4 13 -1 2.94 -49.00 74.83 <
-3 4 13 0 645.44 818.60 308.55 <
-3 -4 13 0 671.39 515.38 242.08 <
-3 4 13 1 80.75 169.98 159.19 <
-3 -4 13 1 76.81 -1.90 67.07 <
-3 -4 13 2 27.67 49.94 58.12 <
-2 4 13 -2 69.23 85.73 70.62 <
-2 -4 13 -2 60.98 81.94 80.69 <
-2 4 13 -1 29.55 252.45 163.81 <
-2 -4 13 -1 42.13 236.98 116.77 <
-2 4 13 0 35.52 187.69 147.52 <
-2 -4 13 0 33.67 253.51 122.88 <
-2 4 13 1 25.91 -36.73 22.93 <
-2 -4 13 1 11.74 -4.44 63.22 <
-2 4 13 2 70.36 15.40 61.44 <
-2 -4 13 2 68.86 121.81 110.97 <
-1 4 13 -2 47.54 275.91 169.56 <
-1 -4 13 -2 48.78 154.93 108.36 <
-1 4 13 -1 473.22 540.44 182.83 <
-1 -4 13 -1 474.51 600.99 178.33 o
-1 4 13 0 1349.14 1629.85 297.00 o
-1 -4 13 0 1376.54 1619.48 298.72 o
-1 4 13 1 101.19 97.64 92.90 <
-1 -4 13 1 102.28 31.22 51.25 <
-1 4 13 2 31.70 28.50 54.27 <
-1 -4 13 2 37.00 -41.18 9.54 <
0 4 13 -2 94.43 228.39 125.30 <
0 -4 13 -2 83.89 190.53 106.29 <
0 4 13 -1 47.13 211.15 120.74 <
0 -4 13 -1 64.48 118.96 64.70 <
0 4 13 0 77.26 185.91 128.09 <
0 -4 13 0 90.94 245.45 118.43 <
0 4 13 1 215.72 129.69 70.09 <
0 -4 13 1 150.00 106.11 93.73 <
0 4 13 2 59.84 119.85 153.68 <
0 -4 13 2 64.85 28.38 72.52 <
1 4 13 -2 104.15 167.01 82.94 <
1 -4 13 -2 112.49 95.92 125.72 <
1 4 13 -1 115.43 173.59 91.95 <
1 -4 13 -1 112.32 259.02 179.22 <
1 4 13 0 1195.09 1307.91 251.91 o
1 -4 13 0 1190.10 1210.15 355.06 o
1 4 13 1 170.82 198.00 122.64 <
1 -4 13 1 188.25 181.53 198.18 <
1 4 13 2 51.44 -10.72 132.29 <
1 -4 13 2 54.49 127.85 138.46 <
2 4 13 -2 94.83 278.99 133.78 <
2 -4 13 -2 91.43 317.73 153.27 <
2 4 13 -1 17.58 -26.25 54.03 <
2 -4 13 -1 14.54 -19.67 91.89 <
2 4 13 0 32.20 222.82 183.42 <
2 -4 13 0 26.03 53.79 74.65 <
2 4 13 1 229.89 207.71 185.56 <
2 -4 13 1 168.80 75.72 100.42 <
2 -4 13 2 26.92 -42.42 72.58 <
3 4 13 -2 53.36 -49.29 122.16 <
3 -4 13 -2 58.92 58.89 50.65 <
3 4 13 -1 137.32 14.87 33.30 <
3 -4 13 -1 133.63 162.10 182.83 <
3 4 13 0 493.79 307.54 195.87 <
3 -4 13 0 500.31 333.26 198.83 <
4 4 13 -2 100.67 52.31 120.45 <
4 -4 13 -2 99.76 159.43 164.64 <
-3 5 13 -2 22.15 197.82 145.39 <
-3 -5 13 -2 26.72 -42.12 44.91 <
-3 5 13 -1 4.26 -23.05 29.50 <
-3 -5 13 -1 3.09 -11.79 60.13 <
-3 5 13 0 181.77 318.09 185.32 <
-3 -5 13 0 175.91 22.45 136.32 <
-3 -5 13 1 63.99 39.99 15.23 <
-2 5 13 -2 95.59 49.65 46.74 <
-2 -5 13 -2 99.08 90.76 88.93 <
-2 5 13 -1 371.23 766.22 273.12 <
-2 -5 13 -1 362.78 368.15 134.07 <
-2 5 13 0 566.08 205.94 153.80 <
-2 -5 13 0 556.18 460.58 151.96 o
-2 5 13 1 232.32 248.65 160.50 <
-2 -5 13 1 236.44 378.46 167.61 <
-2 5 13 2 77.12 184.67 151.61 <
-2 -5 13 2 81.53 67.24 101.96 <
-1 5 13 -2 8.04 74.89 71.27 <
-1 -5 13 -2 7.84 85.20 87.80 <
-1 5 13 -1 68.62 139.11 87.09 <
-1 -5 13 -1 72.50 97.34 101.07 <
-1 5 13 0 150.13 164.29 127.08 <
-1 -5 13 0 162.15 270.58 143.67 <
-1 5 13 1 118.90 162.15 137.80 <
-1 -5 13 1 112.68 68.61 93.31 <
-1 5 13 2 47.88 -30.10 39.75 <
-1 -5 13 2 49.27 -16.94 98.47 <
0 5 13 -2 47.01 226.02 121.81 <
0 -5 13 -2 42.09 135.79 81.11 <
0 5 13 -1 353.43 439.13 157.12 <
0 -5 13 -1 343.48 561.94 178.39 o
0 5 13 0 182.54 45.50 95.44 <
0 -5 13 0 210.90 91.95 63.33 <
0 5 13 1 167.53 204.93 104.81 <
0 -5 13 1 176.12 205.88 112.57 <
0 5 13 2 35.71 101.78 103.68 <
0 -5 13 2 37.16 55.10 69.20 <
1 5 13 -2 118.83 98.05 77.14 <
1 -5 13 -2 128.24 191.42 165.71 <
1 5 13 -1 46.44 13.09 89.58 <
1 -5 13 -1 40.36 276.56 206.23 <
1 5 13 0 112.55 185.85 120.15 <
1 -5 13 0 118.89 6.10 77.85 <
1 5 13 1 160.43 336.69 180.76 <
1 -5 13 1 147.71 308.20 224.78 <
1 5 13 2 29.94 262.40 235.56 <
1 -5 13 2 29.47 94.56 122.99 <
2 5 13 -2 36.30 300.61 225.37 <
2 -5 13 -2 28.60 6.64 61.85 <
2 5 13 -1 151.39 209.32 169.68 <
2 -5 13 -1 146.85 131.88 143.20 <
2 5 13 0 574.82 569.94 292.85 <
2 -5 13 0 569.13 251.26 135.43 <
2 5 13 1 121.69 128.21 73.70 <
2 -5 13 1 124.73 532.09 262.58 <
2 -5 13 2 86.57 267.67 208.19 <
3 5 13 -2 106.05 -82.65 133.84 <
3 -5 13 -2 119.57 -67.78 109.90 <
3 5 13 -1 24.80 -16.29 137.04 <
3 -5 13 -1 21.00 -59.66 93.49 <
3 5 13 0 76.62 153.74 156.17 <
3 -5 13 0 73.09 108.83 166.90 <
4 5 13 -2 51.67 1.36 23.46 <
-3 6 13 -2 27.82 127.20 124.59 <
-3 -6 13 -2 29.89 -51.43 74.65 <
-3 6 13 -1 28.81 33.77 96.87 <
-3 -6 13 -1 33.11 13.51 55.22 <
-3 -6 13 0 347.83 677.06 290.60 <
-2 6 13 -2 290.21 428.64 201.67 <
-2 -6 13 -2 289.30 508.15 154.28 o
-2 6 13 -1 159.12 232.84 156.23 <
-2 -6 13 -1 179.08 60.43 94.08 <
-2 6 13 0 204.84 317.85 171.99 <
-2 -6 13 0 191.31 451.10 148.29 o
-2 6 13 1 224.22 239.17 165.06 <
-2 -6 13 1 241.30 195.93 96.10 <
-2 6 13 2 133.99 23.28 79.45 <
-2 -6 13 2 126.39 2.49 59.13 <
-1 6 13 -2 91.68 13.27 32.47 <
-1 -6 13 -2 96.94 82.83 114.17 <
-1 6 13 -1 38.28 161.21 117.01 <
-1 -6 13 -1 35.01 157.36 134.84 <
-1 6 13 0 453.80 512.06 193.26 <
-1 -6 13 0 377.70 345.93 158.60 <
-1 6 13 1 171.66 130.04 105.34 <
-1 -6 13 1 207.71 199.54 85.02 <
-1 6 13 2 45.16 -17.12 68.90 <
-1 -6 13 2 49.20 62.39 132.18 <
0 6 13 -2 69.87 320.99 157.65 <
0 -6 13 -2 81.96 286.33 120.98 <
0 6 13 -1 199.79 100.30 85.37 <
0 -6 13 -1 204.93 141.95 100.18 <
0 6 13 0 124.36 203.80 128.44 <
0 -6 13 0 150.93 133.12 91.42 <
0 6 13 1 257.60 261.39 99.89 <
0 -6 13 1 243.40 252.33 129.45 <
0 6 13 2 126.21 218.02 141.42 <
0 -6 13 2 124.66 314.12 128.27 <
1 6 13 -2 61.20 -59.07 55.16 <
1 -6 13 -2 64.96 15.40 99.71 <
1 6 13 -1 85.08 -27.61 32.88 <
1 6 13 0 324.69 171.81 106.40 <
1 -6 13 0 267.70 362.70 214.94 <
1 6 13 1 43.43 405.54 240.30 <
1 -6 13 1 61.31 216.72 181.71 <
1 6 13 2 89.33 309.44 222.17 <
1 -6 13 2 92.01 33.06 110.73 <
2 6 13 -2 54.81 89.46 130.46 <
2 -6 13 -2 55.41 -42.12 83.48 <
2 6 13 -1 119.09 -58.59 120.80 <
2 -6 13 -1 109.59 45.09 102.32 <
2 6 13 0 64.80 98.29 109.54 <
2 -6 13 0 64.19 142.96 135.02 <
2 6 13 1 273.41 489.49 293.50 <
2 -6 13 1 244.44 271.17 226.85 <
2 -6 13 2 9.89 118.67 115.53 <
3 6 13 -2 30.12 13.27 85.49 <
3 -6 13 -2 32.49 173.41 163.81 <
3 6 13 -1 33.38 -8.00 89.70 <
3 -6 13 -1 27.71 12.50 95.44 <
3 -6 13 0 80.22 120.57 60.13 <
-3 -7 13 -2 34.02 16.41 53.79 <
-3 -7 13 -1 151.62 32.11 55.16 <
-3 -7 13 0 31.22 -11.85 55.99 <
-2 7 13 -2 53.38 159.90 150.78 <
-2 -7 13 -2 46.89 -5.27 115.65 <
-2 7 13 -1 2.98 -3.97 43.37 <
-2 -7 13 -1 1.97 292.91 194.33 <
-2 7 13 0 360.95 243.62 109.25 <
-2 -7 13 0 370.45 252.39 183.37 <
-2 7 13 1 122.93 49.35 115.23 <
-2 -7 13 1 124.43 -9.89 122.11 <
-2 7 13 2 47.06 79.39 72.99 <
-2 -7 13 2 42.57 252.92 160.26 <
-1 7 13 -2 63.99 -122.76 95.98 <
-1 -7 13 -2 56.52 7.29 85.61 <
-1 7 13 -1 138.69 270.69 171.04 <
-1 -7 13 -1 102.22 146.10 105.46 <
-1 7 13 0 35.25 196.10 115.00 <
-1 -7 13 0 55.80 64.70 89.99 <
-1 7 13 1 16.06 12.03 66.47 <
-1 -7 13 1 17.79 23.40 20.32 <
-1 7 13 2 68.56 63.75 115.06 <
-1 -7 13 2 68.48 68.61 70.44 <
0 7 13 -2 24.17 94.14 83.18 <
0 -7 13 -2 23.38 123.29 111.86 <
0 7 13 -1 22.30 227.21 149.36 <
0 -7 13 -1 20.79 84.96 137.51 <
0 7 13 0 136.06 187.04 153.45 <
0 -7 13 0 102.90 143.85 160.26 <
0 7 13 1 31.91 74.53 71.57 <
0 -7 13 1 33.45 244.27 209.08 <
0 7 13 2 46.79 122.76 134.37 <
0 -7 13 2 43.83 133.42 126.49 <
1 7 13 -2 120.85 191.36 88.81 <
1 -7 13 -2 119.63 183.90 121.33 <
1 7 13 -1 56.08 79.86 77.97 <
1 -7 13 -1 55.70 105.99 72.10 <
1 7 13 0 30.60 277.74 213.34 <
1 -7 13 0 45.97 375.91 223.77 <
1 7 13 1 166.55 530.07 262.64 <
1 -7 13 1 173.37 101.55 108.18 <
1 7 13 2 125.75 109.96 150.07 <
1 -7 13 2 128.17 170.45 130.34 <
2 7 13 -2 79.05 -42.12 54.21 <
2 -7 13 -2 72.18 68.61 69.20 <
2 7 13 -1 4.08 55.81 100.95 <
2 -7 13 -1 4.29 196.58 146.63 <
2 7 13 0 375.92 231.59 194.74 <
2 -7 13 0 380.49 156.11 151.14 <
2 7 13 1 10.21 139.40 168.20 <
2 -7 13 1 10.04 62.62 152.85 <
3 7 13 -2 83.28 -175.78 145.33 <
3 -7 13 -2 86.34 114.05 167.01 <
3 7 13 -1 2.87 160.02 133.48 <
3 -7 13 -1 3.11 37.09 40.52 <
-3 -8 13 -2 72.05 -188.52 139.23 <
-3 -8 13 -1 313.99 288.29 187.51 <
-2 8 13 -2 74.39 115.35 128.50 <
-2 -8 13 -2 78.38 -23.40 40.88 <
-2 8 13 -1 277.85 67.42 58.83 <
-2 -8 13 -1 253.80 183.60 127.61 <
-2 8 13 0 669.78 845.14 278.22 o
-2 -8 13 0 678.54 470.94 254.76 <
-2 8 13 1 65.17 98.70 123.17 <
-2 -8 13 1 63.20 126.67 83.89 <
-2 8 13 2 19.53 -66.89 67.72 <
-2 -8 13 2 18.39 104.81 143.73 <
-1 8 13 -2 135.16 35.31 138.34 <
-1 -8 13 -2 130.37 120.86 99.06 <
-1 8 13 -1 67.34 175.72 145.98 <
-1 -8 13 -1 53.20 116.83 39.64 <
-1 8 13 0 327.19 226.50 154.51 <
-1 -8 13 0 307.22 153.33 100.01 <
-1 8 13 1 314.22 391.38 165.00 <
-1 -8 13 1 288.94 436.29 161.44 <
-1 8 13 2 15.66 127.08 68.72 <
-1 -8 13 2 15.56 121.45 115.00 <
0 8 13 -2 17.37 31.34 91.59 <
0 -8 13 -2 15.51 102.79 129.81 <
0 8 13 -1 222.29 30.81 30.10 <
0 -8 13 -1 217.67 84.43 26.66 o
0 8 13 0 420.17 580.90 193.62 o
0 -8 13 0 424.70 609.52 277.03 <
0 8 13 1 11.94 62.86 85.20 <
0 -8 13 1 15.47 83.77 176.67 <
0 8 13 2 33.84 -31.76 174.18 <
0 -8 13 2 37.07 -84.19 97.70 <
1 8 13 -2 60.79 207.30 136.80 <
1 -8 13 -2 67.18 103.15 31.93 o
1 8 13 -1 88.59 -69.38 111.56 <
1 -8 13 -1 66.51 104.81 122.22 <
1 8 13 0 288.43 -127.50 114.23 <
1 -8 13 0 263.04 -27.43 116.65 <
1 8 13 1 1110.20 1166.84 385.33 o
1 -8 13 1 1069.20 1378.53 380.65 o
1 8 13 2 22.80 238.11 231.35 <
1 -8 13 2 24.52 97.34 130.04 <
2 8 13 -2 29.92 49.06 146.87 <
2 -8 13 -2 28.12 -83.54 80.28 <
2 8 13 -1 35.20 190.30 123.17 <
2 -8 13 -1 35.13 51.90 115.53 <
2 8 13 0 483.75 556.32 294.92 <
2 -8 13 0 485.98 615.92 255.59 <
2 8 13 1 10.59 47.46 103.62 <
2 -8 13 1 15.41 116.71 80.87 <
3 8 13 -2 60.25 34.01 99.59 <
3 -8 13 -2 66.65 151.31 133.24 <
3 8 13 -1 39.73 -74.12 99.77 <
3 -8 13 -1 42.68 -118.85 95.62 <
-3 -9 13 -2 39.39 31.52 79.21 <
-3 -9 13 -1 1.17 160.85 176.26 <
-2 9 13 -2 24.19 93.85 118.14 <
-2 -9 13 -2 23.32 18.19 76.78 <
-2 9 13 -1 42.12 15.64 91.36 <
-2 -9 13 -1 52.16 -36.02 22.51 <
-2 9 13 0 27.01 -61.62 96.27 <
-2 -9 13 0 24.89 74.06 118.55 <
-2 9 13 1 18.48 24.41 23.99 <
-2 -9 13 1 18.93 34.13 94.14 <
-2 9 13 2 11.13 10.55 70.21 <
-2 -9 13 2 10.25 -17.06 119.44 <
-1 9 13 -2 7.15 -2.49 86.50 <
-1 -9 13 -2 6.65 26.36 76.96 <
-1 9 13 -1 40.12 144.03 115.71 <
-1 -9 13 -1 40.94 252.45 209.55 <
-1 9 13 0 1299.87 988.10 237.57 o
-1 -9 13 0 1306.30 1023.94 335.03 o
-1 9 13 1 37.40 174.30 130.99 <
-1 -9 13 1 36.34 111.14 167.78 <
-1 9 13 2 27.54 156.59 121.28 <
-1 -9 13 2 27.13 53.02 112.86 <
0 9 13 -2 12.87 4.38 99.53 <
0 -9 13 -2 17.82 154.45 87.03 <
0 9 13 -1 22.52 56.22 21.15 <
0 -9 13 -1 28.05 128.15 119.97 <
0 9 13 0 104.52 0.53 61.08 <
0 -9 13 0 89.16 -48.88 46.09 <
0 9 13 1 16.46 86.62 40.29 <
0 -9 13 1 19.89 258.25 192.01 <
0 9 13 2 30.94 97.52 96.63 <
0 -9 13 2 37.15 -91.12 99.24 <
1 9 13 -2 122.97 0.24 104.86 <
1 -9 13 -2 119.00 104.86 128.44 <
1 9 13 -1 37.77 -144.91 122.58 <
1 -9 13 -1 35.20 166.42 145.21 <
1 9 13 0 1150.96 524.50 292.97 <
1 -9 13 0 1145.56 1065.12 318.56 o
1 9 13 1 325.08 441.73 269.27 <
1 -9 13 1 318.50 312.93 189.76 <
1 9 13 2 42.52 177.38 151.20 <
1 -9 13 2 40.64 231.89 160.56 <
2 9 13 -2 15.85 42.24 162.81 <
2 -9 13 -2 20.91 -82.17 95.98 <
2 9 13 -1 6.22 128.50 152.02 <
2 -9 13 -1 6.51 58.59 89.76 <
2 9 13 0 14.96 150.90 156.71 <
2 -9 13 0 21.23 -29.74 65.64 <
2 9 13 1 32.87 0.59 27.08 <
2 -9 13 1 37.76 31.10 67.78 <
3 9 13 -2 77.27 -126.31 219.80 <
3 -9 13 -2 75.17 81.58 127.26 <
3 9 13 -1 39.76 -265.36 188.64 <
3 -9 13 -1 37.46 224.60 175.25 <
-3 -10 13 -2 7.28 19.73 41.59 <
-2 10 13 -2 62.10 32.23 95.86 <
-2 -10 13 -2 61.65 -29.50 70.03 <
-2 10 13 -1 47.57 -117.78 117.31 <
-2 -10 13 -1 55.87 -85.08 136.98 <
-2 10 13 0 782.54 849.76 291.61 <
-2 -10 13 0 764.74 478.41 222.53 <
-2 10 13 1 14.92 142.84 117.78 <
-2 -10 13 1 8.74 48.64 91.65 <
-2 10 13 2 25.03 -15.94 63.57 <
-1 10 13 -2 26.57 -46.92 49.77 <
-1 -10 13 -2 25.70 69.20 158.24 <
-1 10 13 -1 215.66 249.19 134.43 <
-1 -10 13 -1 243.43 252.15 185.74 <
-1 10 13 0 134.14 100.95 90.23 <
-1 -10 13 0 126.26 230.82 143.37 <
-1 10 13 1 174.70 335.39 150.25 <
-1 -10 13 1 189.82 64.22 121.81 <
-1 10 13 2 58.92 76.78 116.54 <
-1 -10 13 2 64.38 219.27 168.20 <
0 10 13 -2 57.29 130.70 126.73 <
0 10 13 -1 50.26 115.47 110.26 <
0 10 13 0 377.26 323.07 139.40 <
0 10 13 1 5.84 189.88 236.69 <
0 10 13 2 27.18 528.77 345.76 <
1 10 13 -2 6.56 -149.77 168.02 <
1 -10 13 -2 6.68 -9.83 58.89 <
1 10 13 -1 512.22 51.54 53.14 <
1 -10 13 -1 522.22 271.23 168.02 <
1 10 13 0 77.50 267.61 235.80 <
1 -10 13 0 79.69 117.31 156.23 <
1 10 13 1 825.47 500.57 287.58 <
1 -10 13 1 856.57 912.50 317.32 <
1 10 13 2 77.00 221.52 191.24 <
1 -10 13 2 88.77 112.15 36.32 o
2 10 13 -2 76.72 78.80 84.96 <
2 -10 13 -2 69.47 -98.88 101.55 <
2 10 13 -1 28.81 23.11 122.70 <
2 -10 13 -1 32.89 -59.90 111.56 <
2 10 13 0 678.94 227.68 159.96 <
2 -10 13 0 674.22 596.84 264.77 <
2 -10 13 1 22.51 -50.24 118.25 <
3 10 13 -2 6.35 -149.60 146.34 <
3 -10 13 -2 6.23 56.94 97.34 <
3 10 13 -1 151.40 56.46 70.21 <
3 -10 13 -1 153.11 -77.85 89.64 <
-2 11 13 -2 44.80 11.32 76.13 <
-2 -11 13 -2 38.54 28.85 102.14 <
-2 11 13 -1 34.34 211.80 172.58 <
-2 -11 13 -1 31.29 -115.82 161.38 <
-2 11 13 0 432.11 340.37 168.73 <
-2 -11 13 0 420.96 210.20 169.03 <
-2 11 13 1 131.54 63.04 123.59 <
-1 11 13 -2 67.92 0.89 53.79 <
-1 -11 13 -2 75.79 145.33 147.05 <
-1 11 13 -1 76.53 137.98 131.29 <
-1 -11 13 -1 104.80 105.22 177.38 <
-1 11 13 0 32.75 -56.34 72.28 <
-1 -11 13 0 27.52 36.55 51.54 <
-1 11 13 1 56.84 151.67 103.03 <
-1 -11 13 1 55.34 -37.38 60.31 <
-1 11 13 2 12.75 36.61 71.09 <
-1 -11 13 2 9.85 -58.71 119.91 <
0 11 13 -2 154.73 252.03 137.92 <
0 11 13 -1 36.51 111.74 88.87 <
0 11 13 0 270.56 187.57 143.85 <
0 11 13 1 78.13 39.52 167.55 <
0 11 13 2 6.30 -47.99 193.79 <
1 11 13 -2 94.06 97.16 90.11 <
1 11 13 -1 64.75 92.36 32.82 <
1 11 13 0 50.76 187.34 142.37 <
1 11 13 1 43.05 97.81 166.95 <
2 11 13 -2 82.41 66.41 101.13 <
2 -11 13 -2 84.41 -14.93 59.72 <
2 11 13 -1 23.15 -13.86 46.80 <
2 -11 13 -1 20.59 -26.13 66.18 <
2 11 13 0 500.36 348.66 223.89 <
2 -11 13 0 488.19 354.82 178.45 <
2 -11 13 1 61.69 79.51 144.91 <
3 11 13 -2 55.47 100.95 101.43 <
3 -11 13 -2 54.48 -136.50 71.33 <
3 11 13 -1 9.43 -483.68 252.86 <
3 -11 13 -1 10.46 -7.82 103.98 <
-2 12 13 -2 97.36 49.00 61.62 <
-2 -12 13 -2 93.88 146.40 148.77 <
-2 12 13 -1 106.90 45.68 74.35 <
-2 -12 13 -1 85.71 -23.70 67.90 <
-2 12 13 0 466.30 276.32 177.91 <
-2 -12 13 0 458.57 416.91 239.00 <
-1 12 13 -2 51.21 23.28 63.10 <
-1 -12 13 -2 43.00 -74.06 84.31 <
-1 12 13 -1 80.79 257.95 157.77 <
-1 -12 13 -1 68.41 299.66 192.61 <
-1 12 13 0 49.53 -146.40 102.44 <
-1 -12 13 0 65.99 50.48 29.92 <
-1 12 13 1 37.27 181.11 106.29 <
-1 -12 13 1 41.52 343.68 202.26 <
0 12 13 -2 42.01 22.34 75.78 <
0 12 13 -1 36.00 229.34 191.01 <
0 12 13 0 199.61 121.81 168.97 <
0 12 13 1 260.78 289.18 169.92 <
1 12 13 -2 34.40 56.11 57.11 <
1 12 13 -1 39.53 128.09 143.61 <
1 12 13 0 54.20 6.75 143.97 <
1 12 13 1 85.75 440.43 253.81 <
2 12 13 -2 32.18 229.87 195.63 <
2 -12 13 -2 35.89 118.19 14.57 o
2 12 13 -1 36.72 336.81 249.78 <
2 12 13 0 247.82 160.20 147.82 <
3 12 13 -2 54.60 27.61 38.15 <
3 -12 13 -2 52.40 -18.07 34.95 <
-2 13 13 -2 46.34 2.25 56.05 <
-2 -13 13 -2 41.72 -114.11 110.02 <
-2 13 13 -1 197.47 238.17 173.77 <
-2 -13 13 -1 184.88 278.69 137.04 <
-1 13 13 -2 92.52 96.93 91.53 <
-1 -13 13 -2 91.06 144.56 118.73 <
-1 13 13 -1 86.83 118.19 120.92 <
-1 -13 13 -1 100.54 64.34 91.53 <
-1 13 13 0 129.40 193.62 106.17 <
-1 -13 13 0 117.26 383.67 204.34 <
0 13 13 -2 39.90 156.88 174.95 <
0 13 13 -1 145.55 31.34 36.44 <
0 13 13 0 204.23 -105.87 121.04 <
0 13 13 1 42.45 55.81 35.25 <
1 13 13 -2 8.76 -168.85 155.64 <
1 13 13 -1 17.82 -450.50 247.11 <
1 13 13 0 112.47 473.49 275.26 <
1 13 13 1 112.49 520.12 303.52 <
2 13 13 -2 8.86 155.52 159.61 <
2 13 13 -1 13.04 142.31 188.16 <
2 13 13 0 379.31 167.66 206.53 <
3 13 13 -2 19.47 -12.09 77.32 <
-2 -14 13 -2 4.47 -61.85 80.99 <
-1 14 13 -2 41.49 131.29 83.36 <
-1 -14 13 -2 38.98 216.19 155.34 <
-1 14 13 -1 145.52 280.29 173.89 <
-1 -14 13 -1 144.03 258.49 181.94 <
-1 14 13 0 1204.16 1002.02 391.67 <
0 14 13 -2 33.34 235.26 205.88 <
0 14 13 -1 96.92 203.04 177.97 <
0 14 13 0 0.02 155.22 159.43 <
1 14 13 -2 36.13 1.96 120.74 <
1 14 13 -1 40.18 -108.06 106.52 <
1 14 13 0 958.27 1206.30 416.44 <
2 14 13 -2 39.30 0.95 51.43 <
2 14 13 -1 156.42 80.93 89.05 <
3 14 13 -2 27.05 -82.41 99.71 <
-1 15 13 -2 8.69 23.58 14.81 <
-1 -15 13 -2 7.35 -77.49 99.41 <
-1 15 13 -1 101.81 134.31 117.96 <
-1 -15 13 -1 98.16 335.03 177.38 <
0 15 13 -2 11.77 -10.84 83.48 <
0 15 13 -1 49.41 1.18 41.77 <
0 15 13 0 990.68 1262.17 442.92 <
1 15 13 -2 15.37 -157.71 198.12 <
1 15 13 -1 20.85 -113.40 138.99 <
1 15 13 0 105.89 850.23 363.41 <
2 15 13 -2 37.08 -126.90 89.58 <
2 15 13 -1 41.91 29.56 97.58 <
-1 16 13 -2 72.33 61.44 87.92 <
-1 -16 13 -2 67.76 290.84 193.44 <
0 16 13 -2 16.55 128.27 178.21 <
0 16 13 -1 151.22 433.74 254.16 <
1 16 13 -2 51.22 91.36 144.03 <
1 16 13 -1 30.57 -172.23 147.82 <
0 17 13 -2 10.31 265.12 227.38 <
1 17 13 -2 5.86 -223.89 172.82 <
0 18 13 -2 29.42 62.62 183.60 <
-2 0 14 -2 81.65 407.31 184.96 <
-2 0 14 -1 3.82 97.16 87.03 <
-2 0 14 0 59.36 200.96 98.53 <
-2 0 14 1 19.41 -35.37 95.27 <
-2 0 14 2 24.59 -144.91 160.02 <
-1 0 14 -2 106.67 2.01 62.68 <
-1 0 14 -1 154.67 331.36 127.38 <
-1 0 14 0 8.66 298.30 149.48 <
-1 0 14 1 53.82 49.00 82.17 <
-1 0 14 2 16.50 55.22 87.92 <
0 0 14 -2 171.22 207.66 116.60 <
0 0 14 -1 5.76 323.07 150.31 <
0 0 14 0 0.14 132.77 97.46 <
0 0 14 1 25.88 117.72 90.17 <
0 0 14 2 78.03 216.13 115.77 <
1 0 14 -2 62.79 107.29 78.97 <
1 0 14 -1 22.45 159.31 89.46 <
1 0 14 0 19.35 454.12 170.33 <
1 0 14 1 50.26 34.84 58.30 <
1 0 14 2 11.69 65.47 66.65 <
2 0 14 -2 133.39 466.26 176.32 <
2 0 14 -1 3.04 34.24 50.77 <
2 0 14 0 8.94 81.29 71.27 <
3 0 14 -2 87.09 198.41 175.72 <
3 0 14 -1 5.92 45.62 60.90 <
-2 1 14 -2 20.77 176.08 166.30 <
-2 -1 14 -2 22.48 119.91 142.96 <
-2 1 14 -1 291.20 241.07 174.95 <
-2 -1 14 -1 316.22 238.46 175.13 <
-2 1 14 0 325.77 108.66 73.41 <
-2 -1 14 0 330.77 368.51 160.91 <
-2 1 14 1 13.07 118.08 91.71 <
-2 -1 14 1 11.85 40.52 82.11 <
-2 1 14 2 127.28 116.36 196.64 <
-2 -1 14 2 135.83 33.06 38.57 <
-1 1 14 -2 20.06 -13.45 44.73 <
-1 -1 14 -2 11.93 12.38 37.21 <
-1 1 14 -1 65.99 165.00 77.85 <
-1 -1 14 -1 89.29 348.66 162.15 <
-1 1 14 0 1344.78 995.62 230.58 o
-1 -1 14 0 1305.49 1150.67 250.25 o
-1 1 14 1 209.54 233.78 116.77 <
-1 -1 14 1 206.01 263.05 166.90 <
-1 1 14 2 46.66 1.30 114.34 <
-1 -1 14 2 49.91 74.77 68.13 <
0 1 14 -2 19.32 95.15 96.81 <
0 -1 14 -2 19.81 5.92 52.97 <
0 1 14 -1 324.64 174.60 82.94 <
0 -1 14 -1 343.75 23.28 79.86 <
0 1 14 0 532.48 286.04 146.57 <
0 -1 14 0 545.96 347.30 149.12 <
0 1 14 1 33.92 210.09 96.21 <
0 -1 14 1 40.31 82.65 94.20 <
0 1 14 2 100.91 35.13 78.32 <
0 -1 14 2 106.26 0.53 130.22 <
1 1 14 -2 56.10 110.14 81.94 <
1 -1 14 -2 52.88 71.09 111.38 <
1 1 14 -1 180.34 115.11 99.65 <
1 -1 14 -1 175.62 209.73 108.48 <
1 1 14 0 1331.83 1022.10 234.73 o
1 -1 14 0 1298.13 940.35 231.71 o
1 1 14 1 87.52 135.91 116.24 <
1 -1 14 1 105.85 125.90 67.72 <
1 1 14 2 36.09 88.99 108.00 <
1 -1 14 2 39.40 -105.99 83.95 <
2 1 14 -2 40.57 199.66 126.79 <
2 -1 14 -2 45.79 117.66 116.54 <
2 1 14 -1 84.35 25.06 74.23 <
2 -1 14 -1 89.66 122.76 78.97 <
2 1 14 0 246.19 232.12 162.10 <
2 -1 14 0 254.50 213.28 115.65 <
2 -1 14 1 69.33 259.50 155.46 <
3 1 14 -2 54.08 210.09 192.90 <
3 -1 14 -2 50.86 8.29 92.90 <
3 -1 14 -1 34.31 254.46 202.98 <
-2 2 14 -2 44.54 62.92 57.41 <
-2 -2 14 -2 39.17 78.50 125.30 <
-2 2 14 -1 32.62 193.38 149.18 <
-2 -2 14 -1 40.03 275.37 159.13 <
-2 2 14 0 78.76 281.59 135.14 <
-2 -2 14 0 70.62 453.17 163.04 <
-2 2 14 1 61.53 362.76 146.87 <
-2 -2 14 1 74.95 149.83 133.24 <
-2 2 14 2 63.33 -11.73 110.73 <
-2 -2 14 2 61.19 27.08 206.77 <
-1 2 14 -2 39.48 16.89 115.71 <
-1 -2 14 -2 41.56 52.85 67.72 <
-1 2 14 -1 507.46 453.41 163.22 <
-1 -2 14 -1 523.37 524.50 181.94 <
-1 2 14 0 34.54 382.13 150.90 <
-1 -2 14 0 40.94 585.82 193.73 o
-1 2 14 1 466.51 326.56 168.67 <
-1 -2 14 1 464.22 477.22 188.52 <
-1 2 14 2 27.14 145.51 110.85 <
-1 -2 14 2 30.29 121.93 173.47 <
0 2 14 -2 134.83 235.86 100.60 <
0 -2 14 -2 136.16 145.57 86.26 <
0 2 14 -1 66.45 237.63 155.22 <
0 -2 14 -1 73.58 -14.10 106.70 <
0 2 14 0 293.87 887.26 220.63 o
0 -2 14 0 282.65 941.77 233.37 o
0 2 14 1 126.50 158.96 117.60 <
0 -2 14 1 166.66 97.10 82.77 <
0 2 14 2 91.39 207.06 129.57 <
0 -2 14 2 88.10 219.86 136.32 <
1 2 14 -2 51.14 137.98 96.21 <
1 -2 14 -2 50.89 233.01 115.71 <
1 2 14 -1 109.11 258.19 145.15 <
1 -2 14 -1 117.91 269.86 147.34 <
1 2 14 0 42.01 361.52 150.66 <
1 -2 14 0 46.41 648.56 181.71 o
1 2 14 1 419.57 660.83 189.94 o
1 -2 14 1 394.47 538.01 186.74 <
1 2 14 2 19.02 83.71 69.50 <
1 -2 14 2 19.59 36.85 17.71 <
2 2 14 -2 80.71 121.81 87.39 <
2 -2 14 -2 78.71 130.52 144.74 <
2 2 14 -1 21.14 76.78 100.01 <
2 -2 14 -1 26.24 5.33 58.36 <
2 2 14 0 14.97 100.95 109.66 <
2 -2 14 0 12.51 183.42 191.42 <
2 -2 14 1 101.89 53.85 139.23 <
3 2 14 -2 29.40 54.92 120.39 <
3 -2 14 -2 28.40 135.73 179.10 <
3 -2 14 -1 37.96 70.03 14.57 o
-3 -3 14 0 267.72 -13.39 110.67 <
-2 3 14 -2 25.68 179.10 138.16 <
-2 -3 14 -2 28.20 119.74 115.29 <
-2 3 14 -1 251.18 143.55 104.39 <
-2 -3 14 -1 225.17 147.58 112.45 <
-2 3 14 0 246.65 240.83 122.22 <
-2 -3 14 0 272.02 173.83 131.23 <
-2 3 14 1 85.67 12.50 74.12 <
-2 -3 14 1 84.28 126.61 101.96 <
-2 -3 14 2 43.24 186.92 208.96 <
-1 3 14 -2 8.23 157.71 103.98 <
-1 -3 14 -2 16.63 -8.00 94.85 <
-1 3 14 -1 53.56 135.32 111.62 <
-1 -3 14 -1 51.26 47.99 133.78 <
-1 3 14 0 283.03 154.39 174.12 <
-1 -3 14 0 252.78 179.46 127.02 <
-1 3 14 1 96.18 195.39 140.18 <
-1 -3 14 1 92.45 130.40 121.04 <
-1 3 14 2 83.17 165.53 138.40 <
-1 -3 14 2 78.29 3.50 89.52 <
0 3 14 -2 131.99 178.21 130.34 <
0 -3 14 -2 130.10 179.28 99.95 <
0 3 14 -1 137.00 89.64 79.51 <
0 -3 14 -1 119.37 -34.95 75.66 <
0 3 14 0 314.35 331.30 169.92 <
0 -3 14 0 365.70 244.80 113.99 <
0 3 14 1 133.13 198.24 99.59 <
0 -3 14 1 115.80 167.37 97.28 <
0 3 14 2 61.96 46.39 80.63 <
0 -3 14 2 61.64 143.61 95.80 <
1 3 14 -2 81.13 145.86 115.88 <
1 -3 14 -2 89.31 141.54 70.21 <
1 3 14 -1 103.68 31.52 78.32 <
1 -3 14 -1 105.37 114.46 97.16 <
1 3 14 0 243.71 159.61 111.20 <
1 -3 14 0 214.94 22.75 90.11 <
1 3 14 1 189.48 212.87 121.63 <
1 -3 14 1 177.57 463.77 174.36 <
1 -3 14 2 58.02 11.55 61.97 <
2 3 14 -2 84.13 60.02 57.59 <
2 -3 14 -2 85.25 157.77 183.25 <
2 3 14 -1 91.96 111.62 180.17 <
2 -3 14 -1 96.34 170.69 148.47 <
2 3 14 0 161.37 133.84 90.05 <
2 -3 14 0 176.80 343.21 199.07 <
3 3 14 -2 94.00 -145.45 166.24 <
3 -3 14 -2 95.38 120.15 142.19 <
-2 4 14 -2 159.01 126.13 103.50 <
-2 -4 14 -2 167.34 164.11 116.89 <
-2 4 14 -1 235.39 219.92 166.95 <
-2 -4 14 -1 218.05 244.98 159.90 <
-2 4 14 0 161.59 393.39 178.39 <
-2 -4 14 0 164.63 261.57 137.51 <
-2 4 14 1 202.74 181.76 139.17 <
-2 -4 14 1 170.11 240.95 123.71 <
-2 -4 14 2 15.78 -49.65 121.22 <
-1 4 14 -2 113.68 3.79 21.98 <
-1 -4 14 -2 110.25 41.41 133.84 <
-1 4 14 -1 61.31 160.32 128.33 <
-1 -4 14 -1 48.87 122.11 92.72 <
-1 4 14 0 8.29 117.37 108.36 <
-1 -4 14 0 6.74 102.55 77.67 <
-1 4 14 1 151.62 145.39 130.16 <
-1 -4 14 1 146.48 141.66 128.21 <
-1 4 14 2 21.98 -42.24 65.82 <
-1 -4 14 2 25.34 44.20 57.17 <
0 4 14 -2 47.02 47.93 103.50 <
0 -4 14 -2 45.08 40.05 81.76 <
0 4 14 -1 214.70 65.05 85.97 <
0 -4 14 -1 189.41 221.70 111.38 <
0 4 14 0 222.20 623.97 204.75 o
0 -4 14 0 223.88 646.13 219.51 <
0 4 14 1 252.68 271.05 141.66 <
0 -4 14 1 257.69 232.24 152.02 <
0 4 14 2 7.47 -0.95 74.41 <
0 -4 14 2 5.93 -36.85 86.08 <
1 4 14 -2 71.97 139.82 99.06 <
1 -4 14 -2 67.94 241.43 180.94 <
1 4 14 -1 65.61 195.57 97.22 <
1 -4 14 -1 63.18 69.14 149.48 <
1 4 14 0 4.68 176.26 81.82 <
1 -4 14 0 3.23 19.97 72.81 <
1 4 14 1 222.55 236.57 149.24 <
1 -4 14 1 213.51 300.55 126.90 <
1 -4 14 2 42.86 27.85 86.02 <
2 4 14 -2 14.01 187.45 217.31 <
2 -4 14 -2 6.15 50.54 51.96 <
2 4 14 -1 35.63 311.04 229.04 <
2 -4 14 -1 29.01 122.99 154.39 <
2 4 14 0 184.81 330.18 252.39 <
2 -4 14 0 182.87 583.63 307.19 <
3 4 14 -2 58.59 -57.47 87.98 <
3 -4 14 -2 47.58 -17.30 45.15 <
-2 5 14 -2 290.85 316.96 189.65 <
-2 -5 14 -2 270.11 384.21 159.79 <
-2 5 14 -1 56.47 188.64 89.99 <
-2 -5 14 -1 46.89 240.42 118.49 <
-2 5 14 0 1649.66 1189.53 290.66 o
-2 -5 14 0 1601.09 1173.54 288.94 o
-2 5 14 1 75.60 167.78 133.54 <
-2 -5 14 1 77.42 165.12 229.58 <
-2 -5 14 2 20.61 -65.41 166.95 <
-1 5 14 -2 117.82 46.69 57.23 <
-1 -5 14 -2 125.08 166.24 126.85 <
-1 5 14 -1 269.46 322.89 142.72 <
-1 -5 14 -1 305.26 304.29 144.85 <
-1 5 14 0 135.90 101.84 92.30 <
-1 -5 14 0 118.34 66.18 107.47 <
-1 5 14 1 79.05 182.95 131.58 <
-1 -5 14 1 90.97 58.00 96.93 <
-1 5 14 2 39.30 52.25 116.12 <
-1 -5 14 2 46.13 23.52 74.06 <
0 5 14 -2 182.68 108.66 73.29 <
0 -5 14 -2 165.30 194.56 134.55 <
0 5 14 -1 247.32 488.83 172.35 <
0 -5 14 -1 227.97 259.26 106.64 <
0 5 14 0 2796.04 2678.32 398.60 o
0 -5 14 0 2754.34 1917.42 316.19 o
0 5 14 1 90.46 344.87 155.70 <
0 -5 14 1 90.48 180.70 117.54 <
0 5 14 2 28.15 65.70 101.78 <
0 -5 14 2 22.91 54.03 80.16 <
1 5 14 -2 29.50 6.64 92.01 <
1 -5 14 -2 32.88 -9.60 20.97 <
1 5 14 -1 124.96 105.99 74.47 <
1 -5 14 -1 141.80 152.32 161.50 <
1 5 14 0 73.37 -34.07 64.10 <
1 -5 14 0 60.34 -182.77 123.05 <
1 5 14 1 50.21 385.04 261.63 <
1 -5 14 1 59.04 45.03 47.93 <
1 -5 14 2 73.86 -62.33 148.65 <
2 5 14 -2 108.25 -59.66 93.43 <
2 -5 14 -2 97.85 244.39 186.39 <
2 5 14 -1 51.71 36.73 78.26 <
2 -5 14 -1 45.06 108.54 54.15 <
2 5 14 0 1632.64 946.92 335.09 <
2 -5 14 0 1590.05 1321.65 378.93 o
3 5 14 -2 34.03 -60.19 145.21 <
3 -5 14 -2 40.05 -106.88 66.95 <
-2 6 14 -2 156.82 234.14 183.01 <
-2 -6 14 -2 157.41 426.27 212.63 <
-2 6 14 -1 132.38 150.43 149.77 <
-2 -6 14 -1 136.45 95.50 78.14 <
-2 6 14 0 67.64 53.79 67.95 <
-2 -6 14 0 58.00 171.28 136.98 <
-1 6 14 -2 116.24 118.96 112.92 <
-1 -6 14 -2 120.98 -1.48 71.63 <
-1 6 14 -1 2.51 22.87 59.60 <
-1 -6 14 -1 2.20 25.65 89.93 <
-1 6 14 0 23.48 146.99 134.61 <
-1 -6 14 0 28.62 216.01 146.57 <
-1 6 14 1 132.51 139.11 142.66 <
-1 -6 14 1 145.56 227.62 124.65 <
-1 6 14 2 9.27 -2.43 71.21 <
-1 -6 14 2 8.50 -222.17 235.68 <
0 6 14 -2 73.89 159.07 90.76 <
0 -6 14 -2 70.43 113.81 100.12 <
0 6 14 -1 116.19 256.06 134.37 <
0 -6 14 -1 116.36 -4.68 66.77 <
0 6 14 0 120.05 387.35 170.51 <
0 -6 14 0 130.48 439.84 162.27 <
0 6 14 1 495.47 475.27 175.49 <
0 -6 14 1 521.30 540.26 174.42 o
0 6 14 2 11.46 82.35 80.16 <
0 -6 14 2 14.32 -25.89 94.91 <
1 6 14 -2 104.51 52.37 67.72 <
1 -6 14 -2 110.24 212.10 175.31 <
1 6 14 -1 39.07 108.66 125.96 <
1 -6 14 -1 45.64 5.98 79.27 <
1 6 14 0 13.11 410.93 264.47 <
1 -6 14 0 20.30 8.77 164.11 <
1 6 14 1 80.05 -15.40 152.20 <
1 -6 14 1 75.01 85.49 125.07 <
2 6 14 -2 110.31 480.30 268.74 <
2 -6 14 -2 103.92 -23.11 35.61 <
2 6 14 -1 169.60 348.84 218.32 <
2 -6 14 -1 174.24 114.40 182.95 <
2 6 14 0 57.72 178.21 191.84 <
2 -6 14 0 50.08 119.62 205.11 <
3 6 14 -2 50.21 -136.21 184.85 <
3 -6 14 -2 49.42 74.71 148.88 <
-2 7 14 -2 47.84 -39.28 70.74 <
-2 -7 14 -2 46.10 -84.66 41.77 <
-2 7 14 -1 110.82 140.18 165.47 <
-2 -7 14 -1 114.93 81.05 103.68 <
-2 7 14 0 221.76 154.81 116.36 <
-1 7 14 -2 218.91 165.53 87.86 <
-1 -7 14 -2 229.13 168.26 94.50 <
-1 7 14 -1 311.22 359.21 157.24 <
-1 -7 14 -1 307.54 412.47 182.89 <
-1 7 14 0 1117.85 1012.03 243.62 o
-1 -7 14 0 1161.51 1051.14 244.74 o
-1 7 14 1 75.51 91.36 107.71 <
-1 -7 14 1 69.40 40.35 89.28 <
-1 7 14 2 61.82 -53.44 97.40 <
-1 -7 14 2 62.43 21.09 70.56 <
0 7 14 -2 23.91 120.57 103.74 <
0 -7 14 -2 21.83 212.69 140.18 <
0 7 14 -1 101.76 202.56 93.07 <
0 -7 14 -1 104.61 187.34 114.34 <
0 7 14 0 249.50 227.50 134.78 <
0 -7 14 0 234.76 253.33 131.23 <
0 7 14 1 134.60 36.97 90.17 <
0 -7 14 1 121.68 104.57 100.42 <
0 -7 14 2 75.05 417.39 232.54 <
1 7 14 -2 82.61 159.96 139.05 <
1 -7 14 -2 93.03 163.34 166.12 <
1 7 14 -1 2.49 -16.53 162.27 <
1 -7 14 -1 3.99 -9.18 103.32 <
1 7 14 0 1149.39 1094.80 404.17 <
1 -7 14 0 1199.02 1018.37 372.89 <
1 7 14 1 91.66 128.27 140.00 <
1 -7 14 1 114.37 56.34 78.03 <
2 7 14 -2 46.60 31.10 99.24 <
2 -7 14 -2 50.98 20.56 47.87 <
2 7 14 -1 58.01 223.89 193.85 <
2 -7 14 -1 62.77 -6.58 62.80 <
2 -7 14 0 189.84 150.60 128.98 <
3 7 14 -2 59.92 -213.46 169.74 <
3 -7 14 -2 63.34 -14.46 19.02 <
-2 8 14 -2 71.29 66.53 32.94 <
-2 -8 14 -2 70.11 -120.21 123.53 <
-2 8 14 -1 74.04 194.92 122.40 <
-2 -8 14 -1 67.01 143.20 93.49 <
-1 8 14 -2 81.39 160.97 115.53 <
-1 -8 14 -2 80.19 -24.35 75.48 <
-1 8 14 -1 94.91 434.74 183.19 <
-1 -8 14 -1 88.25 320.05 230.64 <
-1 8 14 0 342.28 867.71 236.51 o
-1 -8 14 0 356.92 808.29 354.17 <
-1 8 14 1 95.06 301.03 171.69 <
-1 -8 14 1 77.86 103.21 121.81 <
-1 8 14 2 26.61 88.04 79.21 <
0 8 14 -2 36.79 100.24 117.48 <
0 -8 14 -2 34.06 77.37 79.27 <
0 8 14 -1 46.73 124.30 75.36 <
0 -8 14 -1 44.60 170.33 88.57 <
0 8 14 0 59.66 54.03 127.56 <
0 -8 14 0 55.83 111.56 90.59 <
0 8 14 1 189.71 175.19 118.25 <
0 -8 14 1 188.08 392.09 152.79 <
0 -8 14 2 15.14 72.46 65.58 <
1 8 14 -2 50.55 106.11 96.16 <
1 -8 14 -2 46.29 -112.21 129.51 <
1 8 14 -1 69.68 -32.53 75.12 <
1 -8 14 -1 66.62 188.58 165.12 <
1 8 14 0 172.37 170.86 158.84 <
1 -8 14 0 176.84 146.51 103.80 <
1 -8 14 1 193.47 13.63 107.65 <
2 8 14 -2 57.86 -63.04 57.94 <
2 -8 14 -2 53.67 -55.99 111.08 <
2 8 14 -1 11.27 131.35 137.86 <
2 -8 14 -1 10.87 35.73 49.53 <
2 -8 14 0 46.86 -8.18 81.82 <
3 8 14 -2 28.30 -255.53 186.27 <
3 -8 14 -2 24.16 108.36 169.03 <
-2 9 14 -2 0.24 18.66 114.82 <
-2 -9 14 -2 0.82 87.15 70.15 <
-1 9 14 -2 194.62 297.53 129.51 <
-1 -9 14 -2 192.75 257.42 174.54 <
-1 9 14 -1 1333.67 1103.21 261.69 o
-1 -9 14 -1 1333.62 1449.80 411.11 o
-1 9 14 0 430.46 322.65 139.23 <
-1 -9 14 0 429.16 234.08 189.05 <
-1 9 14 1 19.18 134.37 141.30 <
-1 9 14 2 54.54 -66.65 110.26 <
0 9 14 -2 12.52 -87.03 93.37 <
0 -9 14 -2 12.40 116.71 112.21 <
0 9 14 -1 50.20 -12.97 49.11 <
0 -9 14 -1 64.48 59.60 79.45 <
0 9 14 0 99.12 -105.40 90.41 <
1 9 14 -2 85.58 196.40 219.09 <
1 -9 14 -2 85.85 211.09 146.99 <
1 9 14 -1 155.90 121.99 189.65 <
1 -9 14 -1 158.70 -85.20 117.01 <
1 9 14 0 326.78 293.38 232.66 <
1 -9 14 0 333.83 59.30 31.46 <
1 -9 14 1 334.08 102.73 45.38 <
2 9 14 -2 34.94 185.62 209.67 <
2 -9 14 -2 33.63 310.15 209.14 <
2 9 14 -1 25.94 149.95 183.90 <
2 -9 14 -1 28.34 213.17 159.73 <
2 -9 14 0 60.19 42.36 104.04 <
3 -9 14 -2 54.75 33.95 49.47 <
-2 -10 14 -2 24.53 67.48 103.98 <
-1 10 14 -2 296.15 542.39 193.73 <
-1 -10 14 -2 294.03 460.22 245.16 <
-1 10 14 -1 79.44 266.66 162.75 <
-1 -10 14 -1 87.59 299.43 195.45 <
-1 10 14 0 22.49 163.99 119.91 <
-1 -10 14 0 21.41 104.86 154.28 <
-1 10 14 1 15.33 -45.15 96.75 <
-1 10 14 2 17.68 -34.72 68.31 <
0 10 14 -2 31.69 67.90 85.25 <
0 10 14 -1 62.04 60.79 110.67 <
0 10 14 0 23.83 -54.09 57.05 <
1 10 14 -2 217.78 591.86 327.75 <
1 -10 14 -2 217.67 488.72 227.86 <
1 10 14 -1 23.65 87.15 123.47 <
1 -10 14 -1 26.29 86.62 81.17 <
1 10 14 0 63.10 90.71 142.72 <
2 10 14 -2 53.77 242.43 225.90 <
2 -10 14 -2 57.79 -3.55 62.50 <
2 10 14 -1 22.10 147.17 168.67 <
2 -10 14 -1 24.77 195.51 177.20 <
3 -10 14 -2 143.65 232.36 176.55 <
-1 11 14 -2 88.57 -64.10 70.56 <
-1 -11 14 -2 88.41 -66.89 62.33 <
-1 11 14 -1 183.06 333.97 153.62 <
-1 -11 14 -1 169.84 119.14 129.63 <
-1 11 14 0 1022.17 668.35 251.02 <
-1 11 14 1 14.74 0.24 72.34 <
0 11 14 -2 4.54 50.00 79.39 <
0 11 14 -1 91.15 296.64 234.73 <
0 11 14 0 135.68 216.54 213.64 <
1 11 14 -2 17.24 -212.93 160.67 <
1 11 14 -1 40.45 -103.50 102.26 <
2 11 14 -2 22.56 51.37 153.98 <
2 -11 14 -2 16.75 -50.77 107.41 <
2 -11 14 -1 38.26 69.02 35.55 <
-1 12 14 -2 14.19 33.30 56.99 <
-1 -12 14 -2 12.43 11.55 149.36 <
-1 12 14 -1 186.88 153.03 129.39 <
-1 12 14 0 15.52 45.56 85.20 <
0 12 14 -2 43.83 410.99 308.02 <
0 12 14 -1 14.36 234.85 189.11 <
1 12 14 -2 7.37 233.19 206.83 <
1 12 14 -1 110.90 0.00 82.59 <
2 12 14 -2 113.66 -11.85 72.28 <
-1 13 14 -2 51.53 -16.59 45.56 <
-1 -13 14 -2 51.92 122.28 145.63 <
-1 13 14 -1 8.16 199.36 141.48 <
0 13 14 -2 37.45 114.34 176.37 <
0 13 14 -1 99.14 437.59 328.52 <
1 13 14 -2 24.72 111.20 56.40 <
1 13 14 -1 17.31 101.19 186.27 <
2 13 14 -2 52.27 113.99 145.92 <
-1 14 14 -2 10.46 105.04 95.09 <
0 14 14 -2 111.19 389.72 227.21 <
1 14 14 -2 21.79 -76.07 64.93 <
1 15 14 -2 61.08 105.46 159.25 <
-2 0 15 -2 135.86 -177.09 192.19 <
-2 0 15 -1 171.81 160.32 152.20 <
-1 0 15 -2 23.53 65.35 85.43 <
-1 0 15 -1 8.23 124.65 79.15 <
-1 0 15 0 113.19 523.08 209.20 <
0 0 15 -2 78.10 -0.65 118.91 <
0 0 15 -1 269.96 340.19 167.96 <
0 0 15 0 257.04 -44.79 61.91 <
0 0 15 1 644.02 527.88 247.11 <
1 0 15 -2 20.80 -29.27 25.36 <
1 0 15 -1 225.50 200.49 118.14 <
1 0 15 0 99.21 465.20 173.23 <
1 0 15 1 361.83 223.36 162.10 <
2 0 15 -2 22.40 24.41 78.32 <
2 0 15 -1 24.20 153.80 113.46 <
-2 1 15 -2 9.71 247.53 227.03 <
-2 -1 15 -2 9.54 23.17 62.39 <
-2 -1 15 -1 51.04 -2.84 75.12 <
-1 1 15 -2 257.59 251.08 147.58 <
-1 -1 15 -2 251.21 267.02 153.27 <
-1 1 15 -1 183.88 356.60 151.61 <
-1 -1 15 -1 173.80 150.60 99.53 <
-1 1 15 0 810.85 637.42 213.23 <
-1 -1 15 0 789.43 1128.63 286.16 o
0 1 15 -2 18.01 161.09 103.62 <
0 -1 15 -2 21.20 109.31 102.61 <
0 1 15 -1 74.63 164.11 97.10 <
0 -1 15 -1 87.31 304.05 186.15 <
0 1 15 0 49.01 -74.95 93.73 <
0 -1 15 0 47.80 49.53 20.32 <
0 1 15 1 253.87 82.83 111.97 <
0 -1 15 1 300.37 249.72 136.74 <
1 1 15 -2 212.75 193.38 116.65 <
1 -1 15 -2 208.19 5.63 62.15 <
1 1 15 -1 85.25 79.92 69.97 <
1 -1 15 -1 72.04 93.13 105.52 <
1 1 15 0 691.28 732.10 212.10 o
1 -1 15 0 670.16 655.38 210.50 o
1 1 15 1 130.97 -36.79 81.40 <
1 -1 15 1 139.47 76.66 33.12 <
2 1 15 -2 42.50 229.81 130.22 <
2 -1 15 -2 41.56 12.26 80.34 <
2 1 15 -1 75.69 13.39 176.37 <
2 -1 15 -1 75.66 53.56 66.36 <
2 -1 15 0 55.46 96.33 91.77 <
-2 -2 15 -2 38.80 -5.75 90.65 <
-2 -2 15 -1 67.70 111.08 54.80 <
-1 2 15 -2 152.47 325.49 149.77 <
-1 -2 15 -2 143.78 278.10 137.63 <
-1 2 15 -1 37.88 188.88 114.88 <
-1 -2 15 -1 43.50 172.23 123.41 <
-1 2 15 0 417.04 969.20 260.15 o
-1 -2 15 0 447.94 650.22 214.59 o
-1 -2 15 1 91.42 84.13 203.21 <
0 2 15 -2 14.82 263.82 120.68 <
0 -2 15 -2 16.27 86.62 109.25 <
0 2 15 -1 53.06 104.98 76.25 <
0 -2 15 -1 53.16 51.66 61.20 <
0 2 15 0 145.47 50.65 96.51 <
0 -2 15 0 112.95 88.22 67.01 <
0 2 15 1 152.74 200.66 146.46 <
0 -2 15 1 131.76 96.33 69.32 <
1 2 15 -2 117.54 179.75 119.32 <
1 -2 15 -2 113.56 70.44 65.64 <
1 2 15 -1 42.11 216.13 157.00 <
1 -2 15 -1 40.44 273.77 139.52 <
1 2 15 0 297.41 570.83 187.22 o
1 -2 15 0 327.70 738.38 213.94 o
1 2 15 1 217.31 121.04 116.71 <
2 2 15 -2 17.32 119.68 75.89 <
2 -2 15 -2 22.78 -4.21 59.78 <
2 -2 15 -1 19.81 10.25 53.02 <
2 -2 15 0 307.07 284.56 164.35 <
-2 -3 15 -2 32.26 165.89 110.61 <
-2 -3 15 -1 88.16 84.72 156.41 <
-1 3 15 -2 46.43 112.63 112.86 <
-1 -3 15 -2 42.61 50.24 36.14 <
-1 3 15 -1 392.18 556.73 210.85 <
-1 -3 15 -1 367.35 549.80 211.03 <
-1 3 15 0 137.95 228.10 152.56 <
-1 -3 15 0 134.11 37.21 83.95 <
-1 -3 15 1 111.86 -127.02 69.20 <
0 3 15 -2 77.97 68.25 118.08 <
0 -3 15 -2 86.00 171.28 106.23 <
0 3 15 -1 10.79 -9.48 49.53 <
0 -3 15 -1 11.99 41.35 106.40 <
0 3 15 0 162.54 192.90 129.99 <
0 -3 15 0 152.81 197.35 137.98 <
0 3 15 1 6.18 70.21 74.53 <
0 -3 15 1 6.52 -138.87 137.51 <
1 3 15 -2 28.98 -39.28 83.06 <
1 -3 15 -2 27.85 99.53 97.81 <
1 3 15 -1 121.03 160.56 125.60 <
1 -3 15 -1 112.36 114.11 106.52 <
1 3 15 0 147.21 235.03 159.31 <
1 -3 15 0 140.92 254.82 122.64 <
2 3 15 -2 50.25 138.04 172.11 <
2 -3 15 -2 55.21 -77.37 91.71 <
2 -3 15 -1 15.22 140.23 120.27 <
-2 -4 15 -2 59.81 188.93 228.98 <
-2 -4 15 -1 213.88 467.03 309.62 <
-2 -4 15 0 299.36 504.54 271.70 <
-1 4 15 -2 131.46 303.16 137.33 <
-1 -4 15 -2 128.41 309.44 149.77 <
-1 4 15 -1 96.41 144.50 102.79 <
-1 -4 15 -1 101.28 360.75 170.69 <
-1 4 15 0 266.60 258.25 156.11 <
-1 -4 15 0 276.27 64.70 114.52 <
-1 -4 15 1 93.45 109.25 95.15 <
0 4 15 -2 31.01 38.09 87.51 <
0 -4 15 -2 31.42 20.14 111.08 <
0 4 15 -1 115.47 136.74 122.70 <
0 -4 15 -1 116.85 213.23 127.20 <
0 4 15 0 484.91 562.48 196.70 <
0 -4 15 0 472.22 563.72 185.91 o
0 4 15 1 120.02 25.06 92.72 <
0 -4 15 1 114.04 -119.85 144.15 <
1 4 15 -2 117.85 147.82 101.01 <
1 -4 15 -2 118.31 167.31 99.71 <
1 4 15 -1 79.69 131.94 90.23 <
1 -4 15 -1 82.82 82.06 85.20 <
1 -4 15 0 340.33 -38.27 89.76 <
2 4 15 -2 41.95 106.40 169.98 <
2 -4 15 -2 42.71 33.18 113.34 <
2 -4 15 -1 3.37 38.87 56.58 <
-1 5 15 -2 99.54 100.66 89.99 <
-1 -5 15 -2 97.41 192.25 94.02 <
-1 5 15 -1 110.33 224.60 112.57 <
-1 -5 15 -1 133.60 177.80 122.22 <
-1 5 15 0 117.37 444.40 223.83 <
-1 -5 15 0 121.67 10.37 63.27 <
-1 -5 15 1 12.69 -219.51 175.78 <
0 5 15 -2 63.68 145.63 133.36 <
0 -5 15 -2 74.86 173.29 111.68 <
0 5 15 -1 261.70 175.96 136.74 <
0 -5 15 -1 262.05 160.50 99.53 <
0 5 15 0 770.43 720.66 228.51 o
0 -5 15 0 722.83 635.82 194.15 o
0 5 15 1 13.34 46.92 99.47 <
0 -5 15 1 15.31 104.27 171.93 <
1 5 15 -2 36.34 -72.16 85.02 <
1 -5 15 -2 32.72 260.50 94.44 <
1 5 15 -1 128.87 93.96 94.85 <
1 -5 15 -1 145.94 137.39 106.29 <
1 -5 15 0 78.95 96.33 106.64 <
2 5 15 -2 82.61 332.31 276.97 <
2 -5 15 -2 90.85 202.32 197.70 <
2 -5 15 -1 120.61 27.90 86.20 <
-1 6 15 -2 34.48 122.40 120.51 <
-1 -6 15 -2 28.55 203.04 114.52 <
-1 6 15 -1 26.68 6.16 37.50 <
-1 -6 15 -1 32.35 17.06 88.10 <
-1 6 15 0 87.40 326.44 198.41 <
-1 -6 15 0 83.24 -35.31 83.00 <
-1 -6 15 1 58.17 131.82 64.40 <
0 6 15 -2 149.24 284.26 150.43 <
0 -6 15 -2 147.94 273.71 124.06 <
0 6 15 -1 6.95 169.26 142.54 <
0 -6 15 -1 9.15 -6.75 63.75 <
0 6 15 0 105.96 -51.13 40.41 <
0 -6 15 0 93.73 227.62 208.37 <
0 6 15 1 121.63 140.41 120.09 <
0 -6 15 1 113.10 129.15 94.44 <
1 6 15 -2 33.00 33.77 84.60 <
1 -6 15 -2 33.49 66.24 77.79 <
1 6 15 -1 11.00 350.20 266.55 <
1 -6 15 -1 9.20 65.94 83.36 <
1 -6 15 0 99.67 306.48 192.01 <
2 6 15 -2 226.02 239.95 202.86 <
2 -6 15 -2 227.02 328.93 233.25 <
-1 7 15 -2 7.50 105.10 84.07 <
-1 -7 15 -2 6.38 181.29 162.10 <
-1 7 15 -1 39.08 284.79 177.03 <
0 7 15 -2 8.31 102.97 94.02 <
0 -7 15 -2 9.94 191.01 110.97 <
0 7 15 -1 231.86 66.89 67.01 <
0 -7 15 -1 214.84 52.43 75.54 <
0 7 15 0 657.32 575.39 209.43 <
0 -7 15 0 629.95 574.27 266.07 <
1 7 15 -2 36.65 60.31 57.35 <
1 -7 15 -2 34.14 -7.52 45.97 <
1 7 15 -1 91.87 145.45 146.51 <
1 -7 15 -1 76.11 63.39 61.14 <
1 -7 15 0 17.09 71.63 140.29 <
2 7 15 -2 14.51 351.56 241.43 <
2 -7 15 -2 16.33 108.83 75.36 <
-1 8 15 -2 9.59 64.93 59.72 <
-1 -8 15 -2 14.28 -77.20 94.85 <
-1 8 15 -1 391.77 294.45 189.70 <
0 8 15 -2 71.32 127.85 118.25 <
0 -8 15 -2 77.07 38.81 49.53 <
0 8 15 -1 66.75 243.26 159.73 <
0 -8 15 -1 72.59 283.43 146.46 <
0 8 15 0 469.08 477.70 218.74 <
1 8 15 -2 11.38 83.12 140.35 <
1 -8 15 -2 9.31 -31.70 107.65 <
1 -8 15 -1 15.23 -111.14 146.57 <
1 -8 15 0 133.16 -35.43 137.63 <
2 -8 15 -2 42.38 -242.55 208.25 <
-1 9 15 -2 15.13 -55.99 54.62 <
0 9 15 -2 62.81 -25.06 49.59 <
0 -9 15 -2 61.77 45.86 73.82 <
0 9 15 -1 48.78 -39.22 44.91 <
1 9 15 -2 44.41 44.97 75.72 <
1 -9 15 -2 43.93 -23.76 87.92 <
1 -9 15 -1 9.36 -160.44 196.99 <
2 -9 15 -2 7.32 -42.18 66.47 <
-1 10 15 -2 72.34 127.38 113.63 <
0 10 15 -2 24.93 126.31 97.52 <
0 -10 15 -2 25.20 -1.48 84.84 <
1 10 15 -2 26.62 -42.06 76.31 <
2 -10 15 -2 3.55 -59.78 124.00 <
-1 0 16 -2 3.41 91.83 115.29 <
0 0 16 -2 155.55 354.70 157.18 <
1 0 16 -2 36.59 59.13 100.78 <
1 0 16 -1 10.18 115.65 117.90 <
2 0 16 -2 163.43 -1.60 83.36 <
-1 -1 16 -2 30.15 -118.14 160.67 <
0 1 16 -2 27.54 11.20 120.27 <
0 -1 16 -2 25.10 172.35 131.05 <
1 -1 16 -2 57.88 111.74 73.35 <
1 1 16 -1 33.85 -90.23 125.25 <
2 1 16 -2 2.50 -14.81 92.36 <
2 -1 16 -2 2.44 -39.58 88.10 <
-1 -2 16 -2 112.10 256.89 118.49 <
0 2 16 -2 60.87 205.29 124.06 <
0 -2 16 -2 64.69 181.29 123.05 <
0 2 16 -1 22.46 -138.69 104.27 <
1 2 16 -2 95.68 262.93 145.57 <
1 -2 16 -2 90.82 218.08 140.35 <
1 2 16 -1 16.50 -38.27 72.75 <
2 -2 16 -2 80.69 122.34 96.63 <
-1 -3 16 -2 11.01 212.51 226.38 <
0 3 16 -2 49.44 -33.77 92.01 <
0 -3 16 -2 50.06 55.63 98.88 <
0 3 16 -1 66.60 -2.07 48.70 <
1 3 16 -2 33.25 -68.72 82.59 <
1 -3 16 -2 26.62 165.29 131.29 <
1 3 16 -1 76.02 71.39 102.91 <
2 -3 16 -2 43.44 -72.46 54.21 <
-1 -4 16 -2 152.13 231.65 222.70 <
0 4 16 -2 21.03 -131.52 128.80 <
0 -4 16 -2 17.45 105.93 109.72 <
1 4 16 -2 63.39 213.76 160.32 <
1 -4 16 -2 60.07 195.21 147.99 <
1 4 16 -1 41.21 -1.54 101.25 <
-1 -5 16 -2 24.03 -3.97 52.14 <
0 5 16 -2 25.38 -11.14 71.09 <
0 -5 16 -2 28.76 -73.76 113.28 <
1 5 16 -2 26.39 108.78 120.45 <
1 -5 16 -2 25.32 130.16 128.27 <
0 6 16 -2 19.35 82.94 147.40 <
0 -6 16 -2 16.46 -12.32 134.43 <
1 -6 16 -2 16.90 535.82 260.33 <
0 7 16 -2 50.20 -42.36 75.83 <
0 -7 16 -2 43.58 256.18 196.99 <
1 -7 16 -2 30.03 -184.55 166.95 <
0 8 16 -2 89.22 233.78 158.78 <
1 -8 16 -2 22.21 191.78 183.60 <
#BEGIN Loops that were not found in dictionaries:
loop_
_jana_cell_twin_matrix_id
_jana_cell_twin_volume_fraction
_jana_cell_twin_matrix_1_1
_jana_cell_twin_matrix_1_2
_jana_cell_twin_matrix_1_3
_jana_cell_twin_matrix_2_1
_jana_cell_twin_matrix_2_2
_jana_cell_twin_matrix_2_3
_jana_cell_twin_matrix_3_1
_jana_cell_twin_matrix_3_2
_jana_cell_twin_matrix_3_3
1 0.828(4) 1 0 0 0 1 0 0 0 1
2 0.172(4) -1 0 0 0 1 0 -0.0046 0 1
#END Loops that were not found in dictionaries
